
 OpenBabel10282417072D

 51 53  0  0  1  0  0  0  0  0999 V2000
    1.8414   -8.1395    0.0000 C   0  0  0  0  0  0  0  0  0  0  0  0
    1.1270   -8.5520    0.0000 C   0  0  0  0  0  0  0  0  0  0  0  0
    1.1270   -9.3770    0.0000 C   0  0  0  0  0  0  0  0  0  0  0  0
    0.4125   -9.7895    0.0000 C   0  0  0  0  0  0  0  0  0  0  0  0
   -0.3020   -9.3770    0.0000 C   0  0  0  0  0  0  0  0  0  0  0  0
   -0.3020   -8.5520    0.0000 C   0  0  0  0  0  0  0  0  0  0  0  0
    0.4125   -8.1395    0.0000 C   0  0  0  0  0  0  0  0  0  0  0  0
    0.4125   -7.3145    0.0000 C   0  0  0  0  0  0  0  0  0  0  0  0
   -0.3020   -6.9020    0.0000 O   0  0  0  0  0  0  0  0  0  0  0  0
   -0.3020   -6.0770    0.0000 C   0  0  0  0  0  0  0  0  0  0  0  0
    0.4125   -5.6645    0.0000 O   0  0  0  0  0  0  0  0  0  0  0  0
   -1.0164   -5.6645    0.0000 C   0  0  2  0  0  0  0  0  0  0  0  0
   -1.8414   -5.6645    0.0000 C   0  0  2  0  0  0  0  0  0  0  0  0
   -2.5559   -6.0770    0.0000 C   0  0  0  0  0  0  0  0  0  0  0  0
   -3.2704   -5.6645    0.0000 C   0  0  0  0  0  0  0  0  0  0  0  0
   -3.2704   -4.8395    0.0000 Cl  0  0  0  0  0  0  0  0  0  0  0  0
   -3.9849   -6.0770    0.0000 C   0  0  0  0  0  0  0  0  0  0  0  0
   -4.6993   -6.4895    0.0000 F   0  0  0  0  0  0  0  0  0  0  0  0
   -3.5724   -6.7914    0.0000 F   0  0  0  0  0  0  0  0  0  0  0  0
   -4.3974   -5.3625    0.0000 F   0  0  0  0  0  0  0  0  0  0  0  0
   -1.4289   -4.9500    0.0000 C   0  0  0  0  0  0  0  0  0  0  0  0
   -1.9021   -4.2742    0.0000 C   0  0  0  0  0  0  0  0  0  0  0  0
   -0.9557   -4.2742    0.0000 C   0  0  0  0  0  0  0  0  0  0  0  0
    1.8414   -9.7895    0.0000 C   0  0  0  0  0  0  0  0  0  0  0  0
    2.5559   -9.3770    0.0000 C   0  0  0  0  0  0  0  0  0  0  0  0
    3.2704   -9.7895    0.0000 C   0  0  0  0  0  0  0  0  0  0  0  0
    3.2704  -10.6145    0.0000 C   0  0  0  0  0  0  0  0  0  0  0  0
    2.5559  -11.0270    0.0000 C   0  0  0  0  0  0  0  0  0  0  0  0
    1.8414  -10.6145    0.0000 C   0  0  0  0  0  0  0  0  0  0  0  0
    2.7681   -8.6745    0.0000 H   0  0  0  0  0  0  0  0  0  0  0  0
    1.8414   -7.0695    0.0000 H   0  0  0  0  0  0  0  0  0  0  0  0
    2.7680   -7.6045    0.0000 H   0  0  0  0  0  0  0  0  0  0  0  0
    0.4125  -10.8215    0.0000 H   0  0  0  0  0  0  0  0  0  0  0  0
   -1.1957   -9.8930    0.0000 H   0  0  0  0  0  0  0  0  0  0  0  0
   -1.1957   -8.0360    0.0000 H   0  0  0  0  0  0  0  0  0  0  0  0
    1.3391   -6.7795    0.0000 H   0  0  0  0  0  0  0  0  0  0  0  0
    0.4125   -6.2445    0.0000 H   0  0  0  0  0  0  0  0  0  0  0  0
   -1.2934   -6.6980    0.0000 H   0  0  0  0  0  0  0  0  0  0  0  0
   -1.5645   -6.6980    0.0000 H   0  0  0  0  0  0  0  0  0  0  0  0
   -2.5559   -7.1090    0.0000 H   0  0  0  0  0  0  0  0  0  0  0  0
   -1.4499   -3.3045    0.0000 H   0  0  0  0  0  0  0  0  0  0  0  0
   -2.9680   -4.3675    0.0000 H   0  0  0  0  0  0  0  0  0  0  0  0
   -2.5158   -3.3977    0.0000 H   0  0  0  0  0  0  0  0  0  0  0  0
    0.1102   -4.3675    0.0000 H   0  0  0  0  0  0  0  0  0  0  0  0
   -1.4079   -3.3045    0.0000 H   0  0  0  0  0  0  0  0  0  0  0  0
   -0.3420   -3.3977    0.0000 H   0  0  0  0  0  0  0  0  0  0  0  0
    2.5559   -8.3450    0.0000 H   0  0  0  0  0  0  0  0  0  0  0  0
    4.1641   -9.2735    0.0000 H   0  0  0  0  0  0  0  0  0  0  0  0
    4.1641  -11.1305    0.0000 H   0  0  0  0  0  0  0  0  0  0  0  0
    2.5559  -12.0590    0.0000 H   0  0  0  0  0  0  0  0  0  0  0  0
    0.9477  -11.1305    0.0000 H   0  0  0  0  0  0  0  0  0  0  0  0
  1  2  1  0  0  0  0
  1 30  1  0  0  0  0
  1 31  1  0  0  0  0
  1 32  1  0  0  0  0
  2  3  2  0  0  0  0
  2  7  1  0  0  0  0
  3  4  1  0  0  0  0
  3 24  1  0  0  0  0
  4  5  2  0  0  0  0
  4 33  1  0  0  0  0
  5  6  1  0  0  0  0
  5 34  1  0  0  0  0
  6  7  2  0  0  0  0
  6 35  1  0  0  0  0
  7  8  1  0  0  0  0
  8  9  1  0  0  0  0
  8 36  1  0  0  0  0
  8 37  1  0  0  0  0
  9 10  1  0  0  0  0
 10 11  2  0  0  0  0
 12 10  1  0  0  0  0
 12 13  1  0  0  0  0
 12 21  1  0  0  0  0
 12 38  1  1  0  0  0
 13 14  1  0  0  0  0
 13 21  1  0  0  0  0
 13 39  1  1  0  0  0
 14 15  2  0  0  0  0
 14 40  1  0  0  0  0
 15 16  1  0  0  0  0
 15 17  1  0  0  0  0
 17 18  1  0  0  0  0
 17 19  1  0  0  0  0
 17 20  1  0  0  0  0
 21 22  1  0  0  0  0
 21 23  1  0  0  0  0
 22 41  1  0  0  0  0
 22 42  1  0  0  0  0
 22 43  1  0  0  0  0
 23 44  1  0  0  0  0
 23 45  1  0  0  0  0
 23 46  1  0  0  0  0
 24 25  2  0  0  0  0
 24 29  1  0  0  0  0
 25 26  1  0  0  0  0
 25 47  1  0  0  0  0
 26 27  2  0  0  0  0
 26 48  1  0  0  0  0
 27 28  1  0  0  0  0
 27 49  1  0  0  0  0
 28 29  2  0  0  0  0
 28 50  1  0  0  0  0
 29 51  1  0  0  0  0
M  END
>  <DRUGBANK_ID>
DB15056

>  <COMMON_NAME>
Bifenthrin

>  <CAS_NUMBER>
82657-04-3

>  <UNII>
6B66JED0KN

>  <SYNONYMS>
CAPTURE

$$$$
