4BG
 OpenBabel10282417072D

 35 36  0  0  0  0  0  0  0  0999 V2000
    2.9577   -0.2145    0.0000 C   0  0  0  0  0  0  0  0  0  0  0  0
    3.6722   -0.6270    0.0000 C   0  0  0  0  0  0  0  0  0  0  0  0
    3.6722   -1.4520    0.0000 C   0  0  0  0  0  0  0  0  0  0  0  0
    2.9577   -1.8645    0.0000 C   0  0  0  0  0  0  0  0  0  0  0  0
    2.2432   -1.4520    0.0000 C   0  0  0  0  0  0  0  0  0  0  0  0
    2.2432   -0.6270    0.0000 C   0  0  0  0  0  0  0  0  0  0  0  0
    1.5288   -0.2145    0.0000 C   0  0  0  0  0  0  0  0  0  0  0  0
    0.8143   -0.6270    0.0000 O   0  0  0  0  0  0  0  0  0  0  0  0
    0.0998   -0.2145    0.0000 C   0  0  0  0  0  0  0  0  0  0  0  0
   -0.6146   -0.6270    0.0000 C   0  0  0  0  0  0  0  0  0  0  0  0
   -1.3291   -0.2145    0.0000 C   0  0  0  0  0  0  0  0  0  0  0  0
    0.0998    0.6105    0.0000 C   0  0  0  0  0  0  0  0  0  0  0  0
   -0.6146    1.0230    0.0000 C   0  0  0  0  0  0  0  0  0  0  0  0
   -1.3291    0.6105    0.0000 C   0  0  0  0  0  0  0  0  0  0  0  0
   -2.0436    1.0230    0.0000 N   0  0  0  0  0  0  0  0  0  0  0  0
   -2.7581    0.6105    0.0000 C   0  0  0  0  0  0  0  0  0  0  0  0
   -2.7581   -0.2145    0.0000 O   0  0  0  0  0  0  0  0  0  0  0  0
   -3.4725    1.0230    0.0000 C   0  0  0  0  0  0  0  0  0  0  0  0
   -4.1870    0.6105    0.0000 N   0  0  0  0  0  0  0  0  0  0  0  0
    2.9577    0.8175    0.0000 H   0  0  0  0  0  0  0  0  0  0  0  0
    4.5659   -0.1110    0.0000 H   0  0  0  0  0  0  0  0  0  0  0  0
    4.5659   -1.9680    0.0000 H   0  0  0  0  0  0  0  0  0  0  0  0
    2.9577   -2.8965    0.0000 H   0  0  0  0  0  0  0  0  0  0  0  0
    1.3495   -1.9680    0.0000 H   0  0  0  0  0  0  0  0  0  0  0  0
    1.5288    0.8555    0.0000 H   0  0  0  0  0  0  0  0  0  0  0  0
    0.6022    0.3205    0.0000 H   0  0  0  0  0  0  0  0  0  0  0  0
   -0.6146   -1.6590    0.0000 H   0  0  0  0  0  0  0  0  0  0  0  0
   -2.2228   -0.7305    0.0000 H   0  0  0  0  0  0  0  0  0  0  0  0
    0.9935    1.1265    0.0000 H   0  0  0  0  0  0  0  0  0  0  0  0
   -0.6146    2.0550    0.0000 H   0  0  0  0  0  0  0  0  0  0  0  0
   -2.0436    2.0075    0.0000 H   0  0  0  0  0  0  0  0  0  0  0  0
   -3.4725    2.0930    0.0000 H   0  0  0  0  0  0  0  0  0  0  0  0
   -4.3991    1.5580    0.0000 H   0  0  0  0  0  0  0  0  0  0  0  0
   -5.0703    1.1205    0.0000 H   0  0  0  0  0  0  0  0  0  0  0  0
   -4.1870   -0.4095    0.0000 H   0  0  0  0  0  0  0  0  0  0  0  0
  1  2  2  0  0  0  0
  1  6  1  0  0  0  0
  1 20  1  0  0  0  0
  2  3  1  0  0  0  0
  2 21  1  0  0  0  0
  3  4  2  0  0  0  0
  3 22  1  0  0  0  0
  4  5  1  0  0  0  0
  4 23  1  0  0  0  0
  5  6  2  0  0  0  0
  5 24  1  0  0  0  0
  6  7  1  0  0  0  0
  7  8  1  0  0  0  0
  7 25  1  0  0  0  0
  7 26  1  0  0  0  0
  8  9  1  0  0  0  0
  9 10  2  0  0  0  0
  9 12  1  0  0  0  0
 10 11  1  0  0  0  0
 10 27  1  0  0  0  0
 11 14  2  0  0  0  0
 11 28  1  0  0  0  0
 12 13  2  0  0  0  0
 12 29  1  0  0  0  0
 13 14  1  0  0  0  0
 13 30  1  0  0  0  0
 14 15  1  0  0  0  0
 15 16  1  0  0  0  0
 15 31  1  0  0  0  0
 16 17  2  0  0  0  0
 16 18  1  0  0  0  0
 18 19  1  0  0  0  0
 18 32  1  0  0  0  0
 18 33  1  0  0  0  0
 19 34  1  0  0  0  0
 19 35  1  0  0  0  0
M  END
>  <DRUGBANK_ID>
DB07099

>  <COMMON_NAME>
N-[4-(benzyloxy)phenyl]glycinamide

$$$$
