
 OpenBabel10282417072D

 37 39  0  0  1  0  0  0  0  0999 V2000
    3.3523    1.1104    0.0000 C   0  0  0  0  0  0  0  0  0  0  0  0
    3.3523    1.9354    0.0000 C   0  0  0  0  0  0  0  0  0  0  0  0
    2.6378    0.6979    0.0000 C   0  0  0  0  0  0  0  0  0  0  0  0
    2.6378    2.3479    0.0000 C   0  0  0  0  0  0  0  0  0  0  0  0
    1.1387    5.0945    0.0000 C   0  0  0  0  0  0  0  0  0  0  0  0
    0.6538    1.5229    0.0000 C   0  0  0  0  0  0  0  0  0  0  0  0
    1.9233    1.1104    0.0000 C   0  0  0  0  0  0  0  0  0  0  0  0
    1.9233    1.9354    0.0000 C   0  0  0  0  0  0  0  0  0  0  0  0
    0.8838    4.3099    0.0000 C   0  0  2  0  0  0  0  0  0  0  0  0
    0.0992    4.0549    0.0000 C   0  0  2  0  0  0  0  0  0  0  0  0
    0.0992    3.2299    0.0000 C   0  0  2  0  0  0  0  0  0  0  0  0
    0.8838    2.9750    0.0000 C   0  0  1  0  0  0  0  0  0  0  0  0
    1.1387    0.8555    0.0000 N   0  0  0  0  0  0  0  0  0  0  0  0
    1.1387    2.1904    0.0000 N   0  0  0  0  0  0  0  0  0  0  0  0
   -0.5683    4.5399    0.0000 O   0  0  0  0  0  0  0  0  0  0  0  0
   -0.5683    2.7450    0.0000 O   0  0  0  0  0  0  0  0  0  0  0  0
    2.4556    6.8353    0.0000 O   0  0  0  0  0  0  0  0  0  0  0  0
    2.9853    5.7957    0.0000 O   0  0  0  0  0  0  0  0  0  0  0  0
    1.4160    6.3056    0.0000 O   0  0  0  0  0  0  0  0  0  0  0  0
    1.9457    5.2660    0.0000 O   0  0  0  0  0  0  0  0  0  0  0  0
    1.3687    3.6424    0.0000 O   0  0  0  0  0  0  0  0  0  0  0  0
    2.2006    6.0507    0.0000 P   0  0  0  0  0  0  0  0  0  0  0  0
    0.1361    4.6585    0.0000 H   0  0  0  0  0  0  0  0  0  0  0  0
   -0.0583    4.8648    0.0000 H   0  0  0  0  0  0  0  0  0  0  0  0
   -0.6359    3.6045    0.0000 H   0  0  0  0  0  0  0  0  0  0  0  0
    0.3004    2.3916    0.0000 H   0  0  0  0  0  0  0  0  0  0  0  0
    4.2460    0.5944    0.0000 H   0  0  0  0  0  0  0  0  0  0  0  0
    4.2460    2.4514    0.0000 H   0  0  0  0  0  0  0  0  0  0  0  0
    2.6378   -0.3341    0.0000 H   0  0  0  0  0  0  0  0  0  0  0  0
    2.6378    3.3799    0.0000 H   0  0  0  0  0  0  0  0  0  0  0  0
    0.4227    5.8897    0.0000 H   0  0  0  0  0  0  0  0  0  0  0  0
    1.4694    6.1121    0.0000 H   0  0  0  0  0  0  0  0  0  0  0  0
   -0.3782    1.5229    0.0000 H   0  0  0  0  0  0  0  0  0  0  0  0
   -0.4669    5.5046    0.0000 H   0  0  0  0  0  0  0  0  0  0  0  0
   -1.4544    3.1396    0.0000 H   0  0  0  0  0  0  0  0  0  0  0  0
    3.4044    7.0369    0.0000 H   0  0  0  0  0  0  0  0  0  0  0  0
    3.1869    4.8469    0.0000 H   0  0  0  0  0  0  0  0  0  0  0  0
  1 27  1  0  0  0  0
  2  1  2  0  0  0  0
  2 28  1  0  0  0  0
  3  1  1  0  0  0  0
  3 29  1  0  0  0  0
  4  2  1  0  0  0  0
  4 30  1  0  0  0  0
  5 31  1  0  0  0  0
  5 32  1  0  0  0  0
  6 33  1  0  0  0  0
  7  3  2  0  0  0  0
  8  4  2  0  0  0  0
  8  7  1  0  0  0  0
  9  5  1  0  0  0  0
  9 23  1  6  0  0  0
 10  9  1  0  0  0  0
 10 15  1  0  0  0  0
 10 24  1  1  0  0  0
 11 10  1  0  0  0  0
 11 16  1  0  0  0  0
 11 25  1  1  0  0  0
 12 11  1  0  0  0  0
 12 14  1  0  0  0  0
 12 26  1  1  0  0  0
 13  6  2  0  0  0  0
 13  7  1  0  0  0  0
 14  6  1  0  0  0  0
 14  8  1  0  0  0  0
 15 34  1  0  0  0  0
 16 35  1  0  0  0  0
 17 36  1  0  0  0  0
 18 37  1  0  0  0  0
 20  5  1  0  0  0  0
 21  9  1  0  0  0  0
 21 12  1  0  0  0  0
 22 17  1  0  0  0  0
 22 18  1  0  0  0  0
 22 19  2  0  0  0  0
 22 20  1  0  0  0  0
M  END
>  <DRUGBANK_ID>
DB03079

>  <SECONDARY_ACCESSION_NUMBERS>
EXPT00084

>  <COMMON_NAME>
Alpha-Ribazole-5'-Phosphate Derivative

$$$$
