NS7
 OpenBabel10282417072D

 57 60  0  0  0  0  0  0  0  0999 V2000
   -3.7547    0.3920    0.0000 C   0  0  0  0  0  0  0  0  0  0  0  0
   -4.3067    1.0051    0.0000 C   0  0  0  0  0  0  0  0  0  0  0  0
   -3.8942    1.7196    0.0000 C   0  0  0  0  0  0  0  0  0  0  0  0
   -3.0872    1.5481    0.0000 C   0  0  0  0  0  0  0  0  0  0  0  0
   -3.0010    0.7276    0.0000 C   0  0  0  0  0  0  0  0  0  0  0  0
   -2.2865    0.3151    0.0000 C   0  0  1  0  0  0  0  0  0  0  0  0
   -1.5721    0.7276    0.0000 C   0  0  0  0  0  0  0  0  0  0  0  0
   -2.2865   -0.5099    0.0000 N   0  0  0  0  0  0  0  0  0  0  0  0
   -1.5721   -0.9224    0.0000 S   0  0  0  0  0  0  0  0  0  0  0  0
   -2.1024   -1.5544    0.0000 O   0  0  0  0  0  0  0  0  0  0  0  0
   -1.0418   -1.5544    0.0000 O   0  0  0  0  0  0  0  0  0  0  0  0
   -0.8576   -0.5099    0.0000 C   0  0  0  0  0  0  0  0  0  0  0  0
   -0.1431   -0.9224    0.0000 C   0  0  0  0  0  0  0  0  0  0  0  0
   -0.8576    0.3151    0.0000 C   0  0  0  0  0  0  0  0  0  0  0  0
   -0.1431    0.7276    0.0000 C   0  0  0  0  0  0  0  0  0  0  0  0
    0.5713    0.3151    0.0000 C   0  0  0  0  0  0  0  0  0  0  0  0
    1.2858    0.7276    0.0000 C   0  0  0  0  0  0  0  0  0  0  0  0
    0.5713   -0.5099    0.0000 C   0  0  0  0  0  0  0  0  0  0  0  0
    1.2858   -0.9224    0.0000 S   0  0  0  0  0  0  0  0  0  0  0  0
    0.8733   -1.6369    0.0000 O   0  0  0  0  0  0  0  0  0  0  0  0
    1.6983   -0.2080    0.0000 O   0  0  0  0  0  0  0  0  0  0  0  0
    2.0003   -1.3349    0.0000 N   0  0  0  0  0  0  0  0  0  0  0  0
    2.0003   -2.1599    0.0000 C   0  0  0  0  0  0  0  0  0  0  0  0
    2.7148   -2.5724    0.0000 C   0  0  0  0  0  0  0  0  0  0  0  0
    3.4292   -2.1599    0.0000 N   0  0  0  0  0  0  0  0  0  0  0  0
    4.1437   -2.5724    0.0000 C   0  0  0  0  0  0  0  0  0  0  0  0
    3.4292   -1.3349    0.0000 C   0  0  0  0  0  0  0  0  0  0  0  0
    2.7148   -0.9224    0.0000 C   0  0  0  0  0  0  0  0  0  0  0  0
   -2.2865    0.8990    0.0000 H   0  0  0  0  0  0  0  0  0  0  0  0
   -3.9772   -0.6546    0.0000 H   0  0  0  0  0  0  0  0  0  0  0  0
   -2.9231   -0.2814    0.0000 H   0  0  0  0  0  0  0  0  0  0  0  0
   -5.3708    0.8933    0.0000 H   0  0  0  0  0  0  0  0  0  0  0  0
   -4.8895    1.9025    0.0000 H   0  0  0  0  0  0  0  0  0  0  0  0
   -4.3294    2.6971    0.0000 H   0  0  0  0  0  0  0  0  0  0  0  0
   -3.2209    2.5512    0.0000 H   0  0  0  0  0  0  0  0  0  0  0  0
   -2.2920    2.2641    0.0000 H   0  0  0  0  0  0  0  0  0  0  0  0
   -2.0883    1.1646    0.0000 H   0  0  0  0  0  0  0  0  0  0  0  0
   -2.1036    1.3104    0.0000 H   0  0  0  0  0  0  0  0  0  0  0  0
   -1.5721    1.7976    0.0000 H   0  0  0  0  0  0  0  0  0  0  0  0
   -0.6455    1.2626    0.0000 H   0  0  0  0  0  0  0  0  0  0  0  0
   -3.1699   -1.0199    0.0000 H   0  0  0  0  0  0  0  0  0  0  0  0
   -0.1431   -1.9544    0.0000 H   0  0  0  0  0  0  0  0  0  0  0  0
   -0.1431    1.7596    0.0000 H   0  0  0  0  0  0  0  0  0  0  0  0
    2.2124    0.1926    0.0000 H   0  0  0  0  0  0  0  0  0  0  0  0
    1.2858    1.7976    0.0000 H   0  0  0  0  0  0  0  0  0  0  0  0
    2.2125    1.2626    0.0000 H   0  0  0  0  0  0  0  0  0  0  0  0
    1.0737   -2.6949    0.0000 H   0  0  0  0  0  0  0  0  0  0  0  0
    2.0003   -3.2299    0.0000 H   0  0  0  0  0  0  0  0  0  0  0  0
    2.7148   -3.6424    0.0000 H   0  0  0  0  0  0  0  0  0  0  0  0
    3.6415   -3.1074    0.0000 H   0  0  0  0  0  0  0  0  0  0  0  0
    4.1437   -3.6424    0.0000 H   0  0  0  0  0  0  0  0  0  0  0  0
    5.0703   -2.0374    0.0000 H   0  0  0  0  0  0  0  0  0  0  0  0
    5.0704   -3.1074    0.0000 H   0  0  0  0  0  0  0  0  0  0  0  0
    4.3559   -0.7999    0.0000 H   0  0  0  0  0  0  0  0  0  0  0  0
    3.4292   -0.2649    0.0000 H   0  0  0  0  0  0  0  0  0  0  0  0
    2.7148    0.1476    0.0000 H   0  0  0  0  0  0  0  0  0  0  0  0
    3.6415   -0.3874    0.0000 H   0  0  0  0  0  0  0  0  0  0  0  0
  1  2  1  0  0  0  0
  1  5  1  0  0  0  0
  1 30  1  0  0  0  0
  1 31  1  0  0  0  0
  2  3  1  0  0  0  0
  2 32  1  0  0  0  0
  2 33  1  0  0  0  0
  3  4  1  0  0  0  0
  3 34  1  0  0  0  0
  3 35  1  0  0  0  0
  4 36  1  0  0  0  0
  4 37  1  0  0  0  0
  5  4  1  0  0  0  0
  5 38  1  0  0  0  0
  6  5  1  0  0  0  0
  6 29  1  6  0  0  0
  7  6  1  0  0  0  0
  7 39  1  0  0  0  0
  7 40  1  0  0  0  0
  8  6  1  0  0  0  0
  8 41  1  0  0  0  0
  9  8  1  0  0  0  0
  9 10  2  0  0  0  0
 11  9  2  0  0  0  0
 12  9  1  0  0  0  0
 12 14  1  0  0  0  0
 13 12  2  0  0  0  0
 13 42  1  0  0  0  0
 14  7  1  0  0  0  0
 15 14  2  0  0  0  0
 15 43  1  0  0  0  0
 16 15  1  0  0  0  0
 17 16  1  0  0  0  0
 17 44  1  0  0  0  0
 17 45  1  0  0  0  0
 17 46  1  0  0  0  0
 18 13  1  0  0  0  0
 18 16  2  0  0  0  0
 19 18  1  0  0  0  0
 19 22  1  0  0  0  0
 20 19  2  0  0  0  0
 21 19  2  0  0  0  0
 22 28  1  0  0  0  0
 23 22  1  0  0  0  0
 23 24  1  0  0  0  0
 23 47  1  0  0  0  0
 23 48  1  0  0  0  0
 24 25  1  0  0  0  0
 24 49  1  0  0  0  0
 24 50  1  0  0  0  0
 25 27  1  0  0  0  0
 26 25  1  0  0  0  0
 26 51  1  0  0  0  0
 26 52  1  0  0  0  0
 26 53  1  0  0  0  0
 27 54  1  0  0  0  0
 27 55  1  0  0  0  0
 28 27  1  0  0  0  0
 28 56  1  0  0  0  0
 28 57  1  0  0  0  0
M  END
>  <DRUGBANK_ID>
DB08305

>  <COMMON_NAME>
(3R)-3-cyclopentyl-6-methyl-7-[(4-methylpiperazin-1-yl)sulfonyl]-3,4-dihydro-2H-1,2-benzothiazine 1,1-dioxide

$$$$
