
 OpenBabel10282417072D

 69 71  0  0  0  0  0  0  0  0999 V2000
    0.7145   -0.4125    0.0000 C   0  0  2  0  0  0  0  0  0  0  0  0
    0.0000    0.8250    0.0000 C   0  0  1  0  0  0  0  0  0  0  0  0
    0.0000   -0.8250    0.0000 C   0  0  1  0  0  0  0  0  0  0  0  0
   -0.7145   -0.4125    0.0000 C   0  0  2  0  0  0  0  0  0  0  0  0
   -0.7145    0.4125    0.0000 C   0  0  2  0  0  0  0  0  0  0  0  0
   -0.7144   -2.0625    0.0000 C   0  0  2  0  0  0  0  0  0  0  0  0
   -0.7144   -2.8875    0.0000 C   0  0  1  0  0  0  0  0  0  0  0  0
   -1.4289   -3.3000    0.0000 C   0  0  2  0  0  0  0  0  0  0  0  0
   -2.1434   -2.8875    0.0000 C   0  0  1  0  0  0  0  0  0  0  0  0
   -2.1434   -2.0625    0.0000 C   0  0  2  0  0  0  0  0  0  0  0  0
   -1.4289   -1.6500    0.0000 O   0  0  0  0  0  0  0  0  0  0  0  0
   -2.8578   -3.3000    0.0000 O   0  0  0  0  0  0  0  0  0  0  0  0
   -2.8578   -1.6500    0.0000 C   0  0  0  0  0  0  0  0  0  0  0  0
   -1.4289   -4.1250    0.0000 N   0  0  0  0  0  0  0  0  0  0  0  0
   -3.5722   -2.0625    0.0000 O   0  0  0  0  0  0  0  0  0  0  0  0
    0.0001    1.6500    0.0000 N   0  0  0  0  0  0  0  0  0  0  0  0
    1.4290   -0.8250    0.0000 N   0  0  0  0  0  0  0  0  0  0  0  0
   -1.4289   -0.8250    0.0000 O   0  0  0  0  0  0  0  0  0  0  0  0
    0.0001   -1.6500    0.0000 O   0  0  0  0  0  0  0  0  0  0  0  0
   -1.4289    0.8250    0.0000 O   0  0  0  0  0  0  0  0  0  0  0  0
   -1.4289    1.6500    0.0000 C   0  0  1  0  0  0  0  0  0  0  0  0
   -0.7144    2.0625    0.0000 O   0  0  0  0  0  0  0  0  0  0  0  0
   -0.7144    2.8875    0.0000 C   0  0  1  0  0  0  0  0  0  0  0  0
   -1.4289    3.3000    0.0000 C   0  0  2  0  0  0  0  0  0  0  0  0
   -2.1434    2.8875    0.0000 C   0  0  1  0  0  0  0  0  0  0  0  0
   -2.1434    2.0625    0.0000 C   0  0  1  0  0  0  0  0  0  0  0  0
    0.0001    3.3000    0.0000 C   0  0  0  0  0  0  0  0  0  0  0  0
    0.7145    2.8875    0.0000 N   0  0  0  0  0  0  0  0  0  0  0  0
   -2.8578    1.6500    0.0000 O   0  0  0  0  0  0  0  0  0  0  0  0
   -2.8578    3.3000    0.0000 O   0  0  0  0  0  0  0  0  0  0  0  0
   -1.4289    4.1250    0.0000 O   0  0  0  0  0  0  0  0  0  0  0  0
    0.7145    0.4125    0.0000 C   0  0  0  0  0  0  0  0  0  0  0  0
    0.0001   -3.3000    0.0000 O   0  0  0  0  0  0  0  0  0  0  0  0
    1.6411    0.1225    0.0000 H   0  0  0  0  0  0  0  0  0  0  0  0
    0.9267    1.3600    0.0000 H   0  0  0  0  0  0  0  0  0  0  0  0
    0.9267   -1.3600    0.0000 H   0  0  0  0  0  0  0  0  0  0  0  0
   -0.7145   -1.4825    0.0000 H   0  0  0  0  0  0  0  0  0  0  0  0
   -1.6412   -0.1225    0.0000 H   0  0  0  0  0  0  0  0  0  0  0  0
    0.2122   -2.5975    0.0000 H   0  0  0  0  0  0  0  0  0  0  0  0
    0.2122   -2.3525    0.0000 H   0  0  0  0  0  0  0  0  0  0  0  0
   -0.5023   -3.8350    0.0000 H   0  0  0  0  0  0  0  0  0  0  0  0
   -2.1434   -3.9575    0.0000 H   0  0  0  0  0  0  0  0  0  0  0  0
   -3.0701   -2.5975    0.0000 H   0  0  0  0  0  0  0  0  0  0  0  0
   -3.6979   -2.8150    0.0000 H   0  0  0  0  0  0  0  0  0  0  0  0
   -2.8578   -0.5800    0.0000 H   0  0  0  0  0  0  0  0  0  0  0  0
   -3.7845   -1.1150    0.0000 H   0  0  0  0  0  0  0  0  0  0  0  0
   -2.3122   -4.6350    0.0000 H   0  0  0  0  0  0  0  0  0  0  0  0
   -0.5456   -4.6350    0.0000 H   0  0  0  0  0  0  0  0  0  0  0  0
   -4.4123   -1.5775    0.0000 H   0  0  0  0  0  0  0  0  0  0  0  0
    0.8835    2.1599    0.0000 H   0  0  0  0  0  0  0  0  0  0  0  0
   -0.8832    2.1601    0.0000 H   0  0  0  0  0  0  0  0  0  0  0  0
    1.4290   -1.8450    0.0000 H   0  0  0  0  0  0  0  0  0  0  0  0
    2.3123   -0.3150    0.0000 H   0  0  0  0  0  0  0  0  0  0  0  0
   -2.2690   -0.3400    0.0000 H   0  0  0  0  0  0  0  0  0  0  0  0
   -0.5023    1.1150    0.0000 H   0  0  0  0  0  0  0  0  0  0  0  0
    0.2122    2.3525    0.0000 H   0  0  0  0  0  0  0  0  0  0  0  0
   -0.5023    3.8350    0.0000 H   0  0  0  0  0  0  0  0  0  0  0  0
   -2.1434    3.9575    0.0000 H   0  0  0  0  0  0  0  0  0  0  0  0
   -2.1434    0.9925    0.0000 H   0  0  0  0  0  0  0  0  0  0  0  0
    0.0001    4.3700    0.0000 H   0  0  0  0  0  0  0  0  0  0  0  0
    0.9268    3.8350    0.0000 H   0  0  0  0  0  0  0  0  0  0  0  0
    0.7145    1.8675    0.0000 H   0  0  0  0  0  0  0  0  0  0  0  0
    1.5979    3.3975    0.0000 H   0  0  0  0  0  0  0  0  0  0  0  0
   -3.6979    2.1350    0.0000 H   0  0  0  0  0  0  0  0  0  0  0  0
   -2.8578    4.2700    0.0000 H   0  0  0  0  0  0  0  0  0  0  0  0
   -0.5889    4.6100    0.0000 H   0  0  0  0  0  0  0  0  0  0  0  0
    1.6411    0.9475    0.0000 H   0  0  0  0  0  0  0  0  0  0  0  0
    0.7145    1.4825    0.0000 H   0  0  0  0  0  0  0  0  0  0  0  0
    0.0001   -4.2700    0.0000 H   0  0  0  0  0  0  0  0  0  0  0  0
  1 17  1  0  0  0  0
  1  3  1  0  0  0  0
  1 34  1  6  0  0  0
  2 32  1  0  0  0  0
  2 16  1  0  0  0  0
  2 35  1  6  0  0  0
  3 19  1  0  0  0  0
  3  4  1  0  0  0  0
  3 36  1  1  0  0  0
  4 18  1  0  0  0  0
  4  5  1  0  0  0  0
  4 37  1  6  0  0  0
  5  2  1  0  0  0  0
  5 20  1  0  0  0  0
  5 38  1  1  0  0  0
  6 19  1  0  0  0  0
  6  7  1  0  0  0  0
  6 39  1  1  0  0  0
  7  8  1  0  0  0  0
  7 33  1  0  0  0  0
  7 40  1  1  0  0  0
  8  9  1  0  0  0  0
  8 14  1  0  0  0  0
  8 41  1  6  0  0  0
  9 10  1  0  0  0  0
  9 12  1  0  0  0  0
  9 42  1  1  0  0  0
 10 11  1  0  0  0  0
 10 13  1  0  0  0  0
 10 43  1  6  0  0  0
 11  6  1  0  0  0  0
 12 44  1  0  0  0  0
 13 15  1  0  0  0  0
 13 45  1  0  0  0  0
 13 46  1  0  0  0  0
 14 47  1  0  0  0  0
 14 48  1  0  0  0  0
 15 49  1  0  0  0  0
 16 50  1  0  0  0  0
 16 51  1  0  0  0  0
 17 52  1  0  0  0  0
 17 53  1  0  0  0  0
 18 54  1  0  0  0  0
 21 20  1  0  0  0  0
 21 22  1  0  0  0  0
 21 55  1  1  0  0  0
 22 23  1  0  0  0  0
 23 24  1  0  0  0  0
 23 27  1  0  0  0  0
 23 56  1  6  0  0  0
 24 25  1  0  0  0  0
 24 31  1  0  0  0  0
 24 57  1  1  0  0  0
 25 26  1  0  0  0  0
 25 30  1  0  0  0  0
 25 58  1  6  0  0  0
 26 21  1  0  0  0  0
 26 29  1  0  0  0  0
 26 59  1  1  0  0  0
 27 28  1  0  0  0  0
 27 60  1  0  0  0  0
 27 61  1  0  0  0  0
 28 62  1  0  0  0  0
 28 63  1  0  0  0  0
 29 64  1  0  0  0  0
 30 65  1  0  0  0  0
 31 66  1  0  0  0  0
 32  1  1  0  0  0  0
 32 67  1  0  0  0  0
 32 68  1  0  0  0  0
 33 69  1  0  0  0  0
M  END
>  <DRUGBANK_ID>
DB01172

>  <SECONDARY_ACCESSION_NUMBERS>
APRD00026

>  <COMMON_NAME>
Kanamycin

>  <CAS_NUMBER>
59-01-8

>  <UNII>
EQK9Q303C5

>  <SYNONYMS>
4,6-diamino-2-hydroxy-1,3-cyclohexane 3,6'diamino-3,6'-dideoxydi-Î±-D-glucoside; 4,6-diamino-2-hydroxy-1,3-cyclohexylene 3,6'-diamino-3,6'-dideoxydi-D-glucopyranoside; Kanamycin A

$$$$
