
 OpenBabel10282417072D

 29 29  0  0  0  0  0  0  0  0999 V2000
    1.4289    2.4750    0.0000 C   0  0  0  0  0  0  0  0  0  0  0  0
    3.5724    1.2375    0.0000 C   0  0  0  0  0  0  0  0  0  0  0  0
    2.1434    2.0625    0.0000 C   0  0  0  0  0  0  0  0  0  0  0  0
    6.4302    1.2375    0.0000 C   0  0  0  0  0  0  0  0  0  0  0  0
    6.4302    2.0625    0.0000 C   0  0  0  0  0  0  0  0  0  0  0  0
    5.7158    0.8250    0.0000 C   0  0  0  0  0  0  0  0  0  0  0  0
    5.7158    2.4750    0.0000 C   0  0  0  0  0  0  0  0  0  0  0  0
    5.0013    1.2375    0.0000 C   0  0  0  0  0  0  0  0  0  0  0  0
    4.2868    2.4750    0.0000 C   0  0  0  0  0  0  0  0  0  0  0  0
    3.5724    2.0625    0.0000 C   0  0  3  0  0  0  0  0  0  0  0  0
    5.0013    2.0625    0.0000 C   0  0  0  0  0  0  0  0  0  0  0  0
    2.8579    2.4750    0.0000 N   0  0  0  0  0  0  0  0  0  0  0  0
    1.4289    3.5450    0.0000 H   0  0  0  0  0  0  0  0  0  0  0  0
    0.5023    1.9400    0.0000 H   0  0  0  0  0  0  0  0  0  0  0  0
    0.5022    3.0100    0.0000 H   0  0  0  0  0  0  0  0  0  0  0  0
    2.6458    0.7025    0.0000 H   0  0  0  0  0  0  0  0  0  0  0  0
    4.4990    0.7025    0.0000 H   0  0  0  0  0  0  0  0  0  0  0  0
    3.5724    0.1675    0.0000 H   0  0  0  0  0  0  0  0  0  0  0  0
    2.1434    0.9925    0.0000 H   0  0  0  0  0  0  0  0  0  0  0  0
    3.0700    1.5275    0.0000 H   0  0  0  0  0  0  0  0  0  0  0  0
    7.3239    0.7215    0.0000 H   0  0  0  0  0  0  0  0  0  0  0  0
    7.3239    2.5785    0.0000 H   0  0  0  0  0  0  0  0  0  0  0  0
    5.7158   -0.2070    0.0000 H   0  0  0  0  0  0  0  0  0  0  0  0
    5.7158    3.5070    0.0000 H   0  0  0  0  0  0  0  0  0  0  0  0
    4.1076    0.7215    0.0000 H   0  0  0  0  0  0  0  0  0  0  0  0
    4.2868    3.5450    0.0000 H   0  0  0  0  0  0  0  0  0  0  0  0
    5.2134    3.0100    0.0000 H   0  0  0  0  0  0  0  0  0  0  0  0
    4.4991    1.5275    0.0000 H   0  0  0  0  0  0  0  0  0  0  0  0
    2.8579    3.4950    0.0000 H   0  0  0  0  0  0  0  0  0  0  0  0
  1 13  1  0  0  0  0
  1 14  1  0  0  0  0
  1 15  1  0  0  0  0
  2 16  1  0  0  0  0
  2 17  1  0  0  0  0
  2 18  1  0  0  0  0
  3  1  1  0  0  0  0
  3 19  1  0  0  0  0
  3 20  1  0  0  0  0
  4 21  1  0  0  0  0
  5  4  2  0  0  0  0
  5 22  1  0  0  0  0
  6  4  1  0  0  0  0
  6 23  1  0  0  0  0
  7  5  1  0  0  0  0
  7 24  1  0  0  0  0
  8  6  2  0  0  0  0
  8 25  1  0  0  0  0
  9 26  1  0  0  0  0
  9 27  1  0  0  0  0
 10  2  1  0  0  0  0
 10  9  1  0  0  0  0
 10 28  1  0  0  0  0
 11  7  2  0  0  0  0
 11  8  1  0  0  0  0
 11  9  1  0  0  0  0
 12  3  1  0  0  0  0
 12 10  1  0  0  0  0
 12 29  1  0  0  0  0
M  END
>  <DRUGBANK_ID>
DB13285

>  <COMMON_NAME>
Etilamfetamine

>  <CAS_NUMBER>
457-87-4

>  <UNII>
022YON1XMX

>  <SYNONYMS>
Etilamfetamine

$$$$
