1291
 OpenBabel10282417072D

 37 37  0  0  1  0  0  0  0  0999 V2000
    4.5080   -1.3654    0.0000 O   0  0  0  0  0  0  0  0  0  0  0  0
    7.3659    1.1096    0.0000 O   0  0  0  0  0  0  0  0  0  0  0  0
    7.3659   -1.3654    0.0000 O   0  0  0  0  0  0  0  0  0  0  0  0
    3.0791   -0.5404    0.0000 N   0  0  0  0  0  0  0  0  0  0  0  0
    5.9370   -0.5404    0.0000 N   0  0  0  0  0  0  0  0  0  0  0  0
    2.3645   -0.1279    0.0000 C   0  0  0  0  0  0  0  0  0  0  0  0
    3.7935   -0.1279    0.0000 C   0  0  0  0  0  0  0  0  0  0  0  0
    4.5080   -0.5404    0.0000 C   0  0  3  0  0  0  0  0  0  0  0  0
    1.6500    0.2846    0.0000 C   0  0  0  0  0  0  0  0  0  0  0  0
    1.9520   -0.8423    0.0000 C   0  0  0  0  0  0  0  0  0  0  0  0
    2.7770    0.5866    0.0000 C   0  0  0  0  0  0  0  0  0  0  0  0
    5.2224   -0.1279    0.0000 C   0  0  0  0  0  0  0  0  0  0  0  0
    5.2224    0.6971    0.0000 C   0  0  0  0  0  0  0  0  0  0  0  0
    6.6515   -0.1279    0.0000 C   0  0  0  0  0  0  0  0  0  0  0  0
    5.9370    1.1096    0.0000 C   0  0  0  0  0  0  0  0  0  0  0  0
    6.6515    0.6971    0.0000 C   0  0  0  0  0  0  0  0  0  0  0  0
    7.3659   -0.5404    0.0000 C   0  0  0  0  0  0  0  0  0  0  0  0
    3.6680   -1.8504    0.0000 H   0  0  0  0  0  0  0  0  0  0  0  0
    8.1774    0.6411    0.0000 H   0  0  0  0  0  0  0  0  0  0  0  0
    6.5259   -1.8504    0.0000 H   0  0  0  0  0  0  0  0  0  0  0  0
    3.0792   -1.5604    0.0000 H   0  0  0  0  0  0  0  0  0  0  0  0
    3.7935    0.9421    0.0000 H   0  0  0  0  0  0  0  0  0  0  0  0
    4.7201    0.4071    0.0000 H   0  0  0  0  0  0  0  0  0  0  0  0
    3.5814   -1.0754    0.0000 H   0  0  0  0  0  0  0  0  0  0  0  0
    1.6500    1.3546    0.0000 H   0  0  0  0  0  0  0  0  0  0  0  0
    0.7234   -0.2504    0.0000 H   0  0  0  0  0  0  0  0  0  0  0  0
    0.7233    0.8196    0.0000 H   0  0  0  0  0  0  0  0  0  0  0  0
    0.8820   -0.8423    0.0000 H   0  0  0  0  0  0  0  0  0  0  0  0
    2.4870   -1.7690    0.0000 H   0  0  0  0  0  0  0  0  0  0  0  0
    1.4170   -1.7689    0.0000 H   0  0  0  0  0  0  0  0  0  0  0  0
    3.8470    0.5866    0.0000 H   0  0  0  0  0  0  0  0  0  0  0  0
    2.2420    1.5132    0.0000 H   0  0  0  0  0  0  0  0  0  0  0  0
    3.3120    1.5133    0.0000 H   0  0  0  0  0  0  0  0  0  0  0  0
    4.3287    1.2131    0.0000 H   0  0  0  0  0  0  0  0  0  0  0  0
    5.9370    2.1416    0.0000 H   0  0  0  0  0  0  0  0  0  0  0  0
    8.2926   -0.0054    0.0000 H   0  0  0  0  0  0  0  0  0  0  0  0
    7.3659    0.5296    0.0000 H   0  0  0  0  0  0  0  0  0  0  0  0
  1  8  1  0  0  0  0
  1 18  1  0  0  0  0
  2 16  1  0  0  0  0
  2 19  1  0  0  0  0
  3 17  1  0  0  0  0
  3 20  1  0  0  0  0
  4  6  1  0  0  0  0
  4  7  1  0  0  0  0
  4 21  1  0  0  0  0
  5 12  2  0  0  0  0
  5 14  1  0  0  0  0
  6  9  1  0  0  0  0
  6 10  1  0  0  0  0
  6 11  1  0  0  0  0
  7  8  1  0  0  0  0
  7 22  1  0  0  0  0
  7 23  1  0  0  0  0
  8 12  1  0  0  0  0
  8 24  1  0  0  0  0
  9 25  1  0  0  0  0
  9 26  1  0  0  0  0
  9 27  1  0  0  0  0
 10 28  1  0  0  0  0
 10 29  1  0  0  0  0
 10 30  1  0  0  0  0
 11 31  1  0  0  0  0
 11 32  1  0  0  0  0
 11 33  1  0  0  0  0
 12 13  1  0  0  0  0
 13 15  2  0  0  0  0
 13 34  1  0  0  0  0
 14 16  2  0  0  0  0
 14 17  1  0  0  0  0
 15 16  1  0  0  0  0
 15 35  1  0  0  0  0
 17 36  1  0  0  0  0
 17 37  1  0  0  0  0
M  END
>  <DRUGBANK_ID>
DB01291

>  <COMMON_NAME>
Pirbuterol

>  <CAS_NUMBER>
38677-81-5

>  <UNII>
OG645J8RVW

>  <SYNONYMS>
(+/-)-pirbuterol; Pirbuterol; Pirbuterolum

$$$$
