
 OpenBabel10282417072D

 42 45  0  0  0  0  0  0  0  0999 V2000
    1.0304    1.5493    0.0000 C   0  0  0  0  0  0  0  0  0  0  0  0
    1.0305    0.1204    0.0000 C   0  0  2  0  0  0  0  0  0  0  0  0
    1.8554    0.1203    0.0000 C   0  0  0  0  0  0  0  0  0  0  0  0
    2.2679    0.8348    0.0000 C   0  0  0  0  0  0  0  0  0  0  0  0
   -0.9819   -1.2879    0.0000 C   0  0  0  0  0  0  0  0  0  0  0  0
   -0.2674   -1.7005    0.0000 C   0  0  0  0  0  0  0  0  0  0  0  0
    1.8555    1.5493    0.0000 C   0  0  2  0  0  0  0  0  0  0  0  0
    2.2680    2.2638    0.0000 O   0  0  0  0  0  0  0  0  0  0  0  0
   -0.2673   -0.0504    0.0000 C   0  0  0  0  0  0  0  0  0  0  0  0
   -0.1206    0.7614    0.0000 O   0  0  0  0  0  0  0  0  0  0  0  0
    0.6180    0.8349    0.0000 C   0  0  1  0  0  0  0  0  0  0  0  0
    0.2055    1.5493    0.0000 H   0  0  0  0  0  0  0  0  0  0  0  0
   -0.9819   -0.4628    0.0000 C   0  0  0  0  0  0  0  0  0  0  0  0
    0.4471   -0.4628    0.0000 C   0  0  0  0  0  0  0  0  0  0  0  0
    0.4471   -1.2879    0.0000 C   0  0  0  0  0  0  0  0  0  0  0  0
    1.0921   -1.8023    0.0000 C   0  0  0  0  0  0  0  0  0  0  0  0
    2.2544   -0.8755    0.0000 C   0  0  0  0  0  0  0  0  0  0  0  0
    1.8964   -0.1322    0.0000 C   0  0  0  0  0  0  0  0  0  0  0  0
    1.8964   -1.6188    0.0000 N   0  0  0  0  0  0  0  0  0  0  0  0
    2.4108   -2.2638    0.0000 C   0  0  0  0  0  0  0  0  0  0  0  0
   -1.6963   -0.0505    0.0000 O   0  0  0  0  0  0  0  0  0  0  0  0
   -2.4108   -0.4629    0.0000 C   0  0  0  0  0  0  0  0  0  0  0  0
    0.4954    2.4759    0.0000 H   0  0  0  0  0  0  0  0  0  0  0  0
    1.5654    2.4760    0.0000 H   0  0  0  0  0  0  0  0  0  0  0  0
    2.3714   -0.7735    0.0000 H   0  0  0  0  0  0  0  0  0  0  0  0
    3.2999    0.8347    0.0000 H   0  0  0  0  0  0  0  0  0  0  0  0
   -1.8757   -1.8039    0.0000 H   0  0  0  0  0  0  0  0  0  0  0  0
   -0.2674   -2.7325    0.0000 H   0  0  0  0  0  0  0  0  0  0  0  0
    1.3205    2.4759    0.0000 H   0  0  0  0  0  0  0  0  0  0  0  0
    3.2380    2.2638    0.0000 H   0  0  0  0  0  0  0  0  0  0  0  0
    0.8539   -2.8455    0.0000 H   0  0  0  0  0  0  0  0  0  0  0  0
    1.8486   -2.5590    0.0000 H   0  0  0  0  0  0  0  0  0  0  0  0
    3.3244   -0.8755    0.0000 H   0  0  0  0  0  0  0  0  0  0  0  0
    2.8237    0.0305    0.0000 H   0  0  0  0  0  0  0  0  0  0  0  0
    2.5881    0.6842    0.0000 H   0  0  0  0  0  0  0  0  0  0  0  0
    1.5884    0.8925    0.0000 H   0  0  0  0  0  0  0  0  0  0  0  0
    2.0199   -3.2598    0.0000 H   0  0  0  0  0  0  0  0  0  0  0  0
    3.4688   -2.1043    0.0000 H   0  0  0  0  0  0  0  0  0  0  0  0
    3.0780   -3.1003    0.0000 H   0  0  0  0  0  0  0  0  0  0  0  0
   -3.3374    0.0722    0.0000 H   0  0  0  0  0  0  0  0  0  0  0  0
   -2.4109   -1.5329    0.0000 H   0  0  0  0  0  0  0  0  0  0  0  0
   -3.3375   -0.9978    0.0000 H   0  0  0  0  0  0  0  0  0  0  0  0
  1 11  1  0  0  0  0
  1  7  1  0  0  0  0
  1 23  1  0  0  0  0
  1 24  1  0  0  0  0
  2 14  1  1  0  0  0
  2 18  1  0  0  0  0
  3  4  2  0  0  0  0
  3  2  1  0  0  0  0
  3 25  1  0  0  0  0
  4  7  1  0  0  0  0
  4 26  1  0  0  0  0
  5  6  2  0  0  0  0
  5 13  1  0  0  0  0
  5 27  1  0  0  0  0
  6 15  1  0  0  0  0
  6 28  1  0  0  0  0
  7  8  1  0  0  0  0
  7 29  1  6  0  0  0
  8 30  1  0  0  0  0
  9 13  2  0  0  0  0
  9 10  1  0  0  0  0
 10 11  1  0  0  0  0
 11  2  1  0  0  0  0
 11 12  1  6  0  0  0
 13 21  1  0  0  0  0
 14  9  1  0  0  0  0
 15 16  1  0  0  0  0
 15 14  2  0  0  0  0
 16 19  1  0  0  0  0
 16 31  1  0  0  0  0
 16 32  1  0  0  0  0
 17 18  1  0  0  0  0
 17 33  1  0  0  0  0
 17 34  1  0  0  0  0
 18 35  1  0  0  0  0
 18 36  1  0  0  0  0
 19 17  1  0  0  0  0
 19 20  1  0  0  0  0
 20 37  1  0  0  0  0
 20 38  1  0  0  0  0
 20 39  1  0  0  0  0
 21 22  1  0  0  0  0
 22 40  1  0  0  0  0
 22 41  1  0  0  0  0
 22 42  1  0  0  0  0
M  END
>  <DRUGBANK_ID>
DB00674

>  <SECONDARY_ACCESSION_NUMBERS>
APRD00206; EXPT01628

>  <COMMON_NAME>
Galantamine

>  <CAS_NUMBER>
357-70-0

>  <UNII>
0D3Q044KCA

>  <SYNONYMS>
(-)-Galanthamine; Galantamina; Galantamine; Galanthamine

$$$$
