NFG
 OpenBabel10282417072D

 37 38  0  0  0  0  0  0  0  0999 V2000
   -0.8905    0.0564    0.0000 C   0  0  1  0  0  0  0  0  0  0  0  0
   -0.8905    0.8814    0.0000 O   0  0  0  0  0  0  0  0  0  0  0  0
   -0.1761   -0.3561    0.0000 C   0  0  2  0  0  0  0  0  0  0  0  0
    0.5384    0.0564    0.0000 F   0  0  0  0  0  0  0  0  0  0  0  0
   -0.1761   -1.1811    0.0000 C   0  0  1  0  0  0  0  0  0  0  0  0
    0.5384   -1.5936    0.0000 O   0  0  0  0  0  0  0  0  0  0  0  0
   -0.8905   -1.5936    0.0000 C   0  0  2  0  0  0  0  0  0  0  0  0
   -0.8905   -2.4186    0.0000 O   0  0  0  0  0  0  0  0  0  0  0  0
   -1.6050   -1.1811    0.0000 C   0  0  1  0  0  0  0  0  0  0  0  0
   -2.3195   -1.5936    0.0000 C   0  0  0  0  0  0  0  0  0  0  0  0
   -3.0339   -1.1811    0.0000 O   0  0  0  0  0  0  0  0  0  0  0  0
   -1.6050   -0.3561    0.0000 O   0  0  0  0  0  0  0  0  0  0  0  0
   -0.1761    1.2939    0.0000 C   0  0  0  0  0  0  0  0  0  0  0  0
   -0.1761    2.1189    0.0000 C   0  0  0  0  0  0  0  0  0  0  0  0
   -0.8905    2.5314    0.0000 N   0  3  0  0  0  0  0  0  0  0  0  0
   -0.8905    3.3564    0.0000 O   0  5  0  0  0  0  0  0  0  0  0  0
   -1.6050    2.1189    0.0000 O   0  0  0  0  0  0  0  0  0  0  0  0
    0.5384    2.5314    0.0000 C   0  0  0  0  0  0  0  0  0  0  0  0
    1.2529    2.1189    0.0000 C   0  0  0  0  0  0  0  0  0  0  0  0
    1.9674    2.5314    0.0000 N   0  3  0  0  0  0  0  0  0  0  0  0
    1.9674    3.3564    0.0000 O   0  5  0  0  0  0  0  0  0  0  0  0
    2.6818    2.1189    0.0000 O   0  0  0  0  0  0  0  0  0  0  0  0
    1.2529    1.2939    0.0000 C   0  0  0  0  0  0  0  0  0  0  0  0
    0.5384    0.8814    0.0000 C   0  0  0  0  0  0  0  0  0  0  0  0
   -0.5152    0.5038    0.0000 H   0  0  0  0  0  0  0  0  0  0  0  0
    0.0237    0.1926    0.0000 H   0  0  0  0  0  0  0  0  0  0  0  0
    0.3296   -0.8891    0.0000 H   0  0  0  0  0  0  0  0  0  0  0  0
   -0.3848   -1.8855    0.0000 H   0  0  0  0  0  0  0  0  0  0  0  0
   -1.6050   -1.7650    0.0000 H   0  0  0  0  0  0  0  0  0  0  0  0
    0.5384   -2.5636    0.0000 H   0  0  0  0  0  0  0  0  0  0  0  0
   -1.7305   -2.9036    0.0000 H   0  0  0  0  0  0  0  0  0  0  0  0
   -2.3195   -2.6636    0.0000 H   0  0  0  0  0  0  0  0  0  0  0  0
   -3.2462   -2.1286    0.0000 H   0  0  0  0  0  0  0  0  0  0  0  0
   -3.0339   -0.2111    0.0000 H   0  0  0  0  0  0  0  0  0  0  0  0
    0.5384    3.5634    0.0000 H   0  0  0  0  0  0  0  0  0  0  0  0
    2.1466    0.7779    0.0000 H   0  0  0  0  0  0  0  0  0  0  0  0
    0.5384   -0.1506    0.0000 H   0  0  0  0  0  0  0  0  0  0  0  0
  1  2  1  0  0  0  0
  1  3  1  0  0  0  0
  1 12  1  0  0  0  0
  1 25  1  6  0  0  0
  2 13  1  0  0  0  0
  3  4  1  0  0  0  0
  3  5  1  0  0  0  0
  3 26  1  1  0  0  0
  5  6  1  0  0  0  0
  5  7  1  0  0  0  0
  5 27  1  6  0  0  0
  6 30  1  0  0  0  0
  7  8  1  0  0  0  0
  7  9  1  0  0  0  0
  7 28  1  1  0  0  0
  8 31  1  0  0  0  0
  9 10  1  0  0  0  0
  9 12  1  0  0  0  0
  9 29  1  6  0  0  0
 10 11  1  0  0  0  0
 10 32  1  0  0  0  0
 10 33  1  0  0  0  0
 11 34  1  0  0  0  0
 13 14  2  0  0  0  0
 13 24  1  0  0  0  0
 14 15  1  0  0  0  0
 14 18  1  0  0  0  0
 15 16  1  0  0  0  0
 15 17  2  0  0  0  0
 18 19  2  0  0  0  0
 18 35  1  0  0  0  0
 19 20  1  0  0  0  0
 19 23  1  0  0  0  0
 20 21  1  0  0  0  0
 20 22  2  0  0  0  0
 23 24  2  0  0  0  0
 23 36  1  0  0  0  0
 24 37  1  0  0  0  0
M  CHG  4  15   1  16  -1  20   1  21  -1
M  END
>  <DRUGBANK_ID>
DB02658

>  <SECONDARY_ACCESSION_NUMBERS>
EXPT02330

>  <COMMON_NAME>
2,4-Dinitrophenyl 2-Deoxy-2-Fluoro-Beta-D-Allopyranoside

$$$$
