1086
 OpenBabel10282417072D

 23 23  0  0  0  0  0  0  0  0999 V2000
    3.0791    1.3654    0.0000 O   0  0  0  0  0  0  0  0  0  0  0  0
    1.6500    1.3654    0.0000 O   0  0  0  0  0  0  0  0  0  0  0  0
    2.3645   -2.3472    0.0000 N   0  0  0  0  0  0  0  0  0  0  0  0
    2.3645    0.1279    0.0000 C   0  0  0  0  0  0  0  0  0  0  0  0
    3.0791   -0.2846    0.0000 C   0  0  0  0  0  0  0  0  0  0  0  0
    1.6500   -0.2846    0.0000 C   0  0  0  0  0  0  0  0  0  0  0  0
    2.3645   -1.5222    0.0000 C   0  0  0  0  0  0  0  0  0  0  0  0
    3.0791   -1.1096    0.0000 C   0  0  0  0  0  0  0  0  0  0  0  0
    1.6500   -1.1096    0.0000 C   0  0  0  0  0  0  0  0  0  0  0  0
    2.3645    0.9529    0.0000 C   0  0  0  0  0  0  0  0  0  0  0  0
    3.0791    2.1904    0.0000 C   0  0  0  0  0  0  0  0  0  0  0  0
    3.7935    2.6029    0.0000 C   0  0  0  0  0  0  0  0  0  0  0  0
    1.5119   -2.8395    0.0000 H   0  0  0  0  0  0  0  0  0  0  0  0
    3.2171   -2.8394    0.0000 H   0  0  0  0  0  0  0  0  0  0  0  0
    3.9728    0.2314    0.0000 H   0  0  0  0  0  0  0  0  0  0  0  0
    0.7563    0.2314    0.0000 H   0  0  0  0  0  0  0  0  0  0  0  0
    3.9728   -1.6256    0.0000 H   0  0  0  0  0  0  0  0  0  0  0  0
    0.7562   -1.6256    0.0000 H   0  0  0  0  0  0  0  0  0  0  0  0
    2.1524    2.7254    0.0000 H   0  0  0  0  0  0  0  0  0  0  0  0
    3.0791    3.2604    0.0000 H   0  0  0  0  0  0  0  0  0  0  0  0
    4.7202    2.0679    0.0000 H   0  0  0  0  0  0  0  0  0  0  0  0
    3.7935    3.6729    0.0000 H   0  0  0  0  0  0  0  0  0  0  0  0
    4.7201    3.1379    0.0000 H   0  0  0  0  0  0  0  0  0  0  0  0
  1 10  1  0  0  0  0
  1 11  1  0  0  0  0
  2 10  2  0  0  0  0
  3  7  1  0  0  0  0
  3 13  1  0  0  0  0
  3 14  1  0  0  0  0
  4  5  2  0  0  0  0
  4  6  1  0  0  0  0
  4 10  1  0  0  0  0
  5  8  1  0  0  0  0
  5 15  1  0  0  0  0
  6  9  2  0  0  0  0
  6 16  1  0  0  0  0
  7  8  2  0  0  0  0
  7  9  1  0  0  0  0
  8 17  1  0  0  0  0
  9 18  1  0  0  0  0
 11 12  1  0  0  0  0
 11 19  1  0  0  0  0
 11 20  1  0  0  0  0
 12 21  1  0  0  0  0
 12 22  1  0  0  0  0
 12 23  1  0  0  0  0
M  END
>  <DRUGBANK_ID>
DB01086

>  <SECONDARY_ACCESSION_NUMBERS>
APRD00539

>  <COMMON_NAME>
Benzocaine

>  <CAS_NUMBER>
94-09-7

>  <UNII>
U3RSY48JW5

>  <SYNONYMS>
4-aminobenzoic acid ethyl ester; Amben ethyl ester; Benzocaina; Benzocaine; Benzocainum; Ethyl aminobenzoate; Ethyl p-aminobenzoate; Ethyl p-aminophenylcarboxylate; p-(Ethoxycarbonyl)aniline; p-Carbethoxyaniline; p-Ethoxycarboxylic aniline

$$$$
