
 OpenBabel10282417072D

 65 67  0  0  0  0  0  0  0  0999 V2000
   -3.4914   -4.1763    0.0000 C   0  0  0  0  0  0  0  0  0  0  0  0
   -3.9039   -3.4618    0.0000 O   0  0  0  0  0  0  0  0  0  0  0  0
   -3.4914   -2.7474    0.0000 C   0  0  0  0  0  0  0  0  0  0  0  0
   -3.9039   -2.0329    0.0000 C   0  0  0  0  0  0  0  0  0  0  0  0
   -4.7289   -2.0329    0.0000 O   0  0  0  0  0  0  0  0  0  0  0  0
   -5.1414   -1.3184    0.0000 C   0  0  0  0  0  0  0  0  0  0  0  0
   -3.4914   -1.3184    0.0000 C   0  0  0  0  0  0  0  0  0  0  0  0
   -2.6664   -1.3184    0.0000 C   0  0  0  0  0  0  0  0  0  0  0  0
   -2.2539   -0.6039    0.0000 C   0  0  0  0  0  0  0  0  0  0  0  0
   -1.4289   -0.6039    0.0000 N   0  0  0  0  0  0  0  0  0  0  0  0
   -1.0164    0.1105    0.0000 C   0  0  0  0  0  0  0  0  0  0  0  0
   -1.4289    0.8250    0.0000 C   0  0  0  0  0  0  0  0  0  0  0  0
   -1.0164    1.5395    0.0000 C   0  0  0  0  0  0  0  0  0  0  0  0
   -0.1914    1.5395    0.0000 C   0  0  0  0  0  0  0  0  0  0  0  0
    0.2211    0.8250    0.0000 N   0  0  0  0  0  0  0  0  0  0  0  0
    1.0461    0.8250    0.0000 C   0  0  0  0  0  0  0  0  0  0  0  0
    1.4586    1.5395    0.0000 O   0  0  0  0  0  0  0  0  0  0  0  0
    1.4586    0.1105    0.0000 C   0  0  0  0  0  0  0  0  0  0  0  0
    2.2836    0.1105    0.0000 C   0  0  0  0  0  0  0  0  0  0  0  0
    2.6961    0.8250    0.0000 O   0  0  0  0  0  0  0  0  0  0  0  0
    2.2836    1.5395    0.0000 C   0  0  0  0  0  0  0  0  0  0  0  0
    2.6961    2.2539    0.0000 C   0  0  0  0  0  0  0  0  0  0  0  0
    3.5211    2.2539    0.0000 F   0  0  0  0  0  0  0  0  0  0  0  0
    2.6961   -0.6039    0.0000 C   0  0  0  0  0  0  0  0  0  0  0  0
    2.2836   -1.3184    0.0000 C   0  0  0  0  0  0  0  0  0  0  0  0
    1.4586   -1.3184    0.0000 C   0  0  0  0  0  0  0  0  0  0  0  0
    1.0461   -2.0329    0.0000 C   0  0  0  0  0  0  0  0  0  0  0  0
    1.0461   -0.6039    0.0000 C   0  0  0  0  0  0  0  0  0  0  0  0
   -1.0164   -1.3184    0.0000 C   0  0  0  0  0  0  0  0  0  0  0  0
   -1.4289   -2.0329    0.0000 C   0  0  0  0  0  0  0  0  0  0  0  0
   -2.2539   -2.0329    0.0000 C   0  0  0  0  0  0  0  0  0  0  0  0
   -2.6664   -2.7474    0.0000 C   0  0  0  0  0  0  0  0  0  0  0  0
   -4.0264   -5.1029    0.0000 H   0  0  0  0  0  0  0  0  0  0  0  0
   -2.4214   -4.1763    0.0000 H   0  0  0  0  0  0  0  0  0  0  0  0
   -2.9564   -5.1030    0.0000 H   0  0  0  0  0  0  0  0  0  0  0  0
   -4.6064   -0.3918    0.0000 H   0  0  0  0  0  0  0  0  0  0  0  0
   -6.2114   -1.3184    0.0000 H   0  0  0  0  0  0  0  0  0  0  0  0
   -5.6764   -0.3917    0.0000 H   0  0  0  0  0  0  0  0  0  0  0  0
   -4.0074   -0.4247    0.0000 H   0  0  0  0  0  0  0  0  0  0  0  0
   -2.7889    0.3227    0.0000 H   0  0  0  0  0  0  0  0  0  0  0  0
   -1.7189    0.3227    0.0000 H   0  0  0  0  0  0  0  0  0  0  0  0
    0.0536    0.1105    0.0000 H   0  0  0  0  0  0  0  0  0  0  0  0
   -0.4814    1.0371    0.0000 H   0  0  0  0  0  0  0  0  0  0  0  0
   -2.4989    0.8250    0.0000 H   0  0  0  0  0  0  0  0  0  0  0  0
   -1.9639    1.7516    0.0000 H   0  0  0  0  0  0  0  0  0  0  0  0
   -1.5514    2.4661    0.0000 H   0  0  0  0  0  0  0  0  0  0  0  0
   -0.4814    2.4661    0.0000 H   0  0  0  0  0  0  0  0  0  0  0  0
    0.3436    2.4661    0.0000 H   0  0  0  0  0  0  0  0  0  0  0  0
    0.8786    1.5395    0.0000 H   0  0  0  0  0  0  0  0  0  0  0  0
   -0.2712   -0.0276    0.0000 H   0  0  0  0  0  0  0  0  0  0  0  0
    1.2136    1.5395    0.0000 H   0  0  0  0  0  0  0  0  0  0  0  0
    1.7486    2.4662    0.0000 H   0  0  0  0  0  0  0  0  0  0  0  0
    2.1611    3.1806    0.0000 H   0  0  0  0  0  0  0  0  0  0  0  0
    3.2311    3.1805    0.0000 H   0  0  0  0  0  0  0  0  0  0  0  0
    3.7281   -0.6039    0.0000 H   0  0  0  0  0  0  0  0  0  0  0  0
    2.7996   -2.2121    0.0000 H   0  0  0  0  0  0  0  0  0  0  0  0
   -0.0239   -2.0329    0.0000 H   0  0  0  0  0  0  0  0  0  0  0  0
    1.5811   -2.9595    0.0000 H   0  0  0  0  0  0  0  0  0  0  0  0
    0.5111   -2.9596    0.0000 H   0  0  0  0  0  0  0  0  0  0  0  0
    0.0141   -0.6039    0.0000 H   0  0  0  0  0  0  0  0  0  0  0  0
    0.0536   -1.3184    0.0000 H   0  0  0  0  0  0  0  0  0  0  0  0
   -0.4814   -2.2450    0.0000 H   0  0  0  0  0  0  0  0  0  0  0  0
   -0.8939   -2.9595    0.0000 H   0  0  0  0  0  0  0  0  0  0  0  0
   -1.9639   -2.9595    0.0000 H   0  0  0  0  0  0  0  0  0  0  0  0
   -2.1504   -3.6411    0.0000 H   0  0  0  0  0  0  0  0  0  0  0  0
  1  2  1  0  0  0  0
  1 33  1  0  0  0  0
  1 34  1  0  0  0  0
  1 35  1  0  0  0  0
  2  3  1  0  0  0  0
  3  4  2  0  0  0  0
  3 32  1  0  0  0  0
  4  5  1  0  0  0  0
  4  7  1  0  0  0  0
  5  6  1  0  0  0  0
  6 36  1  0  0  0  0
  6 37  1  0  0  0  0
  6 38  1  0  0  0  0
  7  8  2  0  0  0  0
  7 39  1  0  0  0  0
  8  9  1  0  0  0  0
  8 31  1  0  0  0  0
  9 10  1  0  0  0  0
  9 40  1  0  0  0  0
  9 41  1  0  0  0  0
 10 11  1  0  0  0  0
 10 29  1  0  0  0  0
 11 12  1  0  0  0  0
 11 42  1  0  0  0  0
 11 43  1  0  0  0  0
 12 13  1  0  0  0  0
 12 44  1  0  0  0  0
 12 45  1  0  0  0  0
 13 14  1  0  0  0  0
 13 46  1  0  0  0  0
 13 47  1  0  0  0  0
 14 15  1  0  0  0  0
 14 48  1  0  0  0  0
 14 49  1  0  0  0  0
 15 16  1  0  0  0  0
 15 50  1  0  0  0  0
 16 17  2  0  0  0  0
 16 18  1  0  0  0  0
 18 19  2  0  0  0  0
 18 28  1  0  0  0  0
 19 20  1  0  0  0  0
 19 24  1  0  0  0  0
 20 21  1  0  0  0  0
 21 22  1  0  0  0  0
 21 51  1  0  0  0  0
 21 52  1  0  0  0  0
 22 23  1  0  0  0  0
 22 53  1  0  0  0  0
 22 54  1  0  0  0  0
 24 25  2  0  0  0  0
 24 55  1  0  0  0  0
 25 26  1  0  0  0  0
 25 56  1  0  0  0  0
 26 27  1  0  0  0  0
 26 28  2  0  0  0  0
 27 57  1  0  0  0  0
 27 58  1  0  0  0  0
 27 59  1  0  0  0  0
 28 60  1  0  0  0  0
 29 30  1  0  0  0  0
 29 61  1  0  0  0  0
 29 62  1  0  0  0  0
 30 31  1  0  0  0  0
 30 63  1  0  0  0  0
 30 64  1  0  0  0  0
 31 32  2  0  0  0  0
 32 65  1  0  0  0  0
M  ISO  1  23  18
M  END
>  <DRUGBANK_ID>
DB14900

>  <COMMON_NAME>
ISO-1 F-18

>  <CAS_NUMBER>
945992-47-2

>  <UNII>
3G67X40A29

>  <SYNONYMS>
[18F]ISO-1; F-18-ISO

$$$$
