OHN
 OpenBabel10282417072D

 48 48  0  0  0  0  0  0  0  0999 V2000
   -6.5581   -2.5880    0.0000 C   0  0  0  0  0  0  0  0  0  0  0  0
   -5.8437   -3.0005    0.0000 C   0  0  0  0  0  0  0  0  0  0  0  0
   -5.1292   -2.5880    0.0000 C   0  0  0  0  0  0  0  0  0  0  0  0
   -4.4147   -3.0005    0.0000 C   0  0  0  0  0  0  0  0  0  0  0  0
   -3.7002   -2.5880    0.0000 C   0  0  0  0  0  0  0  0  0  0  0  0
   -2.9858   -3.0005    0.0000 C   0  0  0  0  0  0  0  0  0  0  0  0
   -2.2713   -2.5880    0.0000 C   0  0  0  0  0  0  0  0  0  0  0  0
   -1.5568   -3.0005    0.0000 C   0  0  0  0  0  0  0  0  0  0  0  0
   -0.8424   -2.5880    0.0000 C   0  0  0  0  0  0  0  0  0  0  0  0
   -0.1279   -3.0005    0.0000 C   0  0  0  0  0  0  0  0  0  0  0  0
   -0.1279   -3.8255    0.0000 O   0  0  0  0  0  0  0  0  0  0  0  0
    0.5866   -2.5880    0.0000 C   0  0  0  0  0  0  0  0  0  0  0  0
    1.3011   -3.0005    0.0000 C   0  0  0  0  0  0  0  0  0  0  0  0
    1.3011   -3.8255    0.0000 O   0  0  0  0  0  0  0  0  0  0  0  0
    2.0155   -2.5880    0.0000 N   0  0  0  0  0  0  0  0  0  0  0  0
    2.7300   -3.0005    0.0000 C   0  0  1  0  0  0  0  0  0  0  0  0
    3.4837   -2.6649    0.0000 C   0  0  0  0  0  0  0  0  0  0  0  0
    4.0357   -3.2780    0.0000 C   0  0  0  0  0  0  0  0  0  0  0  0
    2.8162   -3.8210    0.0000 C   0  0  0  0  0  0  0  0  0  0  0  0
    2.2031   -4.3730    0.0000 O   0  0  0  0  0  0  0  0  0  0  0  0
    3.6232   -3.9925    0.0000 O   0  0  0  0  0  0  0  0  0  0  0  0
    2.7606   -2.4173    0.0000 H   0  0  0  0  0  0  0  0  0  0  0  0
   -6.5581   -1.5180    0.0000 H   0  0  0  0  0  0  0  0  0  0  0  0
   -7.4848   -3.1230    0.0000 H   0  0  0  0  0  0  0  0  0  0  0  0
   -7.4847   -2.0530    0.0000 H   0  0  0  0  0  0  0  0  0  0  0  0
   -5.8437   -4.0705    0.0000 H   0  0  0  0  0  0  0  0  0  0  0  0
   -4.9171   -3.5355    0.0000 H   0  0  0  0  0  0  0  0  0  0  0  0
   -5.1292   -1.5180    0.0000 H   0  0  0  0  0  0  0  0  0  0  0  0
   -4.2026   -2.0530    0.0000 H   0  0  0  0  0  0  0  0  0  0  0  0
   -4.4147   -4.0705    0.0000 H   0  0  0  0  0  0  0  0  0  0  0  0
   -3.4881   -3.5355    0.0000 H   0  0  0  0  0  0  0  0  0  0  0  0
   -3.7002   -1.5180    0.0000 H   0  0  0  0  0  0  0  0  0  0  0  0
   -2.7735   -2.0530    0.0000 H   0  0  0  0  0  0  0  0  0  0  0  0
   -2.9858   -4.0705    0.0000 H   0  0  0  0  0  0  0  0  0  0  0  0
   -2.0592   -3.5355    0.0000 H   0  0  0  0  0  0  0  0  0  0  0  0
   -2.2713   -1.5180    0.0000 H   0  0  0  0  0  0  0  0  0  0  0  0
   -1.3447   -2.0530    0.0000 H   0  0  0  0  0  0  0  0  0  0  0  0
   -1.5568   -4.0705    0.0000 H   0  0  0  0  0  0  0  0  0  0  0  0
   -0.6301   -3.5355    0.0000 H   0  0  0  0  0  0  0  0  0  0  0  0
   -0.8424   -1.5180    0.0000 H   0  0  0  0  0  0  0  0  0  0  0  0
    0.0842   -2.0530    0.0000 H   0  0  0  0  0  0  0  0  0  0  0  0
    0.5866   -1.5180    0.0000 H   0  0  0  0  0  0  0  0  0  0  0  0
    1.5132   -2.0530    0.0000 H   0  0  0  0  0  0  0  0  0  0  0  0
    2.0155   -1.6035    0.0000 H   0  0  0  0  0  0  0  0  0  0  0  0
    3.7062   -1.6183    0.0000 H   0  0  0  0  0  0  0  0  0  0  0  0
    4.5172   -2.3880    0.0000 H   0  0  0  0  0  0  0  0  0  0  0  0
    5.0998   -3.1662    0.0000 H   0  0  0  0  0  0  0  0  0  0  0  0
    4.6185   -4.1754    0.0000 H   0  0  0  0  0  0  0  0  0  0  0  0
  1  2  1  0  0  0  0
  1 23  1  0  0  0  0
  1 24  1  0  0  0  0
  1 25  1  0  0  0  0
  2  3  1  0  0  0  0
  2 26  1  0  0  0  0
  2 27  1  0  0  0  0
  3  4  1  0  0  0  0
  3 28  1  0  0  0  0
  3 29  1  0  0  0  0
  4  5  1  0  0  0  0
  4 30  1  0  0  0  0
  4 31  1  0  0  0  0
  5  6  1  0  0  0  0
  5 32  1  0  0  0  0
  5 33  1  0  0  0  0
  6  7  1  0  0  0  0
  6 34  1  0  0  0  0
  6 35  1  0  0  0  0
  7  8  1  0  0  0  0
  7 36  1  0  0  0  0
  7 37  1  0  0  0  0
  8  9  1  0  0  0  0
  8 38  1  0  0  0  0
  8 39  1  0  0  0  0
  9 10  1  0  0  0  0
  9 40  1  0  0  0  0
  9 41  1  0  0  0  0
 10 11  2  0  0  0  0
 10 12  1  0  0  0  0
 12 13  1  0  0  0  0
 12 42  1  0  0  0  0
 12 43  1  0  0  0  0
 13 14  2  0  0  0  0
 13 15  1  0  0  0  0
 15 44  1  0  0  0  0
 16 15  1  0  0  0  0
 16 17  1  0  0  0  0
 16 19  1  0  0  0  0
 16 22  1  6  0  0  0
 17 18  1  0  0  0  0
 17 45  1  0  0  0  0
 17 46  1  0  0  0  0
 18 21  1  0  0  0  0
 18 47  1  0  0  0  0
 18 48  1  0  0  0  0
 19 20  2  0  0  0  0
 19 21  1  0  0  0  0
M  END
>  <DRUGBANK_ID>
DB08324

>  <COMMON_NAME>
N-3-OXO-DODECANOYL-L-HOMOSERINE LACTONE

$$$$
