1025
 OpenBabel10282417072D

 36 38  0  0  0  0  0  0  0  0999 V2000
    5.2784   -1.1104    0.0000 O   0  0  0  0  0  0  0  0  0  0  0  0
    5.2784    1.3645    0.0000 O   0  0  0  0  0  0  0  0  0  0  0  0
    8.1875    1.3844    0.0000 O   0  0  0  0  0  0  0  0  0  0  0  0
    8.9067    0.1497    0.0000 O   0  0  0  0  0  0  0  0  0  0  0  0
    6.7303   -1.1391    0.0000 N   0  0  0  0  0  0  0  0  0  0  0  0
    8.1907   -1.1304    0.0000 N   0  0  0  0  0  0  0  0  0  0  0  0
    2.3660    0.5594    0.0000 C   0  0  0  0  0  0  0  0  0  0  0  0
    3.0789    0.1442    0.0000 C   0  0  0  0  0  0  0  0  0  0  0  0
    4.5639    0.1270    0.0000 C   0  0  0  0  0  0  0  0  0  0  0  0
    3.8264    0.5681    0.0000 C   0  0  0  0  0  0  0  0  0  0  0  0
    4.5639   -0.6979    0.0000 C   0  0  0  0  0  0  0  0  0  0  0  0
    3.0789   -0.7151    0.0000 C   0  0  0  0  0  0  0  0  0  0  0  0
    5.9928    0.1270    0.0000 C   0  0  0  0  0  0  0  0  0  0  0  0
    5.2784    0.5395    0.0000 C   0  0  0  0  0  0  0  0  0  0  0  0
    1.6500    0.1497    0.0000 C   0  0  0  0  0  0  0  0  0  0  0  0
    2.3692    1.3844    0.0000 C   0  0  0  0  0  0  0  0  0  0  0  0
    3.8264   -1.1391    0.0000 C   0  0  0  0  0  0  0  0  0  0  0  0
    5.9928   -0.6979    0.0000 C   0  0  0  0  0  0  0  0  0  0  0  0
    6.7303    0.5681    0.0000 C   0  0  0  0  0  0  0  0  0  0  0  0
    7.4778    0.1442    0.0000 C   0  0  0  0  0  0  0  0  0  0  0  0
    7.4778   -0.7151    0.0000 C   0  0  0  0  0  0  0  0  0  0  0  0
    8.1907    0.5594    0.0000 C   0  0  0  0  0  0  0  0  0  0  0  0
    8.9971    1.8560    0.0000 H   0  0  0  0  0  0  0  0  0  0  0  0
    8.1869   -2.1149    0.0000 H   0  0  0  0  0  0  0  0  0  0  0  0
    9.0452   -0.6415    0.0000 H   0  0  0  0  0  0  0  0  0  0  0  0
    1.4414    1.0980    0.0000 H   0  0  0  0  0  0  0  0  0  0  0  0
    3.8383    1.6000    0.0000 H   0  0  0  0  0  0  0  0  0  0  0  0
    2.1871   -1.2345    0.0000 H   0  0  0  0  0  0  0  0  0  0  0  0
    0.7254    0.6883    0.0000 H   0  0  0  0  0  0  0  0  0  0  0  0
    1.6459   -0.9203    0.0000 H   0  0  0  0  0  0  0  0  0  0  0  0
    0.7213   -0.3817    0.0000 H   0  0  0  0  0  0  0  0  0  0  0  0
    3.2979    1.9158    0.0000 H   0  0  0  0  0  0  0  0  0  0  0  0
    1.4446    1.9230    0.0000 H   0  0  0  0  0  0  0  0  0  0  0  0
    2.3734    2.4544    0.0000 H   0  0  0  0  0  0  0  0  0  0  0  0
    3.8383   -2.1710    0.0000 H   0  0  0  0  0  0  0  0  0  0  0  0
    6.7184    1.6000    0.0000 H   0  0  0  0  0  0  0  0  0  0  0  0
  1 11  1  0  0  0  0
  1 18  1  0  0  0  0
  2 14  2  0  0  0  0
  3 22  1  0  0  0  0
  3 23  1  0  0  0  0
  4 22  2  0  0  0  0
  5 18  2  0  0  0  0
  5 21  1  0  0  0  0
  6 21  1  0  0  0  0
  6 24  1  0  0  0  0
  6 25  1  0  0  0  0
  7  8  1  0  0  0  0
  7 15  1  0  0  0  0
  7 16  1  0  0  0  0
  7 26  1  0  0  0  0
  8 10  2  0  0  0  0
  8 12  1  0  0  0  0
  9 10  1  0  0  0  0
  9 11  2  0  0  0  0
  9 14  1  0  0  0  0
 10 27  1  0  0  0  0
 11 17  1  0  0  0  0
 12 17  2  0  0  0  0
 12 28  1  0  0  0  0
 13 14  1  0  0  0  0
 13 18  1  0  0  0  0
 13 19  2  0  0  0  0
 15 29  1  0  0  0  0
 15 30  1  0  0  0  0
 15 31  1  0  0  0  0
 16 32  1  0  0  0  0
 16 33  1  0  0  0  0
 16 34  1  0  0  0  0
 17 35  1  0  0  0  0
 19 20  1  0  0  0  0
 19 36  1  0  0  0  0
 20 21  2  0  0  0  0
 20 22  1  0  0  0  0
M  END
>  <DRUGBANK_ID>
DB01025

>  <SECONDARY_ACCESSION_NUMBERS>
APRD00795

>  <COMMON_NAME>
Amlexanox

>  <CAS_NUMBER>
68302-57-8

>  <UNII>
BRL1C2459K

>  <SYNONYMS>
2-Amino-7-isopropyl-5-oxo-5H-(1)benzopyrano(2,3-b)pyridine-3-carboxylic acid; Amlexanox; Amlexanoxo; Amlexanoxum; Amoxanox

$$$$
