
 OpenBabel10282417072D

 63 62  0  0  0  0  0  0  0  0999 V2000
    9.7086    6.4302    0.0000 C   0  0  0  0  0  0  0  0  0  0  0  0
   10.4230    6.8427    0.0000 C   0  0  0  0  0  0  0  0  0  0  0  0
   11.1375    6.4302    0.0000 C   0  0  0  0  0  0  0  0  0  0  0  0
   11.8520    6.8427    0.0000 C   0  0  0  0  0  0  0  0  0  0  0  0
   12.5664    6.4302    0.0000 C   0  0  0  0  0  0  0  0  0  0  0  0
   13.2809    6.8427    0.0000 C   0  0  0  0  0  0  0  0  0  0  0  0
   13.9954    6.4302    0.0000 C   0  0  0  0  0  0  0  0  0  0  0  0
   14.7099    6.8427    0.0000 C   0  0  0  0  0  0  0  0  0  0  0  0
   15.4243    6.4302    0.0000 C   0  0  0  0  0  0  0  0  0  0  0  0
   16.1388    6.8427    0.0000 C   0  0  0  0  0  0  0  0  0  0  0  0
   16.8533    6.4302    0.0000 C   0  0  0  0  0  0  0  0  0  0  0  0
   17.5677    6.8427    0.0000 C   0  0  0  0  0  0  0  0  0  0  0  0
   18.2822    6.4302    0.0000 C   0  0  0  0  0  0  0  0  0  0  0  0
   18.9967    6.8427    0.0000 C   0  0  0  0  0  0  0  0  0  0  0  0
   19.7112    6.4302    0.0000 C   0  0  0  0  0  0  0  0  0  0  0  0
   20.4256    6.8427    0.0000 C   0  0  0  0  0  0  0  0  0  0  0  0
   20.4256    7.6677    0.0000 O   0  0  0  0  0  0  0  0  0  0  0  0
   21.1401    6.4302    0.0000 S   0  0  0  0  0  0  0  0  0  0  0  0
   21.8546    6.8427    0.0000 C   0  0  0  0  0  0  0  0  0  0  0  0
   22.5690    6.4302    0.0000 C   0  0  0  0  0  0  0  0  0  0  0  0
   23.2835    6.8427    0.0000 N   0  0  0  0  0  0  0  0  0  0  0  0
   23.9980    6.4302    0.0000 C   0  0  0  0  0  0  0  0  0  0  0  0
   24.7124    6.8427    0.0000 C   0  0  0  0  0  0  0  0  0  0  0  0
   23.9980    5.6052    0.0000 O   0  0  0  0  0  0  0  0  0  0  0  0
    8.7819    6.9652    0.0000 H   0  0  0  0  0  0  0  0  0  0  0  0
    9.7086    5.3602    0.0000 H   0  0  0  0  0  0  0  0  0  0  0  0
    8.7820    5.8952    0.0000 H   0  0  0  0  0  0  0  0  0  0  0  0
   10.4230    7.9127    0.0000 H   0  0  0  0  0  0  0  0  0  0  0  0
   11.3496    7.3777    0.0000 H   0  0  0  0  0  0  0  0  0  0  0  0
   11.1375    5.3602    0.0000 H   0  0  0  0  0  0  0  0  0  0  0  0
   12.0641    5.8952    0.0000 H   0  0  0  0  0  0  0  0  0  0  0  0
   11.8520    7.9127    0.0000 H   0  0  0  0  0  0  0  0  0  0  0  0
   12.7787    7.3777    0.0000 H   0  0  0  0  0  0  0  0  0  0  0  0
   12.5664    5.3602    0.0000 H   0  0  0  0  0  0  0  0  0  0  0  0
   13.4930    5.8952    0.0000 H   0  0  0  0  0  0  0  0  0  0  0  0
   13.2809    7.9127    0.0000 H   0  0  0  0  0  0  0  0  0  0  0  0
   14.2075    7.3777    0.0000 H   0  0  0  0  0  0  0  0  0  0  0  0
   13.9954    5.3602    0.0000 H   0  0  0  0  0  0  0  0  0  0  0  0
   14.9220    5.8952    0.0000 H   0  0  0  0  0  0  0  0  0  0  0  0
   14.7099    7.9127    0.0000 H   0  0  0  0  0  0  0  0  0  0  0  0
   15.6366    7.3777    0.0000 H   0  0  0  0  0  0  0  0  0  0  0  0
   15.4243    5.3602    0.0000 H   0  0  0  0  0  0  0  0  0  0  0  0
   16.3509    5.8952    0.0000 H   0  0  0  0  0  0  0  0  0  0  0  0
   16.1388    7.9127    0.0000 H   0  0  0  0  0  0  0  0  0  0  0  0
   17.0654    7.3777    0.0000 H   0  0  0  0  0  0  0  0  0  0  0  0
   16.8533    5.3602    0.0000 H   0  0  0  0  0  0  0  0  0  0  0  0
   17.7800    5.8952    0.0000 H   0  0  0  0  0  0  0  0  0  0  0  0
   17.5677    7.9127    0.0000 H   0  0  0  0  0  0  0  0  0  0  0  0
   18.4943    7.3777    0.0000 H   0  0  0  0  0  0  0  0  0  0  0  0
   18.2822    5.3602    0.0000 H   0  0  0  0  0  0  0  0  0  0  0  0
   19.2088    5.8952    0.0000 H   0  0  0  0  0  0  0  0  0  0  0  0
   18.9967    7.9127    0.0000 H   0  0  0  0  0  0  0  0  0  0  0  0
   19.9233    7.3777    0.0000 H   0  0  0  0  0  0  0  0  0  0  0  0
   19.7112    5.3602    0.0000 H   0  0  0  0  0  0  0  0  0  0  0  0
   20.6379    5.8952    0.0000 H   0  0  0  0  0  0  0  0  0  0  0  0
   21.8546    7.9127    0.0000 H   0  0  0  0  0  0  0  0  0  0  0  0
   22.7813    7.3777    0.0000 H   0  0  0  0  0  0  0  0  0  0  0  0
   22.5690    5.3602    0.0000 H   0  0  0  0  0  0  0  0  0  0  0  0
   23.4956    5.8952    0.0000 H   0  0  0  0  0  0  0  0  0  0  0  0
   23.2835    7.8272    0.0000 H   0  0  0  0  0  0  0  0  0  0  0  0
   25.6391    6.3077    0.0000 H   0  0  0  0  0  0  0  0  0  0  0  0
   24.7124    7.9127    0.0000 H   0  0  0  0  0  0  0  0  0  0  0  0
   25.6390    7.3777    0.0000 H   0  0  0  0  0  0  0  0  0  0  0  0
  1  2  1  0  0  0  0
  1 25  1  0  0  0  0
  1 26  1  0  0  0  0
  1 27  1  0  0  0  0
  2  3  1  0  0  0  0
  2 28  1  0  0  0  0
  2 29  1  0  0  0  0
  3  4  1  0  0  0  0
  3 30  1  0  0  0  0
  3 31  1  0  0  0  0
  4  5  1  0  0  0  0
  4 32  1  0  0  0  0
  4 33  1  0  0  0  0
  5  6  1  0  0  0  0
  5 34  1  0  0  0  0
  5 35  1  0  0  0  0
  6  7  1  0  0  0  0
  6 36  1  0  0  0  0
  6 37  1  0  0  0  0
  7  8  1  0  0  0  0
  7 38  1  0  0  0  0
  7 39  1  0  0  0  0
  8  9  1  0  0  0  0
  8 40  1  0  0  0  0
  8 41  1  0  0  0  0
  9 10  1  0  0  0  0
  9 42  1  0  0  0  0
  9 43  1  0  0  0  0
 10 11  1  0  0  0  0
 10 44  1  0  0  0  0
 10 45  1  0  0  0  0
 11 12  1  0  0  0  0
 11 46  1  0  0  0  0
 11 47  1  0  0  0  0
 12 13  1  0  0  0  0
 12 48  1  0  0  0  0
 12 49  1  0  0  0  0
 13 14  1  0  0  0  0
 13 50  1  0  0  0  0
 13 51  1  0  0  0  0
 14 15  1  0  0  0  0
 14 52  1  0  0  0  0
 14 53  1  0  0  0  0
 15 16  1  0  0  0  0
 15 54  1  0  0  0  0
 15 55  1  0  0  0  0
 16 17  2  0  0  0  0
 16 18  1  0  0  0  0
 18 19  1  0  0  0  0
 19 20  1  0  0  0  0
 19 56  1  0  0  0  0
 19 57  1  0  0  0  0
 20 21  1  0  0  0  0
 20 58  1  0  0  0  0
 20 59  1  0  0  0  0
 21 22  1  0  0  0  0
 21 60  1  0  0  0  0
 22 23  1  0  0  0  0
 22 24  2  0  0  0  0
 23 61  1  0  0  0  0
 23 62  1  0  0  0  0
 23 63  1  0  0  0  0
M  END
>  <DRUGBANK_ID>
DB02990

>  <SECONDARY_ACCESSION_NUMBERS>
EXPT03058

>  <COMMON_NAME>
S-(2-Acetamidoethyl) hexadecanethioate

>  <SYNONYMS>
C16-fatty-acyl-substrate-mimic; S-palmitoyl-N-acetylcysteamine

$$$$
