
 OpenBabel10282417072D

 48 52  0  0  1  0  0  0  0  0999 V2000
    1.1602   -3.8197    0.0000 C   0  0  0  0  0  0  0  0  0  0  0  0
    1.4155   -3.0352    0.0000 C   0  0  0  0  0  0  0  0  0  0  0  0
    2.2225   -2.8641    0.0000 O   0  0  0  0  0  0  0  0  0  0  0  0
    0.8638   -2.4218    0.0000 O   0  0  0  0  0  0  0  0  0  0  0  0
    1.1191   -1.6373    0.0000 C   0  0  0  0  0  0  0  0  0  0  0  0
    0.5601   -1.0371    0.0000 C   0  0  0  0  0  0  0  0  0  0  0  0
    0.8730   -0.2960    0.0000 C   0  0  0  0  0  0  0  0  0  0  0  0
    1.8469   -0.1489    0.0000 C   0  0  1  0  0  0  0  0  0  0  0  0
    2.4371    0.6365    0.0000 C   0  0  1  0  0  0  0  0  0  0  0  0
    3.2556    0.6259    0.0000 C   0  0  0  0  0  0  0  0  0  0  0  0
    3.5543   -0.1229    0.0000 C   0  0  0  0  0  0  0  0  0  0  0  0
    4.3790   -0.2088    0.0000 C   0  0  0  0  0  0  0  0  0  0  0  0
    4.6907   -0.9743    0.0000 C   0  0  0  0  0  0  0  0  0  0  0  0
    4.1707   -1.6304    0.0000 C   0  0  0  0  0  0  0  0  0  0  0  0
    3.3221   -1.5363    0.0000 C   0  0  0  0  0  0  0  0  0  0  0  0
    3.0315   -0.7687    0.0000 C   0  0  0  0  0  0  0  0  0  0  0  0
    2.1595   -0.6451    0.0000 C   0  0  1  0  0  0  0  0  0  0  0  0
    1.9449   -1.4771    0.0000 C   0  0  1  0  0  0  0  0  0  0  0  0
    2.6104   -1.9798    0.0000 O   0  0  0  0  0  0  0  0  0  0  0  0
    1.3144   -0.0464    0.0000 C   0  0  0  0  0  0  0  0  0  0  0  0
    1.1721    0.8410    0.0000 C   0  0  0  0  0  0  0  0  0  0  0  0
    1.8935    1.2248    0.0000 N   0  0  0  0  0  0  0  0  0  0  0  0
    2.0313    2.0382    0.0000 C   0  0  0  0  0  0  0  0  0  0  0  0
    4.4882   -2.3919    0.0000 O   0  0  0  0  0  0  0  0  0  0  0  0
    3.9875   -3.0476    0.0000 C   0  0  0  0  0  0  0  0  0  0  0  0
    0.1135   -4.0417    0.0000 H   0  0  0  0  0  0  0  0  0  0  0  0
    1.8758   -4.6152    0.0000 H   0  0  0  0  0  0  0  0  0  0  0  0
    0.8291   -4.8372    0.0000 H   0  0  0  0  0  0  0  0  0  0  0  0
   -0.4561   -1.2170    0.0000 H   0  0  0  0  0  0  0  0  0  0  0  0
    0.2165    0.5489    0.0000 H   0  0  0  0  0  0  0  0  0  0  0  0
    1.2700    0.6976    0.0000 H   0  0  0  0  0  0  0  0  0  0  0  0
    1.2985    0.7699    0.0000 H   0  0  0  0  0  0  0  0  0  0  0  0
    1.3685    0.5822    0.0000 H   0  0  0  0  0  0  0  0  0  0  0  0
    3.8616    1.5077    0.0000 H   0  0  0  0  0  0  0  0  0  0  0  0
    4.3190    0.5071    0.0000 H   0  0  0  0  0  0  0  0  0  0  0  0
    4.9986    0.6165    0.0000 H   0  0  0  0  0  0  0  0  0  0  0  0
    5.7123   -1.1201    0.0000 H   0  0  0  0  0  0  0  0  0  0  0  0
    2.9552   -1.1246    0.0000 H   0  0  0  0  0  0  0  0  0  0  0  0
    0.4060   -0.6118    0.0000 H   0  0  0  0  0  0  0  0  0  0  0  0
    0.3407    0.3973    0.0000 H   0  0  0  0  0  0  0  0  0  0  0  0
    0.2140    1.3174    0.0000 H   0  0  0  0  0  0  0  0  0  0  0  0
    1.1574    1.9109    0.0000 H   0  0  0  0  0  0  0  0  0  0  0  0
    3.0343    2.4109    0.0000 H   0  0  0  0  0  0  0  0  0  0  0  0
    1.2070    2.7205    0.0000 H   0  0  0  0  0  0  0  0  0  0  0  0
    2.2100    3.0932    0.0000 H   0  0  0  0  0  0  0  0  0  0  0  0
    2.9263   -2.9104    0.0000 H   0  0  0  0  0  0  0  0  0  0  0  0
    4.3993   -4.0352    0.0000 H   0  0  0  0  0  0  0  0  0  0  0  0
    3.3381   -3.8980    0.0000 H   0  0  0  0  0  0  0  0  0  0  0  0
  1  2  1  0  0  0  0
  1 26  1  0  0  0  0
  1 27  1  0  0  0  0
  1 28  1  0  0  0  0
  2  3  2  0  0  0  0
  2  4  1  0  0  0  0
  4  5  1  0  0  0  0
  5  6  2  0  0  0  0
  5 18  1  0  0  0  0
  6  7  1  0  0  0  0
  6 29  1  0  0  0  0
  7 30  1  0  0  0  0
  7 31  1  0  0  0  0
  8  7  1  0  0  0  0
  8  9  1  0  0  0  0
  8 17  1  0  0  0  0
  8 32  1  6  0  0  0
  9 10  1  0  0  0  0
  9 22  1  0  0  0  0
  9 33  1  1  0  0  0
 10 11  1  0  0  0  0
 10 34  1  0  0  0  0
 10 35  1  0  0  0  0
 11 12  2  0  0  0  0
 11 16  1  0  0  0  0
 12 13  1  0  0  0  0
 12 36  1  0  0  0  0
 13 14  2  0  0  0  0
 13 37  1  0  0  0  0
 14 15  1  0  0  0  0
 14 24  1  0  0  0  0
 15 16  2  0  0  0  0
 15 19  1  0  0  0  0
 17 16  1  6  0  0  0
 17 18  1  0  0  0  0
 17 20  1  0  0  0  0
 18 19  1  0  0  0  0
 18 38  1  6  0  0  0
 20 21  1  0  0  0  0
 20 39  1  0  0  0  0
 20 40  1  0  0  0  0
 21 22  1  0  0  0  0
 21 41  1  0  0  0  0
 21 42  1  0  0  0  0
 22 23  1  0  0  0  0
 23 43  1  0  0  0  0
 23 44  1  0  0  0  0
 23 45  1  0  0  0  0
 24 25  1  0  0  0  0
 25 46  1  0  0  0  0
 25 47  1  0  0  0  0
 25 48  1  0  0  0  0
M  END
>  <DRUGBANK_ID>
DB13458

>  <COMMON_NAME>
Thebacon

>  <CAS_NUMBER>
466-90-0

>  <UNII>
520D430GDK

>  <SYNONYMS>
Thebacon

$$$$
