
 OpenBabel10282417072D

 36 37  0  0  0  0  0  0  0  0999 V2000
    0.3815    2.4909    0.0000 C   0  0  0  0  0  0  0  0  0  0  0  0
   -0.3329    2.0787    0.0000 C   0  0  0  0  0  0  0  0  0  0  0  0
   -0.3332    1.2537    0.0000 C   0  0  0  0  0  0  0  0  0  0  0  0
   -1.0478    0.8413    0.0000 C   0  0  0  0  0  0  0  0  0  0  0  0
   -1.7622    1.2540    0.0000 C   0  0  0  0  0  0  0  0  0  0  0  0
   -1.7619    2.0790    0.0000 C   0  0  0  0  0  0  0  0  0  0  0  0
   -1.0473    2.4914    0.0000 C   0  0  0  0  0  0  0  0  0  0  0  0
   -1.0480    0.0164    0.0000 C   0  0  0  0  0  0  0  0  0  0  0  0
    0.3810    0.8409    0.0000 N   0  0  0  0  0  0  0  0  0  0  0  0
    0.3808    0.0159    0.0000 C   0  0  0  0  0  0  0  0  0  0  0  0
   -0.3337   -0.3963    0.0000 O   0  0  0  0  0  0  0  0  0  0  0  0
    1.0952   -0.3967    0.0000 C   0  0  0  0  0  0  0  0  0  0  0  0
    1.0949   -1.2217    0.0000 N   0  0  0  0  0  0  0  0  0  0  0  0
    1.7622   -1.7069    0.0000 C   0  0  0  0  0  0  0  0  0  0  0  0
    1.5070   -2.4914    0.0000 C   0  0  0  0  0  0  0  0  0  0  0  0
    0.6820   -2.4912    0.0000 C   0  0  0  0  0  0  0  0  0  0  0  0
    0.4273   -1.7064    0.0000 C   0  0  0  0  0  0  0  0  0  0  0  0
   -0.3572   -1.4513    0.0000 O   0  0  0  0  0  0  0  0  0  0  0  0
    1.3080    1.9556    0.0000 H   0  0  0  0  0  0  0  0  0  0  0  0
    0.3818    3.5609    0.0000 H   0  0  0  0  0  0  0  0  0  0  0  0
    1.3083    3.0256    0.0000 H   0  0  0  0  0  0  0  0  0  0  0  0
   -2.6561    0.7383    0.0000 H   0  0  0  0  0  0  0  0  0  0  0  0
   -2.6555    2.5952    0.0000 H   0  0  0  0  0  0  0  0  0  0  0  0
   -1.0471    3.5234    0.0000 H   0  0  0  0  0  0  0  0  0  0  0  0
   -1.9748   -0.5184    0.0000 H   0  0  0  0  0  0  0  0  0  0  0  0
   -0.1215   -0.5188    0.0000 H   0  0  0  0  0  0  0  0  0  0  0  0
   -1.0483   -1.0536    0.0000 H   0  0  0  0  0  0  0  0  0  0  0  0
    1.2338    1.3328    0.0000 H   0  0  0  0  0  0  0  0  0  0  0  0
    2.0220    0.1381    0.0000 H   0  0  0  0  0  0  0  0  0  0  0  0
    2.0217   -0.9320    0.0000 H   0  0  0  0  0  0  0  0  0  0  0  0
    2.7799   -1.3766    0.0000 H   0  0  0  0  0  0  0  0  0  0  0  0
    2.5185   -2.4638    0.0000 H   0  0  0  0  0  0  0  0  0  0  0  0
    2.1357   -3.3572    0.0000 H   0  0  0  0  0  0  0  0  0  0  0  0
    1.0210   -3.4446    0.0000 H   0  0  0  0  0  0  0  0  0  0  0  0
    0.0528   -3.3567    0.0000 H   0  0  0  0  0  0  0  0  0  0  0  0
   -0.3748   -2.3235    0.0000 H   0  0  0  0  0  0  0  0  0  0  0  0
  1  2  1  0  0  0  0
  1 19  1  0  0  0  0
  1 20  1  0  0  0  0
  1 21  1  0  0  0  0
  2  3  2  0  0  0  0
  3  9  1  0  0  0  0
  3  4  1  0  0  0  0
  4  5  2  0  0  0  0
  4  8  1  0  0  0  0
  5  6  1  0  0  0  0
  5 22  1  0  0  0  0
  6  7  2  0  0  0  0
  6 23  1  0  0  0  0
  7  2  1  0  0  0  0
  7 24  1  0  0  0  0
  8 25  1  0  0  0  0
  8 26  1  0  0  0  0
  8 27  1  0  0  0  0
  9 10  1  0  0  0  0
  9 28  1  0  0  0  0
 10 11  2  0  0  0  0
 10 12  1  0  0  0  0
 12 13  1  0  0  0  0
 12 29  1  0  0  0  0
 12 30  1  0  0  0  0
 13 14  1  0  0  0  0
 14 15  1  0  0  0  0
 14 31  1  0  0  0  0
 14 32  1  0  0  0  0
 15 16  1  0  0  0  0
 15 33  1  0  0  0  0
 15 34  1  0  0  0  0
 16 17  1  0  0  0  0
 16 35  1  0  0  0  0
 16 36  1  0  0  0  0
 17 13  1  0  0  0  0
 17 18  2  0  0  0  0
M  END
>  <DRUGBANK_ID>
DB13082

>  <COMMON_NAME>
Nefiracetam

>  <CAS_NUMBER>
77191-36-7

>  <UNII>
1JK12GX30N

>  <SYNONYMS>
Nefiracetam; Nefiracetamum

$$$$
