
 OpenBabel10282417072D

 53 57  0  0  1  0  0  0  0  0999 V2000
    4.0668    2.3479    0.0000 C   0  0  0  0  0  0  0  0  0  0  0  0
    3.3523    1.9354    0.0000 C   0  0  0  0  0  0  0  0  0  0  0  0
    3.3523    1.1104    0.0000 C   0  0  0  0  0  0  0  0  0  0  0  0
    2.6378    0.6979    0.0000 C   0  0  2  0  0  0  0  0  0  0  0  0
    1.9233    1.1104    0.0000 N   0  0  0  0  0  0  0  0  0  0  0  0
    1.9233    1.9354    0.0000 C   0  0  0  0  0  0  0  0  0  0  0  0
    1.1387    2.1904    0.0000 C   0  0  0  0  0  0  0  0  0  0  0  0
    0.6538    1.5229    0.0000 C   0  0  0  0  0  0  0  0  0  0  0  0
    1.1387    0.8555    0.0000 N   0  0  0  0  0  0  0  0  0  0  0  0
    2.6378    2.3479    0.0000 N   0  0  0  0  0  0  0  0  0  0  0  0
    2.6378   -0.1271    0.0000 C   0  0  0  0  0  0  0  0  0  0  0  0
    3.3523   -0.5396    0.0000 C   0  0  0  0  0  0  0  0  0  0  0  0
    3.3523   -1.3646    0.0000 C   0  0  0  0  0  0  0  0  0  0  0  0
    2.6378   -1.7771    0.0000 C   0  0  0  0  0  0  0  0  0  0  0  0
    1.9233   -1.3646    0.0000 C   0  0  0  0  0  0  0  0  0  0  0  0
    1.9233   -0.5396    0.0000 C   0  0  0  0  0  0  0  0  0  0  0  0
    1.2089   -1.7771    0.0000 Cl  0  0  0  0  0  0  0  0  0  0  0  0
    2.6378   -2.6021    0.0000 Cl  0  0  0  0  0  0  0  0  0  0  0  0
    4.0668    0.6979    0.0000 C   0  0  0  0  0  0  0  0  0  0  0  0
    4.0668   -0.1271    0.0000 O   0  0  0  0  0  0  0  0  0  0  0  0
    4.7812    1.1104    0.0000 N   0  0  0  0  0  0  0  0  0  0  0  0
    4.8675    1.9309    0.0000 C   0  0  0  0  0  0  0  0  0  0  0  0
    5.6744    2.1025    0.0000 C   0  0  0  0  0  0  0  0  0  0  0  0
    6.0869    1.3880    0.0000 C   0  0  0  0  0  0  0  0  0  0  0  0
    5.5349    0.7749    0.0000 C   0  0  1  0  0  0  0  0  0  0  0  0
    5.7064   -0.0321    0.0000 C   0  0  0  0  0  0  0  0  0  0  0  0
    6.4911   -0.2870    0.0000 C   0  0  0  0  0  0  0  0  0  0  0  0
    6.6626   -1.0940    0.0000 C   0  0  0  0  0  0  0  0  0  0  0  0
    6.0495   -1.6460    0.0000 C   0  0  0  0  0  0  0  0  0  0  0  0
    5.2649   -1.3911    0.0000 C   0  0  0  0  0  0  0  0  0  0  0  0
    5.0933   -0.5841    0.0000 C   0  0  0  0  0  0  0  0  0  0  0  0
    6.2210   -2.4530    0.0000 F   0  0  0  0  0  0  0  0  0  0  0  0
    4.9934    1.8129    0.0000 H   0  0  0  0  0  0  0  0  0  0  0  0
    4.0668    3.4179    0.0000 H   0  0  0  0  0  0  0  0  0  0  0  0
    4.9935    2.8829    0.0000 H   0  0  0  0  0  0  0  0  0  0  0  0
    3.5644    0.1629    0.0000 H   0  0  0  0  0  0  0  0  0  0  0  0
    0.8198    3.1719    0.0000 H   0  0  0  0  0  0  0  0  0  0  0  0
   -0.3782    1.5229    0.0000 H   0  0  0  0  0  0  0  0  0  0  0  0
    2.6378    3.3324    0.0000 H   0  0  0  0  0  0  0  0  0  0  0  0
    4.2460   -0.0236    0.0000 H   0  0  0  0  0  0  0  0  0  0  0  0
    4.2460   -1.8806    0.0000 H   0  0  0  0  0  0  0  0  0  0  0  0
    1.0296   -0.0236    0.0000 H   0  0  0  0  0  0  0  0  0  0  0  0
    4.0723    2.6469    0.0000 H   0  0  0  0  0  0  0  0  0  0  0  0
    5.1444    2.9645    0.0000 H   0  0  0  0  0  0  0  0  0  0  0  0
    6.1096    3.0800    0.0000 H   0  0  0  0  0  0  0  0  0  0  0  0
    6.7429    2.1585    0.0000 H   0  0  0  0  0  0  0  0  0  0  0  0
    7.1510    1.2762    0.0000 H   0  0  0  0  0  0  0  0  0  0  0  0
    6.4704    0.3891    0.0000 H   0  0  0  0  0  0  0  0  0  0  0  0
    6.5684    0.4980    0.0000 H   0  0  0  0  0  0  0  0  0  0  0  0
    7.2580    0.4036    0.0000 H   0  0  0  0  0  0  0  0  0  0  0  0
    7.6441   -1.4129    0.0000 H   0  0  0  0  0  0  0  0  0  0  0  0
    4.4980   -2.0817    0.0000 H   0  0  0  0  0  0  0  0  0  0  0  0
    4.1118   -0.2652    0.0000 H   0  0  0  0  0  0  0  0  0  0  0  0
  1  2  1  0  0  0  0
  1 33  1  0  0  0  0
  1 34  1  0  0  0  0
  1 35  1  0  0  0  0
  2  3  2  0  0  0  0
  2 10  1  0  0  0  0
  3  4  1  0  0  0  0
  3 19  1  0  0  0  0
  4  5  1  0  0  0  0
  4 11  1  0  0  0  0
  4 36  1  6  0  0  0
  5  6  1  0  0  0  0
  5  9  1  0  0  0  0
  6  7  2  0  0  0  0
  6 10  1  0  0  0  0
  7  8  1  0  0  0  0
  7 37  1  0  0  0  0
  8  9  2  0  0  0  0
  8 38  1  0  0  0  0
 10 39  1  0  0  0  0
 11 12  2  0  0  0  0
 11 16  1  0  0  0  0
 12 13  1  0  0  0  0
 12 40  1  0  0  0  0
 13 14  2  0  0  0  0
 13 41  1  0  0  0  0
 14 15  1  0  0  0  0
 14 18  1  0  0  0  0
 15 16  2  0  0  0  0
 15 17  1  0  0  0  0
 16 42  1  0  0  0  0
 19 20  2  0  0  0  0
 19 21  1  0  0  0  0
 21 22  1  0  0  0  0
 21 25  1  0  0  0  0
 22 23  1  0  0  0  0
 22 43  1  0  0  0  0
 22 44  1  0  0  0  0
 23 24  1  0  0  0  0
 23 45  1  0  0  0  0
 23 46  1  0  0  0  0
 24 25  1  0  0  0  0
 24 47  1  0  0  0  0
 24 48  1  0  0  0  0
 25 26  1  0  0  0  0
 25 49  1  6  0  0  0
 26 27  2  0  0  0  0
 26 31  1  0  0  0  0
 27 28  1  0  0  0  0
 27 50  1  0  0  0  0
 28 29  2  0  0  0  0
 28 51  1  0  0  0  0
 29 30  1  0  0  0  0
 29 32  1  0  0  0  0
 30 31  2  0  0  0  0
 30 52  1  0  0  0  0
 31 53  1  0  0  0  0
M  END
>  <DRUGBANK_ID>
DB12067

>  <COMMON_NAME>
BMS-394136

>  <CAS_NUMBER>
343246-73-1

>  <UNII>
M694U7167K

$$$$
