
 OpenBabel10282417072D

 52 55  0  0  0  0  0  0  0  0999 V2000
   -0.7078   -1.0151    0.0000 N   0  0  0  0  0  0  0  0  0  0  0  0
   -0.0132   -1.4425    0.0000 C   0  0  0  0  0  0  0  0  0  0  0  0
   -0.7078   -2.6712    0.0000 S   0  0  0  0  0  0  0  0  0  0  0  0
    0.6811   -1.0151    0.0000 C   0  0  0  0  0  0  0  0  0  0  0  0
   -1.4290   -1.4425    0.0000 C   0  0  0  0  0  0  0  0  0  0  0  0
   -0.0132   -2.2440    0.0000 C   0  0  0  0  0  0  0  0  0  0  0  0
   -1.4290   -2.2440    0.0000 C   0  0  0  0  0  0  0  0  0  0  0  0
   -0.7078   -0.2136    0.0000 C   0  0  0  0  0  0  0  0  0  0  0  0
    1.4024   -1.4425    0.0000 C   0  0  0  0  0  0  0  0  0  0  0  0
    2.1238   -1.0151    0.0000 S   0  0  3  0  0  0  0  0  0  0  0  0
   -2.1504    1.4424    0.0000 N   0  0  0  0  0  0  0  0  0  0  0  0
   -1.4290    0.2135    0.0000 C   0  0  0  0  0  0  0  0  0  0  0  0
   -1.4290    1.0151    0.0000 C   0  0  3  0  0  0  0  0  0  0  0  0
    0.6811   -2.6712    0.0000 C   0  0  0  0  0  0  0  0  0  0  0  0
    2.1238   -0.2136    0.0000 O   0  0  0  0  0  0  0  0  0  0  0  0
    1.4024   -2.2440    0.0000 C   0  0  0  0  0  0  0  0  0  0  0  0
   -2.8449    1.0151    0.0000 C   0  0  0  0  0  0  0  0  0  0  0  0
   -2.1504    2.2706    0.0000 C   0  0  0  0  0  0  0  0  0  0  0  0
   -2.1504   -1.0151    0.0000 C   0  0  0  0  0  0  0  0  0  0  0  0
    2.8449   -1.4425    0.0000 C   0  0  0  0  0  0  0  0  0  0  0  0
   -2.1504   -2.6712    0.0000 C   0  0  0  0  0  0  0  0  0  0  0  0
   -0.7078    1.4424    0.0000 C   0  0  0  0  0  0  0  0  0  0  0  0
   -1.4290    2.6712    0.0000 C   0  0  0  0  0  0  0  0  0  0  0  0
   -2.8449   -1.4425    0.0000 C   0  0  0  0  0  0  0  0  0  0  0  0
   -2.8449   -2.2440    0.0000 C   0  0  0  0  0  0  0  0  0  0  0  0
   -0.7078    2.2706    0.0000 C   0  0  0  0  0  0  0  0  0  0  0  0
    0.6724    0.0169    0.0000 H   0  0  0  0  0  0  0  0  0  0  0  0
    0.2218    0.3163    0.0000 H   0  0  0  0  0  0  0  0  0  0  0  0
   -0.6989    0.8564    0.0000 H   0  0  0  0  0  0  0  0  0  0  0  0
   -2.3586   -0.3164    0.0000 H   0  0  0  0  0  0  0  0  0  0  0  0
   -2.3542    0.7511    0.0000 H   0  0  0  0  0  0  0  0  0  0  0  0
   -2.3586    0.4853    0.0000 H   0  0  0  0  0  0  0  0  0  0  0  0
    0.6724   -3.7032    0.0000 H   0  0  0  0  0  0  0  0  0  0  0  0
    2.2990   -2.7550    0.0000 H   0  0  0  0  0  0  0  0  0  0  0  0
   -3.7861    1.5240    0.0000 H   0  0  0  0  0  0  0  0  0  0  0  0
   -2.8150   -0.0545    0.0000 H   0  0  0  0  0  0  0  0  0  0  0  0
   -3.7562    0.4544    0.0000 H   0  0  0  0  0  0  0  0  0  0  0  0
   -3.0726    2.8133    0.0000 H   0  0  0  0  0  0  0  0  0  0  0  0
   -2.1370    3.3405    0.0000 H   0  0  0  0  0  0  0  0  0  0  0  0
   -2.1591    0.0169    0.0000 H   0  0  0  0  0  0  0  0  0  0  0  0
    2.8327   -2.5124    0.0000 H   0  0  0  0  0  0  0  0  0  0  0  0
    3.7776   -0.9181    0.0000 H   0  0  0  0  0  0  0  0  0  0  0  0
    3.7654   -1.9881    0.0000 H   0  0  0  0  0  0  0  0  0  0  0  0
   -2.1591   -3.7032    0.0000 H   0  0  0  0  0  0  0  0  0  0  0  0
    0.2218    0.9126    0.0000 H   0  0  0  0  0  0  0  0  0  0  0  0
    0.2173    1.9800    0.0000 H   0  0  0  0  0  0  0  0  0  0  0  0
   -1.4289    3.7412    0.0000 H   0  0  0  0  0  0  0  0  0  0  0  0
   -0.5068    3.2138    0.0000 H   0  0  0  0  0  0  0  0  0  0  0  0
   -3.7458   -0.9391    0.0000 H   0  0  0  0  0  0  0  0  0  0  0  0
   -3.7457   -2.7475    0.0000 H   0  0  0  0  0  0  0  0  0  0  0  0
    0.2144    2.8133    0.0000 H   0  0  0  0  0  0  0  0  0  0  0  0
   -0.7211    3.3405    0.0000 H   0  0  0  0  0  0  0  0  0  0  0  0
  2  1  1  0  0  0  0
  4  2  1  0  0  0  0
  4 27  1  0  0  0  0
  5  1  1  0  0  0  0
  6  2  2  0  0  0  0
  6  3  1  0  0  0  0
  7  3  1  0  0  0  0
  7  5  2  0  0  0  0
  8  1  1  0  0  0  0
  8 28  1  0  0  0  0
  8 29  1  0  0  0  0
  9  4  2  0  0  0  0
 10  9  1  0  0  0  0
 12  8  1  0  0  0  0
 12 30  1  0  0  0  0
 12 31  1  0  0  0  0
 13 11  1  0  0  0  0
 13 12  1  0  0  0  0
 13 32  1  0  0  0  0
 14  6  1  0  0  0  0
 14 33  1  0  0  0  0
 15 10  2  0  0  0  0
 16  9  1  0  0  0  0
 16 14  2  0  0  0  0
 16 34  1  0  0  0  0
 17 11  1  0  0  0  0
 17 35  1  0  0  0  0
 17 36  1  0  0  0  0
 17 37  1  0  0  0  0
 18 11  1  0  0  0  0
 18 38  1  0  0  0  0
 18 39  1  0  0  0  0
 19  5  1  0  0  0  0
 19 40  1  0  0  0  0
 20 10  1  0  0  0  0
 20 41  1  0  0  0  0
 20 42  1  0  0  0  0
 20 43  1  0  0  0  0
 21  7  1  0  0  0  0
 21 44  1  0  0  0  0
 22 13  1  0  0  0  0
 22 45  1  0  0  0  0
 22 46  1  0  0  0  0
 23 18  1  0  0  0  0
 23 47  1  0  0  0  0
 23 48  1  0  0  0  0
 24 19  2  0  0  0  0
 24 49  1  0  0  0  0
 25 21  2  0  0  0  0
 25 24  1  0  0  0  0
 25 50  1  0  0  0  0
 26 22  1  0  0  0  0
 26 23  1  0  0  0  0
 26 51  1  0  0  0  0
 26 52  1  0  0  0  0
M  END
>  <DRUGBANK_ID>
DB00933

>  <SECONDARY_ACCESSION_NUMBERS>
APRD00610

>  <COMMON_NAME>
Mesoridazine

>  <CAS_NUMBER>
5588-33-0

>  <UNII>
5XE4NWM740

>  <SYNONYMS>
10-(2-(1-Methyl-2-piperidyl)ethyl)-2-methylsulfinyl phenothiazine; 10-(2(1-Methyl-2-piperidyl)ethyl)-2-(methylsulfinyl)phenothiazine; 2-Methanesulfinyl-10-[2-(1-methyl-piperidin-2-yl)-ethyl]-10H-phenothiazine; Mesoridazina; Mesoridazine; Mesoridazinum; Thioridazine 2-sulfoxide; Thioridazine thiomethyl sulfoxide; Thioridazine-2-sulfoxide

$$$$
