1001
 OpenBabel10282417072D

 38 38  0  0  1  0  0  0  0  0999 V2000
    3.5220    1.0082    0.0000 O   0  0  0  0  0  0  0  0  0  0  0  0
    4.2365   -2.7044    0.0000 O   0  0  0  0  0  0  0  0  0  0  0  0
    2.0930   -1.4669    0.0000 O   0  0  0  0  0  0  0  0  0  0  0  0
    4.9509    1.8332    0.0000 N   0  0  0  0  0  0  0  0  0  0  0  0
    5.6655    2.2457    0.0000 C   0  0  0  0  0  0  0  0  0  0  0  0
    4.9509    1.0082    0.0000 C   0  0  0  0  0  0  0  0  0  0  0  0
    4.2365    0.5957    0.0000 C   0  0  3  0  0  0  0  0  0  0  0  0
    6.3799    2.6582    0.0000 C   0  0  0  0  0  0  0  0  0  0  0  0
    5.2530    2.9602    0.0000 C   0  0  0  0  0  0  0  0  0  0  0  0
    6.0780    1.5312    0.0000 C   0  0  0  0  0  0  0  0  0  0  0  0
    4.2365   -0.2294    0.0000 C   0  0  0  0  0  0  0  0  0  0  0  0
    3.5220   -0.6419    0.0000 C   0  0  0  0  0  0  0  0  0  0  0  0
    4.9509   -0.6419    0.0000 C   0  0  0  0  0  0  0  0  0  0  0  0
    3.5220   -1.4669    0.0000 C   0  0  0  0  0  0  0  0  0  0  0  0
    4.2365   -1.8794    0.0000 C   0  0  0  0  0  0  0  0  0  0  0  0
    4.9509   -1.4669    0.0000 C   0  0  0  0  0  0  0  0  0  0  0  0
    2.8075   -1.8794    0.0000 C   0  0  0  0  0  0  0  0  0  0  0  0
    3.5220    1.9782    0.0000 H   0  0  0  0  0  0  0  0  0  0  0  0
    3.4250   -3.1729    0.0000 H   0  0  0  0  0  0  0  0  0  0  0  0
    2.0930   -0.4969    0.0000 H   0  0  0  0  0  0  0  0  0  0  0  0
    4.0676    2.3432    0.0000 H   0  0  0  0  0  0  0  0  0  0  0  0
    5.8776    0.4732    0.0000 H   0  0  0  0  0  0  0  0  0  0  0  0
    4.9509   -0.0618    0.0000 H   0  0  0  0  0  0  0  0  0  0  0  0
    4.2365    1.6657    0.0000 H   0  0  0  0  0  0  0  0  0  0  0  0
    7.3066    2.1232    0.0000 H   0  0  0  0  0  0  0  0  0  0  0  0
    6.3799    3.7282    0.0000 H   0  0  0  0  0  0  0  0  0  0  0  0
    7.3065    3.1932    0.0000 H   0  0  0  0  0  0  0  0  0  0  0  0
    5.7880    3.8868    0.0000 H   0  0  0  0  0  0  0  0  0  0  0  0
    4.1830    2.9602    0.0000 H   0  0  0  0  0  0  0  0  0  0  0  0
    4.7180    3.8869    0.0000 H   0  0  0  0  0  0  0  0  0  0  0  0
    5.5430    0.6046    0.0000 H   0  0  0  0  0  0  0  0  0  0  0  0
    7.1480    1.5312    0.0000 H   0  0  0  0  0  0  0  0  0  0  0  0
    6.6130    0.6045    0.0000 H   0  0  0  0  0  0  0  0  0  0  0  0
    2.6283   -0.1259    0.0000 H   0  0  0  0  0  0  0  0  0  0  0  0
    5.8446   -0.1259    0.0000 H   0  0  0  0  0  0  0  0  0  0  0  0
    5.8446   -1.9829    0.0000 H   0  0  0  0  0  0  0  0  0  0  0  0
    2.8075   -2.9494    0.0000 H   0  0  0  0  0  0  0  0  0  0  0  0
    3.7341   -2.4144    0.0000 H   0  0  0  0  0  0  0  0  0  0  0  0
  1  7  1  0  0  0  0
  1 18  1  0  0  0  0
  2 15  1  0  0  0  0
  2 19  1  0  0  0  0
  3 17  1  0  0  0  0
  3 20  1  0  0  0  0
  4  5  1  0  0  0  0
  4  6  1  0  0  0  0
  4 21  1  0  0  0  0
  5  8  1  0  0  0  0
  5  9  1  0  0  0  0
  5 10  1  0  0  0  0
  6  7  1  0  0  0  0
  6 22  1  0  0  0  0
  6 23  1  0  0  0  0
  7 11  1  0  0  0  0
  7 24  1  0  0  0  0
  8 25  1  0  0  0  0
  8 26  1  0  0  0  0
  8 27  1  0  0  0  0
  9 28  1  0  0  0  0
  9 29  1  0  0  0  0
  9 30  1  0  0  0  0
 10 31  1  0  0  0  0
 10 32  1  0  0  0  0
 10 33  1  0  0  0  0
 11 12  2  0  0  0  0
 11 13  1  0  0  0  0
 12 14  1  0  0  0  0
 12 34  1  0  0  0  0
 13 16  2  0  0  0  0
 13 35  1  0  0  0  0
 14 15  2  0  0  0  0
 14 17  1  0  0  0  0
 15 16  1  0  0  0  0
 16 36  1  0  0  0  0
 17 37  1  0  0  0  0
 17 38  1  0  0  0  0
M  END
>  <DRUGBANK_ID>
DB01001

>  <SECONDARY_ACCESSION_NUMBERS>
APRD00553

>  <COMMON_NAME>
Salbutamol

>  <CAS_NUMBER>
18559-94-9

>  <UNII>
QF8SVZ843E

>  <SYNONYMS>
Albuterol; Salbutamol; Salbutamolum

$$$$
