
 OpenBabel10282417072D

  3  2  0  0  0  0  0  0  0  0999 V2000
    0.0000    0.0000    0.0000 Ra  0  0  0  0  0  0  0  0  0  0  0  0
    0.0000    0.0000    0.0000 H   0  0  0  0  0  0  0  0  0  0  0  0
    0.0000    0.0000    0.0000 H   0  0  0  0  0  0  0  0  0  0  0  0
  1  2  1  0  0  0  0
  1  3  1  0  0  0  0
M  ISO  1   1 223
M  END
>  <DRUGBANK_ID>
DB12813

>  <COMMON_NAME>
Radium Ra-223

>  <CAS_NUMBER>
15623-45-7

>  <UNII>
8BR2SOL3L1

>  <SYNONYMS>
Radium-223

$$$$
