
 OpenBabel10282417072D

128130  0  0  0  0  0  0  0  0999 V2000
    2.6708    2.3629    0.0000 S   0  0  0  0  0  0  0  0  0  0  0  0
  -10.6054    2.6942    0.0000 P   0  0  0  0  0  0  0  0  0  0  0  0
   -8.0312    1.6715    0.0000 P   0  0  1  0  0  0  0  0  0  0  0  0
   -6.6100    1.8184    0.0000 P   0  0  1  0  0  0  0  0  0  0  0  0
  -10.1223    0.2159    0.0000 O   0  0  0  0  0  0  0  0  0  0  0  0
  -11.1585    2.0822    0.0000 O   0  0  0  0  0  0  0  0  0  0  0  0
  -12.2160    0.6320    0.0000 O   0  0  0  0  0  0  0  0  0  0  0  0
   -8.6995    1.1878    0.0000 O   0  0  0  0  0  0  0  0  0  0  0  0
  -11.2176    3.2474    0.0000 O   0  0  0  0  0  0  0  0  0  0  0  0
  -10.0524    3.3064    0.0000 O   0  0  0  0  0  0  0  0  0  0  0  0
   -7.3630    2.1552    0.0000 O   0  0  0  0  0  0  0  0  0  0  0  0
   -9.9933    2.1412    0.0000 O   0  0  0  0  0  0  0  0  0  0  0  0
   -7.5476    1.0032    0.0000 O   0  0  0  0  0  0  0  0  0  0  0  0
   -5.8569    1.4815    0.0000 O   0  0  0  0  0  0  0  0  0  0  0  0
   -8.5150    2.3397    0.0000 O   0  0  0  0  0  0  0  0  0  0  0  0
   -3.5977    0.4710    0.0000 O   0  0  0  0  0  0  0  0  0  0  0  0
   -6.2732    2.5715    0.0000 O   0  0  0  0  0  0  0  0  0  0  0  0
   -6.9468    1.0653    0.0000 O   0  0  0  0  0  0  0  0  0  0  0  0
   -3.0991    2.5959    0.0000 O   0  0  0  0  0  0  0  0  0  0  0  0
    4.0073    3.3304    0.0000 O   0  0  0  0  0  0  0  0  0  0  0  0
   -0.2565    2.8897    0.0000 O   0  0  0  0  0  0  0  0  0  0  0  0
  -11.1635   -0.8217    0.0000 N   0  0  0  0  0  0  0  0  0  0  0  0
  -11.1635   -2.1494    0.0000 N   0  0  0  0  0  0  0  0  0  0  0  0
  -12.6586   -0.6606    0.0000 N   0  0  0  0  0  0  0  0  0  0  0  0
  -13.3730   -1.8981    0.0000 N   0  0  0  0  0  0  0  0  0  0  0  0
  -12.6586   -3.1355    0.0000 N   0  0  0  0  0  0  0  0  0  0  0  0
   -2.2612    1.4385    0.0000 N   0  0  0  0  0  0  0  0  0  0  0  0
    0.5813    1.7323    0.0000 N   0  0  0  0  0  0  0  0  0  0  0  0
  -10.9050    1.2972    0.0000 C   0  0  1  0  0  0  0  0  0  0  0  0
  -11.3910    0.6306    0.0000 C   0  0  2  0  0  0  0  0  0  0  0  0
  -10.1208    1.0408    0.0000 C   0  0  1  0  0  0  0  0  0  0  0  0
  -10.9073   -0.0376    0.0000 C   0  0  1  0  0  0  0  0  0  0  0  0
   -9.4526    1.5246    0.0000 C   0  0  0  0  0  0  0  0  0  0  0  0
  -11.9441   -1.0731    0.0000 C   0  0  0  0  0  0  0  0  0  0  0  0
  -10.6821   -1.4856    0.0000 C   0  0  0  0  0  0  0  0  0  0  0  0
  -11.9441   -1.8981    0.0000 C   0  0  0  0  0  0  0  0  0  0  0  0
   -4.4356    1.6285    0.0000 C   0  0  0  0  0  0  0  0  0  0  0  0
  -12.6586   -2.3105    0.0000 C   0  0  0  0  0  0  0  0  0  0  0  0
   -3.6825    1.2916    0.0000 C   0  0  1  0  0  0  0  0  0  0  0  0
   -5.1887    1.9653    0.0000 C   0  0  0  0  0  0  0  0  0  0  0  0
  -13.3730   -1.0731    0.0000 C   0  0  0  0  0  0  0  0  0  0  0  0
   -4.7725    0.8754    0.0000 C   0  0  0  0  0  0  0  0  0  0  0  0
   -4.0987    2.3815    0.0000 C   0  0  0  0  0  0  0  0  0  0  0  0
    8.3560    2.9505    0.0000 C   0  0  0  0  0  0  0  0  0  0  0  0
    9.1090    2.6137    0.0000 C   0  0  0  0  0  0  0  0  0  0  0  0
    7.6878    2.4668    0.0000 C   0  0  0  0  0  0  0  0  0  0  0  0
    9.7773    3.0975    0.0000 C   0  0  0  0  0  0  0  0  0  0  0  0
   -3.0143    1.7753    0.0000 C   0  0  0  0  0  0  0  0  0  0  0  0
    6.9347    2.8036    0.0000 C   0  0  0  0  0  0  0  0  0  0  0  0
   10.5304    2.7606    0.0000 C   0  0  0  0  0  0  0  0  0  0  0  0
    6.2665    2.3199    0.0000 C   0  0  0  0  0  0  0  0  0  0  0  0
   11.1987    3.2443    0.0000 C   0  0  0  0  0  0  0  0  0  0  0  0
    5.5135    2.6567    0.0000 C   0  0  0  0  0  0  0  0  0  0  0  0
   11.9517    2.9075    0.0000 C   0  0  0  0  0  0  0  0  0  0  0  0
    4.8452    2.1730    0.0000 C   0  0  0  0  0  0  0  0  0  0  0  0
   12.6199    3.3912    0.0000 C   0  0  0  0  0  0  0  0  0  0  0  0
   -1.5930    1.9222    0.0000 C   0  0  0  0  0  0  0  0  0  0  0  0
   -0.8400    1.5854    0.0000 C   0  0  0  0  0  0  0  0  0  0  0  0
    4.0921    2.5099    0.0000 C   0  0  0  0  0  0  0  0  0  0  0  0
   13.3730    3.0544    0.0000 C   0  0  0  0  0  0  0  0  0  0  0  0
    3.4239    2.0261    0.0000 C   0  0  0  0  0  0  0  0  0  0  0  0
   -0.1717    2.0692    0.0000 C   0  0  0  0  0  0  0  0  0  0  0  0
    1.2495    2.2160    0.0000 C   0  0  0  0  0  0  0  0  0  0  0  0
    2.0026    1.8792    0.0000 C   0  0  0  0  0  0  0  0  0  0  0  0
  -12.2156   -3.3912    0.0000 H   0  0  0  0  0  0  0  0  0  0  0  0
  -13.1015   -3.3912    0.0000 H   0  0  0  0  0  0  0  0  0  0  0  0
   -2.2087    0.9297    0.0000 H   0  0  0  0  0  0  0  0  0  0  0  0
    0.6338    1.2235    0.0000 H   0  0  0  0  0  0  0  0  0  0  0  0
  -12.6996    1.4729    0.0000 H   0  0  0  0  0  0  0  0  0  0  0  0
  -11.0142    4.1958    0.0000 H   0  0  0  0  0  0  0  0  0  0  0  0
   -9.1039    3.1032    0.0000 H   0  0  0  0  0  0  0  0  0  0  0  0
   -7.9438    0.1178    0.0000 H   0  0  0  0  0  0  0  0  0  0  0  0
   -4.3834   -0.0978    0.0000 H   0  0  0  0  0  0  0  0  0  0  0  0
   -5.3083    2.6713    0.0000 H   0  0  0  0  0  0  0  0  0  0  0  0
  -11.9615    1.4664    0.0000 H   0  0  0  0  0  0  0  0  0  0  0  0
  -11.8752    1.5848    0.0000 H   0  0  0  0  0  0  0  0  0  0  0  0
   -9.1683    0.5534    0.0000 H   0  0  0  0  0  0  0  0  0  0  0  0
  -10.1520   -0.7955    0.0000 H   0  0  0  0  0  0  0  0  0  0  0  0
   -9.5627    2.5889    0.0000 H   0  0  0  0  0  0  0  0  0  0  0  0
  -10.4294    1.9614    0.0000 H   0  0  0  0  0  0  0  0  0  0  0  0
   -9.6501   -1.4856    0.0000 H   0  0  0  0  0  0  0  0  0  0  0  0
   -4.5493    0.6642    0.0000 H   0  0  0  0  0  0  0  0  0  0  0  0
   -5.2988    3.0296    0.0000 H   0  0  0  0  0  0  0  0  0  0  0  0
   -4.3220    2.5928    0.0000 H   0  0  0  0  0  0  0  0  0  0  0  0
  -14.2667   -0.5571    0.0000 H   0  0  0  0  0  0  0  0  0  0  0  0
   -5.8368    0.7654    0.0000 H   0  0  0  0  0  0  0  0  0  0  0  0
   -4.1451    0.0086    0.0000 H   0  0  0  0  0  0  0  0  0  0  0  0
   -5.2094   -0.1013    0.0000 H   0  0  0  0  0  0  0  0  0  0  0  0
   -3.0344    2.4914    0.0000 H   0  0  0  0  0  0  0  0  0  0  0  0
   -4.7261    3.2483    0.0000 H   0  0  0  0  0  0  0  0  0  0  0  0
   -3.6617    3.3582    0.0000 H   0  0  0  0  0  0  0  0  0  0  0  0
    8.2460    4.0148    0.0000 H   0  0  0  0  0  0  0  0  0  0  0  0
    7.3793    3.3874    0.0000 H   0  0  0  0  0  0  0  0  0  0  0  0
    9.2190    1.5494    0.0000 H   0  0  0  0  0  0  0  0  0  0  0  0
   10.0857    2.1768    0.0000 H   0  0  0  0  0  0  0  0  0  0  0  0
    7.7978    1.4025    0.0000 H   0  0  0  0  0  0  0  0  0  0  0  0
    6.8211    1.8393    0.0000 H   0  0  0  0  0  0  0  0  0  0  0  0
    9.6673    4.1618    0.0000 H   0  0  0  0  0  0  0  0  0  0  0  0
   10.6441    3.7249    0.0000 H   0  0  0  0  0  0  0  0  0  0  0  0
    6.8247    3.8679    0.0000 H   0  0  0  0  0  0  0  0  0  0  0  0
    5.9580    3.2405    0.0000 H   0  0  0  0  0  0  0  0  0  0  0  0
   10.6403    1.6963    0.0000 H   0  0  0  0  0  0  0  0  0  0  0  0
   11.5071    2.3236    0.0000 H   0  0  0  0  0  0  0  0  0  0  0  0
    6.3765    1.2556    0.0000 H   0  0  0  0  0  0  0  0  0  0  0  0
    5.3998    1.6925    0.0000 H   0  0  0  0  0  0  0  0  0  0  0  0
   11.0887    4.3086    0.0000 H   0  0  0  0  0  0  0  0  0  0  0  0
   12.0654    3.8717    0.0000 H   0  0  0  0  0  0  0  0  0  0  0  0
    5.4035    3.7210    0.0000 H   0  0  0  0  0  0  0  0  0  0  0  0
    4.5368    3.0937    0.0000 H   0  0  0  0  0  0  0  0  0  0  0  0
   12.0617    1.8432    0.0000 H   0  0  0  0  0  0  0  0  0  0  0  0
   12.9284    2.4706    0.0000 H   0  0  0  0  0  0  0  0  0  0  0  0
    4.9551    1.1087    0.0000 H   0  0  0  0  0  0  0  0  0  0  0  0
    3.9784    1.5456    0.0000 H   0  0  0  0  0  0  0  0  0  0  0  0
   12.5099    4.4555    0.0000 H   0  0  0  0  0  0  0  0  0  0  0  0
   13.4866    4.0187    0.0000 H   0  0  0  0  0  0  0  0  0  0  0  0
   -1.7030    2.9865    0.0000 H   0  0  0  0  0  0  0  0  0  0  0  0
   -0.7263    2.5496    0.0000 H   0  0  0  0  0  0  0  0  0  0  0  0
   -0.7300    0.5211    0.0000 H   0  0  0  0  0  0  0  0  0  0  0  0
    0.1367    1.1485    0.0000 H   0  0  0  0  0  0  0  0  0  0  0  0
   13.4831    1.9901    0.0000 H   0  0  0  0  0  0  0  0  0  0  0  0
   14.2397    3.6819    0.0000 H   0  0  0  0  0  0  0  0  0  0  0  0
   14.3498    2.6176    0.0000 H   0  0  0  0  0  0  0  0  0  0  0  0
    3.5340    0.9618    0.0000 H   0  0  0  0  0  0  0  0  0  0  0  0
    4.4007    1.5893    0.0000 H   0  0  0  0  0  0  0  0  0  0  0  0
    1.1395    3.2803    0.0000 H   0  0  0  0  0  0  0  0  0  0  0  0
    2.1162    2.8435    0.0000 H   0  0  0  0  0  0  0  0  0  0  0  0
    2.1126    0.8149    0.0000 H   0  0  0  0  0  0  0  0  0  0  0  0
    1.1359    1.2517    0.0000 H   0  0  0  0  0  0  0  0  0  0  0  0
  1 61  1  0  0  0  0
  1 64  1  0  0  0  0
  2  6  1  0  0  0  0
  2  9  1  0  0  0  0
  2 10  1  0  0  0  0
  2 12  2  0  0  0  0
  3  8  1  0  0  0  0
  3 11  1  0  0  0  0
  3 13  1  0  0  0  0
  3 15  2  6  0  0  0
  4 11  1  0  0  0  0
  4 14  1  0  0  0  0
  4 17  1  0  0  0  0
  4 18  2  1  0  0  0
  5 31  1  0  0  0  0
  5 32  1  0  0  0  0
  7 69  1  0  0  0  0
  8 33  1  0  0  0  0
  9 70  1  0  0  0  0
 10 71  1  0  0  0  0
 13 72  1  0  0  0  0
 14 40  1  0  0  0  0
 16 73  1  0  0  0  0
 17 74  1  0  0  0  0
 19 48  2  0  0  0  0
 20 59  2  0  0  0  0
 21 62  2  0  0  0  0
 22 34  1  0  0  0  0
 22 35  1  0  0  0  0
 23 35  2  0  0  0  0
 23 36  1  0  0  0  0
 24 34  2  0  0  0  0
 24 41  1  0  0  0  0
 25 38  1  0  0  0  0
 25 41  2  0  0  0  0
 26 38  1  0  0  0  0
 26 65  1  0  0  0  0
 26 66  1  0  0  0  0
 27 48  1  0  0  0  0
 27 57  1  0  0  0  0
 27 67  1  0  0  0  0
 28 62  1  0  0  0  0
 28 63  1  0  0  0  0
 28 68  1  0  0  0  0
 29  6  1  0  0  0  0
 29 30  1  0  0  0  0
 29 31  1  0  0  0  0
 29 75  1  1  0  0  0
 30  7  1  0  0  0  0
 30 32  1  0  0  0  0
 30 76  1  1  0  0  0
 31 33  1  0  0  0  0
 31 77  1  6  0  0  0
 32 22  1  0  0  0  0
 32 78  1  6  0  0  0
 33 79  1  0  0  0  0
 33 80  1  0  0  0  0
 34 36  1  0  0  0  0
 35 81  1  0  0  0  0
 36 38  2  0  0  0  0
 37 39  1  0  0  0  0
 37 40  1  0  0  0  0
 37 42  1  0  0  0  0
 37 43  1  0  0  0  0
 39 16  1  0  0  0  0
 39 48  1  0  0  0  0
 39 82  1  6  0  0  0
 40 83  1  0  0  0  0
 40 84  1  0  0  0  0
 41 85  1  0  0  0  0
 42 86  1  0  0  0  0
 42 87  1  0  0  0  0
 42 88  1  0  0  0  0
 43 89  1  0  0  0  0
 43 90  1  0  0  0  0
 43 91  1  0  0  0  0
 44 45  1  0  0  0  0
 44 46  1  0  0  0  0
 44 92  1  0  0  0  0
 44 93  1  0  0  0  0
 45 47  1  0  0  0  0
 45 94  1  0  0  0  0
 45 95  1  0  0  0  0
 46 49  1  0  0  0  0
 46 96  1  0  0  0  0
 46 97  1  0  0  0  0
 47 50  1  0  0  0  0
 47 98  1  0  0  0  0
 47 99  1  0  0  0  0
 49 51  1  0  0  0  0
 49100  1  0  0  0  0
 49101  1  0  0  0  0
 50 52  1  0  0  0  0
 50102  1  0  0  0  0
 50103  1  0  0  0  0
 51 53  1  0  0  0  0
 51104  1  0  0  0  0
 51105  1  0  0  0  0
 52 54  1  0  0  0  0
 52106  1  0  0  0  0
 52107  1  0  0  0  0
 53 55  1  0  0  0  0
 53108  1  0  0  0  0
 53109  1  0  0  0  0
 54 56  1  0  0  0  0
 54110  1  0  0  0  0
 54111  1  0  0  0  0
 55 59  1  0  0  0  0
 55112  1  0  0  0  0
 55113  1  0  0  0  0
 56 60  1  0  0  0  0
 56114  1  0  0  0  0
 56115  1  0  0  0  0
 57 58  1  0  0  0  0
 57116  1  0  0  0  0
 57117  1  0  0  0  0
 58 62  1  0  0  0  0
 58118  1  0  0  0  0
 58119  1  0  0  0  0
 59 61  1  0  0  0  0
 60120  1  0  0  0  0
 60121  1  0  0  0  0
 60122  1  0  0  0  0
 61123  1  0  0  0  0
 61124  1  0  0  0  0
 63 64  1  0  0  0  0
 63125  1  0  0  0  0
 63126  1  0  0  0  0
 64127  1  0  0  0  0
 64128  1  0  0  0  0
M  END
>  <DRUGBANK_ID>
DB02271

>  <SECONDARY_ACCESSION_NUMBERS>
EXPT02345

>  <COMMON_NAME>
S-(2-oxo)pentadecylcoa

$$$$
