
 OpenBabel10282417072D

 14 13  0  0  0  0  0  0  0  0999 V2000
    1.2375    0.7145    0.0000 N   0  0  0  0  0  0  0  0  0  0  0  0
    0.8250    0.0000    0.0000 C   0  0  0  0  0  0  0  0  0  0  0  0
    0.0000    0.0000    0.0000 C   0  0  0  0  0  0  0  0  0  0  0  0
   -0.4125   -0.7145    0.0000 O   0  0  0  0  0  0  0  0  0  0  0  0
    0.0000   -1.4289    0.0000 P   0  0  0  0  0  0  0  0  0  0  0  0
    0.4125   -2.1434    0.0000 O   0  0  0  0  0  0  0  0  0  0  0  0
   -0.7145   -1.8414    0.0000 O   0  0  0  0  0  0  0  0  0  0  0  0
    0.7145   -1.0164    0.0000 O   0  0  0  0  0  0  0  0  0  0  0  0
    2.2220    0.7145    0.0000 H   0  0  0  0  0  0  0  0  0  0  0  0
    0.7452    1.5671    0.0000 H   0  0  0  0  0  0  0  0  0  0  0  0
    1.3410   -0.8937    0.0000 H   0  0  0  0  0  0  0  0  0  0  0  0
   -0.5160    0.8937    0.0000 H   0  0  0  0  0  0  0  0  0  0  0  0
   -0.0725   -2.9834    0.0000 H   0  0  0  0  0  0  0  0  0  0  0  0
   -1.5545   -1.3564    0.0000 H   0  0  0  0  0  0  0  0  0  0  0  0
  1  2  1  0  0  0  0
  1  9  1  0  0  0  0
  1 10  1  0  0  0  0
  2  3  2  0  0  0  0
  2 11  1  0  0  0  0
  3  4  1  0  0  0  0
  3 12  1  0  0  0  0
  4  5  1  0  0  0  0
  5  6  1  0  0  0  0
  5  7  1  0  0  0  0
  5  8  2  0  0  0  0
  6 13  1  0  0  0  0
  7 14  1  0  0  0  0
M  END
>  <DRUGBANK_ID>
DB02907

>  <SECONDARY_ACCESSION_NUMBERS>
EXPT01321

>  <COMMON_NAME>
2-Amino-Vinyl-Phosphate

$$$$
