
 OpenBabel10282417072D

 62 64  0  0  0  0  0  0  0  0999 V2000
    2.9836   -1.8063    0.0000 C   0  0  0  0  0  0  0  0  0  0  0  0
    3.7068   -2.2034    0.0000 C   0  0  0  0  0  0  0  0  0  0  0  0
    4.4123   -1.7757    0.0000 C   0  0  0  0  0  0  0  0  0  0  0  0
    4.3947   -0.9509    0.0000 C   0  0  0  0  0  0  0  0  0  0  0  0
    3.6715   -0.5538    0.0000 C   0  0  0  0  0  0  0  0  0  0  0  0
    2.9660   -0.9815    0.0000 C   0  0  0  0  0  0  0  0  0  0  0  0
    2.2429   -0.5844    0.0000 C   0  0  0  0  0  0  0  0  0  0  0  0
    1.5373   -1.0121    0.0000 C   0  0  2  0  0  0  0  0  0  0  0  0
    1.5550   -1.8369    0.0000 C   0  0  2  0  0  0  0  0  0  0  0  0
    2.2782   -2.2340    0.0000 C   0  0  0  0  0  0  0  0  0  0  0  0
    0.7760   -2.1085    0.0000 C   0  0  2  0  0  0  0  0  0  0  0  0
    0.7474   -0.7740    0.0000 C   0  0  0  0  0  0  0  0  0  0  0  0
    0.2769   -1.4516    0.0000 C   0  0  1  0  0  0  0  0  0  0  0  0
    3.6538    0.2710    0.0000 O   0  0  0  0  0  0  0  0  0  0  0  0
    4.3593    0.6987    0.0000 C   0  0  0  0  0  0  0  0  0  0  0  0
    5.0824    0.3016    0.0000 C   0  0  0  0  0  0  0  0  0  0  0  0
    0.7936   -2.9333    0.0000 C   0  0  0  0  0  0  0  0  0  0  0  0
    0.0882   -3.3610    0.0000 C   0  0  0  0  0  0  0  0  0  0  0  0
   -0.6350   -2.9639    0.0000 C   0  0  2  0  0  0  0  0  0  0  0  0
   -1.3405   -3.3916    0.0000 C   0  0  0  0  0  0  0  0  0  0  0  0
   -2.0636   -2.9944    0.0000 C   0  0  0  0  0  0  0  0  0  0  0  0
   -2.7691   -3.4221    0.0000 C   0  0  0  0  0  0  0  0  0  0  0  0
   -3.4922   -3.0250    0.0000 C   0  0  0  0  0  0  0  0  0  0  0  0
   -4.1977   -3.4527    0.0000 C   0  0  0  0  0  0  0  0  0  0  0  0
    5.7879    0.7293    0.0000 O   0  0  0  0  0  0  0  0  0  0  0  0
    5.1001   -0.5232    0.0000 O   0  0  0  0  0  0  0  0  0  0  0  0
   -0.5479   -1.4692    0.0000 O   0  0  0  0  0  0  0  0  0  0  0  0
   -0.6526   -2.1391    0.0000 O   0  0  0  0  0  0  0  0  0  0  0  0
    1.5726   -2.6617    0.0000 H   0  0  0  0  0  0  0  0  0  0  0  0
    1.5197   -0.1872    0.0000 H   0  0  0  0  0  0  0  0  0  0  0  0
    3.7289   -3.2352    0.0000 H   0  0  0  0  0  0  0  0  0  0  0  0
    5.3169   -2.2725    0.0000 H   0  0  0  0  0  0  0  0  0  0  0  0
    5.2772   -0.4159    0.0000 H   0  0  0  0  0  0  0  0  0  0  0  0
    2.2200    0.4854    0.0000 H   0  0  0  0  0  0  0  0  0  0  0  0
    1.3050   -0.0693    0.0000 H   0  0  0  0  0  0  0  0  0  0  0  0
    2.3012   -3.3038    0.0000 H   0  0  0  0  0  0  0  0  0  0  0  0
    1.3632   -2.7888    0.0000 H   0  0  0  0  0  0  0  0  0  0  0  0
    1.6549   -2.7188    0.0000 H   0  0  0  0  0  0  0  0  0  0  0  0
    0.3951    0.2363    0.0000 H   0  0  0  0  0  0  0  0  0  0  0  0
   -0.3128   -0.6293    0.0000 H   0  0  0  0  0  0  0  0  0  0  0  0
   -0.1884   -2.4151    0.0000 H   0  0  0  0  0  0  0  0  0  0  0  0
    4.3364    1.7685    0.0000 H   0  0  0  0  0  0  0  0  0  0  0  0
    5.2743    1.2534    0.0000 H   0  0  0  0  0  0  0  0  0  0  0  0
    1.7315   -3.4484    0.0000 H   0  0  0  0  0  0  0  0  0  0  0  0
    0.8165   -4.0031    0.0000 H   0  0  0  0  0  0  0  0  0  0  0  0
    0.1112   -4.4308    0.0000 H   0  0  0  0  0  0  0  0  0  0  0  0
   -0.8268   -3.9158    0.0000 H   0  0  0  0  0  0  0  0  0  0  0  0
    0.2800   -2.4092    0.0000 H   0  0  0  0  0  0  0  0  0  0  0  0
   -1.3177   -4.4614    0.0000 H   0  0  0  0  0  0  0  0  0  0  0  0
   -2.2555   -3.9462    0.0000 H   0  0  0  0  0  0  0  0  0  0  0  0
   -2.0864   -1.9246    0.0000 H   0  0  0  0  0  0  0  0  0  0  0  0
   -3.0015   -2.4793    0.0000 H   0  0  0  0  0  0  0  0  0  0  0  0
   -2.7462   -4.4919    0.0000 H   0  0  0  0  0  0  0  0  0  0  0  0
   -3.6841   -3.9768    0.0000 H   0  0  0  0  0  0  0  0  0  0  0  0
   -3.5151   -1.9552    0.0000 H   0  0  0  0  0  0  0  0  0  0  0  0
   -4.4301   -2.5099    0.0000 H   0  0  0  0  0  0  0  0  0  0  0  0
   -5.1356   -2.9376    0.0000 H   0  0  0  0  0  0  0  0  0  0  0  0
   -4.1748   -4.5225    0.0000 H   0  0  0  0  0  0  0  0  0  0  0  0
   -5.1127   -4.0074    0.0000 H   0  0  0  0  0  0  0  0  0  0  0  0
    6.6092    0.2783    0.0000 H   0  0  0  0  0  0  0  0  0  0  0  0
   -1.0507   -0.6397    0.0000 H   0  0  0  0  0  0  0  0  0  0  0  0
    0.1769   -1.6363    0.0000 H   0  0  0  0  0  0  0  0  0  0  0  0
  1  2  1  0  0  0  0
  1  6  2  0  0  0  0
  1 10  1  0  0  0  0
  2  3  2  0  0  0  0
  2 31  1  0  0  0  0
  3  4  1  0  0  0  0
  3 32  1  0  0  0  0
  4  5  2  0  0  0  0
  4 33  1  0  0  0  0
  5  6  1  0  0  0  0
  5 14  1  0  0  0  0
  6  7  1  0  0  0  0
  7  8  1  0  0  0  0
  7 34  1  0  0  0  0
  7 35  1  0  0  0  0
  8 12  1  0  0  0  0
  8 30  1  1  0  0  0
  9 10  1  0  0  0  0
  9  8  1  0  0  0  0
  9 29  1  1  0  0  0
 10 36  1  0  0  0  0
 10 37  1  0  0  0  0
 11  9  1  0  0  0  0
 11 13  1  0  0  0  0
 11 17  1  0  0  0  0
 11 38  1  6  0  0  0
 12 13  1  0  0  0  0
 12 39  1  0  0  0  0
 12 40  1  0  0  0  0
 13 27  1  0  0  0  0
 13 41  1  1  0  0  0
 14 15  1  0  0  0  0
 15 16  1  0  0  0  0
 15 42  1  0  0  0  0
 15 43  1  0  0  0  0
 16 25  1  0  0  0  0
 16 26  2  0  0  0  0
 17 18  1  0  0  0  0
 17 44  1  0  0  0  0
 17 45  1  0  0  0  0
 18 19  1  0  0  0  0
 18 46  1  0  0  0  0
 18 47  1  0  0  0  0
 19 20  1  0  0  0  0
 19 28  1  0  0  0  0
 19 48  1  1  0  0  0
 20 21  1  0  0  0  0
 20 49  1  0  0  0  0
 20 50  1  0  0  0  0
 21 22  1  0  0  0  0
 21 51  1  0  0  0  0
 21 52  1  0  0  0  0
 22 23  1  0  0  0  0
 22 53  1  0  0  0  0
 22 54  1  0  0  0  0
 23 24  1  0  0  0  0
 23 55  1  0  0  0  0
 23 56  1  0  0  0  0
 24 57  1  0  0  0  0
 24 58  1  0  0  0  0
 24 59  1  0  0  0  0
 25 60  1  0  0  0  0
 27 61  1  0  0  0  0
 28 62  1  0  0  0  0
M  END
>  <DRUGBANK_ID>
DB00374

>  <SECONDARY_ACCESSION_NUMBERS>
APRD01272

>  <COMMON_NAME>
Treprostinil

>  <CAS_NUMBER>
81846-19-7

>  <UNII>
RUM6K67ESG

>  <SYNONYMS>
Tr√©prostinil; Treprostinil; Treprostinilo; Treprostinilum

$$$$
