16750094
 OpenBabel10282417072D

 48 51  0  0  0  0  0  0  0  0999 V2000
    8.3322   -0.4833    0.0000 O   0  0  0  0  0  0  0  0  0  0  0  0
    3.7935    1.8126    0.0000 O   0  0  0  0  0  0  0  0  0  0  0  0
    6.7176   -2.1514    0.0000 N   0  0  0  0  0  0  0  0  0  0  0  0
    5.2224   -2.3125    0.0000 N   0  0  0  0  0  0  0  0  0  0  0  0
    2.3645    1.8126    0.0000 N   0  0  0  0  0  0  0  0  0  0  0  0
    2.3645   -0.6625    0.0000 N   0  0  0  0  0  0  0  0  0  0  0  0
    5.9370   -1.0750    0.0000 C   0  0  0  0  0  0  0  0  0  0  0  0
    6.7176   -0.8235    0.0000 C   0  0  0  0  0  0  0  0  0  0  0  0
    5.9370   -1.9000    0.0000 C   0  0  0  0  0  0  0  0  0  0  0  0
    5.2224   -0.6625    0.0000 C   0  0  0  0  0  0  0  0  0  0  0  0
    6.9739   -0.0394    0.0000 C   0  0  0  0  0  0  0  0  0  0  0  0
    4.5080   -1.0750    0.0000 C   0  0  0  0  0  0  0  0  0  0  0  0
    7.1991   -1.4875    0.0000 C   0  0  0  0  0  0  0  0  0  0  0  0
    3.7935   -0.6625    0.0000 C   0  0  0  0  0  0  0  0  0  0  0  0
    4.5080   -1.9000    0.0000 C   0  0  0  0  0  0  0  0  0  0  0  0
    7.7812    0.1308    0.0000 C   0  0  0  0  0  0  0  0  0  0  0  0
    6.4229    0.5747    0.0000 C   0  0  0  0  0  0  0  0  0  0  0  0
    3.7935    0.1625    0.0000 C   0  0  0  0  0  0  0  0  0  0  0  0
    3.0790    0.5750    0.0000 C   0  0  0  0  0  0  0  0  0  0  0  0
    3.0790   -1.0750    0.0000 C   0  0  0  0  0  0  0  0  0  0  0  0
    8.0375    0.9149    0.0000 C   0  0  0  0  0  0  0  0  0  0  0  0
    6.6792    1.3589    0.0000 C   0  0  0  0  0  0  0  0  0  0  0  0
    7.4865    1.5290    0.0000 C   0  0  0  0  0  0  0  0  0  0  0  0
    3.0790    1.4001    0.0000 C   0  0  0  0  0  0  0  0  0  0  0  0
    2.3645    0.1625    0.0000 C   0  0  0  0  0  0  0  0  0  0  0  0
    2.3645    2.6376    0.0000 C   0  0  0  0  0  0  0  0  0  0  0  0
    1.6500    1.4001    0.0000 C   0  0  0  0  0  0  0  0  0  0  0  0
    9.1395   -0.3132    0.0000 C   0  0  0  0  0  0  0  0  0  0  0  0
    7.0234   -3.0872    0.0000 H   0  0  0  0  0  0  0  0  0  0  0  0
    5.2223    0.3695    0.0000 H   0  0  0  0  0  0  0  0  0  0  0  0
    8.2311   -1.4875    0.0000 H   0  0  0  0  0  0  0  0  0  0  0  0
    3.6143   -2.4160    0.0000 H   0  0  0  0  0  0  0  0  0  0  0  0
    5.4131    0.3619    0.0000 H   0  0  0  0  0  0  0  0  0  0  0  0
    4.6872    0.6785    0.0000 H   0  0  0  0  0  0  0  0  0  0  0  0
    3.0790   -2.1070    0.0000 H   0  0  0  0  0  0  0  0  0  0  0  0
    9.0473    1.1277    0.0000 H   0  0  0  0  0  0  0  0  0  0  0  0
    5.9900    2.1270    0.0000 H   0  0  0  0  0  0  0  0  0  0  0  0
    7.8071    2.5099    0.0000 H   0  0  0  0  0  0  0  0  0  0  0  0
    1.4708    0.6785    0.0000 H   0  0  0  0  0  0  0  0  0  0  0  0
    3.2911    3.1726    0.0000 H   0  0  0  0  0  0  0  0  0  0  0  0
    1.4379    3.1726    0.0000 H   0  0  0  0  0  0  0  0  0  0  0  0
    2.3645    3.7076    0.0000 H   0  0  0  0  0  0  0  0  0  0  0  0
    0.7234    1.9351    0.0000 H   0  0  0  0  0  0  0  0  0  0  0  0
    1.6500    0.3301    0.0000 H   0  0  0  0  0  0  0  0  0  0  0  0
    0.7233    0.8651    0.0000 H   0  0  0  0  0  0  0  0  0  0  0  0
    9.8541   -1.1096    0.0000 H   0  0  0  0  0  0  0  0  0  0  0  0
    9.4720    0.7038    0.0000 H   0  0  0  0  0  0  0  0  0  0  0  0
   10.1865   -0.0926    0.0000 H   0  0  0  0  0  0  0  0  0  0  0  0
  1 16  1  0  0  0  0
  1 28  1  0  0  0  0
  2 24  2  0  0  0  0
  3  9  1  0  0  0  0
  3 13  1  0  0  0  0
  3 29  1  0  0  0  0
  4  9  1  0  0  0  0
  4 15  2  0  0  0  0
  5 24  1  0  0  0  0
  5 26  1  0  0  0  0
  5 27  1  0  0  0  0
  6 20  2  0  0  0  0
  6 25  1  0  0  0  0
  7  8  1  0  0  0  0
  7  9  2  0  0  0  0
  7 10  1  0  0  0  0
  8 11  1  0  0  0  0
  8 13  2  0  0  0  0
 10 12  2  0  0  0  0
 10 30  1  0  0  0  0
 11 16  1  0  0  0  0
 11 17  2  0  0  0  0
 12 14  1  0  0  0  0
 12 15  1  0  0  0  0
 13 31  1  0  0  0  0
 14 18  2  0  0  0  0
 14 20  1  0  0  0  0
 15 32  1  0  0  0  0
 16 21  2  0  0  0  0
 17 22  1  0  0  0  0
 17 33  1  0  0  0  0
 18 19  1  0  0  0  0
 18 34  1  0  0  0  0
 19 24  1  0  0  0  0
 19 25  2  0  0  0  0
 20 35  1  0  0  0  0
 21 23  1  0  0  0  0
 21 36  1  0  0  0  0
 22 23  2  0  0  0  0
 22 37  1  0  0  0  0
 23 38  1  0  0  0  0
 25 39  1  0  0  0  0
 26 40  1  0  0  0  0
 26 41  1  0  0  0  0
 26 42  1  0  0  0  0
 27 43  1  0  0  0  0
 27 44  1  0  0  0  0
 27 45  1  0  0  0  0
 28 46  1  0  0  0  0
 28 47  1  0  0  0  0
 28 48  1  0  0  0  0
M  END
>  <DRUGBANK_ID>
DB08350

>  <COMMON_NAME>
5-[3-(2-METHOXYPHENYL)-1H-PYRROLO[2,3-B]PYRIDIN-5-YL]-N,N-DIMETHYLPYRIDINE-3-CARBOXAMIDE

$$$$
