1340
 OpenBabel10282417072D

 61 63  0  0  1  0  0  0  0  0999 V2000
    5.8928    2.0873    0.0000 O   0  0  0  0  0  0  0  0  0  0  0  0
    5.4004    0.2166    0.0000 O   0  0  0  0  0  0  0  0  0  0  0  0
    6.0055    1.5111    0.0000 O   0  0  0  0  0  0  0  0  0  0  0  0
    7.5264    5.3499    0.0000 O   0  0  0  0  0  0  0  0  0  0  0  0
    7.8443    3.9568    0.0000 O   0  0  0  0  0  0  0  0  0  0  0  0
    3.7611    2.6017    0.0000 N   0  0  3  0  0  0  0  0  0  0  0  0
    4.5044    2.2437    0.0000 N   0  0  0  0  0  0  0  0  0  0  0  0
    6.2356    3.5896    0.0000 N   0  0  0  0  0  0  0  0  0  0  0  0
    4.5818    1.3878    0.0000 C   0  0  1  0  0  0  0  0  0  0  0  0
    5.4313    3.4060    0.0000 C   0  0  1  0  0  0  0  0  0  0  0  0
    3.0436    2.1286    0.0000 C   0  0  0  0  0  0  0  0  0  0  0  0
    3.5775    3.4060    0.0000 C   0  0  0  0  0  0  0  0  0  0  0  0
    3.8756    0.8984    0.0000 C   0  0  0  0  0  0  0  0  0  0  0  0
    4.9169    4.0511    0.0000 C   0  0  0  0  0  0  0  0  0  0  0  0
    3.1013    1.2712    0.0000 C   0  0  0  0  0  0  0  0  0  0  0  0
    4.0919    4.0511    0.0000 C   0  0  0  0  0  0  0  0  0  0  0  0
    5.2478    2.6017    0.0000 C   0  0  0  0  0  0  0  0  0  0  0  0
    6.4788    4.3779    0.0000 C   0  0  1  0  0  0  0  0  0  0  0  0
    5.3293    1.0385    0.0000 C   0  0  0  0  0  0  0  0  0  0  0  0
    5.9177    4.9828    0.0000 C   0  0  0  0  0  0  0  0  0  0  0  0
    6.1609    5.7711    0.0000 C   0  0  0  0  0  0  0  0  0  0  0  0
    7.2832    4.5616    0.0000 C   0  0  0  0  0  0  0  0  0  0  0  0
    5.5997    6.3759    0.0000 C   0  0  0  0  0  0  0  0  0  0  0  0
    4.7954    6.1923    0.0000 C   0  0  0  0  0  0  0  0  0  0  0  0
    5.8428    7.1643    0.0000 C   0  0  0  0  0  0  0  0  0  0  0  0
    8.3307    5.5335    0.0000 C   0  0  0  0  0  0  0  0  0  0  0  0
    4.2342    6.7971    0.0000 C   0  0  0  0  0  0  0  0  0  0  0  0
    5.2817    7.7690    0.0000 C   0  0  0  0  0  0  0  0  0  0  0  0
    8.5738    6.3218    0.0000 C   0  0  0  0  0  0  0  0  0  0  0  0
    4.4774    7.5854    0.0000 C   0  0  0  0  0  0  0  0  0  0  0  0
    4.6323   -0.3201    0.0000 H   0  0  0  0  0  0  0  0  0  0  0  0
    6.9294    2.8419    0.0000 H   0  0  0  0  0  0  0  0  0  0  0  0
    5.4576    2.0025    0.0000 H   0  0  0  0  0  0  0  0  0  0  0  0
    5.7847    4.4160    0.0000 H   0  0  0  0  0  0  0  0  0  0  0  0
    2.0850    2.6039    0.0000 H   0  0  0  0  0  0  0  0  0  0  0  0
    2.1538    1.5343    0.0000 H   0  0  0  0  0  0  0  0  0  0  0  0
    2.5343    3.6441    0.0000 H   0  0  0  0  0  0  0  0  0  0  0  0
    3.2241    4.4159    0.0000 H   0  0  0  0  0  0  0  0  0  0  0  0
    3.9597   -0.1683    0.0000 H   0  0  0  0  0  0  0  0  0  0  0  0
    2.9927    0.2939    0.0000 H   0  0  0  0  0  0  0  0  0  0  0  0
    5.3812    5.0151    0.0000 H   0  0  0  0  0  0  0  0  0  0  0  0
    4.3476    4.9571    0.0000 H   0  0  0  0  0  0  0  0  0  0  0  0
    2.2150    0.6718    0.0000 H   0  0  0  0  0  0  0  0  0  0  0  0
    3.1793    0.2040    0.0000 H   0  0  0  0  0  0  0  0  0  0  0  0
    3.6276    5.0151    0.0000 H   0  0  0  0  0  0  0  0  0  0  0  0
    4.6612    4.9571    0.0000 H   0  0  0  0  0  0  0  0  0  0  0  0
    5.4356    4.1399    0.0000 H   0  0  0  0  0  0  0  0  0  0  0  0
    4.8745    4.7448    0.0000 H   0  0  0  0  0  0  0  0  0  0  0  0
    5.1900    5.7672    0.0000 H   0  0  0  0  0  0  0  0  0  0  0  0
    7.2041    6.0092    0.0000 H   0  0  0  0  0  0  0  0  0  0  0  0
    6.4763    6.7936    0.0000 H   0  0  0  0  0  0  0  0  0  0  0  0
    4.4912    5.2061    0.0000 H   0  0  0  0  0  0  0  0  0  0  0  0
    6.8489    7.3940    0.0000 H   0  0  0  0  0  0  0  0  0  0  0  0
    9.0585    4.7492    0.0000 H   0  0  0  0  0  0  0  0  0  0  0  0
    9.3739    5.7717    0.0000 H   0  0  0  0  0  0  0  0  0  0  0  0
    3.2281    6.5675    0.0000 H   0  0  0  0  0  0  0  0  0  0  0  0
    5.5859    8.7552    0.0000 H   0  0  0  0  0  0  0  0  0  0  0  0
    9.6170    6.5600    0.0000 H   0  0  0  0  0  0  0  0  0  0  0  0
    7.8460    7.1061    0.0000 H   0  0  0  0  0  0  0  0  0  0  0  0
    8.8891    7.3443    0.0000 H   0  0  0  0  0  0  0  0  0  0  0  0
    3.7755    8.3419    0.0000 H   0  0  0  0  0  0  0  0  0  0  0  0
  1 17  2  0  0  0  0
  2 19  1  0  0  0  0
  2 31  1  0  0  0  0
  3 19  2  0  0  0  0
  4 22  1  0  0  0  0
  4 26  1  0  0  0  0
  5 22  2  0  0  0  0
  6  7  1  0  0  0  0
  6 11  1  0  0  0  0
  6 12  1  0  0  0  0
  7  9  1  0  0  0  0
  7 17  1  0  0  0  0
  8 32  1  0  0  0  0
  9 13  1  0  0  0  0
  9 19  1  0  0  0  0
  9 33  1  1  0  0  0
 10  8  1  0  0  0  0
 10 14  1  0  0  0  0
 10 17  1  0  0  0  0
 10 34  1  1  0  0  0
 11 15  1  0  0  0  0
 11 35  1  0  0  0  0
 11 36  1  0  0  0  0
 12 16  1  0  0  0  0
 12 37  1  0  0  0  0
 12 38  1  0  0  0  0
 13 15  1  0  0  0  0
 13 39  1  0  0  0  0
 13 40  1  0  0  0  0
 14 16  1  0  0  0  0
 14 41  1  0  0  0  0
 14 42  1  0  0  0  0
 15 43  1  0  0  0  0
 15 44  1  0  0  0  0
 16 45  1  0  0  0  0
 16 46  1  0  0  0  0
 18  8  1  0  0  0  0
 18 20  1  0  0  0  0
 18 22  1  0  0  0  0
 18 47  1  6  0  0  0
 20 21  1  0  0  0  0
 20 48  1  0  0  0  0
 20 49  1  0  0  0  0
 21 23  1  0  0  0  0
 21 50  1  0  0  0  0
 21 51  1  0  0  0  0
 23 24  2  0  0  0  0
 23 25  1  0  0  0  0
 24 27  1  0  0  0  0
 24 52  1  0  0  0  0
 25 28  2  0  0  0  0
 25 53  1  0  0  0  0
 26 29  1  0  0  0  0
 26 54  1  0  0  0  0
 26 55  1  0  0  0  0
 27 30  2  0  0  0  0
 27 56  1  0  0  0  0
 28 30  1  0  0  0  0
 28 57  1  0  0  0  0
 29 58  1  0  0  0  0
 29 59  1  0  0  0  0
 29 60  1  0  0  0  0
 30 61  1  0  0  0  0
M  END
>  <DRUGBANK_ID>
DB01340

>  <COMMON_NAME>
Cilazapril

>  <CAS_NUMBER>
88768-40-5

>  <UNII>
8Q9454114Q

>  <SYNONYMS>
Cilazapril; Cilazapril anhydrous; Cilazaprilum

$$$$
