
 OpenBabel10282417072D

 48 46  0  0  0  0  0  0  0  0999 V2000
   -2.5006    0.4677    0.0000 O   0  0  0  0  0  0  0  0  0  0  0  0
   -1.7861    0.0552    0.0000 C   0  0  0  0  0  0  0  0  0  0  0  0
   -1.0717    0.4677    0.0000 C   0  0  0  0  0  0  0  0  0  0  0  0
   -0.3572    0.0552    0.0000 C   0  0  0  0  0  0  0  0  0  0  0  0
    0.3572    0.4677    0.0000 C   0  0  0  0  0  0  0  0  0  0  0  0
    1.0717    0.0552    0.0000 C   0  0  0  0  0  0  0  0  0  0  0  0
    1.7861    0.4677    0.0000 C   0  0  0  0  0  0  0  0  0  0  0  0
    2.5006    0.0552    0.0000 C   0  0  0  0  0  0  0  0  0  0  0  0
    3.2151    0.4677    0.0000 C   0  0  0  0  0  0  0  0  0  0  0  0
    3.9295    0.0552    0.0000 C   0  0  0  0  0  0  0  0  0  0  0  0
    4.6440    0.4677    0.0000 C   0  0  0  0  0  0  0  0  0  0  0  0
    5.3585    0.0552    0.0000 C   0  0  0  0  0  0  0  0  0  0  0  0
    6.0730    0.4677    0.0000 C   0  0  0  0  0  0  0  0  0  0  0  0
   -3.2151    0.0552    0.0000 C   0  0  0  0  0  0  0  0  0  0  0  0
   -3.2151   -0.7697    0.0000 O   0  0  0  0  0  0  0  0  0  0  0  0
   -3.9295    0.4677    0.0000 C   0  0  0  0  0  0  0  0  0  0  0  0
   -4.6440    0.0552    0.0000 S   0  0  0  0  0  0  0  0  0  0  0  0
   -5.0565    0.7697    0.0000 O   0  0  0  0  0  0  0  0  0  0  0  0
   -4.2315   -0.6592    0.0000 O   0  0  0  0  0  0  0  0  0  0  0  0
   -5.3585   -0.3572    0.0000 O   0  5  0  0  0  0  0  0  0  0  0  0
   -6.0730   -0.7697    0.0000 Na  0  3  0  0  0  0  0  0  0  0  0  0
   -1.7861   -1.0148    0.0000 H   0  0  0  0  0  0  0  0  0  0  0  0
   -0.8594   -0.4798    0.0000 H   0  0  0  0  0  0  0  0  0  0  0  0
   -1.0717    1.5377    0.0000 H   0  0  0  0  0  0  0  0  0  0  0  0
   -0.1451    1.0027    0.0000 H   0  0  0  0  0  0  0  0  0  0  0  0
   -0.3572   -1.0148    0.0000 H   0  0  0  0  0  0  0  0  0  0  0  0
    0.5695   -0.4798    0.0000 H   0  0  0  0  0  0  0  0  0  0  0  0
    0.3572    1.5377    0.0000 H   0  0  0  0  0  0  0  0  0  0  0  0
    1.2838    1.0027    0.0000 H   0  0  0  0  0  0  0  0  0  0  0  0
    1.0717   -1.0148    0.0000 H   0  0  0  0  0  0  0  0  0  0  0  0
    1.9984   -0.4798    0.0000 H   0  0  0  0  0  0  0  0  0  0  0  0
    1.7861    1.5377    0.0000 H   0  0  0  0  0  0  0  0  0  0  0  0
    2.7127    1.0027    0.0000 H   0  0  0  0  0  0  0  0  0  0  0  0
    2.5006   -1.0148    0.0000 H   0  0  0  0  0  0  0  0  0  0  0  0
    3.4272   -0.4798    0.0000 H   0  0  0  0  0  0  0  0  0  0  0  0
    3.2151    1.5377    0.0000 H   0  0  0  0  0  0  0  0  0  0  0  0
    4.1418    1.0027    0.0000 H   0  0  0  0  0  0  0  0  0  0  0  0
    3.9295   -1.0148    0.0000 H   0  0  0  0  0  0  0  0  0  0  0  0
    4.8561   -0.4798    0.0000 H   0  0  0  0  0  0  0  0  0  0  0  0
    4.6440    1.5377    0.0000 H   0  0  0  0  0  0  0  0  0  0  0  0
    5.5706    1.0027    0.0000 H   0  0  0  0  0  0  0  0  0  0  0  0
    5.3585   -1.0148    0.0000 H   0  0  0  0  0  0  0  0  0  0  0  0
    6.2851   -0.4798    0.0000 H   0  0  0  0  0  0  0  0  0  0  0  0
    6.9996   -0.0673    0.0000 H   0  0  0  0  0  0  0  0  0  0  0  0
    6.0730    1.5377    0.0000 H   0  0  0  0  0  0  0  0  0  0  0  0
    6.9997    1.0027    0.0000 H   0  0  0  0  0  0  0  0  0  0  0  0
   -3.9295    1.5377    0.0000 H   0  0  0  0  0  0  0  0  0  0  0  0
   -4.8561    1.0027    0.0000 H   0  0  0  0  0  0  0  0  0  0  0  0
  1  2  1  0  0  0  0
  1 14  1  0  0  0  0
  2  3  1  0  0  0  0
  2 22  1  0  0  0  0
  2 23  1  0  0  0  0
  3  4  1  0  0  0  0
  3 24  1  0  0  0  0
  3 25  1  0  0  0  0
  4  5  1  0  0  0  0
  4 26  1  0  0  0  0
  4 27  1  0  0  0  0
  5  6  1  0  0  0  0
  5 28  1  0  0  0  0
  5 29  1  0  0  0  0
  6  7  1  0  0  0  0
  6 30  1  0  0  0  0
  6 31  1  0  0  0  0
  7  8  1  0  0  0  0
  7 32  1  0  0  0  0
  7 33  1  0  0  0  0
  8  9  1  0  0  0  0
  8 34  1  0  0  0  0
  8 35  1  0  0  0  0
  9 10  1  0  0  0  0
  9 36  1  0  0  0  0
  9 37  1  0  0  0  0
 10 11  1  0  0  0  0
 10 38  1  0  0  0  0
 10 39  1  0  0  0  0
 11 12  1  0  0  0  0
 11 40  1  0  0  0  0
 11 41  1  0  0  0  0
 12 13  1  0  0  0  0
 12 42  1  0  0  0  0
 12 43  1  0  0  0  0
 13 44  1  0  0  0  0
 13 45  1  0  0  0  0
 13 46  1  0  0  0  0
 14 15  2  0  0  0  0
 14 16  1  0  0  0  0
 16 17  1  0  0  0  0
 16 47  1  0  0  0  0
 16 48  1  0  0  0  0
 17 18  2  0  0  0  0
 17 19  2  0  0  0  0
 17 20  1  0  0  0  0
M  CHG  2  20  -1  21   1
M  END
>  <DRUGBANK_ID>
DB13157

>  <COMMON_NAME>
Sodium lauryl sulfoacetate

>  <CAS_NUMBER>
1847-58-1

>  <UNII>
D0Y70F2B9J

>  <SYNONYMS>
Lathanol; Lathanol LAL; Sulfoacetic acid dodecyl ester S-sodium salt

$$$$
