
 OpenBabel10282417072D

129134  0  0  1  0  0  0  0  0999 V2000
   -4.2868   -6.6000    0.0000 C   0  0  0  0  0  0  0  0  0  0  0  0
   -3.5724   -6.1875    0.0000 C   0  0  0  0  0  0  0  0  0  0  0  0
   -4.2868   -4.9500    0.0000 C   0  0  0  0  0  0  0  0  0  0  0  0
    1.4289   -4.9500    0.0000 C   0  0  0  0  0  0  0  0  0  0  0  0
   -7.1447   -9.9000    0.0000 C   0  0  0  0  0  0  0  0  0  0  0  0
   -0.0000   -4.1250    0.0000 C   0  0  0  0  0  0  0  0  0  0  0  0
   -8.5737   -6.6000    0.0000 C   0  0  0  0  0  0  0  0  0  0  0  0
   -4.2868   -7.4250    0.0000 C   0  0  2  0  0  0  0  0  0  0  0  0
   -3.5724   -5.3625    0.0000 C   0  0  0  0  0  0  0  0  0  0  0  0
   -2.8579   -6.6000    0.0000 C   0  0  1  0  0  0  0  0  0  0  0  0
    1.4289   -4.1250    0.0000 C   0  0  2  0  0  0  0  0  0  0  0  0
   -7.1447   -9.0750    0.0000 C   0  0  2  0  0  0  0  0  0  0  0  0
   -0.7145   -3.7125    0.0000 C   0  0  2  0  0  0  0  0  0  0  0  0
   -9.2881   -6.1875    0.0000 C   0  0  2  0  0  0  0  0  0  0  0  0
   -3.5724   -7.8375    0.0000 C   0  0  2  0  0  0  0  0  0  0  0  0
   -2.1434   -6.1875    0.0000 C   0  0  1  0  0  0  0  0  0  0  0  0
    2.1434   -3.7125    0.0000 C   0  0  2  0  0  0  0  0  0  0  0  0
   -9.2881   -5.3625    0.0000 C   0  0  2  0  0  0  0  0  0  0  0  0
   -3.5724   -8.6625    0.0000 C   0  0  1  0  0  0  0  0  0  0  0  0
  -10.0026   -4.9500    0.0000 C   0  0  1  0  0  0  0  0  0  0  0  0
    2.1434   -2.8875    0.0000 C   0  0  1  0  0  0  0  0  0  0  0  0
   -2.1434   -5.3625    0.0000 C   0  0  2  0  0  0  0  0  0  0  0  0
   -6.4302   -7.8375    0.0000 C   0  0  2  0  0  0  0  0  0  0  0  0
   -1.4289   -2.4750    0.0000 C   0  0  2  0  0  0  0  0  0  0  0  0
  -10.7171   -5.3625    0.0000 C   0  0  2  0  0  0  0  0  0  0  0  0
   -4.2868   -9.0750    0.0000 C   0  0  2  0  0  0  0  0  0  0  0  0
    1.4289   -2.4750    0.0000 C   0  0  2  0  0  0  0  0  0  0  0  0
   -7.1447   -7.4250    0.0000 C   0  0  2  0  0  0  0  0  0  0  0  0
   -2.1434   -2.8875    0.0000 C   0  0  2  0  0  0  0  0  0  0  0  0
   -2.8579   -4.9500    0.0000 C   0  0  2  0  0  0  0  0  0  0  0  0
   -6.4302   -8.6625    0.0000 C   0  0  2  0  0  0  0  0  0  0  0  0
   -0.7145   -2.8875    0.0000 C   0  0  2  0  0  0  0  0  0  0  0  0
  -10.7171   -6.1875    0.0000 C   0  0  2  0  0  0  0  0  0  0  0  0
   -7.8592   -7.8375    0.0000 C   0  0  1  0  0  0  0  0  0  0  0  0
   -5.0013   -8.6625    0.0000 C   0  0  2  0  0  0  0  0  0  0  0  0
    0.7145   -2.8875    0.0000 C   0  0  2  0  0  0  0  0  0  0  0  0
   -2.1434   -3.7125    0.0000 C   0  0  2  0  0  0  0  0  0  0  0  0
   -2.8579   -7.4250    0.0000 N   0  0  0  0  0  0  0  0  0  0  0  0
   -4.2868   -4.1250    0.0000 O   0  0  0  0  0  0  0  0  0  0  0  0
    2.1434   -5.3625    0.0000 O   0  0  0  0  0  0  0  0  0  0  0  0
   -7.8592  -10.3125    0.0000 O   0  0  0  0  0  0  0  0  0  0  0  0
   -0.0000   -4.9500    0.0000 O   0  0  0  0  0  0  0  0  0  0  0  0
   -1.4289   -6.6000    0.0000 O   0  0  0  0  0  0  0  0  0  0  0  0
    2.8579   -4.1250    0.0000 O   0  0  0  0  0  0  0  0  0  0  0  0
   -8.5737   -4.9500    0.0000 O   0  0  0  0  0  0  0  0  0  0  0  0
   -2.8579   -9.0750    0.0000 O   0  0  0  0  0  0  0  0  0  0  0  0
  -10.0026   -4.1250    0.0000 O   0  0  0  0  0  0  0  0  0  0  0  0
    2.8579   -2.4750    0.0000 O   0  0  0  0  0  0  0  0  0  0  0  0
   -1.4289   -4.9500    0.0000 O   0  0  0  0  0  0  0  0  0  0  0  0
   -5.7158   -7.4250    0.0000 O   0  0  0  0  0  0  0  0  0  0  0  0
   -1.4289   -1.6500    0.0000 O   0  0  0  0  0  0  0  0  0  0  0  0
  -11.4315   -4.9500    0.0000 O   0  0  0  0  0  0  0  0  0  0  0  0
   -4.2868   -9.9000    0.0000 O   0  0  0  0  0  0  0  0  0  0  0  0
    1.4289   -1.6500    0.0000 O   0  0  0  0  0  0  0  0  0  0  0  0
   -7.1447   -6.6000    0.0000 O   0  0  0  0  0  0  0  0  0  0  0  0
   -2.8579   -2.4750    0.0000 O   0  0  0  0  0  0  0  0  0  0  0  0
  -11.4315   -6.6000    0.0000 O   0  0  0  0  0  0  0  0  0  0  0  0
   -8.5737   -7.4250    0.0000 O   0  0  0  0  0  0  0  0  0  0  0  0
   -5.0013   -7.8375    0.0000 O   0  0  0  0  0  0  0  0  0  0  0  0
  -10.0026   -6.6000    0.0000 O   0  0  0  0  0  0  0  0  0  0  0  0
    0.7145   -3.7125    0.0000 O   0  0  0  0  0  0  0  0  0  0  0  0
   -7.8592   -8.6625    0.0000 O   0  0  0  0  0  0  0  0  0  0  0  0
   -1.4289   -4.1250    0.0000 O   0  0  0  0  0  0  0  0  0  0  0  0
   -2.8579   -4.1250    0.0000 O   0  0  0  0  0  0  0  0  0  0  0  0
   -5.7158   -9.0750    0.0000 O   0  0  0  0  0  0  0  0  0  0  0  0
   -0.0000   -2.4750    0.0000 O   0  0  0  0  0  0  0  0  0  0  0  0
   -3.5724   -7.0125    0.0000 H   0  0  0  0  0  0  0  0  0  0  0  0
   -3.3882   -7.2320    0.0000 H   0  0  0  0  0  0  0  0  0  0  0  0
    2.2414   -4.2683    0.0000 H   0  0  0  0  0  0  0  0  0  0  0  0
   -6.3322   -9.2183    0.0000 H   0  0  0  0  0  0  0  0  0  0  0  0
   -0.1842   -3.0805    0.0000 H   0  0  0  0  0  0  0  0  0  0  0  0
   -8.7578   -5.5555    0.0000 H   0  0  0  0  0  0  0  0  0  0  0  0
   -3.8545   -7.0623    0.0000 H   0  0  0  0  0  0  0  0  0  0  0  0
   -2.1434   -7.0125    0.0000 H   0  0  0  0  0  0  0  0  0  0  0  0
    2.4256   -4.4877    0.0000 H   0  0  0  0  0  0  0  0  0  0  0  0
   -8.4757   -5.5058    0.0000 H   0  0  0  0  0  0  0  0  0  0  0  0
   -2.8579   -8.2500    0.0000 H   0  0  0  0  0  0  0  0  0  0  0  0
   -9.2881   -4.5375    0.0000 H   0  0  0  0  0  0  0  0  0  0  0  0
    2.8579   -3.3000    0.0000 H   0  0  0  0  0  0  0  0  0  0  0  0
   -1.4289   -5.7750    0.0000 H   0  0  0  0  0  0  0  0  0  0  0  0
   -6.7124   -7.0623    0.0000 H   0  0  0  0  0  0  0  0  0  0  0  0
   -2.2414   -2.3317    0.0000 H   0  0  0  0  0  0  0  0  0  0  0  0
  -10.7171   -4.5375    0.0000 H   0  0  0  0  0  0  0  0  0  0  0  0
   -3.5724   -9.4875    0.0000 H   0  0  0  0  0  0  0  0  0  0  0  0
    2.1434   -2.0625    0.0000 H   0  0  0  0  0  0  0  0  0  0  0  0
   -6.6144   -6.7930    0.0000 H   0  0  0  0  0  0  0  0  0  0  0  0
   -2.4256   -2.1123    0.0000 H   0  0  0  0  0  0  0  0  0  0  0  0
   -3.5724   -4.5375    0.0000 H   0  0  0  0  0  0  0  0  0  0  0  0
   -6.1481   -9.4377    0.0000 H   0  0  0  0  0  0  0  0  0  0  0  0
    0.0980   -3.0308    0.0000 H   0  0  0  0  0  0  0  0  0  0  0  0
  -11.4315   -5.7750    0.0000 H   0  0  0  0  0  0  0  0  0  0  0  0
   -7.8592   -7.0125    0.0000 H   0  0  0  0  0  0  0  0  0  0  0  0
   -5.0013   -9.4875    0.0000 H   0  0  0  0  0  0  0  0  0  0  0  0
    0.7145   -2.0625    0.0000 H   0  0  0  0  0  0  0  0  0  0  0  0
   -2.8579   -3.3000    0.0000 H   0  0  0  0  0  0  0  0  0  0  0  0
   -3.3602   -6.0650    0.0000 H   0  0  0  0  0  0  0  0  0  0  0  0
   -5.2134   -6.0650    0.0000 H   0  0  0  0  0  0  0  0  0  0  0  0
   -4.2868   -5.5300    0.0000 H   0  0  0  0  0  0  0  0  0  0  0  0
   -4.4661   -6.7035    0.0000 H   0  0  0  0  0  0  0  0  0  0  0  0
   -5.2135   -5.4850    0.0000 H   0  0  0  0  0  0  0  0  0  0  0  0
   -5.2134   -4.4150    0.0000 H   0  0  0  0  0  0  0  0  0  0  0  0
    0.5023   -5.4850    0.0000 H   0  0  0  0  0  0  0  0  0  0  0  0
    1.4289   -6.0200    0.0000 H   0  0  0  0  0  0  0  0  0  0  0  0
   -6.2181  -10.4350    0.0000 H   0  0  0  0  0  0  0  0  0  0  0  0
   -7.1447  -10.9700    0.0000 H   0  0  0  0  0  0  0  0  0  0  0  0
    0.9266   -3.5900    0.0000 H   0  0  0  0  0  0  0  0  0  0  0  0
    0.9266   -4.6600    0.0000 H   0  0  0  0  0  0  0  0  0  0  0  0
   -7.6470   -6.0650    0.0000 H   0  0  0  0  0  0  0  0  0  0  0  0
   -7.6471   -7.1350    0.0000 H   0  0  0  0  0  0  0  0  0  0  0  0
   -1.9746   -7.9350    0.0000 H   0  0  0  0  0  0  0  0  0  0  0  0
   -3.4468   -3.6400    0.0000 H   0  0  0  0  0  0  0  0  0  0  0  0
    2.1434   -6.3325    0.0000 H   0  0  0  0  0  0  0  0  0  0  0  0
   -8.6992   -9.8275    0.0000 H   0  0  0  0  0  0  0  0  0  0  0  0
   -0.8400   -5.4350    0.0000 H   0  0  0  0  0  0  0  0  0  0  0  0
   -1.4289   -7.5700    0.0000 H   0  0  0  0  0  0  0  0  0  0  0  0
    2.8579   -5.0950    0.0000 H   0  0  0  0  0  0  0  0  0  0  0  0
   -7.7336   -5.4350    0.0000 H   0  0  0  0  0  0  0  0  0  0  0  0
   -2.8579  -10.0450    0.0000 H   0  0  0  0  0  0  0  0  0  0  0  0
   -9.1626   -3.6400    0.0000 H   0  0  0  0  0  0  0  0  0  0  0  0
    3.6979   -2.9600    0.0000 H   0  0  0  0  0  0  0  0  0  0  0  0
   -0.5889   -5.4350    0.0000 H   0  0  0  0  0  0  0  0  0  0  0  0
   -4.8757   -7.9100    0.0000 H   0  0  0  0  0  0  0  0  0  0  0  0
   -0.5889   -1.1650    0.0000 H   0  0  0  0  0  0  0  0  0  0  0  0
  -11.4315   -3.9800    0.0000 H   0  0  0  0  0  0  0  0  0  0  0  0
   -5.1268  -10.3850    0.0000 H   0  0  0  0  0  0  0  0  0  0  0  0
    2.2689   -1.1650    0.0000 H   0  0  0  0  0  0  0  0  0  0  0  0
   -6.3047   -6.1150    0.0000 H   0  0  0  0  0  0  0  0  0  0  0  0
   -2.8579   -1.5050    0.0000 H   0  0  0  0  0  0  0  0  0  0  0  0
  -12.2716   -6.1150    0.0000 H   0  0  0  0  0  0  0  0  0  0  0  0
  1 96  1  0  0  0  0
  1 97  1  0  0  0  0
  1 98  1  0  0  0  0
  2 99  1  0  0  0  0
  3100  1  0  0  0  0
  3101  1  0  0  0  0
  4102  1  0  0  0  0
  4103  1  0  0  0  0
  5104  1  0  0  0  0
  5105  1  0  0  0  0
  6106  1  0  0  0  0
  6107  1  0  0  0  0
  7108  1  0  0  0  0
  7109  1  0  0  0  0
  8  1  1  0  0  0  0
  8 67  1  1  0  0  0
  9  2  2  0  0  0  0
  9  3  1  0  0  0  0
 10  2  1  0  0  0  0
 10 38  1  0  0  0  0
 10 68  1  6  0  0  0
 11  4  1  0  0  0  0
 11 69  1  6  0  0  0
 12  5  1  0  0  0  0
 12 70  1  6  0  0  0
 13  6  1  0  0  0  0
 13 71  1  6  0  0  0
 14  7  1  0  0  0  0
 14 72  1  6  0  0  0
 15  8  1  0  0  0  0
 15 38  1  0  0  0  0
 15 73  1  6  0  0  0
 16 10  1  0  0  0  0
 16 43  1  0  0  0  0
 16 74  1  6  0  0  0
 17 11  1  0  0  0  0
 17 44  1  0  0  0  0
 17 75  1  1  0  0  0
 18 14  1  0  0  0  0
 18 45  1  0  0  0  0
 18 76  1  1  0  0  0
 19 15  1  0  0  0  0
 19 46  1  0  0  0  0
 19 77  1  1  0  0  0
 20 18  1  0  0  0  0
 20 47  1  0  0  0  0
 20 78  1  6  0  0  0
 21 17  1  0  0  0  0
 21 48  1  0  0  0  0
 21 79  1  6  0  0  0
 22 16  1  0  0  0  0
 22 49  1  0  0  0  0
 22 80  1  1  0  0  0
 23 50  1  0  0  0  0
 23 81  1  6  0  0  0
 24 51  1  0  0  0  0
 24 82  1  6  0  0  0
 25 20  1  0  0  0  0
 25 52  1  0  0  0  0
 25 83  1  1  0  0  0
 26 19  1  0  0  0  0
 26 53  1  0  0  0  0
 26 84  1  6  0  0  0
 27 21  1  0  0  0  0
 27 54  1  0  0  0  0
 27 85  1  1  0  0  0
 28 23  1  0  0  0  0
 28 55  1  0  0  0  0
 28 86  1  1  0  0  0
 29 24  1  0  0  0  0
 29 56  1  0  0  0  0
 29 87  1  1  0  0  0
 30  9  1  0  0  0  0
 30 22  1  0  0  0  0
 30 64  1  0  0  0  0
 30 88  1  6  0  0  0
 31 12  1  0  0  0  0
 31 23  1  0  0  0  0
 31 65  1  0  0  0  0
 31 89  1  1  0  0  0
 32 13  1  0  0  0  0
 32 24  1  0  0  0  0
 32 66  1  0  0  0  0
 32 90  1  1  0  0  0
 33 25  1  0  0  0  0
 33 57  1  0  0  0  0
 33 91  1  6  0  0  0
 34 28  1  0  0  0  0
 34 58  1  0  0  0  0
 34 92  1  1  0  0  0
 35 26  1  0  0  0  0
 35 65  1  0  0  0  0
 35 93  1  6  0  0  0
 36 27  1  0  0  0  0
 36 66  1  0  0  0  0
 36 94  1  1  0  0  0
 37 29  1  0  0  0  0
 37 64  1  0  0  0  0
 37 95  1  1  0  0  0
 38110  1  0  0  0  0
 39  3  1  0  0  0  0
 39111  1  0  0  0  0
 40  4  1  0  0  0  0
 40112  1  0  0  0  0
 41  5  1  0  0  0  0
 41113  1  0  0  0  0
 42  6  1  0  0  0  0
 42114  1  0  0  0  0
 43115  1  0  0  0  0
 44116  1  0  0  0  0
 45117  1  0  0  0  0
 46118  1  0  0  0  0
 47119  1  0  0  0  0
 48120  1  0  0  0  0
 49121  1  0  0  0  0
 50122  1  0  0  0  0
 51123  1  0  0  0  0
 52124  1  0  0  0  0
 53125  1  0  0  0  0
 54126  1  0  0  0  0
 55127  1  0  0  0  0
 56128  1  0  0  0  0
 57129  1  0  0  0  0
 58  7  1  0  0  0  0
 59  8  1  0  0  0  0
 59 35  1  0  0  0  0
 60 14  1  0  0  0  0
 60 33  1  0  0  0  0
 61 11  1  0  0  0  0
 61 36  1  0  0  0  0
 62 12  1  0  0  0  0
 62 34  1  0  0  0  0
 63 13  1  0  0  0  0
 63 37  1  0  0  0  0
M  END
>  <DRUGBANK_ID>
DB03971

>  <SECONDARY_ACCESSION_NUMBERS>
EXPT00291

>  <COMMON_NAME>
Acarbose Derived Hexasaccharide

$$$$
