
 OpenBabel10282417072D

506540  0  0  1  0  0  0  0  0999 V2000
  -19.7721   12.4321    0.0000 C   0  0  0  0  0  0  0  0  0  0  0  0
  -18.9311   12.3830    0.0000 C   0  0  0  0  0  0  0  0  0  0  0  0
  -18.4507   11.6778    0.0000 C   0  0  0  0  0  0  0  0  0  0  0  0
  -17.6031   11.5749    0.0000 C   0  0  0  0  0  0  0  0  0  0  0  0
  -17.1189   10.8741    0.0000 C   0  0  0  0  0  0  0  0  0  0  0  0
  -16.2696   10.8425    0.0000 C   0  0  0  0  0  0  0  0  0  0  0  0
  -15.8301   10.1181    0.0000 C   0  0  0  0  0  0  0  0  0  0  0  0
  -14.9831   10.1401    0.0000 C   0  0  0  0  0  0  0  0  0  0  0  0
  -14.6285    9.3717    0.0000 C   0  0  0  0  0  0  0  0  0  0  0  0
  -13.7872    9.4521    0.0000 C   0  0  0  0  0  0  0  0  0  0  0  0
  -13.4574    8.6737    0.0000 C   0  0  0  0  0  0  0  0  0  0  0  0
  -12.6307    8.8333    0.0000 C   0  0  0  0  0  0  0  0  0  0  0  0
  -12.2475    8.0846    0.0000 C   0  0  0  0  0  0  0  0  0  0  0  0
  -11.5016    8.4851    0.0000 C   0  0  0  0  0  0  0  0  0  0  0  0
  -10.9035    7.9120    0.0000 C   0  0  0  0  0  0  0  0  0  0  0  0
  -10.1337    8.2647    0.0000 C   0  0  0  0  0  0  0  0  0  0  0  0
   -9.6921    8.9871    0.0000 O   0  0  0  0  0  0  0  0  0  0  0  0
   -9.8764    7.4639    0.0000 N   0  0  0  0  0  0  0  0  0  0  0  0
   -9.0370    7.4894    0.0000 C   0  0  0  0  0  0  0  0  0  0  0  0
   -8.7466    6.6957    0.0000 C   0  0  3  0  0  0  0  0  0  0  0  0
   -9.3123    6.0085    0.0000 O   0  0  0  0  0  0  0  0  0  0  0  0
   -7.9059    6.9427    0.0000 C   0  0  0  0  0  0  0  0  0  0  0  0
   -7.0924    6.6560    0.0000 O   0  0  0  0  0  0  0  0  0  0  0  0
   -6.2275    6.5055    0.0000 P   0  0  3  0  0  0  0  0  0  0  0  0
   -6.4192    5.7147    0.0000 S   0  0  0  0  0  0  0  0  0  0  0  0
   -6.2410    7.3655    0.0000 O   0  0  0  0  0  0  0  0  0  0  0  0
   -5.4976    5.9612    0.0000 O   0  0  0  0  0  0  0  0  0  0  0  0
   -4.9236    5.1531    0.0000 C   0  0  0  0  0  0  0  0  0  0  0  0
   -4.2072    4.3629    0.0000 C   0  0  3  0  0  0  0  0  0  0  0  0
   -3.7223    5.0303    0.0000 O   0  0  0  0  0  0  0  0  0  0  0  0
   -2.9377    4.7754    0.0000 C   0  0  3  0  0  0  0  0  0  0  0  0
   -2.9377    3.9504    0.0000 C   0  0  0  0  0  0  0  0  0  0  0  0
   -3.7223    3.6955    0.0000 C   0  0  3  0  0  0  0  0  0  0  0  0
   -3.0658    3.0858    0.0000 N   0  0  0  0  0  0  0  0  0  0  0  0
   -2.3623    2.5403    0.0000 P   0  0  3  0  0  0  0  0  0  0  0  0
   -3.1101    2.2784    0.0000 S   0  0  0  0  0  0  0  0  0  0  0  0
   -1.5238    2.7454    0.0000 O   0  0  0  0  0  0  0  0  0  0  0  0
   -2.5586    1.6706    0.0000 O   0  0  0  0  0  0  0  0  0  0  0  0
   -3.1997    1.0129    0.0000 C   0  0  0  0  0  0  0  0  0  0  0  0
   -2.5761    0.2869    0.0000 C   0  0  3  0  0  0  0  0  0  0  0  0
   -1.7556    0.3732    0.0000 O   0  0  0  0  0  0  0  0  0  0  0  0
   -1.4201   -0.3805    0.0000 C   0  0  3  0  0  0  0  0  0  0  0  0
   -2.0332   -0.9325    0.0000 C   0  0  0  0  0  0  0  0  0  0  0  0
   -2.7476   -0.5200    0.0000 C   0  0  3  0  0  0  0  0  0  0  0  0
   -3.6572   -0.8826    0.0000 N   0  0  0  0  0  0  0  0  0  0  0  0
   -3.4623   -1.7786    0.0000 P   0  0  3  0  0  0  0  0  0  0  0  0
   -4.3249   -1.8206    0.0000 S   0  0  0  0  0  0  0  0  0  0  0  0
   -2.6371   -2.0627    0.0000 O   0  0  0  0  0  0  0  0  0  0  0  0
   -3.2888   -2.6308    0.0000 O   0  0  0  0  0  0  0  0  0  0  0  0
   -4.0106   -3.0233    0.0000 C   0  0  0  0  0  0  0  0  0  0  0  0
   -4.5137   -3.6526    0.0000 C   0  0  3  0  0  0  0  0  0  0  0  0
   -3.9006   -4.2046    0.0000 O   0  0  0  0  0  0  0  0  0  0  0  0
   -4.2362   -4.9583    0.0000 C   0  0  3  0  0  0  0  0  0  0  0  0
   -5.0566   -4.8721    0.0000 C   0  0  0  0  0  0  0  0  0  0  0  0
   -5.2282   -4.0651    0.0000 C   0  0  3  0  0  0  0  0  0  0  0  0
   -6.0299   -3.8362    0.0000 N   0  0  0  0  0  0  0  0  0  0  0  0
   -6.7153   -4.3238    0.0000 P   0  0  3  0  0  0  0  0  0  0  0  0
   -7.1007   -3.5788    0.0000 S   0  0  0  0  0  0  0  0  0  0  0  0
   -6.4830   -5.1331    0.0000 O   0  0  0  0  0  0  0  0  0  0  0  0
   -7.4639   -4.6986    0.0000 O   0  0  0  0  0  0  0  0  0  0  0  0
   -8.1650   -4.2616    0.0000 C   0  0  0  0  0  0  0  0  0  0  0  0
   -8.7378   -4.8487    0.0000 C   0  0  3  0  0  0  0  0  0  0  0  0
   -8.7378   -5.6737    0.0000 O   0  0  0  0  0  0  0  0  0  0  0  0
   -9.5224   -5.9287    0.0000 C   0  0  3  0  0  0  0  0  0  0  0  0
  -10.0074   -5.2612    0.0000 C   0  0  0  0  0  0  0  0  0  0  0  0
   -9.5224   -4.5938    0.0000 C   0  0  3  0  0  0  0  0  0  0  0  0
   -9.8248   -3.8073    0.0000 N   0  0  0  0  0  0  0  0  0  0  0  0
  -10.6533   -3.6163    0.0000 P   0  0  3  0  0  0  0  0  0  0  0  0
  -10.3866   -2.8164    0.0000 S   0  0  0  0  0  0  0  0  0  0  0  0
  -11.0418   -4.3636    0.0000 O   0  0  0  0  0  0  0  0  0  0  0  0
  -11.4784   -3.4301    0.0000 O   0  0  0  0  0  0  0  0  0  0  0  0
  -11.6371   -2.6139    0.0000 C   0  0  0  0  0  0  0  0  0  0  0  0
  -12.4532   -2.5100    0.0000 C   0  0  3  0  0  0  0  0  0  0  0  0
  -13.0663   -3.0620    0.0000 O   0  0  0  0  0  0  0  0  0  0  0  0
  -13.7808   -2.6495    0.0000 C   0  0  3  0  0  0  0  0  0  0  0  0
  -13.6093   -1.8425    0.0000 C   0  0  0  0  0  0  0  0  0  0  0  0
  -12.7888   -1.7563    0.0000 C   0  0  3  0  0  0  0  0  0  0  0  0
  -12.4131   -1.0158    0.0000 N   0  0  0  0  0  0  0  0  0  0  0  0
  -12.9088   -0.3301    0.0000 P   0  0  3  0  0  0  0  0  0  0  0  0
  -12.1181   -0.0407    0.0000 S   0  0  0  0  0  0  0  0  0  0  0  0
  -13.7460   -0.4699    0.0000 O   0  0  0  0  0  0  0  0  0  0  0  0
  -13.2389    0.4427    0.0000 O   0  0  0  0  0  0  0  0  0  0  0  0
  -12.7658    1.1192    0.0000 C   0  0  0  0  0  0  0  0  0  0  0  0
  -13.2013    1.8160    0.0000 C   0  0  3  0  0  0  0  0  0  0  0  0
  -14.0218    1.9023    0.0000 O   0  0  0  0  0  0  0  0  0  0  0  0
  -14.1933    2.7093    0.0000 C   0  0  3  0  0  0  0  0  0  0  0  0
  -13.4788    3.1218    0.0000 C   0  0  0  0  0  0  0  0  0  0  0  0
  -12.8657    2.5697    0.0000 C   0  0  3  0  0  0  0  0  0  0  0  0
  -12.3057    3.1865    0.0000 N   0  0  0  0  0  0  0  0  0  0  0  0
  -11.9463    3.9542    0.0000 P   0  0  3  0  0  0  0  0  0  0  0  0
  -12.6047    4.5014    0.0000 S   0  0  0  0  0  0  0  0  0  0  0  0
  -11.7542    4.7951    0.0000 O   0  0  0  0  0  0  0  0  0  0  0  0
  -11.2794    3.3791    0.0000 O   0  0  0  0  0  0  0  0  0  0  0  0
  -10.8051    2.6432    0.0000 C   0  0  0  0  0  0  0  0  0  0  0  0
  -10.0631    2.2090    0.0000 C   0  0  3  0  0  0  0  0  0  0  0  0
   -9.8081    1.4244    0.0000 O   0  0  0  0  0  0  0  0  0  0  0  0
   -8.9831    1.4244    0.0000 C   0  0  3  0  0  0  0  0  0  0  0  0
   -8.7282    2.2090    0.0000 C   0  0  0  0  0  0  0  0  0  0  0  0
   -9.3956    2.6939    0.0000 C   0  0  3  0  0  0  0  0  0  0  0  0
   -9.5186    3.5530    0.0000 N   0  0  0  0  0  0  0  0  0  0  0  0
   -9.0226    4.2859    0.0000 P   0  0  3  0  0  0  0  0  0  0  0  0
   -9.4320    5.0579    0.0000 S   0  0  0  0  0  0  0  0  0  0  0  0
   -8.4943    4.9050    0.0000 O   0  0  0  0  0  0  0  0  0  0  0  0
   -8.1850    3.9668    0.0000 O   0  0  0  0  0  0  0  0  0  0  0  0
   -7.3852    3.5975    0.0000 C   0  0  0  0  0  0  0  0  0  0  0  0
   -6.6703    3.0823    0.0000 C   0  0  3  0  0  0  0  0  0  0  0  0
   -6.7566    2.2618    0.0000 O   0  0  0  0  0  0  0  0  0  0  0  0
   -6.0029    1.9263    0.0000 C   0  0  3  0  0  0  0  0  0  0  0  0
   -5.4509    2.5394    0.0000 C   0  0  0  0  0  0  0  0  0  0  0  0
   -5.8634    3.2538    0.0000 C   0  0  3  0  0  0  0  0  0  0  0  0
   -5.4004    4.0890    0.0000 N   0  0  0  0  0  0  0  0  0  0  0  0
   -4.6031    4.6652    0.0000 P   0  0  3  0  0  0  0  0  0  0  0  0
   -3.5766    4.4366    0.0000 S   0  0  0  0  0  0  0  0  0  0  0  0
   -4.7070    3.8098    0.0000 O   0  0  0  0  0  0  0  0  0  0  0  0
   -4.3268    5.6178    0.0000 O   0  0  0  0  0  0  0  0  0  0  0  0
   -3.9511    6.4430    0.0000 C   0  0  0  0  0  0  0  0  0  0  0  0
   -4.4305    7.1144    0.0000 C   0  0  3  0  0  0  0  0  0  0  0  0
   -5.2555    7.1213    0.0000 O   0  0  0  0  0  0  0  0  0  0  0  0
   -5.5039    7.9080    0.0000 C   0  0  3  0  0  0  0  0  0  0  0  0
   -4.8325    8.3874    0.0000 C   0  0  0  0  0  0  0  0  0  0  0  0
   -4.1691    7.8969    0.0000 C   0  0  3  0  0  0  0  0  0  0  0  0
   -3.3823    8.1453    0.0000 N   0  0  0  0  0  0  0  0  0  0  0  0
   -3.2041    8.9509    0.0000 P   0  0  3  0  0  0  0  0  0  0  0  0
   -2.3986    8.7727    0.0000 S   0  0  0  0  0  0  0  0  0  0  0  0
   -4.0097    9.1291    0.0000 O   0  0  0  0  0  0  0  0  0  0  0  0
   -3.0259    9.7564    0.0000 O   0  0  0  0  0  0  0  0  0  0  0  0
   -3.6344   10.3135    0.0000 C   0  0  0  0  0  0  0  0  0  0  0  0
   -4.4211   10.0651    0.0000 C   0  0  3  0  0  0  0  0  0  0  0  0
   -4.6826    9.2826    0.0000 O   0  0  0  0  0  0  0  0  0  0  0  0
   -5.5075    9.2894    0.0000 C   0  0  3  0  0  0  0  0  0  0  0  0
   -5.7560   10.0761    0.0000 C   0  0  0  0  0  0  0  0  0  0  0  0
   -5.0845   10.5555    0.0000 C   0  0  3  0  0  0  0  0  0  0  0  0
   -5.0777   11.3805    0.0000 N   0  0  0  0  0  0  0  0  0  0  0  0
   -5.7887   11.7989    0.0000 P   0  0  3  0  0  0  0  0  0  0  0  0
   -5.3703   12.5099    0.0000 S   0  0  0  0  0  0  0  0  0  0  0  0
   -6.2071   11.0879    0.0000 O   0  0  0  0  0  0  0  0  0  0  0  0
   -6.4997   12.2173    0.0000 O   0  0  0  0  0  0  0  0  0  0  0  0
   -6.4929   13.0423    0.0000 C   0  0  0  0  0  0  0  0  0  0  0  0
   -7.2039   13.4607    0.0000 C   0  0  3  0  0  0  0  0  0  0  0  0
   -7.9603   13.1314    0.0000 O   0  0  0  0  0  0  0  0  0  0  0  0
   -8.5073   13.7490    0.0000 C   0  0  3  0  0  0  0  0  0  0  0  0
   -8.0889   14.4601    0.0000 C   0  0  0  0  0  0  0  0  0  0  0  0
   -7.2833   14.2819    0.0000 C   0  0  3  0  0  0  0  0  0  0  0  0
   -6.6657   14.8288    0.0000 N   0  0  0  0  0  0  0  0  0  0  0  0
   -6.8305   15.6371    0.0000 P   0  0  3  0  0  0  0  0  0  0  0  0
   -6.0221   15.8020    0.0000 S   0  0  0  0  0  0  0  0  0  0  0  0
   -7.6389   15.4723    0.0000 O   0  0  0  0  0  0  0  0  0  0  0  0
   -6.9953   16.4455    0.0000 O   0  0  0  0  0  0  0  0  0  0  0  0
   -6.3777   16.9924    0.0000 C   0  0  0  0  0  0  0  0  0  0  0  0
   -6.5425   17.8008    0.0000 C   0  0  3  0  0  0  0  0  0  0  0  0
   -7.2934   18.1426    0.0000 O   0  0  0  0  0  0  0  0  0  0  0  0
   -7.2003   18.9623    0.0000 C   0  0  3  0  0  0  0  0  0  0  0  0
   -6.3920   19.1272    0.0000 C   0  0  0  0  0  0  0  0  0  0  0  0
   -5.9854   18.4093    0.0000 C   0  0  3  0  0  0  0  0  0  0  0  0
   -5.1657   18.3163    0.0000 N   0  0  0  0  0  0  0  0  0  0  0  0
   -4.6752   18.9797    0.0000 P   0  0  3  0  0  0  0  0  0  0  0  0
   -4.0118   18.4892    0.0000 S   0  0  0  0  0  0  0  0  0  0  0  0
   -5.3386   19.4701    0.0000 O   0  0  0  0  0  0  0  0  0  0  0  0
   -4.1848   19.6431    0.0000 O   0  0  0  0  0  0  0  0  0  0  0  0
   -4.5141   20.3995    0.0000 C   0  0  0  0  0  0  0  0  0  0  0  0
   -4.0236   21.0629    0.0000 C   0  0  3  0  0  0  0  0  0  0  0  0
   -4.2721   21.8496    0.0000 O   0  0  0  0  0  0  0  0  0  0  0  0
   -3.6006   22.3290    0.0000 C   0  0  3  0  0  0  0  0  0  0  0  0
   -2.9372   21.8385    0.0000 C   0  0  0  0  0  0  0  0  0  0  0  0
   -3.1987   21.0560    0.0000 C   0  0  3  0  0  0  0  0  0  0  0  0
   -2.7193   20.3846    0.0000 N   0  0  0  0  0  0  0  0  0  0  0  0
   -3.5938   23.1539    0.0000 N   0  0  0  0  0  0  0  0  0  0  0  0
   -2.9224   23.6333    0.0000 C   0  0  0  0  0  0  0  0  0  0  0  0
   -3.1708   24.4200    0.0000 N   0  0  0  0  0  0  0  0  0  0  0  0
   -3.9957   24.4269    0.0000 C   0  0  0  0  0  0  0  0  0  0  0  0
   -4.2572   23.6444    0.0000 C   0  0  0  0  0  0  0  0  0  0  0  0
   -5.0656   23.4795    0.0000 N   0  0  0  0  0  0  0  0  0  0  0  0
   -5.6125   24.0972    0.0000 C   0  0  0  0  0  0  0  0  0  0  0  0
   -5.3510   24.8797    0.0000 N   0  0  0  0  0  0  0  0  0  0  0  0
   -4.5427   25.0445    0.0000 C   0  0  0  0  0  0  0  0  0  0  0  0
   -4.2812   25.8270    0.0000 N   0  0  0  0  0  0  0  0  0  0  0  0
   -7.8088   19.5194    0.0000 N   0  0  0  0  0  0  0  0  0  0  0  0
   -7.7158   20.3392    0.0000 C   0  0  0  0  0  0  0  0  0  0  0  0
   -8.4667   20.6810    0.0000 N   0  0  0  0  0  0  0  0  0  0  0  0
   -9.0238   20.0725    0.0000 C   0  0  0  0  0  0  0  0  0  0  0  0
   -8.6172   19.3546    0.0000 C   0  0  0  0  0  0  0  0  0  0  0  0
   -9.0356   18.6436    0.0000 N   0  0  0  0  0  0  0  0  0  0  0  0
   -9.8606   18.6504    0.0000 C   0  0  0  0  0  0  0  0  0  0  0  0
  -10.2671   19.3683    0.0000 N   0  0  0  0  0  0  0  0  0  0  0  0
   -9.8487   20.0793    0.0000 C   0  0  0  0  0  0  0  0  0  0  0  0
  -10.2553   20.7972    0.0000 N   0  0  0  0  0  0  0  0  0  0  0  0
   -9.3284   13.6696    0.0000 N   0  0  0  0  0  0  0  0  0  0  0  0
   -9.6702   12.9187    0.0000 C   0  0  0  0  0  0  0  0  0  0  0  0
  -10.4914   12.8393    0.0000 C   0  0  0  0  0  0  0  0  0  0  0  0
  -10.9708   13.5108    0.0000 C   0  0  0  0  0  0  0  0  0  0  0  0
  -11.7919   13.4313    0.0000 N   0  0  0  0  0  0  0  0  0  0  0  0
  -10.6290   14.2616    0.0000 N   0  0  0  0  0  0  0  0  0  0  0  0
   -9.8078   14.3410    0.0000 C   0  0  0  0  0  0  0  0  0  0  0  0
   -9.4660   15.0919    0.0000 O   0  0  0  0  0  0  0  0  0  0  0  0
   -5.9980    8.6260    0.0000 N   0  0  0  0  0  0  0  0  0  0  0  0
   -6.8229    8.6329    0.0000 C   0  0  0  0  0  0  0  0  0  0  0  0
   -7.0844    7.8504    0.0000 N   0  0  0  0  0  0  0  0  0  0  0  0
   -6.4210    7.3600    0.0000 C   0  0  0  0  0  0  0  0  0  0  0  0
   -5.7496    7.8393    0.0000 C   0  0  0  0  0  0  0  0  0  0  0  0
   -4.9987    7.4975    0.0000 N   0  0  0  0  0  0  0  0  0  0  0  0
   -4.9193    6.6764    0.0000 C   0  0  0  0  0  0  0  0  0  0  0  0
   -5.5907    6.1970    0.0000 N   0  0  0  0  0  0  0  0  0  0  0  0
   -6.3416    6.5388    0.0000 C   0  0  0  0  0  0  0  0  0  0  0  0
   -7.0130    6.0594    0.0000 N   0  0  0  0  0  0  0  0  0  0  0  0
   -6.2864    8.1694    0.0000 N   0  0  0  0  0  0  0  0  0  0  0  0
   -6.5348    8.9561    0.0000 C   0  0  0  0  0  0  0  0  0  0  0  0
   -7.3598    8.9630    0.0000 N   0  0  0  0  0  0  0  0  0  0  0  0
   -7.6212    8.1805    0.0000 C   0  0  0  0  0  0  0  0  0  0  0  0
   -6.9578    7.6901    0.0000 C   0  0  0  0  0  0  0  0  0  0  0  0
   -7.0508    6.8703    0.0000 N   0  0  0  0  0  0  0  0  0  0  0  0
   -7.8073    6.5410    0.0000 C   0  0  0  0  0  0  0  0  0  0  0  0
   -7.9003    5.7213    0.0000 N   0  0  0  0  0  0  0  0  0  0  0  0
   -8.4707    7.0315    0.0000 N   0  0  0  0  0  0  0  0  0  0  0  0
   -8.3776    7.8512    0.0000 C   0  0  0  0  0  0  0  0  0  0  0  0
   -9.0410    8.3416    0.0000 O   0  0  0  0  0  0  0  0  0  0  0  0
   -5.8314    1.1193    0.0000 N   0  0  0  0  0  0  0  0  0  0  0  0
   -6.3834    0.5062    0.0000 C   0  0  0  0  0  0  0  0  0  0  0  0
   -5.9709   -0.2083    0.0000 N   0  0  0  0  0  0  0  0  0  0  0  0
   -5.1639   -0.0367    0.0000 C   0  0  0  0  0  0  0  0  0  0  0  0
   -5.0777    0.7837    0.0000 C   0  0  0  0  0  0  0  0  0  0  0  0
   -4.3240    1.1193    0.0000 N   0  0  0  0  0  0  0  0  0  0  0  0
   -3.6566    0.6344    0.0000 C   0  0  0  0  0  0  0  0  0  0  0  0
   -3.7428   -0.1861    0.0000 N   0  0  0  0  0  0  0  0  0  0  0  0
   -4.4965   -0.5217    0.0000 C   0  0  0  0  0  0  0  0  0  0  0  0
   -4.8259   -1.3090    0.0000 N   0  0  0  0  0  0  0  0  0  0  0  0
   -8.4982    0.7570    0.0000 N   0  0  0  0  0  0  0  0  0  0  0  0
   -7.6777    0.8432    0.0000 C   0  0  0  0  0  0  0  0  0  0  0  0
   -7.1928    0.1758    0.0000 C   0  0  0  0  0  0  0  0  0  0  0  0
   -6.7111   -0.4767    0.0000 C   0  0  0  0  0  0  0  0  0  0  0  0
   -7.5284   -0.5779    0.0000 C   0  0  0  0  0  0  0  0  0  0  0  0
   -7.8424   -1.3494    0.0000 O   0  0  0  0  0  0  0  0  0  0  0  0
   -8.3488   -0.6642    0.0000 N   0  0  0  0  0  0  0  0  0  0  0  0
   -8.8338    0.0033    0.0000 C   0  0  0  0  0  0  0  0  0  0  0  0
   -9.6489   -0.1748    0.0000 O   0  0  0  0  0  0  0  0  0  0  0  0
  -14.9470    3.0448    0.0000 N   0  0  0  0  0  0  0  0  0  0  0  0
  -15.6144    2.5599    0.0000 C   0  0  0  0  0  0  0  0  0  0  0  0
  -16.3681    2.8954    0.0000 C   0  0  0  0  0  0  0  0  0  0  0  0
  -17.1412    2.5485    0.0000 C   0  0  0  0  0  0  0  0  0  0  0  0
  -16.4543    3.7159    0.0000 C   0  0  0  0  0  0  0  0  0  0  0  0
  -17.1785    4.1579    0.0000 O   0  0  0  0  0  0  0  0  0  0  0  0
  -15.7869    4.2008    0.0000 N   0  0  0  0  0  0  0  0  0  0  0  0
  -15.0332    3.8653    0.0000 C   0  0  0  0  0  0  0  0  0  0  0  0
  -14.7388    4.6713    0.0000 O   0  0  0  0  0  0  0  0  0  0  0  0
  -14.5345   -2.9851    0.0000 N   0  0  0  0  0  0  0  0  0  0  0  0
  -14.7060   -3.7920    0.0000 C   0  0  0  0  0  0  0  0  0  0  0  0
  -15.5265   -3.8783    0.0000 N   0  0  0  0  0  0  0  0  0  0  0  0
  -15.8620   -3.1246    0.0000 C   0  0  0  0  0  0  0  0  0  0  0  0
  -15.2490   -2.5726    0.0000 C   0  0  0  0  0  0  0  0  0  0  0  0
  -15.4205   -1.7656    0.0000 N   0  0  0  0  0  0  0  0  0  0  0  0
  -16.2051   -1.5107    0.0000 C   0  0  0  0  0  0  0  0  0  0  0  0
  -16.7225   -0.8326    0.0000 N   0  0  0  0  0  0  0  0  0  0  0  0
  -16.8182   -2.0627    0.0000 N   0  0  0  0  0  0  0  0  0  0  0  0
  -16.6467   -2.8697    0.0000 C   0  0  0  0  0  0  0  0  0  0  0  0
  -17.3040   -3.4169    0.0000 O   0  0  0  0  0  0  0  0  0  0  0  0
   -9.7774   -6.7133    0.0000 N   0  0  0  0  0  0  0  0  0  0  0  0
   -9.2925   -7.3807    0.0000 C   0  0  0  0  0  0  0  0  0  0  0  0
   -9.7774   -8.0482    0.0000 N   0  0  0  0  0  0  0  0  0  0  0  0
  -10.5620   -7.7932    0.0000 C   0  0  0  0  0  0  0  0  0  0  0  0
  -10.5620   -6.9682    0.0000 C   0  0  0  0  0  0  0  0  0  0  0  0
  -11.2765   -6.5557    0.0000 N   0  0  0  0  0  0  0  0  0  0  0  0
  -11.9910   -6.9682    0.0000 C   0  0  0  0  0  0  0  0  0  0  0  0
  -12.8369   -6.8569    0.0000 N   0  0  0  0  0  0  0  0  0  0  0  0
  -11.9910   -7.7932    0.0000 N   0  0  0  0  0  0  0  0  0  0  0  0
  -11.2765   -8.2057    0.0000 C   0  0  0  0  0  0  0  0  0  0  0  0
  -11.3288   -9.0591    0.0000 O   0  0  0  0  0  0  0  0  0  0  0  0
   -3.8237   -5.6728    0.0000 N   0  0  0  0  0  0  0  0  0  0  0  0
   -3.0032   -5.7590    0.0000 C   0  0  0  0  0  0  0  0  0  0  0  0
   -2.8316   -6.5660    0.0000 N   0  0  0  0  0  0  0  0  0  0  0  0
   -3.5461   -6.9785    0.0000 C   0  0  0  0  0  0  0  0  0  0  0  0
   -4.1592   -6.4264    0.0000 C   0  0  0  0  0  0  0  0  0  0  0  0
   -4.9438   -6.6814    0.0000 N   0  0  0  0  0  0  0  0  0  0  0  0
   -5.1154   -7.4884    0.0000 C   0  0  0  0  0  0  0  0  0  0  0  0
   -5.7495   -8.0603    0.0000 N   0  0  0  0  0  0  0  0  0  0  0  0
   -4.5023   -8.0404    0.0000 N   0  0  0  0  0  0  0  0  0  0  0  0
   -3.7176   -7.7855    0.0000 C   0  0  0  0  0  0  0  0  0  0  0  0
   -3.0965   -8.4131    0.0000 O   0  0  0  0  0  0  0  0  0  0  0  0
   -0.6131   -0.5520    0.0000 N   0  0  0  0  0  0  0  0  0  0  0  0
   -0.2775   -1.3057    0.0000 C   0  0  0  0  0  0  0  0  0  0  0  0
    0.5429   -1.2195    0.0000 N   0  0  0  0  0  0  0  0  0  0  0  0
    0.7145   -0.4125    0.0000 C   0  0  0  0  0  0  0  0  0  0  0  0
    0.0000   -0.0000    0.0000 C   0  0  0  0  0  0  0  0  0  0  0  0
    0.0000    0.8250    0.0000 N   0  0  0  0  0  0  0  0  0  0  0  0
    0.7145    1.2375    0.0000 C   0  0  0  0  0  0  0  0  0  0  0  0
    1.4289    0.8250    0.0000 N   0  0  0  0  0  0  0  0  0  0  0  0
    1.4289    0.0000    0.0000 C   0  0  0  0  0  0  0  0  0  0  0  0
    2.2243   -0.3832    0.0000 N   0  0  0  0  0  0  0  0  0  0  0  0
   -2.2703    5.2603    0.0000 N   0  0  0  0  0  0  0  0  0  0  0  0
   -1.5166    4.9248    0.0000 C   0  0  0  0  0  0  0  0  0  0  0  0
   -0.8492    5.4097    0.0000 C   0  0  0  0  0  0  0  0  0  0  0  0
   -0.0282    5.1576    0.0000 C   0  0  0  0  0  0  0  0  0  0  0  0
   -0.9354    6.2302    0.0000 C   0  0  0  0  0  0  0  0  0  0  0  0
   -0.2699    6.7626    0.0000 O   0  0  0  0  0  0  0  0  0  0  0  0
   -1.6891    6.5657    0.0000 N   0  0  0  0  0  0  0  0  0  0  0  0
   -2.3565    6.0808    0.0000 C   0  0  0  0  0  0  0  0  0  0  0  0
   -2.6342    6.9019    0.0000 O   0  0  0  0  0  0  0  0  0  0  0  0
  -20.2522   13.3884    0.0000 H   0  0  0  0  0  0  0  0  0  0  0  0
  -20.3602   11.5382    0.0000 H   0  0  0  0  0  0  0  0  0  0  0  0
  -20.8403   12.4945    0.0000 H   0  0  0  0  0  0  0  0  0  0  0  0
  -18.4036   13.3139    0.0000 H   0  0  0  0  0  0  0  0  0  0  0  0
  -17.8620   12.4271    0.0000 H   0  0  0  0  0  0  0  0  0  0  0  0
  -19.0071   10.7638    0.0000 H   0  0  0  0  0  0  0  0  0  0  0  0
  -17.9838   10.7151    0.0000 H   0  0  0  0  0  0  0  0  0  0  0  0
  -17.0498   12.4907    0.0000 H   0  0  0  0  0  0  0  0  0  0  0  0
  -16.5336   11.6076    0.0000 H   0  0  0  0  0  0  0  0  0  0  0  0
  -17.6335    9.9360    0.0000 H   0  0  0  0  0  0  0  0  0  0  0  0
  -16.5910    9.9434    0.0000 H   0  0  0  0  0  0  0  0  0  0  0  0
  -15.7275   11.7650    0.0000 H   0  0  0  0  0  0  0  0  0  0  0  0
  -15.1996   10.8500    0.0000 H   0  0  0  0  0  0  0  0  0  0  0  0
  -16.3428    9.1790    0.0000 H   0  0  0  0  0  0  0  0  0  0  0  0
  -15.2722    9.2051    0.0000 H   0  0  0  0  0  0  0  0  0  0  0  0
  -14.4181   11.0488    0.0000 H   0  0  0  0  0  0  0  0  0  0  0  0
  -13.9152   10.0739    0.0000 H   0  0  0  0  0  0  0  0  0  0  0  0
  -15.1616    8.4440    0.0000 H   0  0  0  0  0  0  0  0  0  0  0  0
  -14.0491    8.4722    0.0000 H   0  0  0  0  0  0  0  0  0  0  0  0
  -13.2395   10.3713    0.0000 H   0  0  0  0  0  0  0  0  0  0  0  0
  -12.7197    9.3791    0.0000 H   0  0  0  0  0  0  0  0  0  0  0  0
  -13.9607    7.7294    0.0000 H   0  0  0  0  0  0  0  0  0  0  0  0
  -12.8219    7.8129    0.0000 H   0  0  0  0  0  0  0  0  0  0  0  0
  -12.1619    9.7951    0.0000 H   0  0  0  0  0  0  0  0  0  0  0  0
  -11.5608    8.8438    0.0000 H   0  0  0  0  0  0  0  0  0  0  0  0
  -12.5663    7.0632    0.0000 H   0  0  0  0  0  0  0  0  0  0  0  0
  -11.4224    7.4033    0.0000 H   0  0  0  0  0  0  0  0  0  0  0  0
  -11.3569    9.5453    0.0000 H   0  0  0  0  0  0  0  0  0  0  0  0
  -10.4913    8.8374    0.0000 H   0  0  0  0  0  0  0  0  0  0  0  0
  -11.0816    6.8569    0.0000 H   0  0  0  0  0  0  0  0  0  0  0  0
  -10.0544    7.2609    0.0000 H   0  0  0  0  0  0  0  0  0  0  0  0
  -10.4442    6.6597    0.0000 H   0  0  0  0  0  0  0  0  0  0  0  0
   -8.4374    8.3756    0.0000 H   0  0  0  0  0  0  0  0  0  0  0  0
   -7.9750    7.3591    0.0000 H   0  0  0  0  0  0  0  0  0  0  0  0
   -9.8014    6.8757    0.0000 H   0  0  0  0  0  0  0  0  0  0  0  0
  -10.2691    6.1679    0.0000 H   0  0  0  0  0  0  0  0  0  0  0  0
   -7.8775    8.0123    0.0000 H   0  0  0  0  0  0  0  0  0  0  0  0
   -7.0244    7.5493    0.0000 H   0  0  0  0  0  0  0  0  0  0  0  0
   -7.7240    5.3313    0.0000 H   0  0  0  0  0  0  0  0  0  0  0  0
   -5.7576    4.4828    0.0000 H   0  0  0  0  0  0  0  0  0  0  0  0
   -5.0077    4.0864    0.0000 H   0  0  0  0  0  0  0  0  0  0  0  0
   -4.2650    5.4313    0.0000 H   0  0  0  0  0  0  0  0  0  0  0  0
   -3.8033    4.1465    0.0000 H   0  0  0  0  0  0  0  0  0  0  0  0
   -2.0721    3.3215    0.0000 H   0  0  0  0  0  0  0  0  0  0  0  0
   -3.1051    2.8936    0.0000 H   0  0  0  0  0  0  0  0  0  0  0  0
   -3.3916    4.7131    0.0000 H   0  0  0  0  0  0  0  0  0  0  0  0
   -3.7260    2.3083    0.0000 H   0  0  0  0  0  0  0  0  0  0  0  0
   -4.1412    3.1652    0.0000 H   0  0  0  0  0  0  0  0  0  0  0  0
   -4.2692    1.0466    0.0000 H   0  0  0  0  0  0  0  0  0  0  0  0
   -3.6615    0.0477    0.0000 H   0  0  0  0  0  0  0  0  0  0  0  0
   -2.1810    1.2813    0.0000 H   0  0  0  0  0  0  0  0  0  0  0  0
   -2.4667   -0.1580    0.0000 H   0  0  0  0  0  0  0  0  0  0  0  0
   -1.9214   -1.9966    0.0000 H   0  0  0  0  0  0  0  0  0  0  0  0
   -2.9306   -1.5152    0.0000 H   0  0  0  0  0  0  0  0  0  0  0  0
   -1.7701   -0.0848    0.0000 H   0  0  0  0  0  0  0  0  0  0  0  0
   -4.5578   -0.4038    0.0000 H   0  0  0  0  0  0  0  0  0  0  0  0
   -5.0614   -0.6773    0.0000 H   0  0  0  0  0  0  0  0  0  0  0  0
   -4.6976   -2.2030    0.0000 H   0  0  0  0  0  0  0  0  0  0  0  0
   -5.0805   -3.0355    0.0000 H   0  0  0  0  0  0  0  0  0  0  0  0
   -3.4473   -3.5653    0.0000 H   0  0  0  0  0  0  0  0  0  0  0  0
   -4.7712   -4.0317    0.0000 H   0  0  0  0  0  0  0  0  0  0  0  0
   -5.7725   -5.6673    0.0000 H   0  0  0  0  0  0  0  0  0  0  0  0
   -6.0902   -4.5952    0.0000 H   0  0  0  0  0  0  0  0  0  0  0  0
   -4.2507   -4.5003    0.0000 H   0  0  0  0  0  0  0  0  0  0  0  0
   -6.2026   -2.8309    0.0000 H   0  0  0  0  0  0  0  0  0  0  0  0
   -6.3670   -2.4337    0.0000 H   0  0  0  0  0  0  0  0  0  0  0  0
   -8.2933   -3.1993    0.0000 H   0  0  0  0  0  0  0  0  0  0  0  0
   -9.1785   -3.9185    0.0000 H   0  0  0  0  0  0  0  0  0  0  0  0
   -7.7467   -5.2521    0.0000 H   0  0  0  0  0  0  0  0  0  0  0  0
   -9.1918   -4.9111    0.0000 H   0  0  0  0  0  0  0  0  0  0  0  0
  -11.0774   -5.2612    0.0000 H   0  0  0  0  0  0  0  0  0  0  0  0
  -10.4931   -4.3078    0.0000 H   0  0  0  0  0  0  0  0  0  0  0  0
   -9.1918   -5.6114    0.0000 H   0  0  0  0  0  0  0  0  0  0  0  0
   -9.1560   -3.0372    0.0000 H   0  0  0  0  0  0  0  0  0  0  0  0
   -9.0542   -2.5438    0.0000 H   0  0  0  0  0  0  0  0  0  0  0  0
  -10.9056   -1.8330    0.0000 H   0  0  0  0  0  0  0  0  0  0  0  0
  -11.9997   -1.6072    0.0000 H   0  0  0  0  0  0  0  0  0  0  0  0
  -12.1337   -3.5312    0.0000 H   0  0  0  0  0  0  0  0  0  0  0  0
  -12.8033   -2.2143    0.0000 H   0  0  0  0  0  0  0  0  0  0  0  0
  -14.3253   -1.0473    0.0000 H   0  0  0  0  0  0  0  0  0  0  0  0
  -13.2258   -0.8436    0.0000 H   0  0  0  0  0  0  0  0  0  0  0  0
  -13.3238   -2.6829    0.0000 H   0  0  0  0  0  0  0  0  0  0  0  0
  -11.3962   -0.9361    0.0000 H   0  0  0  0  0  0  0  0  0  0  0  0
  -11.0747   -0.9130    0.0000 H   0  0  0  0  0  0  0  0  0  0  0  0
  -11.6962    1.0916    0.0000 H   0  0  0  0  0  0  0  0  0  0  0  0
  -12.2350    2.0483    0.0000 H   0  0  0  0  0  0  0  0  0  0  0  0
  -13.7683    0.9086    0.0000 H   0  0  0  0  0  0  0  0  0  0  0  0
  -13.2158    2.2741    0.0000 H   0  0  0  0  0  0  0  0  0  0  0  0
  -13.3669    4.1859    0.0000 H   0  0  0  0  0  0  0  0  0  0  0  0
  -12.4799    3.5052    0.0000 H   0  0  0  0  0  0  0  0  0  0  0  0
  -13.9123    2.3473    0.0000 H   0  0  0  0  0  0  0  0  0  0  0  0
  -11.4567    2.6211    0.0000 H   0  0  0  0  0  0  0  0  0  0  0  0
  -12.3748    5.8418    0.0000 H   0  0  0  0  0  0  0  0  0  0  0  0
  -11.5452    1.8705    0.0000 H   0  0  0  0  0  0  0  0  0  0  0  0
  -10.6571    1.5835    0.0000 H   0  0  0  0  0  0  0  0  0  0  0  0
  -10.8966    1.5380    0.0000 H   0  0  0  0  0  0  0  0  0  0  0  0
   -9.6120    2.2900    0.0000 H   0  0  0  0  0  0  0  0  0  0  0  0
   -7.7106    2.5397    0.0000 H   0  0  0  0  0  0  0  0  0  0  0  0
   -8.5608    3.2658    0.0000 H   0  0  0  0  0  0  0  0  0  0  0  0
   -9.3956    1.6239    0.0000 H   0  0  0  0  0  0  0  0  0  0  0  0
  -10.5126    3.7819    0.0000 H   0  0  0  0  0  0  0  0  0  0  0  0
   -8.7101    6.2105    0.0000 H   0  0  0  0  0  0  0  0  0  0  0  0
   -6.8456    4.5215    0.0000 H   0  0  0  0  0  0  0  0  0  0  0  0
   -6.3385    3.8194    0.0000 H   0  0  0  0  0  0  0  0  0  0  0  0
   -7.6470    2.6452    0.0000 H   0  0  0  0  0  0  0  0  0  0  0  0
   -6.2254    2.9729    0.0000 H   0  0  0  0  0  0  0  0  0  0  0  0
   -4.3868    2.4276    0.0000 H   0  0  0  0  0  0  0  0  0  0  0  0
   -4.8682    3.4368    0.0000 H   0  0  0  0  0  0  0  0  0  0  0  0
   -6.2986    2.2763    0.0000 H   0  0  0  0  0  0  0  0  0  0  0  0
   -6.1635    4.7659    0.0000 H   0  0  0  0  0  0  0  0  0  0  0  0
   -3.1689    3.1392    0.0000 H   0  0  0  0  0  0  0  0  0  0  0  0
   -2.8861    6.5460    0.0000 H   0  0  0  0  0  0  0  0  0  0  0  0
   -3.5078    7.4169    0.0000 H   0  0  0  0  0  0  0  0  0  0  0  0
   -4.9242    6.1651    0.0000 H   0  0  0  0  0  0  0  0  0  0  0  0
   -4.4890    7.5689    0.0000 H   0  0  0  0  0  0  0  0  0  0  0  0
   -4.8236    9.4574    0.0000 H   0  0  0  0  0  0  0  0  0  0  0  0
   -3.8751    8.8652    0.0000 H   0  0  0  0  0  0  0  0  0  0  0  0
   -5.1894    7.5747    0.0000 H   0  0  0  0  0  0  0  0  0  0  0  0
   -2.6300    7.4565    0.0000 H   0  0  0  0  0  0  0  0  0  0  0  0
   -1.9891    7.4758    0.0000 H   0  0  0  0  0  0  0  0  0  0  0  0
   -3.4033   11.3582    0.0000 H   0  0  0  0  0  0  0  0  0  0  0  0
   -4.4236   11.0361    0.0000 H   0  0  0  0  0  0  0  0  0  0  0  0
   -3.6708    9.3022    0.0000 H   0  0  0  0  0  0  0  0  0  0  0  0
   -4.8715   10.1498    0.0000 H   0  0  0  0  0  0  0  0  0  0  0  0
   -6.7709   10.4151    0.0000 H   0  0  0  0  0  0  0  0  0  0  0  0
   -5.9146   11.1343    0.0000 H   0  0  0  0  0  0  0  0  0  0  0  0
   -5.0934    9.4855    0.0000 H   0  0  0  0  0  0  0  0  0  0  0  0
   -4.1902   11.8832    0.0000 H   0  0  0  0  0  0  0  0  0  0  0  0
   -4.0103   12.4986    0.0000 H   0  0  0  0  0  0  0  0  0  0  0  0
   -5.5619   13.5696    0.0000 H   0  0  0  0  0  0  0  0  0  0  0  0
   -6.4840   14.1123    0.0000 H   0  0  0  0  0  0  0  0  0  0  0  0
   -7.2688   12.3927    0.0000 H   0  0  0  0  0  0  0  0  0  0  0  0
   -7.4423   13.8521    0.0000 H   0  0  0  0  0  0  0  0  0  0  0  0
   -8.5160   15.4411    0.0000 H   0  0  0  0  0  0  0  0  0  0  0  0
   -7.4087   15.2861    0.0000 H   0  0  0  0  0  0  0  0  0  0  0  0
   -8.0844   13.5725    0.0000 H   0  0  0  0  0  0  0  0  0  0  0  0
   -5.6983   14.5056    0.0000 H   0  0  0  0  0  0  0  0  0  0  0  0
   -5.1204   14.7839    0.0000 H   0  0  0  0  0  0  0  0  0  0  0  0
   -5.3629   16.6533    0.0000 H   0  0  0  0  0  0  0  0  0  0  0  0
   -5.5766   17.7017    0.0000 H   0  0  0  0  0  0  0  0  0  0  0  0
   -7.3796   17.1344    0.0000 H   0  0  0  0  0  0  0  0  0  0  0  0
   -6.4111   18.2398    0.0000 H   0  0  0  0  0  0  0  0  0  0  0  0
   -5.9488   20.1011    0.0000 H   0  0  0  0  0  0  0  0  0  0  0  0
   -5.3230   19.1744    0.0000 H   0  0  0  0  0  0  0  0  0  0  0  0
   -7.0486   18.5300    0.0000 H   0  0  0  0  0  0  0  0  0  0  0  0
   -4.7586   17.3811    0.0000 H   0  0  0  0  0  0  0  0  0  0  0  0
   -4.1652   17.1379    0.0000 H   0  0  0  0  0  0  0  0  0  0  0  0
   -5.5773   20.5202    0.0000 H   0  0  0  0  0  0  0  0  0  0  0  0
   -4.9412   21.3806    0.0000 H   0  0  0  0  0  0  0  0  0  0  0  0
   -5.0790   21.2390    0.0000 H   0  0  0  0  0  0  0  0  0  0  0  0
   -3.6095   21.2590    0.0000 H   0  0  0  0  0  0  0  0  0  0  0  0
   -1.9168   22.1606    0.0000 H   0  0  0  0  0  0  0  0  0  0  0  0
   -2.1869   21.0756    0.0000 H   0  0  0  0  0  0  0  0  0  0  0  0
   -3.8204   21.9269    0.0000 H   0  0  0  0  0  0  0  0  0  0  0  0
   -3.1418   19.4562    0.0000 H   0  0  0  0  0  0  0  0  0  0  0  0
   -1.7040   20.4829    0.0000 H   0  0  0  0  0  0  0  0  0  0  0  0
   -1.9436   23.3063    0.0000 H   0  0  0  0  0  0  0  0  0  0  0  0
   -6.6237   23.8911    0.0000 H   0  0  0  0  0  0  0  0  0  0  0  0
   -3.3165   26.0236    0.0000 H   0  0  0  0  0  0  0  0  0  0  0  0
   -4.9338   26.5641    0.0000 H   0  0  0  0  0  0  0  0  0  0  0  0
   -6.8178   20.8478    0.0000 H   0  0  0  0  0  0  0  0  0  0  0  0
  -10.3840   17.7610    0.0000 H   0  0  0  0  0  0  0  0  0  0  0  0
   -9.7560   21.6457    0.0000 H   0  0  0  0  0  0  0  0  0  0  0  0
  -11.2398   20.8053    0.0000 H   0  0  0  0  0  0  0  0  0  0  0  0
   -9.0706   12.0788    0.0000 H   0  0  0  0  0  0  0  0  0  0  0  0
  -10.9190   11.9000    0.0000 H   0  0  0  0  0  0  0  0  0  0  0  0
  -12.3640   14.2325    0.0000 H   0  0  0  0  0  0  0  0  0  0  0  0
  -12.1997   12.5352    0.0000 H   0  0  0  0  0  0  0  0  0  0  0  0
   -7.4225    9.4728    0.0000 H   0  0  0  0  0  0  0  0  0  0  0  0
   -3.9800    6.2489    0.0000 H   0  0  0  0  0  0  0  0  0  0  0  0
   -7.9091    6.4672    0.0000 H   0  0  0  0  0  0  0  0  0  0  0  0
   -6.9182    5.0795    0.0000 H   0  0  0  0  0  0  0  0  0  0  0  0
   -5.9213    9.7859    0.0000 H   0  0  0  0  0  0  0  0  0  0  0  0
   -8.8030    5.3283    0.0000 H   0  0  0  0  0  0  0  0  0  0  0  0
   -7.1086    5.1361    0.0000 H   0  0  0  0  0  0  0  0  0  0  0  0
   -9.3734    6.6386    0.0000 H   0  0  0  0  0  0  0  0  0  0  0  0
   -7.4097    0.6141    0.0000 H   0  0  0  0  0  0  0  0  0  0  0  0
   -2.7138    1.0542    0.0000 H   0  0  0  0  0  0  0  0  0  0  0  0
   -5.8024   -1.4340    0.0000 H   0  0  0  0  0  0  0  0  0  0  0  0
   -4.2294   -2.0922    0.0000 H   0  0  0  0  0  0  0  0  0  0  0  0
   -7.2579    1.7860    0.0000 H   0  0  0  0  0  0  0  0  0  0  0  0
   -7.1389   -1.4575    0.0000 H   0  0  0  0  0  0  0  0  0  0  0  0
   -5.6478   -0.3568    0.0000 H   0  0  0  0  0  0  0  0  0  0  0  0
   -6.0756   -1.3375    0.0000 H   0  0  0  0  0  0  0  0  0  0  0  0
   -8.7492   -1.5636    0.0000 H   0  0  0  0  0  0  0  0  0  0  0  0
  -15.5065    1.5336    0.0000 H   0  0  0  0  0  0  0  0  0  0  0  0
  -18.0087    3.1749    0.0000 H   0  0  0  0  0  0  0  0  0  0  0  0
  -17.2500    1.4840    0.0000 H   0  0  0  0  0  0  0  0  0  0  0  0
  -18.1174    2.1105    0.0000 H   0  0  0  0  0  0  0  0  0  0  0  0
  -15.8898    5.1799    0.0000 H   0  0  0  0  0  0  0  0  0  0  0  0
  -14.0154   -4.5589    0.0000 H   0  0  0  0  0  0  0  0  0  0  0  0
  -16.3433    0.0759    0.0000 H   0  0  0  0  0  0  0  0  0  0  0  0
  -17.6989   -0.9584    0.0000 H   0  0  0  0  0  0  0  0  0  0  0  0
  -17.7545   -1.7584    0.0000 H   0  0  0  0  0  0  0  0  0  0  0  0
   -8.2605   -7.3807    0.0000 H   0  0  0  0  0  0  0  0  0  0  0  0
  -13.2137   -5.9474    0.0000 H   0  0  0  0  0  0  0  0  0  0  0  0
  -13.4362   -7.6380    0.0000 H   0  0  0  0  0  0  0  0  0  0  0  0
  -12.8436   -8.2855    0.0000 H   0  0  0  0  0  0  0  0  0  0  0  0
   -2.3127   -4.9920    0.0000 H   0  0  0  0  0  0  0  0  0  0  0  0
   -6.6861   -7.7569    0.0000 H   0  0  0  0  0  0  0  0  0  0  0  0
   -5.5440   -9.0231    0.0000 H   0  0  0  0  0  0  0  0  0  0  0  0
   -4.7070   -9.0034    0.0000 H   0  0  0  0  0  0  0  0  0  0  0  0
   -0.7935   -2.1994    0.0000 H   0  0  0  0  0  0  0  0  0  0  0  0
    0.7145    2.2695    0.0000 H   0  0  0  0  0  0  0  0  0  0  0  0
    2.2977   -1.3650    0.0000 H   0  0  0  0  0  0  0  0  0  0  0  0
    3.0378    0.1713    0.0000 H   0  0  0  0  0  0  0  0  0  0  0  0
   -1.4087    3.8985    0.0000 H   0  0  0  0  0  0  0  0  0  0  0  0
    0.2112    4.1147    0.0000 H   0  0  0  0  0  0  0  0  0  0  0  0
    0.7552    5.8864    0.0000 H   0  0  0  0  0  0  0  0  0  0  0  0
    0.9947    4.8435    0.0000 H   0  0  0  0  0  0  0  0  0  0  0  0
   -1.7920    7.5448    0.0000 H   0  0  0  0  0  0  0  0  0  0  0  0
  1  2  1  0  0  0  0
  1296  1  0  0  0  0
  1297  1  0  0  0  0
  1298  1  0  0  0  0
  2  3  1  0  0  0  0
  2299  1  0  0  0  0
  2300  1  0  0  0  0
  3  4  1  0  0  0  0
  3301  1  0  0  0  0
  3302  1  0  0  0  0
  4  5  1  0  0  0  0
  4303  1  0  0  0  0
  4304  1  0  0  0  0
  5  6  1  0  0  0  0
  5305  1  0  0  0  0
  5306  1  0  0  0  0
  6  7  1  0  0  0  0
  6307  1  0  0  0  0
  6308  1  0  0  0  0
  7  8  1  0  0  0  0
  7309  1  0  0  0  0
  7310  1  0  0  0  0
  8  9  1  0  0  0  0
  8311  1  0  0  0  0
  8312  1  0  0  0  0
  9 10  1  0  0  0  0
  9313  1  0  0  0  0
  9314  1  0  0  0  0
 10 11  1  0  0  0  0
 10315  1  0  0  0  0
 10316  1  0  0  0  0
 11 12  1  0  0  0  0
 11317  1  0  0  0  0
 11318  1  0  0  0  0
 12 13  1  0  0  0  0
 12319  1  0  0  0  0
 12320  1  0  0  0  0
 13 14  1  0  0  0  0
 13321  1  0  0  0  0
 13322  1  0  0  0  0
 14 15  1  0  0  0  0
 14323  1  0  0  0  0
 14324  1  0  0  0  0
 15 16  1  0  0  0  0
 15325  1  0  0  0  0
 15326  1  0  0  0  0
 16 17  2  0  0  0  0
 16 18  1  0  0  0  0
 18 19  1  0  0  0  0
 18327  1  0  0  0  0
 19 20  1  0  0  0  0
 19328  1  0  0  0  0
 19329  1  0  0  0  0
 20 21  1  0  0  0  0
 20 22  1  0  0  0  0
 20330  1  0  0  0  0
 21331  1  0  0  0  0
 22 23  1  0  0  0  0
 22332  1  0  0  0  0
 22333  1  0  0  0  0
 23 24  1  0  0  0  0
 24 25  1  0  0  0  0
 24 26  2  0  0  0  0
 24 27  1  0  0  0  0
 25334  1  0  0  0  0
 27 28  1  0  0  0  0
 28 29  1  0  0  0  0
 28335  1  0  0  0  0
 28336  1  0  0  0  0
 29 30  1  0  0  0  0
 29 33  1  0  0  0  0
 29337  1  0  0  0  0
 30 31  1  0  0  0  0
 31 32  1  0  0  0  0
 31287  1  0  0  0  0
 31338  1  0  0  0  0
 32 33  1  0  0  0  0
 32339  1  0  0  0  0
 32340  1  0  0  0  0
 33 34  1  0  0  0  0
 33341  1  0  0  0  0
 34 35  1  0  0  0  0
 34342  1  0  0  0  0
 35 36  1  0  0  0  0
 35 37  2  0  0  0  0
 35 38  1  0  0  0  0
 36343  1  0  0  0  0
 38 39  1  0  0  0  0
 39 40  1  0  0  0  0
 39344  1  0  0  0  0
 39345  1  0  0  0  0
 40 41  1  0  0  0  0
 40 44  1  0  0  0  0
 40346  1  0  0  0  0
 41 42  1  0  0  0  0
 42 43  1  0  0  0  0
 42277  1  0  0  0  0
 42347  1  0  0  0  0
 43 44  1  0  0  0  0
 43348  1  0  0  0  0
 43349  1  0  0  0  0
 44 45  1  0  0  0  0
 44350  1  0  0  0  0
 45 46  1  0  0  0  0
 45351  1  0  0  0  0
 46 47  1  0  0  0  0
 46 48  2  0  0  0  0
 46 49  1  0  0  0  0
 47352  1  0  0  0  0
 49 50  1  0  0  0  0
 50 51  1  0  0  0  0
 50353  1  0  0  0  0
 50354  1  0  0  0  0
 51 52  1  0  0  0  0
 51 55  1  0  0  0  0
 51355  1  0  0  0  0
 52 53  1  0  0  0  0
 53 54  1  0  0  0  0
 53266  1  0  0  0  0
 53356  1  0  0  0  0
 54 55  1  0  0  0  0
 54357  1  0  0  0  0
 54358  1  0  0  0  0
 55 56  1  0  0  0  0
 55359  1  0  0  0  0
 56 57  1  0  0  0  0
 56360  1  0  0  0  0
 57 58  1  0  0  0  0
 57 59  2  0  0  0  0
 57 60  1  0  0  0  0
 58361  1  0  0  0  0
 60 61  1  0  0  0  0
 61 62  1  0  0  0  0
 61362  1  0  0  0  0
 61363  1  0  0  0  0
 62 63  1  0  0  0  0
 62 66  1  0  0  0  0
 62364  1  0  0  0  0
 63 64  1  0  0  0  0
 64 65  1  0  0  0  0
 64255  1  0  0  0  0
 64365  1  0  0  0  0
 65 66  1  0  0  0  0
 65366  1  0  0  0  0
 65367  1  0  0  0  0
 66 67  1  0  0  0  0
 66368  1  0  0  0  0
 67 68  1  0  0  0  0
 67369  1  0  0  0  0
 68 69  1  0  0  0  0
 68 70  2  0  0  0  0
 68 71  1  0  0  0  0
 69370  1  0  0  0  0
 71 72  1  0  0  0  0
 72 73  1  0  0  0  0
 72371  1  0  0  0  0
 72372  1  0  0  0  0
 73 74  1  0  0  0  0
 73 77  1  0  0  0  0
 73373  1  0  0  0  0
 74 75  1  0  0  0  0
 75 76  1  0  0  0  0
 75244  1  0  0  0  0
 75374  1  0  0  0  0
 76 77  1  0  0  0  0
 76375  1  0  0  0  0
 76376  1  0  0  0  0
 77 78  1  0  0  0  0
 77377  1  0  0  0  0
 78 79  1  0  0  0  0
 78378  1  0  0  0  0
 79 80  1  0  0  0  0
 79 81  2  0  0  0  0
 79 82  1  0  0  0  0
 80379  1  0  0  0  0
 82 83  1  0  0  0  0
 83 84  1  0  0  0  0
 83380  1  0  0  0  0
 83381  1  0  0  0  0
 84 85  1  0  0  0  0
 84 88  1  0  0  0  0
 84382  1  0  0  0  0
 85 86  1  0  0  0  0
 86 87  1  0  0  0  0
 86235  1  0  0  0  0
 86383  1  0  0  0  0
 87 88  1  0  0  0  0
 87384  1  0  0  0  0
 87385  1  0  0  0  0
 88 89  1  0  0  0  0
 88386  1  0  0  0  0
 89 90  1  0  0  0  0
 89387  1  0  0  0  0
 90 91  1  0  0  0  0
 90 92  2  0  0  0  0
 90 93  1  0  0  0  0
 91388  1  0  0  0  0
 93 94  1  0  0  0  0
 94 95  1  0  0  0  0
 94389  1  0  0  0  0
 94390  1  0  0  0  0
 95 96  1  0  0  0  0
 95 99  1  0  0  0  0
 95391  1  0  0  0  0
 96 97  1  0  0  0  0
 97 98  1  0  0  0  0
 97226  1  0  0  0  0
 97392  1  0  0  0  0
 98 99  1  0  0  0  0
 98393  1  0  0  0  0
 98394  1  0  0  0  0
 99100  1  0  0  0  0
 99395  1  0  0  0  0
100101  1  0  0  0  0
100396  1  0  0  0  0
101102  1  0  0  0  0
101103  2  0  0  0  0
101104  1  0  0  0  0
102397  1  0  0  0  0
104105  1  0  0  0  0
105106  1  0  0  0  0
105398  1  0  0  0  0
105399  1  0  0  0  0
106107  1  0  0  0  0
106110  1  0  0  0  0
106400  1  0  0  0  0
107108  1  0  0  0  0
108109  1  0  0  0  0
108216  1  0  0  0  0
108401  1  0  0  0  0
109110  1  0  0  0  0
109402  1  0  0  0  0
109403  1  0  0  0  0
110111  1  0  0  0  0
110404  1  0  0  0  0
111112  1  0  0  0  0
111405  1  0  0  0  0
112113  1  0  0  0  0
112114  2  0  0  0  0
112115  1  0  0  0  0
113406  1  0  0  0  0
115116  1  0  0  0  0
116117  1  0  0  0  0
116407  1  0  0  0  0
116408  1  0  0  0  0
117118  1  0  0  0  0
117121  1  0  0  0  0
117409  1  0  0  0  0
118119  1  0  0  0  0
119120  1  0  0  0  0
119205  1  0  0  0  0
119410  1  0  0  0  0
120121  1  0  0  0  0
120411  1  0  0  0  0
120412  1  0  0  0  0
121122  1  0  0  0  0
121413  1  0  0  0  0
122123  1  0  0  0  0
122414  1  0  0  0  0
123124  1  0  0  0  0
123125  2  0  0  0  0
123126  1  0  0  0  0
124415  1  0  0  0  0
126127  1  0  0  0  0
127128  1  0  0  0  0
127416  1  0  0  0  0
127417  1  0  0  0  0
128129  1  0  0  0  0
128132  1  0  0  0  0
128418  1  0  0  0  0
129130  1  0  0  0  0
130131  1  0  0  0  0
130195  1  0  0  0  0
130419  1  0  0  0  0
131132  1  0  0  0  0
131420  1  0  0  0  0
131421  1  0  0  0  0
132133  1  0  0  0  0
132422  1  0  0  0  0
133134  1  0  0  0  0
133423  1  0  0  0  0
134135  1  0  0  0  0
134136  2  0  0  0  0
134137  1  0  0  0  0
135424  1  0  0  0  0
137138  1  0  0  0  0
138139  1  0  0  0  0
138425  1  0  0  0  0
138426  1  0  0  0  0
139140  1  0  0  0  0
139143  1  0  0  0  0
139427  1  0  0  0  0
140141  1  0  0  0  0
141142  1  0  0  0  0
141187  1  0  0  0  0
141428  1  0  0  0  0
142143  1  0  0  0  0
142429  1  0  0  0  0
142430  1  0  0  0  0
143144  1  0  0  0  0
143431  1  0  0  0  0
144145  1  0  0  0  0
144432  1  0  0  0  0
145146  1  0  0  0  0
145147  2  0  0  0  0
145148  1  0  0  0  0
146433  1  0  0  0  0
148149  1  0  0  0  0
149150  1  0  0  0  0
149434  1  0  0  0  0
149435  1  0  0  0  0
150151  1  0  0  0  0
150154  1  0  0  0  0
150436  1  0  0  0  0
151152  1  0  0  0  0
152153  1  0  0  0  0
152177  1  0  0  0  0
152437  1  0  0  0  0
153154  1  0  0  0  0
153438  1  0  0  0  0
153439  1  0  0  0  0
154155  1  0  0  0  0
154440  1  0  0  0  0
155156  1  0  0  0  0
155441  1  0  0  0  0
156157  1  0  0  0  0
156158  2  0  0  0  0
156159  1  0  0  0  0
157442  1  0  0  0  0
159160  1  0  0  0  0
160161  1  0  0  0  0
160443  1  0  0  0  0
160444  1  0  0  0  0
161162  1  0  0  0  0
161165  1  0  0  0  0
161445  1  0  0  0  0
162163  1  0  0  0  0
163164  1  0  0  0  0
163167  1  0  0  0  0
163446  1  0  0  0  0
164165  1  0  0  0  0
164447  1  0  0  0  0
164448  1  0  0  0  0
165166  1  0  0  0  0
165449  1  0  0  0  0
166450  1  0  0  0  0
166451  1  0  0  0  0
167168  1  0  0  0  0
167171  1  0  0  0  0
168169  2  0  0  0  0
168452  1  0  0  0  0
169170  1  0  0  0  0
170171  2  0  0  0  0
170175  1  0  0  0  0
171172  1  0  0  0  0
172173  2  0  0  0  0
173174  1  0  0  0  0
173453  1  0  0  0  0
174175  2  0  0  0  0
175176  1  0  0  0  0
176454  1  0  0  0  0
176455  1  0  0  0  0
177178  1  0  0  0  0
177181  1  0  0  0  0
178179  2  0  0  0  0
178456  1  0  0  0  0
179180  1  0  0  0  0
180181  2  0  0  0  0
180185  1  0  0  0  0
181182  1  0  0  0  0
182183  2  0  0  0  0
183184  1  0  0  0  0
183457  1  0  0  0  0
184185  2  0  0  0  0
185186  1  0  0  0  0
186458  1  0  0  0  0
186459  1  0  0  0  0
187188  1  0  0  0  0
187193  1  0  0  0  0
188189  2  0  0  0  0
188460  1  0  0  0  0
189190  1  0  0  0  0
189461  1  0  0  0  0
190191  1  0  0  0  0
190192  2  0  0  0  0
191462  1  0  0  0  0
191463  1  0  0  0  0
192193  1  0  0  0  0
193194  2  0  0  0  0
195196  1  0  0  0  0
195199  1  0  0  0  0
196197  2  0  0  0  0
196464  1  0  0  0  0
197198  1  0  0  0  0
198199  2  0  0  0  0
198203  1  0  0  0  0
199200  1  0  0  0  0
200201  2  0  0  0  0
201202  1  0  0  0  0
201465  1  0  0  0  0
202203  2  0  0  0  0
203204  1  0  0  0  0
204466  1  0  0  0  0
204467  1  0  0  0  0
205206  1  0  0  0  0
205209  1  0  0  0  0
206207  2  0  0  0  0
206468  1  0  0  0  0
207208  1  0  0  0  0
208209  2  0  0  0  0
208214  1  0  0  0  0
209210  1  0  0  0  0
210211  2  0  0  0  0
211212  1  0  0  0  0
211213  1  0  0  0  0
212469  1  0  0  0  0
212470  1  0  0  0  0
213214  1  0  0  0  0
213471  1  0  0  0  0
214215  2  0  0  0  0
216217  1  0  0  0  0
216220  1  0  0  0  0
217218  2  0  0  0  0
217472  1  0  0  0  0
218219  1  0  0  0  0
219220  2  0  0  0  0
219224  1  0  0  0  0
220221  1  0  0  0  0
221222  2  0  0  0  0
222223  1  0  0  0  0
222473  1  0  0  0  0
223224  2  0  0  0  0
224225  1  0  0  0  0
225474  1  0  0  0  0
225475  1  0  0  0  0
226227  1  0  0  0  0
226233  1  0  0  0  0
227228  2  0  0  0  0
227476  1  0  0  0  0
228229  1  0  0  0  0
228230  1  0  0  0  0
229477  1  0  0  0  0
229478  1  0  0  0  0
229479  1  0  0  0  0
230231  2  0  0  0  0
230232  1  0  0  0  0
232233  1  0  0  0  0
232480  1  0  0  0  0
233234  2  0  0  0  0
235236  1  0  0  0  0
235242  1  0  0  0  0
236237  2  0  0  0  0
236481  1  0  0  0  0
237238  1  0  0  0  0
237239  1  0  0  0  0
238482  1  0  0  0  0
238483  1  0  0  0  0
238484  1  0  0  0  0
239240  2  0  0  0  0
239241  1  0  0  0  0
241242  1  0  0  0  0
241485  1  0  0  0  0
242243  2  0  0  0  0
244245  1  0  0  0  0
244248  1  0  0  0  0
245246  2  0  0  0  0
245486  1  0  0  0  0
246247  1  0  0  0  0
247248  2  0  0  0  0
247253  1  0  0  0  0
248249  1  0  0  0  0
249250  2  0  0  0  0
250251  1  0  0  0  0
250252  1  0  0  0  0
251487  1  0  0  0  0
251488  1  0  0  0  0
252253  1  0  0  0  0
252489  1  0  0  0  0
253254  2  0  0  0  0
255256  1  0  0  0  0
255259  1  0  0  0  0
256257  2  0  0  0  0
256490  1  0  0  0  0
257258  1  0  0  0  0
258259  2  0  0  0  0
258264  1  0  0  0  0
259260  1  0  0  0  0
260261  2  0  0  0  0
261262  1  0  0  0  0
261263  1  0  0  0  0
262491  1  0  0  0  0
262492  1  0  0  0  0
263264  1  0  0  0  0
263493  1  0  0  0  0
264265  2  0  0  0  0
266267  1  0  0  0  0
266270  1  0  0  0  0
267268  2  0  0  0  0
267494  1  0  0  0  0
268269  1  0  0  0  0
269270  2  0  0  0  0
269275  1  0  0  0  0
270271  1  0  0  0  0
271272  2  0  0  0  0
272273  1  0  0  0  0
272274  1  0  0  0  0
273495  1  0  0  0  0
273496  1  0  0  0  0
274275  1  0  0  0  0
274497  1  0  0  0  0
275276  2  0  0  0  0
277278  1  0  0  0  0
277281  1  0  0  0  0
278279  2  0  0  0  0
278498  1  0  0  0  0
279280  1  0  0  0  0
280281  2  0  0  0  0
280285  1  0  0  0  0
281282  1  0  0  0  0
282283  2  0  0  0  0
283284  1  0  0  0  0
283499  1  0  0  0  0
284285  2  0  0  0  0
285286  1  0  0  0  0
286500  1  0  0  0  0
286501  1  0  0  0  0
287288  1  0  0  0  0
287294  1  0  0  0  0
288289  2  0  0  0  0
288502  1  0  0  0  0
289290  1  0  0  0  0
289291  1  0  0  0  0
290503  1  0  0  0  0
290504  1  0  0  0  0
290505  1  0  0  0  0
291292  2  0  0  0  0
291293  1  0  0  0  0
293294  1  0  0  0  0
293506  1  0  0  0  0
294295  2  0  0  0  0
M  END
>  <DRUGBANK_ID>
DB14909

>  <COMMON_NAME>
Imetelstat

>  <CAS_NUMBER>
868169-64-6

>  <UNII>
F60NE4XB53

>  <SYNONYMS>
Imetelstat

$$$$
