
 OpenBabel10282417072D

 96 98  0  0  0  0  0  0  0  0999 V2000
    6.6010    2.3935    0.0000 S   0  0  0  0  0  0  0  0  0  0  0  0
   -6.6761    2.7248    0.0000 P   0  0  0  0  0  0  0  0  0  0  0  0
   -4.1017    1.7020    0.0000 P   0  0  1  0  0  0  0  0  0  0  0  0
   -2.6804    1.8489    0.0000 P   0  0  1  0  0  0  0  0  0  0  0  0
   -6.1929    0.2463    0.0000 O   0  0  0  0  0  0  0  0  0  0  0  0
   -7.2292    2.1127    0.0000 O   0  0  0  0  0  0  0  0  0  0  0  0
   -8.2868    0.6624    0.0000 O   0  0  0  0  0  0  0  0  0  0  0  0
   -4.7701    1.2182    0.0000 O   0  0  0  0  0  0  0  0  0  0  0  0
   -7.2883    3.2780    0.0000 O   0  0  0  0  0  0  0  0  0  0  0  0
   -6.1230    3.3370    0.0000 O   0  0  0  0  0  0  0  0  0  0  0  0
   -3.4335    2.1857    0.0000 O   0  0  0  0  0  0  0  0  0  0  0  0
   -1.9272    1.5120    0.0000 O   0  0  0  0  0  0  0  0  0  0  0  0
   -6.0639    2.1717    0.0000 O   0  0  0  0  0  0  0  0  0  0  0  0
   -3.6180    1.0337    0.0000 O   0  0  0  0  0  0  0  0  0  0  0  0
    0.3320    0.5015    0.0000 O   0  0  0  0  0  0  0  0  0  0  0  0
   -4.5855    2.3703    0.0000 O   0  0  0  0  0  0  0  0  0  0  0  0
   -2.3435    2.6020    0.0000 O   0  0  0  0  0  0  0  0  0  0  0  0
   -3.0172    1.0958    0.0000 O   0  0  0  0  0  0  0  0  0  0  0  0
    0.8306    2.6265    0.0000 O   0  0  0  0  0  0  0  0  0  0  0  0
    3.6735    2.9203    0.0000 O   0  0  0  0  0  0  0  0  0  0  0  0
    9.4438    2.6873    0.0000 O   0  0  0  0  0  0  0  0  0  0  0  0
    8.8603    1.3829    0.0000 O   0  0  0  0  0  0  0  0  0  0  0  0
   -7.2342   -0.7914    0.0000 N   0  0  0  0  0  0  0  0  0  0  0  0
   -7.2342   -2.1192    0.0000 N   0  0  0  0  0  0  0  0  0  0  0  0
   -8.7294   -0.6303    0.0000 N   0  0  0  0  0  0  0  0  0  0  0  0
   -9.4438   -1.8678    0.0000 N   0  0  0  0  0  0  0  0  0  0  0  0
   -8.7294   -3.1053    0.0000 N   0  0  0  0  0  0  0  0  0  0  0  0
    1.6686    1.4690    0.0000 N   0  0  0  0  0  0  0  0  0  0  0  0
    4.5113    1.7628    0.0000 N   0  0  0  0  0  0  0  0  0  0  0  0
   -6.9757    1.3276    0.0000 C   0  0  1  0  0  0  0  0  0  0  0  0
   -7.4618    0.6610    0.0000 C   0  0  2  0  0  0  0  0  0  0  0  0
   -6.1914    1.0713    0.0000 C   0  0  1  0  0  0  0  0  0  0  0  0
   -6.9780   -0.0072    0.0000 C   0  0  1  0  0  0  0  0  0  0  0  0
   -5.5231    1.5551    0.0000 C   0  0  0  0  0  0  0  0  0  0  0  0
   -8.0148   -1.0428    0.0000 C   0  0  0  0  0  0  0  0  0  0  0  0
   -6.7527   -1.4553    0.0000 C   0  0  0  0  0  0  0  0  0  0  0  0
   -8.0148   -1.8678    0.0000 C   0  0  0  0  0  0  0  0  0  0  0  0
   -0.5059    1.6590    0.0000 C   0  0  0  0  0  0  0  0  0  0  0  0
    0.2472    1.3221    0.0000 C   0  0  2  0  0  0  0  0  0  0  0  0
   -1.2590    1.9958    0.0000 C   0  0  0  0  0  0  0  0  0  0  0  0
   -8.7294   -2.2803    0.0000 C   0  0  0  0  0  0  0  0  0  0  0  0
   -0.8427    0.9058    0.0000 C   0  0  0  0  0  0  0  0  0  0  0  0
   -0.1690    2.4120    0.0000 C   0  0  0  0  0  0  0  0  0  0  0  0
   -9.4438   -1.0428    0.0000 C   0  0  0  0  0  0  0  0  0  0  0  0
    0.9154    1.8058    0.0000 C   0  0  0  0  0  0  0  0  0  0  0  0
    2.3368    1.9528    0.0000 C   0  0  0  0  0  0  0  0  0  0  0  0
    3.0899    1.6159    0.0000 C   0  0  0  0  0  0  0  0  0  0  0  0
    3.7583    2.0997    0.0000 C   0  0  0  0  0  0  0  0  0  0  0  0
    5.1796    2.2465    0.0000 C   0  0  0  0  0  0  0  0  0  0  0  0
    5.9328    1.9097    0.0000 C   0  0  0  0  0  0  0  0  0  0  0  0
    7.3542    2.0566    0.0000 C   0  0  0  0  0  0  0  0  0  0  0  0
    8.0224    2.5404    0.0000 C   0  0  2  0  0  0  0  0  0  0  0  0
    7.9376    3.3611    0.0000 C   0  0  0  0  0  0  0  0  0  0  0  0
    8.7755    2.2036    0.0000 C   0  0  0  0  0  0  0  0  0  0  0  0
   -8.2864   -3.3611    0.0000 H   0  0  0  0  0  0  0  0  0  0  0  0
   -9.1723   -3.3611    0.0000 H   0  0  0  0  0  0  0  0  0  0  0  0
    1.7211    0.9602    0.0000 H   0  0  0  0  0  0  0  0  0  0  0  0
    4.5639    1.2540    0.0000 H   0  0  0  0  0  0  0  0  0  0  0  0
   -8.7704    1.5033    0.0000 H   0  0  0  0  0  0  0  0  0  0  0  0
   -7.0849    4.2264    0.0000 H   0  0  0  0  0  0  0  0  0  0  0  0
   -5.1745    3.1337    0.0000 H   0  0  0  0  0  0  0  0  0  0  0  0
   -4.0141    0.1483    0.0000 H   0  0  0  0  0  0  0  0  0  0  0  0
   -0.4537   -0.0673    0.0000 H   0  0  0  0  0  0  0  0  0  0  0  0
   -1.3786    2.7017    0.0000 H   0  0  0  0  0  0  0  0  0  0  0  0
   10.2991    2.3046    0.0000 H   0  0  0  0  0  0  0  0  0  0  0  0
   -8.0322    1.4969    0.0000 H   0  0  0  0  0  0  0  0  0  0  0  0
   -7.9459    1.6152    0.0000 H   0  0  0  0  0  0  0  0  0  0  0  0
   -5.2389    0.5838    0.0000 H   0  0  0  0  0  0  0  0  0  0  0  0
   -6.2227   -0.7651    0.0000 H   0  0  0  0  0  0  0  0  0  0  0  0
   -5.6331    2.6194    0.0000 H   0  0  0  0  0  0  0  0  0  0  0  0
   -6.4998    1.9920    0.0000 H   0  0  0  0  0  0  0  0  0  0  0  0
   -5.7207   -1.4553    0.0000 H   0  0  0  0  0  0  0  0  0  0  0  0
   -0.6196    0.6947    0.0000 H   0  0  0  0  0  0  0  0  0  0  0  0
   -1.3691    3.0601    0.0000 H   0  0  0  0  0  0  0  0  0  0  0  0
   -0.3923    2.6233    0.0000 H   0  0  0  0  0  0  0  0  0  0  0  0
   -1.9070    0.7957    0.0000 H   0  0  0  0  0  0  0  0  0  0  0  0
   -0.2152    0.0391    0.0000 H   0  0  0  0  0  0  0  0  0  0  0  0
   -1.2795   -0.0710    0.0000 H   0  0  0  0  0  0  0  0  0  0  0  0
    0.8953    2.5219    0.0000 H   0  0  0  0  0  0  0  0  0  0  0  0
   -0.7964    3.2788    0.0000 H   0  0  0  0  0  0  0  0  0  0  0  0
    0.2680    3.3887    0.0000 H   0  0  0  0  0  0  0  0  0  0  0  0
  -10.3375   -0.5268    0.0000 H   0  0  0  0  0  0  0  0  0  0  0  0
    2.2268    3.0171    0.0000 H   0  0  0  0  0  0  0  0  0  0  0  0
    3.2035    2.5802    0.0000 H   0  0  0  0  0  0  0  0  0  0  0  0
    3.1999    0.5516    0.0000 H   0  0  0  0  0  0  0  0  0  0  0  0
    4.0666    1.1790    0.0000 H   0  0  0  0  0  0  0  0  0  0  0  0
    5.0696    3.3108    0.0000 H   0  0  0  0  0  0  0  0  0  0  0  0
    6.0463    2.8740    0.0000 H   0  0  0  0  0  0  0  0  0  0  0  0
    6.0429    0.8454    0.0000 H   0  0  0  0  0  0  0  0  0  0  0  0
    5.0661    1.2822    0.0000 H   0  0  0  0  0  0  0  0  0  0  0  0
    7.4643    0.9923    0.0000 H   0  0  0  0  0  0  0  0  0  0  0  0
    8.3310    1.6198    0.0000 H   0  0  0  0  0  0  0  0  0  0  0  0
    7.0456    2.9773    0.0000 H   0  0  0  0  0  0  0  0  0  0  0  0
    8.8044    3.9885    0.0000 H   0  0  0  0  0  0  0  0  0  0  0  0
    6.9609    3.7980    0.0000 H   0  0  0  0  0  0  0  0  0  0  0  0
    7.8276    4.4254    0.0000 H   0  0  0  0  0  0  0  0  0  0  0  0
  1 50  1  0  0  0  0
  1 51  1  0  0  0  0
  2  6  1  0  0  0  0
  2  9  1  0  0  0  0
  2 10  1  0  0  0  0
  2 13  2  0  0  0  0
  3  8  1  0  0  0  0
  3 11  1  0  0  0  0
  3 14  1  0  0  0  0
  3 16  2  6  0  0  0
  4 11  1  0  0  0  0
  4 12  1  0  0  0  0
  4 17  1  0  0  0  0
  4 18  2  1  0  0  0
  5 32  1  0  0  0  0
  5 33  1  0  0  0  0
  7 59  1  0  0  0  0
  8 34  1  0  0  0  0
  9 60  1  0  0  0  0
 10 61  1  0  0  0  0
 12 40  1  0  0  0  0
 14 62  1  0  0  0  0
 15 63  1  0  0  0  0
 17 64  1  0  0  0  0
 19 45  2  0  0  0  0
 20 48  2  0  0  0  0
 21 54  1  0  0  0  0
 21 65  1  0  0  0  0
 22 54  2  0  0  0  0
 23 35  1  0  0  0  0
 23 36  1  0  0  0  0
 24 36  2  0  0  0  0
 24 37  1  0  0  0  0
 25 35  2  0  0  0  0
 25 44  1  0  0  0  0
 26 41  1  0  0  0  0
 26 44  2  0  0  0  0
 27 41  1  0  0  0  0
 27 55  1  0  0  0  0
 27 56  1  0  0  0  0
 28 45  1  0  0  0  0
 28 46  1  0  0  0  0
 28 57  1  0  0  0  0
 29 48  1  0  0  0  0
 29 49  1  0  0  0  0
 29 58  1  0  0  0  0
 30  6  1  0  0  0  0
 30 31  1  0  0  0  0
 30 32  1  0  0  0  0
 30 66  1  1  0  0  0
 31  7  1  0  0  0  0
 31 33  1  0  0  0  0
 31 67  1  1  0  0  0
 32 34  1  0  0  0  0
 32 68  1  6  0  0  0
 33 23  1  0  0  0  0
 33 69  1  6  0  0  0
 34 70  1  0  0  0  0
 34 71  1  0  0  0  0
 35 37  1  0  0  0  0
 36 72  1  0  0  0  0
 37 41  2  0  0  0  0
 38 39  1  0  0  0  0
 38 40  1  0  0  0  0
 38 42  1  0  0  0  0
 38 43  1  0  0  0  0
 39 15  1  0  0  0  0
 39 45  1  0  0  0  0
 39 73  1  1  0  0  0
 40 74  1  0  0  0  0
 40 75  1  0  0  0  0
 42 76  1  0  0  0  0
 42 77  1  0  0  0  0
 42 78  1  0  0  0  0
 43 79  1  0  0  0  0
 43 80  1  0  0  0  0
 43 81  1  0  0  0  0
 44 82  1  0  0  0  0
 46 47  1  0  0  0  0
 46 83  1  0  0  0  0
 46 84  1  0  0  0  0
 47 48  1  0  0  0  0
 47 85  1  0  0  0  0
 47 86  1  0  0  0  0
 49 50  1  0  0  0  0
 49 87  1  0  0  0  0
 49 88  1  0  0  0  0
 50 89  1  0  0  0  0
 50 90  1  0  0  0  0
 51 52  1  0  0  0  0
 51 91  1  0  0  0  0
 51 92  1  0  0  0  0
 52 53  1  0  0  0  0
 52 54  1  0  0  0  0
 52 93  1  1  0  0  0
 53 94  1  0  0  0  0
 53 95  1  0  0  0  0
 53 96  1  0  0  0  0
M  END
>  <DRUGBANK_ID>
DB03117

>  <SECONDARY_ACCESSION_NUMBERS>
EXPT00110

>  <COMMON_NAME>
2-carboxypropyl-coenzyme A

$$$$
