276
 OpenBabel10282417072D

 47 50  0  0  0  0  0  0  0  0999 V2000
    1.4217   -0.9942    0.0000 C   0  0  0  0  0  0  0  0  0  0  0  0
    2.1362   -1.4067    0.0000 C   0  0  0  0  0  0  0  0  0  0  0  0
    2.8507   -0.9942    0.0000 N   0  0  0  0  0  0  0  0  0  0  0  0
    2.8507   -0.1692    0.0000 C   0  0  0  0  0  0  0  0  0  0  0  0
    2.1362    0.2433    0.0000 C   0  0  0  0  0  0  0  0  0  0  0  0
    1.4217   -0.1692    0.0000 C   0  0  0  0  0  0  0  0  0  0  0  0
    3.5651    0.2433    0.0000 C   0  0  0  0  0  0  0  0  0  0  0  0
    3.5651    1.0683    0.0000 O   0  0  0  0  0  0  0  0  0  0  0  0
    4.2796   -0.1692    0.0000 N   0  0  0  0  0  0  0  0  0  0  0  0
    4.9941    0.2433    0.0000 C   0  0  0  0  0  0  0  0  0  0  0  0
    0.7073    0.2433    0.0000 O   0  0  0  0  0  0  0  0  0  0  0  0
   -0.0072   -0.1692    0.0000 C   0  0  0  0  0  0  0  0  0  0  0  0
   -0.7217    0.2433    0.0000 C   0  0  0  0  0  0  0  0  0  0  0  0
   -1.4362   -0.1692    0.0000 C   0  0  0  0  0  0  0  0  0  0  0  0
   -1.4362   -0.9942    0.0000 C   0  0  0  0  0  0  0  0  0  0  0  0
   -0.7217   -1.4067    0.0000 C   0  0  0  0  0  0  0  0  0  0  0  0
   -0.0072   -0.9942    0.0000 C   0  0  0  0  0  0  0  0  0  0  0  0
   -2.2208    0.0857    0.0000 N   0  0  0  0  0  0  0  0  0  0  0  0
   -2.7057   -0.5817    0.0000 C   0  0  0  0  0  0  0  0  0  0  0  0
   -2.2208   -1.2491    0.0000 N   0  0  0  0  0  0  0  0  0  0  0  0
   -3.5307   -0.5817    0.0000 N   0  0  0  0  0  0  0  0  0  0  0  0
   -3.9432    0.1328    0.0000 C   0  0  0  0  0  0  0  0  0  0  0  0
   -4.7682    0.1328    0.0000 C   0  0  0  0  0  0  0  0  0  0  0  0
   -5.1807    0.8472    0.0000 C   0  0  0  0  0  0  0  0  0  0  0  0
   -4.7682    1.5617    0.0000 C   0  0  0  0  0  0  0  0  0  0  0  0
   -3.9432    1.5617    0.0000 C   0  0  0  0  0  0  0  0  0  0  0  0
   -3.5307    0.8472    0.0000 C   0  0  0  0  0  0  0  0  0  0  0  0
   -6.0057    0.8472    0.0000 C   0  0  0  0  0  0  0  0  0  0  0  0
   -5.1807    2.2762    0.0000 Cl  0  0  0  0  0  0  0  0  0  0  0  0
   -6.8307    0.8472    0.0000 F   0  0  0  0  0  0  0  0  0  0  0  0
   -6.0057    0.0222    0.0000 F   0  0  0  0  0  0  0  0  0  0  0  0
   -6.0057    1.6722    0.0000 F   0  0  0  0  0  0  0  0  0  0  0  0
    0.5280   -1.5102    0.0000 H   0  0  0  0  0  0  0  0  0  0  0  0
    2.1362   -2.4387    0.0000 H   0  0  0  0  0  0  0  0  0  0  0  0
    2.1362    1.2753    0.0000 H   0  0  0  0  0  0  0  0  0  0  0  0
    4.2796   -1.1537    0.0000 H   0  0  0  0  0  0  0  0  0  0  0  0
    5.9207   -0.2917    0.0000 H   0  0  0  0  0  0  0  0  0  0  0  0
    4.9941    1.3133    0.0000 H   0  0  0  0  0  0  0  0  0  0  0  0
    5.9208    0.7783    0.0000 H   0  0  0  0  0  0  0  0  0  0  0  0
   -0.7217    1.2753    0.0000 H   0  0  0  0  0  0  0  0  0  0  0  0
   -0.7217   -2.4387    0.0000 H   0  0  0  0  0  0  0  0  0  0  0  0
    0.8865   -1.5102    0.0000 H   0  0  0  0  0  0  0  0  0  0  0  0
   -2.5250    1.0220    0.0000 H   0  0  0  0  0  0  0  0  0  0  0  0
   -4.0230   -1.4343    0.0000 H   0  0  0  0  0  0  0  0  0  0  0  0
   -5.2842   -0.7609    0.0000 H   0  0  0  0  0  0  0  0  0  0  0  0
   -3.4272    2.4554    0.0000 H   0  0  0  0  0  0  0  0  0  0  0  0
   -2.4987    0.8472    0.0000 H   0  0  0  0  0  0  0  0  0  0  0  0
  1  6  1  0  0  0  0
  1 33  1  0  0  0  0
  2  1  2  0  0  0  0
  2 34  1  0  0  0  0
  3  4  2  0  0  0  0
  3  2  1  0  0  0  0
  4  5  1  0  0  0  0
  5  6  2  0  0  0  0
  5 35  1  0  0  0  0
  6 11  1  0  0  0  0
  7  8  2  0  0  0  0
  7  4  1  0  0  0  0
  9  7  1  0  0  0  0
  9 36  1  0  0  0  0
 10  9  1  0  0  0  0
 10 37  1  0  0  0  0
 10 38  1  0  0  0  0
 10 39  1  0  0  0  0
 11 12  1  0  0  0  0
 12 17  1  0  0  0  0
 13 12  2  0  0  0  0
 13 14  1  0  0  0  0
 13 40  1  0  0  0  0
 14 18  1  0  0  0  0
 14 15  2  0  0  0  0
 15 16  1  0  0  0  0
 15 20  1  0  0  0  0
 16 41  1  0  0  0  0
 17 16  2  0  0  0  0
 17 42  1  0  0  0  0
 18 19  1  0  0  0  0
 18 43  1  0  0  0  0
 19 21  1  0  0  0  0
 19 20  2  0  0  0  0
 21 44  1  0  0  0  0
 22 21  1  0  0  0  0
 22 23  2  0  0  0  0
 23 45  1  0  0  0  0
 24 23  1  0  0  0  0
 24 28  1  0  0  0  0
 25 24  2  0  0  0  0
 26 27  2  0  0  0  0
 26 25  1  0  0  0  0
 26 46  1  0  0  0  0
 27 22  1  0  0  0  0
 27 47  1  0  0  0  0
 28 30  1  0  0  0  0
 28 32  1  0  0  0  0
 29 25  1  0  0  0  0
 31 28  1  0  0  0  0
M  END
>  <DRUGBANK_ID>
DB06938

>  <COMMON_NAME>
4-[[2-[[4-chloro-3-(trifluoromethyl)phenyl]amino]-3H-benzimidazol-5-yl]oxy]-N-methyl-pyridine-2-carboxamide

$$$$
