
 OpenBabel10282417072D

 73 73  0  0  0  0  0  0  0  0999 V2000
    0.4953    4.2330    0.0000 C   0  0  0  0  0  0  0  0  0  0  0  0
   -0.0990   -4.1186    0.0000 C   0  0  0  0  0  0  0  0  0  0  0  0
    0.2972    0.4576    0.0000 C   0  0  0  0  0  0  0  0  0  0  0  0
    0.0990   -0.3432    0.0000 C   0  0  0  0  0  0  0  0  0  0  0  0
   -0.0990    1.8305    0.0000 C   0  0  0  0  0  0  0  0  0  0  0  0
    0.4953   -1.7161    0.0000 C   0  0  0  0  0  0  0  0  0  0  0  0
    1.2880    1.4872    0.0000 C   0  0  0  0  0  0  0  0  0  0  0  0
   -0.8917   -1.3728    0.0000 C   0  0  0  0  0  0  0  0  0  0  0  0
    1.6843    0.1144    0.0000 C   0  0  0  0  0  0  0  0  0  0  0  0
   -1.2880    0.0000    0.0000 C   0  0  0  0  0  0  0  0  0  0  0  0
   -1.4861    2.1737    0.0000 C   0  0  0  0  0  0  0  0  0  0  0  0
    1.8825   -2.0593    0.0000 C   0  0  0  0  0  0  0  0  0  0  0  0
    0.2972    3.4322    0.0000 C   0  0  0  0  0  0  0  0  0  0  0  0
    0.0990   -3.3178    0.0000 C   0  0  0  0  0  0  0  0  0  0  0  0
    0.6935    2.0593    0.0000 C   0  0  0  0  0  0  0  0  0  0  0  0
   -0.2972   -1.9449    0.0000 C   0  0  0  0  0  0  0  0  0  0  0  0
   -0.6935    2.4025    0.0000 C   0  0  0  0  0  0  0  0  0  0  0  0
    1.0898   -2.2881    0.0000 C   0  0  0  0  0  0  0  0  0  0  0  0
    2.4769    0.3432    0.0000 C   0  0  0  0  0  0  0  0  0  0  0  0
   -2.0806   -0.2288    0.0000 C   0  0  0  0  0  0  0  0  0  0  0  0
    0.8917    2.8601    0.0000 C   0  0  0  0  0  0  0  0  0  0  0  0
   -0.4953   -2.7457    0.0000 C   0  0  0  0  0  0  0  0  0  0  0  0
   -0.4953    3.2033    0.0000 N   0  0  0  0  0  0  0  0  0  0  0  0
    0.8917   -3.0889    0.0000 N   0  0  0  0  0  0  0  0  0  0  0  0
    1.0898    0.6864    0.0000 N   0  0  0  0  0  0  0  0  0  0  0  0
   -0.6935   -0.5720    0.0000 N   0  0  0  0  0  0  0  0  0  0  0  0
    2.6751    1.1440    0.0000 O   0  0  0  0  0  0  0  0  0  0  0  0
    3.0714   -0.2288    0.0000 O   0  5  0  0  0  0  0  0  0  0  0  0
   -2.2788   -1.0296    0.0000 O   0  0  0  0  0  0  0  0  0  0  0  0
   -2.6751    0.3432    0.0000 O   0  5  0  0  0  0  0  0  0  0  0  0
    1.6843    3.0889    0.0000 O   0  0  0  0  0  0  0  0  0  0  0  0
   -1.2880   -2.9745    0.0000 O   0  0  0  0  0  0  0  0  0  0  0  0
   -3.6659    2.2881    0.0000 O   0  0  0  0  0  0  0  0  0  0  0  0
   -2.6444    1.7243    0.0000 O   0  0  0  0  0  0  0  0  0  0  0  0
   -3.1021    3.3095    0.0000 O   0  0  0  0  0  0  0  0  0  0  0  0
    3.0796   -3.6303    0.0000 O   0  0  0  0  0  0  0  0  0  0  0  0
    2.0806   -4.2330    0.0000 O   0  0  0  0  0  0  0  0  0  0  0  0
    1.4779   -3.2340    0.0000 O   0  0  0  0  0  0  0  0  0  0  0  0
   -2.0806    2.7457    0.0000 O   0  0  0  0  0  0  0  0  0  0  0  0
    2.4769   -2.6313    0.0000 O   0  0  0  0  0  0  0  0  0  0  0  0
   -2.8732    2.5169    0.0000 P   0  0  0  0  0  0  0  0  0  0  0  0
    2.2788   -3.4322    0.0000 P   0  0  0  0  0  0  0  0  0  0  0  0
    3.6659   -0.8008    0.0000 Mn  0  2  0  0  0  0  0  0  0  0  0  0
    1.5233    4.5298    0.0000 H   0  0  0  0  0  0  0  0  0  0  0  0
   -0.2758    4.9749    0.0000 H   0  0  0  0  0  0  0  0  0  0  0  0
    0.7522    5.2717    0.0000 H   0  0  0  0  0  0  0  0  0  0  0  0
   -1.1270   -4.4155    0.0000 H   0  0  0  0  0  0  0  0  0  0  0  0
    0.6721   -4.8604    0.0000 H   0  0  0  0  0  0  0  0  0  0  0  0
   -0.3558   -5.1573    0.0000 H   0  0  0  0  0  0  0  0  0  0  0  0
   -0.4738    1.1995    0.0000 H   0  0  0  0  0  0  0  0  0  0  0  0
    0.5542    1.4963    0.0000 H   0  0  0  0  0  0  0  0  0  0  0  0
    0.8700   -1.0851    0.0000 H   0  0  0  0  0  0  0  0  0  0  0  0
   -0.1580   -1.3819    0.0000 H   0  0  0  0  0  0  0  0  0  0  0  0
   -0.3468    0.8287    0.0000 H   0  0  0  0  0  0  0  0  0  0  0  0
    0.7431   -0.7143    0.0000 H   0  0  0  0  0  0  0  0  0  0  0  0
    2.3160    1.7839    0.0000 H   0  0  0  0  0  0  0  0  0  0  0  0
    2.0590    0.7452    0.0000 H   0  0  0  0  0  0  0  0  0  0  0  0
   -1.9197   -1.6695    0.0000 H   0  0  0  0  0  0  0  0  0  0  0  0
   -1.6627   -0.6308    0.0000 H   0  0  0  0  0  0  0  0  0  0  0  0
    1.4273   -0.9243    0.0000 H   0  0  0  0  0  0  0  0  0  0  0  0
    0.6563   -0.1824    0.0000 H   0  0  0  0  0  0  0  0  0  0  0  0
   -1.0310    1.0387    0.0000 H   0  0  0  0  0  0  0  0  0  0  0  0
   -0.2600    0.2968    0.0000 H   0  0  0  0  0  0  0  0  0  0  0  0
   -1.7431    1.1350    0.0000 H   0  0  0  0  0  0  0  0  0  0  0  0
   -2.5141    1.8769    0.0000 H   0  0  0  0  0  0  0  0  0  0  0  0
    2.1395   -1.0206    0.0000 H   0  0  0  0  0  0  0  0  0  0  0  0
    2.9105   -1.7626    0.0000 H   0  0  0  0  0  0  0  0  0  0  0  0
    2.3595    2.4392    0.0000 H   0  0  0  0  0  0  0  0  0  0  0  0
   -1.9632   -2.3248    0.0000 H   0  0  0  0  0  0  0  0  0  0  0  0
   -4.3648    2.9607    0.0000 H   0  0  0  0  0  0  0  0  0  0  0  0
   -3.3170    1.0253    0.0000 H   0  0  0  0  0  0  0  0  0  0  0  0
    3.3487   -4.5622    0.0000 H   0  0  0  0  0  0  0  0  0  0  0  0
    1.1486   -4.5020    0.0000 H   0  0  0  0  0  0  0  0  0  0  0  0
  1 44  1  0  0  0  0
  1 45  1  0  0  0  0
  1 46  1  0  0  0  0
  2 47  1  0  0  0  0
  2 48  1  0  0  0  0
  2 49  1  0  0  0  0
  3 50  1  0  0  0  0
  3 51  1  0  0  0  0
  4  3  1  0  0  0  0
  4 52  1  0  0  0  0
  4 53  1  0  0  0  0
  5 54  1  0  0  0  0
  6 55  1  0  0  0  0
  7 56  1  0  0  0  0
  7 57  1  0  0  0  0
  8 58  1  0  0  0  0
  8 59  1  0  0  0  0
  9 60  1  0  0  0  0
  9 61  1  0  0  0  0
 10 62  1  0  0  0  0
 10 63  1  0  0  0  0
 11 64  1  0  0  0  0
 11 65  1  0  0  0  0
 12 66  1  0  0  0  0
 12 67  1  0  0  0  0
 13  1  1  0  0  0  0
 14  2  1  0  0  0  0
 15  5  2  0  0  0  0
 15  7  1  0  0  0  0
 16  6  2  0  0  0  0
 16  8  1  0  0  0  0
 17  5  1  0  0  0  0
 17 11  1  0  0  0  0
 18  6  1  0  0  0  0
 18 12  1  0  0  0  0
 19  9  1  0  0  0  0
 20 10  1  0  0  0  0
 21 13  2  0  0  0  0
 21 15  1  0  0  0  0
 22 14  2  0  0  0  0
 22 16  1  0  0  0  0
 23 13  1  0  0  0  0
 23 17  2  0  0  0  0
 24 14  1  0  0  0  0
 24 18  2  0  0  0  0
 25  3  1  0  0  0  0
 25  7  1  0  0  0  0
 25  9  1  0  0  0  0
 26  4  1  0  0  0  0
 26  8  1  0  0  0  0
 26 10  1  0  0  0  0
 27 19  2  0  0  0  0
 28 19  1  0  0  0  0
 29 20  2  0  0  0  0
 30 20  1  0  0  0  0
 31 21  1  0  0  0  0
 31 68  1  0  0  0  0
 32 22  1  0  0  0  0
 32 69  1  0  0  0  0
 33 70  1  0  0  0  0
 34 71  1  0  0  0  0
 36 72  1  0  0  0  0
 37 73  1  0  0  0  0
 39 11  1  0  0  0  0
 40 12  1  0  0  0  0
 41 33  1  0  0  0  0
 41 34  1  0  0  0  0
 41 35  2  0  0  0  0
 41 39  1  0  0  0  0
 42 36  1  0  0  0  0
 42 37  1  0  0  0  0
 42 38  2  0  0  0  0
 42 40  1  0  0  0  0
M  CHG  3  28  -1  30  -1  43   2
M  END
>  <DRUGBANK_ID>
DB06796

>  <COMMON_NAME>
Mangafodipir

>  <CAS_NUMBER>
155319-91-8

>  <UNII>
N02W67RKJS

>  <SYNONYMS>
Mangafodipir

$$$$
