
 OpenBabel10282417072D

 81 86  0  0  0  0  0  0  0  0999 V2000
    3.3195   -2.9363    0.0000 C   0  0  0  0  0  0  0  0  0  0  0  0
    3.6336   -2.1735    0.0000 N   0  0  0  0  0  0  0  0  0  0  0  0
    3.1300   -1.5200    0.0000 C   0  0  0  0  0  0  0  0  0  0  0  0
    2.3123   -1.6294    0.0000 C   0  0  0  0  0  0  0  0  0  0  0  0
    1.8087   -0.9760    0.0000 O   0  0  0  0  0  0  0  0  0  0  0  0
    0.9910   -1.0854    0.0000 C   0  0  0  0  0  0  0  0  0  0  0  0
    0.4874   -0.4319    0.0000 C   0  0  0  0  0  0  0  0  0  0  0  0
    0.7946    0.4170    0.0000 N   0  0  0  0  0  0  0  0  0  0  0  0
    0.5175    1.1941    0.0000 S   0  0  0  0  0  0  0  0  0  0  0  0
   -0.2264    0.8374    0.0000 O   0  0  0  0  0  0  0  0  0  0  0  0
    0.0850    1.8966    0.0000 O   0  0  0  0  0  0  0  0  0  0  0  0
    1.1710    1.6977    0.0000 N   0  0  0  0  0  0  0  0  0  0  0  0
    1.8519    1.2319    0.0000 C   0  0  0  0  0  0  0  0  0  0  0  0
    1.6436    0.4336    0.0000 O   0  0  0  0  0  0  0  0  0  0  0  0
    2.7510    1.3126    0.0000 C   0  0  0  0  0  0  0  0  0  0  0  0
    3.1520    2.0336    0.0000 C   0  0  0  0  0  0  0  0  0  0  0  0
    3.9769    2.0469    0.0000 C   0  0  0  0  0  0  0  0  0  0  0  0
    4.4008    1.3391    0.0000 C   0  0  0  0  0  0  0  0  0  0  0  0
    4.0724    0.7686    0.0000 C   0  0  0  0  0  0  0  0  0  0  0  0
    3.2546    0.6592    0.0000 C   0  0  0  0  0  0  0  0  0  0  0  0
    4.5760    0.1151    0.0000 N   0  0  0  0  0  0  0  0  0  0  0  0
    5.3098    0.3616    0.0000 C   0  0  0  0  0  0  0  0  0  0  0  0
    5.2104    1.1805    0.0000 C   0  0  0  0  0  0  0  0  0  0  0  0
    5.8146    1.7423    0.0000 C   0  0  0  0  0  0  0  0  0  0  0  0
    5.6301    2.5465    0.0000 C   0  0  0  0  0  0  0  0  0  0  0  0
    6.2343    3.1083    0.0000 C   0  0  0  0  0  0  0  0  0  0  0  0
    7.0229    2.8659    0.0000 C   0  0  0  0  0  0  0  0  0  0  0  0
    7.2074    2.0618    0.0000 C   0  0  0  0  0  0  0  0  0  0  0  0
    6.6032    1.5000    0.0000 C   0  0  0  0  0  0  0  0  0  0  0  0
    6.0481   -0.0067    0.0000 C   0  0  0  0  0  0  0  0  0  0  0  0
    6.6606    0.5460    0.0000 C   0  0  0  0  0  0  0  0  0  0  0  0
    7.4455    0.2919    0.0000 C   0  0  0  0  0  0  0  0  0  0  0  0
    7.6179   -0.5149    0.0000 C   0  0  0  0  0  0  0  0  0  0  0  0
    7.0054   -1.0676    0.0000 C   0  0  0  0  0  0  0  0  0  0  0  0
    6.2205   -0.8135    0.0000 C   0  0  0  0  0  0  0  0  0  0  0  0
    5.6972   -1.4513    0.0000 C   0  0  0  0  0  0  0  0  0  0  0  0
    4.7655   -1.3012    0.0000 C   0  0  0  0  0  0  0  0  0  0  0  0
    4.2619   -0.6477    0.0000 C   0  0  0  0  0  0  0  0  0  0  0  0
    4.4514   -2.0641    0.0000 C   0  0  0  0  0  0  0  0  0  0  0  0
    4.9550   -2.7175    0.0000 O   0  0  0  0  0  0  0  0  0  0  0  0
    8.4028   -0.7689    0.0000 O   0  0  0  0  0  0  0  0  0  0  0  0
    8.5752   -1.5757    0.0000 C   0  0  0  0  0  0  0  0  0  0  0  0
   -0.0304    0.4190    0.0000 C   0  0  0  0  0  0  0  0  0  0  0  0
    2.2589   -3.0782    0.0000 H   0  0  0  0  0  0  0  0  0  0  0  0
    3.9726   -3.7838    0.0000 H   0  0  0  0  0  0  0  0  0  0  0  0
    2.9121   -3.9257    0.0000 H   0  0  0  0  0  0  0  0  0  0  0  0
    3.5374   -0.5306    0.0000 H   0  0  0  0  0  0  0  0  0  0  0  0
    2.4769   -0.6725    0.0000 H   0  0  0  0  0  0  0  0  0  0  0  0
    1.9049   -2.6188    0.0000 H   0  0  0  0  0  0  0  0  0  0  0  0
    1.2518   -1.7713    0.0000 H   0  0  0  0  0  0  0  0  0  0  0  0
    0.5836   -2.0748    0.0000 H   0  0  0  0  0  0  0  0  0  0  0  0
   -0.0696   -1.2273    0.0000 H   0  0  0  0  0  0  0  0  0  0  0  0
   -0.5698   -0.5967    0.0000 H   0  0  0  0  0  0  0  0  0  0  0  0
   -0.1930    0.3939    0.0000 H   0  0  0  0  0  0  0  0  0  0  0  0
    1.1431    2.6818    0.0000 H   0  0  0  0  0  0  0  0  0  0  0  0
    2.6217    2.9189    0.0000 H   0  0  0  0  0  0  0  0  0  0  0  0
    4.4785    2.9488    0.0000 H   0  0  0  0  0  0  0  0  0  0  0  0
    2.8617   -0.2951    0.0000 H   0  0  0  0  0  0  0  0  0  0  0  0
    6.5982    2.4710    0.0000 H   0  0  0  0  0  0  0  0  0  0  0  0
    4.6073    2.8608    0.0000 H   0  0  0  0  0  0  0  0  0  0  0  0
    5.3909    3.5894    0.0000 H   0  0  0  0  0  0  0  0  0  0  0  0
    5.9951    4.1512    0.0000 H   0  0  0  0  0  0  0  0  0  0  0  0
    7.0179    3.8369    0.0000 H   0  0  0  0  0  0  0  0  0  0  0  0
    7.8065    3.5945    0.0000 H   0  0  0  0  0  0  0  0  0  0  0  0
    8.0457    2.5516    0.0000 H   0  0  0  0  0  0  0  0  0  0  0  0
    8.2302    1.7475    0.0000 H   0  0  0  0  0  0  0  0  0  0  0  0
    7.4466    1.0189    0.0000 H   0  0  0  0  0  0  0  0  0  0  0  0
    6.8424    0.4571    0.0000 H   0  0  0  0  0  0  0  0  0  0  0  0
    5.8196    0.7714    0.0000 H   0  0  0  0  0  0  0  0  0  0  0  0
    6.4449    1.5552    0.0000 H   0  0  0  0  0  0  0  0  0  0  0  0
    8.2117    0.9833    0.0000 H   0  0  0  0  0  0  0  0  0  0  0  0
    7.2211   -2.0768    0.0000 H   0  0  0  0  0  0  0  0  0  0  0  0
    6.0627   -2.4164    0.0000 H   0  0  0  0  0  0  0  0  0  0  0  0
    3.2013   -0.7896    0.0000 H   0  0  0  0  0  0  0  0  0  0  0  0
    3.6088    0.1998    0.0000 H   0  0  0  0  0  0  0  0  0  0  0  0
    7.7808   -2.2925    0.0000 H   0  0  0  0  0  0  0  0  0  0  0  0
    9.5932   -1.9053    0.0000 H   0  0  0  0  0  0  0  0  0  0  0  0
    8.7988   -2.6221    0.0000 H   0  0  0  0  0  0  0  0  0  0  0  0
   -0.5632    1.3469    0.0000 H   0  0  0  0  0  0  0  0  0  0  0  0
   -0.5676   -0.5063    0.0000 H   0  0  0  0  0  0  0  0  0  0  0  0
   -1.1004    0.4216    0.0000 H   0  0  0  0  0  0  0  0  0  0  0  0
  1  2  1  0  0  0  0
  1 44  1  0  0  0  0
  1 45  1  0  0  0  0
  1 46  1  0  0  0  0
  2  3  1  0  0  0  0
  2 39  1  0  0  0  0
  3  4  1  0  0  0  0
  3 47  1  0  0  0  0
  3 48  1  0  0  0  0
  4  5  1  0  0  0  0
  4 49  1  0  0  0  0
  4 50  1  0  0  0  0
  5  6  1  0  0  0  0
  6  7  1  0  0  0  0
  6 51  1  0  0  0  0
  6 52  1  0  0  0  0
  7  8  1  0  0  0  0
  7 53  1  0  0  0  0
  7 54  1  0  0  0  0
  8  9  1  0  0  0  0
  8 43  1  0  0  0  0
  9 10  2  0  0  0  0
  9 11  2  0  0  0  0
  9 12  1  0  0  0  0
 12 13  1  0  0  0  0
 12 55  1  0  0  0  0
 13 14  2  0  0  0  0
 13 15  1  0  0  0  0
 15 16  2  0  0  0  0
 15 20  1  0  0  0  0
 16 17  1  0  0  0  0
 16 56  1  0  0  0  0
 17 18  2  0  0  0  0
 17 57  1  0  0  0  0
 18 19  1  0  0  0  0
 18 23  1  0  0  0  0
 19 20  2  0  0  0  0
 19 21  1  0  0  0  0
 20 58  1  0  0  0  0
 21 22  1  0  0  0  0
 21 38  1  0  0  0  0
 22 23  2  0  0  0  0
 22 30  1  0  0  0  0
 23 24  1  0  0  0  0
 24 25  1  0  0  0  0
 24 29  1  0  0  0  0
 24 59  1  0  0  0  0
 25 26  1  0  0  0  0
 25 60  1  0  0  0  0
 25 61  1  0  0  0  0
 26 27  1  0  0  0  0
 26 62  1  0  0  0  0
 26 63  1  0  0  0  0
 27 28  1  0  0  0  0
 27 64  1  0  0  0  0
 27 65  1  0  0  0  0
 28 29  1  0  0  0  0
 28 66  1  0  0  0  0
 28 67  1  0  0  0  0
 29 68  1  0  0  0  0
 29 69  1  0  0  0  0
 30 31  2  0  0  0  0
 30 35  1  0  0  0  0
 31 32  1  0  0  0  0
 31 70  1  0  0  0  0
 32 33  2  0  0  0  0
 32 71  1  0  0  0  0
 33 34  1  0  0  0  0
 33 41  1  0  0  0  0
 34 35  2  0  0  0  0
 34 72  1  0  0  0  0
 35 36  1  0  0  0  0
 36 37  2  0  0  0  0
 36 73  1  0  0  0  0
 37 38  1  0  0  0  0
 37 39  1  0  0  0  0
 38 74  1  0  0  0  0
 38 75  1  0  0  0  0
 39 40  2  0  0  0  0
 41 42  1  0  0  0  0
 42 76  1  0  0  0  0
 42 77  1  0  0  0  0
 42 78  1  0  0  0  0
 43 79  1  0  0  0  0
 43 80  1  0  0  0  0
 43 81  1  0  0  0  0
M  END
>  <DRUGBANK_ID>
DB11822

>  <COMMON_NAME>
TMC-647055

>  <CAS_NUMBER>
1204416-97-6

>  <UNII>
11BD024G7J

$$$$
