MDC
 OpenBabel10282417072D

 49 51  0  0  0  0  0  0  0  0999 V2000
   -4.2209    1.1299    0.0000 C   0  0  0  0  0  0  0  0  0  0  0  0
   -3.3959    1.1299    0.0000 C   0  0  0  0  0  0  0  0  0  0  0  0
   -3.1410    0.3453    0.0000 C   0  0  0  0  0  0  0  0  0  0  0  0
   -2.3564    0.0904    0.0000 O   0  0  0  0  0  0  0  0  0  0  0  0
   -3.8084   -0.1396    0.0000 N   0  0  0  0  0  0  0  0  0  0  0  0
   -4.4759    0.3453    0.0000 C   0  0  0  0  0  0  0  0  0  0  0  0
   -5.2605    0.0904    0.0000 O   0  0  0  0  0  0  0  0  0  0  0  0
   -3.8084   -0.9646    0.0000 C   0  0  0  0  0  0  0  0  0  0  0  0
   -3.0940   -1.3771    0.0000 C   0  0  0  0  0  0  0  0  0  0  0  0
   -2.3795   -0.9646    0.0000 N   0  0  0  0  0  0  0  0  0  0  0  0
   -1.6650   -1.3771    0.0000 C   0  0  0  0  0  0  0  0  0  0  0  0
   -1.6650   -2.2021    0.0000 O   0  0  0  0  0  0  0  0  0  0  0  0
   -0.2361    0.2729    0.0000 O   0  0  0  0  0  0  0  0  0  0  0  0
   -0.9505   -0.1396    0.0000 C   0  0  0  0  0  0  0  0  0  0  0  0
   -1.6650    0.2729    0.0000 O   0  0  0  0  0  0  0  0  0  0  0  0
   -0.9505   -0.9646    0.0000 C   0  0  0  0  0  0  0  0  0  0  0  0
   -0.2361   -1.3771    0.0000 C   0  0  0  0  0  0  0  0  0  0  0  0
    0.4784   -0.9646    0.0000 C   0  0  0  0  0  0  0  0  0  0  0  0
    0.4784   -0.1396    0.0000 C   0  0  0  0  0  0  0  0  0  0  0  0
    1.1929   -1.3771    0.0000 C   0  0  0  0  0  0  0  0  0  0  0  0
    1.9073   -0.9646    0.0000 C   0  0  0  0  0  0  0  0  0  0  0  0
    1.9073   -0.1396    0.0000 C   0  0  0  0  0  0  0  0  0  0  0  0
    2.6218    0.2729    0.0000 N   0  0  0  0  0  0  0  0  0  0  0  0
    1.1929    0.2729    0.0000 C   0  0  0  0  0  0  0  0  0  0  0  0
    3.3363   -0.1396    0.0000 C   0  0  0  0  0  0  0  0  0  0  0  0
    4.0508    0.2729    0.0000 C   0  0  0  0  0  0  0  0  0  0  0  0
    2.6218    1.0979    0.0000 C   0  0  0  0  0  0  0  0  0  0  0  0
    3.3363    1.5104    0.0000 C   0  0  0  0  0  0  0  0  0  0  0  0
   -4.8498    1.9956    0.0000 H   0  0  0  0  0  0  0  0  0  0  0  0
   -5.2777    0.9626    0.0000 H   0  0  0  0  0  0  0  0  0  0  0  0
   -2.7670    1.9955    0.0000 H   0  0  0  0  0  0  0  0  0  0  0  0
   -2.3391    0.9625    0.0000 H   0  0  0  0  0  0  0  0  0  0  0  0
   -4.7021   -1.4806    0.0000 H   0  0  0  0  0  0  0  0  0  0  0  0
   -3.0940   -2.4091    0.0000 H   0  0  0  0  0  0  0  0  0  0  0  0
   -2.3795    0.0199    0.0000 H   0  0  0  0  0  0  0  0  0  0  0  0
   -0.2361   -2.4091    0.0000 H   0  0  0  0  0  0  0  0  0  0  0  0
    1.1929   -2.4091    0.0000 H   0  0  0  0  0  0  0  0  0  0  0  0
    2.8010   -1.4806    0.0000 H   0  0  0  0  0  0  0  0  0  0  0  0
    1.1929    1.3049    0.0000 H   0  0  0  0  0  0  0  0  0  0  0  0
    3.3363   -1.2096    0.0000 H   0  0  0  0  0  0  0  0  0  0  0  0
    4.2629   -0.6746    0.0000 H   0  0  0  0  0  0  0  0  0  0  0  0
    4.9774   -0.2621    0.0000 H   0  0  0  0  0  0  0  0  0  0  0  0
    4.0508    1.3429    0.0000 H   0  0  0  0  0  0  0  0  0  0  0  0
    4.9775    0.8079    0.0000 H   0  0  0  0  0  0  0  0  0  0  0  0
    1.6952    1.6329    0.0000 H   0  0  0  0  0  0  0  0  0  0  0  0
    2.6218    2.1679    0.0000 H   0  0  0  0  0  0  0  0  0  0  0  0
    4.2629    0.9754    0.0000 H   0  0  0  0  0  0  0  0  0  0  0  0
    3.3363    2.5804    0.0000 H   0  0  0  0  0  0  0  0  0  0  0  0
    4.2630    2.0454    0.0000 H   0  0  0  0  0  0  0  0  0  0  0  0
  1  2  1  0  0  0  0
  1  6  1  0  0  0  0
  1 29  1  0  0  0  0
  1 30  1  0  0  0  0
  2  3  1  0  0  0  0
  2 31  1  0  0  0  0
  2 32  1  0  0  0  0
  3  4  2  0  0  0  0
  3  5  1  0  0  0  0
  5  6  1  0  0  0  0
  5  8  1  0  0  0  0
  6  7  2  0  0  0  0
  8  9  2  0  0  0  0
  8 33  1  0  0  0  0
  9 10  1  0  0  0  0
  9 34  1  0  0  0  0
 10 11  1  0  0  0  0
 10 35  1  0  0  0  0
 11 12  2  0  0  0  0
 11 16  1  0  0  0  0
 13 14  1  0  0  0  0
 13 19  1  0  0  0  0
 14 15  2  0  0  0  0
 14 16  1  0  0  0  0
 16 17  2  0  0  0  0
 17 18  1  0  0  0  0
 17 36  1  0  0  0  0
 18 19  2  0  0  0  0
 18 20  1  0  0  0  0
 19 24  1  0  0  0  0
 20 21  2  0  0  0  0
 20 37  1  0  0  0  0
 21 22  1  0  0  0  0
 21 38  1  0  0  0  0
 22 23  1  0  0  0  0
 22 24  2  0  0  0  0
 23 25  1  0  0  0  0
 23 27  1  0  0  0  0
 24 39  1  0  0  0  0
 25 26  1  0  0  0  0
 25 40  1  0  0  0  0
 25 41  1  0  0  0  0
 26 42  1  0  0  0  0
 26 43  1  0  0  0  0
 26 44  1  0  0  0  0
 27 28  1  0  0  0  0
 27 45  1  0  0  0  0
 27 46  1  0  0  0  0
 28 47  1  0  0  0  0
 28 48  1  0  0  0  0
 28 49  1  0  0  0  0
M  END
>  <DRUGBANK_ID>
DB02799

>  <SECONDARY_ACCESSION_NUMBERS>
EXPT02140

>  <COMMON_NAME>
N-[2-(1-maleimidyl)ethyl]-7-diethylaminocoumarin-3-carboxamide

$$$$
