
 OpenBabel10282417072D

 72 76  0  0  1  0  0  0  0  0999 V2000
    4.7788    2.2253    0.0000 C   0  0  0  0  0  0  0  0  0  0  0  0
    4.0428    1.8524    0.0000 C   0  0  0  0  0  0  0  0  0  0  0  0
    3.3069    1.4796    0.0000 C   0  0  0  0  0  0  0  0  0  0  0  0
    3.2618    0.6558    0.0000 C   0  0  2  0  0  0  0  0  0  0  0  0
    3.9018    0.1351    0.0000 N   0  0  0  0  0  0  0  0  0  0  0  0
    3.6044   -0.6344    0.0000 C   0  0  2  0  0  0  0  0  0  0  0  0
    2.7806   -0.5893    0.0000 C   0  0  1  0  0  0  0  0  0  0  0  0
    2.5689    0.2080    0.0000 C   0  0  2  0  0  0  0  0  0  0  0  0
    2.6140    1.0318    0.0000 C   0  0  0  0  0  0  0  0  0  0  0  0
    2.9114    1.8013    0.0000 O   0  0  0  0  0  0  0  0  0  0  0  0
    1.8444    1.3292    0.0000 N   0  0  0  0  0  0  0  0  0  0  0  0
    1.3238    0.6893    0.0000 C   0  0  0  0  0  0  0  0  0  0  0  0
    1.7715   -0.0037    0.0000 C   0  0  0  0  0  0  0  0  0  0  0  0
    1.3953   -0.7379    0.0000 C   0  0  0  0  0  0  0  0  0  0  0  0
    0.5713   -0.7792    0.0000 C   0  0  0  0  0  0  0  0  0  0  0  0
    0.1236   -0.0862    0.0000 C   0  0  0  0  0  0  0  0  0  0  0  0
    0.4998    0.6480    0.0000 C   0  0  0  0  0  0  0  0  0  0  0  0
   -0.7004   -0.1275    0.0000 Cl  0  0  0  0  0  0  0  0  0  0  0  0
    2.2599   -1.2293    0.0000 C   0  0  0  0  0  0  0  0  0  0  0  0
    1.4454   -1.0984    0.0000 C   0  0  0  0  0  0  0  0  0  0  0  0
    0.9247   -1.7383    0.0000 C   0  0  0  0  0  0  0  0  0  0  0  0
    1.2186   -2.5092    0.0000 C   0  0  0  0  0  0  0  0  0  0  0  0
    2.0332   -2.6401    0.0000 C   0  0  0  0  0  0  0  0  0  0  0  0
    2.5538   -2.0002    0.0000 C   0  0  0  0  0  0  0  0  0  0  0  0
    0.1102   -1.6074    0.0000 Cl  0  0  0  0  0  0  0  0  0  0  0  0
    0.6214   -1.1397    0.0000 F   0  0  0  0  0  0  0  0  0  0  0  0
    4.0521   -1.3273    0.0000 C   0  0  0  0  0  0  0  0  0  0  0  0
    3.6759   -2.0615    0.0000 O   0  0  0  0  0  0  0  0  0  0  0  0
    4.8761   -1.2860    0.0000 N   0  0  0  0  0  0  0  0  0  0  0  0
    5.3238   -1.9790    0.0000 C   0  0  1  0  0  0  0  0  0  0  0  0
    6.1478   -1.9377    0.0000 C   0  0  0  0  0  0  0  0  0  0  0  0
    6.5955   -2.6306    0.0000 C   0  0  0  0  0  0  0  0  0  0  0  0
    6.2193   -3.3648    0.0000 C   0  0  1  0  0  0  0  0  0  0  0  0
    5.3953   -3.4061    0.0000 C   0  0  0  0  0  0  0  0  0  0  0  0
    4.9476   -2.7132    0.0000 C   0  0  0  0  0  0  0  0  0  0  0  0
    6.6670   -4.0577    0.0000 O   0  0  0  0  0  0  0  0  0  0  0  0
    4.4157    1.1165    0.0000 C   0  0  0  0  0  0  0  0  0  0  0  0
    3.6700    2.5884    0.0000 C   0  0  0  0  0  0  0  0  0  0  0  0
    5.6748    1.6405    0.0000 H   0  0  0  0  0  0  0  0  0  0  0  0
    4.8372    3.2937    0.0000 H   0  0  0  0  0  0  0  0  0  0  0  0
    5.7333    2.7089    0.0000 H   0  0  0  0  0  0  0  0  0  0  0  0
    2.4109    2.0645    0.0000 H   0  0  0  0  0  0  0  0  0  0  0  0
    2.3524    0.9961    0.0000 H   0  0  0  0  0  0  0  0  0  0  0  0
    4.2403    1.0887    0.0000 H   0  0  0  0  0  0  0  0  0  0  0  0
    4.8876    0.3968    0.0000 H   0  0  0  0  0  0  0  0  0  0  0  0
    4.6688   -0.5250    0.0000 H   0  0  0  0  0  0  0  0  0  0  0  0
    3.2135   -1.5678    0.0000 H   0  0  0  0  0  0  0  0  0  0  0  0
    1.5917    2.2807    0.0000 H   0  0  0  0  0  0  0  0  0  0  0  0
    1.9554   -1.6047    0.0000 H   0  0  0  0  0  0  0  0  0  0  0  0
    0.1006   -1.6976    0.0000 H   0  0  0  0  0  0  0  0  0  0  0  0
   -0.0603    1.5148    0.0000 H   0  0  0  0  0  0  0  0  0  0  0  0
    0.5673   -3.3097    0.0000 H   0  0  0  0  0  0  0  0  0  0  0  0
    2.4009   -3.6044    0.0000 H   0  0  0  0  0  0  0  0  0  0  0  0
    3.5727   -2.1640    0.0000 H   0  0  0  0  0  0  0  0  0  0  0  0
    5.3251   -0.4098    0.0000 H   0  0  0  0  0  0  0  0  0  0  0  0
    5.8118   -1.0268    0.0000 H   0  0  0  0  0  0  0  0  0  0  0  0
    6.6358   -0.9854    0.0000 H   0  0  0  0  0  0  0  0  0  0  0  0
    7.2165   -1.8842    0.0000 H   0  0  0  0  0  0  0  0  0  0  0  0
    7.6642   -2.5771    0.0000 H   0  0  0  0  0  0  0  0  0  0  0  0
    7.1762   -3.5293    0.0000 H   0  0  0  0  0  0  0  0  0  0  0  0
    7.2880   -3.3113    0.0000 H   0  0  0  0  0  0  0  0  0  0  0  0
    4.9073   -4.3584    0.0000 H   0  0  0  0  0  0  0  0  0  0  0  0
    4.3266   -3.4596    0.0000 H   0  0  0  0  0  0  0  0  0  0  0  0
    3.8789   -2.7667    0.0000 H   0  0  0  0  0  0  0  0  0  0  0  0
    4.3669   -1.8145    0.0000 H   0  0  0  0  0  0  0  0  0  0  0  0
    6.2246   -4.9210    0.0000 H   0  0  0  0  0  0  0  0  0  0  0  0
    3.8309    0.2204    0.0000 H   0  0  0  0  0  0  0  0  0  0  0  0
    5.4841    1.0581    0.0000 H   0  0  0  0  0  0  0  0  0  0  0  0
    4.8993    0.1620    0.0000 H   0  0  0  0  0  0  0  0  0  0  0  0
    4.2549    3.4844    0.0000 H   0  0  0  0  0  0  0  0  0  0  0  0
    2.6016    2.6470    0.0000 H   0  0  0  0  0  0  0  0  0  0  0  0
    3.1865    3.5429    0.0000 H   0  0  0  0  0  0  0  0  0  0  0  0
  1  2  1  0  0  0  0
  1 39  1  0  0  0  0
  1 40  1  0  0  0  0
  1 41  1  0  0  0  0
  2  3  1  0  0  0  0
  2 37  1  0  0  0  0
  2 38  1  0  0  0  0
  3 42  1  0  0  0  0
  3 43  1  0  0  0  0
  4  3  1  0  0  0  0
  4  5  1  0  0  0  0
  4  8  1  0  0  0  0
  4 44  1  1  0  0  0
  5  6  1  0  0  0  0
  5 45  1  0  0  0  0
  6  7  1  0  0  0  0
  6 27  1  0  0  0  0
  6 46  1  6  0  0  0
  7  8  1  0  0  0  0
  7 19  1  0  0  0  0
  7 47  1  1  0  0  0
  8  9  1  6  0  0  0
  8 13  1  0  0  0  0
  9 10  2  0  0  0  0
  9 11  1  0  0  0  0
 11 12  1  0  0  0  0
 11 48  1  0  0  0  0
 12 13  2  0  0  0  0
 12 17  1  0  0  0  0
 13 14  1  0  0  0  0
 14 15  2  0  0  0  0
 14 49  1  0  0  0  0
 15 16  1  0  0  0  0
 15 50  1  0  0  0  0
 16 17  2  0  0  0  0
 16 18  1  0  0  0  0
 17 51  1  0  0  0  0
 19 20  2  0  0  0  0
 19 24  1  0  0  0  0
 20 21  1  0  0  0  0
 20 26  1  0  0  0  0
 21 22  2  0  0  0  0
 21 25  1  0  0  0  0
 22 23  1  0  0  0  0
 22 52  1  0  0  0  0
 23 24  2  0  0  0  0
 23 53  1  0  0  0  0
 24 54  1  0  0  0  0
 27 28  2  0  0  0  0
 27 29  1  0  0  0  0
 29 55  1  0  0  0  0
 30 29  1  0  0  0  0
 30 31  1  0  0  0  0
 30 35  1  0  0  0  0
 30 56  1  6  0  0  0
 31 32  1  0  0  0  0
 31 57  1  0  0  0  0
 31 58  1  0  0  0  0
 32 33  1  0  0  0  0
 32 59  1  0  0  0  0
 32 60  1  0  0  0  0
 33 34  1  0  0  0  0
 33 36  1  0  0  0  0
 33 61  1  1  0  0  0
 34 35  1  0  0  0  0
 34 62  1  0  0  0  0
 34 63  1  0  0  0  0
 35 64  1  0  0  0  0
 35 65  1  0  0  0  0
 36 66  1  0  0  0  0
 37 67  1  0  0  0  0
 37 68  1  0  0  0  0
 37 69  1  0  0  0  0
 38 70  1  0  0  0  0
 38 71  1  0  0  0  0
 38 72  1  0  0  0  0
M  END
>  <DRUGBANK_ID>
DB12541

>  <COMMON_NAME>
SAR-405838

>  <CAS_NUMBER>
1303607-60-4

>  <UNII>
8570LZ3RCA

$$$$
