
 OpenBabel10282417072D

 61 63  0  0  0  0  0  0  0  0999 V2000
   -5.3585    1.4437    0.0000 C   0  0  0  0  0  0  0  0  0  0  0  0
   -1.7861    2.6812    0.0000 C   0  0  0  0  0  0  0  0  0  0  0  0
   -4.6440    1.0312    0.0000 C   0  0  0  0  0  0  0  0  0  0  0  0
   -2.5006    2.2687    0.0000 C   0  0  0  0  0  0  0  0  0  0  0  0
   -3.9295    1.4437    0.0000 C   0  0  0  0  0  0  0  0  0  0  0  0
    5.3585   -2.2687    0.0000 C   0  0  0  0  0  0  0  0  0  0  0  0
    5.3585   -1.4437    0.0000 C   0  0  0  0  0  0  0  0  0  0  0  0
    4.6440   -2.6812    0.0000 C   0  0  0  0  0  0  0  0  0  0  0  0
    1.7861    2.2687    0.0000 C   0  0  0  0  0  0  0  0  0  0  0  0
    1.0717    2.6812    0.0000 C   0  0  0  0  0  0  0  0  0  0  0  0
   -3.2151    1.0312    0.0000 C   0  0  0  0  0  0  0  0  0  0  0  0
    4.6440   -1.0312    0.0000 C   0  0  0  0  0  0  0  0  0  0  0  0
    3.9295   -2.2687    0.0000 C   0  0  0  0  0  0  0  0  0  0  0  0
    1.7861    1.4437    0.0000 C   0  0  0  0  0  0  0  0  0  0  0  0
    0.3572    2.2687    0.0000 C   0  0  0  0  0  0  0  0  0  0  0  0
    3.2151   -0.2062    0.0000 C   0  0  0  0  0  0  0  0  0  0  0  0
    2.5006   -1.4437    0.0000 C   0  0  0  0  0  0  0  0  0  0  0  0
    2.5006    0.2062    0.0000 C   0  0  0  0  0  0  0  0  0  0  0  0
    1.7861   -1.0312    0.0000 C   0  0  0  0  0  0  0  0  0  0  0  0
   -1.7861    1.0312    0.0000 C   0  0  0  0  0  0  0  0  0  0  0  0
   -2.5006    1.4437    0.0000 C   0  0  3  0  0  0  0  0  0  0  0  0
    3.9295   -1.4437    0.0000 C   0  0  0  0  0  0  0  0  0  0  0  0
    3.2151   -1.0312    0.0000 C   0  0  0  0  0  0  0  0  0  0  0  0
    1.7861   -0.2062    0.0000 C   0  0  0  0  0  0  0  0  0  0  0  0
    1.0717    1.0312    0.0000 C   0  0  0  0  0  0  0  0  0  0  0  0
    0.3572    1.4437    0.0000 C   0  0  0  0  0  0  0  0  0  0  0  0
    1.0717    0.2062    0.0000 C   0  0  0  0  0  0  0  0  0  0  0  0
   -0.3572    1.0312    0.0000 C   0  0  0  0  0  0  0  0  0  0  0  0
    0.3572   -0.2062    0.0000 O   0  0  0  0  0  0  0  0  0  0  0  0
   -0.3572    0.2062    0.0000 O   0  0  0  0  0  0  0  0  0  0  0  0
   -1.0717    1.4437    0.0000 O   0  0  0  0  0  0  0  0  0  0  0  0
   -5.3585    2.5137    0.0000 H   0  0  0  0  0  0  0  0  0  0  0  0
   -6.2851    0.9087    0.0000 H   0  0  0  0  0  0  0  0  0  0  0  0
   -6.2852    1.9787    0.0000 H   0  0  0  0  0  0  0  0  0  0  0  0
   -0.8595    2.1462    0.0000 H   0  0  0  0  0  0  0  0  0  0  0  0
   -1.7861    3.7512    0.0000 H   0  0  0  0  0  0  0  0  0  0  0  0
   -0.8594    3.2162    0.0000 H   0  0  0  0  0  0  0  0  0  0  0  0
   -4.6440   -0.0388    0.0000 H   0  0  0  0  0  0  0  0  0  0  0  0
   -3.7174    0.4962    0.0000 H   0  0  0  0  0  0  0  0  0  0  0  0
   -3.4272    2.8037    0.0000 H   0  0  0  0  0  0  0  0  0  0  0  0
   -3.4272    1.7337    0.0000 H   0  0  0  0  0  0  0  0  0  0  0  0
   -3.9295    2.5137    0.0000 H   0  0  0  0  0  0  0  0  0  0  0  0
   -3.0028    1.9787    0.0000 H   0  0  0  0  0  0  0  0  0  0  0  0
    6.2522   -2.7847    0.0000 H   0  0  0  0  0  0  0  0  0  0  0  0
    6.2522   -0.9277    0.0000 H   0  0  0  0  0  0  0  0  0  0  0  0
    4.6440   -3.7132    0.0000 H   0  0  0  0  0  0  0  0  0  0  0  0
    2.6798    2.7847    0.0000 H   0  0  0  0  0  0  0  0  0  0  0  0
    1.0717    3.7132    0.0000 H   0  0  0  0  0  0  0  0  0  0  0  0
   -3.2151   -0.0388    0.0000 H   0  0  0  0  0  0  0  0  0  0  0  0
   -2.2885    0.4962    0.0000 H   0  0  0  0  0  0  0  0  0  0  0  0
    4.6440    0.0008    0.0000 H   0  0  0  0  0  0  0  0  0  0  0  0
    3.0358   -2.7847    0.0000 H   0  0  0  0  0  0  0  0  0  0  0  0
    2.6798    0.9277    0.0000 H   0  0  0  0  0  0  0  0  0  0  0  0
   -0.5365    2.7847    0.0000 H   0  0  0  0  0  0  0  0  0  0  0  0
    4.1088    0.3099    0.0000 H   0  0  0  0  0  0  0  0  0  0  0  0
    2.5006   -2.4757    0.0000 H   0  0  0  0  0  0  0  0  0  0  0  0
    2.5006    1.2382    0.0000 H   0  0  0  0  0  0  0  0  0  0  0  0
    0.8924   -1.5472    0.0000 H   0  0  0  0  0  0  0  0  0  0  0  0
   -1.7861   -0.0388    0.0000 H   0  0  0  0  0  0  0  0  0  0  0  0
   -0.8594    0.4962    0.0000 H   0  0  0  0  0  0  0  0  0  0  0  0
   -3.4272    1.9787    0.0000 H   0  0  0  0  0  0  0  0  0  0  0  0
  1 32  1  0  0  0  0
  1 33  1  0  0  0  0
  1 34  1  0  0  0  0
  2 35  1  0  0  0  0
  2 36  1  0  0  0  0
  2 37  1  0  0  0  0
  3  1  1  0  0  0  0
  3 38  1  0  0  0  0
  3 39  1  0  0  0  0
  4  2  1  0  0  0  0
  4 40  1  0  0  0  0
  4 41  1  0  0  0  0
  5  3  1  0  0  0  0
  5 42  1  0  0  0  0
  5 43  1  0  0  0  0
  6 44  1  0  0  0  0
  7  6  2  0  0  0  0
  7 45  1  0  0  0  0
  8  6  1  0  0  0  0
  8 46  1  0  0  0  0
  9 47  1  0  0  0  0
 10  9  2  0  0  0  0
 10 48  1  0  0  0  0
 11  5  1  0  0  0  0
 11 49  1  0  0  0  0
 11 50  1  0  0  0  0
 12  7  1  0  0  0  0
 12 51  1  0  0  0  0
 13  8  2  0  0  0  0
 13 52  1  0  0  0  0
 14  9  1  0  0  0  0
 14 53  1  0  0  0  0
 15 10  1  0  0  0  0
 15 54  1  0  0  0  0
 16 55  1  0  0  0  0
 17 56  1  0  0  0  0
 18 16  1  0  0  0  0
 18 57  1  0  0  0  0
 19 17  2  0  0  0  0
 19 58  1  0  0  0  0
 20 59  1  0  0  0  0
 20 60  1  0  0  0  0
 21  4  1  0  0  0  0
 21 11  1  0  0  0  0
 21 20  1  0  0  0  0
 21 61  1  0  0  0  0
 22 12  2  0  0  0  0
 22 13  1  0  0  0  0
 23 16  2  0  0  0  0
 23 17  1  0  0  0  0
 23 22  1  0  0  0  0
 24 18  2  0  0  0  0
 24 19  1  0  0  0  0
 25 14  2  0  0  0  0
 26 15  2  0  0  0  0
 26 25  1  0  0  0  0
 27 24  1  0  0  0  0
 27 25  1  0  0  0  0
 28 26  1  0  0  0  0
 29 27  2  0  0  0  0
 30 28  2  0  0  0  0
 31 20  1  0  0  0  0
 31 28  1  0  0  0  0
M  END
>  <DRUGBANK_ID>
DB14471

>  <COMMON_NAME>
2-Ethylhexyl 4-phenylbenzophenone-2'-carboxylate

>  <CAS_NUMBER>
75005-95-7

>  <UNII>
93NOD9WBCS

$$$$
