I38
 OpenBabel10282417072D

 22 21  0  0  0  0  0  0  0  0999 V2000
   -2.5839   -0.2287    0.0000 S   0  0  0  0  0  0  0  0  0  0  0  0
   -1.8693    0.1838    0.0000 C   0  0  0  0  0  0  0  0  0  0  0  0
   -1.1548   -0.2287    0.0000 C   0  0  0  0  0  0  0  0  0  0  0  0
   -0.4403    0.1838    0.0000 C   0  0  0  0  0  0  0  0  0  0  0  0
   -0.4403    1.0089    0.0000 O   0  0  0  0  0  0  0  0  0  0  0  0
    0.2742   -0.2287    0.0000 N   0  0  0  0  0  0  0  0  0  0  0  0
    0.9888    0.1838    0.0000 C   0  0  2  0  0  0  0  0  0  0  0  0
    0.9888    1.0089    0.0000 C   0  0  0  0  0  0  0  0  0  0  0  0
    1.7032   -0.2287    0.0000 C   0  0  0  0  0  0  0  0  0  0  0  0
    2.4178    0.1838    0.0000 O   0  0  0  0  0  0  0  0  0  0  0  0
    1.7032   -1.0538    0.0000 O   0  0  0  0  0  0  0  0  0  0  0  0
    0.4830    0.4758    0.0000 H   0  0  0  0  0  0  0  0  0  0  0  0
   -3.7616    0.4514    0.0000 H   0  0  0  0  0  0  0  0  0  0  0  0
   -1.8693    1.2538    0.0000 H   0  0  0  0  0  0  0  0  0  0  0  0
   -0.9426    0.7188    0.0000 H   0  0  0  0  0  0  0  0  0  0  0  0
   -1.1548   -1.2987    0.0000 H   0  0  0  0  0  0  0  0  0  0  0  0
   -0.2282   -0.7637    0.0000 H   0  0  0  0  0  0  0  0  0  0  0  0
    0.2742   -1.2132    0.0000 H   0  0  0  0  0  0  0  0  0  0  0  0
    1.9154    1.5439    0.0000 H   0  0  0  0  0  0  0  0  0  0  0  0
    0.0622    1.5439    0.0000 H   0  0  0  0  0  0  0  0  0  0  0  0
    0.9888    2.0789    0.0000 H   0  0  0  0  0  0  0  0  0  0  0  0
    0.8917   -1.5223    0.0000 H   0  0  0  0  0  0  0  0  0  0  0  0
  1  2  1  0  0  0  0
  1 13  1  0  0  0  0
  2  3  1  0  0  0  0
  2 14  1  0  0  0  0
  2 15  1  0  0  0  0
  3  4  1  0  0  0  0
  3 16  1  0  0  0  0
  3 17  1  0  0  0  0
  4  5  2  0  0  0  0
  4  6  1  0  0  0  0
  6  7  1  0  0  0  0
  6 18  1  0  0  0  0
  7  8  1  0  0  0  0
  7  9  1  0  0  0  0
  7 12  1  1  0  0  0
  8 19  1  0  0  0  0
  8 20  1  0  0  0  0
  8 21  1  0  0  0  0
  9 10  2  0  0  0  0
  9 11  1  0  0  0  0
 11 22  1  0  0  0  0
M  END
>  <DRUGBANK_ID>
DB07939

>  <COMMON_NAME>
N-(3-MERCAPTOPROPANOYL)-D-ALANINE

$$$$
