
 OpenBabel10282417072D

 29 28  0  0  0  0  0  0  0  0999 V2000
   -1.7861    0.2062    0.0000 N   0  0  0  0  0  0  0  0  0  0  0  0
    2.5007    0.2062    0.0000 C   0  0  0  0  0  0  0  0  0  0  0  0
    3.2152   -0.2062    0.0000 O   0  0  0  0  0  0  0  0  0  0  0  0
   -1.0717   -0.2062    0.0000 C   0  0  0  0  0  0  0  0  0  0  0  0
    1.7861   -0.2062    0.0000 C   0  0  1  0  0  0  0  0  0  0  0  0
    2.5007    1.0312    0.0000 O   0  0  0  0  0  0  0  0  0  0  0  0
    1.7861   -1.0312    0.0000 N   0  0  0  0  0  0  0  0  0  0  0  0
   -0.3572    0.2062    0.0000 C   0  0  0  0  0  0  0  0  0  0  0  0
    1.0717    0.2062    0.0000 C   0  0  0  0  0  0  0  0  0  0  0  0
    0.3572   -0.2062    0.0000 C   0  0  0  0  0  0  0  0  0  0  0  0
   -2.5006   -0.2062    0.0000 C   0  0  0  0  0  0  0  0  0  0  0  0
   -3.2152    0.2062    0.0000 N   0  0  0  0  0  0  0  0  0  0  0  0
   -2.5006   -1.0312    0.0000 N   0  0  0  0  0  0  0  0  0  0  0  0
   -1.7861    1.1907    0.0000 H   0  0  0  0  0  0  0  0  0  0  0  0
    3.2153   -1.1432    0.0000 H   0  0  0  0  0  0  0  0  0  0  0  0
   -1.0717   -1.2762    0.0000 H   0  0  0  0  0  0  0  0  0  0  0  0
   -0.1451   -0.7413    0.0000 H   0  0  0  0  0  0  0  0  0  0  0  0
    2.7127   -0.7413    0.0000 H   0  0  0  0  0  0  0  0  0  0  0  0
    0.9028   -1.5412    0.0000 H   0  0  0  0  0  0  0  0  0  0  0  0
    2.6694   -1.5412    0.0000 H   0  0  0  0  0  0  0  0  0  0  0  0
   -0.3572    1.2762    0.0000 H   0  0  0  0  0  0  0  0  0  0  0  0
    0.5694    0.7412    0.0000 H   0  0  0  0  0  0  0  0  0  0  0  0
    1.0717    1.2762    0.0000 H   0  0  0  0  0  0  0  0  0  0  0  0
    0.1451    0.7413    0.0000 H   0  0  0  0  0  0  0  0  0  0  0  0
    0.3572   -1.2762    0.0000 H   0  0  0  0  0  0  0  0  0  0  0  0
    1.2838   -0.7413    0.0000 H   0  0  0  0  0  0  0  0  0  0  0  0
   -3.2154    1.1907    0.0000 H   0  0  0  0  0  0  0  0  0  0  0  0
   -4.0677   -0.2862    0.0000 H   0  0  0  0  0  0  0  0  0  0  0  0
   -3.3532   -1.5234    0.0000 H   0  0  0  0  0  0  0  0  0  0  0  0
  1 11  1  0  0  0  0
  1 14  1  0  0  0  0
  3  2  1  0  0  0  0
  3 15  1  0  0  0  0
  4  1  1  0  0  0  0
  4 16  1  0  0  0  0
  4 17  1  0  0  0  0
  5  2  1  0  0  0  0
  5  7  1  0  0  0  0
  5 18  1  6  0  0  0
  6  2  2  0  0  0  0
  7 19  1  0  0  0  0
  7 20  1  0  0  0  0
  8  4  1  0  0  0  0
  8 21  1  0  0  0  0
  8 22  1  0  0  0  0
  9  5  1  0  0  0  0
  9 23  1  0  0  0  0
  9 24  1  0  0  0  0
 10  8  1  0  0  0  0
 10  9  1  0  0  0  0
 10 25  1  0  0  0  0
 10 26  1  0  0  0  0
 11 12  1  0  0  0  0
 11 13  2  0  0  0  0
 12 27  1  0  0  0  0
 12 28  1  0  0  0  0
 13 29  1  0  0  0  0
M  END
>  <DRUGBANK_ID>
DB03974

>  <SECONDARY_ACCESSION_NUMBERS>
EXPT01779

>  <COMMON_NAME>
L-homoarginine

>  <CAS_NUMBER>
156-86-5

>  <UNII>
JF751CK38I

>  <SYNONYMS>
Homo-L-arginine; Homoarginine; N6-(Aminoiminomethyl)-L-lysine; N6-amidino-L-Lysine; N6-amidino-Lysine

$$$$
