
 OpenBabel10282417072D

 42 42  0  0  0  0  0  0  0  0999 V2000
    0.0000   -1.6500    0.0000 C   0  0  0  0  0  0  0  0  0  0  0  0
    0.7145   -1.2375    0.0000 C   0  0  0  0  0  0  0  0  0  0  0  0
    1.4289   -1.6500    0.0000 C   0  0  0  0  0  0  0  0  0  0  0  0
    0.7145   -0.4125    0.0000 C   0  0  0  0  0  0  0  0  0  0  0  0
    0.0000    0.0000    0.0000 C   0  0  0  0  0  0  0  0  0  0  0  0
    0.0000    0.8250    0.0000 C   0  0  0  0  0  0  0  0  0  0  0  0
    0.7145    1.2375    0.0000 C   0  0  0  0  0  0  0  0  0  0  0  0
    1.4289    0.8250    0.0000 C   0  0  0  0  0  0  0  0  0  0  0  0
    2.1434    1.2375    0.0000 C   0  0  0  0  0  0  0  0  0  0  0  0
    2.8579    0.8250    0.0000 C   0  0  0  0  0  0  0  0  0  0  0  0
    2.1434    2.0625    0.0000 C   0  0  0  0  0  0  0  0  0  0  0  0
    1.4289    0.0000    0.0000 C   0  0  0  0  0  0  0  0  0  0  0  0
    2.1434   -0.4125    0.0000 O   0  0  0  0  0  0  0  0  0  0  0  0
    2.8579    0.0000    0.0000 C   0  0  0  0  0  0  0  0  0  0  0  0
    3.3428    0.6674    0.0000 O   0  0  0  0  0  0  0  0  0  0  0  0
    3.5724   -0.4125    0.0000 C   0  0  0  0  0  0  0  0  0  0  0  0
    4.2868    0.0000    0.0000 C   0  0  0  0  0  0  0  0  0  0  0  0
    5.0013   -0.4125    0.0000 C   0  0  0  0  0  0  0  0  0  0  0  0
    5.7158    0.0000    0.0000 O   0  0  0  0  0  0  0  0  0  0  0  0
    5.0013   -1.2375    0.0000 O   0  0  0  0  0  0  0  0  0  0  0  0
   -0.9266   -1.1150    0.0000 H   0  0  0  0  0  0  0  0  0  0  0  0
   -0.0000   -2.7200    0.0000 H   0  0  0  0  0  0  0  0  0  0  0  0
   -0.9267   -2.1850    0.0000 H   0  0  0  0  0  0  0  0  0  0  0  0
    1.6412   -0.7025    0.0000 H   0  0  0  0  0  0  0  0  0  0  0  0
    1.4289   -2.7200    0.0000 H   0  0  0  0  0  0  0  0  0  0  0  0
    2.3556   -1.1150    0.0000 H   0  0  0  0  0  0  0  0  0  0  0  0
    2.3555   -2.1850    0.0000 H   0  0  0  0  0  0  0  0  0  0  0  0
   -0.8937   -0.5160    0.0000 H   0  0  0  0  0  0  0  0  0  0  0  0
   -0.8937    1.3410    0.0000 H   0  0  0  0  0  0  0  0  0  0  0  0
    0.7145    2.2695    0.0000 H   0  0  0  0  0  0  0  0  0  0  0  0
    3.0700    1.7725    0.0000 H   0  0  0  0  0  0  0  0  0  0  0  0
    2.8579   -0.2450    0.0000 H   0  0  0  0  0  0  0  0  0  0  0  0
    3.7845    1.3600    0.0000 H   0  0  0  0  0  0  0  0  0  0  0  0
    3.7846    0.2900    0.0000 H   0  0  0  0  0  0  0  0  0  0  0  0
    3.0700    2.5975    0.0000 H   0  0  0  0  0  0  0  0  0  0  0  0
    1.2168    2.5975    0.0000 H   0  0  0  0  0  0  0  0  0  0  0  0
    2.1434    3.1325    0.0000 H   0  0  0  0  0  0  0  0  0  0  0  0
    3.5724   -1.4825    0.0000 H   0  0  0  0  0  0  0  0  0  0  0  0
    4.4991   -0.9475    0.0000 H   0  0  0  0  0  0  0  0  0  0  0  0
    4.2868    1.0700    0.0000 H   0  0  0  0  0  0  0  0  0  0  0  0
    5.2134    0.5350    0.0000 H   0  0  0  0  0  0  0  0  0  0  0  0
    6.5273   -0.4685    0.0000 H   0  0  0  0  0  0  0  0  0  0  0  0
  1  2  1  0  0  0  0
  1 21  1  0  0  0  0
  1 22  1  0  0  0  0
  1 23  1  0  0  0  0
  2  3  1  0  0  0  0
  2  4  1  0  0  0  0
  2 24  1  0  0  0  0
  3 25  1  0  0  0  0
  3 26  1  0  0  0  0
  3 27  1  0  0  0  0
  4  5  2  0  0  0  0
  4 12  1  0  0  0  0
  5  6  1  0  0  0  0
  5 28  1  0  0  0  0
  6  7  2  0  0  0  0
  6 29  1  0  0  0  0
  7  8  1  0  0  0  0
  7 30  1  0  0  0  0
  8  9  1  0  0  0  0
  8 12  2  0  0  0  0
  9 10  1  0  0  0  0
  9 11  1  0  0  0  0
  9 31  1  0  0  0  0
 10 32  1  0  0  0  0
 10 33  1  0  0  0  0
 10 34  1  0  0  0  0
 11 35  1  0  0  0  0
 11 36  1  0  0  0  0
 11 37  1  0  0  0  0
 12 13  1  0  0  0  0
 13 14  1  0  0  0  0
 14 15  2  0  0  0  0
 14 16  1  0  0  0  0
 16 17  1  0  0  0  0
 16 38  1  0  0  0  0
 16 39  1  0  0  0  0
 17 18  1  0  0  0  0
 17 40  1  0  0  0  0
 17 41  1  0  0  0  0
 18 19  1  0  0  0  0
 18 20  2  0  0  0  0
 19 42  1  0  0  0  0
M  END
>  <DRUGBANK_ID>
DB16947

>  <COMMON_NAME>
Propofol Hemisuccinate

>  <CAS_NUMBER>
184869-48-5

>  <UNII>
OIC0UYZ1W6

>  <SYNONYMS>
Butanedioic acid, 1-(2,6-bis(1-methylethyl)phenyl) ester; Succinic acid monopropofol ester

$$$$
