943
 OpenBabel10282417072D

 28 29  0  0  1  0  0  0  0  0999 V2000
    3.7465   -0.7106    0.0000 O   0  0  0  0  0  0  0  0  0  0  0  0
    3.6409   -2.9164    0.0000 O   0  0  0  0  0  0  0  0  0  0  0  0
    1.6500    0.5994    0.0000 O   0  0  0  0  0  0  0  0  0  0  0  0
    3.0791    0.5994    0.0000 N   0  0  0  0  0  0  0  0  0  0  0  0
    2.3645    1.8369    0.0000 N   0  0  0  0  0  0  0  0  0  0  0  0
    3.0791    3.0744    0.0000 N   0  0  0  0  0  0  0  0  0  0  0  0
    3.0791   -0.2256    0.0000 C   0  0  1  0  0  0  0  0  0  0  0  0
    2.4115   -0.7106    0.0000 C   0  0  0  0  0  0  0  0  0  0  0  0
    2.6665   -1.4952    0.0000 C   0  0  0  0  0  0  0  0  0  0  0  0
    3.4916   -1.4952    0.0000 C   0  0  1  0  0  0  0  0  0  0  0  0
    3.9764   -2.1627    0.0000 C   0  0  0  0  0  0  0  0  0  0  0  0
    3.7935    1.0119    0.0000 C   0  0  0  0  0  0  0  0  0  0  0  0
    2.3645    1.0119    0.0000 C   0  0  0  0  0  0  0  0  0  0  0  0
    3.7935    1.8369    0.0000 C   0  0  0  0  0  0  0  0  0  0  0  0
    3.0791    2.2494    0.0000 C   0  0  0  0  0  0  0  0  0  0  0  0
    2.6762   -3.0179    0.0000 H   0  0  0  0  0  0  0  0  0  0  0  0
    3.9317    3.5667    0.0000 H   0  0  0  0  0  0  0  0  0  0  0  0
    2.2265    3.5666    0.0000 H   0  0  0  0  0  0  0  0  0  0  0  0
    4.0325    0.2601    0.0000 H   0  0  0  0  0  0  0  0  0  0  0  0
    1.3939   -0.3800    0.0000 H   0  0  0  0  0  0  0  0  0  0  0  0
    1.6549   -1.4672    0.0000 H   0  0  0  0  0  0  0  0  0  0  0  0
    2.0376   -2.3609    0.0000 H   0  0  0  0  0  0  0  0  0  0  0  0
    3.1523   -2.4486    0.0000 H   0  0  0  0  0  0  0  0  0  0  0  0
    4.5484   -1.3279    0.0000 H   0  0  0  0  0  0  0  0  0  0  0  0
    5.0405   -2.0509    0.0000 H   0  0  0  0  0  0  0  0  0  0  0  0
    4.4117   -1.1853    0.0000 H   0  0  0  0  0  0  0  0  0  0  0  0
    4.6872    0.4959    0.0000 H   0  0  0  0  0  0  0  0  0  0  0  0
    4.6872    2.3529    0.0000 H   0  0  0  0  0  0  0  0  0  0  0  0
  1  7  1  0  0  0  0
  1 10  1  0  0  0  0
  2 11  1  0  0  0  0
  2 16  1  0  0  0  0
  3 13  2  0  0  0  0
  4 12  1  0  0  0  0
  4 13  1  0  0  0  0
  5 13  1  0  0  0  0
  5 15  2  0  0  0  0
  6 15  1  0  0  0  0
  6 17  1  0  0  0  0
  6 18  1  0  0  0  0
  7  4  1  0  0  0  0
  7  8  1  0  0  0  0
  7 19  1  1  0  0  0
  8  9  1  0  0  0  0
  8 20  1  0  0  0  0
  8 21  1  0  0  0  0
  9 10  1  0  0  0  0
  9 22  1  0  0  0  0
  9 23  1  0  0  0  0
 10 11  1  0  0  0  0
 10 24  1  1  0  0  0
 11 25  1  0  0  0  0
 11 26  1  0  0  0  0
 12 14  2  0  0  0  0
 12 27  1  0  0  0  0
 14 15  1  0  0  0  0
 14 28  1  0  0  0  0
M  END
>  <DRUGBANK_ID>
DB00943

>  <SECONDARY_ACCESSION_NUMBERS>
APRD00562

>  <COMMON_NAME>
Zalcitabine

>  <CAS_NUMBER>
7481-89-2

>  <UNII>
6L3XT8CB3I

>  <SYNONYMS>
2',3'-Dideoxycytidine; 4-amino-1-[(2R,5S)-5-(hydroxymethyl)tetrahydrofuran-2-yl]pyrimidin-2(1H)-one; DDC; DDCYD; Dideoxycytidine; Zalcitabine

$$$$
