
 OpenBabel10282417072D

 48 51  0  0  1  0  0  0  0  0999 V2000
    1.6500   -4.2426    0.0000 I   0  0  0  0  0  0  0  0  0  0  0  0
    6.3300    1.9967    0.0000 O   0  0  0  0  0  0  0  0  0  0  0  0
    4.2361    2.4128    0.0000 O   0  0  0  0  0  0  0  0  0  0  0  0
    5.2936    3.8630    0.0000 O   0  0  0  0  0  0  0  0  0  0  0  0
    6.9149    4.1261    0.0000 O   0  0  0  0  0  0  0  0  0  0  0  0
    5.2886    0.9589    0.0000 N   0  0  0  0  0  0  0  0  0  0  0  0
    5.2886   -0.3689    0.0000 N   0  0  0  0  0  0  0  0  0  0  0  0
    7.7528    2.9686    0.0000 N   0  0  0  0  0  0  0  0  0  0  0  0
    3.7935    1.1200    0.0000 N   0  0  0  0  0  0  0  0  0  0  0  0
    3.7935   -1.3551    0.0000 N   0  0  0  0  0  0  0  0  0  0  0  0
    3.0790   -0.1176    0.0000 N   0  0  0  0  0  0  0  0  0  0  0  0
    5.0611    2.4114    0.0000 C   0  0  1  0  0  0  0  0  0  0  0  0
    5.5449    1.7431    0.0000 C   0  0  1  0  0  0  0  0  0  0  0  0
    5.5472    3.0780    0.0000 C   0  0  1  0  0  0  0  0  0  0  0  0
    6.3314    2.8217    0.0000 C   0  0  1  0  0  0  0  0  0  0  0  0
    6.9997    3.3055    0.0000 C   0  0  0  0  0  0  0  0  0  0  0  0
    4.5080    0.7074    0.0000 C   0  0  0  0  0  0  0  0  0  0  0  0
    5.7701    0.2949    0.0000 C   0  0  0  0  0  0  0  0  0  0  0  0
    4.5080   -0.1176    0.0000 C   0  0  0  0  0  0  0  0  0  0  0  0
    3.7935   -0.5301    0.0000 C   0  0  0  0  0  0  0  0  0  0  0  0
    8.4211    3.4524    0.0000 C   0  0  0  0  0  0  0  0  0  0  0  0
    3.0790    0.7074    0.0000 C   0  0  0  0  0  0  0  0  0  0  0  0
    3.0790   -1.7676    0.0000 C   0  0  0  0  0  0  0  0  0  0  0  0
    3.0790   -2.5926    0.0000 C   0  0  0  0  0  0  0  0  0  0  0  0
    2.3645   -3.0051    0.0000 C   0  0  0  0  0  0  0  0  0  0  0  0
    3.7935   -3.0051    0.0000 C   0  0  0  0  0  0  0  0  0  0  0  0
    2.3645   -3.8301    0.0000 C   0  0  0  0  0  0  0  0  0  0  0  0
    3.7935   -3.8301    0.0000 C   0  0  0  0  0  0  0  0  0  0  0  0
    3.0790   -4.2426    0.0000 C   0  0  0  0  0  0  0  0  0  0  0  0
    3.7525    3.2537    0.0000 H   0  0  0  0  0  0  0  0  0  0  0  0
    5.9439    4.5828    0.0000 H   0  0  0  0  0  0  0  0  0  0  0  0
    7.8540    1.9893    0.0000 H   0  0  0  0  0  0  0  0  0  0  0  0
    4.6461   -1.8474    0.0000 H   0  0  0  0  0  0  0  0  0  0  0  0
    4.5737    1.4589    0.0000 H   0  0  0  0  0  0  0  0  0  0  0  0
    6.3002    0.9852    0.0000 H   0  0  0  0  0  0  0  0  0  0  0  0
    4.4907    3.2472    0.0000 H   0  0  0  0  0  0  0  0  0  0  0  0
    7.2839    2.3343    0.0000 H   0  0  0  0  0  0  0  0  0  0  0  0
    6.8021    0.2948    0.0000 H   0  0  0  0  0  0  0  0  0  0  0  0
    9.3978    3.0155    0.0000 H   0  0  0  0  0  0  0  0  0  0  0  0
    8.3111    4.5167    0.0000 H   0  0  0  0  0  0  0  0  0  0  0  0
    9.2878    4.0798    0.0000 H   0  0  0  0  0  0  0  0  0  0  0  0
    2.1852    1.2234    0.0000 H   0  0  0  0  0  0  0  0  0  0  0  0
    2.1524   -1.2326    0.0000 H   0  0  0  0  0  0  0  0  0  0  0  0
    2.1524   -2.3026    0.0000 H   0  0  0  0  0  0  0  0  0  0  0  0
    1.4708   -2.4891    0.0000 H   0  0  0  0  0  0  0  0  0  0  0  0
    4.6872   -2.4891    0.0000 H   0  0  0  0  0  0  0  0  0  0  0  0
    4.6872   -4.3461    0.0000 H   0  0  0  0  0  0  0  0  0  0  0  0
    3.0790   -5.2746    0.0000 H   0  0  0  0  0  0  0  0  0  0  0  0
  1 27  1  0  0  0  0
  2 13  1  0  0  0  0
  2 15  1  0  0  0  0
  3 30  1  0  0  0  0
  4 31  1  0  0  0  0
  5 16  2  0  0  0  0
  6 17  1  0  0  0  0
  6 18  1  0  0  0  0
  7 18  2  0  0  0  0
  7 19  1  0  0  0  0
  8 16  1  0  0  0  0
  8 21  1  0  0  0  0
  8 32  1  0  0  0  0
  9 17  2  0  0  0  0
  9 22  1  0  0  0  0
 10 20  1  0  0  0  0
 10 23  1  0  0  0  0
 10 33  1  0  0  0  0
 11 20  1  0  0  0  0
 11 22  2  0  0  0  0
 12  3  1  0  0  0  0
 12 13  1  0  0  0  0
 12 14  1  0  0  0  0
 12 34  1  1  0  0  0
 13  6  1  0  0  0  0
 13 35  1  6  0  0  0
 14  4  1  0  0  0  0
 14 15  1  0  0  0  0
 14 36  1  1  0  0  0
 15 16  1  0  0  0  0
 15 37  1  6  0  0  0
 17 19  1  0  0  0  0
 18 38  1  0  0  0  0
 19 20  2  0  0  0  0
 21 39  1  0  0  0  0
 21 40  1  0  0  0  0
 21 41  1  0  0  0  0
 22 42  1  0  0  0  0
 23 24  1  0  0  0  0
 23 43  1  0  0  0  0
 23 44  1  0  0  0  0
 24 25  2  0  0  0  0
 24 26  1  0  0  0  0
 25 27  1  0  0  0  0
 25 45  1  0  0  0  0
 26 28  2  0  0  0  0
 26 46  1  0  0  0  0
 27 29  2  0  0  0  0
 28 29  1  0  0  0  0
 28 47  1  0  0  0  0
 29 48  1  0  0  0  0
M  END
>  <DRUGBANK_ID>
DB05511

>  <COMMON_NAME>
Piclidenoson

>  <CAS_NUMBER>
152918-18-8

>  <UNII>
30679UMI0N

>  <SYNONYMS>
Piclidenoson

$$$$
