
 OpenBabel10282417072D

 82 85  0  0  1  0  0  0  0  0999 V2000
   -3.6685   -0.7421    0.0000 C   0  0  0  0  0  0  0  0  0  0  0  0
   -3.1165   -0.1290    0.0000 C   0  0  0  0  0  0  0  0  0  0  0  0
   -3.7295    0.4230    0.0000 C   0  0  0  0  0  0  0  0  0  0  0  0
   -2.5644    0.4841    0.0000 C   0  0  0  0  0  0  0  0  0  0  0  0
   -2.8194    1.2687    0.0000 O   0  0  0  0  0  0  0  0  0  0  0  0
   -1.7575    0.3126    0.0000 N   0  0  0  0  0  0  0  0  0  0  0  0
   -1.2054    0.9256    0.0000 C   0  0  2  0  0  0  0  0  0  0  0  0
   -0.3984    0.7541    0.0000 C   0  0  0  0  0  0  0  0  0  0  0  0
   -0.1435   -0.0305    0.0000 C   0  0  0  0  0  0  0  0  0  0  0  0
   -0.6284   -0.6979    0.0000 C   0  0  0  0  0  0  0  0  0  0  0  0
   -0.1435   -1.3654    0.0000 N   0  0  0  0  0  0  0  0  0  0  0  0
    0.6411   -1.1104    0.0000 C   0  0  0  0  0  0  0  0  0  0  0  0
    0.6411   -0.2854    0.0000 C   0  0  0  0  0  0  0  0  0  0  0  0
    1.3556    0.1271    0.0000 C   0  0  0  0  0  0  0  0  0  0  0  0
    2.0701   -0.2854    0.0000 C   0  0  0  0  0  0  0  0  0  0  0  0
    2.0701   -1.1104    0.0000 C   0  0  0  0  0  0  0  0  0  0  0  0
    1.3556   -1.5229    0.0000 C   0  0  0  0  0  0  0  0  0  0  0  0
   -1.4604    1.7103    0.0000 C   0  0  0  0  0  0  0  0  0  0  0  0
   -2.2673    1.8818    0.0000 O   0  0  0  0  0  0  0  0  0  0  0  0
   -0.9083    2.3234    0.0000 N   0  0  0  0  0  0  0  0  0  0  0  0
   -0.1014    2.1518    0.0000 C   0  0  0  0  0  0  0  0  0  0  0  0
    0.4507    2.7649    0.0000 C   0  0  0  0  0  0  0  0  0  0  0  0
    0.1957    3.5496    0.0000 C   0  0  0  0  0  0  0  0  0  0  0  0
   -0.6112    3.7211    0.0000 C   0  0  2  0  0  0  0  0  0  0  0  0
   -1.1633    3.1080    0.0000 C   0  0  0  0  0  0  0  0  0  0  0  0
   -0.4680    4.5335    0.0000 C   0  0  0  0  0  0  0  0  0  0  0  0
    0.3073    4.8157    0.0000 C   0  0  0  0  0  0  0  0  0  0  0  0
    0.4505    5.6282    0.0000 C   0  0  0  0  0  0  0  0  0  0  0  0
    1.2258    5.9103    0.0000 C   0  0  0  0  0  0  0  0  0  0  0  0
    1.8578    5.3800    0.0000 C   0  0  0  0  0  0  0  0  0  0  0  0
    1.7145    4.5676    0.0000 C   0  0  0  0  0  0  0  0  0  0  0  0
    0.9393    4.2854    0.0000 C   0  0  0  0  0  0  0  0  0  0  0  0
   -1.2047    4.2942    0.0000 C   0  0  0  0  0  0  0  0  0  0  0  0
   -1.9977    4.0668    0.0000 O   0  0  0  0  0  0  0  0  0  0  0  0
   -1.0051    5.0947    0.0000 N   0  0  0  0  0  0  0  0  0  0  0  0
   -0.2121    5.3221    0.0000 C   0  0  0  0  0  0  0  0  0  0  0  0
   -1.5986    5.6678    0.0000 N   0  0  0  0  0  0  0  0  0  0  0  0
   -1.3990    6.4683    0.0000 C   0  0  0  0  0  0  0  0  0  0  0  0
   -2.3916    5.4404    0.0000 C   0  0  0  0  0  0  0  0  0  0  0  0
   -2.5034   -0.6810    0.0000 N   0  0  0  0  0  0  0  0  0  0  0  0
   -4.7151   -0.5197    0.0000 H   0  0  0  0  0  0  0  0  0  0  0  0
   -3.3378   -1.7597    0.0000 H   0  0  0  0  0  0  0  0  0  0  0  0
   -4.3844   -1.5373    0.0000 H   0  0  0  0  0  0  0  0  0  0  0  0
   -3.5070    1.4696    0.0000 H   0  0  0  0  0  0  0  0  0  0  0  0
   -4.7471    0.0924    0.0000 H   0  0  0  0  0  0  0  0  0  0  0  0
   -4.5246    1.1390    0.0000 H   0  0  0  0  0  0  0  0  0  0  0  0
   -1.4533   -0.6237    0.0000 H   0  0  0  0  0  0  0  0  0  0  0  0
   -0.8748   -0.0920    0.0000 H   0  0  0  0  0  0  0  0  0  0  0  0
    0.3176    1.5493    0.0000 H   0  0  0  0  0  0  0  0  0  0  0  0
    0.6482    0.5316    0.0000 H   0  0  0  0  0  0  0  0  0  0  0  0
   -1.6604   -0.6979    0.0000 H   0  0  0  0  0  0  0  0  0  0  0  0
   -0.4477   -2.3017    0.0000 H   0  0  0  0  0  0  0  0  0  0  0  0
    1.3556    1.1591    0.0000 H   0  0  0  0  0  0  0  0  0  0  0  0
    2.9638    0.2306    0.0000 H   0  0  0  0  0  0  0  0  0  0  0  0
    2.9638   -1.6264    0.0000 H   0  0  0  0  0  0  0  0  0  0  0  0
    1.3556   -2.5549    0.0000 H   0  0  0  0  0  0  0  0  0  0  0  0
    0.2292    1.1341    0.0000 H   0  0  0  0  0  0  0  0  0  0  0  0
    0.9452    1.9293    0.0000 H   0  0  0  0  0  0  0  0  0  0  0  0
    1.4973    2.5424    0.0000 H   0  0  0  0  0  0  0  0  0  0  0  0
    1.1667    3.5601    0.0000 H   0  0  0  0  0  0  0  0  0  0  0  0
    0.9116    4.3448    0.0000 H   0  0  0  0  0  0  0  0  0  0  0  0
   -0.1350    4.5672    0.0000 H   0  0  0  0  0  0  0  0  0  0  0  0
   -2.2099    3.3305    0.0000 H   0  0  0  0  0  0  0  0  0  0  0  0
   -1.8792    2.3128    0.0000 H   0  0  0  0  0  0  0  0  0  0  0  0
   -1.2877    5.2213    0.0000 H   0  0  0  0  0  0  0  0  0  0  0  0
   -0.2822    5.5872    0.0000 H   0  0  0  0  0  0  0  0  0  0  0  0
   -0.3401    6.2916    0.0000 H   0  0  0  0  0  0  0  0  0  0  0  0
    1.4050    6.9266    0.0000 H   0  0  0  0  0  0  0  0  0  0  0  0
    2.8276    5.7329    0.0000 H   0  0  0  0  0  0  0  0  0  0  0  0
    2.5051    3.9042    0.0000 H   0  0  0  0  0  0  0  0  0  0  0  0
    0.7601    3.2691    0.0000 H   0  0  0  0  0  0  0  0  0  0  0  0
    0.5576    4.5788    0.0000 H   0  0  0  0  0  0  0  0  0  0  0  0
    0.0467    6.3603    0.0000 H   0  0  0  0  0  0  0  0  0  0  0  0
    0.8164    5.6170    0.0000 H   0  0  0  0  0  0  0  0  0  0  0  0
   -0.3704    6.7632    0.0000 H   0  0  0  0  0  0  0  0  0  0  0  0
   -2.1687    7.2116    0.0000 H   0  0  0  0  0  0  0  0  0  0  0  0
   -1.1401    7.5065    0.0000 H   0  0  0  0  0  0  0  0  0  0  0  0
   -3.1613    6.1837    0.0000 H   0  0  0  0  0  0  0  0  0  0  0  0
   -2.6504    4.4022    0.0000 H   0  0  0  0  0  0  0  0  0  0  0  0
   -3.4201    5.1455    0.0000 H   0  0  0  0  0  0  0  0  0  0  0  0
   -2.7154   -1.6787    0.0000 H   0  0  0  0  0  0  0  0  0  0  0  0
   -1.5333   -0.3658    0.0000 H   0  0  0  0  0  0  0  0  0  0  0  0
  1  2  1  0  0  0  0
  1 41  1  0  0  0  0
  1 42  1  0  0  0  0
  1 43  1  0  0  0  0
  2  3  1  0  0  0  0
  2  4  1  0  0  0  0
  2 40  1  0  0  0  0
  3 44  1  0  0  0  0
  3 45  1  0  0  0  0
  3 46  1  0  0  0  0
  4  5  2  0  0  0  0
  4  6  1  0  0  0  0
  6 47  1  0  0  0  0
  7  6  1  0  0  0  0
  7  8  1  0  0  0  0
  7 18  1  0  0  0  0
  7 48  1  6  0  0  0
  8  9  1  0  0  0  0
  8 49  1  0  0  0  0
  8 50  1  0  0  0  0
  9 10  2  0  0  0  0
  9 13  1  0  0  0  0
 10 11  1  0  0  0  0
 10 51  1  0  0  0  0
 11 12  1  0  0  0  0
 11 52  1  0  0  0  0
 12 13  1  0  0  0  0
 12 17  2  0  0  0  0
 13 14  2  0  0  0  0
 14 15  1  0  0  0  0
 14 53  1  0  0  0  0
 15 16  2  0  0  0  0
 15 54  1  0  0  0  0
 16 17  1  0  0  0  0
 16 55  1  0  0  0  0
 17 56  1  0  0  0  0
 18 19  2  0  0  0  0
 18 20  1  0  0  0  0
 20 21  1  0  0  0  0
 20 25  1  0  0  0  0
 21 22  1  0  0  0  0
 21 57  1  0  0  0  0
 21 58  1  0  0  0  0
 22 23  1  0  0  0  0
 22 59  1  0  0  0  0
 22 60  1  0  0  0  0
 23 24  1  0  0  0  0
 23 61  1  0  0  0  0
 23 62  1  0  0  0  0
 24 25  1  0  0  0  0
 24 26  1  0  0  0  0
 24 33  1  1  0  0  0
 25 63  1  0  0  0  0
 25 64  1  0  0  0  0
 26 27  1  0  0  0  0
 26 65  1  0  0  0  0
 26 66  1  0  0  0  0
 27 28  2  0  0  0  0
 27 32  1  0  0  0  0
 28 29  1  0  0  0  0
 28 67  1  0  0  0  0
 29 30  2  0  0  0  0
 29 68  1  0  0  0  0
 30 31  1  0  0  0  0
 30 69  1  0  0  0  0
 31 32  2  0  0  0  0
 31 70  1  0  0  0  0
 32 71  1  0  0  0  0
 33 34  2  0  0  0  0
 33 35  1  0  0  0  0
 35 36  1  0  0  0  0
 35 37  1  0  0  0  0
 36 72  1  0  0  0  0
 36 73  1  0  0  0  0
 36 74  1  0  0  0  0
 37 38  1  0  0  0  0
 37 39  1  0  0  0  0
 38 75  1  0  0  0  0
 38 76  1  0  0  0  0
 38 77  1  0  0  0  0
 39 78  1  0  0  0  0
 39 79  1  0  0  0  0
 39 80  1  0  0  0  0
 40 81  1  0  0  0  0
 40 82  1  0  0  0  0
M  END
>  <DRUGBANK_ID>
DB06645

>  <COMMON_NAME>
Anamorelin

>  <CAS_NUMBER>
249921-19-5

>  <UNII>
DD5RBA1NKF

>  <SYNONYMS>
Anamorelin

$$$$
