
 OpenBabel10282417072D

 53 53  0  0  0  0  0  0  0  0999 V2000
    0.3574    1.6458    0.0000 C   0  0  0  0  0  0  0  0  0  0  0  0
   -0.3576    2.0574    0.0000 N   0  0  0  0  0  0  0  0  0  0  0  0
    1.0714    2.0592    0.0000 O   0  0  0  0  0  0  0  0  0  0  0  0
    0.3580    0.8249    0.0000 C   0  0  0  0  0  0  0  0  0  0  0  0
   -0.3586    0.4123    0.0000 C   0  0  0  0  0  0  0  0  0  0  0  0
   -0.3586   -0.4127    0.0000 C   0  0  0  0  0  0  0  0  0  0  0  0
    0.3575   -0.8253    0.0000 C   0  0  0  0  0  0  0  0  0  0  0  0
    1.0696   -0.4127    0.0000 C   0  0  0  0  0  0  0  0  0  0  0  0
    1.0696    0.4123    0.0000 C   0  0  0  0  0  0  0  0  0  0  0  0
    0.3585   -1.6503    0.0000 I   0  0  0  0  0  0  0  0  0  0  0  0
    1.7844    0.8243    0.0000 I   0  0  0  0  0  0  0  0  0  0  0  0
   -1.0730    0.8252    0.0000 I   0  0  0  0  0  0  0  0  0  0  0  0
    1.7844   -0.8248    0.0000 C   0  0  0  0  0  0  0  0  0  0  0  0
    1.7808   -1.6488    0.0000 N   0  0  0  0  0  0  0  0  0  0  0  0
    2.4922   -2.0637    0.0000 C   0  0  0  0  0  0  0  0  0  0  0  0
    2.4885   -2.8872    0.0000 C   0  0  0  0  0  0  0  0  0  0  0  0
    2.4997   -0.4136    0.0000 O   0  0  0  0  0  0  0  0  0  0  0  0
    1.7735   -3.2958    0.0000 O   0  0  0  0  0  0  0  0  0  0  0  0
   -1.0711   -0.8253    0.0000 N   0  0  0  0  0  0  0  0  0  0  0  0
   -1.7847   -0.4144    0.0000 C   0  0  0  0  0  0  0  0  0  0  0  0
   -2.4972   -0.8270    0.0000 C   0  0  1  0  0  0  0  0  0  0  0  0
    3.2070   -1.6551    0.0000 C   0  0  0  0  0  0  0  0  0  0  0  0
   -1.7857    0.4088    0.0000 O   0  0  0  0  0  0  0  0  0  0  0  0
   -0.3586    2.8824    0.0000 C   0  0  0  0  0  0  0  0  0  0  0  0
   -1.0737    3.2941    0.0000 C   0  0  0  0  0  0  0  0  0  0  0  0
    0.3553    3.2958    0.0000 C   0  0  0  0  0  0  0  0  0  0  0  0
    1.0704    2.8842    0.0000 O   0  0  0  0  0  0  0  0  0  0  0  0
   -2.4962   -1.6503    0.0000 O   0  0  0  0  0  0  0  0  0  0  0  0
   -3.2107   -0.4161    0.0000 C   0  0  0  0  0  0  0  0  0  0  0  0
   -1.7878    2.8806    0.0000 O   0  0  0  0  0  0  0  0  0  0  0  0
    3.2107   -0.8317    0.0000 O   0  0  0  0  0  0  0  0  0  0  0  0
   -1.2096    1.5641    0.0000 H   0  0  0  0  0  0  0  0  0  0  0  0
    0.9261   -2.1373    0.0000 H   0  0  0  0  0  0  0  0  0  0  0  0
    3.4165   -2.6028    0.0000 H   0  0  0  0  0  0  0  0  0  0  0  0
    3.4128   -3.4263    0.0000 H   0  0  0  0  0  0  0  0  0  0  0  0
    2.4837   -3.9572    0.0000 H   0  0  0  0  0  0  0  0  0  0  0  0
    0.9356   -2.8071    0.0000 H   0  0  0  0  0  0  0  0  0  0  0  0
   -1.0699   -1.8098    0.0000 H   0  0  0  0  0  0  0  0  0  0  0  0
   -1.5699   -1.3608    0.0000 H   0  0  0  0  0  0  0  0  0  0  0  0
    4.1313   -2.1942    0.0000 H   0  0  0  0  0  0  0  0  0  0  0  0
    4.1360   -1.1242    0.0000 H   0  0  0  0  0  0  0  0  0  0  0  0
   -0.3599    3.9524    0.0000 H   0  0  0  0  0  0  0  0  0  0  0  0
   -1.0750    4.3641    0.0000 H   0  0  0  0  0  0  0  0  0  0  0  0
   -2.0010    3.8279    0.0000 H   0  0  0  0  0  0  0  0  0  0  0  0
    0.3539    4.3658    0.0000 H   0  0  0  0  0  0  0  0  0  0  0  0
    1.2812    3.8320    0.0000 H   0  0  0  0  0  0  0  0  0  0  0  0
    1.0717    1.9142    0.0000 H   0  0  0  0  0  0  0  0  0  0  0  0
   -3.3357   -2.1363    0.0000 H   0  0  0  0  0  0  0  0  0  0  0  0
   -3.2119    0.6539    0.0000 H   0  0  0  0  0  0  0  0  0  0  0  0
   -4.1368   -0.9521    0.0000 H   0  0  0  0  0  0  0  0  0  0  0  0
   -4.1379    0.1179    0.0000 H   0  0  0  0  0  0  0  0  0  0  0  0
   -2.6285    3.3645    0.0000 H   0  0  0  0  0  0  0  0  0  0  0  0
    4.0529   -0.3505    0.0000 H   0  0  0  0  0  0  0  0  0  0  0  0
  1  2  1  0  0  0  0
  1  3  2  0  0  0  0
  2 24  1  0  0  0  0
  2 32  1  0  0  0  0
  4  5  1  0  0  0  0
  4  1  1  0  0  0  0
  5  6  2  0  0  0  0
  5 12  1  0  0  0  0
  6  7  1  0  0  0  0
  6 19  1  0  0  0  0
  7  8  2  0  0  0  0
  7 10  1  0  0  0  0
  8 13  1  0  0  0  0
  8  9  1  0  0  0  0
  9  4  2  0  0  0  0
  9 11  1  0  0  0  0
 13 14  1  0  0  0  0
 13 17  2  0  0  0  0
 14 15  1  0  0  0  0
 14 33  1  0  0  0  0
 15 16  1  0  0  0  0
 15 22  1  0  0  0  0
 15 34  1  0  0  0  0
 16 18  1  0  0  0  0
 16 35  1  0  0  0  0
 16 36  1  0  0  0  0
 18 37  1  0  0  0  0
 19 20  1  0  0  0  0
 19 38  1  0  0  0  0
 20 21  1  0  0  0  0
 20 23  2  0  0  0  0
 21 28  1  0  0  0  0
 21 29  1  0  0  0  0
 21 39  1  6  0  0  0
 22 31  1  0  0  0  0
 22 40  1  0  0  0  0
 22 41  1  0  0  0  0
 24 25  1  0  0  0  0
 24 26  1  0  0  0  0
 24 42  1  0  0  0  0
 25 30  1  0  0  0  0
 25 43  1  0  0  0  0
 25 44  1  0  0  0  0
 26 27  1  0  0  0  0
 26 45  1  0  0  0  0
 26 46  1  0  0  0  0
 27 47  1  0  0  0  0
 28 48  1  0  0  0  0
 29 49  1  0  0  0  0
 29 50  1  0  0  0  0
 29 51  1  0  0  0  0
 30 52  1  0  0  0  0
 31 53  1  0  0  0  0
M  END
>  <DRUGBANK_ID>
DB08947

>  <COMMON_NAME>
Iopamidol

>  <CAS_NUMBER>
60166-93-0

>  <UNII>
JR13W81H44

>  <SYNONYMS>
Iopamidol; Iopamidolum

$$$$
