
 OpenBabel10282417072D

 62 63  0  0  0  0  0  0  0  0999 V2000
   -1.4289    0.2062    0.0000 O   0  0  0  0  0  0  0  0  0  0  0  0
   -2.8579    1.0312    0.0000 O   0  0  0  0  0  0  0  0  0  0  0  0
   -3.5724   -0.2062    0.0000 O   0  0  0  0  0  0  0  0  0  0  0  0
   -0.7145   -1.0312    0.0000 N   0  0  0  0  0  0  0  0  0  0  0  0
   -1.4289   -1.4437    0.0000 C   0  0  2  0  0  0  0  0  0  0  0  0
   -1.4289   -2.2687    0.0000 C   0  0  0  0  0  0  0  0  0  0  0  0
   -2.1434   -1.0312    0.0000 C   0  0  0  0  0  0  0  0  0  0  0  0
   -2.1434   -2.6813    0.0000 C   0  0  0  0  0  0  0  0  0  0  0  0
    0.7145    1.4437    0.0000 C   0  0  0  0  0  0  0  0  0  0  0  0
    0.0000    1.0312    0.0000 C   0  0  0  0  0  0  0  0  0  0  0  0
    0.0000    0.2062    0.0000 C   0  0  0  0  0  0  0  0  0  0  0  0
    0.7145    2.2687    0.0000 C   0  0  0  0  0  0  0  0  0  0  0  0
   -2.1434   -0.2062    0.0000 C   0  0  0  0  0  0  0  0  0  0  0  0
   -0.7145   -0.2062    0.0000 C   0  0  0  0  0  0  0  0  0  0  0  0
    1.4289    2.6813    0.0000 C   0  0  0  0  0  0  0  0  0  0  0  0
   -2.1434   -3.5063    0.0000 C   0  0  0  0  0  0  0  0  0  0  0  0
    1.4289    3.5063    0.0000 C   0  0  0  0  0  0  0  0  0  0  0  0
    2.1434    3.9188    0.0000 C   0  0  0  0  0  0  0  0  0  0  0  0
   -2.8579    0.2062    0.0000 C   0  0  0  0  0  0  0  0  0  0  0  0
   -1.4289   -3.9188    0.0000 C   0  0  0  0  0  0  0  0  0  0  0  0
   -2.8579   -3.9188    0.0000 C   0  0  0  0  0  0  0  0  0  0  0  0
    2.1434    4.7438    0.0000 C   0  0  0  0  0  0  0  0  0  0  0  0
    2.8579    3.5063    0.0000 C   0  0  0  0  0  0  0  0  0  0  0  0
   -1.4289   -4.7438    0.0000 C   0  0  0  0  0  0  0  0  0  0  0  0
   -2.8579   -4.7438    0.0000 C   0  0  0  0  0  0  0  0  0  0  0  0
   -2.1434   -5.1563    0.0000 C   0  0  0  0  0  0  0  0  0  0  0  0
    2.8579    5.1563    0.0000 C   0  0  0  0  0  0  0  0  0  0  0  0
    3.5724    3.9188    0.0000 C   0  0  0  0  0  0  0  0  0  0  0  0
    3.5724    4.7438    0.0000 C   0  0  0  0  0  0  0  0  0  0  0  0
   -0.2715   -1.2870    0.0000 H   0  0  0  0  0  0  0  0  0  0  0  0
   -2.0464    1.4997    0.0000 H   0  0  0  0  0  0  0  0  0  0  0  0
   -0.5022   -1.9787    0.0000 H   0  0  0  0  0  0  0  0  0  0  0  0
   -0.5022   -2.8037    0.0000 H   0  0  0  0  0  0  0  0  0  0  0  0
   -1.4288   -3.3387    0.0000 H   0  0  0  0  0  0  0  0  0  0  0  0
   -3.0700   -1.5662    0.0000 H   0  0  0  0  0  0  0  0  0  0  0  0
   -3.0700   -0.4962    0.0000 H   0  0  0  0  0  0  0  0  0  0  0  0
   -3.0701   -2.1463    0.0000 H   0  0  0  0  0  0  0  0  0  0  0  0
   -3.0700   -3.2163    0.0000 H   0  0  0  0  0  0  0  0  0  0  0  0
    1.6411    0.9087    0.0000 H   0  0  0  0  0  0  0  0  0  0  0  0
    1.6411    1.9787    0.0000 H   0  0  0  0  0  0  0  0  0  0  0  0
   -0.9266    1.5662    0.0000 H   0  0  0  0  0  0  0  0  0  0  0  0
   -0.9266    0.4962    0.0000 H   0  0  0  0  0  0  0  0  0  0  0  0
    0.9266   -0.3289    0.0000 H   0  0  0  0  0  0  0  0  0  0  0  0
   -0.0001   -0.8638    0.0000 H   0  0  0  0  0  0  0  0  0  0  0  0
   -0.2122    2.8036    0.0000 H   0  0  0  0  0  0  0  0  0  0  0  0
    0.7144    3.3387    0.0000 H   0  0  0  0  0  0  0  0  0  0  0  0
   -1.2168    0.3289    0.0000 H   0  0  0  0  0  0  0  0  0  0  0  0
   -2.1435    0.8638    0.0000 H   0  0  0  0  0  0  0  0  0  0  0  0
    2.3556    2.1464    0.0000 H   0  0  0  0  0  0  0  0  0  0  0  0
    2.3555    3.2163    0.0000 H   0  0  0  0  0  0  0  0  0  0  0  0
    0.5023    4.0413    0.0000 H   0  0  0  0  0  0  0  0  0  0  0  0
    1.4289    4.5763    0.0000 H   0  0  0  0  0  0  0  0  0  0  0  0
   -0.5352   -3.4028    0.0000 H   0  0  0  0  0  0  0  0  0  0  0  0
   -3.7516   -3.4028    0.0000 H   0  0  0  0  0  0  0  0  0  0  0  0
    1.2497    5.2598    0.0000 H   0  0  0  0  0  0  0  0  0  0  0  0
    2.8579    2.4743    0.0000 H   0  0  0  0  0  0  0  0  0  0  0  0
   -0.5352   -5.2598    0.0000 H   0  0  0  0  0  0  0  0  0  0  0  0
   -3.7516   -5.2598    0.0000 H   0  0  0  0  0  0  0  0  0  0  0  0
   -2.1434   -6.1883    0.0000 H   0  0  0  0  0  0  0  0  0  0  0  0
    2.8579    6.1883    0.0000 H   0  0  0  0  0  0  0  0  0  0  0  0
    4.4661    3.4028    0.0000 H   0  0  0  0  0  0  0  0  0  0  0  0
    4.4661    5.2598    0.0000 H   0  0  0  0  0  0  0  0  0  0  0  0
  1 14  2  0  0  0  0
  2 19  1  0  0  0  0
  2 31  1  0  0  0  0
  3 19  2  0  0  0  0
  4 14  1  0  0  0  0
  4 30  1  0  0  0  0
  5  4  1  0  0  0  0
  5  6  1  0  0  0  0
  5  7  1  0  0  0  0
  5 32  1  1  0  0  0
  6  8  1  0  0  0  0
  6 33  1  0  0  0  0
  6 34  1  0  0  0  0
  7 13  1  0  0  0  0
  7 35  1  0  0  0  0
  7 36  1  0  0  0  0
  8 16  1  0  0  0  0
  8 37  1  0  0  0  0
  8 38  1  0  0  0  0
  9 10  1  0  0  0  0
  9 12  1  0  0  0  0
  9 39  1  0  0  0  0
  9 40  1  0  0  0  0
 10 11  1  0  0  0  0
 10 41  1  0  0  0  0
 10 42  1  0  0  0  0
 11 14  1  0  0  0  0
 11 43  1  0  0  0  0
 11 44  1  0  0  0  0
 12 15  1  0  0  0  0
 12 45  1  0  0  0  0
 12 46  1  0  0  0  0
 13 19  1  0  0  0  0
 13 47  1  0  0  0  0
 13 48  1  0  0  0  0
 15 17  1  0  0  0  0
 15 49  1  0  0  0  0
 15 50  1  0  0  0  0
 16 20  2  0  0  0  0
 16 21  1  0  0  0  0
 17 18  1  0  0  0  0
 17 51  1  0  0  0  0
 17 52  1  0  0  0  0
 18 22  2  0  0  0  0
 18 23  1  0  0  0  0
 20 24  1  0  0  0  0
 20 53  1  0  0  0  0
 21 25  2  0  0  0  0
 21 54  1  0  0  0  0
 22 27  1  0  0  0  0
 22 55  1  0  0  0  0
 23 28  2  0  0  0  0
 23 56  1  0  0  0  0
 24 26  2  0  0  0  0
 24 57  1  0  0  0  0
 25 26  1  0  0  0  0
 25 58  1  0  0  0  0
 26 59  1  0  0  0  0
 27 29  2  0  0  0  0
 27 60  1  0  0  0  0
 28 29  1  0  0  0  0
 28 61  1  0  0  0  0
 29 62  1  0  0  0  0
M  END
>  <DRUGBANK_ID>
DB03471

>  <SECONDARY_ACCESSION_NUMBERS>
EXPT00747

>  <COMMON_NAME>
6-phenyl-4(R)-(7-phenyl-heptanoylamino)-hexanoic acid

$$$$
