
 OpenBabel10282417072D

 42 43  0  0  1  0  0  0  0  0999 V2000
   -3.5713    0.4110    0.0000 C   0  0  0  0  0  0  0  0  0  0  0  0
   -3.5725   -0.4163    0.0000 C   0  0  0  0  0  0  0  0  0  0  0  0
   -2.8576   -0.8291    0.0000 C   0  0  0  0  0  0  0  0  0  0  0  0
   -2.1412   -0.4158    0.0000 C   0  0  0  0  0  0  0  0  0  0  0  0
   -2.1441    0.4146    0.0000 C   0  0  0  0  0  0  0  0  0  0  0  0
   -2.8594    0.8238    0.0000 C   0  0  0  0  0  0  0  0  0  0  0  0
   -2.8619    1.6488    0.0000 O   0  0  0  0  0  0  0  0  0  0  0  0
   -4.2859    0.8233    0.0000 O   0  0  0  0  0  0  0  0  0  0  0  0
   -1.4261   -0.8272    0.0000 C   0  0  0  0  0  0  0  0  0  0  0  0
   -0.7123   -0.4135    0.0000 C   0  0  2  0  0  0  0  0  0  0  0  0
    0.0028   -0.8249    0.0000 C   0  0  0  0  0  0  0  0  0  0  0  0
   -0.7136    0.4114    0.0000 O   0  0  0  0  0  0  0  0  0  0  0  0
    0.0041   -1.6500    0.0000 O   0  0  0  0  0  0  0  0  0  0  0  0
    0.0002    0.8250    0.0000 C   0  0  0  0  0  0  0  0  0  0  0  0
   -0.0010    1.6500    0.0000 O   0  0  0  0  0  0  0  0  0  0  0  0
    0.7153    0.4136    0.0000 C   0  0  0  0  0  0  0  0  0  0  0  0
    0.7166   -0.4113    0.0000 O   0  0  0  0  0  0  0  0  0  0  0  0
    1.4291    0.8272    0.0000 C   0  0  0  0  0  0  0  0  0  0  0  0
    2.1442    0.4158    0.0000 C   0  0  0  0  0  0  0  0  0  0  0  0
    2.1410   -0.4067    0.0000 C   0  0  0  0  0  0  0  0  0  0  0  0
    2.8553   -0.8180    0.0000 C   0  0  0  0  0  0  0  0  0  0  0  0
    3.5701   -0.4043    0.0000 C   0  0  0  0  0  0  0  0  0  0  0  0
    3.5662    0.4249    0.0000 C   0  0  0  0  0  0  0  0  0  0  0  0
    2.8513    0.8324    0.0000 C   0  0  0  0  0  0  0  0  0  0  0  0
    4.2785    0.8410    0.0000 O   0  0  0  0  0  0  0  0  0  0  0  0
    4.2859   -0.8147    0.0000 O   0  0  0  0  0  0  0  0  0  0  0  0
   -4.4666   -0.9316    0.0000 H   0  0  0  0  0  0  0  0  0  0  0  0
   -2.8578   -1.8611    0.0000 H   0  0  0  0  0  0  0  0  0  0  0  0
   -1.2523    0.9339    0.0000 H   0  0  0  0  0  0  0  0  0  0  0  0
   -2.0519    2.1198    0.0000 H   0  0  0  0  0  0  0  0  0  0  0  0
   -4.2862    1.7603    0.0000 H   0  0  0  0  0  0  0  0  0  0  0  0
   -1.4244   -1.8972    0.0000 H   0  0  0  0  0  0  0  0  0  0  0  0
   -0.4986   -1.3607    0.0000 H   0  0  0  0  0  0  0  0  0  0  0  0
   -1.6398    0.1200    0.0000 H   0  0  0  0  0  0  0  0  0  0  0  0
    0.7169   -0.6184    0.0000 H   0  0  0  0  0  0  0  0  0  0  0  0
    1.5288   -0.8785    0.0000 H   0  0  0  0  0  0  0  0  0  0  0  0
    1.4275    1.8592    0.0000 H   0  0  0  0  0  0  0  0  0  0  0  0
    1.2466   -0.9215    0.0000 H   0  0  0  0  0  0  0  0  0  0  0  0
    2.8564   -1.8500    0.0000 H   0  0  0  0  0  0  0  0  0  0  0  0
    2.8439    1.8644    0.0000 H   0  0  0  0  0  0  0  0  0  0  0  0
    5.0923    0.3766    0.0000 H   0  0  0  0  0  0  0  0  0  0  0  0
    4.2887   -1.7517    0.0000 H   0  0  0  0  0  0  0  0  0  0  0  0
  1  2  2  0  0  0  0
  1  8  1  0  0  0  0
  2  3  1  0  0  0  0
  2 27  1  0  0  0  0
  3  4  2  0  0  0  0
  3 28  1  0  0  0  0
  4  9  1  0  0  0  0
  4  5  1  0  0  0  0
  5  6  2  0  0  0  0
  5 29  1  0  0  0  0
  6  7  1  0  0  0  0
  6  1  1  0  0  0  0
  7 30  1  0  0  0  0
  8 31  1  0  0  0  0
  9 10  1  0  0  0  0
  9 32  1  0  0  0  0
  9 33  1  0  0  0  0
 10 11  1  0  0  0  0
 10 12  1  0  0  0  0
 10 34  1  6  0  0  0
 11 13  2  0  0  0  0
 11 17  1  0  0  0  0
 12 14  1  0  0  0  0
 14 15  2  0  0  0  0
 14 16  1  0  0  0  0
 16 18  2  0  0  0  0
 16 35  1  0  0  0  0
 17 36  1  0  0  0  0
 18 19  1  0  0  0  0
 18 37  1  0  0  0  0
 19 20  2  0  0  0  0
 20 21  1  0  0  0  0
 20 38  1  0  0  0  0
 21 22  2  0  0  0  0
 21 39  1  0  0  0  0
 22 23  1  0  0  0  0
 22 26  1  0  0  0  0
 23 24  2  0  0  0  0
 23 25  1  0  0  0  0
 24 19  1  0  0  0  0
 24 40  1  0  0  0  0
 25 41  1  0  0  0  0
 26 42  1  0  0  0  0
M  END
>  <DRUGBANK_ID>
DB16865

>  <COMMON_NAME>
Rosmarinic acid

>  <CAS_NUMBER>
20283-92-5

>  <UNII>
MQE6XG29YI

>  <SYNONYMS>
Labiatenic acid; Labiatic acid; Rosemary acid

$$$$
