DCX
 OpenBabel10282417072D

 41 40  0  0  0  0  0  0  0  0999 V2000
    3.2786   -0.4894    0.0000 C   0  0  0  0  0  0  0  0  0  0  0  0
    2.9766    0.6375    0.0000 O   0  0  0  0  0  0  0  0  0  0  0  0
    1.1351   -0.0769    0.0000 C   0  0  0  0  0  0  0  0  0  0  0  0
   -4.5811   -0.0769    0.0000 C   0  0  0  0  0  0  0  0  0  0  0  0
   -3.8666    0.3356    0.0000 C   0  0  0  0  0  0  0  0  0  0  0  0
   -3.1520   -0.0769    0.0000 C   0  0  0  0  0  0  0  0  0  0  0  0
   -2.4376    0.3356    0.0000 C   0  0  0  0  0  0  0  0  0  0  0  0
   -1.7230   -0.0769    0.0000 C   0  0  0  0  0  0  0  0  0  0  0  0
   -1.0085    0.3356    0.0000 C   0  0  0  0  0  0  0  0  0  0  0  0
   -0.2940   -0.0769    0.0000 C   0  0  0  0  0  0  0  0  0  0  0  0
    0.4205    0.3356    0.0000 C   0  0  0  0  0  0  0  0  0  0  0  0
    1.8496    0.3356    0.0000 C   0  0  0  0  0  0  0  0  0  0  0  0
    2.5641   -0.0769    0.0000 P   0  0  0  0  0  0  0  0  0  0  0  0
    2.1516   -0.7915    0.0000 C   0  0  0  0  0  0  0  0  0  0  0  0
    3.2786   -1.5594    0.0000 H   0  0  0  0  0  0  0  0  0  0  0  0
    4.2052    0.0456    0.0000 H   0  0  0  0  0  0  0  0  0  0  0  0
    4.2053   -1.0244    0.0000 H   0  0  0  0  0  0  0  0  0  0  0  0
    1.1351   -1.1469    0.0000 H   0  0  0  0  0  0  0  0  0  0  0  0
    2.0618   -0.6119    0.0000 H   0  0  0  0  0  0  0  0  0  0  0  0
   -5.5077    0.4581    0.0000 H   0  0  0  0  0  0  0  0  0  0  0  0
   -4.5811   -1.1469    0.0000 H   0  0  0  0  0  0  0  0  0  0  0  0
   -5.5078   -0.6119    0.0000 H   0  0  0  0  0  0  0  0  0  0  0  0
   -3.8666    1.4056    0.0000 H   0  0  0  0  0  0  0  0  0  0  0  0
   -2.9400    0.8707    0.0000 H   0  0  0  0  0  0  0  0  0  0  0  0
   -3.1519   -1.1469    0.0000 H   0  0  0  0  0  0  0  0  0  0  0  0
   -2.2253   -0.6119    0.0000 H   0  0  0  0  0  0  0  0  0  0  0  0
   -2.4377    1.4056    0.0000 H   0  0  0  0  0  0  0  0  0  0  0  0
   -1.5110    0.8707    0.0000 H   0  0  0  0  0  0  0  0  0  0  0  0
   -1.7230   -1.1469    0.0000 H   0  0  0  0  0  0  0  0  0  0  0  0
   -0.7963   -0.6119    0.0000 H   0  0  0  0  0  0  0  0  0  0  0  0
   -1.0085    1.4056    0.0000 H   0  0  0  0  0  0  0  0  0  0  0  0
   -0.0819    0.8706    0.0000 H   0  0  0  0  0  0  0  0  0  0  0  0
   -0.2940   -1.1469    0.0000 H   0  0  0  0  0  0  0  0  0  0  0  0
    0.6326   -0.6119    0.0000 H   0  0  0  0  0  0  0  0  0  0  0  0
    0.4205    1.4056    0.0000 H   0  0  0  0  0  0  0  0  0  0  0  0
   -0.5062    0.8706    0.0000 H   0  0  0  0  0  0  0  0  0  0  0  0
    1.8496    1.4056    0.0000 H   0  0  0  0  0  0  0  0  0  0  0  0
    2.7762    0.8706    0.0000 H   0  0  0  0  0  0  0  0  0  0  0  0
    1.0816   -0.7916    0.0000 H   0  0  0  0  0  0  0  0  0  0  0  0
    2.6867   -1.7181    0.0000 H   0  0  0  0  0  0  0  0  0  0  0  0
    1.6167   -1.7182    0.0000 H   0  0  0  0  0  0  0  0  0  0  0  0
  1 13  1  0  0  0  0
  1 15  1  0  0  0  0
  1 16  1  0  0  0  0
  1 17  1  0  0  0  0
  2 13  2  0  0  0  0
  3 11  1  0  0  0  0
  3 12  1  0  0  0  0
  3 18  1  0  0  0  0
  3 19  1  0  0  0  0
  4  5  1  0  0  0  0
  4 20  1  0  0  0  0
  4 21  1  0  0  0  0
  4 22  1  0  0  0  0
  5  6  1  0  0  0  0
  5 23  1  0  0  0  0
  5 24  1  0  0  0  0
  6  7  1  0  0  0  0
  6 25  1  0  0  0  0
  6 26  1  0  0  0  0
  7  8  1  0  0  0  0
  7 27  1  0  0  0  0
  7 28  1  0  0  0  0
  8  9  1  0  0  0  0
  8 29  1  0  0  0  0
  8 30  1  0  0  0  0
  9 10  1  0  0  0  0
  9 31  1  0  0  0  0
  9 32  1  0  0  0  0
 10 11  1  0  0  0  0
 10 33  1  0  0  0  0
 10 34  1  0  0  0  0
 11 35  1  0  0  0  0
 11 36  1  0  0  0  0
 12 13  1  0  0  0  0
 12 37  1  0  0  0  0
 12 38  1  0  0  0  0
 13 14  1  0  0  0  0
 14 39  1  0  0  0  0
 14 40  1  0  0  0  0
 14 41  1  0  0  0  0
M  END
>  <DRUGBANK_ID>
DB07641

>  <COMMON_NAME>
Decyl(dimethyl)phosphine oxide

>  <CAS_NUMBER>
2190-95-6

>  <UNII>
BQ0G8CN4H9

$$$$
