
 OpenBabel10282417072D

 95103  0  0  1  0  0  0  0  0999 V2000
    5.3448   -3.0968    0.0000 O   0  0  0  0  0  0  0  0  0  0  0  0
    4.5379   -2.9253    0.0000 C   0  0  0  0  0  0  0  0  0  0  0  0
    3.9858   -3.5384    0.0000 C   0  0  0  0  0  0  0  0  0  0  0  0
    3.1788   -3.3669    0.0000 C   0  0  0  0  0  0  0  0  0  0  0  0
    2.9239   -2.5823    0.0000 C   0  0  0  0  0  0  0  0  0  0  0  0
    3.4759   -1.9692    0.0000 C   0  0  0  0  0  0  0  0  0  0  0  0
    4.2829   -2.1407    0.0000 C   0  0  0  0  0  0  0  0  0  0  0  0
    2.1169   -2.4107    0.0000 N   0  0  0  0  0  0  0  0  0  0  0  0
    1.5649   -3.0238    0.0000 C   0  0  0  0  0  0  0  0  0  0  0  0
    0.7579   -2.8523    0.0000 O   0  0  0  0  0  0  0  0  0  0  0  0
    1.8198   -3.8085    0.0000 C   0  0  0  0  0  0  0  0  0  0  0  0
    1.3349   -4.4759    0.0000 C   0  0  0  0  0  0  0  0  0  0  0  0
    1.8198   -5.1433    0.0000 C   0  0  0  0  0  0  0  0  0  0  0  0
    1.5649   -5.9280    0.0000 C   0  0  0  0  0  0  0  0  0  0  0  0
    2.1169   -6.5410    0.0000 C   0  0  0  0  0  0  0  0  0  0  0  0
    1.8620   -7.3257    0.0000 C   0  0  0  0  0  0  0  0  0  0  0  0
    2.2745   -8.0401    0.0000 O   0  0  0  0  0  0  0  0  0  0  0  0
    1.7225   -8.6532    0.0000 C   0  0  0  0  0  0  0  0  0  0  0  0
    0.9688   -8.3177    0.0000 O   0  0  0  0  0  0  0  0  0  0  0  0
    1.0550   -7.4972    0.0000 C   0  0  0  0  0  0  0  0  0  0  0  0
    0.5030   -6.8841    0.0000 C   0  0  0  0  0  0  0  0  0  0  0  0
    0.7579   -6.0995    0.0000 C   0  0  0  0  0  0  0  0  0  0  0  0
    0.2059   -5.4864    0.0000 C   0  0  0  0  0  0  0  0  0  0  0  0
    0.4608   -4.7018    0.0000 O   0  0  0  0  0  0  0  0  0  0  0  0
   -0.6011   -5.6579    0.0000 N   0  0  0  0  0  0  0  0  0  0  0  0
   -0.8560   -6.4425    0.0000 C   0  0  0  0  0  0  0  0  0  0  0  0
   -1.6630   -6.6141    0.0000 C   0  0  0  0  0  0  0  0  0  0  0  0
   -1.9179   -7.3987    0.0000 C   0  0  0  0  0  0  0  0  0  0  0  0
   -2.7249   -7.5702    0.0000 C   0  0  0  0  0  0  0  0  0  0  0  0
   -3.2769   -6.9571    0.0000 C   0  0  0  0  0  0  0  0  0  0  0  0
   -3.0220   -6.1725    0.0000 C   0  0  0  0  0  0  0  0  0  0  0  0
   -2.2150   -6.0010    0.0000 C   0  0  0  0  0  0  0  0  0  0  0  0
   -1.9601   -5.2163    0.0000 C   0  0  0  0  0  0  0  0  0  0  0  0
   -1.1531   -5.0448    0.0000 C   0  0  1  0  0  0  0  0  0  0  0  0
   -0.8982   -4.2602    0.0000 C   0  0  0  0  0  0  0  0  0  0  0  0
   -1.4502   -3.6471    0.0000 N   0  0  0  0  0  0  0  0  0  0  0  0
   -2.2572   -3.8186    0.0000 C   0  0  0  0  0  0  0  0  0  0  0  0
   -2.8092   -3.2055    0.0000 C   0  0  0  0  0  0  0  0  0  0  0  0
   -2.5543   -2.4209    0.0000 O   0  0  0  0  0  0  0  0  0  0  0  0
   -1.7473   -2.2494    0.0000 C   0  0  0  0  0  0  0  0  0  0  0  0
   -1.1953   -2.8625    0.0000 C   0  0  0  0  0  0  0  0  0  0  0  0
    2.6045   -4.8884    0.0000 N   0  0  0  0  0  0  0  0  0  0  0  0
    3.3189   -5.3009    0.0000 C   0  0  0  0  0  0  0  0  0  0  0  0
    4.0334   -4.8884    0.0000 C   0  0  0  0  0  0  0  0  0  0  0  0
    4.0334   -4.0634    0.0000 C   0  0  0  0  0  0  0  0  0  0  0  0
    3.3189   -3.6509    0.0000 C   0  0  0  0  0  0  0  0  0  0  0  0
    2.6045   -4.0634    0.0000 C   0  0  0  0  0  0  0  0  0  0  0  0
    1.8620   -1.6261    0.0000 C   0  0  0  0  0  0  0  0  0  0  0  0
    1.0550   -1.4546    0.0000 C   0  0  0  0  0  0  0  0  0  0  0  0
    0.8001   -0.6700    0.0000 C   0  0  0  0  0  0  0  0  0  0  0  0
    1.3521   -0.0569    0.0000 C   0  0  0  0  0  0  0  0  0  0  0  0
    2.1591   -0.2284    0.0000 C   0  0  0  0  0  0  0  0  0  0  0  0
    2.4140   -1.0130    0.0000 C   0  0  0  0  0  0  0  0  0  0  0  0
    5.6344   -3.9879    0.0000 H   0  0  0  0  0  0  0  0  0  0  0  0
    4.3047   -4.5199    0.0000 H   0  0  0  0  0  0  0  0  0  0  0  0
    2.4883   -4.1338    0.0000 H   0  0  0  0  0  0  0  0  0  0  0  0
    3.1570   -0.9877    0.0000 H   0  0  0  0  0  0  0  0  0  0  0  0
    4.9734   -1.3737    0.0000 H   0  0  0  0  0  0  0  0  0  0  0  0
    0.3029   -4.4759    0.0000 H   0  0  0  0  0  0  0  0  0  0  0  0
    3.1263   -6.3264    0.0000 H   0  0  0  0  0  0  0  0  0  0  0  0
    1.9450   -9.6998    0.0000 H   0  0  0  0  0  0  0  0  0  0  0  0
    0.8910   -9.3266    0.0000 H   0  0  0  0  0  0  0  0  0  0  0  0
   -0.5064   -7.0987    0.0000 H   0  0  0  0  0  0  0  0  0  0  0  0
   -0.1400   -7.2376    0.0000 H   0  0  0  0  0  0  0  0  0  0  0  0
   -1.1866   -7.4602    0.0000 H   0  0  0  0  0  0  0  0  0  0  0  0
   -1.2274   -8.1656    0.0000 H   0  0  0  0  0  0  0  0  0  0  0  0
   -3.0438   -8.5517    0.0000 H   0  0  0  0  0  0  0  0  0  0  0  0
   -4.2863   -7.1717    0.0000 H   0  0  0  0  0  0  0  0  0  0  0  0
   -3.7125   -5.4056    0.0000 H   0  0  0  0  0  0  0  0  0  0  0  0
   -2.6761   -4.4211    0.0000 H   0  0  0  0  0  0  0  0  0  0  0  0
   -1.6294   -4.1987    0.0000 H   0  0  0  0  0  0  0  0  0  0  0  0
   -1.8691   -4.2496    0.0000 H   0  0  0  0  0  0  0  0  0  0  0  0
    0.1484   -4.0377    0.0000 H   0  0  0  0  0  0  0  0  0  0  0  0
   -0.5675   -3.2426    0.0000 H   0  0  0  0  0  0  0  0  0  0  0  0
   -2.5879   -4.8362    0.0000 H   0  0  0  0  0  0  0  0  0  0  0  0
   -3.3038   -4.0410    0.0000 H   0  0  0  0  0  0  0  0  0  0  0  0
   -3.8558   -3.4280    0.0000 H   0  0  0  0  0  0  0  0  0  0  0  0
   -3.5252   -2.4103    0.0000 H   0  0  0  0  0  0  0  0  0  0  0  0
   -1.4166   -1.2318    0.0000 H   0  0  0  0  0  0  0  0  0  0  0  0
   -0.7007   -2.0270    0.0000 H   0  0  0  0  0  0  0  0  0  0  0  0
   -0.1487   -2.6400    0.0000 H   0  0  0  0  0  0  0  0  0  0  0  0
   -0.4793   -3.6577    0.0000 H   0  0  0  0  0  0  0  0  0  0  0  0
    3.3189   -6.3709    0.0000 H   0  0  0  0  0  0  0  0  0  0  0  0
    4.2455   -5.8359    0.0000 H   0  0  0  0  0  0  0  0  0  0  0  0
    4.9600   -5.4234    0.0000 H   0  0  0  0  0  0  0  0  0  0  0  0
    4.9600   -4.3534    0.0000 H   0  0  0  0  0  0  0  0  0  0  0  0
    4.9600   -3.5284    0.0000 H   0  0  0  0  0  0  0  0  0  0  0  0
    4.0334   -2.9934    0.0000 H   0  0  0  0  0  0  0  0  0  0  0  0
    3.3189   -2.5809    0.0000 H   0  0  0  0  0  0  0  0  0  0  0  0
    2.3922   -3.1159    0.0000 H   0  0  0  0  0  0  0  0  0  0  0  0
    0.3645   -2.2215    0.0000 H   0  0  0  0  0  0  0  0  0  0  0  0
   -0.2093   -0.4554    0.0000 H   0  0  0  0  0  0  0  0  0  0  0  0
    1.0332    0.9246    0.0000 H   0  0  0  0  0  0  0  0  0  0  0  0
    2.8496    0.5385    0.0000 H   0  0  0  0  0  0  0  0  0  0  0  0
    3.4234   -1.2276    0.0000 H   0  0  0  0  0  0  0  0  0  0  0  0
  1  2  1  0  0  0  0
  1 54  1  0  0  0  0
  2  3  2  0  0  0  0
  2  7  1  0  0  0  0
  3  4  1  0  0  0  0
  3 55  1  0  0  0  0
  4  5  2  0  0  0  0
  4 56  1  0  0  0  0
  5  6  1  0  0  0  0
  5  8  1  0  0  0  0
  6  7  2  0  0  0  0
  6 57  1  0  0  0  0
  7 58  1  0  0  0  0
  8  9  1  0  0  0  0
  8 48  1  0  0  0  0
  9 10  2  0  0  0  0
  9 11  1  0  0  0  0
 11 12  1  0  0  0  0
 11 47  2  0  0  0  0
 12 13  2  0  0  0  0
 12 59  1  0  0  0  0
 13 14  1  0  0  0  0
 13 42  1  0  0  0  0
 14 15  2  0  0  0  0
 14 22  1  0  0  0  0
 15 16  1  0  0  0  0
 15 60  1  0  0  0  0
 16 17  1  0  0  0  0
 16 20  2  0  0  0  0
 17 18  1  0  0  0  0
 18 19  1  0  0  0  0
 18 61  1  0  0  0  0
 18 62  1  0  0  0  0
 19 20  1  0  0  0  0
 20 21  1  0  0  0  0
 21 22  2  0  0  0  0
 21 63  1  0  0  0  0
 22 23  1  0  0  0  0
 23 24  2  0  0  0  0
 23 25  1  0  0  0  0
 25 26  1  0  0  0  0
 26 27  1  0  0  0  0
 26 64  1  0  0  0  0
 26 65  1  0  0  0  0
 27 28  2  0  0  0  0
 27 32  1  0  0  0  0
 28 29  1  0  0  0  0
 28 66  1  0  0  0  0
 29 30  2  0  0  0  0
 29 67  1  0  0  0  0
 30 31  1  0  0  0  0
 30 68  1  0  0  0  0
 31 32  2  0  0  0  0
 31 69  1  0  0  0  0
 32 33  1  0  0  0  0
 33 70  1  0  0  0  0
 33 71  1  0  0  0  0
 34 33  1  0  0  0  0
 34 25  1  0  0  0  0
 34 35  1  0  0  0  0
 34 72  1  6  0  0  0
 35 36  1  0  0  0  0
 35 73  1  0  0  0  0
 35 74  1  0  0  0  0
 36 37  1  0  0  0  0
 36 41  1  0  0  0  0
 37 38  1  0  0  0  0
 37 75  1  0  0  0  0
 37 76  1  0  0  0  0
 38 39  1  0  0  0  0
 38 77  1  0  0  0  0
 38 78  1  0  0  0  0
 39 40  1  0  0  0  0
 40 41  1  0  0  0  0
 40 79  1  0  0  0  0
 40 80  1  0  0  0  0
 41 81  1  0  0  0  0
 41 82  1  0  0  0  0
 42 43  1  0  0  0  0
 42 47  1  0  0  0  0
 43 44  1  0  0  0  0
 43 83  1  0  0  0  0
 43 84  1  0  0  0  0
 44 45  1  0  0  0  0
 44 85  1  0  0  0  0
 44 86  1  0  0  0  0
 45 46  1  0  0  0  0
 45 87  1  0  0  0  0
 45 88  1  0  0  0  0
 46 47  1  0  0  0  0
 46 89  1  0  0  0  0
 46 90  1  0  0  0  0
 48 49  2  0  0  0  0
 48 53  1  0  0  0  0
 49 50  1  0  0  0  0
 49 91  1  0  0  0  0
 50 51  2  0  0  0  0
 50 92  1  0  0  0  0
 51 52  1  0  0  0  0
 51 93  1  0  0  0  0
 52 53  2  0  0  0  0
 52 94  1  0  0  0  0
 53 95  1  0  0  0  0
M  END
>  <DRUGBANK_ID>
DB18365

>  <COMMON_NAME>
S-55746

>  <CAS_NUMBER>
1448584-12-0

>  <UNII>
W93257I68I

>  <SYNONYMS>
(S)-N-(4-hydroxyphenyl)-3-(6-(3-(morpholinomethyl)-1,2,3,4-tetrahydroisoquinoline-2-carbonyl)benzo(d)(1,3)dioxol-5-yl)-n-phenyl-5,6,7,8-tetrahydroindolizine-1-carboxamide

$$$$
