
 OpenBabel10282417072D

 23 20  0  0  0  0  0  0  0  0999 V2000
    1.2964   -0.4083    0.0000 C   0  0  0  0  0  0  0  0  0  0  0  0
    0.4714   -0.4083    0.0000 C   0  0  3  0  0  0  0  0  0  0  0  0
    0.0589    0.3062    0.0000 C   0  0  0  0  0  0  0  0  0  0  0  0
    0.0589   -1.1227    0.0000 O   0  0  0  0  0  0  0  0  0  0  0  0
    0.4714    1.0207    0.0000 O   0  0  0  0  0  0  0  0  0  0  0  0
   -0.7661    0.3062    0.0000 O   0  5  0  0  0  0  0  0  0  0  0  0
    4.3607    1.0717    0.0000 C   0  0  0  0  0  0  0  0  0  0  0  0
    4.7732    0.3572    0.0000 C   0  0  3  0  0  0  0  0  0  0  0  0
    4.3607   -0.3572    0.0000 C   0  0  0  0  0  0  0  0  0  0  0  0
    5.5982    0.3572    0.0000 O   0  0  0  0  0  0  0  0  0  0  0  0
    4.7732   -1.0717    0.0000 O   0  0  0  0  0  0  0  0  0  0  0  0
    3.5357   -0.3572    0.0000 O   0  5  0  0  0  0  0  0  0  0  0  0
   -1.5911    0.3062    0.0000 Ca  0  2  0  0  0  0  0  0  0  0  0  0
    1.8314   -1.3349    0.0000 H   0  0  0  0  0  0  0  0  0  0  0  0
    1.8314    0.5183    0.0000 H   0  0  0  0  0  0  0  0  0  0  0  0
    2.3664   -0.4083    0.0000 H   0  0  0  0  0  0  0  0  0  0  0  0
    1.0064    0.5183    0.0000 H   0  0  0  0  0  0  0  0  0  0  0  0
   -0.9111   -1.1227    0.0000 H   0  0  0  0  0  0  0  0  0  0  0  0
    4.8957    1.9983    0.0000 H   0  0  0  0  0  0  0  0  0  0  0  0
    3.2907    1.0717    0.0000 H   0  0  0  0  0  0  0  0  0  0  0  0
    3.8257    1.9984    0.0000 H   0  0  0  0  0  0  0  0  0  0  0  0
    3.7032    0.3572    0.0000 H   0  0  0  0  0  0  0  0  0  0  0  0
    6.0832   -0.4828    0.0000 H   0  0  0  0  0  0  0  0  0  0  0  0
  1 14  1  0  0  0  0
  1 15  1  0  0  0  0
  1 16  1  0  0  0  0
  2  1  1  0  0  0  0
  2 17  1  0  0  0  0
  3  2  1  0  0  0  0
  4  2  1  0  0  0  0
  4 18  1  0  0  0  0
  5  3  2  0  0  0  0
  6  3  1  0  0  0  0
  7 19  1  0  0  0  0
  7 20  1  0  0  0  0
  7 21  1  0  0  0  0
  8  7  1  0  0  0  0
  8 22  1  0  0  0  0
  9  8  1  0  0  0  0
 10  8  1  0  0  0  0
 10 23  1  0  0  0  0
 11  9  2  0  0  0  0
 12  9  1  0  0  0  0
M  CHG  3   6  -1  12  -1  13   2
M  END
>  <DRUGBANK_ID>
DB13231

>  <COMMON_NAME>
Calcium lactate

>  <CAS_NUMBER>
814-80-2

>  <UNII>
2URQ2N32W3

>  <SYNONYMS>
2-Hydroxypropanoic acid calcium salt; Calcio lactato; Calcium 2-hydroxypropanoate (1:2); Calcium dilactate; Calcium lactate; Hemicalcium L-lactate

$$$$
