
 OpenBabel10282417072D

 66 69  0  0  1  0  0  0  0  0999 V2000
   -4.2624    1.6923    0.0000 C   0  0  0  0  0  0  0  0  0  0  0  0
   -3.5479    1.2798    0.0000 C   0  0  0  0  0  0  0  0  0  0  0  0
   -3.5479    0.4548    0.0000 C   0  0  1  0  0  0  0  0  0  0  0  0
   -2.8334    0.0423    0.0000 O   0  0  0  0  0  0  0  0  0  0  0  0
   -2.8334   -0.7827    0.0000 C   0  0  0  0  0  0  0  0  0  0  0  0
   -2.1190   -1.1952    0.0000 C   0  0  0  0  0  0  0  0  0  0  0  0
   -2.1190   -2.0202    0.0000 C   0  0  0  0  0  0  0  0  0  0  0  0
   -1.4045   -2.4327    0.0000 C   0  0  0  0  0  0  0  0  0  0  0  0
   -0.6900   -2.0202    0.0000 N   0  0  0  0  0  0  0  0  0  0  0  0
    0.0244   -2.4327    0.0000 C   0  0  0  0  0  0  0  0  0  0  0  0
    0.7389   -2.0202    0.0000 C   0  0  0  0  0  0  0  0  0  0  0  0
    1.4534   -2.4327    0.0000 C   0  0  0  0  0  0  0  0  0  0  0  0
    2.1678   -2.0202    0.0000 O   0  0  0  0  0  0  0  0  0  0  0  0
    2.8823   -2.4327    0.0000 C   0  0  0  0  0  0  0  0  0  0  0  0
    3.5968   -2.0202    0.0000 C   0  0  0  0  0  0  0  0  0  0  0  0
    4.3113   -2.4327    0.0000 C   0  0  0  0  0  0  0  0  0  0  0  0
    4.3113   -3.2577    0.0000 C   0  0  0  0  0  0  0  0  0  0  0  0
    5.0257   -3.6702    0.0000 O   0  0  0  0  0  0  0  0  0  0  0  0
    5.7402   -3.2577    0.0000 C   0  0  0  0  0  0  0  0  0  0  0  0
    3.5968   -3.6702    0.0000 C   0  0  0  0  0  0  0  0  0  0  0  0
    2.8823   -3.2577    0.0000 C   0  0  0  0  0  0  0  0  0  0  0  0
   -0.6900   -1.1952    0.0000 C   0  0  0  0  0  0  0  0  0  0  0  0
   -0.0226   -0.7103    0.0000 N   0  0  0  0  0  0  0  0  0  0  0  0
   -0.2775    0.0744    0.0000 C   0  0  0  0  0  0  0  0  0  0  0  0
   -1.1025    0.0744    0.0000 C   0  0  0  0  0  0  0  0  0  0  0  0
   -1.3575   -0.7103    0.0000 O   0  0  0  0  0  0  0  0  0  0  0  0
   -1.5150    0.7888    0.0000 C   0  0  0  0  0  0  0  0  0  0  0  0
   -1.1025    1.5033    0.0000 C   0  0  0  0  0  0  0  0  0  0  0  0
   -0.2775    1.5033    0.0000 C   0  0  0  0  0  0  0  0  0  0  0  0
    0.1350    0.7888    0.0000 C   0  0  0  0  0  0  0  0  0  0  0  0
   -2.8334   -2.4327    0.0000 C   0  0  0  0  0  0  0  0  0  0  0  0
   -3.5479   -2.0202    0.0000 C   0  0  0  0  0  0  0  0  0  0  0  0
   -3.5479   -1.1952    0.0000 C   0  0  0  0  0  0  0  0  0  0  0  0
   -4.2624    0.0423    0.0000 C   0  0  0  0  0  0  0  0  0  0  0  0
   -4.2624   -0.7827    0.0000 O   0  0  0  0  0  0  0  0  0  0  0  0
   -4.9769    0.4548    0.0000 O   0  0  0  0  0  0  0  0  0  0  0  0
   -4.2624    2.7623    0.0000 H   0  0  0  0  0  0  0  0  0  0  0  0
   -5.1890    1.1573    0.0000 H   0  0  0  0  0  0  0  0  0  0  0  0
   -5.1891    2.2273    0.0000 H   0  0  0  0  0  0  0  0  0  0  0  0
   -2.6213    1.8148    0.0000 H   0  0  0  0  0  0  0  0  0  0  0  0
   -2.6213    0.7448    0.0000 H   0  0  0  0  0  0  0  0  0  0  0  0
   -2.6213    0.9898    0.0000 H   0  0  0  0  0  0  0  0  0  0  0  0
   -1.2253   -0.6792    0.0000 H   0  0  0  0  0  0  0  0  0  0  0  0
   -1.4045   -3.5027    0.0000 H   0  0  0  0  0  0  0  0  0  0  0  0
   -0.4779   -2.9677    0.0000 H   0  0  0  0  0  0  0  0  0  0  0  0
    0.0244   -3.5027    0.0000 H   0  0  0  0  0  0  0  0  0  0  0  0
    0.9510   -2.9677    0.0000 H   0  0  0  0  0  0  0  0  0  0  0  0
    0.7389   -0.9502    0.0000 H   0  0  0  0  0  0  0  0  0  0  0  0
    1.6655   -1.4852    0.0000 H   0  0  0  0  0  0  0  0  0  0  0  0
    1.4534   -3.5027    0.0000 H   0  0  0  0  0  0  0  0  0  0  0  0
    2.3801   -2.9677    0.0000 H   0  0  0  0  0  0  0  0  0  0  0  0
    3.5968   -0.9882    0.0000 H   0  0  0  0  0  0  0  0  0  0  0  0
    5.2050   -1.9167    0.0000 H   0  0  0  0  0  0  0  0  0  0  0  0
    6.6668   -3.7927    0.0000 H   0  0  0  0  0  0  0  0  0  0  0  0
    5.7402   -2.1877    0.0000 H   0  0  0  0  0  0  0  0  0  0  0  0
    6.6669   -2.7227    0.0000 H   0  0  0  0  0  0  0  0  0  0  0  0
    3.5968   -4.7022    0.0000 H   0  0  0  0  0  0  0  0  0  0  0  0
    1.9886   -3.7737    0.0000 H   0  0  0  0  0  0  0  0  0  0  0  0
   -2.5470    0.7888    0.0000 H   0  0  0  0  0  0  0  0  0  0  0  0
   -1.6185    2.3970    0.0000 H   0  0  0  0  0  0  0  0  0  0  0  0
    0.2385    2.3970    0.0000 H   0  0  0  0  0  0  0  0  0  0  0  0
    1.1670    0.7888    0.0000 H   0  0  0  0  0  0  0  0  0  0  0  0
   -2.8334   -3.4647    0.0000 H   0  0  0  0  0  0  0  0  0  0  0  0
   -4.4416   -2.5362    0.0000 H   0  0  0  0  0  0  0  0  0  0  0  0
   -4.4416   -0.6792    0.0000 H   0  0  0  0  0  0  0  0  0  0  0  0
   -5.0739   -1.2512    0.0000 H   0  0  0  0  0  0  0  0  0  0  0  0
  1  2  1  0  0  0  0
  1 37  1  0  0  0  0
  1 38  1  0  0  0  0
  1 39  1  0  0  0  0
  2 40  1  0  0  0  0
  2 41  1  0  0  0  0
  3  2  1  0  0  0  0
  3  4  1  0  0  0  0
  3 34  1  0  0  0  0
  3 42  1  6  0  0  0
  4  5  1  0  0  0  0
  5  6  2  0  0  0  0
  5 33  1  0  0  0  0
  6  7  1  0  0  0  0
  6 43  1  0  0  0  0
  7  8  1  0  0  0  0
  7 31  2  0  0  0  0
  8  9  1  0  0  0  0
  8 44  1  0  0  0  0
  8 45  1  0  0  0  0
  9 10  1  0  0  0  0
  9 22  1  0  0  0  0
 10 11  1  0  0  0  0
 10 46  1  0  0  0  0
 10 47  1  0  0  0  0
 11 12  1  0  0  0  0
 11 48  1  0  0  0  0
 11 49  1  0  0  0  0
 12 13  1  0  0  0  0
 12 50  1  0  0  0  0
 12 51  1  0  0  0  0
 13 14  1  0  0  0  0
 14 15  2  0  0  0  0
 14 21  1  0  0  0  0
 15 16  1  0  0  0  0
 15 52  1  0  0  0  0
 16 17  2  0  0  0  0
 16 53  1  0  0  0  0
 17 18  1  0  0  0  0
 17 20  1  0  0  0  0
 18 19  1  0  0  0  0
 19 54  1  0  0  0  0
 19 55  1  0  0  0  0
 19 56  1  0  0  0  0
 20 21  2  0  0  0  0
 20 57  1  0  0  0  0
 21 58  1  0  0  0  0
 22 23  2  0  0  0  0
 22 26  1  0  0  0  0
 23 24  1  0  0  0  0
 24 25  2  0  0  0  0
 24 30  1  0  0  0  0
 25 26  1  0  0  0  0
 25 27  1  0  0  0  0
 27 28  2  0  0  0  0
 27 59  1  0  0  0  0
 28 29  1  0  0  0  0
 28 60  1  0  0  0  0
 29 30  2  0  0  0  0
 29 61  1  0  0  0  0
 30 62  1  0  0  0  0
 31 32  1  0  0  0  0
 31 63  1  0  0  0  0
 32 33  2  0  0  0  0
 32 64  1  0  0  0  0
 33 65  1  0  0  0  0
 34 35  1  0  0  0  0
 34 36  2  0  0  0  0
 35 66  1  0  0  0  0
M  END
>  <DRUGBANK_ID>
DB15212

>  <COMMON_NAME>
Pemafibrate

>  <CAS_NUMBER>
848259-27-8

>  <UNII>
17VGG92R23

>  <SYNONYMS>
Pemafibrate

$$$$
