
 OpenBabel10282417072D

  5  4  0  0  0  0  0  0  0  0999 V2000
    0.0000    0.8250    0.0000 O   0  5  0  0  0  0  0  0  0  0  0  0
   -0.0000   -0.8250    0.0000 O   0  5  0  0  0  0  0  0  0  0  0  0
   -0.8250    0.0000    0.0000 O   0  5  0  0  0  0  0  0  0  0  0  0
    0.8250    0.0000    0.0000 O   0  0  0  0  0  0  0  0  0  0  0  0
    0.0000    0.0000    0.0000 P   0  0  0  0  0  0  0  0  0  0  0  0
  5  1  1  0  0  0  0
  5  2  1  0  0  0  0
  5  3  1  0  0  0  0
  5  4  2  0  0  0  0
M  CHG  3   1  -1   2  -1   3  -1
M  END
>  <DRUGBANK_ID>
DB14523

>  <COMMON_NAME>
Phosphate ion

>  <CAS_NUMBER>
14265-44-2

>  <UNII>
NK08V8K8HR

>  <SYNONYMS>
Orthophosphate; Phosphate

$$$$
