
 OpenBabel10282417072D

 48 46  0  0  0  0  0  0  0  0999 V2000
    1.7861    0.2038    0.0000 N   0  0  0  0  0  0  0  0  0  0  0  0
    1.0716   -0.2086    0.0000 C   0  0  0  0  0  0  0  0  0  0  0  0
    0.3571    0.2038    0.0000 C   0  0  0  0  0  0  0  0  0  0  0  0
   -0.3573   -0.2086    0.0000 N   0  0  0  0  0  0  0  0  0  0  0  0
   -1.0717    0.2038    0.0000 C   0  0  0  0  0  0  0  0  0  0  0  0
   -1.7862   -0.2086    0.0000 C   0  0  0  0  0  0  0  0  0  0  0  0
   -2.5007    0.2038    0.0000 N   0  0  0  0  0  0  0  0  0  0  0  0
   -2.5007    1.0288    0.0000 C   0  0  0  0  0  0  0  0  0  0  0  0
   -3.2151    1.4413    0.0000 C   0  0  0  0  0  0  0  0  0  0  0  0
   -3.9296    1.0288    0.0000 O   0  0  0  0  0  0  0  0  0  0  0  0
   -3.2151    2.2662    0.0000 O   0  0  0  0  0  0  0  0  0  0  0  0
   -0.3573   -1.0337    0.0000 C   0  0  0  0  0  0  0  0  0  0  0  0
    0.3571   -1.4461    0.0000 C   0  0  0  0  0  0  0  0  0  0  0  0
    1.0716   -1.0337    0.0000 O   0  5  0  0  0  0  0  0  0  0  0  0
    0.3571   -2.2712    0.0000 O   0  0  0  0  0  0  0  0  0  0  0  0
    2.5005   -0.2086    0.0000 C   0  0  0  0  0  0  0  0  0  0  0  0
    3.2150    0.2038    0.0000 C   0  0  0  0  0  0  0  0  0  0  0  0
    3.2150    1.0288    0.0000 O   0  0  0  0  0  0  0  0  0  0  0  0
    3.9296   -0.2086    0.0000 O   0  0  0  0  0  0  0  0  0  0  0  0
    1.7861    1.0288    0.0000 C   0  0  0  0  0  0  0  0  0  0  0  0
    1.0716    2.2662    0.0000 O   0  0  0  0  0  0  0  0  0  0  0  0
    1.0716    1.4413    0.0000 C   0  0  0  0  0  0  0  0  0  0  0  0
    0.3571    1.0288    0.0000 O   0  5  0  0  0  0  0  0  0  0  0  0
   -3.2151   -0.2086    0.0000 C   0  0  0  0  0  0  0  0  0  0  0  0
   -2.5007   -1.4461    0.0000 O   0  5  0  0  0  0  0  0  0  0  0  0
   -3.2151   -1.0337    0.0000 C   0  0  0  0  0  0  0  0  0  0  0  0
   -3.9296   -1.4461    0.0000 O   0  0  0  0  0  0  0  0  0  0  0  0
   -1.1329    2.2712    0.0000 Gd  0  1  0  0  0  0  0  0  0  0  0  0
    1.0716   -1.2786    0.0000 H   0  0  0  0  0  0  0  0  0  0  0  0
    0.1450   -0.7437    0.0000 H   0  0  0  0  0  0  0  0  0  0  0  0
    0.3571    1.2738    0.0000 H   0  0  0  0  0  0  0  0  0  0  0  0
   -0.5695    0.7388    0.0000 H   0  0  0  0  0  0  0  0  0  0  0  0
   -1.0717    1.2738    0.0000 H   0  0  0  0  0  0  0  0  0  0  0  0
   -1.9983    0.7389    0.0000 H   0  0  0  0  0  0  0  0  0  0  0  0
   -1.7862   -1.2786    0.0000 H   0  0  0  0  0  0  0  0  0  0  0  0
   -2.7128   -0.7437    0.0000 H   0  0  0  0  0  0  0  0  0  0  0  0
   -1.5740    1.5638    0.0000 H   0  0  0  0  0  0  0  0  0  0  0  0
   -2.5007    2.0988    0.0000 H   0  0  0  0  0  0  0  0  0  0  0  0
   -4.7411    1.4973    0.0000 H   0  0  0  0  0  0  0  0  0  0  0  0
   -1.2839   -1.5687    0.0000 H   0  0  0  0  0  0  0  0  0  0  0  0
   -0.3573   -2.1037    0.0000 H   0  0  0  0  0  0  0  0  0  0  0  0
    2.5005   -1.2786    0.0000 H   0  0  0  0  0  0  0  0  0  0  0  0
    3.4271   -0.7437    0.0000 H   0  0  0  0  0  0  0  0  0  0  0  0
    3.9298   -1.1456    0.0000 H   0  0  0  0  0  0  0  0  0  0  0  0
    2.7127    1.5638    0.0000 H   0  0  0  0  0  0  0  0  0  0  0  0
    1.7861    2.0988    0.0000 H   0  0  0  0  0  0  0  0  0  0  0  0
   -4.1417    0.3264    0.0000 H   0  0  0  0  0  0  0  0  0  0  0  0
   -4.1418   -0.7436    0.0000 H   0  0  0  0  0  0  0  0  0  0  0  0
  1  2  1  0  0  0  0
  1 16  1  0  0  0  0
  2  3  1  0  0  0  0
  2 29  1  0  0  0  0
  2 30  1  0  0  0  0
  3  4  1  0  0  0  0
  3 31  1  0  0  0  0
  3 32  1  0  0  0  0
  4  5  1  0  0  0  0
  4 12  1  0  0  0  0
  5  6  1  0  0  0  0
  5 33  1  0  0  0  0
  5 34  1  0  0  0  0
  6  7  1  0  0  0  0
  6 35  1  0  0  0  0
  6 36  1  0  0  0  0
  7  8  1  0  0  0  0
  7 24  1  0  0  0  0
  8  9  1  0  0  0  0
  8 37  1  0  0  0  0
  8 38  1  0  0  0  0
  9 10  1  0  0  0  0
  9 11  2  0  0  0  0
 10 39  1  0  0  0  0
 12 13  1  0  0  0  0
 12 40  1  0  0  0  0
 12 41  1  0  0  0  0
 13 14  1  0  0  0  0
 13 15  2  0  0  0  0
 16 17  1  0  0  0  0
 16 42  1  0  0  0  0
 16 43  1  0  0  0  0
 17 18  2  0  0  0  0
 17 19  1  0  0  0  0
 19 44  1  0  0  0  0
 20  1  1  0  0  0  0
 20 22  1  0  0  0  0
 20 45  1  0  0  0  0
 20 46  1  0  0  0  0
 22 21  2  0  0  0  0
 22 23  1  0  0  0  0
 24 26  1  0  0  0  0
 24 47  1  0  0  0  0
 24 48  1  0  0  0  0
 26 25  1  0  0  0  0
 26 27  2  0  0  0  0
M  CHG  4  14  -1  23  -1  25  -1  28   3
M  END
>  <DRUGBANK_ID>
DB00789

>  <SECONDARY_ACCESSION_NUMBERS>
APRD00991

>  <COMMON_NAME>
Gadopentetic acid

>  <CAS_NUMBER>
80529-93-7

>  <UNII>
K2I13DR72L

>  <SYNONYMS>
Acide gadopentetique; ácido gadopentético; Acidum gadopenteticum; Gadolinium diethylenetriamine pentaacetic acid; Gadolinium DTPA; Gadopentetate; Gadopentetic acid

$$$$
