
 OpenBabel10282417072D

 88 91  0  0  0  0  0  0  0  0999 V2000
   -2.1426    1.5020    0.0000 C   0  0  0  0  0  0  0  0  0  0  0  0
   -2.8573    1.0895    0.0000 C   0  0  0  0  0  0  0  0  0  0  0  0
   -2.8573    0.2644    0.0000 C   0  0  0  0  0  0  0  0  0  0  0  0
   -2.1426   -0.1480    0.0000 C   0  0  0  0  0  0  0  0  0  0  0  0
   -1.4282    0.2644    0.0000 C   0  0  0  0  0  0  0  0  0  0  0  0
   -1.4282    1.0895    0.0000 C   0  0  0  0  0  0  0  0  0  0  0  0
   -0.7137    1.5020    0.0000 C   0  0  2  0  0  0  0  0  0  0  0  0
   -0.7137   -0.1480    0.0000 C   0  0  0  0  0  0  0  0  0  0  0  0
    0.0007    0.2644    0.0000 C   0  0  2  0  0  0  0  0  0  0  0  0
    0.0007    1.0895    0.0000 C   0  0  1  0  0  0  0  0  0  0  0  0
    0.0007    2.7394    0.0000 C   0  0  0  0  0  0  0  0  0  0  0  0
   -0.7137    2.3270    0.0000 C   0  0  0  0  0  0  0  0  0  0  0  0
    0.7152    1.5020    0.0000 C   0  0  1  0  0  0  0  0  0  0  0  0
    0.7152    2.3270    0.0000 C   0  0  1  0  0  0  0  0  0  0  0  0
    1.4998    2.5820    0.0000 C   0  0  2  0  0  0  0  0  0  0  0  0
    1.4998    1.2470    0.0000 C   0  0  0  0  0  0  0  0  0  0  0  0
    1.9847    1.9145    0.0000 C   0  0  0  0  0  0  0  0  0  0  0  0
   -3.5717   -0.1480    0.0000 O   0  0  0  0  0  0  0  0  0  0  0  0
   -0.7137    0.6769    0.0000 H   0  0  0  0  0  0  0  0  0  0  0  0
    0.7152    0.6769    0.0000 H   0  0  0  0  0  0  0  0  0  0  0  0
    0.7152   -0.1480    0.0000 C   0  0  0  0  0  0  0  0  0  0  0  0
    1.4296    0.2644    0.0000 C   0  0  0  0  0  0  0  0  0  0  0  0
    2.1441   -0.1480    0.0000 C   0  0  0  0  0  0  0  0  0  0  0  0
    2.8586    0.2644    0.0000 C   0  0  0  0  0  0  0  0  0  0  0  0
    3.5717   -0.1482    0.0000 C   0  0  0  0  0  0  0  0  0  0  0  0
    3.5641   -0.9732    0.0000 C   0  0  0  0  0  0  0  0  0  0  0  0
    2.8458   -1.3791    0.0000 C   0  0  0  0  0  0  0  0  0  0  0  0
    2.8381   -2.2040    0.0000 C   0  0  0  0  0  0  0  0  0  0  0  0
    2.1199   -2.6099    0.0000 C   0  0  0  0  0  0  0  0  0  0  0  0
    1.4108   -2.1880    0.0000 S   0  0  3  0  0  0  0  0  0  0  0  0
    1.4216   -1.3631    0.0000 O   0  0  0  0  0  0  0  0  0  0  0  0
    0.6908   -2.5912    0.0000 C   0  0  0  0  0  0  0  0  0  0  0  0
   -0.0179   -2.1694    0.0000 C   0  0  0  0  0  0  0  0  0  0  0  0
   -0.7377   -2.5725    0.0000 C   0  0  0  0  0  0  0  0  0  0  0  0
   -1.4468   -2.1507    0.0000 C   0  0  0  0  0  0  0  0  0  0  0  0
   -2.1666   -2.5539    0.0000 C   0  0  0  0  0  0  0  0  0  0  0  0
   -1.0251   -1.4417    0.0000 F   0  0  0  0  0  0  0  0  0  0  0  0
   -1.8501   -1.4310    0.0000 F   0  0  0  0  0  0  0  0  0  0  0  0
   -2.8757   -2.1321    0.0000 F   0  0  0  0  0  0  0  0  0  0  0  0
   -2.1774   -3.3788    0.0000 F   0  0  0  0  0  0  0  0  0  0  0  0
    1.7132    3.3788    0.0000 O   0  0  0  0  0  0  0  0  0  0  0  0
    0.7152    3.1520    0.0000 C   0  0  0  0  0  0  0  0  0  0  0  0
    0.0038    1.9099    0.0000 H   0  0  0  0  0  0  0  0  0  0  0  0
   -2.8952   -2.9435    0.0000 F   0  0  0  0  0  0  0  0  0  0  0  0
   -2.1425    2.5340    0.0000 H   0  0  0  0  0  0  0  0  0  0  0  0
   -3.7510    1.6056    0.0000 H   0  0  0  0  0  0  0  0  0  0  0  0
   -2.1425   -1.1800    0.0000 H   0  0  0  0  0  0  0  0  0  0  0  0
   -0.7137   -1.2180    0.0000 H   0  0  0  0  0  0  0  0  0  0  0  0
    0.2129   -0.6830    0.0000 H   0  0  0  0  0  0  0  0  0  0  0  0
    0.0007   -0.8056    0.0000 H   0  0  0  0  0  0  0  0  0  0  0  0
    0.0007    3.8094    0.0000 H   0  0  0  0  0  0  0  0  0  0  0  0
    0.9273    3.2745    0.0000 H   0  0  0  0  0  0  0  0  0  0  0  0
   -1.6403    2.8620    0.0000 H   0  0  0  0  0  0  0  0  0  0  0  0
   -0.7137    3.3970    0.0000 H   0  0  0  0  0  0  0  0  0  0  0  0
    0.7236    3.3185    0.0000 H   0  0  0  0  0  0  0  0  0  0  0  0
    1.8304    0.2294    0.0000 H   0  0  0  0  0  0  0  0  0  0  0  0
    2.5566    1.0796    0.0000 H   0  0  0  0  0  0  0  0  0  0  0  0
    3.0547    1.9145    0.0000 H   0  0  0  0  0  0  0  0  0  0  0  0
    2.4705    2.8679    0.0000 H   0  0  0  0  0  0  0  0  0  0  0  0
   -4.3831    0.3206    0.0000 H   0  0  0  0  0  0  0  0  0  0  0  0
    0.7152   -1.2180    0.0000 H   0  0  0  0  0  0  0  0  0  0  0  0
    1.6418   -0.6830    0.0000 H   0  0  0  0  0  0  0  0  0  0  0  0
    1.4296    1.3344    0.0000 H   0  0  0  0  0  0  0  0  0  0  0  0
    2.3562    0.7995    0.0000 H   0  0  0  0  0  0  0  0  0  0  0  0
    2.1441   -1.2180    0.0000 H   0  0  0  0  0  0  0  0  0  0  0  0
    3.0707   -0.6831    0.0000 H   0  0  0  0  0  0  0  0  0  0  0  0
    2.8592    1.3344    0.0000 H   0  0  0  0  0  0  0  0  0  0  0  0
    3.7856    0.7987    0.0000 H   0  0  0  0  0  0  0  0  0  0  0  0
    4.5011    0.3821    0.0000 H   0  0  0  0  0  0  0  0  0  0  0  0
    4.4945   -0.6898    0.0000 H   0  0  0  0  0  0  0  0  0  0  0  0
    4.4858   -1.5167    0.0000 H   0  0  0  0  0  0  0  0  0  0  0  0
    3.5542   -2.0432    0.0000 H   0  0  0  0  0  0  0  0  0  0  0  0
    1.9242   -0.8355    0.0000 H   0  0  0  0  0  0  0  0  0  0  0  0
    1.9142   -1.9054    0.0000 H   0  0  0  0  0  0  0  0  0  0  0  0
    3.7598   -2.7476    0.0000 H   0  0  0  0  0  0  0  0  0  0  0  0
    2.8282   -3.2740    0.0000 H   0  0  0  0  0  0  0  0  0  0  0  0
    2.1080   -3.6798    0.0000 H   0  0  0  0  0  0  0  0  0  0  0  0
    1.1868   -3.1336    0.0000 H   0  0  0  0  0  0  0  0  0  0  0  0
    0.6767   -3.6611    0.0000 H   0  0  0  0  0  0  0  0  0  0  0  0
   -0.2428   -3.1139    0.0000 H   0  0  0  0  0  0  0  0  0  0  0  0
   -0.0038   -1.0995    0.0000 H   0  0  0  0  0  0  0  0  0  0  0  0
   -0.9374   -1.6223    0.0000 H   0  0  0  0  0  0  0  0  0  0  0  0
   -0.7517   -3.6424    0.0000 H   0  0  0  0  0  0  0  0  0  0  0  0
   -1.6712   -3.0954    0.0000 H   0  0  0  0  0  0  0  0  0  0  0  0
    2.6501    3.6300    0.0000 H   0  0  0  0  0  0  0  0  0  0  0  0
    1.6418    3.6870    0.0000 H   0  0  0  0  0  0  0  0  0  0  0  0
   -0.2114    3.6870    0.0000 H   0  0  0  0  0  0  0  0  0  0  0  0
    0.7152    4.2220    0.0000 H   0  0  0  0  0  0  0  0  0  0  0  0
  1  2  1  0  0  0  0
  1  6  2  0  0  0  0
  1 45  1  0  0  0  0
  2  3  2  0  0  0  0
  2 46  1  0  0  0  0
  3  4  1  0  0  0  0
  3 18  1  0  0  0  0
  4  5  2  0  0  0  0
  4 47  1  0  0  0  0
  5  8  1  0  0  0  0
  6  5  1  0  0  0  0
  7  6  1  0  0  0  0
  7 12  1  0  0  0  0
  7 10  1  0  0  0  0
  7 19  1  6  0  0  0
  8  9  1  0  0  0  0
  8 48  1  0  0  0  0
  8 49  1  0  0  0  0
  9 10  1  0  0  0  0
  9 21  1  0  0  0  0
  9 50  1  1  0  0  0
 10 13  1  0  0  0  0
 10 43  1  1  0  0  0
 11 12  1  0  0  0  0
 11 14  1  0  0  0  0
 11 51  1  0  0  0  0
 11 52  1  0  0  0  0
 12 53  1  0  0  0  0
 12 54  1  0  0  0  0
 13 16  1  0  0  0  0
 13 20  1  6  0  0  0
 14 13  1  0  0  0  0
 14 42  1  1  0  0  0
 15 14  1  0  0  0  0
 15 17  1  0  0  0  0
 15 41  1  0  0  0  0
 15 55  1  6  0  0  0
 16 17  1  0  0  0  0
 16 56  1  0  0  0  0
 16 57  1  0  0  0  0
 17 58  1  0  0  0  0
 17 59  1  0  0  0  0
 18 60  1  0  0  0  0
 21 22  1  0  0  0  0
 21 61  1  0  0  0  0
 21 62  1  0  0  0  0
 22 23  1  0  0  0  0
 22 63  1  0  0  0  0
 22 64  1  0  0  0  0
 23 24  1  0  0  0  0
 23 65  1  0  0  0  0
 23 66  1  0  0  0  0
 24 25  1  0  0  0  0
 24 67  1  0  0  0  0
 24 68  1  0  0  0  0
 25 26  1  0  0  0  0
 25 69  1  0  0  0  0
 25 70  1  0  0  0  0
 26 27  1  0  0  0  0
 26 71  1  0  0  0  0
 26 72  1  0  0  0  0
 27 28  1  0  0  0  0
 27 73  1  0  0  0  0
 27 74  1  0  0  0  0
 28 29  1  0  0  0  0
 28 75  1  0  0  0  0
 28 76  1  0  0  0  0
 29 30  1  0  0  0  0
 29 77  1  0  0  0  0
 29 78  1  0  0  0  0
 30 31  2  0  0  0  0
 30 32  1  0  0  0  0
 32 33  1  0  0  0  0
 32 79  1  0  0  0  0
 32 80  1  0  0  0  0
 33 34  1  0  0  0  0
 33 81  1  0  0  0  0
 33 82  1  0  0  0  0
 34 35  1  0  0  0  0
 34 83  1  0  0  0  0
 34 84  1  0  0  0  0
 35 36  1  0  0  0  0
 35 37  1  0  0  0  0
 35 38  1  0  0  0  0
 36 39  1  0  0  0  0
 36 40  1  0  0  0  0
 36 44  1  0  0  0  0
 41 85  1  0  0  0  0
 42 86  1  0  0  0  0
 42 87  1  0  0  0  0
 42 88  1  0  0  0  0
M  END
>  <DRUGBANK_ID>
DB00947

>  <SECONDARY_ACCESSION_NUMBERS>
APRD00654

>  <COMMON_NAME>
Fulvestrant

>  <CAS_NUMBER>
129453-61-8

>  <UNII>
22X328QOC4

>  <SYNONYMS>
(7α,17β)-7-{9-[(4,4,5,5,5-pentafluoropentyl)sulfinyl]nonyl}estra-1(10),2,4-triene-3,17-diol; Fulvestrant

$$$$
