
 OpenBabel10282417072D

 36 37  0  0  1  0  0  0  0  0999 V2000
   -6.2785    4.0665    0.0000 C   0  0  0  0  0  0  0  0  0  0  0  0
   -5.4716    3.8949    0.0000 O   0  0  0  0  0  0  0  0  0  0  0  0
   -5.2166    3.1103    0.0000 C   0  0  0  0  0  0  0  0  0  0  0  0
   -4.4097    2.9388    0.0000 C   0  0  0  0  0  0  0  0  0  0  0  0
   -4.1547    2.1542    0.0000 C   0  0  0  0  0  0  0  0  0  0  0  0
   -4.7067    1.5411    0.0000 C   0  0  0  0  0  0  0  0  0  0  0  0
   -4.2942    0.8266    0.0000 N   0  0  0  0  0  0  0  0  0  0  0  0
   -3.4873    0.9981    0.0000 C   0  0  0  0  0  0  0  0  0  0  0  0
   -3.4010    1.8186    0.0000 C   0  0  0  0  0  0  0  0  0  0  0  0
   -2.6866    2.2311    0.0000 C   0  0  1  0  0  0  0  0  0  0  0  0
   -2.6866    3.0561    0.0000 C   0  0  0  0  0  0  0  0  0  0  0  0
   -1.9721    1.8186    0.0000 C   0  0  0  0  0  0  0  0  0  0  0  0
   -1.2576    2.2311    0.0000 N   0  0  0  0  0  0  0  0  0  0  0  0
   -0.5432    1.8186    0.0000 C   0  0  0  0  0  0  0  0  0  0  0  0
    0.1713    2.2311    0.0000 C   0  0  0  0  0  0  0  0  0  0  0  0
   -0.5432    0.9936    0.0000 O   0  0  0  0  0  0  0  0  0  0  0  0
   -5.5137    1.7126    0.0000 C   0  0  0  0  0  0  0  0  0  0  0  0
   -5.7687    2.4972    0.0000 C   0  0  0  0  0  0  0  0  0  0  0  0
   -6.5756    2.6687    0.0000 Cl  0  0  0  0  0  0  0  0  0  0  0  0
   -6.6090    5.0842    0.0000 H   0  0  0  0  0  0  0  0  0  0  0  0
   -6.9946    3.2714    0.0000 H   0  0  0  0  0  0  0  0  0  0  0  0
   -7.3251    4.2891    0.0000 H   0  0  0  0  0  0  0  0  0  0  0  0
   -3.7192    3.7058    0.0000 H   0  0  0  0  0  0  0  0  0  0  0  0
   -4.6946   -0.0728    0.0000 H   0  0  0  0  0  0  0  0  0  0  0  0
   -2.7204    0.3075    0.0000 H   0  0  0  0  0  0  0  0  0  0  0  0
   -3.6133    2.7661    0.0000 H   0  0  0  0  0  0  0  0  0  0  0  0
   -1.7600    3.5911    0.0000 H   0  0  0  0  0  0  0  0  0  0  0  0
   -3.6132    3.5911    0.0000 H   0  0  0  0  0  0  0  0  0  0  0  0
   -2.6866    4.1261    0.0000 H   0  0  0  0  0  0  0  0  0  0  0  0
   -1.9721    0.7486    0.0000 H   0  0  0  0  0  0  0  0  0  0  0  0
   -1.0455    1.2836    0.0000 H   0  0  0  0  0  0  0  0  0  0  0  0
   -1.2576    3.2156    0.0000 H   0  0  0  0  0  0  0  0  0  0  0  0
    1.0979    1.6961    0.0000 H   0  0  0  0  0  0  0  0  0  0  0  0
    0.1713    3.3011    0.0000 H   0  0  0  0  0  0  0  0  0  0  0  0
    1.0980    2.7661    0.0000 H   0  0  0  0  0  0  0  0  0  0  0  0
   -6.2042    0.9456    0.0000 H   0  0  0  0  0  0  0  0  0  0  0  0
  1  2  1  0  0  0  0
  1 20  1  0  0  0  0
  1 21  1  0  0  0  0
  1 22  1  0  0  0  0
  2  3  1  0  0  0  0
  3  4  2  0  0  0  0
  3 18  1  0  0  0  0
  4  5  1  0  0  0  0
  4 23  1  0  0  0  0
  5  6  2  0  0  0  0
  5  9  1  0  0  0  0
  6  7  1  0  0  0  0
  6 17  1  0  0  0  0
  7  8  1  0  0  0  0
  7 24  1  0  0  0  0
  8  9  2  0  0  0  0
  8 25  1  0  0  0  0
 10  9  1  0  0  0  0
 10 11  1  0  0  0  0
 10 12  1  0  0  0  0
 10 26  1  6  0  0  0
 11 27  1  0  0  0  0
 11 28  1  0  0  0  0
 11 29  1  0  0  0  0
 12 13  1  0  0  0  0
 12 30  1  0  0  0  0
 12 31  1  0  0  0  0
 13 14  1  0  0  0  0
 13 32  1  0  0  0  0
 14 15  1  0  0  0  0
 14 16  2  0  0  0  0
 15 33  1  0  0  0  0
 15 34  1  0  0  0  0
 15 35  1  0  0  0  0
 17 18  2  0  0  0  0
 17 36  1  0  0  0  0
 18 19  1  0  0  0  0
M  END
>  <DRUGBANK_ID>
DB16909

>  <COMMON_NAME>
TIK-301

>  <CAS_NUMBER>
118702-11-7

>  <UNII>
3ZX95B1ZWK

>  <SYNONYMS>
(R)-N-[2-(6-Chloro-5-Methoxy-1H-Indol-3-Yl)Propyl]Acetamide; Beta-methyl-6-chloromelatonin; LY-156,735; LY-156735; N-((2r)-2-(6-chloro-5-methoxy-1h-indol-3-yl)propyl)acetamide

$$$$
