
 OpenBabel10282417072D

 40 43  0  0  0  0  0  0  0  0999 V2000
    0.2402   -0.0012    0.0000 C   0  0  3  0  0  0  0  0  0  0  0  0
   -0.1663   -0.7108    0.0000 C   0  0  0  0  0  0  0  0  0  0  0  0
    1.0583    0.1145    0.0000 N   0  0  3  0  0  0  0  0  0  0  0  0
    0.1268   -1.4821    0.0000 C   0  0  0  0  0  0  0  0  0  0  0  0
    0.9129   -1.7261    0.0000 N   0  0  0  0  0  0  0  0  0  0  0  0
   -0.1145    0.7355    0.0000 O   0  0  0  0  0  0  0  0  0  0  0  0
    1.5979   -1.2653    0.0000 C   0  0  0  0  0  0  0  0  0  0  0  0
    1.6644   -0.4373    0.0000 C   0  0  0  0  0  0  0  0  0  0  0  0
    1.1938    0.9277    0.0000 C   0  0  0  0  0  0  0  0  0  0  0  0
   -0.9745   -0.5877    0.0000 C   0  0  0  0  0  0  0  0  0  0  0  0
   -0.5162    0.2993    0.0000 C   0  0  0  0  0  0  0  0  0  0  0  0
    0.4620    1.3072    0.0000 C   0  0  3  0  0  0  0  0  0  0  0  0
    2.3101   -1.6817    0.0000 O   0  0  0  0  0  0  0  0  0  0  0  0
   -0.3757   -2.1252    0.0000 C   0  0  0  0  0  0  0  0  0  0  0  0
   -1.4969   -1.2308    0.0000 C   0  0  0  0  0  0  0  0  0  0  0  0
   -1.1938   -1.9972    0.0000 C   0  0  0  0  0  0  0  0  0  0  0  0
   -2.3101   -1.1051    0.0000 Cl  0  0  0  0  0  0  0  0  0  0  0  0
   -1.1643   -0.2008    0.0000 C   0  0  0  0  0  0  0  0  0  0  0  0
   -0.6271    1.1199    0.0000 C   0  0  0  0  0  0  0  0  0  0  0  0
    0.3437    2.1252    0.0000 C   0  0  0  0  0  0  0  0  0  0  0  0
   -1.9331    0.0949    0.0000 C   0  0  0  0  0  0  0  0  0  0  0  0
   -1.3959    1.4255    0.0000 C   0  0  0  0  0  0  0  0  0  0  0  0
   -2.0464    0.9129    0.0000 C   0  0  0  0  0  0  0  0  0  0  0  0
    1.0557   -2.7002    0.0000 H   0  0  0  0  0  0  0  0  0  0  0  0
    2.6596   -0.0443    0.0000 H   0  0  0  0  0  0  0  0  0  0  0  0
    1.8573    0.6152    0.0000 H   0  0  0  0  0  0  0  0  0  0  0  0
    2.1508    1.4062    0.0000 H   0  0  0  0  0  0  0  0  0  0  0  0
    1.2017    1.9977    0.0000 H   0  0  0  0  0  0  0  0  0  0  0  0
   -1.3465    0.3749    0.0000 H   0  0  0  0  0  0  0  0  0  0  0  0
   -0.5527    1.6468    0.0000 H   0  0  0  0  0  0  0  0  0  0  0  0
    0.0034   -3.0850    0.0000 H   0  0  0  0  0  0  0  0  0  0  0  0
   -1.8384   -2.8031    0.0000 H   0  0  0  0  0  0  0  0  0  0  0  0
   -1.0152   -1.2220    0.0000 H   0  0  0  0  0  0  0  0  0  0  0  0
    0.1860    1.7554    0.0000 H   0  0  0  0  0  0  0  0  0  0  0  0
    1.1842    2.7873    0.0000 H   0  0  0  0  0  0  0  0  0  0  0  0
   -0.6500    2.5221    0.0000 H   0  0  0  0  0  0  0  0  0  0  0  0
    0.1905    3.1842    0.0000 H   0  0  0  0  0  0  0  0  0  0  0  0
   -2.7416   -0.5465    0.0000 H   0  0  0  0  0  0  0  0  0  0  0  0
   -1.5445    2.4467    0.0000 H   0  0  0  0  0  0  0  0  0  0  0  0
   -3.0037    1.2985    0.0000 H   0  0  0  0  0  0  0  0  0  0  0  0
  2  1  1  0  0  0  0
  3  1  1  0  0  0  0
  4  2  2  0  0  0  0
  5  4  1  0  0  0  0
  5  7  1  0  0  0  0
  5 24  1  0  0  0  0
  6  1  1  0  0  0  0
  7  8  1  0  0  0  0
  8  3  1  0  0  0  0
  8 25  1  0  0  0  0
  8 26  1  0  0  0  0
  9  3  1  0  0  0  0
  9 12  1  0  0  0  0
  9 27  1  0  0  0  0
  9 28  1  0  0  0  0
 10  2  1  0  0  0  0
 10 29  1  0  0  0  0
 11  1  1  0  0  0  0
 12  6  1  0  0  0  0
 12 30  1  0  0  0  0
 13  7  2  0  0  0  0
 14  4  1  0  0  0  0
 14 16  2  0  0  0  0
 14 31  1  0  0  0  0
 15 10  2  0  0  0  0
 16 15  1  0  0  0  0
 16 32  1  0  0  0  0
 17 15  1  0  0  0  0
 18 11  1  0  0  0  0
 18 33  1  0  0  0  0
 19 11  2  0  0  0  0
 19 34  1  0  0  0  0
 20 12  1  0  0  0  0
 20 35  1  0  0  0  0
 20 36  1  0  0  0  0
 20 37  1  0  0  0  0
 21 18  2  0  0  0  0
 21 23  1  0  0  0  0
 21 38  1  0  0  0  0
 22 19  1  0  0  0  0
 22 39  1  0  0  0  0
 23 22  2  0  0  0  0
 23 40  1  0  0  0  0
M  END
>  <DRUGBANK_ID>
DB15491

>  <COMMON_NAME>
Oxazolam

>  <CAS_NUMBER>
24143-17-7

>  <UNII>
1V2WI2NA1C

>  <SYNONYMS>
Oxazolam; Oxazolamum; Oxazolazepam

$$$$
