
 OpenBabel10282417072D

 18 17  0  0  0  0  0  0  0  0999 V2000
    1.2481   -0.3602    0.0000 O   0  0  0  0  0  0  0  0  0  0  0  0
    0.4018    1.0808    0.0000 N   0  0  0  0  0  0  0  0  0  0  0  0
   -1.2481    1.0439    0.0000 N   0  0  0  0  0  0  0  0  0  0  0  0
   -1.2267   -0.3848    0.0000 C   0  0  0  0  0  0  0  0  0  0  0  0
   -0.8250    0.3481    0.0000 C   0  0  2  0  0  0  0  0  0  0  0  0
    0.0000    0.3481    0.0000 C   0  0  2  0  0  0  0  0  0  0  0  0
    0.4231   -0.3602    0.0000 C   0  0  0  0  0  0  0  0  0  0  0  0
    0.0214   -1.0808    0.0000 O   0  0  0  0  0  0  0  0  0  0  0  0
    1.4216    1.1032    0.0000 H   0  0  0  0  0  0  0  0  0  0  0  0
   -0.1275    1.9527    0.0000 H   0  0  0  0  0  0  0  0  0  0  0  0
   -0.7583    1.9386    0.0000 H   0  0  0  0  0  0  0  0  0  0  0  0
   -2.2678    1.0207    0.0000 H   0  0  0  0  0  0  0  0  0  0  0  0
   -2.2964   -0.4086    0.0000 H   0  0  0  0  0  0  0  0  0  0  0  0
   -0.6712   -1.2993    0.0000 H   0  0  0  0  0  0  0  0  0  0  0  0
   -1.7410   -1.3231    0.0000 H   0  0  0  0  0  0  0  0  0  0  0  0
   -1.8947    0.3241    0.0000 H   0  0  0  0  0  0  0  0  0  0  0  0
   -0.5452    1.2688    0.0000 H   0  0  0  0  0  0  0  0  0  0  0  0
   -0.9155   -1.0949    0.0000 H   0  0  0  0  0  0  0  0  0  0  0  0
  2  9  1  0  0  0  0
  2 10  1  0  0  0  0
  3 11  1  0  0  0  0
  3 12  1  0  0  0  0
  4 13  1  0  0  0  0
  4 14  1  0  0  0  0
  4 15  1  0  0  0  0
  5  3  1  0  0  0  0
  5  4  1  0  0  0  0
  5 16  1  6  0  0  0
  6  2  1  0  0  0  0
  6  5  1  0  0  0  0
  6  7  1  0  0  0  0
  6 17  1  6  0  0  0
  7  1  2  0  0  0  0
  7  8  1  0  0  0  0
  8 18  1  0  0  0  0
M  END
>  <DRUGBANK_ID>
DB04802

>  <COMMON_NAME>
D-Erythro-2,3-diaminobutyric acid

>  <CAS_NUMBER>
25023-78-3

>  <UNII>
60CFB2VK6V

>  <SYNONYMS>
(2R,3R)-2,3-Diaminobutanoic acid

$$$$
