
 OpenBabel10282417072D

 44 47  0  0  1  0  0  0  0  0999 V2000
   -1.2371   -0.9685    0.0000 C   0  0  0  0  0  0  0  0  0  0  0  0
   -1.5726   -1.7222    0.0000 C   0  0  1  0  0  0  0  0  0  0  0  0
   -2.3931   -1.8084    0.0000 O   0  0  0  0  0  0  0  0  0  0  0  0
   -1.0877   -2.3896    0.0000 C   0  0  0  0  0  0  0  0  0  0  0  0
   -0.2627   -2.3896    0.0000 N   0  0  0  0  0  0  0  0  0  0  0  0
   -0.0078   -3.1743    0.0000 N   0  0  0  0  0  0  0  0  0  0  0  0
   -0.6752   -3.6592    0.0000 C   0  0  0  0  0  0  0  0  0  0  0  0
   -1.3426   -3.1743    0.0000 O   0  0  0  0  0  0  0  0  0  0  0  0
   -0.6752   -4.4842    0.0000 C   0  0  1  0  0  0  0  0  0  0  0  0
   -0.0918   -5.0675    0.0000 C   0  0  0  0  0  0  0  0  0  0  0  0
   -0.6752   -5.6509    0.0000 C   0  0  1  0  0  0  0  0  0  0  0  0
   -1.2586   -5.0675    0.0000 C   0  0  0  0  0  0  0  0  0  0  0  0
   -0.6752   -6.4759    0.0000 N   0  0  0  0  0  0  0  0  0  0  0  0
    0.0393   -6.8884    0.0000 C   0  0  0  0  0  0  0  0  0  0  0  0
    0.7537   -6.4759    0.0000 O   0  0  0  0  0  0  0  0  0  0  0  0
    0.0393   -7.7134    0.0000 C   0  0  0  0  0  0  0  0  0  0  0  0
    0.7067   -8.1983    0.0000 C   0  0  0  0  0  0  0  0  0  0  0  0
    0.4518   -8.9830    0.0000 C   0  0  0  0  0  0  0  0  0  0  0  0
   -0.3732   -8.9830    0.0000 N   0  0  0  0  0  0  0  0  0  0  0  0
   -0.6282   -8.1983    0.0000 O   0  0  0  0  0  0  0  0  0  0  0  0
    0.9367   -9.6504    0.0000 C   0  0  0  0  0  0  0  0  0  0  0  0
    1.7572   -9.5642    0.0000 C   0  0  0  0  0  0  0  0  0  0  0  0
    2.2421  -10.2316    0.0000 C   0  0  0  0  0  0  0  0  0  0  0  0
    1.9065  -10.9853    0.0000 C   0  0  0  0  0  0  0  0  0  0  0  0
    1.0860  -11.0715    0.0000 C   0  0  0  0  0  0  0  0  0  0  0  0
    0.6011  -10.4041    0.0000 C   0  0  0  0  0  0  0  0  0  0  0  0
   -0.1730   -0.8566    0.0000 H   0  0  0  0  0  0  0  0  0  0  0  0
   -1.8661   -0.1029    0.0000 H   0  0  0  0  0  0  0  0  0  0  0  0
   -0.8020    0.0090    0.0000 H   0  0  0  0  0  0  0  0  0  0  0  0
   -2.2015   -0.8566    0.0000 H   0  0  0  0  0  0  0  0  0  0  0  0
   -2.9632   -1.0236    0.0000 H   0  0  0  0  0  0  0  0  0  0  0  0
    0.3133   -4.0747    0.0000 H   0  0  0  0  0  0  0  0  0  0  0  0
    0.9782   -5.0675    0.0000 H   0  0  0  0  0  0  0  0  0  0  0  0
    0.3177   -6.0560    0.0000 H   0  0  0  0  0  0  0  0  0  0  0  0
    0.3134   -6.0604    0.0000 H   0  0  0  0  0  0  0  0  0  0  0  0
   -2.3286   -5.0675    0.0000 H   0  0  0  0  0  0  0  0  0  0  0  0
   -1.6680   -4.0789    0.0000 H   0  0  0  0  0  0  0  0  0  0  0  0
   -1.5278   -6.9682    0.0000 H   0  0  0  0  0  0  0  0  0  0  0  0
    1.6882   -7.8794    0.0000 H   0  0  0  0  0  0  0  0  0  0  0  0
    2.1770   -8.6214    0.0000 H   0  0  0  0  0  0  0  0  0  0  0  0
    3.2684  -10.1237    0.0000 H   0  0  0  0  0  0  0  0  0  0  0  0
    2.5131  -11.8202    0.0000 H   0  0  0  0  0  0  0  0  0  0  0  0
    0.6662  -12.0143    0.0000 H   0  0  0  0  0  0  0  0  0  0  0  0
   -0.4252  -10.5120    0.0000 H   0  0  0  0  0  0  0  0  0  0  0  0
  1 27  1  0  0  0  0
  1 28  1  0  0  0  0
  1 29  1  0  0  0  0
  2  1  1  0  0  0  0
  2  3  1  0  0  0  0
  2  4  1  0  0  0  0
  2 30  1  1  0  0  0
  3 31  1  0  0  0  0
  4  5  2  0  0  0  0
  4  8  1  0  0  0  0
  5  6  1  0  0  0  0
  6  7  2  0  0  0  0
  7  8  1  0  0  0  0
  9  7  1  0  0  0  0
  9 10  1  0  0  0  0
  9 12  1  0  0  0  0
  9 32  1  6  0  0  0
 10 33  1  0  0  0  0
 10 34  1  0  0  0  0
 11 10  1  0  0  0  0
 11 12  1  0  0  0  0
 11 13  1  0  0  0  0
 11 35  1  1  0  0  0
 12 36  1  0  0  0  0
 12 37  1  0  0  0  0
 13 14  1  0  0  0  0
 13 38  1  0  0  0  0
 14 15  2  0  0  0  0
 14 16  1  0  0  0  0
 16 17  2  0  0  0  0
 16 20  1  0  0  0  0
 17 18  1  0  0  0  0
 17 39  1  0  0  0  0
 18 19  2  0  0  0  0
 18 21  1  0  0  0  0
 19 20  1  0  0  0  0
 21 22  2  0  0  0  0
 21 26  1  0  0  0  0
 22 23  1  0  0  0  0
 22 40  1  0  0  0  0
 23 24  2  0  0  0  0
 23 41  1  0  0  0  0
 24 25  1  0  0  0  0
 24 42  1  0  0  0  0
 25 26  2  0  0  0  0
 25 43  1  0  0  0  0
 26 44  1  0  0  0  0
M  END
>  <DRUGBANK_ID>
DB15239

>  <COMMON_NAME>
Nesolicaftor

>  <CAS_NUMBER>
1953130-87-4

>  <UNII>
T2U4ZA62U4

>  <SYNONYMS>
N-(trans-3-(5-((R)-1-hydroxyethyl)-1,3,4-oxadiazol-2-yl)cyclobutyl)-3-phenylisoxazole-5-carboxamide; Nesolicitor

$$$$
