
 OpenBabel10282417072D

 31 31  0  0  0  0  0  0  0  0999 V2000
   -0.3611    0.0783    0.0000 O   0  0  0  0  0  0  0  0  0  0  0  0
   -0.3611   -2.3966    0.0000 O   0  0  0  0  0  0  0  0  0  0  0  0
   -1.7901   -1.5716    0.0000 O   0  0  0  0  0  0  0  0  0  0  0  0
    1.0677   -1.5716    0.0000 O   0  0  0  0  0  0  0  0  0  0  0  0
   -1.7901    0.9033    0.0000 O   0  0  0  0  0  0  0  0  0  0  0  0
    1.7823    1.3159    0.0000 O   0  0  0  0  0  0  0  0  0  0  0  0
    0.3533    1.3159    0.0000 O   0  0  0  0  0  0  0  0  0  0  0  0
    1.0677    0.0783    0.0000 N   0  0  0  0  0  0  0  0  0  0  0  0
   -0.3611   -1.5716    0.0000 C   0  0  1  0  0  0  0  0  0  0  0  0
   -1.0756   -1.1591    0.0000 C   0  0  1  0  0  0  0  0  0  0  0  0
    0.3533   -1.1591    0.0000 C   0  0  2  0  0  0  0  0  0  0  0  0
   -1.0756   -0.3341    0.0000 C   0  0  1  0  0  0  0  0  0  0  0  0
    0.3533   -0.3341    0.0000 C   0  0  1  0  0  0  0  0  0  0  0  0
   -1.7901    0.0783    0.0000 C   0  0  0  0  0  0  0  0  0  0  0  0
    1.0677    0.9033    0.0000 C   0  0  0  0  0  0  0  0  0  0  0  0
    1.7823    2.1409    0.0000 C   0  0  0  0  0  0  0  0  0  0  0  0
   -1.2011   -2.8816    0.0000 H   0  0  0  0  0  0  0  0  0  0  0  0
   -2.6301   -1.0866    0.0000 H   0  0  0  0  0  0  0  0  0  0  0  0
    1.0677   -2.5416    0.0000 H   0  0  0  0  0  0  0  0  0  0  0  0
   -0.9501    1.3883    0.0000 H   0  0  0  0  0  0  0  0  0  0  0  0
    1.9203   -0.4140    0.0000 H   0  0  0  0  0  0  0  0  0  0  0  0
   -1.2877   -2.1066    0.0000 H   0  0  0  0  0  0  0  0  0  0  0  0
   -1.0756   -2.2291    0.0000 H   0  0  0  0  0  0  0  0  0  0  0  0
    0.3533   -2.2291    0.0000 H   0  0  0  0  0  0  0  0  0  0  0  0
   -1.0756    0.7359    0.0000 H   0  0  0  0  0  0  0  0  0  0  0  0
    0.3533    0.7359    0.0000 H   0  0  0  0  0  0  0  0  0  0  0  0
   -2.7167   -0.4568    0.0000 H   0  0  0  0  0  0  0  0  0  0  0  0
   -1.7900   -0.9917    0.0000 H   0  0  0  0  0  0  0  0  0  0  0  0
    2.7089    2.6759    0.0000 H   0  0  0  0  0  0  0  0  0  0  0  0
    0.8557    2.6759    0.0000 H   0  0  0  0  0  0  0  0  0  0  0  0
    1.7823    3.2109    0.0000 H   0  0  0  0  0  0  0  0  0  0  0  0
  1 12  1  0  0  0  0
  1 13  1  0  0  0  0
  2 17  1  0  0  0  0
  3 18  1  0  0  0  0
  4 19  1  0  0  0  0
  5 14  1  0  0  0  0
  5 20  1  0  0  0  0
  6 15  1  0  0  0  0
  6 16  1  0  0  0  0
  7 15  2  0  0  0  0
  8 15  1  0  0  0  0
  8 21  1  0  0  0  0
  9  2  1  0  0  0  0
  9 10  1  0  0  0  0
  9 11  1  0  0  0  0
  9 22  1  6  0  0  0
 10  3  1  0  0  0  0
 10 12  1  0  0  0  0
 10 23  1  1  0  0  0
 11  4  1  0  0  0  0
 11 13  1  0  0  0  0
 11 24  1  1  0  0  0
 12 14  1  0  0  0  0
 12 25  1  6  0  0  0
 13  8  1  0  0  0  0
 13 26  1  6  0  0  0
 14 27  1  0  0  0  0
 14 28  1  0  0  0  0
 16 29  1  0  0  0  0
 16 30  1  0  0  0  0
 16 31  1  0  0  0  0
M  END
>  <DRUGBANK_ID>
DB03657

>  <SECONDARY_ACCESSION_NUMBERS>
EXPT01010

>  <COMMON_NAME>
1-deoxy-1-methoxycarbamido-beta-D-glucopyranose

>  <CAS_NUMBER>
188679-87-0

>  <SYNONYMS>
N-(Methoxycarbonyl)-Î²-D-glucopyranosylamine

$$$$
