CK6
 OpenBabel10282417072D

 37 39  0  0  0  0  0  0  0  0999 V2000
    0.9146    0.1247    0.0000 C   0  0  0  0  0  0  0  0  0  0  0  0
    0.9146   -0.7003    0.0000 C   0  0  0  0  0  0  0  0  0  0  0  0
    1.5821   -1.1852    0.0000 N   0  0  0  0  0  0  0  0  0  0  0  0
    1.3271   -1.9698    0.0000 C   0  0  0  0  0  0  0  0  0  0  0  0
    1.8121   -2.6372    0.0000 N   0  0  0  0  0  0  0  0  0  0  0  0
    2.6325   -2.5510    0.0000 C   0  0  0  0  0  0  0  0  0  0  0  0
    0.2472   -1.1852    0.0000 C   0  0  0  0  0  0  0  0  0  0  0  0
    0.5021   -1.9698    0.0000 S   0  0  0  0  0  0  0  0  0  0  0  0
   -0.5374   -0.9302    0.0000 C   0  0  0  0  0  0  0  0  0  0  0  0
   -1.1505   -1.4823    0.0000 C   0  0  0  0  0  0  0  0  0  0  0  0
   -0.7090   -0.1233    0.0000 N   0  0  0  0  0  0  0  0  0  0  0  0
   -1.4936    0.1317    0.0000 C   0  0  0  0  0  0  0  0  0  0  0  0
   -2.1067   -0.4204    0.0000 N   0  0  0  0  0  0  0  0  0  0  0  0
   -1.9351   -1.2273    0.0000 C   0  0  0  0  0  0  0  0  0  0  0  0
   -1.6651    0.9386    0.0000 N   0  0  0  0  0  0  0  0  0  0  0  0
   -1.0520    1.4907    0.0000 C   0  0  0  0  0  0  0  0  0  0  0  0
   -1.2235    2.2976    0.0000 C   0  0  0  0  0  0  0  0  0  0  0  0
   -0.6104    2.8497    0.0000 C   0  0  0  0  0  0  0  0  0  0  0  0
   -0.2674    1.2357    0.0000 C   0  0  0  0  0  0  0  0  0  0  0  0
    0.3457    1.7878    0.0000 C   0  0  0  0  0  0  0  0  0  0  0  0
    0.1742    2.5947    0.0000 C   0  0  0  0  0  0  0  0  0  0  0  0
    0.7873    3.1468    0.0000 O   0  0  0  0  0  0  0  0  0  0  0  0
    1.8412    0.6597    0.0000 H   0  0  0  0  0  0  0  0  0  0  0  0
   -0.0120    0.6597    0.0000 H   0  0  0  0  0  0  0  0  0  0  0  0
    0.9146    1.1947    0.0000 H   0  0  0  0  0  0  0  0  0  0  0  0
    1.4117   -3.5366    0.0000 H   0  0  0  0  0  0  0  0  0  0  0  0
    3.2614   -3.4167    0.0000 H   0  0  0  0  0  0  0  0  0  0  0  0
    3.0677   -1.5735    0.0000 H   0  0  0  0  0  0  0  0  0  0  0  0
    3.6966   -2.4392    0.0000 H   0  0  0  0  0  0  0  0  0  0  0  0
   -0.9359   -2.4918    0.0000 H   0  0  0  0  0  0  0  0  0  0  0  0
   -2.7020   -1.9179    0.0000 H   0  0  0  0  0  0  0  0  0  0  0  0
   -2.6014    1.2428    0.0000 H   0  0  0  0  0  0  0  0  0  0  0  0
   -2.2050    2.6165    0.0000 H   0  0  0  0  0  0  0  0  0  0  0  0
   -0.8250    3.8592    0.0000 H   0  0  0  0  0  0  0  0  0  0  0  0
   -0.0528    0.2262    0.0000 H   0  0  0  0  0  0  0  0  0  0  0  0
    1.3272    1.4689    0.0000 H   0  0  0  0  0  0  0  0  0  0  0  0
    1.6785    2.8573    0.0000 H   0  0  0  0  0  0  0  0  0  0  0  0
  1  2  1  0  0  0  0
  1 23  1  0  0  0  0
  1 24  1  0  0  0  0
  1 25  1  0  0  0  0
  2  3  1  0  0  0  0
  2  7  2  0  0  0  0
  3  4  2  0  0  0  0
  4  5  1  0  0  0  0
  4  8  1  0  0  0  0
  5  6  1  0  0  0  0
  5 26  1  0  0  0  0
  6 27  1  0  0  0  0
  6 28  1  0  0  0  0
  6 29  1  0  0  0  0
  7  8  1  0  0  0  0
  7  9  1  0  0  0  0
  9 10  2  0  0  0  0
  9 11  1  0  0  0  0
 10 14  1  0  0  0  0
 10 30  1  0  0  0  0
 11 12  2  0  0  0  0
 12 13  1  0  0  0  0
 12 15  1  0  0  0  0
 13 14  2  0  0  0  0
 14 31  1  0  0  0  0
 15 16  1  0  0  0  0
 15 32  1  0  0  0  0
 16 17  2  0  0  0  0
 16 19  1  0  0  0  0
 17 18  1  0  0  0  0
 17 33  1  0  0  0  0
 18 21  2  0  0  0  0
 18 34  1  0  0  0  0
 19 20  2  0  0  0  0
 19 35  1  0  0  0  0
 20 21  1  0  0  0  0
 20 36  1  0  0  0  0
 21 22  1  0  0  0  0
 22 37  1  0  0  0  0
M  END
>  <DRUGBANK_ID>
DB04407

>  <SECONDARY_ACCESSION_NUMBERS>
EXPT00929

>  <COMMON_NAME>
4-[4-(4-Methyl-2-Methylamino-Thiazol-5-Yl)-Pyrimidin-2-Ylamino]-Phenol

$$$$
