
 OpenBabel10282417072D

 48 49  0  0  0  0  0  0  0  0999 V2000
    0.3526    0.8217    0.0000 C   0  0  0  0  0  0  0  0  0  0  0  0
    1.0709    0.4031    0.0000 C   0  0  0  0  0  0  0  0  0  0  0  0
    0.3526    1.6511    0.0000 O   0  0  0  0  0  0  0  0  0  0  0  0
    1.7790    0.8217    0.0000 C   0  0  0  0  0  0  0  0  0  0  0  0
    1.0709   -0.4238    0.0000 C   0  0  0  0  0  0  0  0  0  0  0  0
   -0.3552    0.4031    0.0000 O   0  0  0  0  0  0  0  0  0  0  0  0
   -2.5026    0.8217    0.0000 N   0  0  0  0  0  0  0  0  0  0  0  0
   -1.0762    0.8217    0.0000 C   0  0  0  0  0  0  0  0  0  0  0  0
   -1.7868    0.4108    0.0000 C   0  0  0  0  0  0  0  0  0  0  0  0
    1.7842    1.6459    0.0000 C   0  0  0  0  0  0  0  0  0  0  0  0
    2.5000    0.4031    0.0000 C   0  0  0  0  0  0  0  0  0  0  0  0
    0.3449   -0.8295    0.0000 C   0  0  0  0  0  0  0  0  0  0  0  0
    1.7790   -0.8295    0.0000 C   0  0  0  0  0  0  0  0  0  0  0  0
   -3.2131    0.4108    0.0000 C   0  0  0  0  0  0  0  0  0  0  0  0
   -2.5000    1.6434    0.0000 C   0  0  0  0  0  0  0  0  0  0  0  0
   -3.2131   -0.4185    0.0000 C   0  0  0  0  0  0  0  0  0  0  0  0
   -1.7946    2.0619    0.0000 C   0  0  0  0  0  0  0  0  0  0  0  0
    3.2105    0.8217    0.0000 C   0  0  0  0  0  0  0  0  0  0  0  0
    0.3605   -1.6563    0.0000 C   0  0  0  0  0  0  0  0  0  0  0  0
    1.7868   -1.6588    0.0000 C   0  0  0  0  0  0  0  0  0  0  0  0
    2.4922    2.0542    0.0000 C   0  0  0  0  0  0  0  0  0  0  0  0
    3.2131    1.6434    0.0000 C   0  0  0  0  0  0  0  0  0  0  0  0
    1.0633   -2.0619    0.0000 C   0  0  0  0  0  0  0  0  0  0  0  0
    2.0003   -0.1271    0.0000 H   0  0  0  0  0  0  0  0  0  0  0  0
   -1.0753    1.8917    0.0000 H   0  0  0  0  0  0  0  0  0  0  0  0
   -2.0028    1.3568    0.0000 H   0  0  0  0  0  0  0  0  0  0  0  0
   -1.7851   -0.6592    0.0000 H   0  0  0  0  0  0  0  0  0  0  0  0
   -0.8596   -0.1232    0.0000 H   0  0  0  0  0  0  0  0  0  0  0  0
    0.8922    2.1649    0.0000 H   0  0  0  0  0  0  0  0  0  0  0  0
    2.5033   -0.6289    0.0000 H   0  0  0  0  0  0  0  0  0  0  0  0
   -0.5501   -0.3157    0.0000 H   0  0  0  0  0  0  0  0  0  0  0  0
    2.6694   -0.3078    0.0000 H   0  0  0  0  0  0  0  0  0  0  0  0
   -4.1399    0.9455    0.0000 H   0  0  0  0  0  0  0  0  0  0  0  0
   -4.1396   -0.1244    0.0000 H   0  0  0  0  0  0  0  0  0  0  0  0
   -3.4290    2.1744    0.0000 H   0  0  0  0  0  0  0  0  0  0  0  0
   -2.5087    2.7134    0.0000 H   0  0  0  0  0  0  0  0  0  0  0  0
   -4.1397   -0.9535    0.0000 H   0  0  0  0  0  0  0  0  0  0  0  0
   -2.2865   -0.9535    0.0000 H   0  0  0  0  0  0  0  0  0  0  0  0
   -3.2131   -1.4885    0.0000 H   0  0  0  0  0  0  0  0  0  0  0  0
   -0.8617    1.5379    0.0000 H   0  0  0  0  0  0  0  0  0  0  0  0
   -1.8073    3.1318    0.0000 H   0  0  0  0  0  0  0  0  0  0  0  0
   -0.8744    2.6079    0.0000 H   0  0  0  0  0  0  0  0  0  0  0  0
    4.1057    0.3082    0.0000 H   0  0  0  0  0  0  0  0  0  0  0  0
   -0.5283   -2.1808    0.0000 H   0  0  0  0  0  0  0  0  0  0  0  0
    2.6790   -2.1774    0.0000 H   0  0  0  0  0  0  0  0  0  0  0  0
    2.4895    3.0862    0.0000 H   0  0  0  0  0  0  0  0  0  0  0  0
    4.1062    2.1605    0.0000 H   0  0  0  0  0  0  0  0  0  0  0  0
    1.0555   -3.0939    0.0000 H   0  0  0  0  0  0  0  0  0  0  0  0
  2  1  1  0  0  0  0
  2 24  1  0  0  0  0
  3  1  2  0  0  0  0
  4  2  1  0  0  0  0
  5  2  1  0  0  0  0
  6  1  1  0  0  0  0
  7  9  1  0  0  0  0
  8  6  1  0  0  0  0
  8 25  1  0  0  0  0
  8 26  1  0  0  0  0
  9  8  1  0  0  0  0
  9 27  1  0  0  0  0
  9 28  1  0  0  0  0
 10  4  1  0  0  0  0
 10 29  1  0  0  0  0
 11  4  2  0  0  0  0
 11 30  1  0  0  0  0
 12  5  2  0  0  0  0
 12 31  1  0  0  0  0
 13  5  1  0  0  0  0
 13 32  1  0  0  0  0
 14  7  1  0  0  0  0
 14 33  1  0  0  0  0
 14 34  1  0  0  0  0
 15  7  1  0  0  0  0
 15 35  1  0  0  0  0
 15 36  1  0  0  0  0
 16 14  1  0  0  0  0
 16 37  1  0  0  0  0
 16 38  1  0  0  0  0
 16 39  1  0  0  0  0
 17 15  1  0  0  0  0
 17 40  1  0  0  0  0
 17 41  1  0  0  0  0
 17 42  1  0  0  0  0
 18 11  1  0  0  0  0
 18 43  1  0  0  0  0
 19 12  1  0  0  0  0
 19 44  1  0  0  0  0
 20 13  2  0  0  0  0
 20 45  1  0  0  0  0
 21 10  2  0  0  0  0
 21 46  1  0  0  0  0
 22 18  2  0  0  0  0
 22 21  1  0  0  0  0
 22 47  1  0  0  0  0
 23 20  1  0  0  0  0
 23 19  2  0  0  0  0
 23 48  1  0  0  0  0
M  END
>  <DRUGBANK_ID>
DB15795

>  <COMMON_NAME>
Adiphenine

>  <CAS_NUMBER>
64-95-9

>  <UNII>
YKG6OR043Q

>  <SYNONYMS>
Adiphenine

$$$$
