NE8
 OpenBabel10282417072D

 38 41  0  0  0  0  0  0  0  0999 V2000
   -0.7130    0.7184    0.0000 C   0  0  0  0  0  0  0  0  0  0  0  0
    0.0014    0.3059    0.0000 C   0  0  0  0  0  0  0  0  0  0  0  0
    0.0014   -0.5191    0.0000 C   0  0  0  0  0  0  0  0  0  0  0  0
    0.7159   -0.9316    0.0000 C   0  0  0  0  0  0  0  0  0  0  0  0
    1.4304   -0.5191    0.0000 N   0  0  0  0  0  0  0  0  0  0  0  0
    2.1449   -0.9316    0.0000 C   0  0  0  0  0  0  0  0  0  0  0  0
    2.8593   -0.5191    0.0000 N   0  0  0  0  0  0  0  0  0  0  0  0
    2.1449   -1.7566    0.0000 N   0  0  0  0  0  0  0  0  0  0  0  0
    1.4304   -2.1691    0.0000 C   0  0  0  0  0  0  0  0  0  0  0  0
    1.4304   -2.9941    0.0000 O   0  0  0  0  0  0  0  0  0  0  0  0
    0.7159   -1.7566    0.0000 C   0  0  0  0  0  0  0  0  0  0  0  0
    0.0014   -2.1691    0.0000 C   0  0  0  0  0  0  0  0  0  0  0  0
   -0.7130   -1.7566    0.0000 C   0  0  0  0  0  0  0  0  0  0  0  0
   -1.4976   -2.0115    0.0000 N   0  0  0  0  0  0  0  0  0  0  0  0
   -1.9826   -1.3441    0.0000 C   0  0  0  0  0  0  0  0  0  0  0  0
   -1.4976   -0.6766    0.0000 N   0  0  0  0  0  0  0  0  0  0  0  0
   -0.7130   -0.9316    0.0000 C   0  0  0  0  0  0  0  0  0  0  0  0
   -0.7130    1.5434    0.0000 C   0  0  0  0  0  0  0  0  0  0  0  0
   -1.4275    1.9559    0.0000 C   0  0  0  0  0  0  0  0  0  0  0  0
   -1.4275    2.7809    0.0000 C   0  0  0  0  0  0  0  0  0  0  0  0
   -0.7130    3.1934    0.0000 C   0  0  0  0  0  0  0  0  0  0  0  0
    0.0014    2.7809    0.0000 C   0  0  0  0  0  0  0  0  0  0  0  0
    0.0014    1.9559    0.0000 C   0  0  0  0  0  0  0  0  0  0  0  0
   -1.6397    0.1834    0.0000 H   0  0  0  0  0  0  0  0  0  0  0  0
   -1.6396    1.2534    0.0000 H   0  0  0  0  0  0  0  0  0  0  0  0
    0.9281    0.8409    0.0000 H   0  0  0  0  0  0  0  0  0  0  0  0
    0.9280   -0.2291    0.0000 H   0  0  0  0  0  0  0  0  0  0  0  0
    3.7119   -1.0113    0.0000 H   0  0  0  0  0  0  0  0  0  0  0  0
    2.8593    0.4654    0.0000 H   0  0  0  0  0  0  0  0  0  0  0  0
    2.9975   -2.2489    0.0000 H   0  0  0  0  0  0  0  0  0  0  0  0
    0.0014   -3.2011    0.0000 H   0  0  0  0  0  0  0  0  0  0  0  0
   -1.8018   -2.9478    0.0000 H   0  0  0  0  0  0  0  0  0  0  0  0
   -3.0146   -1.3441    0.0000 H   0  0  0  0  0  0  0  0  0  0  0  0
   -2.3212    1.4399    0.0000 H   0  0  0  0  0  0  0  0  0  0  0  0
   -2.3212    3.2969    0.0000 H   0  0  0  0  0  0  0  0  0  0  0  0
   -0.7130    4.2254    0.0000 H   0  0  0  0  0  0  0  0  0  0  0  0
    0.8951    3.2969    0.0000 H   0  0  0  0  0  0  0  0  0  0  0  0
    0.8951    1.4399    0.0000 H   0  0  0  0  0  0  0  0  0  0  0  0
  1  2  1  0  0  0  0
  1 18  1  0  0  0  0
  1 24  1  0  0  0  0
  1 25  1  0  0  0  0
  2  3  1  0  0  0  0
  2 26  1  0  0  0  0
  2 27  1  0  0  0  0
  3  4  1  0  0  0  0
  3 17  2  0  0  0  0
  4  5  1  0  0  0  0
  4 11  2  0  0  0  0
  5  6  2  0  0  0  0
  6  7  1  0  0  0  0
  6  8  1  0  0  0  0
  7 28  1  0  0  0  0
  7 29  1  0  0  0  0
  8  9  1  0  0  0  0
  8 30  1  0  0  0  0
  9 10  2  0  0  0  0
  9 11  1  0  0  0  0
 11 12  1  0  0  0  0
 12 13  2  0  0  0  0
 12 31  1  0  0  0  0
 13 14  1  0  0  0  0
 13 17  1  0  0  0  0
 14 15  1  0  0  0  0
 14 32  1  0  0  0  0
 15 16  2  0  0  0  0
 15 33  1  0  0  0  0
 16 17  1  0  0  0  0
 18 19  1  0  0  0  0
 18 23  2  0  0  0  0
 19 20  2  0  0  0  0
 19 34  1  0  0  0  0
 20 21  1  0  0  0  0
 20 35  1  0  0  0  0
 21 22  2  0  0  0  0
 21 36  1  0  0  0  0
 22 23  1  0  0  0  0
 22 37  1  0  0  0  0
 23 38  1  0  0  0  0
M  END
>  <DRUGBANK_ID>
DB08267

>  <COMMON_NAME>
6-amino-4-(2-phenylethyl)-1,7-dihydro-8H-imidazo[4,5-g]quinazolin-8-one

$$$$
