
 OpenBabel10282417072D

 49 52  0  0  0  0  0  0  0  0999 V2000
    7.6491    3.9184    0.0000 F   0  0  0  0  0  0  0  0  0  0  0  0
    8.6265    3.2812    0.0000 F   0  0  0  0  0  0  0  0  0  0  0  0
    7.9894    2.3038    0.0000 F   0  0  0  0  0  0  0  0  0  0  0  0
    5.1661   -2.7683    0.0000 O   0  0  0  0  0  0  0  0  0  0  0  0
    5.1795   -0.3659    0.0000 N   0  0  0  0  0  0  0  0  0  0  0  0
    5.6921    1.2025    0.0000 N   0  0  0  0  0  0  0  0  0  0  0  0
    3.8596   -2.1043    0.0000 N   0  0  0  0  0  0  0  0  0  0  0  0
    3.8596   -3.4322    0.0000 N   0  0  0  0  0  0  0  0  0  0  0  0
    4.6285    0.2482    0.0000 C   0  0  0  0  0  0  0  0  0  0  0  0
    5.9868   -0.1958    0.0000 C   0  0  0  0  0  0  0  0  0  0  0  0
    4.8848    1.0323    0.0000 C   0  0  0  0  0  0  0  0  0  0  0  0
    6.2431    0.5885    0.0000 C   0  0  0  0  0  0  0  0  0  0  0  0
    4.9232   -1.1501    0.0000 C   0  0  0  0  0  0  0  0  0  0  0  0
    4.1159   -1.3202    0.0000 C   0  0  0  0  0  0  0  0  0  0  0  0
    5.9484    1.9867    0.0000 C   0  0  0  0  0  0  0  0  0  0  0  0
    3.0790   -2.3558    0.0000 C   0  0  0  0  0  0  0  0  0  0  0  0
    4.3411   -2.7683    0.0000 C   0  0  0  0  0  0  0  0  0  0  0  0
    6.7557    2.1568    0.0000 C   0  0  0  0  0  0  0  0  0  0  0  0
    3.0790   -3.1808    0.0000 C   0  0  0  0  0  0  0  0  0  0  0  0
    5.3974    2.6008    0.0000 C   0  0  0  0  0  0  0  0  0  0  0  0
    7.0120    2.9410    0.0000 C   0  0  0  0  0  0  0  0  0  0  0  0
    2.3645   -1.9433    0.0000 C   0  0  0  0  0  0  0  0  0  0  0  0
    5.6537    3.3849    0.0000 C   0  0  0  0  0  0  0  0  0  0  0  0
    2.3645   -3.5933    0.0000 C   0  0  0  0  0  0  0  0  0  0  0  0
    6.4610    3.5550    0.0000 C   0  0  0  0  0  0  0  0  0  0  0  0
    1.6500   -2.3558    0.0000 C   0  0  0  0  0  0  0  0  0  0  0  0
    1.6500   -3.1808    0.0000 C   0  0  0  0  0  0  0  0  0  0  0  0
    7.8193    3.1111    0.0000 C   0  0  0  0  0  0  0  0  0  0  0  0
    4.1654   -4.3680    0.0000 H   0  0  0  0  0  0  0  0  0  0  0  0
    3.5815    0.0276    0.0000 H   0  0  0  0  0  0  0  0  0  0  0  0
    3.9139    1.0446    0.0000 H   0  0  0  0  0  0  0  0  0  0  0  0
    6.7014   -0.9922    0.0000 H   0  0  0  0  0  0  0  0  0  0  0  0
    7.0338    0.0249    0.0000 H   0  0  0  0  0  0  0  0  0  0  0  0
    4.1702    1.8287    0.0000 H   0  0  0  0  0  0  0  0  0  0  0  0
    3.8378    0.8117    0.0000 H   0  0  0  0  0  0  0  0  0  0  0  0
    7.2901    0.8092    0.0000 H   0  0  0  0  0  0  0  0  0  0  0  0
    6.9577   -0.2079    0.0000 H   0  0  0  0  0  0  0  0  0  0  0  0
    5.6378   -1.9465    0.0000 H   0  0  0  0  0  0  0  0  0  0  0  0
    4.5908   -2.1671    0.0000 H   0  0  0  0  0  0  0  0  0  0  0  0
    3.4013   -0.5238    0.0000 H   0  0  0  0  0  0  0  0  0  0  0  0
    4.4484   -0.3032    0.0000 H   0  0  0  0  0  0  0  0  0  0  0  0
    7.4449    1.3887    0.0000 H   0  0  0  0  0  0  0  0  0  0  0  0
    4.3876    2.3880    0.0000 H   0  0  0  0  0  0  0  0  0  0  0  0
    2.3645   -0.9113    0.0000 H   0  0  0  0  0  0  0  0  0  0  0  0
    4.9645    4.1530    0.0000 H   0  0  0  0  0  0  0  0  0  0  0  0
    2.3645   -4.6253    0.0000 H   0  0  0  0  0  0  0  0  0  0  0  0
    6.7816    4.5359    0.0000 H   0  0  0  0  0  0  0  0  0  0  0  0
    0.7563   -1.8398    0.0000 H   0  0  0  0  0  0  0  0  0  0  0  0
    0.7563   -3.6968    0.0000 H   0  0  0  0  0  0  0  0  0  0  0  0
  1 28  1  0  0  0  0
  2 28  1  0  0  0  0
  3 28  1  0  0  0  0
  4 17  2  0  0  0  0
  5  9  1  0  0  0  0
  5 10  1  0  0  0  0
  5 13  1  0  0  0  0
  6 11  1  0  0  0  0
  6 12  1  0  0  0  0
  6 15  1  0  0  0  0
  7 14  1  0  0  0  0
  7 16  1  0  0  0  0
  7 17  1  0  0  0  0
  8 17  1  0  0  0  0
  8 19  1  0  0  0  0
  8 29  1  0  0  0  0
  9 11  1  0  0  0  0
  9 30  1  0  0  0  0
  9 31  1  0  0  0  0
 10 12  1  0  0  0  0
 10 32  1  0  0  0  0
 10 33  1  0  0  0  0
 11 34  1  0  0  0  0
 11 35  1  0  0  0  0
 12 36  1  0  0  0  0
 12 37  1  0  0  0  0
 13 14  1  0  0  0  0
 13 38  1  0  0  0  0
 13 39  1  0  0  0  0
 14 40  1  0  0  0  0
 14 41  1  0  0  0  0
 15 18  1  0  0  0  0
 15 20  2  0  0  0  0
 16 19  1  0  0  0  0
 16 22  2  0  0  0  0
 18 21  2  0  0  0  0
 18 42  1  0  0  0  0
 19 24  2  0  0  0  0
 20 23  1  0  0  0  0
 20 43  1  0  0  0  0
 21 25  1  0  0  0  0
 21 28  1  0  0  0  0
 22 26  1  0  0  0  0
 22 44  1  0  0  0  0
 23 25  2  0  0  0  0
 23 45  1  0  0  0  0
 24 27  1  0  0  0  0
 24 46  1  0  0  0  0
 25 47  1  0  0  0  0
 26 27  2  0  0  0  0
 26 48  1  0  0  0  0
 27 49  1  0  0  0  0
M  END
>  <DRUGBANK_ID>
DB04908

>  <COMMON_NAME>
Flibanserin

>  <CAS_NUMBER>
167933-07-5

>  <UNII>
37JK4STR6Z

>  <SYNONYMS>
Flibanserin

$$$$
