
 OpenBabel10282417072D

145154  0  0  0  0  0  0  0  0999 V2000
    0.0000   -3.2954    0.0000 N   0  0  0  0  0  0  0  0  0  0  0  0
   -0.6673   -3.7804    0.0000 C   0  0  2  0  0  0  0  0  0  0  0  0
   -0.4124   -4.5650    0.0000 C   0  0  0  0  0  0  0  0  0  0  0  0
    0.4125   -4.5650    0.0000 C   0  0  0  0  0  0  0  0  0  0  0  0
    0.6674   -3.7804    0.0000 C   0  0  2  0  0  0  0  0  0  0  0  0
    1.4521   -3.5254    0.0000 C   0  0  0  0  0  0  0  0  0  0  0  0
   -1.4519   -3.5254    0.0000 C   0  0  0  0  0  0  0  0  0  0  0  0
   -1.8645   -2.8110    0.0000 C   0  0  0  0  0  0  0  0  0  0  0  0
   -2.6896   -2.8110    0.0000 C   0  0  0  0  0  0  0  0  0  0  0  0
   -3.1020   -3.5254    0.0000 C   0  0  0  0  0  0  0  0  0  0  0  0
   -2.6896   -4.2399    0.0000 C   0  0  0  0  0  0  0  0  0  0  0  0
   -1.8645   -4.2399    0.0000 C   0  0  0  0  0  0  0  0  0  0  0  0
    3.1021   -3.5254    0.0000 C   0  0  0  0  0  0  0  0  0  0  0  0
    2.6896   -2.8110    0.0000 C   0  0  0  0  0  0  0  0  0  0  0  0
    1.8646   -2.8110    0.0000 C   0  0  0  0  0  0  0  0  0  0  0  0
    1.8646   -4.2399    0.0000 C   0  0  0  0  0  0  0  0  0  0  0  0
    2.6896   -4.2399    0.0000 C   0  0  0  0  0  0  0  0  0  0  0  0
   -3.9090   -3.3540    0.0000 N   0  0  0  0  0  0  0  0  0  0  0  0
   -3.9953   -2.5334    0.0000 C   0  0  0  0  0  0  0  0  0  0  0  0
   -3.2415   -2.1979    0.0000 N   0  0  0  0  0  0  0  0  0  0  0  0
    3.9090   -3.3540    0.0000 N   0  0  0  0  0  0  0  0  0  0  0  0
    3.9953   -2.5334    0.0000 C   0  0  0  0  0  0  0  0  0  0  0  0
    3.2416   -2.1979    0.0000 N   0  0  0  0  0  0  0  0  0  0  0  0
   -4.7097   -2.1210    0.0000 C   0  0  1  0  0  0  0  0  0  0  0  0
    4.7097   -2.1210    0.0000 C   0  0  2  0  0  0  0  0  0  0  0  0
   -4.7959   -1.3005    0.0000 N   0  0  0  0  0  0  0  0  0  0  0  0
   -5.6028   -1.1290    0.0000 C   0  0  0  0  0  0  0  0  0  0  0  0
   -6.0154   -1.8434    0.0000 C   0  0  0  0  0  0  0  0  0  0  0  0
   -5.4634   -2.4565    0.0000 C   0  0  0  0  0  0  0  0  0  0  0  0
   -4.1828   -0.7484    0.0000 C   0  0  0  0  0  0  0  0  0  0  0  0
   -4.3545    0.0584    0.0000 C   0  0  1  0  0  0  0  0  0  0  0  0
   -3.3983   -1.0034    0.0000 O   0  0  0  0  0  0  0  0  0  0  0  0
   -3.7413    0.6104    0.0000 N   0  0  0  0  0  0  0  0  0  0  0  0
   -5.1391    0.3134    0.0000 C   0  0  2  0  0  0  0  0  0  0  0  0
   -5.3106    1.1203    0.0000 O   0  0  0  0  0  0  0  0  0  0  0  0
   -6.0953    1.3752    0.0000 C   0  0  0  0  0  0  0  0  0  0  0  0
   -5.7522   -0.2386    0.0000 C   0  0  0  0  0  0  0  0  0  0  0  0
   -3.9128    1.4174    0.0000 C   0  0  0  0  0  0  0  0  0  0  0  0
   -3.2997    1.9695    0.0000 O   0  0  0  0  0  0  0  0  0  0  0  0
   -4.6975    1.6723    0.0000 O   0  0  0  0  0  0  0  0  0  0  0  0
   -3.4713    2.7765    0.0000 C   0  0  0  0  0  0  0  0  0  0  0  0
   -1.4520   -4.9544    0.0000 F   0  0  0  0  0  0  0  0  0  0  0  0
    0.0000   -2.4704    0.0000 C   0  0  0  0  0  0  0  0  0  0  0  0
    0.7145   -2.0579    0.0000 C   0  0  0  0  0  0  0  0  0  0  0  0
    0.7145   -1.2329    0.0000 C   0  0  0  0  0  0  0  0  0  0  0  0
    0.0000   -0.8204    0.0000 C   0  0  0  0  0  0  0  0  0  0  0  0
   -0.7144   -1.2329    0.0000 C   0  0  0  0  0  0  0  0  0  0  0  0
   -0.7144   -2.0579    0.0000 C   0  0  0  0  0  0  0  0  0  0  0  0
    1.4290   -0.8204    0.0000 F   0  0  0  0  0  0  0  0  0  0  0  0
   -1.4289   -0.8204    0.0000 F   0  0  0  0  0  0  0  0  0  0  0  0
    0.0000    0.0045    0.0000 N   0  0  0  0  0  0  0  0  0  0  0  0
    0.7145    0.4169    0.0000 C   0  0  0  0  0  0  0  0  0  0  0  0
    0.7145    1.2420    0.0000 C   0  0  0  0  0  0  0  0  0  0  0  0
    0.0000    1.6545    0.0000 C   0  0  3  0  0  0  0  0  0  0  0  0
   -0.7144    1.2420    0.0000 C   0  0  0  0  0  0  0  0  0  0  0  0
   -0.7144    0.4169    0.0000 C   0  0  0  0  0  0  0  0  0  0  0  0
    0.0000    2.4795    0.0000 C   0  0  0  0  0  0  0  0  0  0  0  0
    0.7145    2.8920    0.0000 C   0  0  0  0  0  0  0  0  0  0  0  0
    0.7145    3.7170    0.0000 C   0  0  0  0  0  0  0  0  0  0  0  0
    0.0000    4.1295    0.0000 C   0  0  0  0  0  0  0  0  0  0  0  0
   -0.7144    3.7170    0.0000 C   0  0  0  0  0  0  0  0  0  0  0  0
   -0.7144    2.8920    0.0000 C   0  0  0  0  0  0  0  0  0  0  0  0
    0.0000    4.9545    0.0000 F   0  0  0  0  0  0  0  0  0  0  0  0
    1.4521   -4.9544    0.0000 F   0  0  0  0  0  0  0  0  0  0  0  0
    5.4634   -2.4565    0.0000 C   0  0  0  0  0  0  0  0  0  0  0  0
    6.0154   -1.8434    0.0000 C   0  0  0  0  0  0  0  0  0  0  0  0
    5.6029   -1.1290    0.0000 C   0  0  0  0  0  0  0  0  0  0  0  0
    4.7960   -1.3005    0.0000 N   0  0  0  0  0  0  0  0  0  0  0  0
    4.1829   -0.7484    0.0000 C   0  0  0  0  0  0  0  0  0  0  0  0
    3.3983   -1.0034    0.0000 O   0  0  0  0  0  0  0  0  0  0  0  0
    4.3545    0.0584    0.0000 C   0  0  1  0  0  0  0  0  0  0  0  0
    3.7414    0.6104    0.0000 N   0  0  0  0  0  0  0  0  0  0  0  0
    3.9129    1.4174    0.0000 C   0  0  0  0  0  0  0  0  0  0  0  0
    3.2998    1.9695    0.0000 O   0  0  0  0  0  0  0  0  0  0  0  0
    4.6976    1.6723    0.0000 O   0  0  0  0  0  0  0  0  0  0  0  0
    3.4714    2.7765    0.0000 C   0  0  0  0  0  0  0  0  0  0  0  0
    5.1391    0.3134    0.0000 C   0  0  2  0  0  0  0  0  0  0  0  0
    5.3106    1.1203    0.0000 O   0  0  0  0  0  0  0  0  0  0  0  0
    6.0953    1.3752    0.0000 C   0  0  0  0  0  0  0  0  0  0  0  0
    5.7522   -0.2386    0.0000 C   0  0  0  0  0  0  0  0  0  0  0  0
   -0.8347   -2.7236    0.0000 H   0  0  0  0  0  0  0  0  0  0  0  0
   -1.0413   -5.4306    0.0000 H   0  0  0  0  0  0  0  0  0  0  0  0
    0.0734   -5.5184    0.0000 H   0  0  0  0  0  0  0  0  0  0  0  0
    1.0414   -5.4306    0.0000 H   0  0  0  0  0  0  0  0  0  0  0  0
    1.4693   -4.3976    0.0000 H   0  0  0  0  0  0  0  0  0  0  0  0
    1.4240   -4.5370    0.0000 H   0  0  0  0  0  0  0  0  0  0  0  0
   -1.3486   -1.9172    0.0000 H   0  0  0  0  0  0  0  0  0  0  0  0
   -3.2057   -5.1336    0.0000 H   0  0  0  0  0  0  0  0  0  0  0  0
    1.3486   -1.9173    0.0000 H   0  0  0  0  0  0  0  0  0  0  0  0
    3.2056   -5.1336    0.0000 H   0  0  0  0  0  0  0  0  0  0  0  0
   -4.6406   -4.0128    0.0000 H   0  0  0  0  0  0  0  0  0  0  0  0
    4.6406   -4.0128    0.0000 H   0  0  0  0  0  0  0  0  0  0  0  0
   -3.8123   -1.5382    0.0000 H   0  0  0  0  0  0  0  0  0  0  0  0
    4.7657   -3.1895    0.0000 H   0  0  0  0  0  0  0  0  0  0  0  0
   -6.0379   -0.1515    0.0000 H   0  0  0  0  0  0  0  0  0  0  0  0
   -6.6713   -1.0729    0.0000 H   0  0  0  0  0  0  0  0  0  0  0  0
   -7.0795   -1.9551    0.0000 H   0  0  0  0  0  0  0  0  0  0  0  0
   -6.3989   -2.8423    0.0000 H   0  0  0  0  0  0  0  0  0  0  0  0
   -5.6859   -3.5031    0.0000 H   0  0  0  0  0  0  0  0  0  0  0  0
   -6.4970   -2.7334    0.0000 H   0  0  0  0  0  0  0  0  0  0  0  0
   -3.3368   -0.2722    0.0000 H   0  0  0  0  0  0  0  0  0  0  0  0
   -2.8050    0.3061    0.0000 H   0  0  0  0  0  0  0  0  0  0  0  0
   -4.3439    1.0293    0.0000 H   0  0  0  0  0  0  0  0  0  0  0  0
   -6.3178    2.4218    0.0000 H   0  0  0  0  0  0  0  0  0  0  0  0
   -6.8904    0.6592    0.0000 H   0  0  0  0  0  0  0  0  0  0  0  0
   -7.1130    1.7058    0.0000 H   0  0  0  0  0  0  0  0  0  0  0  0
   -6.7698    0.0921    0.0000 H   0  0  0  0  0  0  0  0  0  0  0  0
   -5.5298   -1.2852    0.0000 H   0  0  0  0  0  0  0  0  0  0  0  0
   -6.5474   -0.9545    0.0000 H   0  0  0  0  0  0  0  0  0  0  0  0
   -2.6762    3.4925    0.0000 H   0  0  0  0  0  0  0  0  0  0  0  0
   -4.4890    3.1071    0.0000 H   0  0  0  0  0  0  0  0  0  0  0  0
   -3.6938    3.8231    0.0000 H   0  0  0  0  0  0  0  0  0  0  0  0
    1.6082   -2.5739    0.0000 H   0  0  0  0  0  0  0  0  0  0  0  0
   -1.6081   -2.5739    0.0000 H   0  0  0  0  0  0  0  0  0  0  0  0
    1.6411   -0.1182    0.0000 H   0  0  0  0  0  0  0  0  0  0  0  0
    1.6412    0.9519    0.0000 H   0  0  0  0  0  0  0  0  0  0  0  0
    1.6411    1.7770    0.0000 H   0  0  0  0  0  0  0  0  0  0  0  0
    0.7145    2.3120    0.0000 H   0  0  0  0  0  0  0  0  0  0  0  0
    0.0000    0.5845    0.0000 H   0  0  0  0  0  0  0  0  0  0  0  0
   -1.6411    1.7770    0.0000 H   0  0  0  0  0  0  0  0  0  0  0  0
   -1.6410    0.7070    0.0000 H   0  0  0  0  0  0  0  0  0  0  0  0
   -1.6410   -0.1181    0.0000 H   0  0  0  0  0  0  0  0  0  0  0  0
   -1.6411    0.9519    0.0000 H   0  0  0  0  0  0  0  0  0  0  0  0
    1.6082    2.3760    0.0000 H   0  0  0  0  0  0  0  0  0  0  0  0
    1.6082    4.2330    0.0000 H   0  0  0  0  0  0  0  0  0  0  0  0
   -1.6081    4.2330    0.0000 H   0  0  0  0  0  0  0  0  0  0  0  0
   -1.6081    2.3760    0.0000 H   0  0  0  0  0  0  0  0  0  0  0  0
    5.6859   -3.5031    0.0000 H   0  0  0  0  0  0  0  0  0  0  0  0
    6.4970   -2.7334    0.0000 H   0  0  0  0  0  0  0  0  0  0  0  0
    7.0795   -1.9552    0.0000 H   0  0  0  0  0  0  0  0  0  0  0  0
    6.5981   -0.9460    0.0000 H   0  0  0  0  0  0  0  0  0  0  0  0
    6.0381   -0.1515    0.0000 H   0  0  0  0  0  0  0  0  0  0  0  0
    4.9295   -0.2975    0.0000 H   0  0  0  0  0  0  0  0  0  0  0  0
    3.3369   -0.2722    0.0000 H   0  0  0  0  0  0  0  0  0  0  0  0
    2.8051    0.3061    0.0000 H   0  0  0  0  0  0  0  0  0  0  0  0
    4.4891    3.1071    0.0000 H   0  0  0  0  0  0  0  0  0  0  0  0
    2.6763    3.4925    0.0000 H   0  0  0  0  0  0  0  0  0  0  0  0
    3.6939    3.8231    0.0000 H   0  0  0  0  0  0  0  0  0  0  0  0
    4.3439    1.0293    0.0000 H   0  0  0  0  0  0  0  0  0  0  0  0
    6.8904    0.6592    0.0000 H   0  0  0  0  0  0  0  0  0  0  0  0
    6.3178    2.4218    0.0000 H   0  0  0  0  0  0  0  0  0  0  0  0
    7.1130    1.7058    0.0000 H   0  0  0  0  0  0  0  0  0  0  0  0
    5.5298   -1.2852    0.0000 H   0  0  0  0  0  0  0  0  0  0  0  0
    6.7698    0.0921    0.0000 H   0  0  0  0  0  0  0  0  0  0  0  0
    6.5474   -0.9545    0.0000 H   0  0  0  0  0  0  0  0  0  0  0  0
  1  2  1  0  0  0  0
  1  5  1  0  0  0  0
  1 43  1  0  0  0  0
  2  3  1  0  0  0  0
  2  7  1  0  0  0  0
  2 81  1  1  0  0  0
  3  4  1  0  0  0  0
  3 82  1  0  0  0  0
  3 83  1  0  0  0  0
  4  5  1  0  0  0  0
  4 84  1  0  0  0  0
  4 85  1  0  0  0  0
  5  6  1  0  0  0  0
  5 86  1  6  0  0  0
  6 16  1  0  0  0  0
  7  8  2  0  0  0  0
  8  9  1  0  0  0  0
  8 87  1  0  0  0  0
  9 10  2  0  0  0  0
  9 20  1  0  0  0  0
 10 11  1  0  0  0  0
 10 18  1  0  0  0  0
 11 12  2  0  0  0  0
 11 88  1  0  0  0  0
 12  7  1  0  0  0  0
 12 42  1  0  0  0  0
 13 21  1  0  0  0  0
 14 15  1  0  0  0  0
 14 13  2  0  0  0  0
 14 23  1  0  0  0  0
 15  6  2  0  0  0  0
 15 89  1  0  0  0  0
 16 17  2  0  0  0  0
 16 64  1  0  0  0  0
 17 13  1  0  0  0  0
 17 90  1  0  0  0  0
 18 19  1  0  0  0  0
 18 91  1  0  0  0  0
 19 20  2  0  0  0  0
 21 22  1  0  0  0  0
 21 92  1  0  0  0  0
 22 23  2  0  0  0  0
 24 19  1  0  0  0  0
 24 26  1  0  0  0  0
 24 29  1  0  0  0  0
 24 93  1  1  0  0  0
 25 22  1  0  0  0  0
 25 65  1  0  0  0  0
 25 68  1  0  0  0  0
 25 94  1  6  0  0  0
 26 27  1  0  0  0  0
 26 30  1  0  0  0  0
 27 28  1  0  0  0  0
 27 95  1  0  0  0  0
 27 96  1  0  0  0  0
 28 29  1  0  0  0  0
 28 97  1  0  0  0  0
 28 98  1  0  0  0  0
 29 99  1  0  0  0  0
 29100  1  0  0  0  0
 30 31  1  0  0  0  0
 30 32  2  0  0  0  0
 31 33  1  0  0  0  0
 31 34  1  0  0  0  0
 31101  1  1  0  0  0
 33 38  1  0  0  0  0
 33102  1  0  0  0  0
 34 35  1  0  0  0  0
 34 37  1  0  0  0  0
 34103  1  6  0  0  0
 35 36  1  0  0  0  0
 36104  1  0  0  0  0
 36105  1  0  0  0  0
 36106  1  0  0  0  0
 37107  1  0  0  0  0
 37108  1  0  0  0  0
 37109  1  0  0  0  0
 38 39  1  0  0  0  0
 38 40  2  0  0  0  0
 39 41  1  0  0  0  0
 41110  1  0  0  0  0
 41111  1  0  0  0  0
 41112  1  0  0  0  0
 43 44  1  0  0  0  0
 43 48  2  0  0  0  0
 44 45  2  0  0  0  0
 44113  1  0  0  0  0
 45 46  1  0  0  0  0
 45 49  1  0  0  0  0
 46 47  2  0  0  0  0
 46 51  1  0  0  0  0
 47 48  1  0  0  0  0
 47 50  1  0  0  0  0
 48114  1  0  0  0  0
 51 52  1  0  0  0  0
 52 53  1  0  0  0  0
 52115  1  0  0  0  0
 52116  1  0  0  0  0
 53 54  1  0  0  0  0
 53117  1  0  0  0  0
 53118  1  0  0  0  0
 54 55  1  0  0  0  0
 54 57  1  0  0  0  0
 54119  1  0  0  0  0
 55 56  1  0  0  0  0
 55120  1  0  0  0  0
 55121  1  0  0  0  0
 56 51  1  0  0  0  0
 56122  1  0  0  0  0
 56123  1  0  0  0  0
 57 58  1  0  0  0  0
 57 62  2  0  0  0  0
 58 59  2  0  0  0  0
 58124  1  0  0  0  0
 59 60  1  0  0  0  0
 59125  1  0  0  0  0
 60 61  2  0  0  0  0
 60 63  1  0  0  0  0
 61 62  1  0  0  0  0
 61126  1  0  0  0  0
 62127  1  0  0  0  0
 65 66  1  0  0  0  0
 65128  1  0  0  0  0
 65129  1  0  0  0  0
 66 67  1  0  0  0  0
 66130  1  0  0  0  0
 66131  1  0  0  0  0
 67 68  1  0  0  0  0
 67132  1  0  0  0  0
 67133  1  0  0  0  0
 68 69  1  0  0  0  0
 69 70  2  0  0  0  0
 69 71  1  0  0  0  0
 71 72  1  0  0  0  0
 71 77  1  0  0  0  0
 71134  1  6  0  0  0
 72 73  1  0  0  0  0
 72135  1  0  0  0  0
 73 74  1  0  0  0  0
 73 75  2  0  0  0  0
 74 76  1  0  0  0  0
 76136  1  0  0  0  0
 76137  1  0  0  0  0
 76138  1  0  0  0  0
 77 78  1  0  0  0  0
 77 80  1  0  0  0  0
 77139  1  1  0  0  0
 78 79  1  0  0  0  0
 79140  1  0  0  0  0
 79141  1  0  0  0  0
 79142  1  0  0  0  0
 80143  1  0  0  0  0
 80144  1  0  0  0  0
 80145  1  0  0  0  0
M  END
>  <DRUGBANK_ID>
DB13878

>  <COMMON_NAME>
Pibrentasvir

>  <CAS_NUMBER>
1353900-92-1

>  <UNII>
2WU922TK3L

>  <SYNONYMS>
Pibrentasvir

$$$$
