
 OpenBabel10282417072D

 36 36  0  0  1  0  0  0  0  0999 V2000
   -1.3184    1.2375    0.0000 C   0  0  0  0  0  0  0  0  0  0  0  0
   -2.1434    1.2375    0.0000 C   0  0  0  0  0  0  0  0  0  0  0  0
   -2.5559    0.5230    0.0000 O   0  0  0  0  0  0  0  0  0  0  0  0
   -2.5559    1.9520    0.0000 N   0  0  0  0  0  0  0  0  0  0  0  0
   -2.1434    2.6664    0.0000 C   0  0  1  0  0  0  0  0  0  0  0  0
   -2.5559    3.3809    0.0000 C   0  0  0  0  0  0  0  0  0  0  0  0
   -3.3809    3.3809    0.0000 C   0  0  0  0  0  0  0  0  0  0  0  0
   -3.7934    2.6664    0.0000 C   0  0  0  0  0  0  0  0  0  0  0  0
   -4.6184    2.6664    0.0000 C   0  0  0  0  0  0  0  0  0  0  0  0
   -5.0309    1.9520    0.0000 I   0  0  0  0  0  0  0  0  0  0  0  0
   -5.0309    3.3809    0.0000 C   0  0  0  0  0  0  0  0  0  0  0  0
   -5.8559    3.3809    0.0000 O   0  0  0  0  0  0  0  0  0  0  0  0
   -4.6184    4.0954    0.0000 C   0  0  0  0  0  0  0  0  0  0  0  0
   -5.0309    4.8099    0.0000 I   0  0  0  0  0  0  0  0  0  0  0  0
   -3.7934    4.0954    0.0000 C   0  0  0  0  0  0  0  0  0  0  0  0
   -1.3184    2.6664    0.0000 C   0  0  0  0  0  0  0  0  0  0  0  0
   -0.9059    3.3809    0.0000 O   0  0  0  0  0  0  0  0  0  0  0  0
   -0.9059    1.9520    0.0000 N   0  0  0  0  0  0  0  0  0  0  0  0
   -0.0809    1.9520    0.0000 C   0  0  0  0  0  0  0  0  0  0  0  0
    0.3316    1.2375    0.0000 C   0  0  0  0  0  0  0  0  0  0  0  0
    1.1566    1.2375    0.0000 O   0  0  0  0  0  0  0  0  0  0  0  0
   -0.0809    0.5230    0.0000 O   0  0  0  0  0  0  0  0  0  0  0  0
   -0.7834    0.3109    0.0000 H   0  0  0  0  0  0  0  0  0  0  0  0
   -0.7834    2.1641    0.0000 H   0  0  0  0  0  0  0  0  0  0  0  0
   -0.2484    1.2375    0.0000 H   0  0  0  0  0  0  0  0  0  0  0  0
   -3.5404    1.9520    0.0000 H   0  0  0  0  0  0  0  0  0  0  0  0
   -3.2134    2.6664    0.0000 H   0  0  0  0  0  0  0  0  0  0  0  0
   -2.0209    4.3075    0.0000 H   0  0  0  0  0  0  0  0  0  0  0  0
   -3.0909    4.3075    0.0000 H   0  0  0  0  0  0  0  0  0  0  0  0
   -3.2774    1.7727    0.0000 H   0  0  0  0  0  0  0  0  0  0  0  0
   -6.3244    4.1924    0.0000 H   0  0  0  0  0  0  0  0  0  0  0  0
   -3.2774    4.9891    0.0000 H   0  0  0  0  0  0  0  0  0  0  0  0
   -1.3981    1.0994    0.0000 H   0  0  0  0  0  0  0  0  0  0  0  0
    0.4541    2.8786    0.0000 H   0  0  0  0  0  0  0  0  0  0  0  0
    0.9891    1.9520    0.0000 H   0  0  0  0  0  0  0  0  0  0  0  0
    1.6251    0.4260    0.0000 H   0  0  0  0  0  0  0  0  0  0  0  0
  1  2  1  0  0  0  0
  1 23  1  0  0  0  0
  1 24  1  0  0  0  0
  1 25  1  0  0  0  0
  2  3  2  0  0  0  0
  2  4  1  0  0  0  0
  4 26  1  0  0  0  0
  5  4  1  0  0  0  0
  5  6  1  0  0  0  0
  5 16  1  0  0  0  0
  5 27  1  6  0  0  0
  6  7  1  0  0  0  0
  6 28  1  0  0  0  0
  6 29  1  0  0  0  0
  7  8  2  0  0  0  0
  7 15  1  0  0  0  0
  8  9  1  0  0  0  0
  8 30  1  0  0  0  0
  9 10  1  0  0  0  0
  9 11  2  0  0  0  0
 11 12  1  0  0  0  0
 11 13  1  0  0  0  0
 12 31  1  0  0  0  0
 13 14  1  0  0  0  0
 13 15  2  0  0  0  0
 15 32  1  0  0  0  0
 16 17  2  0  0  0  0
 16 18  1  0  0  0  0
 18 19  1  0  0  0  0
 18 33  1  0  0  0  0
 19 20  1  0  0  0  0
 19 34  1  0  0  0  0
 19 35  1  0  0  0  0
 20 21  1  0  0  0  0
 20 22  2  0  0  0  0
 21 36  1  0  0  0  0
M  END
>  <DRUGBANK_ID>
DB02598

>  <SECONDARY_ACCESSION_NUMBERS>
EXPT01950

>  <COMMON_NAME>
N-Alpha-Acetyl-3,5-Diiodotyrosylglycine

$$$$
