
 OpenBabel10282417072D

134141  0  0  0  0  0  0  0  0999 V2000
   -5.1426   17.6075    0.0000 C   0  0  0  0  0  0  0  0  0  0  0  0
   -4.3356   17.7790    0.0000 C   0  0  0  0  0  0  0  0  0  0  0  0
   -3.7835   17.1659    0.0000 C   0  0  0  0  0  0  0  0  0  0  0  0
   -2.9766   17.3375    0.0000 C   0  0  0  0  0  0  0  0  0  0  0  0
   -2.3635   16.7854    0.0000 C   0  0  0  0  0  0  0  0  0  0  0  0
   -1.6490   17.1979    0.0000 C   0  0  0  0  0  0  0  0  0  0  0  0
   -0.9345   16.7854    0.0000 C   0  0  0  0  0  0  0  0  0  0  0  0
   -0.2201   17.1979    0.0000 O   0  0  0  0  0  0  0  0  0  0  0  0
   -0.9345   15.9604    0.0000 N   0  0  0  0  0  0  0  0  0  0  0  0
   -1.6490   15.5479    0.0000 C   0  0  0  0  0  0  0  0  0  0  0  0
   -2.3635   15.9604    0.0000 N   0  0  0  0  0  0  0  0  0  0  0  0
   -1.6490   14.7229    0.0000 C   0  0  0  0  0  0  0  0  0  0  0  0
   -0.9345   14.3104    0.0000 C   0  0  0  0  0  0  0  0  0  0  0  0
   -0.9345   13.4854    0.0000 C   0  0  0  0  0  0  0  0  0  0  0  0
   -1.6490   13.0729    0.0000 C   0  0  0  0  0  0  0  0  0  0  0  0
   -2.3635   13.4854    0.0000 C   0  0  0  0  0  0  0  0  0  0  0  0
   -2.3635   14.3104    0.0000 C   0  0  0  0  0  0  0  0  0  0  0  0
   -3.0780   14.7229    0.0000 O   0  0  0  0  0  0  0  0  0  0  0  0
   -3.7924   14.3104    0.0000 C   0  0  0  0  0  0  0  0  0  0  0  0
   -4.5069   14.7229    0.0000 C   0  0  0  0  0  0  0  0  0  0  0  0
   -0.2201   13.0729    0.0000 S   0  0  0  0  0  0  0  0  0  0  0  0
   -0.6326   12.3585    0.0000 O   0  0  0  0  0  0  0  0  0  0  0  0
    0.1924   13.7874    0.0000 O   0  0  0  0  0  0  0  0  0  0  0  0
    0.4944   12.6604    0.0000 N   0  0  0  0  0  0  0  0  0  0  0  0
    1.2089   13.0729    0.0000 C   0  0  0  0  0  0  0  0  0  0  0  0
    1.9233   12.6604    0.0000 C   0  0  0  0  0  0  0  0  0  0  0  0
    1.9233   11.8354    0.0000 N   0  0  0  0  0  0  0  0  0  0  0  0
    1.2089   11.4229    0.0000 C   0  0  0  0  0  0  0  0  0  0  0  0
    0.4944   11.8354    0.0000 C   0  0  0  0  0  0  0  0  0  0  0  0
    2.6378   11.4229    0.0000 C   0  0  0  0  0  0  0  0  0  0  0  0
    2.6378   10.5979    0.0000 C   0  0  0  0  0  0  0  0  0  0  0  0
    3.3523   10.1854    0.0000 O   0  0  0  0  0  0  0  0  0  0  0  0
    3.3523    9.3604    0.0000 C   0  0  0  0  0  0  0  0  0  0  0  0
    2.6378    8.9479    0.0000 O   0  0  0  0  0  0  0  0  0  0  0  0
    4.0668    8.9479    0.0000 O   0  0  0  0  0  0  0  0  0  0  0  0
    4.0668    8.1229    0.0000 C   0  0  0  0  0  0  0  0  0  0  0  0
    4.7812    7.7104    0.0000 C   0  0  0  0  0  0  0  0  0  0  0  0
    4.7812    6.8854    0.0000 N   0  0  0  0  0  0  0  0  0  0  0  0
    5.4957    6.4729    0.0000 C   0  0  0  0  0  0  0  0  0  0  0  0
    5.4957    5.6479    0.0000 C   0  0  0  0  0  0  0  0  0  0  0  0
    4.7812    5.2354    0.0000 N   0  0  0  0  0  0  0  0  0  0  0  0
    4.0668    5.6479    0.0000 C   0  0  0  0  0  0  0  0  0  0  0  0
    4.0668    6.4729    0.0000 C   0  0  0  0  0  0  0  0  0  0  0  0
    4.7812    4.4104    0.0000 S   0  0  0  0  0  0  0  0  0  0  0  0
    3.9562    4.4104    0.0000 O   0  0  0  0  0  0  0  0  0  0  0  0
    5.6062    4.4104    0.0000 O   0  0  0  0  0  0  0  0  0  0  0  0
    4.7812    3.5854    0.0000 C   0  0  0  0  0  0  0  0  0  0  0  0
    5.4957    3.1729    0.0000 C   0  0  0  0  0  0  0  0  0  0  0  0
    5.4957    2.3479    0.0000 C   0  0  0  0  0  0  0  0  0  0  0  0
    4.7812    1.9354    0.0000 C   0  0  0  0  0  0  0  0  0  0  0  0
    4.0668    2.3479    0.0000 C   0  0  0  0  0  0  0  0  0  0  0  0
    4.0668    3.1729    0.0000 C   0  0  0  0  0  0  0  0  0  0  0  0
    3.3523    1.9354    0.0000 C   0  0  0  0  0  0  0  0  0  0  0  0
    3.3523    1.1104    0.0000 N   0  0  0  0  0  0  0  0  0  0  0  0
    2.6378    0.6979    0.0000 C   0  0  0  0  0  0  0  0  0  0  0  0
    2.6378   -0.1271    0.0000 O   0  0  0  0  0  0  0  0  0  0  0  0
    1.9233    1.1104    0.0000 C   0  0  0  0  0  0  0  0  0  0  0  0
    1.9233    1.9354    0.0000 C   0  0  0  0  0  0  0  0  0  0  0  0
    2.6378    2.3479    0.0000 N   0  0  0  0  0  0  0  0  0  0  0  0
    1.1387    2.1904    0.0000 C   0  0  0  0  0  0  0  0  0  0  0  0
    0.6538    1.5229    0.0000 N   0  0  0  0  0  0  0  0  0  0  0  0
    1.1387    0.8555    0.0000 N   0  0  0  0  0  0  0  0  0  0  0  0
    0.8838    0.0709    0.0000 C   0  0  0  0  0  0  0  0  0  0  0  0
    0.8838    2.9750    0.0000 C   0  0  0  0  0  0  0  0  0  0  0  0
    1.4358    3.5881    0.0000 C   0  0  0  0  0  0  0  0  0  0  0  0
    2.2428    3.4166    0.0000 C   0  0  0  0  0  0  0  0  0  0  0  0
    4.7812    1.1104    0.0000 O   0  0  0  0  0  0  0  0  0  0  0  0
    5.4957    0.6979    0.0000 C   0  0  0  0  0  0  0  0  0  0  0  0
    5.4957   -0.1271    0.0000 C   0  0  0  0  0  0  0  0  0  0  0  0
   -1.8205   18.0049    0.0000 N   0  0  0  0  0  0  0  0  0  0  0  0
   -2.6410   18.0912    0.0000 N   0  0  0  0  0  0  0  0  0  0  0  0
   -1.2685   18.6180    0.0000 C   0  0  0  0  0  0  0  0  0  0  0  0
   -5.8585   18.4027    0.0000 H   0  0  0  0  0  0  0  0  0  0  0  0
   -5.4733   16.5899    0.0000 H   0  0  0  0  0  0  0  0  0  0  0  0
   -6.1892   17.3851    0.0000 H   0  0  0  0  0  0  0  0  0  0  0  0
   -4.0050   18.7966    0.0000 H   0  0  0  0  0  0  0  0  0  0  0  0
   -3.2890   18.0015    0.0000 H   0  0  0  0  0  0  0  0  0  0  0  0
   -4.1141   16.1482    0.0000 H   0  0  0  0  0  0  0  0  0  0  0  0
   -3.0675   16.3708    0.0000 H   0  0  0  0  0  0  0  0  0  0  0  0
   -0.0819   15.4681    0.0000 H   0  0  0  0  0  0  0  0  0  0  0  0
   -0.0408   14.8264    0.0000 H   0  0  0  0  0  0  0  0  0  0  0  0
   -1.6490   12.0409    0.0000 H   0  0  0  0  0  0  0  0  0  0  0  0
   -3.2572   12.9694    0.0000 H   0  0  0  0  0  0  0  0  0  0  0  0
   -3.7924   13.2404    0.0000 H   0  0  0  0  0  0  0  0  0  0  0  0
   -4.7190   13.7754    0.0000 H   0  0  0  0  0  0  0  0  0  0  0  0
   -4.5069   15.7929    0.0000 H   0  0  0  0  0  0  0  0  0  0  0  0
   -5.4335   14.1879    0.0000 H   0  0  0  0  0  0  0  0  0  0  0  0
   -5.4336   15.2579    0.0000 H   0  0  0  0  0  0  0  0  0  0  0  0
    1.2089   14.1429    0.0000 H   0  0  0  0  0  0  0  0  0  0  0  0
    2.1356   13.6079    0.0000 H   0  0  0  0  0  0  0  0  0  0  0  0
    2.8500   13.1954    0.0000 H   0  0  0  0  0  0  0  0  0  0  0  0
    2.8499   12.1254    0.0000 H   0  0  0  0  0  0  0  0  0  0  0  0
    1.2089   10.3529    0.0000 H   0  0  0  0  0  0  0  0  0  0  0  0
    0.2823   10.8879    0.0000 H   0  0  0  0  0  0  0  0  0  0  0  0
   -0.4322   11.3004    0.0000 H   0  0  0  0  0  0  0  0  0  0  0  0
   -0.4322   12.3704    0.0000 H   0  0  0  0  0  0  0  0  0  0  0  0
    3.5644   11.9579    0.0000 H   0  0  0  0  0  0  0  0  0  0  0  0
    3.5644   10.8879    0.0000 H   0  0  0  0  0  0  0  0  0  0  0  0
    1.7112   10.0629    0.0000 H   0  0  0  0  0  0  0  0  0  0  0  0
    2.6378    9.5279    0.0000 H   0  0  0  0  0  0  0  0  0  0  0  0
    3.1401    7.5879    0.0000 H   0  0  0  0  0  0  0  0  0  0  0  0
    4.0668    7.0529    0.0000 H   0  0  0  0  0  0  0  0  0  0  0  0
    5.7079    8.2454    0.0000 H   0  0  0  0  0  0  0  0  0  0  0  0
    5.7078    7.1754    0.0000 H   0  0  0  0  0  0  0  0  0  0  0  0
    6.4223    7.0079    0.0000 H   0  0  0  0  0  0  0  0  0  0  0  0
    6.4223    5.9379    0.0000 H   0  0  0  0  0  0  0  0  0  0  0  0
    6.4223    5.1129    0.0000 H   0  0  0  0  0  0  0  0  0  0  0  0
    5.4957    4.5779    0.0000 H   0  0  0  0  0  0  0  0  0  0  0  0
    3.1401    5.1129    0.0000 H   0  0  0  0  0  0  0  0  0  0  0  0
    3.1402    6.1829    0.0000 H   0  0  0  0  0  0  0  0  0  0  0  0
    3.1401    7.0079    0.0000 H   0  0  0  0  0  0  0  0  0  0  0  0
    4.0668    7.5429    0.0000 H   0  0  0  0  0  0  0  0  0  0  0  0
    6.3894    3.6889    0.0000 H   0  0  0  0  0  0  0  0  0  0  0  0
    6.3894    1.8319    0.0000 H   0  0  0  0  0  0  0  0  0  0  0  0
    3.1731    3.6889    0.0000 H   0  0  0  0  0  0  0  0  0  0  0  0
    4.2049    0.6181    0.0000 H   0  0  0  0  0  0  0  0  0  0  0  0
   -0.1628   -0.1516    0.0000 H   0  0  0  0  0  0  0  0  0  0  0  0
    1.5998   -0.7242    0.0000 H   0  0  0  0  0  0  0  0  0  0  0  0
    0.5532   -0.9467    0.0000 H   0  0  0  0  0  0  0  0  0  0  0  0
   -0.1628    3.1975    0.0000 H   0  0  0  0  0  0  0  0  0  0  0  0
    0.5531    3.9926    0.0000 H   0  0  0  0  0  0  0  0  0  0  0  0
    1.1051    4.6057    0.0000 H   0  0  0  0  0  0  0  0  0  0  0  0
    2.1517    4.3833    0.0000 H   0  0  0  0  0  0  0  0  0  0  0  0
    2.5735    2.3990    0.0000 H   0  0  0  0  0  0  0  0  0  0  0  0
    2.9587    4.2118    0.0000 H   0  0  0  0  0  0  0  0  0  0  0  0
    3.2894    3.1942    0.0000 H   0  0  0  0  0  0  0  0  0  0  0  0
    6.4223    1.2329    0.0000 H   0  0  0  0  0  0  0  0  0  0  0  0
    6.4223    0.1629    0.0000 H   0  0  0  0  0  0  0  0  0  0  0  0
    4.5691   -0.6621    0.0000 H   0  0  0  0  0  0  0  0  0  0  0  0
    6.4223   -0.6621    0.0000 H   0  0  0  0  0  0  0  0  0  0  0  0
    5.4957   -1.1971    0.0000 H   0  0  0  0  0  0  0  0  0  0  0  0
   -0.2219   18.3956    0.0000 H   0  0  0  0  0  0  0  0  0  0  0  0
   -1.5992   19.6356    0.0000 H   0  0  0  0  0  0  0  0  0  0  0  0
   -0.5526   19.4132    0.0000 H   0  0  0  0  0  0  0  0  0  0  0  0
  1  2  1  0  0  0  0
  1 73  1  0  0  0  0
  1 74  1  0  0  0  0
  1 75  1  0  0  0  0
  2  3  1  0  0  0  0
  2 76  1  0  0  0  0
  2 77  1  0  0  0  0
  3  4  1  0  0  0  0
  3 78  1  0  0  0  0
  3 79  1  0  0  0  0
  4  5  1  0  0  0  0
  4 71  2  0  0  0  0
  5  6  2  0  0  0  0
  5 11  1  0  0  0  0
  6  7  1  0  0  0  0
  6 70  1  0  0  0  0
  7  8  2  0  0  0  0
  7  9  1  0  0  0  0
  9 10  1  0  0  0  0
  9 80  1  0  0  0  0
 10 11  2  0  0  0  0
 10 12  1  0  0  0  0
 12 13  2  0  0  0  0
 12 17  1  0  0  0  0
 13 14  1  0  0  0  0
 13 81  1  0  0  0  0
 14 15  2  0  0  0  0
 14 21  1  0  0  0  0
 15 16  1  0  0  0  0
 15 82  1  0  0  0  0
 16 17  2  0  0  0  0
 16 83  1  0  0  0  0
 17 18  1  0  0  0  0
 18 19  1  0  0  0  0
 19 20  1  0  0  0  0
 19 84  1  0  0  0  0
 19 85  1  0  0  0  0
 20 86  1  0  0  0  0
 20 87  1  0  0  0  0
 20 88  1  0  0  0  0
 21 22  2  0  0  0  0
 21 23  2  0  0  0  0
 21 24  1  0  0  0  0
 24 25  1  0  0  0  0
 24 29  1  0  0  0  0
 25 26  1  0  0  0  0
 25 89  1  0  0  0  0
 25 90  1  0  0  0  0
 26 27  1  0  0  0  0
 26 91  1  0  0  0  0
 26 92  1  0  0  0  0
 27 28  1  0  0  0  0
 27 30  1  0  0  0  0
 28 29  1  0  0  0  0
 28 93  1  0  0  0  0
 28 94  1  0  0  0  0
 29 95  1  0  0  0  0
 29 96  1  0  0  0  0
 30 31  1  0  0  0  0
 30 97  1  0  0  0  0
 30 98  1  0  0  0  0
 31 32  1  0  0  0  0
 31 99  1  0  0  0  0
 31100  1  0  0  0  0
 32 33  1  0  0  0  0
 33 34  2  0  0  0  0
 33 35  1  0  0  0  0
 35 36  1  0  0  0  0
 36 37  1  0  0  0  0
 36101  1  0  0  0  0
 36102  1  0  0  0  0
 37 38  1  0  0  0  0
 37103  1  0  0  0  0
 37104  1  0  0  0  0
 38 39  1  0  0  0  0
 38 43  1  0  0  0  0
 39 40  1  0  0  0  0
 39105  1  0  0  0  0
 39106  1  0  0  0  0
 40 41  1  0  0  0  0
 40107  1  0  0  0  0
 40108  1  0  0  0  0
 41 42  1  0  0  0  0
 41 44  1  0  0  0  0
 42 43  1  0  0  0  0
 42109  1  0  0  0  0
 42110  1  0  0  0  0
 43111  1  0  0  0  0
 43112  1  0  0  0  0
 44 45  2  0  0  0  0
 44 46  2  0  0  0  0
 44 47  1  0  0  0  0
 47 48  2  0  0  0  0
 47 52  1  0  0  0  0
 48 49  1  0  0  0  0
 48113  1  0  0  0  0
 49 50  2  0  0  0  0
 49114  1  0  0  0  0
 50 51  1  0  0  0  0
 50 67  1  0  0  0  0
 51 52  2  0  0  0  0
 51 53  1  0  0  0  0
 52115  1  0  0  0  0
 53 54  1  0  0  0  0
 53 59  2  0  0  0  0
 54 55  1  0  0  0  0
 54116  1  0  0  0  0
 55 56  2  0  0  0  0
 55 57  1  0  0  0  0
 57 58  2  0  0  0  0
 57 62  1  0  0  0  0
 58 59  1  0  0  0  0
 58 60  1  0  0  0  0
 60 61  2  0  0  0  0
 60 64  1  0  0  0  0
 61 62  1  0  0  0  0
 62 63  1  0  0  0  0
 63117  1  0  0  0  0
 63118  1  0  0  0  0
 63119  1  0  0  0  0
 64 65  1  0  0  0  0
 64120  1  0  0  0  0
 64121  1  0  0  0  0
 65 66  1  0  0  0  0
 65122  1  0  0  0  0
 65123  1  0  0  0  0
 66124  1  0  0  0  0
 66125  1  0  0  0  0
 66126  1  0  0  0  0
 67 68  1  0  0  0  0
 68 69  1  0  0  0  0
 68127  1  0  0  0  0
 68128  1  0  0  0  0
 69129  1  0  0  0  0
 69130  1  0  0  0  0
 69131  1  0  0  0  0
 70 71  1  0  0  0  0
 70 72  1  0  0  0  0
 72132  1  0  0  0  0
 72133  1  0  0  0  0
 72134  1  0  0  0  0
M  END
>  <DRUGBANK_ID>
DB11927

>  <COMMON_NAME>
Lodenafil carbonate

>  <CAS_NUMBER>
398507-55-6

>  <UNII>
29X84F932D

>  <SYNONYMS>
Lodenafil carbonate

$$$$
