
 OpenBabel10282417072D

 18 19  0  0  0  0  0  0  0  0999 V2000
    6.8474   -9.9413    0.0000 C   0  0  0  0  0  0  0  0  0  0  0  0
    7.6724   -9.9413    0.0000 C   0  0  0  0  0  0  0  0  0  0  0  0
    7.9274   -9.1566    0.0000 N   0  0  0  0  0  0  0  0  0  0  0  0
    7.2600   -8.6717    0.0000 O   0  0  0  0  0  0  0  0  0  0  0  0
    6.5926   -9.1566    0.0000 C   0  0  0  0  0  0  0  0  0  0  0  0
    8.0850  -10.6557    0.0000 O   0  0  0  0  0  0  0  0  0  0  0  0
    5.7856   -8.9851    0.0000 C   0  0  0  0  0  0  0  0  0  0  0  0
    5.2336   -9.5982    0.0000 N   0  0  0  0  0  0  0  0  0  0  0  0
    5.4885  -10.3828    0.0000 C   0  0  0  0  0  0  0  0  0  0  0  0
    6.2955  -10.5544    0.0000 C   0  0  0  0  0  0  0  0  0  0  0  0
    8.8637   -8.8524    0.0000 H   0  0  0  0  0  0  0  0  0  0  0  0
    5.4549   -7.9675    0.0000 H   0  0  0  0  0  0  0  0  0  0  0  0
    4.7390   -8.7627    0.0000 H   0  0  0  0  0  0  0  0  0  0  0  0
    4.2359   -9.3861    0.0000 H   0  0  0  0  0  0  0  0  0  0  0  0
    4.7725  -11.1779    0.0000 H   0  0  0  0  0  0  0  0  0  0  0  0
    5.8191  -11.4005    0.0000 H   0  0  0  0  0  0  0  0  0  0  0  0
    6.6262  -11.5720    0.0000 H   0  0  0  0  0  0  0  0  0  0  0  0
    7.3421  -10.7768    0.0000 H   0  0  0  0  0  0  0  0  0  0  0  0
  1  2  1  0  0  0  0
  1  5  2  0  0  0  0
  1 10  1  0  0  0  0
  2  3  1  0  0  0  0
  2  6  2  0  0  0  0
  3  4  1  0  0  0  0
  3 11  1  0  0  0  0
  4  5  1  0  0  0  0
  5  7  1  0  0  0  0
  7  8  1  0  0  0  0
  7 12  1  0  0  0  0
  7 13  1  0  0  0  0
  8  9  1  0  0  0  0
  8 14  1  0  0  0  0
  9 10  1  0  0  0  0
  9 15  1  0  0  0  0
  9 16  1  0  0  0  0
 10 17  1  0  0  0  0
 10 18  1  0  0  0  0
M  END
>  <DRUGBANK_ID>
DB06554

>  <COMMON_NAME>
Gaboxadol

>  <CAS_NUMBER>
64603-91-4

>  <UNII>
K1M5RVL18S

>  <SYNONYMS>
4,5,6,7-tetrahydroisoxazolo(5,4-c)pyridin-3-ol; Gaboxadol; THIP

$$$$
