MP2
 OpenBabel10282417072D

 37 37  0  0  0  0  0  0  0  0999 V2000
    0.1646    0.9260    0.0000 O   0  0  0  0  0  0  0  0  0  0  0  0
    0.1646    0.1010    0.0000 C   0  0  0  0  0  0  0  0  0  0  0  0
   -0.5498   -0.3115    0.0000 N   0  0  0  0  0  0  0  0  0  0  0  0
   -1.2643    0.1010    0.0000 C   0  0  1  0  0  0  0  0  0  0  0  0
   -1.2643    0.9260    0.0000 C   0  0  0  0  0  0  0  0  0  0  0  0
   -1.9788    1.3385    0.0000 S   0  0  0  0  0  0  0  0  0  0  0  0
   -1.9788   -0.3115    0.0000 C   0  0  0  0  0  0  0  0  0  0  0  0
   -1.9788   -1.1365    0.0000 O   0  0  0  0  0  0  0  0  0  0  0  0
   -2.6932    0.1010    0.0000 N   0  0  0  0  0  0  0  0  0  0  0  0
   -3.4077   -0.3115    0.0000 C   0  0  0  0  0  0  0  0  0  0  0  0
   -4.1222    0.1010    0.0000 C   0  0  0  0  0  0  0  0  0  0  0  0
   -4.8366   -0.3115    0.0000 O   0  0  0  0  0  0  0  0  0  0  0  0
   -4.1222    0.9260    0.0000 O   0  0  0  0  0  0  0  0  0  0  0  0
    0.8791   -0.3115    0.0000 O   0  0  0  0  0  0  0  0  0  0  0  0
    1.5936    0.1010    0.0000 C   0  0  0  0  0  0  0  0  0  0  0  0
    2.3081   -0.3115    0.0000 C   0  0  0  0  0  0  0  0  0  0  0  0
    3.0225    0.1010    0.0000 C   0  0  0  0  0  0  0  0  0  0  0  0
    3.7370   -0.3115    0.0000 C   0  0  0  0  0  0  0  0  0  0  0  0
    3.7370   -1.1365    0.0000 C   0  0  0  0  0  0  0  0  0  0  0  0
    3.0225   -1.5490    0.0000 C   0  0  0  0  0  0  0  0  0  0  0  0
    2.3081   -1.1365    0.0000 C   0  0  0  0  0  0  0  0  0  0  0  0
   -0.7586    0.3929    0.0000 H   0  0  0  0  0  0  0  0  0  0  0  0
   -0.5498   -1.2960    0.0000 H   0  0  0  0  0  0  0  0  0  0  0  0
   -0.3377    1.4610    0.0000 H   0  0  0  0  0  0  0  0  0  0  0  0
   -1.2643    1.9960    0.0000 H   0  0  0  0  0  0  0  0  0  0  0  0
   -1.9788    2.6985    0.0000 H   0  0  0  0  0  0  0  0  0  0  0  0
   -2.6932    1.0855    0.0000 H   0  0  0  0  0  0  0  0  0  0  0  0
   -3.4077   -1.3815    0.0000 H   0  0  0  0  0  0  0  0  0  0  0  0
   -4.3343   -0.8465    0.0000 H   0  0  0  0  0  0  0  0  0  0  0  0
   -5.6481    0.1570    0.0000 H   0  0  0  0  0  0  0  0  0  0  0  0
    1.5936    1.1710    0.0000 H   0  0  0  0  0  0  0  0  0  0  0  0
    2.5202    0.6360    0.0000 H   0  0  0  0  0  0  0  0  0  0  0  0
    3.0225    1.1330    0.0000 H   0  0  0  0  0  0  0  0  0  0  0  0
    4.6307    0.2045    0.0000 H   0  0  0  0  0  0  0  0  0  0  0  0
    4.6307   -1.6525    0.0000 H   0  0  0  0  0  0  0  0  0  0  0  0
    3.0225   -2.5810    0.0000 H   0  0  0  0  0  0  0  0  0  0  0  0
    1.4144   -1.6525    0.0000 H   0  0  0  0  0  0  0  0  0  0  0  0
  1  2  2  0  0  0  0
  2  3  1  0  0  0  0
  2 14  1  0  0  0  0
  3 23  1  0  0  0  0
  4  3  1  0  0  0  0
  4  5  1  0  0  0  0
  4  7  1  0  0  0  0
  4 22  1  1  0  0  0
  5  6  1  0  0  0  0
  5 24  1  0  0  0  0
  5 25  1  0  0  0  0
  6 26  1  0  0  0  0
  7  8  2  0  0  0  0
  7  9  1  0  0  0  0
  9 10  1  0  0  0  0
  9 27  1  0  0  0  0
 10 11  1  0  0  0  0
 10 28  1  0  0  0  0
 10 29  1  0  0  0  0
 11 12  1  0  0  0  0
 11 13  2  0  0  0  0
 12 30  1  0  0  0  0
 14 15  1  0  0  0  0
 15 16  1  0  0  0  0
 15 31  1  0  0  0  0
 15 32  1  0  0  0  0
 16 17  1  0  0  0  0
 16 21  2  0  0  0  0
 17 18  2  0  0  0  0
 17 33  1  0  0  0  0
 18 19  1  0  0  0  0
 18 34  1  0  0  0  0
 19 20  2  0  0  0  0
 19 35  1  0  0  0  0
 20 21  1  0  0  0  0
 20 36  1  0  0  0  0
 21 37  1  0  0  0  0
M  END
>  <DRUGBANK_ID>
DB08199

>  <COMMON_NAME>
N-[(BENZYLOXY)CARBONYL]-L-CYSTEINYLGLYCINE

$$$$
