
 OpenBabel10282417072D

 50 51  0  0  0  0  0  0  0  0999 V2000
   -3.9295    0.8410    0.0000 C   0  0  0  0  0  0  0  0  0  0  0  0
   -3.2151    0.4285    0.0000 C   0  0  0  0  0  0  0  0  0  0  0  0
   -2.5006    0.8410    0.0000 C   0  0  0  0  0  0  0  0  0  0  0  0
   -1.7861    0.4285    0.0000 C   0  0  0  0  0  0  0  0  0  0  0  0
   -1.0717    0.8410    0.0000 C   0  0  0  0  0  0  0  0  0  0  0  0
   -0.3572    0.4285    0.0000 C   0  0  0  0  0  0  0  0  0  0  0  0
    0.3572    0.8410    0.0000 C   0  0  0  0  0  0  0  0  0  0  0  0
    1.0717    0.4285    0.0000 C   0  0  3  0  0  0  0  0  0  0  0  0
    1.0717   -0.3964    0.0000 N   0  0  0  0  0  0  0  0  0  0  0  0
    1.7391   -0.8814    0.0000 C   0  0  0  0  0  0  0  0  0  0  0  0
    1.4842   -1.6660    0.0000 C   0  0  0  0  0  0  0  0  0  0  0  0
    0.6592   -1.6660    0.0000 C   0  0  0  0  0  0  0  0  0  0  0  0
    0.4042   -0.8814    0.0000 C   0  0  0  0  0  0  0  0  0  0  0  0
    1.7861    0.8410    0.0000 C   0  0  0  0  0  0  0  0  0  0  0  0
    1.7861    1.6660    0.0000 O   0  0  0  0  0  0  0  0  0  0  0  0
    2.5006    0.4285    0.0000 C   0  0  0  0  0  0  0  0  0  0  0  0
    3.2151    0.8410    0.0000 C   0  0  0  0  0  0  0  0  0  0  0  0
    3.9295    0.4285    0.0000 C   0  0  0  0  0  0  0  0  0  0  0  0
    3.9295   -0.3964    0.0000 C   0  0  0  0  0  0  0  0  0  0  0  0
    3.2151   -0.8089    0.0000 C   0  0  0  0  0  0  0  0  0  0  0  0
    2.5006   -0.3964    0.0000 C   0  0  0  0  0  0  0  0  0  0  0  0
   -3.9295    1.9110    0.0000 H   0  0  0  0  0  0  0  0  0  0  0  0
   -4.8562    0.3060    0.0000 H   0  0  0  0  0  0  0  0  0  0  0  0
   -4.8561    1.3760    0.0000 H   0  0  0  0  0  0  0  0  0  0  0  0
   -3.2151   -0.6415    0.0000 H   0  0  0  0  0  0  0  0  0  0  0  0
   -2.2885   -0.1065    0.0000 H   0  0  0  0  0  0  0  0  0  0  0  0
   -2.5006    1.9110    0.0000 H   0  0  0  0  0  0  0  0  0  0  0  0
   -1.5740    1.3760    0.0000 H   0  0  0  0  0  0  0  0  0  0  0  0
   -1.7861   -0.6415    0.0000 H   0  0  0  0  0  0  0  0  0  0  0  0
   -0.8594   -0.1065    0.0000 H   0  0  0  0  0  0  0  0  0  0  0  0
   -1.0717    1.9110    0.0000 H   0  0  0  0  0  0  0  0  0  0  0  0
   -0.1451    1.3760    0.0000 H   0  0  0  0  0  0  0  0  0  0  0  0
   -0.3572   -0.6415    0.0000 H   0  0  0  0  0  0  0  0  0  0  0  0
    0.5695   -0.1065    0.0000 H   0  0  0  0  0  0  0  0  0  0  0  0
    0.3572    1.9110    0.0000 H   0  0  0  0  0  0  0  0  0  0  0  0
    1.2838    1.3760    0.0000 H   0  0  0  0  0  0  0  0  0  0  0  0
    0.1451   -0.1065    0.0000 H   0  0  0  0  0  0  0  0  0  0  0  0
    2.7567   -0.5508    0.0000 H   0  0  0  0  0  0  0  0  0  0  0  0
    2.4957   -1.6380    0.0000 H   0  0  0  0  0  0  0  0  0  0  0  0
    2.1131   -2.5316    0.0000 H   0  0  0  0  0  0  0  0  0  0  0  0
    0.9984   -2.6194    0.0000 H   0  0  0  0  0  0  0  0  0  0  0  0
    0.0303   -2.5317    0.0000 H   0  0  0  0  0  0  0  0  0  0  0  0
   -0.3976   -1.4987    0.0000 H   0  0  0  0  0  0  0  0  0  0  0  0
   -0.6134   -0.5508    0.0000 H   0  0  0  0  0  0  0  0  0  0  0  0
    0.2368    0.1754    0.0000 H   0  0  0  0  0  0  0  0  0  0  0  0
    3.2151    1.8730    0.0000 H   0  0  0  0  0  0  0  0  0  0  0  0
    4.8232    0.9445    0.0000 H   0  0  0  0  0  0  0  0  0  0  0  0
    4.8232   -0.9124    0.0000 H   0  0  0  0  0  0  0  0  0  0  0  0
    3.2151   -1.8409    0.0000 H   0  0  0  0  0  0  0  0  0  0  0  0
    1.6069   -0.9124    0.0000 H   0  0  0  0  0  0  0  0  0  0  0  0
  1  2  1  0  0  0  0
  1 22  1  0  0  0  0
  1 23  1  0  0  0  0
  1 24  1  0  0  0  0
  2  3  1  0  0  0  0
  2 25  1  0  0  0  0
  2 26  1  0  0  0  0
  3  4  1  0  0  0  0
  3 27  1  0  0  0  0
  3 28  1  0  0  0  0
  4  5  1  0  0  0  0
  4 29  1  0  0  0  0
  4 30  1  0  0  0  0
  5  6  1  0  0  0  0
  5 31  1  0  0  0  0
  5 32  1  0  0  0  0
  6  7  1  0  0  0  0
  6 33  1  0  0  0  0
  6 34  1  0  0  0  0
  7  8  1  0  0  0  0
  7 35  1  0  0  0  0
  7 36  1  0  0  0  0
  8  9  1  0  0  0  0
  8 14  1  0  0  0  0
  8 37  1  0  0  0  0
  9 10  1  0  0  0  0
  9 13  1  0  0  0  0
 10 11  1  0  0  0  0
 10 38  1  0  0  0  0
 10 39  1  0  0  0  0
 11 12  1  0  0  0  0
 11 40  1  0  0  0  0
 11 41  1  0  0  0  0
 12 13  1  0  0  0  0
 12 42  1  0  0  0  0
 12 43  1  0  0  0  0
 13 44  1  0  0  0  0
 13 45  1  0  0  0  0
 14 15  2  0  0  0  0
 14 16  1  0  0  0  0
 16 17  2  0  0  0  0
 16 21  1  0  0  0  0
 17 18  1  0  0  0  0
 17 46  1  0  0  0  0
 18 19  2  0  0  0  0
 18 47  1  0  0  0  0
 19 20  1  0  0  0  0
 19 48  1  0  0  0  0
 20 21  2  0  0  0  0
 20 49  1  0  0  0  0
 21 50  1  0  0  0  0
M  END
>  <DRUGBANK_ID>
DB05531

>  <COMMON_NAME>
alpha-Pyrrolidinononanophenone

>  <CAS_NUMBER>
13415-58-2

>  <UNII>
S3FKL8RY1D

>  <SYNONYMS>
alpha-Pnp; alpha-Pyrrolidinononanophenone

$$$$
