
 OpenBabel10282417072D

 52 55  0  0  1  0  0  0  0  0999 V2000
   -3.5724   -0.4125    0.0000 C   0  0  0  0  0  0  0  0  0  0  0  0
   -2.8579    0.0000    0.0000 C   0  0  1  0  0  0  0  0  0  0  0  0
   -2.8579    0.8250    0.0000 C   0  0  0  0  0  0  0  0  0  0  0  0
   -2.1434    1.2375    0.0000 C   0  0  1  0  0  0  0  0  0  0  0  0
   -1.4289    0.8250    0.0000 C   0  0  0  0  0  0  0  0  0  0  0  0
   -1.4289    0.0000    0.0000 N   0  0  0  0  0  0  0  0  0  0  0  0
   -2.1434   -0.4125    0.0000 C   0  0  0  0  0  0  0  0  0  0  0  0
   -0.7145   -0.4125    0.0000 C   0  0  0  0  0  0  0  0  0  0  0  0
   -0.7145   -1.2375    0.0000 C   0  0  0  0  0  0  0  0  0  0  0  0
    0.0000   -1.6500    0.0000 C   0  0  0  0  0  0  0  0  0  0  0  0
    0.7145   -1.2375    0.0000 C   0  0  0  0  0  0  0  0  0  0  0  0
    0.7145   -0.4125    0.0000 C   0  0  0  0  0  0  0  0  0  0  0  0
    0.0000   -0.0000    0.0000 C   0  0  0  0  0  0  0  0  0  0  0  0
    0.0000    0.8250    0.0000 O   0  0  0  0  0  0  0  0  0  0  0  0
   -0.7145    1.2375    0.0000 C   0  0  0  0  0  0  0  0  0  0  0  0
    1.4289   -0.0000    0.0000 N   0  0  0  0  0  0  0  0  0  0  0  0
    2.1434   -0.4125    0.0000 C   0  0  0  0  0  0  0  0  0  0  0  0
    2.1434   -1.2375    0.0000 C   0  0  0  0  0  0  0  0  0  0  0  0
    1.4289   -1.6500    0.0000 C   0  0  0  0  0  0  0  0  0  0  0  0
    1.4289   -2.4750    0.0000 O   0  0  0  0  0  0  0  0  0  0  0  0
    2.8579   -1.6500    0.0000 C   0  0  0  0  0  0  0  0  0  0  0  0
    3.5724   -1.2375    0.0000 O   0  0  0  0  0  0  0  0  0  0  0  0
    2.8579   -2.4750    0.0000 O   0  0  0  0  0  0  0  0  0  0  0  0
    1.4289    0.8250    0.0000 C   0  0  0  0  0  0  0  0  0  0  0  0
    1.0164    1.5395    0.0000 C   0  0  0  0  0  0  0  0  0  0  0  0
    1.8414    1.5395    0.0000 C   0  0  0  0  0  0  0  0  0  0  0  0
   -2.1434    2.0625    0.0000 N   0  0  0  0  0  0  0  0  0  0  0  0
   -4.4990    0.1225    0.0000 H   0  0  0  0  0  0  0  0  0  0  0  0
   -3.5724   -1.4825    0.0000 H   0  0  0  0  0  0  0  0  0  0  0  0
   -4.4991   -0.9475    0.0000 H   0  0  0  0  0  0  0  0  0  0  0  0
   -3.7845    0.5350    0.0000 H   0  0  0  0  0  0  0  0  0  0  0  0
   -3.7845    1.3600    0.0000 H   0  0  0  0  0  0  0  0  0  0  0  0
   -2.8579    1.8950    0.0000 H   0  0  0  0  0  0  0  0  0  0  0  0
   -3.0700    1.7725    0.0000 H   0  0  0  0  0  0  0  0  0  0  0  0
   -0.5023    1.3600    0.0000 H   0  0  0  0  0  0  0  0  0  0  0  0
   -0.5023    0.2900    0.0000 H   0  0  0  0  0  0  0  0  0  0  0  0
   -2.1434   -1.4825    0.0000 H   0  0  0  0  0  0  0  0  0  0  0  0
   -3.0700   -0.9475    0.0000 H   0  0  0  0  0  0  0  0  0  0  0  0
   -1.6082   -1.7535    0.0000 H   0  0  0  0  0  0  0  0  0  0  0  0
    0.0000   -2.6820    0.0000 H   0  0  0  0  0  0  0  0  0  0  0  0
   -0.7145    2.3075    0.0000 H   0  0  0  0  0  0  0  0  0  0  0  0
   -1.6411    0.7025    0.0000 H   0  0  0  0  0  0  0  0  0  0  0  0
   -1.6412    1.7725    0.0000 H   0  0  0  0  0  0  0  0  0  0  0  0
    3.0371    0.1035    0.0000 H   0  0  0  0  0  0  0  0  0  0  0  0
    2.0464   -2.9435    0.0000 H   0  0  0  0  0  0  0  0  0  0  0  0
    1.4289    1.8950    0.0000 H   0  0  0  0  0  0  0  0  0  0  0  0
    0.0898    2.0745    0.0000 H   0  0  0  0  0  0  0  0  0  0  0  0
    1.2933    2.5730    0.0000 H   0  0  0  0  0  0  0  0  0  0  0  0
    2.7680    2.0745    0.0000 H   0  0  0  0  0  0  0  0  0  0  0  0
    2.5980    0.7829    0.0000 H   0  0  0  0  0  0  0  0  0  0  0  0
   -1.2601    2.5725    0.0000 H   0  0  0  0  0  0  0  0  0  0  0  0
   -3.0267    2.5725    0.0000 H   0  0  0  0  0  0  0  0  0  0  0  0
  1 28  1  0  0  0  0
  1 29  1  0  0  0  0
  1 30  1  0  0  0  0
  2  1  1  0  0  0  0
  2  3  1  0  0  0  0
  2  7  1  0  0  0  0
  2 31  1  6  0  0  0
  3  4  1  0  0  0  0
  3 32  1  0  0  0  0
  3 33  1  0  0  0  0
  4  5  1  0  0  0  0
  4 27  1  0  0  0  0
  4 34  1  1  0  0  0
  5  6  1  0  0  0  0
  5 35  1  0  0  0  0
  5 36  1  0  0  0  0
  6  7  1  0  0  0  0
  6  8  1  0  0  0  0
  7 37  1  0  0  0  0
  7 38  1  0  0  0  0
  8  9  2  0  0  0  0
  8 13  1  0  0  0  0
  9 10  1  0  0  0  0
  9 39  1  0  0  0  0
 10 11  2  0  0  0  0
 10 40  1  0  0  0  0
 11 12  1  0  0  0  0
 11 19  1  0  0  0  0
 12 13  2  0  0  0  0
 12 16  1  0  0  0  0
 13 14  1  0  0  0  0
 14 15  1  0  0  0  0
 15 41  1  0  0  0  0
 15 42  1  0  0  0  0
 15 43  1  0  0  0  0
 16 17  1  0  0  0  0
 16 24  1  0  0  0  0
 17 18  2  0  0  0  0
 17 44  1  0  0  0  0
 18 19  1  0  0  0  0
 18 21  1  0  0  0  0
 19 20  2  0  0  0  0
 21 22  2  0  0  0  0
 21 23  1  0  0  0  0
 23 45  1  0  0  0  0
 24 25  1  0  0  0  0
 24 26  1  0  0  0  0
 24 46  1  0  0  0  0
 25 26  1  0  0  0  0
 25 47  1  0  0  0  0
 25 48  1  0  0  0  0
 26 49  1  0  0  0  0
 26 50  1  0  0  0  0
 27 51  1  0  0  0  0
 27 52  1  0  0  0  0
M  END
>  <DRUGBANK_ID>
DB06600

>  <COMMON_NAME>
Nemonoxacin

>  <CAS_NUMBER>
378746-64-6

>  <UNII>
P94L0PVO94

>  <SYNONYMS>
Nemonoxacin

$$$$
