
 OpenBabel10282417072D

 34 33  0  0  0  0  0  0  0  0999 V2000
    1.0707    0.2057    0.0000 C   0  0  0  0  0  0  0  0  0  0  0  0
    1.7814   -0.2057    0.0000 N   0  0  0  0  0  0  0  0  0  0  0  0
    2.4968    0.2057    0.0000 C   0  0  0  0  0  0  0  0  0  0  0  0
    3.2120   -0.2056    0.0000 C   0  0  0  0  0  0  0  0  0  0  0  0
    3.9228    0.2057    0.0000 C   0  0  0  0  0  0  0  0  0  0  0  0
    4.6383    0.6170    0.0000 C   0  0  0  0  0  0  0  0  0  0  0  0
    0.3599   -0.2057    0.0000 C   0  0  0  0  0  0  0  0  0  0  0  0
   -0.3554    0.2057    0.0000 C   0  0  0  0  0  0  0  0  0  0  0  0
   -1.0661   -0.2057    0.0000 C   0  0  0  0  0  0  0  0  0  0  0  0
   -1.7814    0.2057    0.0000 N   0  0  0  0  0  0  0  0  0  0  0  0
   -2.4969   -0.2057    0.0000 C   0  0  0  0  0  0  0  0  0  0  0  0
   -3.2076    0.2057    0.0000 C   0  0  0  0  0  0  0  0  0  0  0  0
   -3.9229   -0.2057    0.0000 C   0  0  0  0  0  0  0  0  0  0  0  0
   -4.6383   -0.6170    0.0000 C   0  0  0  0  0  0  0  0  0  0  0  0
    1.0707    1.2757    0.0000 H   0  0  0  0  0  0  0  0  0  0  0  0
    0.1438    0.7402    0.0000 H   0  0  0  0  0  0  0  0  0  0  0  0
    1.7799   -1.2257    0.0000 H   0  0  0  0  0  0  0  0  0  0  0  0
    2.4968    1.2757    0.0000 H   0  0  0  0  0  0  0  0  0  0  0  0
    3.4230    0.7415    0.0000 H   0  0  0  0  0  0  0  0  0  0  0  0
    3.2134   -1.2376    0.0000 H   0  0  0  0  0  0  0  0  0  0  0  0
    5.5311    0.0993    0.0000 H   0  0  0  0  0  0  0  0  0  0  0  0
    4.6402    1.6490    0.0000 H   0  0  0  0  0  0  0  0  0  0  0  0
    0.3614   -1.2757    0.0000 H   0  0  0  0  0  0  0  0  0  0  0  0
   -0.5659   -0.7421    0.0000 H   0  0  0  0  0  0  0  0  0  0  0  0
   -0.3569    1.2757    0.0000 H   0  0  0  0  0  0  0  0  0  0  0  0
   -1.2827    0.7395    0.0000 H   0  0  0  0  0  0  0  0  0  0  0  0
   -1.0646   -1.2757    0.0000 H   0  0  0  0  0  0  0  0  0  0  0  0
   -1.9919   -0.7421    0.0000 H   0  0  0  0  0  0  0  0  0  0  0  0
   -1.7813    1.2257    0.0000 H   0  0  0  0  0  0  0  0  0  0  0  0
   -2.4985   -1.2757    0.0000 H   0  0  0  0  0  0  0  0  0  0  0  0
   -3.4242   -0.7395    0.0000 H   0  0  0  0  0  0  0  0  0  0  0  0
   -3.2062    1.2377    0.0000 H   0  0  0  0  0  0  0  0  0  0  0  0
   -5.5311   -0.0994    0.0000 H   0  0  0  0  0  0  0  0  0  0  0  0
   -4.6402   -1.6490    0.0000 H   0  0  0  0  0  0  0  0  0  0  0  0
  1  2  1  0  0  0  0
  1  7  1  0  0  0  0
  1 15  1  0  0  0  0
  1 16  1  0  0  0  0
  2  3  1  0  0  0  0
  2 17  1  0  0  0  0
  3  4  1  0  0  0  0
  3 18  1  0  0  0  0
  3 19  1  0  0  0  0
  4  5  2  0  0  0  0
  4 20  1  0  0  0  0
  5  6  2  0  0  0  0
  6 21  1  0  0  0  0
  6 22  1  0  0  0  0
  7  8  1  0  0  0  0
  7 23  1  0  0  0  0
  7 24  1  0  0  0  0
  8  9  1  0  0  0  0
  8 25  1  0  0  0  0
  8 26  1  0  0  0  0
  9 10  1  0  0  0  0
  9 27  1  0  0  0  0
  9 28  1  0  0  0  0
 10 11  1  0  0  0  0
 10 29  1  0  0  0  0
 11 12  1  0  0  0  0
 11 30  1  0  0  0  0
 11 31  1  0  0  0  0
 12 13  2  0  0  0  0
 12 32  1  0  0  0  0
 13 14  2  0  0  0  0
 14 33  1  0  0  0  0
 14 34  1  0  0  0  0
M  END
>  <DRUGBANK_ID>
DB04188

>  <SECONDARY_ACCESSION_NUMBERS>
EXPT02139

>  <COMMON_NAME>
MDL72527

>  <CAS_NUMBER>
99207-33-7

>  <UNII>
G28L05X0YB

$$$$
