
 OpenBabel10282417072D

 97 99  0  0  1  0  0  0  0  0999 V2000
   -5.2497   -0.8528    0.0000 C   0  0  0  0  0  0  0  0  0  0  0  0
   -5.9209   -2.3602    0.0000 C   0  0  0  0  0  0  0  0  0  0  0  0
  -11.5254   -5.5490    0.0000 C   0  0  0  0  0  0  0  0  0  0  0  0
   -9.1812   -1.5697    0.0000 C   0  0  0  0  0  0  0  0  0  0  0  0
   -8.4275   -1.9052    0.0000 C   0  0  0  0  0  0  0  0  0  0  0  0
  -11.2698   -2.2040    0.0000 C   0  0  0  0  0  0  0  0  0  0  0  0
  -11.1835   -3.0245    0.0000 C   0  0  0  0  0  0  0  0  0  0  0  0
  -12.2597   -6.4557    0.0000 C   0  0  0  0  0  0  0  0  0  0  0  0
  -12.4322   -4.8148    0.0000 C   0  0  0  0  0  0  0  0  0  0  0  0
   -0.5683   -1.4940    0.0000 C   0  0  0  0  0  0  0  0  0  0  0  0
   -4.8316   -1.9421    0.0000 C   0  0  0  0  0  0  0  0  0  0  0  0
    3.3523    1.1104    0.0000 C   0  0  0  0  0  0  0  0  0  0  0  0
    0.6538    1.5229    0.0000 C   0  0  0  0  0  0  0  0  0  0  0  0
    0.0992   -1.0091    0.0000 C   0  0  2  0  0  0  0  0  0  0  0  0
   -9.8486   -2.0546    0.0000 C   0  0  0  0  0  0  0  0  0  0  0  0
  -12.9271   -6.9407    0.0000 C   0  0  0  0  0  0  0  0  0  0  0  0
  -11.7647   -4.3299    0.0000 C   0  0  0  0  0  0  0  0  0  0  0  0
    1.9233    1.9354    0.0000 C   0  0  0  0  0  0  0  0  0  0  0  0
    1.3687   -0.5966    0.0000 C   0  0  2  0  0  0  0  0  0  0  0  0
    0.8838   -1.2640    0.0000 C   0  0  2  0  0  0  0  0  0  0  0  0
   -6.3390   -1.2710    0.0000 C   0  0  1  0  0  0  0  0  0  0  0  0
    2.6378    2.3479    0.0000 C   0  0  0  0  0  0  0  0  0  0  0  0
    1.9233    1.1104    0.0000 C   0  0  0  0  0  0  0  0  0  0  0  0
   -7.0064   -1.7559    0.0000 C   0  0  0  0  0  0  0  0  0  0  0  0
    0.8838    0.0709    0.0000 C   0  0  2  0  0  0  0  0  0  0  0  0
   -5.5853   -1.6065    0.0000 C   0  0  0  0  0  0  0  0  0  0  0  0
  -12.3459   -5.6353    0.0000 C   0  0  2  0  0  0  0  0  0  0  0  0
    2.6378    3.1729    0.0000 N   0  0  0  0  0  0  0  0  0  0  0  0
  -10.6023   -1.7191    0.0000 N   0  0  0  0  0  0  0  0  0  0  0  0
   -7.7601   -1.4203    0.0000 N   0  0  0  0  0  0  0  0  0  0  0  0
    3.3523    1.9354    0.0000 N   0  0  0  0  0  0  0  0  0  0  0  0
    2.6378    0.6979    0.0000 N   0  0  0  0  0  0  0  0  0  0  0  0
    1.1387    2.1904    0.0000 N   0  0  0  0  0  0  0  0  0  0  0  0
    1.1387    0.8555    0.0000 N   0  0  0  0  0  0  0  0  0  0  0  0
   -9.7624   -2.8751    0.0000 O   0  5  0  0  0  0  0  0  0  0  0  0
  -12.8409   -7.7611    0.0000 O   0  0  0  0  0  0  0  0  0  0  0  0
  -13.6808   -6.6051    0.0000 O   0  5  0  0  0  0  0  0  0  0  0  0
  -11.0110   -4.6654    0.0000 O   0  0  0  0  0  0  0  0  0  0  0  0
    2.1937   -0.5966    0.0000 O   0  0  0  0  0  0  0  0  0  0  0  0
   -6.4252   -0.4505    0.0000 O   0  0  0  0  0  0  0  0  0  0  0  0
   -6.9202   -2.5764    0.0000 O   0  5  0  0  0  0  0  0  0  0  0  0
  -13.1664   -5.7215    0.0000 O   0  0  0  0  0  0  0  0  0  0  0  0
   -0.0264   -2.1097    0.0000 O   0  5  0  0  0  0  0  0  0  0  0  0
    1.1998   -3.2137    0.0000 O   0  5  0  0  0  0  0  0  0  0  0  0
    0.0347   -3.2748    0.0000 O   0  0  0  0  0  0  0  0  0  0  0  0
   -2.4743   -0.9759    0.0000 O   0  0  0  0  0  0  0  0  0  0  0  0
   -1.5045   -2.3108    0.0000 O   0  0  0  0  0  0  0  0  0  0  0  0
   -3.0749   -1.0390    0.0000 O   0  0  0  0  0  0  0  0  0  0  0  0
   -3.7461   -2.5464    0.0000 O   0  0  0  0  0  0  0  0  0  0  0  0
   -1.3220   -1.1584    0.0000 O   0  0  0  0  0  0  0  0  0  0  0  0
   -4.1642   -1.4572    0.0000 O   0  0  0  0  0  0  0  0  0  0  0  0
    0.0992   -0.1841    0.0000 O   0  0  0  0  0  0  0  0  0  0  0  0
    1.1387   -2.0486    0.0000 O   0  0  0  0  0  0  0  0  0  0  0  0
   -2.6568   -2.1283    0.0000 O   0  0  0  0  0  0  0  0  0  0  0  0
    0.5867   -2.6617    0.0000 P   0  0  0  0  0  0  0  0  0  0  0  0
   -1.9894   -1.6433    0.0000 P   0  0  3  0  0  0  0  0  0  0  0  0
   -3.4105   -1.7927    0.0000 P   0  0  3  0  0  0  0  0  0  0  0  0
  -11.8510   -3.5094    0.0000 S   0  0  0  0  0  0  0  0  0  0  0  0
    0.4991   -1.7306    0.0000 H   0  0  0  0  0  0  0  0  0  0  0  0
    1.7432   -1.3316    0.0000 H   0  0  0  0  0  0  0  0  0  0  0  0
    0.5351   -2.0117    0.0000 H   0  0  0  0  0  0  0  0  0  0  0  0
   -6.2527   -2.0914    0.0000 H   0  0  0  0  0  0  0  0  0  0  0  0
    1.6986    0.1999    0.0000 H   0  0  0  0  0  0  0  0  0  0  0  0
   -4.1856   -0.7410    0.0000 H   0  0  0  0  0  0  0  0  0  0  0  0
   -5.8786    0.0129    0.0000 H   0  0  0  0  0  0  0  0  0  0  0  0
   -4.8145    0.1247    0.0000 H   0  0  0  0  0  0  0  0  0  0  0  0
   -6.9850   -2.4720    0.0000 H   0  0  0  0  0  0  0  0  0  0  0  0
   -5.2920   -3.2259    0.0000 H   0  0  0  0  0  0  0  0  0  0  0  0
   -6.3561   -3.3377    0.0000 H   0  0  0  0  0  0  0  0  0  0  0  0
  -10.8964   -6.4146    0.0000 H   0  0  0  0  0  0  0  0  0  0  0  0
  -11.0903   -4.5715    0.0000 H   0  0  0  0  0  0  0  0  0  0  0  0
  -10.4613   -5.4371    0.0000 H   0  0  0  0  0  0  0  0  0  0  0  0
   -9.2931   -0.5056    0.0000 H   0  0  0  0  0  0  0  0  0  0  0  0
  -10.1587   -1.1345    0.0000 H   0  0  0  0  0  0  0  0  0  0  0  0
   -8.3156   -2.9693    0.0000 H   0  0  0  0  0  0  0  0  0  0  0  0
   -7.4500   -2.3404    0.0000 H   0  0  0  0  0  0  0  0  0  0  0  0
  -12.2473   -1.7688    0.0000 H   0  0  0  0  0  0  0  0  0  0  0  0
  -11.3816   -1.1399    0.0000 H   0  0  0  0  0  0  0  0  0  0  0  0
  -10.2060   -3.4597    0.0000 H   0  0  0  0  0  0  0  0  0  0  0  0
  -11.0717   -4.0886    0.0000 H   0  0  0  0  0  0  0  0  0  0  0  0
  -11.2822   -6.8909    0.0000 H   0  0  0  0  0  0  0  0  0  0  0  0
  -11.3941   -5.8268    0.0000 H   0  0  0  0  0  0  0  0  0  0  0  0
  -13.4097   -4.3796    0.0000 H   0  0  0  0  0  0  0  0  0  0  0  0
  -13.2978   -5.4438    0.0000 H   0  0  0  0  0  0  0  0  0  0  0  0
   -0.4565   -2.5581    0.0000 H   0  0  0  0  0  0  0  0  0  0  0  0
   -1.4340   -2.1229    0.0000 H   0  0  0  0  0  0  0  0  0  0  0  0
   -4.7198   -3.0062    0.0000 H   0  0  0  0  0  0  0  0  0  0  0  0
   -3.8541   -2.3773    0.0000 H   0  0  0  0  0  0  0  0  0  0  0  0
    4.2460    0.5944    0.0000 H   0  0  0  0  0  0  0  0  0  0  0  0
   -0.3782    1.5229    0.0000 H   0  0  0  0  0  0  0  0  0  0  0  0
    3.4904    3.6651    0.0000 H   0  0  0  0  0  0  0  0  0  0  0  0
    1.7852    3.6651    0.0000 H   0  0  0  0  0  0  0  0  0  0  0  0
    2.6787   -1.4366    0.0000 H   0  0  0  0  0  0  0  0  0  0  0  0
   -5.6404    0.1196    0.0000 H   0  0  0  0  0  0  0  0  0  0  0  0
  -13.7365   -4.9367    0.0000 H   0  0  0  0  0  0  0  0  0  0  0  0
   -2.0798   -0.0898    0.0000 H   0  0  0  0  0  0  0  0  0  0  0  0
   -2.1102   -0.9376    0.0000 H   0  0  0  0  0  0  0  0  0  0  0  0
  1 64  1  0  0  0  0
  1 65  1  0  0  0  0
  1 66  1  0  0  0  0
  2 67  1  0  0  0  0
  2 68  1  0  0  0  0
  2 69  1  0  0  0  0
  3 70  1  0  0  0  0
  3 71  1  0  0  0  0
  3 72  1  0  0  0  0
  4 73  1  0  0  0  0
  4 74  1  0  0  0  0
  5  4  1  0  0  0  0
  5 75  1  0  0  0  0
  5 76  1  0  0  0  0
  6 77  1  0  0  0  0
  6 78  1  0  0  0  0
  7  6  1  0  0  0  0
  7 79  1  0  0  0  0
  7 80  1  0  0  0  0
  8 81  1  0  0  0  0
  8 82  1  0  0  0  0
  9 83  1  0  0  0  0
  9 84  1  0  0  0  0
 10 85  1  0  0  0  0
 10 86  1  0  0  0  0
 11 87  1  0  0  0  0
 11 88  1  0  0  0  0
 12 89  1  0  0  0  0
 13 90  1  0  0  0  0
 14 10  1  0  0  0  0
 14 59  1  6  0  0  0
 15  4  1  0  0  0  0
 16  8  1  0  0  0  0
 17  9  1  0  0  0  0
 19 39  1  0  0  0  0
 19 60  1  1  0  0  0
 20 14  1  0  0  0  0
 20 19  1  0  0  0  0
 20 53  1  0  0  0  0
 20 61  1  1  0  0  0
 21 40  1  0  0  0  0
 21 62  1  1  0  0  0
 22 18  2  0  0  0  0
 23 18  1  0  0  0  0
 24 21  1  0  0  0  0
 25 19  1  0  0  0  0
 25 34  1  0  0  0  0
 25 63  1  6  0  0  0
 26  1  1  0  0  0  0
 26  2  1  0  0  0  0
 26 11  1  0  0  0  0
 26 21  1  0  0  0  0
 27  3  1  0  0  0  0
 27  8  1  0  0  0  0
 27  9  1  0  0  0  0
 27 42  1  1  0  0  0
 28 22  1  0  0  0  0
 28 91  1  0  0  0  0
 28 92  1  0  0  0  0
 29  6  1  0  0  0  0
 29 15  2  3  0  0  0
 30  5  1  0  0  0  0
 30 24  2  3  0  0  0
 31 12  2  0  0  0  0
 31 22  1  0  0  0  0
 32 12  1  0  0  0  0
 32 23  2  0  0  0  0
 33 13  2  0  0  0  0
 33 18  1  0  0  0  0
 34 13  1  0  0  0  0
 34 23  1  0  0  0  0
 35 15  1  0  0  0  0
 36 16  2  0  0  0  0
 37 16  1  0  0  0  0
 38 17  2  0  0  0  0
 39 93  1  0  0  0  0
 40 94  1  0  0  0  0
 41 24  1  0  0  0  0
 42 95  1  0  0  0  0
 46 96  1  0  0  0  0
 48 97  1  0  0  0  0
 50 10  1  0  0  0  0
 51 11  1  0  0  0  0
 52 14  1  0  0  0  0
 52 25  1  0  0  0  0
 55 43  1  0  0  0  0
 55 44  1  0  0  0  0
 55 45  2  0  0  0  0
 55 53  1  0  0  0  0
 56 46  1  0  0  0  0
 56 47  2  0  0  0  0
 56 50  1  0  0  0  0
 56 54  1  0  0  0  0
 57 48  1  0  0  0  0
 57 49  2  0  0  0  0
 57 51  1  0  0  0  0
 57 54  1  0  0  0  0
 58  7  1  0  0  0  0
 58 17  1  0  0  0  0
M  CHG  5  35  -1  37  -1  41  -1  43  -1  44  -1
M  END
>  <DRUGBANK_ID>
DB03169

>  <SECONDARY_ACCESSION_NUMBERS>
EXPT01758

>  <COMMON_NAME>
(S)-Hmg-Coa

$$$$
