
 OpenBabel10282417072D

 10  9  0  0  0  0  0  0  0  0999 V2000
    2.0930    0.0495    0.0000 O   0  0  0  0  0  0  0  0  0  0  0  0
    3.5220    0.8745    0.0000 O   0  0  0  0  0  0  0  0  0  0  0  0
    2.8075   -0.3630    0.0000 N   0  0  0  0  0  0  0  0  0  0  0  0
    3.5220    0.0495    0.0000 C   0  0  0  0  0  0  0  0  0  0  0  0
    4.2365   -0.3630    0.0000 C   0  0  0  0  0  0  0  0  0  0  0  0
    2.0930    1.0195    0.0000 H   0  0  0  0  0  0  0  0  0  0  0  0
    2.8075   -1.3475    0.0000 H   0  0  0  0  0  0  0  0  0  0  0  0
    4.2365   -1.4330    0.0000 H   0  0  0  0  0  0  0  0  0  0  0  0
    5.1631    0.1720    0.0000 H   0  0  0  0  0  0  0  0  0  0  0  0
    5.1632   -0.8980    0.0000 H   0  0  0  0  0  0  0  0  0  0  0  0
  1  3  1  0  0  0  0
  1  6  1  0  0  0  0
  2  4  2  0  0  0  0
  3  4  1  0  0  0  0
  3  7  1  0  0  0  0
  4  5  1  0  0  0  0
  5  8  1  0  0  0  0
  5  9  1  0  0  0  0
  5 10  1  0  0  0  0
M  END
>  <DRUGBANK_ID>
DB00551

>  <SECONDARY_ACCESSION_NUMBERS>
APRD00774; EXPT01688

>  <COMMON_NAME>
Acetohydroxamic acid

>  <CAS_NUMBER>
546-88-3

>  <UNII>
4RZ82L2GY5

>  <SYNONYMS>
Acethydroxamsaeure; Acetic acid, oxime; Acetohydroxamate; Acetohydroxamic acid; Acetohydroximic acid; Acetyl hydroxyamino; Acetylhydroxamic acid; Acide acetohydroxamique; Acido acetohidroxamico; Acidum acetohydroxamicum; AHA; Cetohyroxamic acid; Methylhydroxamic acid; N-Acetyl hydroxyacetamide; N-Acetylhydroxylamine; N-Hydroxyacetamide

$$$$
