LZJ
 OpenBabel10282417072D

 29 31  0  0  0  0  0  0  0  0999 V2000
    0.5458  -12.8439    0.0000 Br  0  0  0  0  0  0  0  0  0  0  0  0
    0.5458  -12.0189    0.0000 C   0  0  0  0  0  0  0  0  0  0  0  0
   -0.1687  -11.6064    0.0000 C   0  0  0  0  0  0  0  0  0  0  0  0
   -0.1687  -10.7814    0.0000 C   0  0  0  0  0  0  0  0  0  0  0  0
    0.5458  -10.3689    0.0000 C   0  0  0  0  0  0  0  0  0  0  0  0
    1.2603  -10.7814    0.0000 C   0  0  0  0  0  0  0  0  0  0  0  0
    1.9747  -10.3689    0.0000 Br  0  0  0  0  0  0  0  0  0  0  0  0
    1.2603  -11.6064    0.0000 C   0  0  0  0  0  0  0  0  0  0  0  0
    1.9747  -12.0189    0.0000 C   0  0  0  0  0  0  0  0  0  0  0  0
    2.6892  -11.6064    0.0000 C   0  0  0  0  0  0  0  0  0  0  0  0
    3.4037  -12.0189    0.0000 C   0  0  0  0  0  0  0  0  0  0  0  0
    4.1181  -11.6064    0.0000 C   0  0  0  0  0  0  0  0  0  0  0  0
    4.8326  -12.0189    0.0000 N   0  0  0  0  0  0  0  0  0  0  0  0
    1.9747  -12.8439    0.0000 C   0  0  0  0  0  0  0  0  0  0  0  0
    1.2603  -13.2564    0.0000 N   0  0  0  0  0  0  0  0  0  0  0  0
    2.6892  -13.2564    0.0000 N   0  0  0  0  0  0  0  0  0  0  0  0
    3.4037  -12.8439    0.0000 C   0  0  0  0  0  0  0  0  0  0  0  0
    4.1181  -13.2564    0.0000 N   0  0  0  0  0  0  0  0  0  0  0  0
    4.8326  -12.8439    0.0000 C   0  0  0  0  0  0  0  0  0  0  0  0
    5.5471  -13.2564    0.0000 N   0  0  0  0  0  0  0  0  0  0  0  0
   -1.0624  -12.1224    0.0000 H   0  0  0  0  0  0  0  0  0  0  0  0
   -1.0624  -10.2654    0.0000 H   0  0  0  0  0  0  0  0  0  0  0  0
    0.5458   -9.3369    0.0000 H   0  0  0  0  0  0  0  0  0  0  0  0
    2.6892  -10.5744    0.0000 H   0  0  0  0  0  0  0  0  0  0  0  0
    4.1181  -10.5744    0.0000 H   0  0  0  0  0  0  0  0  0  0  0  0
    0.4077  -12.7642    0.0000 H   0  0  0  0  0  0  0  0  0  0  0  0
    1.2603  -14.2409    0.0000 H   0  0  0  0  0  0  0  0  0  0  0  0
    5.5471  -14.2409    0.0000 H   0  0  0  0  0  0  0  0  0  0  0  0
    6.3997  -12.7641    0.0000 H   0  0  0  0  0  0  0  0  0  0  0  0
  1  2  1  0  0  0  0
  2  3  1  0  0  0  0
  2  8  2  0  0  0  0
  3  4  2  0  0  0  0
  3 21  1  0  0  0  0
  4  5  1  0  0  0  0
  4 22  1  0  0  0  0
  5  6  2  0  0  0  0
  5 23  1  0  0  0  0
  6  7  1  0  0  0  0
  6  8  1  0  0  0  0
  8  9  1  0  0  0  0
  9 10  1  0  0  0  0
  9 14  2  0  0  0  0
 10 11  2  0  0  0  0
 10 24  1  0  0  0  0
 11 12  1  0  0  0  0
 11 17  1  0  0  0  0
 12 13  2  0  0  0  0
 12 25  1  0  0  0  0
 13 19  1  0  0  0  0
 14 15  1  0  0  0  0
 14 16  1  0  0  0  0
 15 26  1  0  0  0  0
 15 27  1  0  0  0  0
 16 17  2  0  0  0  0
 17 18  1  0  0  0  0
 18 19  2  0  0  0  0
 19 20  1  0  0  0  0
 20 28  1  0  0  0  0
 20 29  1  0  0  0  0
M  END
>  <DRUGBANK_ID>
DB08144

>  <COMMON_NAME>
6-(2,6-dibromophenyl)pyrido[2,3-d]pyrimidine-2,7-diamine

$$$$
