789
 OpenBabel10282417072D

 28 30  0  0  0  0  0  0  0  0999 V2000
    2.5467   -0.0564    0.0000 C   0  0  0  0  0  0  0  0  0  0  0  0
    1.8323   -0.4689    0.0000 C   0  0  0  0  0  0  0  0  0  0  0  0
    1.1178   -0.0564    0.0000 C   0  0  0  0  0  0  0  0  0  0  0  0
    1.1178    0.7686    0.0000 C   0  0  0  0  0  0  0  0  0  0  0  0
    1.8323    1.1811    0.0000 C   0  0  0  0  0  0  0  0  0  0  0  0
    2.5467    0.7686    0.0000 C   0  0  0  0  0  0  0  0  0  0  0  0
    0.3332   -0.3114    0.0000 C   0  0  0  0  0  0  0  0  0  0  0  0
   -0.1518    0.3561    0.0000 C   0  0  0  0  0  0  0  0  0  0  0  0
    0.3332    1.0235    0.0000 C   0  0  0  0  0  0  0  0  0  0  0  0
   -0.9768    0.3561    0.0000 C   0  0  0  0  0  0  0  0  0  0  0  0
   -1.3893   -0.3584    0.0000 C   0  0  0  0  0  0  0  0  0  0  0  0
   -2.2143   -0.3584    0.0000 C   0  0  0  0  0  0  0  0  0  0  0  0
   -2.6268    0.3561    0.0000 C   0  0  0  0  0  0  0  0  0  0  0  0
   -2.2143    1.0705    0.0000 C   0  0  0  0  0  0  0  0  0  0  0  0
   -1.3893    1.0705    0.0000 C   0  0  0  0  0  0  0  0  0  0  0  0
   -3.4518    0.3561    0.0000 O   0  0  0  0  0  0  0  0  0  0  0  0
    0.0782   -1.0960    0.0000 O   0  0  0  0  0  0  0  0  0  0  0  0
    3.2612   -0.4689    0.0000 O   0  0  0  0  0  0  0  0  0  0  0  0
    0.0782    1.8081    0.0000 Br  0  0  0  0  0  0  0  0  0  0  0  0
    1.8323   -1.5009    0.0000 H   0  0  0  0  0  0  0  0  0  0  0  0
    1.8323    2.2131    0.0000 H   0  0  0  0  0  0  0  0  0  0  0  0
    3.4404    1.2846    0.0000 H   0  0  0  0  0  0  0  0  0  0  0  0
   -0.8733   -1.2521    0.0000 H   0  0  0  0  0  0  0  0  0  0  0  0
   -2.7303   -1.2521    0.0000 H   0  0  0  0  0  0  0  0  0  0  0  0
   -2.7303    1.9642    0.0000 H   0  0  0  0  0  0  0  0  0  0  0  0
   -0.8733    1.9642    0.0000 H   0  0  0  0  0  0  0  0  0  0  0  0
   -3.9203    1.1676    0.0000 H   0  0  0  0  0  0  0  0  0  0  0  0
    3.2612   -1.4059    0.0000 H   0  0  0  0  0  0  0  0  0  0  0  0
  1  2  2  0  0  0  0
  1  6  1  0  0  0  0
  1 18  1  0  0  0  0
  2  3  1  0  0  0  0
  2 20  1  0  0  0  0
  3  4  2  0  0  0  0
  3  7  1  0  0  0  0
  4  5  1  0  0  0  0
  4  9  1  0  0  0  0
  5  6  2  0  0  0  0
  5 21  1  0  0  0  0
  6 22  1  0  0  0  0
  7  8  1  0  0  0  0
  7 17  2  0  0  0  0
  8  9  2  0  0  0  0
  8 10  1  0  0  0  0
  9 19  1  0  0  0  0
 10 11  1  0  0  0  0
 10 15  2  0  0  0  0
 11 12  2  0  0  0  0
 11 23  1  0  0  0  0
 12 13  1  0  0  0  0
 12 24  1  0  0  0  0
 13 14  2  0  0  0  0
 13 16  1  0  0  0  0
 14 15  1  0  0  0  0
 14 25  1  0  0  0  0
 15 26  1  0  0  0  0
 16 27  1  0  0  0  0
 18 28  1  0  0  0  0
M  END
>  <DRUGBANK_ID>
DB07230

>  <COMMON_NAME>
3-BROMO-6-HYDROXY-2-(4-HYDROXYPHENYL)-1H-INDEN-1-ONE

$$$$
