
 OpenBabel10282417072D

 62 64  0  0  0  0  0  0  0  0999 V2000
    3.5724   -2.8875    0.0000 C   0  0  0  0  0  0  0  0  0  0  0  0
    3.5724   -3.7125    0.0000 C   0  0  0  0  0  0  0  0  0  0  0  0
    4.2868   -4.1250    0.0000 C   0  0  0  0  0  0  0  0  0  0  0  0
    4.2868   -4.9500    0.0000 C   0  0  0  0  0  0  0  0  0  0  0  0
    3.5724   -5.3625    0.0000 C   0  0  0  0  0  0  0  0  0  0  0  0
    2.8579   -4.9500    0.0000 C   0  0  0  0  0  0  0  0  0  0  0  0
    2.8579   -4.1250    0.0000 N   0  0  0  0  0  0  0  0  0  0  0  0
    2.1434   -5.3625    0.0000 S   0  0  0  0  0  0  0  0  0  0  0  0
    1.4289   -5.7750    0.0000 O   0  0  0  0  0  0  0  0  0  0  0  0
    2.5559   -6.0770    0.0000 O   0  0  0  0  0  0  0  0  0  0  0  0
    1.7309   -4.6480    0.0000 C   0  0  0  0  0  0  0  0  0  0  0  0
    5.0013   -3.7125    0.0000 N   0  0  0  0  0  0  0  0  0  0  0  0
    5.7158   -4.1250    0.0000 C   0  0  0  0  0  0  0  0  0  0  0  0
    6.4302   -3.7125    0.0000 C   0  0  0  0  0  0  0  0  0  0  0  0
    7.1447   -4.1250    0.0000 C   0  0  0  0  0  0  0  0  0  0  0  0
    7.1447   -4.9500    0.0000 N   0  0  0  0  0  0  0  0  0  0  0  0
    6.4302   -5.3625    0.0000 C   0  0  0  0  0  0  0  0  0  0  0  0
    5.7158   -4.9500    0.0000 N   0  0  0  0  0  0  0  0  0  0  0  0
    7.8592   -3.7125    0.0000 O   0  0  0  0  0  0  0  0  0  0  0  0
    8.5737   -4.1250    0.0000 C   0  0  0  0  0  0  0  0  0  0  0  0
    9.2881   -3.7125    0.0000 C   0  0  0  0  0  0  0  0  0  0  0  0
   10.0026   -4.1250    0.0000 C   0  0  0  0  0  0  0  0  0  0  0  0
   10.0026   -4.9500    0.0000 N   0  0  0  0  0  0  0  0  0  0  0  0
    9.2881   -5.3625    0.0000 C   0  0  0  0  0  0  0  0  0  0  0  0
    8.5737   -4.9500    0.0000 C   0  0  0  0  0  0  0  0  0  0  0  0
   10.7171   -5.3625    0.0000 C   0  0  0  0  0  0  0  0  0  0  0  0
   10.7171   -6.1875    0.0000 O   0  0  0  0  0  0  0  0  0  0  0  0
   11.4315   -4.9500    0.0000 O   0  0  0  0  0  0  0  0  0  0  0  0
   12.1460   -5.3625    0.0000 C   0  0  0  0  0  0  0  0  0  0  0  0
   12.8605   -4.9500    0.0000 C   0  0  0  0  0  0  0  0  0  0  0  0
   12.1460   -6.1875    0.0000 C   0  0  0  0  0  0  0  0  0  0  0  0
    6.4302   -2.8875    0.0000 O   0  0  0  0  0  0  0  0  0  0  0  0
    7.1447   -2.4750    0.0000 C   0  0  0  0  0  0  0  0  0  0  0  0
    4.4990   -2.3525    0.0000 H   0  0  0  0  0  0  0  0  0  0  0  0
    2.6458   -2.3525    0.0000 H   0  0  0  0  0  0  0  0  0  0  0  0
    3.5724   -1.8175    0.0000 H   0  0  0  0  0  0  0  0  0  0  0  0
    5.1805   -5.4660    0.0000 H   0  0  0  0  0  0  0  0  0  0  0  0
    3.5724   -6.3945    0.0000 H   0  0  0  0  0  0  0  0  0  0  0  0
    2.2659   -3.7214    0.0000 H   0  0  0  0  0  0  0  0  0  0  0  0
    0.6609   -4.6480    0.0000 H   0  0  0  0  0  0  0  0  0  0  0  0
    1.1959   -3.7213    0.0000 H   0  0  0  0  0  0  0  0  0  0  0  0
    5.0013   -2.7280    0.0000 H   0  0  0  0  0  0  0  0  0  0  0  0
    6.4302   -6.3945    0.0000 H   0  0  0  0  0  0  0  0  0  0  0  0
    9.5004   -4.6600    0.0000 H   0  0  0  0  0  0  0  0  0  0  0  0
    9.2881   -2.6425    0.0000 H   0  0  0  0  0  0  0  0  0  0  0  0
   10.2147   -3.1775    0.0000 H   0  0  0  0  0  0  0  0  0  0  0  0
   10.9292   -3.5900    0.0000 H   0  0  0  0  0  0  0  0  0  0  0  0
   10.9292   -4.6600    0.0000 H   0  0  0  0  0  0  0  0  0  0  0  0
    9.2881   -6.4325    0.0000 H   0  0  0  0  0  0  0  0  0  0  0  0
    8.3614   -5.8975    0.0000 H   0  0  0  0  0  0  0  0  0  0  0  0
    7.6470   -5.4850    0.0000 H   0  0  0  0  0  0  0  0  0  0  0  0
    7.6471   -4.4150    0.0000 H   0  0  0  0  0  0  0  0  0  0  0  0
   13.0726   -5.8975    0.0000 H   0  0  0  0  0  0  0  0  0  0  0  0
   13.7871   -5.4850    0.0000 H   0  0  0  0  0  0  0  0  0  0  0  0
   12.8605   -3.8800    0.0000 H   0  0  0  0  0  0  0  0  0  0  0  0
   13.7872   -4.4150    0.0000 H   0  0  0  0  0  0  0  0  0  0  0  0
   11.2194   -6.7225    0.0000 H   0  0  0  0  0  0  0  0  0  0  0  0
   13.0726   -6.7225    0.0000 H   0  0  0  0  0  0  0  0  0  0  0  0
   12.1460   -7.2575    0.0000 H   0  0  0  0  0  0  0  0  0  0  0  0
    8.0713   -3.0100    0.0000 H   0  0  0  0  0  0  0  0  0  0  0  0
    7.1447   -1.4050    0.0000 H   0  0  0  0  0  0  0  0  0  0  0  0
    8.0714   -1.9400    0.0000 H   0  0  0  0  0  0  0  0  0  0  0  0
  1  2  1  0  0  0  0
  1 34  1  0  0  0  0
  1 35  1  0  0  0  0
  1 36  1  0  0  0  0
  2  3  2  0  0  0  0
  2  7  1  0  0  0  0
  3  4  1  0  0  0  0
  3 12  1  0  0  0  0
  4  5  2  0  0  0  0
  4 37  1  0  0  0  0
  5  6  1  0  0  0  0
  5 38  1  0  0  0  0
  6  7  2  0  0  0  0
  6  8  1  0  0  0  0
  8  9  2  0  0  0  0
  8 10  2  0  0  0  0
  8 11  1  0  0  0  0
 11 39  1  0  0  0  0
 11 40  1  0  0  0  0
 11 41  1  0  0  0  0
 12 13  1  0  0  0  0
 12 42  1  0  0  0  0
 13 14  2  0  0  0  0
 13 18  1  0  0  0  0
 14 15  1  0  0  0  0
 14 32  1  0  0  0  0
 15 16  2  0  0  0  0
 15 19  1  0  0  0  0
 16 17  1  0  0  0  0
 17 18  2  0  0  0  0
 17 43  1  0  0  0  0
 19 20  1  0  0  0  0
 20 21  1  0  0  0  0
 20 25  1  0  0  0  0
 20 44  1  0  0  0  0
 21 22  1  0  0  0  0
 21 45  1  0  0  0  0
 21 46  1  0  0  0  0
 22 23  1  0  0  0  0
 22 47  1  0  0  0  0
 22 48  1  0  0  0  0
 23 24  1  0  0  0  0
 23 26  1  0  0  0  0
 24 25  1  0  0  0  0
 24 49  1  0  0  0  0
 24 50  1  0  0  0  0
 25 51  1  0  0  0  0
 25 52  1  0  0  0  0
 26 27  2  0  0  0  0
 26 28  1  0  0  0  0
 28 29  1  0  0  0  0
 29 30  1  0  0  0  0
 29 31  1  0  0  0  0
 29 53  1  0  0  0  0
 30 54  1  0  0  0  0
 30 55  1  0  0  0  0
 30 56  1  0  0  0  0
 31 57  1  0  0  0  0
 31 58  1  0  0  0  0
 31 59  1  0  0  0  0
 32 33  1  0  0  0  0
 33 60  1  0  0  0  0
 33 61  1  0  0  0  0
 33 62  1  0  0  0  0
M  END
>  <DRUGBANK_ID>
DB12084

>  <COMMON_NAME>
ADP-597

>  <CAS_NUMBER>
897732-93-3

>  <UNII>
345354O7AT

$$$$
