
 OpenBabel10282417072D

 29 30  0  0  0  0  0  0  0  0999 V2000
    0.5823   -0.8219    0.0000 C   0  0  0  0  0  0  0  0  0  0  0  0
   -0.1170   -1.2246    0.0000 C   0  0  3  0  0  0  0  0  0  0  0  0
   -0.8352   -0.8186    0.0000 C   0  0  0  0  0  0  0  0  0  0  0  0
   -0.8205   -0.0029    0.0000 C   0  0  0  0  0  0  0  0  0  0  0  0
   -1.3042    0.0084    0.0000 C   0  0  0  0  0  0  0  0  0  0  0  0
   -0.5897   -0.4040    0.0000 C   0  0  0  0  0  0  0  0  0  0  0  0
   -1.3042   -0.8166    0.0000 C   0  0  0  0  0  0  0  0  0  0  0  0
   -0.1212    0.3997    0.0000 C   0  0  3  0  0  0  0  0  0  0  0  0
   -0.1063    1.2246    0.0000 C   0  0  0  0  0  0  0  0  0  0  0  0
    0.5823   -0.0022    0.0000 C   0  0  3  0  0  0  0  0  0  0  0  0
    1.3042    0.3973    0.0000 O   0  0  0  0  0  0  0  0  0  0  0  0
    1.5086   -1.3574    0.0000 H   0  0  0  0  0  0  0  0  0  0  0  0
    0.5814   -1.8919    0.0000 H   0  0  0  0  0  0  0  0  0  0  0  0
   -0.1213   -0.1546    0.0000 H   0  0  0  0  0  0  0  0  0  0  0  0
   -1.7642   -1.3495    0.0000 H   0  0  0  0  0  0  0  0  0  0  0  0
   -1.7558   -0.2732    0.0000 H   0  0  0  0  0  0  0  0  0  0  0  0
   -1.7420    0.5410    0.0000 H   0  0  0  0  0  0  0  0  0  0  0  0
   -1.7545   -0.5250    0.0000 H   0  0  0  0  0  0  0  0  0  0  0  0
   -1.3043    1.0784    0.0000 H   0  0  0  0  0  0  0  0  0  0  0  0
   -2.2308   -0.5267    0.0000 H   0  0  0  0  0  0  0  0  0  0  0  0
   -2.2309    0.5433    0.0000 H   0  0  0  0  0  0  0  0  0  0  0  0
   -2.2309   -0.2817    0.0000 H   0  0  0  0  0  0  0  0  0  0  0  0
   -1.3041   -1.8866    0.0000 H   0  0  0  0  0  0  0  0  0  0  0  0
   -2.2308   -1.3517    0.0000 H   0  0  0  0  0  0  0  0  0  0  0  0
    0.8299    1.7428    0.0000 H   0  0  0  0  0  0  0  0  0  0  0  0
   -1.0231    1.7762    0.0000 H   0  0  0  0  0  0  0  0  0  0  0  0
   -0.0870    2.2944    0.0000 H   0  0  0  0  0  0  0  0  0  0  0  0
   -0.3431   -0.5393    0.0000 H   0  0  0  0  0  0  0  0  0  0  0  0
    2.1353   -0.1029    0.0000 H   0  0  0  0  0  0  0  0  0  0  0  0
  1 10  1  0  0  0  0
  1 12  1  0  0  0  0
  1 13  1  0  0  0  0
  2  1  1  0  0  0  0
  2 14  1  0  0  0  0
  3  2  1  0  0  0  0
  3 15  1  0  0  0  0
  3 16  1  0  0  0  0
  4  8  1  0  0  0  0
  4  3  1  0  0  0  0
  4 17  1  0  0  0  0
  4 18  1  0  0  0  0
  5 19  1  0  0  0  0
  5 20  1  0  0  0  0
  5 21  1  0  0  0  0
  6  8  1  0  0  0  0
  6  2  1  0  0  0  0
  6  5  1  0  0  0  0
  6  7  1  0  0  0  0
  7 22  1  0  0  0  0
  7 23  1  0  0  0  0
  7 24  1  0  0  0  0
  8  9  1  0  0  0  0
  9 25  1  0  0  0  0
  9 26  1  0  0  0  0
  9 27  1  0  0  0  0
 10  8  1  0  0  0  0
 10 11  1  0  0  0  0
 10 28  1  0  0  0  0
 11 29  1  0  0  0  0
M  END
>  <DRUGBANK_ID>
DB11288

>  <COMMON_NAME>
Borneol

>  <CAS_NUMBER>
507-70-0

>  <UNII>
M89NIB437X

>  <SYNONYMS>
Borneo camphor; Bornyl alcohol; endo-1,7,7-trimethylbicyclo[2.2.1]heptan-2-ol; endo-2-bornanol; endo-2-camphanol; endo-2-hydroxycamphane; Sumatra camphor

$$$$
