
 OpenBabel10282417072D

 27 28  0  0  0  0  0  0  0  0999 V2000
    0.9332   -1.1664    0.0000 O   0  0  0  0  0  0  0  0  0  0  0  0
   -0.6316   -2.6184    0.0000 O   0  0  0  0  0  0  0  0  0  0  0  0
   -1.1631    0.1434    0.0000 O   0  0  0  0  0  0  0  0  0  0  0  0
    0.2658    2.6184    0.0000 O   0  0  0  0  0  0  0  0  0  0  0  0
    0.2658    0.1434    0.0000 N   0  0  0  0  0  0  0  0  0  0  0  0
   -0.4487    1.3809    0.0000 N   0  0  0  0  0  0  0  0  0  0  0  0
   -0.1466   -1.9510    0.0000 C   0  0  1  0  0  0  0  0  0  0  0  0
    0.2658   -0.6815    0.0000 C   0  0  1  0  0  0  0  0  0  0  0  0
   -0.4016   -1.1664    0.0000 C   0  0  0  0  0  0  0  0  0  0  0  0
    0.6783   -1.9510    0.0000 C   0  0  1  0  0  0  0  0  0  0  0  0
    1.1631   -2.6184    0.0000 C   0  0  0  0  0  0  0  0  0  0  0  0
   -0.4487    0.5559    0.0000 C   0  0  0  0  0  0  0  0  0  0  0  0
    0.9802    0.5559    0.0000 C   0  0  0  0  0  0  0  0  0  0  0  0
    0.9802    1.3809    0.0000 C   0  0  0  0  0  0  0  0  0  0  0  0
    0.2658    1.7934    0.0000 C   0  0  0  0  0  0  0  0  0  0  0  0
   -0.8916    1.6367    0.0000 H   0  0  0  0  0  0  0  0  0  0  0  0
   -1.5963   -2.5169    0.0000 H   0  0  0  0  0  0  0  0  0  0  0  0
   -1.2034   -1.7836    0.0000 H   0  0  0  0  0  0  0  0  0  0  0  0
    1.2192   -0.1957    0.0000 H   0  0  0  0  0  0  0  0  0  0  0  0
   -1.4192   -0.8358    0.0000 H   0  0  0  0  0  0  0  0  0  0  0  0
   -0.5690   -0.1096    0.0000 H   0  0  0  0  0  0  0  0  0  0  0  0
    1.7351   -1.7836    0.0000 H   0  0  0  0  0  0  0  0  0  0  0  0
    0.7278   -3.5959    0.0000 H   0  0  0  0  0  0  0  0  0  0  0  0
    2.2272   -2.5067    0.0000 H   0  0  0  0  0  0  0  0  0  0  0  0
    1.7920   -3.4841    0.0000 H   0  0  0  0  0  0  0  0  0  0  0  0
    1.8739    0.0399    0.0000 H   0  0  0  0  0  0  0  0  0  0  0  0
    1.8739    1.8969    0.0000 H   0  0  0  0  0  0  0  0  0  0  0  0
  1  8  1  0  0  0  0
  1 10  1  0  0  0  0
  2 17  1  0  0  0  0
  3 12  2  0  0  0  0
  4 15  2  0  0  0  0
  5 12  1  0  0  0  0
  5 13  1  0  0  0  0
  6 12  1  0  0  0  0
  6 15  1  0  0  0  0
  6 16  1  0  0  0  0
  7  2  1  0  0  0  0
  7  9  1  0  0  0  0
  7 10  1  0  0  0  0
  7 18  1  6  0  0  0
  8  5  1  0  0  0  0
  8  9  1  0  0  0  0
  8 19  1  1  0  0  0
  9 20  1  0  0  0  0
  9 21  1  0  0  0  0
 10 11  1  0  0  0  0
 10 22  1  1  0  0  0
 11 23  1  0  0  0  0
 11 24  1  0  0  0  0
 11 25  1  0  0  0  0
 13 14  2  0  0  0  0
 13 26  1  0  0  0  0
 14 15  1  0  0  0  0
 14 27  1  0  0  0  0
M  END
>  <DRUGBANK_ID>
DB03274

>  <SECONDARY_ACCESSION_NUMBERS>
EXPT01151

>  <COMMON_NAME>
2',5'-Dideoxyuridine

>  <CAS_NUMBER>
35959-50-3

$$$$
