QUA
 OpenBabel10282417072D

 30 31  0  0  0  0  0  0  0  0999 V2000
   -2.0230    1.1238    0.0000 O   0  0  0  0  0  0  0  0  0  0  0  0
   -1.3085    1.5363    0.0000 C   0  0  0  0  0  0  0  0  0  0  0  0
   -0.5941    1.1238    0.0000 C   0  0  0  0  0  0  0  0  0  0  0  0
    0.1204    1.5363    0.0000 N   0  0  0  0  0  0  0  0  0  0  0  0
   -0.5941    0.2988    0.0000 C   0  0  0  0  0  0  0  0  0  0  0  0
    0.8349    1.1238    0.0000 C   0  0  0  0  0  0  0  0  0  0  0  0
    0.1204   -0.1137    0.0000 C   0  0  0  0  0  0  0  0  0  0  0  0
    1.5493    1.5363    0.0000 C   0  0  1  0  0  0  0  0  0  0  0  0
    0.8349    0.2988    0.0000 C   0  0  0  0  0  0  0  0  0  0  0  0
    1.5493    2.3613    0.0000 O   0  0  0  0  0  0  0  0  0  0  0  0
    2.2638    1.1238    0.0000 C   0  0  0  0  0  0  0  0  0  0  0  0
    0.1204   -0.9387    0.0000 C   0  0  1  0  0  0  0  0  0  0  0  0
    0.8349   -1.3512    0.0000 O   0  0  0  0  0  0  0  0  0  0  0  0
    1.5493   -0.1137    0.0000 C   0  0  0  0  0  0  0  0  0  0  0  0
   -0.5941   -1.3512    0.0000 C   0  0  0  0  0  0  0  0  0  0  0  0
    2.2638    0.2988    0.0000 C   0  0  0  0  0  0  0  0  0  0  0  0
   -1.3085    2.3613    0.0000 O   0  0  0  0  0  0  0  0  0  0  0  0
    1.0436    1.8282    0.0000 H   0  0  0  0  0  0  0  0  0  0  0  0
    0.6261   -0.6468    0.0000 H   0  0  0  0  0  0  0  0  0  0  0  0
   -1.4878   -0.2172    0.0000 H   0  0  0  0  0  0  0  0  0  0  0  0
    2.3893    2.8463    0.0000 H   0  0  0  0  0  0  0  0  0  0  0  0
    3.1904    1.6588    0.0000 H   0  0  0  0  0  0  0  0  0  0  0  0
    3.1904    0.5888    0.0000 H   0  0  0  0  0  0  0  0  0  0  0  0
    0.8349   -2.3212    0.0000 H   0  0  0  0  0  0  0  0  0  0  0  0
    1.5493   -1.1457    0.0000 H   0  0  0  0  0  0  0  0  0  0  0  0
   -1.5207   -0.8162    0.0000 H   0  0  0  0  0  0  0  0  0  0  0  0
   -0.5941   -2.4212    0.0000 H   0  0  0  0  0  0  0  0  0  0  0  0
   -1.5208   -1.8862    0.0000 H   0  0  0  0  0  0  0  0  0  0  0  0
    3.1575   -0.2172    0.0000 H   0  0  0  0  0  0  0  0  0  0  0  0
   -0.4970    2.8298    0.0000 H   0  0  0  0  0  0  0  0  0  0  0  0
  1  2  2  0  0  0  0
  2  3  1  0  0  0  0
  2 17  1  0  0  0  0
  3  4  2  0  0  0  0
  3  5  1  0  0  0  0
  4  6  1  0  0  0  0
  5  7  2  0  0  0  0
  5 20  1  0  0  0  0
  6  8  1  0  0  0  0
  6  9  2  0  0  0  0
  7  9  1  0  0  0  0
  7 12  1  0  0  0  0
  8 10  1  0  0  0  0
  8 11  1  0  0  0  0
  8 18  1  6  0  0  0
  9 14  1  0  0  0  0
 10 21  1  0  0  0  0
 11 16  1  0  0  0  0
 11 22  1  0  0  0  0
 11 23  1  0  0  0  0
 12 13  1  0  0  0  0
 12 15  1  0  0  0  0
 12 19  1  6  0  0  0
 13 24  1  0  0  0  0
 14 16  2  0  0  0  0
 14 25  1  0  0  0  0
 15 26  1  0  0  0  0
 15 27  1  0  0  0  0
 15 28  1  0  0  0  0
 16 29  1  0  0  0  0
 17 30  1  0  0  0  0
M  END
>  <DRUGBANK_ID>
DB02566

>  <SECONDARY_ACCESSION_NUMBERS>
EXPT02731

>  <COMMON_NAME>
8-Hydroxy-4-(1-Hydroxyethyl)Quinoline-2-Carboxylic Acid

$$$$
