M77
 OpenBabel10282417072D

 37 39  0  0  0  0  0  0  0  0999 V2000
   -1.2660   -0.1843    0.0000 O   0  0  0  0  0  0  0  0  0  0  0  0
   -0.4410   -0.1843    0.0000 S   0  0  0  0  0  0  0  0  0  0  0  0
    0.3840   -0.1843    0.0000 O   0  0  0  0  0  0  0  0  0  0  0  0
   -0.4410    0.6407    0.0000 N   0  0  0  0  0  0  0  0  0  0  0  0
   -1.1843    0.9987    0.0000 C   0  0  0  0  0  0  0  0  0  0  0  0
   -1.3679    1.8030    0.0000 C   0  0  0  0  0  0  0  0  0  0  0  0
   -0.8535    2.4480    0.0000 N   0  0  0  0  0  0  0  0  0  0  0  0
   -0.0285    2.4480    0.0000 C   0  0  0  0  0  0  0  0  0  0  0  0
    0.4859    1.8030    0.0000 C   0  0  0  0  0  0  0  0  0  0  0  0
    0.3023    0.9987    0.0000 C   0  0  0  0  0  0  0  0  0  0  0  0
   -0.4410   -1.0093    0.0000 C   0  0  0  0  0  0  0  0  0  0  0  0
   -1.1554   -1.4218    0.0000 C   0  0  0  0  0  0  0  0  0  0  0  0
   -1.1554   -2.2468    0.0000 C   0  0  0  0  0  0  0  0  0  0  0  0
   -0.4410   -2.6593    0.0000 C   0  0  0  0  0  0  0  0  0  0  0  0
    0.2735   -2.2468    0.0000 C   0  0  0  0  0  0  0  0  0  0  0  0
    0.2735   -1.4218    0.0000 C   0  0  0  0  0  0  0  0  0  0  0  0
    0.9880   -1.0093    0.0000 C   0  0  0  0  0  0  0  0  0  0  0  0
    0.9880   -2.6593    0.0000 C   0  0  0  0  0  0  0  0  0  0  0  0
    1.7024   -2.2468    0.0000 N   0  0  0  0  0  0  0  0  0  0  0  0
    1.7024   -1.4218    0.0000 C   0  0  0  0  0  0  0  0  0  0  0  0
   -2.0209    0.3316    0.0000 H   0  0  0  0  0  0  0  0  0  0  0  0
   -2.1943    1.3521    0.0000 H   0  0  0  0  0  0  0  0  0  0  0  0
   -2.4111    2.0411    0.0000 H   0  0  0  0  0  0  0  0  0  0  0  0
   -1.7213    2.8130    0.0000 H   0  0  0  0  0  0  0  0  0  0  0  0
   -1.2960    3.3670    0.0000 H   0  0  0  0  0  0  0  0  0  0  0  0
    0.4357    3.4120    0.0000 H   0  0  0  0  0  0  0  0  0  0  0  0
    1.0348    2.5678    0.0000 H   0  0  0  0  0  0  0  0  0  0  0  0
    1.5291    2.0411    0.0000 H   0  0  0  0  0  0  0  0  0  0  0  0
    1.2425    1.0464    0.0000 H   0  0  0  0  0  0  0  0  0  0  0  0
    1.1389    0.3316    0.0000 H   0  0  0  0  0  0  0  0  0  0  0  0
    1.3123    1.3521    0.0000 H   0  0  0  0  0  0  0  0  0  0  0  0
   -2.0491   -0.9058    0.0000 H   0  0  0  0  0  0  0  0  0  0  0  0
   -2.0491   -2.7628    0.0000 H   0  0  0  0  0  0  0  0  0  0  0  0
   -0.4410   -3.6913    0.0000 H   0  0  0  0  0  0  0  0  0  0  0  0
    0.9880    0.0227    0.0000 H   0  0  0  0  0  0  0  0  0  0  0  0
    0.9880   -3.6913    0.0000 H   0  0  0  0  0  0  0  0  0  0  0  0
    2.5961   -0.9058    0.0000 H   0  0  0  0  0  0  0  0  0  0  0  0
  1  2  2  0  0  0  0
  2  3  2  0  0  0  0
  2  4  1  0  0  0  0
  2 11  1  0  0  0  0
  4  5  1  0  0  0  0
  4 10  1  0  0  0  0
  5  6  1  0  0  0  0
  5 21  1  0  0  0  0
  5 22  1  0  0  0  0
  6  7  1  0  0  0  0
  6 23  1  0  0  0  0
  6 24  1  0  0  0  0
  7  8  1  0  0  0  0
  7 25  1  0  0  0  0
  8  9  1  0  0  0  0
  8 26  1  0  0  0  0
  8 27  1  0  0  0  0
  9 10  1  0  0  0  0
  9 28  1  0  0  0  0
  9 29  1  0  0  0  0
 10 30  1  0  0  0  0
 10 31  1  0  0  0  0
 11 12  2  0  0  0  0
 11 16  1  0  0  0  0
 12 13  1  0  0  0  0
 12 32  1  0  0  0  0
 13 14  2  0  0  0  0
 13 33  1  0  0  0  0
 14 15  1  0  0  0  0
 14 34  1  0  0  0  0
 15 16  2  0  0  0  0
 15 18  1  0  0  0  0
 16 17  1  0  0  0  0
 17 20  2  0  0  0  0
 17 35  1  0  0  0  0
 18 19  2  0  0  0  0
 18 36  1  0  0  0  0
 19 20  1  0  0  0  0
 20 37  1  0  0  0  0
M  END
>  <DRUGBANK_ID>
DB08162

>  <SECONDARY_ACCESSION_NUMBERS>
DB12469

>  <COMMON_NAME>
Fasudil

>  <CAS_NUMBER>
103745-39-7

>  <UNII>
Q0CH43PGXS

>  <SYNONYMS>
Fasudil

$$$$
