51-83-2
 OpenBabel10282417072D

 25 24  0  0  0  0  0  0  0  0999 V2000
    0.6554   -0.6098    0.0000 C   0  0  0  0  0  0  0  0  0  0  0  0
    1.3699   -0.1973    0.0000 N   0  3  0  0  0  0  0  0  0  0  0  0
    2.0845    0.2151    0.0000 C   0  0  0  0  0  0  0  0  0  0  0  0
    0.9574    0.5171    0.0000 C   0  0  0  0  0  0  0  0  0  0  0  0
    1.7824   -0.9119    0.0000 C   0  0  0  0  0  0  0  0  0  0  0  0
   -0.0590   -0.1973    0.0000 C   0  0  0  0  0  0  0  0  0  0  0  0
   -0.7736   -0.6098    0.0000 O   0  0  0  0  0  0  0  0  0  0  0  0
   -1.4880   -0.1973    0.0000 C   0  0  0  0  0  0  0  0  0  0  0  0
   -2.2026   -0.6098    0.0000 N   0  0  0  0  0  0  0  0  0  0  0  0
   -1.4880    0.6276    0.0000 O   0  0  0  0  0  0  0  0  0  0  0  0
    0.6554   -1.6798    0.0000 H   0  0  0  0  0  0  0  0  0  0  0  0
   -0.2713   -1.1448    0.0000 H   0  0  0  0  0  0  0  0  0  0  0  0
    3.0110   -0.3201    0.0000 H   0  0  0  0  0  0  0  0  0  0  0  0
    2.0847    1.2851    0.0000 H   0  0  0  0  0  0  0  0  0  0  0  0
    3.0112    0.7499    0.0000 H   0  0  0  0  0  0  0  0  0  0  0  0
    1.4924    1.4438    0.0000 H   0  0  0  0  0  0  0  0  0  0  0  0
   -0.1126    0.5171    0.0000 H   0  0  0  0  0  0  0  0  0  0  0  0
    0.4224    1.4437    0.0000 H   0  0  0  0  0  0  0  0  0  0  0  0
    1.2473   -1.8385    0.0000 H   0  0  0  0  0  0  0  0  0  0  0  0
    2.8524   -0.9120    0.0000 H   0  0  0  0  0  0  0  0  0  0  0  0
    2.3173   -1.8386    0.0000 H   0  0  0  0  0  0  0  0  0  0  0  0
   -0.0589    0.8727    0.0000 H   0  0  0  0  0  0  0  0  0  0  0  0
   -0.9856    0.3378    0.0000 H   0  0  0  0  0  0  0  0  0  0  0  0
   -3.0552   -0.1175    0.0000 H   0  0  0  0  0  0  0  0  0  0  0  0
   -2.2027   -1.5943    0.0000 H   0  0  0  0  0  0  0  0  0  0  0  0
  1  2  1  0  0  0  0
  1  6  1  0  0  0  0
  1 11  1  0  0  0  0
  1 12  1  0  0  0  0
  2  3  1  0  0  0  0
  2  4  1  0  0  0  0
  2  5  1  0  0  0  0
  3 13  1  0  0  0  0
  3 14  1  0  0  0  0
  3 15  1  0  0  0  0
  4 16  1  0  0  0  0
  4 17  1  0  0  0  0
  4 18  1  0  0  0  0
  5 19  1  0  0  0  0
  5 20  1  0  0  0  0
  5 21  1  0  0  0  0
  6  7  1  0  0  0  0
  6 22  1  0  0  0  0
  6 23  1  0  0  0  0
  7  8  1  0  0  0  0
  8  9  1  0  0  0  0
  8 10  2  0  0  0  0
  9 24  1  0  0  0  0
  9 25  1  0  0  0  0
M  CHG  1   2   1
M  END
>  <DRUGBANK_ID>
DB00411

>  <SECONDARY_ACCESSION_NUMBERS>
APRD00845; DB02487

>  <COMMON_NAME>
Carbamoylcholine

>  <CAS_NUMBER>
462-58-8

>  <UNII>
54Z8M50D6Q

>  <SYNONYMS>
Carbacholine; carbacol; Carbamylcholine; Choline carbamate

$$$$
