
 OpenBabel10282417072D

101102  0  0  1  0  0  0  0  0999 V2000
   -6.4302   -2.0625    0.0000 C   0  0  0  0  0  0  0  0  0  0  0  0
   -5.7158   -1.6500    0.0000 C   0  0  0  0  0  0  0  0  0  0  0  0
   -5.0013   -2.0625    0.0000 C   0  0  0  0  0  0  0  0  0  0  0  0
   -5.7158   -0.8250    0.0000 C   0  0  0  0  0  0  0  0  0  0  0  0
   -5.0013   -0.4125    0.0000 C   0  0  2  0  0  0  0  0  0  0  0  0
   -4.2868   -0.8250    0.0000 C   0  0  0  0  0  0  0  0  0  0  0  0
   -4.2868   -1.6500    0.0000 O   0  0  0  0  0  0  0  0  0  0  0  0
   -3.5724   -0.4125    0.0000 N   0  0  0  0  0  0  0  0  0  0  0  0
   -5.0013    0.4125    0.0000 N   0  0  0  0  0  0  0  0  0  0  0  0
   -4.2868    0.8250    0.0000 C   0  0  0  0  0  0  0  0  0  0  0  0
   -3.5724    0.4125    0.0000 O   0  0  0  0  0  0  0  0  0  0  0  0
   -4.2868    1.6500    0.0000 C   0  0  1  0  0  0  0  0  0  0  0  0
   -5.0013    2.0625    0.0000 C   0  0  0  0  0  0  0  0  0  0  0  0
   -5.7158    1.6500    0.0000 C   0  0  0  0  0  0  0  0  0  0  0  0
   -5.7158    0.8250    0.0000 C   0  0  0  0  0  0  0  0  0  0  0  0
   -6.4302    0.4125    0.0000 C   0  0  0  0  0  0  0  0  0  0  0  0
   -7.1447    0.8250    0.0000 C   0  0  0  0  0  0  0  0  0  0  0  0
   -7.1447    1.6500    0.0000 C   0  0  0  0  0  0  0  0  0  0  0  0
   -6.4302    2.0625    0.0000 C   0  0  0  0  0  0  0  0  0  0  0  0
   -3.5724    2.0625    0.0000 N   0  0  0  0  0  0  0  0  0  0  0  0
   -3.5724    2.8875    0.0000 C   0  0  0  0  0  0  0  0  0  0  0  0
   -4.2868    3.3000    0.0000 O   0  0  0  0  0  0  0  0  0  0  0  0
   -2.8579    3.3000    0.0000 C   0  0  1  0  0  0  0  0  0  0  0  0
   -2.8579    4.1250    0.0000 C   0  0  0  0  0  0  0  0  0  0  0  0
   -3.5724    4.5375    0.0000 C   0  0  0  0  0  0  0  0  0  0  0  0
   -4.2868    4.1250    0.0000 C   0  0  0  0  0  0  0  0  0  0  0  0
   -5.0013    4.5375    0.0000 C   0  0  0  0  0  0  0  0  0  0  0  0
   -5.0013    5.3625    0.0000 C   0  0  0  0  0  0  0  0  0  0  0  0
   -4.2868    5.7750    0.0000 C   0  0  0  0  0  0  0  0  0  0  0  0
   -3.5724    5.3625    0.0000 C   0  0  0  0  0  0  0  0  0  0  0  0
   -2.1434    2.8875    0.0000 N   0  0  0  0  0  0  0  0  0  0  0  0
   -2.1434    2.0625    0.0000 C   0  0  0  0  0  0  0  0  0  0  0  0
   -2.8579    1.6500    0.0000 O   0  0  0  0  0  0  0  0  0  0  0  0
   -1.4289    1.6500    0.0000 C   0  0  1  0  0  0  0  0  0  0  0  0
   -0.7145    2.0625    0.0000 C   0  0  0  0  0  0  0  0  0  0  0  0
    0.0000    1.6500    0.0000 C   0  0  0  0  0  0  0  0  0  0  0  0
   -0.7145    2.8875    0.0000 C   0  0  0  0  0  0  0  0  0  0  0  0
   -1.4289    0.8250    0.0000 N   0  0  0  0  0  0  0  0  0  0  0  0
   -0.7145    0.4125    0.0000 C   0  0  0  0  0  0  0  0  0  0  0  0
    0.0000    0.8250    0.0000 O   0  0  0  0  0  0  0  0  0  0  0  0
   -0.7145   -0.4125    0.0000 C   0  0  1  0  0  0  0  0  0  0  0  0
    0.0000   -0.8250    0.0000 C   0  0  0  0  0  0  0  0  0  0  0  0
    0.0000   -1.6500    0.0000 C   0  0  0  0  0  0  0  0  0  0  0  0
    0.7145   -2.0625    0.0000 C   0  0  0  0  0  0  0  0  0  0  0  0
   -0.7145   -2.0625    0.0000 C   0  0  0  0  0  0  0  0  0  0  0  0
   -1.4289   -0.8250    0.0000 N   0  0  0  0  0  0  0  0  0  0  0  0
   -2.1434   -0.4125    0.0000 C   0  0  0  0  0  0  0  0  0  0  0  0
   -7.3569   -1.5275    0.0000 H   0  0  0  0  0  0  0  0  0  0  0  0
   -6.4302   -3.1325    0.0000 H   0  0  0  0  0  0  0  0  0  0  0  0
   -7.3568   -2.5975    0.0000 H   0  0  0  0  0  0  0  0  0  0  0  0
   -4.7892   -1.1150    0.0000 H   0  0  0  0  0  0  0  0  0  0  0  0
   -5.0013   -3.1325    0.0000 H   0  0  0  0  0  0  0  0  0  0  0  0
   -4.0747   -1.5275    0.0000 H   0  0  0  0  0  0  0  0  0  0  0  0
   -4.0746   -2.5975    0.0000 H   0  0  0  0  0  0  0  0  0  0  0  0
   -6.6424   -0.2900    0.0000 H   0  0  0  0  0  0  0  0  0  0  0  0
   -5.7158    0.2450    0.0000 H   0  0  0  0  0  0  0  0  0  0  0  0
   -5.9279    0.1225    0.0000 H   0  0  0  0  0  0  0  0  0  0  0  0
   -2.7198   -0.9047    0.0000 H   0  0  0  0  0  0  0  0  0  0  0  0
   -3.5724    0.5720    0.0000 H   0  0  0  0  0  0  0  0  0  0  0  0
   -5.8539    0.9048    0.0000 H   0  0  0  0  0  0  0  0  0  0  0  0
   -3.3601    1.1150    0.0000 H   0  0  0  0  0  0  0  0  0  0  0  0
   -5.0013    3.1325    0.0000 H   0  0  0  0  0  0  0  0  0  0  0  0
   -5.9279    2.5975    0.0000 H   0  0  0  0  0  0  0  0  0  0  0  0
   -4.8221    0.3090    0.0000 H   0  0  0  0  0  0  0  0  0  0  0  0
   -6.4302   -0.6195    0.0000 H   0  0  0  0  0  0  0  0  0  0  0  0
   -8.0384    0.3090    0.0000 H   0  0  0  0  0  0  0  0  0  0  0  0
   -8.0384    2.1660    0.0000 H   0  0  0  0  0  0  0  0  0  0  0  0
   -6.4302    3.0945    0.0000 H   0  0  0  0  0  0  0  0  0  0  0  0
   -2.7198    1.5703    0.0000 H   0  0  0  0  0  0  0  0  0  0  0  0
   -2.8579    2.2300    0.0000 H   0  0  0  0  0  0  0  0  0  0  0  0
   -1.9313    4.6600    0.0000 H   0  0  0  0  0  0  0  0  0  0  0  0
   -2.8579    5.1950    0.0000 H   0  0  0  0  0  0  0  0  0  0  0  0
   -4.2868    3.0930    0.0000 H   0  0  0  0  0  0  0  0  0  0  0  0
   -5.8950    4.0215    0.0000 H   0  0  0  0  0  0  0  0  0  0  0  0
   -5.8950    5.8785    0.0000 H   0  0  0  0  0  0  0  0  0  0  0  0
   -4.2868    6.8070    0.0000 H   0  0  0  0  0  0  0  0  0  0  0  0
   -2.6787    5.8785    0.0000 H   0  0  0  0  0  0  0  0  0  0  0  0
   -1.2908    3.3798    0.0000 H   0  0  0  0  0  0  0  0  0  0  0  0
   -2.3555    1.1150    0.0000 H   0  0  0  0  0  0  0  0  0  0  0  0
    0.2121    2.5975    0.0000 H   0  0  0  0  0  0  0  0  0  0  0  0
    0.0000    0.5800    0.0000 H   0  0  0  0  0  0  0  0  0  0  0  0
    0.9266    2.1850    0.0000 H   0  0  0  0  0  0  0  0  0  0  0  0
    0.9267    1.1150    0.0000 H   0  0  0  0  0  0  0  0  0  0  0  0
    0.2121    3.4225    0.0000 H   0  0  0  0  0  0  0  0  0  0  0  0
   -1.6411    3.4225    0.0000 H   0  0  0  0  0  0  0  0  0  0  0  0
   -0.7145    3.9575    0.0000 H   0  0  0  0  0  0  0  0  0  0  0  0
   -2.2815    0.3328    0.0000 H   0  0  0  0  0  0  0  0  0  0  0  0
   -1.6412    0.1225    0.0000 H   0  0  0  0  0  0  0  0  0  0  0  0
    0.9266   -0.2900    0.0000 H   0  0  0  0  0  0  0  0  0  0  0  0
    0.9266   -1.3600    0.0000 H   0  0  0  0  0  0  0  0  0  0  0  0
    0.0000   -2.7200    0.0000 H   0  0  0  0  0  0  0  0  0  0  0  0
    0.7145   -3.1325    0.0000 H   0  0  0  0  0  0  0  0  0  0  0  0
    1.6411   -1.5275    0.0000 H   0  0  0  0  0  0  0  0  0  0  0  0
    1.6412   -2.5975    0.0000 H   0  0  0  0  0  0  0  0  0  0  0  0
   -1.6411   -1.5275    0.0000 H   0  0  0  0  0  0  0  0  0  0  0  0
   -0.7145   -3.1325    0.0000 H   0  0  0  0  0  0  0  0  0  0  0  0
   -1.6412   -2.5975    0.0000 H   0  0  0  0  0  0  0  0  0  0  0  0
   -1.4289   -1.8450    0.0000 H   0  0  0  0  0  0  0  0  0  0  0  0
   -2.1434    0.6575    0.0000 H   0  0  0  0  0  0  0  0  0  0  0  0
   -3.0700   -0.9475    0.0000 H   0  0  0  0  0  0  0  0  0  0  0  0
   -3.0701    0.1225    0.0000 H   0  0  0  0  0  0  0  0  0  0  0  0
  1  2  1  0  0  0  0
  1 48  1  0  0  0  0
  1 49  1  0  0  0  0
  1 50  1  0  0  0  0
  2  3  1  0  0  0  0
  2  4  1  0  0  0  0
  2 51  1  0  0  0  0
  3 52  1  0  0  0  0
  3 53  1  0  0  0  0
  3 54  1  0  0  0  0
  4  5  1  0  0  0  0
  4 55  1  0  0  0  0
  4 56  1  0  0  0  0
  5  6  1  0  0  0  0
  5  9  1  0  0  0  0
  5 57  1  6  0  0  0
  6  7  2  0  0  0  0
  6  8  1  0  0  0  0
  8 58  1  0  0  0  0
  8 59  1  0  0  0  0
  9 10  1  0  0  0  0
  9 60  1  0  0  0  0
 10 11  2  0  0  0  0
 10 12  1  0  0  0  0
 12 13  1  0  0  0  0
 12 20  1  0  0  0  0
 12 61  1  6  0  0  0
 13 14  1  0  0  0  0
 13 62  1  0  0  0  0
 13 63  1  0  0  0  0
 14 15  2  0  0  0  0
 14 19  1  0  0  0  0
 15 16  1  0  0  0  0
 15 64  1  0  0  0  0
 16 17  2  0  0  0  0
 16 65  1  0  0  0  0
 17 18  1  0  0  0  0
 17 66  1  0  0  0  0
 18 19  2  0  0  0  0
 18 67  1  0  0  0  0
 19 68  1  0  0  0  0
 20 21  1  0  0  0  0
 20 69  1  0  0  0  0
 21 22  2  0  0  0  0
 21 23  1  0  0  0  0
 23 24  1  0  0  0  0
 23 31  1  0  0  0  0
 23 70  1  6  0  0  0
 24 25  1  0  0  0  0
 24 71  1  0  0  0  0
 24 72  1  0  0  0  0
 25 26  2  0  0  0  0
 25 30  1  0  0  0  0
 26 27  1  0  0  0  0
 26 73  1  0  0  0  0
 27 28  2  0  0  0  0
 27 74  1  0  0  0  0
 28 29  1  0  0  0  0
 28 75  1  0  0  0  0
 29 30  2  0  0  0  0
 29 76  1  0  0  0  0
 30 77  1  0  0  0  0
 31 32  1  0  0  0  0
 31 78  1  0  0  0  0
 32 33  2  0  0  0  0
 32 34  1  0  0  0  0
 34 35  1  0  0  0  0
 34 38  1  0  0  0  0
 34 79  1  6  0  0  0
 35 36  1  0  0  0  0
 35 37  1  0  0  0  0
 35 80  1  0  0  0  0
 36 81  1  0  0  0  0
 36 82  1  0  0  0  0
 36 83  1  0  0  0  0
 37 84  1  0  0  0  0
 37 85  1  0  0  0  0
 37 86  1  0  0  0  0
 38 39  1  0  0  0  0
 38 87  1  0  0  0  0
 39 40  2  0  0  0  0
 39 41  1  0  0  0  0
 41 42  1  0  0  0  0
 41 46  1  0  0  0  0
 41 88  1  6  0  0  0
 42 43  1  0  0  0  0
 42 89  1  0  0  0  0
 42 90  1  0  0  0  0
 43 44  1  0  0  0  0
 43 45  1  0  0  0  0
 43 91  1  0  0  0  0
 44 92  1  0  0  0  0
 44 93  1  0  0  0  0
 44 94  1  0  0  0  0
 45 95  1  0  0  0  0
 45 96  1  0  0  0  0
 45 97  1  0  0  0  0
 46 47  1  0  0  0  0
 46 98  1  0  0  0  0
 47 99  1  0  0  0  0
 47100  1  0  0  0  0
 47101  1  0  0  0  0
M  END
>  <DRUGBANK_ID>
DB05832

>  <COMMON_NAME>
PPI-1019

>  <CAS_NUMBER>
290828-45-4

>  <UNII>
2F25P9Y22O

$$$$
