122
 OpenBabel10282417072D

 21 20  0  0  0  0  0  0  0  0999 V2000
    4.5080    0.4125    0.0000 O   0  0  0  0  0  0  0  0  0  0  0  0
    2.3645    0.0000    0.0000 N   0  3  0  0  0  0  0  0  0  0  0  0
    3.0791    0.4125    0.0000 C   0  0  0  0  0  0  0  0  0  0  0  0
    1.6501   -0.4125    0.0000 C   0  0  0  0  0  0  0  0  0  0  0  0
    1.9520    0.7145    0.0000 C   0  0  0  0  0  0  0  0  0  0  0  0
    2.7770   -0.7145    0.0000 C   0  0  0  0  0  0  0  0  0  0  0  0
    3.7936    0.0000    0.0000 C   0  0  0  0  0  0  0  0  0  0  0  0
    5.3481   -0.0725    0.0000 H   0  0  0  0  0  0  0  0  0  0  0  0
    3.0791    1.4825    0.0000 H   0  0  0  0  0  0  0  0  0  0  0  0
    4.0058    0.9475    0.0000 H   0  0  0  0  0  0  0  0  0  0  0  0
    0.7234    0.1225    0.0000 H   0  0  0  0  0  0  0  0  0  0  0  0
    1.6501   -1.4825    0.0000 H   0  0  0  0  0  0  0  0  0  0  0  0
    0.7235   -0.9475    0.0000 H   0  0  0  0  0  0  0  0  0  0  0  0
    2.4870    1.6411    0.0000 H   0  0  0  0  0  0  0  0  0  0  0  0
    0.8820    0.7145    0.0000 H   0  0  0  0  0  0  0  0  0  0  0  0
    1.4170    1.6412    0.0000 H   0  0  0  0  0  0  0  0  0  0  0  0
    2.2420   -1.6411    0.0000 H   0  0  0  0  0  0  0  0  0  0  0  0
    3.8470   -0.7145    0.0000 H   0  0  0  0  0  0  0  0  0  0  0  0
    3.3120   -1.6412    0.0000 H   0  0  0  0  0  0  0  0  0  0  0  0
    3.7936   -1.0700    0.0000 H   0  0  0  0  0  0  0  0  0  0  0  0
    2.8670   -0.5350    0.0000 H   0  0  0  0  0  0  0  0  0  0  0  0
  1  7  1  0  0  0  0
  1  8  1  0  0  0  0
  2  3  1  0  0  0  0
  2  4  1  0  0  0  0
  2  5  1  0  0  0  0
  2  6  1  0  0  0  0
  3  7  1  0  0  0  0
  3  9  1  0  0  0  0
  3 10  1  0  0  0  0
  4 11  1  0  0  0  0
  4 12  1  0  0  0  0
  4 13  1  0  0  0  0
  5 14  1  0  0  0  0
  5 15  1  0  0  0  0
  5 16  1  0  0  0  0
  6 17  1  0  0  0  0
  6 18  1  0  0  0  0
  6 19  1  0  0  0  0
  7 20  1  0  0  0  0
  7 21  1  0  0  0  0
M  CHG  1   2   1
M  END
>  <DRUGBANK_ID>
DB00122

>  <SECONDARY_ACCESSION_NUMBERS>
NUTR00020

>  <COMMON_NAME>
Choline

>  <CAS_NUMBER>
62-49-7

>  <UNII>
N91BDP6H0X

>  <SYNONYMS>
Bilineurine; Choline ion; N-trimethylethanolamine; N,N,N-trimethylethanol-ammonium; trimethylethanolamine; Vitamin J

$$$$
