239
 OpenBabel10282417072D

 42 44  0  0  0  0  0  0  0  0999 V2000
   -4.6514    0.8799    0.0000 N   0  0  0  0  0  0  0  0  0  0  0  0
   -3.9369    1.2924    0.0000 C   0  0  0  0  0  0  0  0  0  0  0  0
   -3.9369    2.1174    0.0000 N   0  0  0  0  0  0  0  0  0  0  0  0
   -3.2224    0.8799    0.0000 C   0  0  0  0  0  0  0  0  0  0  0  0
   -2.5080    1.2924    0.0000 C   0  0  0  0  0  0  0  0  0  0  0  0
   -1.7935    0.8799    0.0000 C   0  0  0  0  0  0  0  0  0  0  0  0
   -1.0790    1.2924    0.0000 C   0  0  0  0  0  0  0  0  0  0  0  0
   -0.3646    0.8799    0.0000 C   0  0  0  0  0  0  0  0  0  0  0  0
   -0.3646    0.0549    0.0000 C   0  0  0  0  0  0  0  0  0  0  0  0
   -1.0790   -0.3576    0.0000 C   0  0  0  0  0  0  0  0  0  0  0  0
   -1.7935    0.0549    0.0000 C   0  0  0  0  0  0  0  0  0  0  0  0
   -2.5080   -0.3576    0.0000 C   0  0  0  0  0  0  0  0  0  0  0  0
   -3.2224    0.0549    0.0000 C   0  0  0  0  0  0  0  0  0  0  0  0
    0.3499   -0.3576    0.0000 C   0  0  0  0  0  0  0  0  0  0  0  0
    0.3499   -1.1826    0.0000 O   0  0  0  0  0  0  0  0  0  0  0  0
    1.0644    0.0549    0.0000 N   0  0  0  0  0  0  0  0  0  0  0  0
    1.7789   -0.3576    0.0000 C   0  0  0  0  0  0  0  0  0  0  0  0
    2.4933    0.0549    0.0000 C   0  0  0  0  0  0  0  0  0  0  0  0
    3.2078   -0.3576    0.0000 C   0  0  0  0  0  0  0  0  0  0  0  0
    3.2078   -1.1826    0.0000 C   0  0  0  0  0  0  0  0  0  0  0  0
    2.4933   -1.5951    0.0000 C   0  0  0  0  0  0  0  0  0  0  0  0
    1.7789   -1.1826    0.0000 C   0  0  0  0  0  0  0  0  0  0  0  0
    3.9223   -1.5951    0.0000 C   0  0  0  0  0  0  0  0  0  0  0  0
    4.6367   -1.1826    0.0000 N   0  0  0  0  0  0  0  0  0  0  0  0
   -5.5040    1.3722    0.0000 H   0  0  0  0  0  0  0  0  0  0  0  0
   -3.0843    2.6097    0.0000 H   0  0  0  0  0  0  0  0  0  0  0  0
   -4.7895    2.6096    0.0000 H   0  0  0  0  0  0  0  0  0  0  0  0
   -2.5080    2.3244    0.0000 H   0  0  0  0  0  0  0  0  0  0  0  0
   -1.0790    2.3244    0.0000 H   0  0  0  0  0  0  0  0  0  0  0  0
    0.5291    1.3959    0.0000 H   0  0  0  0  0  0  0  0  0  0  0  0
   -1.0790   -1.3896    0.0000 H   0  0  0  0  0  0  0  0  0  0  0  0
   -2.5080   -1.3896    0.0000 H   0  0  0  0  0  0  0  0  0  0  0  0
   -4.1161   -0.4611    0.0000 H   0  0  0  0  0  0  0  0  0  0  0  0
    1.0644    1.0394    0.0000 H   0  0  0  0  0  0  0  0  0  0  0  0
    2.4933    1.0869    0.0000 H   0  0  0  0  0  0  0  0  0  0  0  0
    4.1015    0.1584    0.0000 H   0  0  0  0  0  0  0  0  0  0  0  0
    2.4933   -2.6271    0.0000 H   0  0  0  0  0  0  0  0  0  0  0  0
    0.8852   -1.6986    0.0000 H   0  0  0  0  0  0  0  0  0  0  0  0
    3.9223   -2.6651    0.0000 H   0  0  0  0  0  0  0  0  0  0  0  0
    4.8490   -2.1301    0.0000 H   0  0  0  0  0  0  0  0  0  0  0  0
    5.5201   -1.6926    0.0000 H   0  0  0  0  0  0  0  0  0  0  0  0
    4.6367   -0.1626    0.0000 H   0  0  0  0  0  0  0  0  0  0  0  0
  1  2  2  0  0  0  0
  1 25  1  0  0  0  0
  2  3  1  0  0  0  0
  2  4  1  0  0  0  0
  3 26  1  0  0  0  0
  3 27  1  0  0  0  0
  4  5  2  0  0  0  0
  4 13  1  0  0  0  0
  5  6  1  0  0  0  0
  5 28  1  0  0  0  0
  6  7  2  0  0  0  0
  6 11  1  0  0  0  0
  7  8  1  0  0  0  0
  7 29  1  0  0  0  0
  8  9  2  0  0  0  0
  8 30  1  0  0  0  0
  9 10  1  0  0  0  0
  9 14  1  0  0  0  0
 10 11  2  0  0  0  0
 10 31  1  0  0  0  0
 11 12  1  0  0  0  0
 12 13  2  0  0  0  0
 12 32  1  0  0  0  0
 13 33  1  0  0  0  0
 14 15  2  0  0  0  0
 14 16  1  0  0  0  0
 16 17  1  0  0  0  0
 16 34  1  0  0  0  0
 17 18  2  0  0  0  0
 17 22  1  0  0  0  0
 18 19  1  0  0  0  0
 18 35  1  0  0  0  0
 19 20  2  0  0  0  0
 19 36  1  0  0  0  0
 20 21  1  0  0  0  0
 20 23  1  0  0  0  0
 21 22  2  0  0  0  0
 21 37  1  0  0  0  0
 22 38  1  0  0  0  0
 23 24  1  0  0  0  0
 23 39  1  0  0  0  0
 23 40  1  0  0  0  0
 24 41  1  0  0  0  0
 24 42  1  0  0  0  0
M  END
>  <DRUGBANK_ID>
DB02398

>  <SECONDARY_ACCESSION_NUMBERS>
EXPT00091

>  <COMMON_NAME>
6-[N-(4-(Aminomethyl)Phenyl)Carbamyl]-2-Naphthalenecarboxamidine

$$$$
