
 OpenBabel10282417072D

145152  0  0  0  0  0  0  0  0999 V2000
   -0.0008    3.4493    0.0000 C   0  0  1  0  0  0  0  0  0  0  0  0
   -0.7093    3.8689    0.0000 C   0  0  2  0  0  0  0  0  0  0  0  0
   -0.0112    2.6309    0.0000 C   0  0  0  0  0  0  0  0  0  0  0  0
    0.7143    3.8482    0.0000 C   0  0  0  0  0  0  0  0  0  0  0  0
    0.7074    3.0367    0.0000 C   0  0  0  0  0  0  0  0  0  0  0  0
   -1.4246    3.4699    0.0000 C   0  0  0  0  0  0  0  0  0  0  0  0
   -0.6955    4.6907    0.0000 C   0  0  2  0  0  0  0  0  0  0  0  0
   -0.7265    2.2251    0.0000 C   0  0  0  0  0  0  0  0  0  0  0  0
    0.7281    4.6701    0.0000 C   0  0  0  0  0  0  0  0  0  0  0  0
    0.7074    2.2114    0.0000 O   0  0  0  0  0  0  0  0  0  0  0  0
    1.4262    3.4527    0.0000 O   0  0  0  0  0  0  0  0  0  0  0  0
   -1.4349    2.6480    0.0000 C   0  0  1  0  0  0  0  0  0  0  0  0
   -2.1363    3.8861    0.0000 C   0  0  0  0  0  0  0  0  0  0  0  0
    0.0197    5.0930    0.0000 C   0  0  1  0  0  0  0  0  0  0  0  0
   -1.4073    5.1171    0.0000 C   0  0  0  0  0  0  0  0  0  0  0  0
   -2.1501    2.2353    0.0000 C   0  0  1  0  0  0  0  0  0  0  0  0
   -1.4451    1.8228    0.0000 C   0  0  0  0  0  0  0  0  0  0  0  0
   -2.8550    3.4803    0.0000 C   0  0  0  0  0  0  0  0  0  0  0  0
    0.0334    5.9218    0.0000 C   0  0  0  0  0  0  0  0  0  0  0  0
   -2.8620    2.6549    0.0000 C   0  0  2  0  0  0  0  0  0  0  0  0
   -2.1501    1.4100    0.0000 C   0  0  0  0  0  0  0  0  0  0  0  0
   -2.1570    2.7789    0.0000 C   0  0  0  0  0  0  0  0  0  0  0  0
   -3.5807    2.2422    0.0000 C   0  0  2  0  0  0  0  0  0  0  0  0
   -2.8689    1.0009    0.0000 C   0  0  0  0  0  0  0  0  0  0  0  0
   -3.5841    1.4170    0.0000 C   0  0  1  0  0  0  0  0  0  0  0  0
   -4.2890    2.6584    0.0000 C   0  0  0  0  0  0  0  0  0  0  0  0
   -3.5876    3.0710    0.0000 C   0  0  0  0  0  0  0  0  0  0  0  0
   -4.2890    1.0043    0.0000 C   0  0  1  0  0  0  0  0  0  0  0  0
   -5.0077    2.2422    0.0000 C   0  0  2  0  0  0  0  0  0  0  0  0
   -5.0077    1.4170    0.0000 C   0  0  2  0  0  0  0  0  0  0  0  0
   -4.7222    0.2890    0.0000 C   0  0  0  0  0  0  0  0  0  0  0  0
   -3.7940    0.0827    0.0000 C   0  0  0  0  0  0  0  0  0  0  0  0
   -5.7264    1.0043    0.0000 O   0  0  0  0  0  0  0  0  0  0  0  0
   -0.7162    3.0469    0.0000 H   0  0  0  0  0  0  0  0  0  0  0  0
   -2.8689    1.8331    0.0000 H   0  0  0  0  0  0  0  0  0  0  0  0
   -3.5085    0.7188    0.0000 H   0  0  0  0  0  0  0  0  0  0  0  0
   -5.7267    2.6567    0.0000 O   0  0  0  0  0  0  0  0  0  0  0  0
   -5.6439    0.2944    0.0000 O   0  0  0  0  0  0  0  0  0  0  0  0
    2.1422    3.0404    0.0000 C   0  0  2  0  0  0  0  0  0  0  0  0
    2.1428    2.2023    0.0000 O   0  0  0  0  0  0  0  0  0  0  0  0
    2.8575    1.7905    0.0000 C   0  0  1  0  0  0  0  0  0  0  0  0
    3.5715    2.2034    0.0000 C   0  0  2  0  0  0  0  0  0  0  0  0
    3.5707    3.0415    0.0000 C   0  0  1  0  0  0  0  0  0  0  0  0
    2.8562    3.4534    0.0000 C   0  0  1  0  0  0  0  0  0  0  0  0
    2.8556    4.2640    0.0000 O   0  0  0  0  0  0  0  0  0  0  0  0
    4.2738    3.4480    0.0000 O   0  0  0  0  0  0  0  0  0  0  0  0
    4.2816    1.7941    0.0000 O   0  0  0  0  0  0  0  0  0  0  0  0
    2.8581    0.9649    0.0000 C   0  0  0  0  0  0  0  0  0  0  0  0
    3.5769    0.5507    0.0000 O   0  0  0  0  0  0  0  0  0  0  0  0
    3.5775   -0.2721    0.0000 C   0  0  1  0  0  0  0  0  0  0  0  0
    2.8539   -0.6907    0.0000 C   0  0  1  0  0  0  0  0  0  0  0  0
    2.8547   -1.5155    0.0000 C   0  0  2  0  0  0  0  0  0  0  0  0
    3.5693   -1.9273    0.0000 C   0  0  1  0  0  0  0  0  0  0  0  0
    4.2929   -1.5086    0.0000 C   0  0  2  0  0  0  0  0  0  0  0  0
    4.2922   -0.6838    0.0000 O   0  0  0  0  0  0  0  0  0  0  0  0
    2.1439   -0.2815    0.0000 O   0  0  0  0  0  0  0  0  0  0  0  0
    3.5700   -3.4476    0.0000 O   0  0  0  0  0  0  0  0  0  0  0  0
    5.0183   -1.9268    0.0000 C   0  0  0  0  0  0  0  0  0  0  0  0
    5.7267   -1.5170    0.0000 O   0  0  0  0  0  0  0  0  0  0  0  0
    2.8520   -3.8629    0.0000 C   0  0  1  0  0  0  0  0  0  0  0  0
    2.1449   -3.4553    0.0000 C   0  0  1  0  0  0  0  0  0  0  0  0
    1.4310   -3.8683    0.0000 C   0  0  1  0  0  0  0  0  0  0  0  0
    1.4316   -4.6931    0.0000 C   0  0  2  0  0  0  0  0  0  0  0  0
    2.1387   -5.1006    0.0000 C   0  0  1  0  0  0  0  0  0  0  0  0
    2.8527   -4.6878    0.0000 O   0  0  0  0  0  0  0  0  0  0  0  0
    2.1392   -5.9218    0.0000 C   0  0  0  0  0  0  0  0  0  0  0  0
    0.7128   -5.1088    0.0000 O   0  0  0  0  0  0  0  0  0  0  0  0
    0.7047   -3.4498    0.0000 O   0  0  0  0  0  0  0  0  0  0  0  0
    2.1441   -2.6230    0.0000 O   0  0  0  0  0  0  0  0  0  0  0  0
    2.1501   -1.9231    0.0000 O   0  0  0  0  0  0  0  0  0  0  0  0
    0.9100    2.0865    0.0000 H   0  0  0  0  0  0  0  0  0  0  0  0
   -0.0207    1.5609    0.0000 H   0  0  0  0  0  0  0  0  0  0  0  0
    1.6324    3.2986    0.0000 H   0  0  0  0  0  0  0  0  0  0  0  0
    1.6495    4.3680    0.0000 H   0  0  0  0  0  0  0  0  0  0  0  0
   -1.6308    4.1710    0.0000 H   0  0  0  0  0  0  0  0  0  0  0  0
   -0.7384    1.1552    0.0000 H   0  0  0  0  0  0  0  0  0  0  0  0
   -1.6599    1.7020    0.0000 H   0  0  0  0  0  0  0  0  0  0  0  0
    1.6630    5.1905    0.0000 H   0  0  0  0  0  0  0  0  0  0  0  0
    0.7443    5.7400    0.0000 H   0  0  0  0  0  0  0  0  0  0  0  0
   -2.1285    4.9181    0.0000 H   0  0  0  0  0  0  0  0  0  0  0  0
   -0.8994    5.6408    0.0000 H   0  0  0  0  0  0  0  0  0  0  0  0
   -1.3901    6.1870    0.0000 H   0  0  0  0  0  0  0  0  0  0  0  0
   -2.3424    4.5971    0.0000 H   0  0  0  0  0  0  0  0  0  0  0  0
   -2.3252    5.6670    0.0000 H   0  0  0  0  0  0  0  0  0  0  0  0
   -2.3783    1.2993    0.0000 H   0  0  0  0  0  0  0  0  0  0  0  0
   -0.5251    1.2764    0.0000 H   0  0  0  0  0  0  0  0  0  0  0  0
   -1.4583    0.7529    0.0000 H   0  0  0  0  0  0  0  0  0  0  0  0
   -3.7768    4.0237    0.0000 H   0  0  0  0  0  0  0  0  0  0  0  0
   -3.7863    2.9534    0.0000 H   0  0  0  0  0  0  0  0  0  0  0  0
    0.9688    6.4414    0.0000 H   0  0  0  0  0  0  0  0  0  0  0  0
   -0.8843    6.4720    0.0000 H   0  0  0  0  0  0  0  0  0  0  0  0
    0.0511    6.9917    0.0000 H   0  0  0  0  0  0  0  0  0  0  0  0
   -1.2251    0.8721    0.0000 H   0  0  0  0  0  0  0  0  0  0  0  0
   -2.1551    0.3400    0.0000 H   0  0  0  0  0  0  0  0  0  0  0  0
   -1.2372    3.3256    0.0000 H   0  0  0  0  0  0  0  0  0  0  0  0
   -3.0904    3.3021    0.0000 H   0  0  0  0  0  0  0  0  0  0  0  0
   -2.1706    3.8488    0.0000 H   0  0  0  0  0  0  0  0  0  0  0  0
   -2.8740   -0.0691    0.0000 H   0  0  0  0  0  0  0  0  0  0  0  0
   -3.7977    0.4696    0.0000 H   0  0  0  0  0  0  0  0  0  0  0  0
   -4.2856    3.7284    0.0000 H   0  0  0  0  0  0  0  0  0  0  0  0
   -5.2151    3.1943    0.0000 H   0  0  0  0  0  0  0  0  0  0  0  0
   -2.6654    3.6137    0.0000 H   0  0  0  0  0  0  0  0  0  0  0  0
   -4.5187    3.5983    0.0000 H   0  0  0  0  0  0  0  0  0  0  0  0
   -3.5965    4.1410    0.0000 H   0  0  0  0  0  0  0  0  0  0  0  0
   -5.0087    3.3122    0.0000 H   0  0  0  0  0  0  0  0  0  0  0  0
   -5.0077    0.3470    0.0000 H   0  0  0  0  0  0  0  0  0  0  0  0
   -4.1997   -0.6447    0.0000 H   0  0  0  0  0  0  0  0  0  0  0  0
   -5.2661   -0.6325    0.0000 H   0  0  0  0  0  0  0  0  0  0  0  0
   -4.3572   -0.8271    0.0000 H   0  0  0  0  0  0  0  0  0  0  0  0
   -2.7245    0.0498    0.0000 H   0  0  0  0  0  0  0  0  0  0  0  0
   -3.2877   -0.8599    0.0000 H   0  0  0  0  0  0  0  0  0  0  0  0
   -6.5653    1.4913    0.0000 H   0  0  0  0  0  0  0  0  0  0  0  0
   -5.7273    3.6267    0.0000 H   0  0  0  0  0  0  0  0  0  0  0  0
   -6.1240    1.1373    0.0000 H   0  0  0  0  0  0  0  0  0  0  0  0
    1.2160    2.5045    0.0000 H   0  0  0  0  0  0  0  0  0  0  0  0
    1.9313    1.2548    0.0000 H   0  0  0  0  0  0  0  0  0  0  0  0
    3.5723    1.1334    0.0000 H   0  0  0  0  0  0  0  0  0  0  0  0
    4.4978    2.5072    0.0000 H   0  0  0  0  0  0  0  0  0  0  0  0
    3.7825    3.9890    0.0000 H   0  0  0  0  0  0  0  0  0  0  0  0
    3.6953    4.7496    0.0000 H   0  0  0  0  0  0  0  0  0  0  0  0
    5.1141    2.9635    0.0000 H   0  0  0  0  0  0  0  0  0  0  0  0
    4.2823    0.8241    0.0000 H   0  0  0  0  0  0  0  0  0  0  0  0
    1.9319    0.4292    0.0000 H   0  0  0  0  0  0  0  0  0  0  0  0
    2.8590   -0.1051    0.0000 H   0  0  0  0  0  0  0  0  0  0  0  0
    2.6504    0.2622    0.0000 H   0  0  0  0  0  0  0  0  0  0  0  0
    2.8530    0.3793    0.0000 H   0  0  0  0  0  0  0  0  0  0  0  0
    1.9276   -0.9813    0.0000 H   0  0  0  0  0  0  0  0  0  0  0  0
    2.6430   -2.4629    0.0000 H   0  0  0  0  0  0  0  0  0  0  0  0
    4.2938   -2.5786    0.0000 H   0  0  0  0  0  0  0  0  0  0  0  0
    2.1432    0.6885    0.0000 H   0  0  0  0  0  0  0  0  0  0  0  0
    5.0191   -2.9968    0.0000 H   0  0  0  0  0  0  0  0  0  0  0  0
    5.9454   -2.4611    0.0000 H   0  0  0  0  0  0  0  0  0  0  0  0
    6.5672   -2.0013    0.0000 H   0  0  0  0  0  0  0  0  0  0  0  0
    2.8512   -2.7929    0.0000 H   0  0  0  0  0  0  0  0  0  0  0  0
    3.0711   -2.9195    0.0000 H   0  0  0  0  0  0  0  0  0  0  0  0
    1.4301   -2.7983    0.0000 H   0  0  0  0  0  0  0  0  0  0  0  0
    0.5046   -4.1588    0.0000 H   0  0  0  0  0  0  0  0  0  0  0  0
    1.2124   -5.6362    0.0000 H   0  0  0  0  0  0  0  0  0  0  0  0
    1.2129   -6.4574    0.0000 H   0  0  0  0  0  0  0  0  0  0  0  0
    3.0662   -6.4562    0.0000 H   0  0  0  0  0  0  0  0  0  0  0  0
    2.1399   -6.9918    0.0000 H   0  0  0  0  0  0  0  0  0  0  0  0
   -0.1276   -4.6244    0.0000 H   0  0  0  0  0  0  0  0  0  0  0  0
    0.7039   -2.4798    0.0000 H   0  0  0  0  0  0  0  0  0  0  0  0
    2.9837   -2.1372    0.0000 H   0  0  0  0  0  0  0  0  0  0  0  0
    1.3096   -1.4388    0.0000 H   0  0  0  0  0  0  0  0  0  0  0  0
  1  2  1  0  0  0  0
  1  3  1  0  0  0  0
  1  4  1  0  0  0  0
  1  5  1  1  0  0  0
  2  6  1  0  0  0  0
  2  7  1  0  0  0  0
  2 34  1  1  0  0  0
  3  8  1  0  0  0  0
  3 71  1  0  0  0  0
  3 72  1  0  0  0  0
  4  9  1  0  0  0  0
  4 73  1  0  0  0  0
  4 74  1  0  0  0  0
  5 10  2  0  0  0  0
  5 11  1  0  0  0  0
  6 12  1  0  0  0  0
  6 13  2  0  0  0  0
  7 14  1  0  0  0  0
  7 15  1  0  0  0  0
  7 75  1  6  0  0  0
  8 12  1  0  0  0  0
  8 76  1  0  0  0  0
  8 77  1  0  0  0  0
  9 14  1  0  0  0  0
  9 78  1  0  0  0  0
  9 79  1  0  0  0  0
 12 16  1  0  0  0  0
 12 17  1  6  0  0  0
 13 18  1  0  0  0  0
 13 80  1  0  0  0  0
 14 19  1  0  0  0  0
 14 81  1  1  0  0  0
 15 82  1  0  0  0  0
 15 83  1  0  0  0  0
 15 84  1  0  0  0  0
 16 20  1  0  0  0  0
 16 21  1  0  0  0  0
 16 22  1  1  0  0  0
 17 85  1  0  0  0  0
 17 86  1  0  0  0  0
 17 87  1  0  0  0  0
 18 20  1  0  0  0  0
 18 88  1  0  0  0  0
 18 89  1  0  0  0  0
 19 90  1  0  0  0  0
 19 91  1  0  0  0  0
 19 92  1  0  0  0  0
 20 23  1  0  0  0  0
 20 35  1  6  0  0  0
 21 24  1  0  0  0  0
 21 93  1  0  0  0  0
 21 94  1  0  0  0  0
 22 95  1  0  0  0  0
 22 96  1  0  0  0  0
 22 97  1  0  0  0  0
 23 25  1  0  0  0  0
 23 26  1  0  0  0  0
 23 27  1  1  0  0  0
 24 25  1  0  0  0  0
 24 98  1  0  0  0  0
 24 99  1  0  0  0  0
 25 28  1  0  0  0  0
 25 36  1  6  0  0  0
 26 29  1  0  0  0  0
 26100  1  0  0  0  0
 26101  1  0  0  0  0
 27102  1  0  0  0  0
 27103  1  0  0  0  0
 27104  1  0  0  0  0
 28 30  1  0  0  0  0
 28 31  1  6  0  0  0
 28 32  1  0  0  0  0
 29 30  1  0  0  0  0
 29 37  1  0  0  0  0
 29105  1  1  0  0  0
 30 33  1  0  0  0  0
 30106  1  6  0  0  0
 31 38  1  0  0  0  0
 31107  1  0  0  0  0
 31108  1  0  0  0  0
 32109  1  0  0  0  0
 32110  1  0  0  0  0
 32111  1  0  0  0  0
 33112  1  0  0  0  0
 37113  1  0  0  0  0
 38114  1  0  0  0  0
 39 11  1  0  0  0  0
 39 40  1  0  0  0  0
 39 44  1  0  0  0  0
 39115  1  6  0  0  0
 40 41  1  0  0  0  0
 41 42  1  0  0  0  0
 41 48  1  0  0  0  0
 41116  1  6  0  0  0
 42 43  1  0  0  0  0
 42 47  1  0  0  0  0
 42117  1  1  0  0  0
 43 44  1  0  0  0  0
 43 46  1  0  0  0  0
 43118  1  6  0  0  0
 44 45  1  0  0  0  0
 44119  1  1  0  0  0
 45120  1  0  0  0  0
 46121  1  0  0  0  0
 47122  1  0  0  0  0
 48 49  1  0  0  0  0
 48123  1  0  0  0  0
 48124  1  0  0  0  0
 50 49  1  0  0  0  0
 50 51  1  0  0  0  0
 50 55  1  0  0  0  0
 50125  1  1  0  0  0
 51 52  1  0  0  0  0
 51 56  1  0  0  0  0
 51126  1  6  0  0  0
 52 53  1  0  0  0  0
 52 70  1  0  0  0  0
 52127  1  1  0  0  0
 53 54  1  0  0  0  0
 53 57  1  0  0  0  0
 53128  1  6  0  0  0
 54 55  1  0  0  0  0
 54 58  1  0  0  0  0
 54129  1  1  0  0  0
 56130  1  0  0  0  0
 58 59  1  0  0  0  0
 58131  1  0  0  0  0
 58132  1  0  0  0  0
 59133  1  0  0  0  0
 60 57  1  0  0  0  0
 60 61  1  0  0  0  0
 60 65  1  0  0  0  0
 60134  1  1  0  0  0
 61 62  1  0  0  0  0
 61 69  1  0  0  0  0
 61135  1  6  0  0  0
 62 63  1  0  0  0  0
 62 68  1  0  0  0  0
 62136  1  6  0  0  0
 63 64  1  0  0  0  0
 63 67  1  0  0  0  0
 63137  1  1  0  0  0
 64 65  1  0  0  0  0
 64 66  1  0  0  0  0
 64138  1  6  0  0  0
 66139  1  0  0  0  0
 66140  1  0  0  0  0
 66141  1  0  0  0  0
 67142  1  0  0  0  0
 68143  1  0  0  0  0
 69144  1  0  0  0  0
 70145  1  0  0  0  0
M  END
>  <DRUGBANK_ID>
DB14081

>  <COMMON_NAME>
Asiaticoside

>  <CAS_NUMBER>
16830-15-2

>  <UNII>
PKO39VY215

>  <SYNONYMS>
Asiaticosid

$$$$
