BBB
 OpenBabel10282417072D

 51 53  0  0  0  0  0  0  0  0999 V2000
   -3.7052   -0.7904    0.0000 O   0  0  0  0  0  0  0  0  0  0  0  0
   -2.9907   -0.3779    0.0000 C   0  0  0  0  0  0  0  0  0  0  0  0
   -2.2762   -0.7904    0.0000 C   0  0  0  0  0  0  0  0  0  0  0  0
   -1.5618   -0.3779    0.0000 O   0  0  0  0  0  0  0  0  0  0  0  0
   -0.8473   -0.7904    0.0000 C   0  0  0  0  0  0  0  0  0  0  0  0
   -0.1328   -0.3779    0.0000 N   0  0  0  0  0  0  0  0  0  0  0  0
   -0.1328    0.4471    0.0000 C   0  0  0  0  0  0  0  0  0  0  0  0
   -0.8473    0.8596    0.0000 O   0  0  0  0  0  0  0  0  0  0  0  0
    0.5817    0.8596    0.0000 N   0  0  0  0  0  0  0  0  0  0  0  0
    1.2961    0.4471    0.0000 C   0  0  0  0  0  0  0  0  0  0  0  0
    2.0106    0.8596    0.0000 O   0  0  0  0  0  0  0  0  0  0  0  0
    0.5817   -0.7904    0.0000 C   0  0  0  0  0  0  0  0  0  0  0  0
    1.2961   -0.3779    0.0000 C   0  0  0  0  0  0  0  0  0  0  0  0
    2.0106   -0.7904    0.0000 C   0  0  0  0  0  0  0  0  0  0  0  0
    2.7251   -0.3779    0.0000 C   0  0  0  0  0  0  0  0  0  0  0  0
    2.7251    0.4471    0.0000 C   0  0  0  0  0  0  0  0  0  0  0  0
    3.4395    0.8596    0.0000 C   0  0  0  0  0  0  0  0  0  0  0  0
    4.1540    0.4471    0.0000 C   0  0  0  0  0  0  0  0  0  0  0  0
    3.4395   -0.7904    0.0000 C   0  0  0  0  0  0  0  0  0  0  0  0
    4.1540   -0.3779    0.0000 C   0  0  0  0  0  0  0  0  0  0  0  0
    4.8685   -0.7904    0.0000 O   0  0  0  0  0  0  0  0  0  0  0  0
    5.5830   -0.3779    0.0000 C   0  0  0  0  0  0  0  0  0  0  0  0
    6.2974   -0.7904    0.0000 C   0  0  0  0  0  0  0  0  0  0  0  0
    7.0119   -0.3779    0.0000 C   0  0  0  0  0  0  0  0  0  0  0  0
    7.7264   -0.7904    0.0000 C   0  0  0  0  0  0  0  0  0  0  0  0
    7.7264   -1.6154    0.0000 C   0  0  0  0  0  0  0  0  0  0  0  0
    7.0119   -2.0279    0.0000 C   0  0  0  0  0  0  0  0  0  0  0  0
    6.2974   -1.6154    0.0000 C   0  0  0  0  0  0  0  0  0  0  0  0
    0.5817   -1.6154    0.0000 O   0  0  0  0  0  0  0  0  0  0  0  0
   -4.5452   -0.3054    0.0000 H   0  0  0  0  0  0  0  0  0  0  0  0
   -2.9907    0.6921    0.0000 H   0  0  0  0  0  0  0  0  0  0  0  0
   -2.0641    0.1571    0.0000 H   0  0  0  0  0  0  0  0  0  0  0  0
   -2.2762   -1.8604    0.0000 H   0  0  0  0  0  0  0  0  0  0  0  0
   -1.3495   -1.3254    0.0000 H   0  0  0  0  0  0  0  0  0  0  0  0
   -0.8473   -1.8604    0.0000 H   0  0  0  0  0  0  0  0  0  0  0  0
    0.0793   -1.3254    0.0000 H   0  0  0  0  0  0  0  0  0  0  0  0
    0.5817    1.8441    0.0000 H   0  0  0  0  0  0  0  0  0  0  0  0
    2.0106   -1.8604    0.0000 H   0  0  0  0  0  0  0  0  0  0  0  0
    2.9372   -1.3254    0.0000 H   0  0  0  0  0  0  0  0  0  0  0  0
    1.8314    0.9631    0.0000 H   0  0  0  0  0  0  0  0  0  0  0  0
    3.4395    1.8916    0.0000 H   0  0  0  0  0  0  0  0  0  0  0  0
    5.0477    0.9631    0.0000 H   0  0  0  0  0  0  0  0  0  0  0  0
    3.4395   -1.8224    0.0000 H   0  0  0  0  0  0  0  0  0  0  0  0
    5.5830    0.6921    0.0000 H   0  0  0  0  0  0  0  0  0  0  0  0
    6.5097    0.1571    0.0000 H   0  0  0  0  0  0  0  0  0  0  0  0
    7.0119    0.6541    0.0000 H   0  0  0  0  0  0  0  0  0  0  0  0
    8.6201   -0.2744    0.0000 H   0  0  0  0  0  0  0  0  0  0  0  0
    8.6201   -2.1314    0.0000 H   0  0  0  0  0  0  0  0  0  0  0  0
    7.0119   -3.0599    0.0000 H   0  0  0  0  0  0  0  0  0  0  0  0
    5.4037   -2.1314    0.0000 H   0  0  0  0  0  0  0  0  0  0  0  0
   -0.2298   -2.0839    0.0000 H   0  0  0  0  0  0  0  0  0  0  0  0
  1  2  1  0  0  0  0
  1 30  1  0  0  0  0
  2  3  1  0  0  0  0
  2 31  1  0  0  0  0
  2 32  1  0  0  0  0
  3  4  1  0  0  0  0
  3 33  1  0  0  0  0
  3 34  1  0  0  0  0
  4  5  1  0  0  0  0
  5  6  1  0  0  0  0
  5 35  1  0  0  0  0
  5 36  1  0  0  0  0
  6  7  1  0  0  0  0
  6 12  1  0  0  0  0
  7  8  2  0  0  0  0
  7  9  1  0  0  0  0
  9 10  1  0  0  0  0
  9 37  1  0  0  0  0
 10 11  2  0  0  0  0
 10 13  1  0  0  0  0
 12 13  2  0  0  0  0
 12 29  1  0  0  0  0
 13 14  1  0  0  0  0
 14 15  1  0  0  0  0
 14 38  1  0  0  0  0
 14 39  1  0  0  0  0
 15 16  2  0  0  0  0
 15 19  1  0  0  0  0
 16 17  1  0  0  0  0
 16 40  1  0  0  0  0
 17 18  2  0  0  0  0
 17 41  1  0  0  0  0
 18 20  1  0  0  0  0
 18 42  1  0  0  0  0
 19 20  2  0  0  0  0
 19 43  1  0  0  0  0
 20 21  1  0  0  0  0
 21 22  1  0  0  0  0
 22 23  1  0  0  0  0
 22 44  1  0  0  0  0
 22 45  1  0  0  0  0
 23 24  2  0  0  0  0
 23 28  1  0  0  0  0
 24 25  1  0  0  0  0
 24 46  1  0  0  0  0
 25 26  2  0  0  0  0
 25 47  1  0  0  0  0
 26 27  1  0  0  0  0
 26 48  1  0  0  0  0
 27 28  2  0  0  0  0
 27 49  1  0  0  0  0
 28 50  1  0  0  0  0
 29 51  1  0  0  0  0
M  END
>  <DRUGBANK_ID>
DB07439

>  <COMMON_NAME>
1-((2-HYDROXYETHOXY)METHYL)-5-(3-(BENZYLOXY)BENZYL)-6-HYDROXYPYRIMIDINE-2,4(1H,3H)-DIONE

$$$$
