
 OpenBabel10282417072D

 73 77  0  0  0  0  0  0  0  0999 V2000
   -4.5824    1.7689    0.0000 C   0  0  2  0  0  0  0  0  0  0  0  0
   -4.1766    2.4872    0.0000 N   0  0  0  0  0  0  0  0  0  0  0  0
   -4.5963    3.1990    0.0000 C   0  0  0  0  0  0  0  0  0  0  0  0
   -3.3503    2.4950    0.0000 C   0  0  0  0  0  0  0  0  0  0  0  0
   -4.2739   -0.7361    0.0000 C   0  0  0  0  0  0  0  0  0  0  0  0
   -4.2747   -1.5641    0.0000 C   0  0  0  0  0  0  0  0  0  0  0  0
   -3.5606   -1.9789    0.0000 C   0  0  0  0  0  0  0  0  0  0  0  0
   -2.8425   -1.5637    0.0000 C   0  0  0  0  0  0  0  0  0  0  0  0
   -2.8445   -0.7336    0.0000 C   0  0  0  0  0  0  0  0  0  0  0  0
   -3.5620   -0.3242    0.0000 C   0  0  0  0  0  0  0  0  0  0  0  0
   -4.9912   -0.3215    0.0000 C   0  0  0  0  0  0  0  0  0  0  0  0
   -4.9912    0.5018    0.0000 N   0  0  0  0  0  0  0  0  0  0  0  0
   -4.9912   -1.9741    0.0000 C   0  0  0  0  0  0  0  0  0  0  0  0
   -4.3250    0.9858    0.0000 C   0  0  0  0  0  0  0  0  0  0  0  0
   -5.4029    1.7688    0.0000 C   0  0  0  0  0  0  0  0  0  0  0  0
   -5.6573    0.9858    0.0000 C   0  0  0  0  0  0  0  0  0  0  0  0
   -5.7052   -1.5583    0.0000 F   0  0  0  0  0  0  0  0  0  0  0  0
   -4.9943   -2.8004    0.0000 F   0  0  0  0  0  0  0  0  0  0  0  0
   -5.7095   -2.3858    0.0000 F   0  0  0  0  0  0  0  0  0  0  0  0
   -2.1297   -1.9712    0.0000 C   0  0  0  0  0  0  0  0  0  0  0  0
   -1.4174   -1.5566    0.0000 N   0  0  0  0  0  0  0  0  0  0  0  0
   -0.7020   -1.9653    0.0000 C   0  0  0  0  0  0  0  0  0  0  0  0
   -0.7011   -2.7903    0.0000 C   0  0  0  0  0  0  0  0  0  0  0  0
    0.0133   -3.1990    0.0000 C   0  0  0  0  0  0  0  0  0  0  0  0
    0.7260   -2.7838    0.0000 C   0  0  0  0  0  0  0  0  0  0  0  0
    0.7196   -1.9557    0.0000 C   0  0  0  0  0  0  0  0  0  0  0  0
    0.0046   -1.5507    0.0000 C   0  0  0  0  0  0  0  0  0  0  0  0
    1.4293   -1.5361    0.0000 N   0  0  0  0  0  0  0  0  0  0  0  0
    2.1476   -1.9420    0.0000 C   0  0  0  0  0  0  0  0  0  0  0  0
    2.1525   -2.7681    0.0000 N   0  0  0  0  0  0  0  0  0  0  0  0
    2.8699   -3.1738    0.0000 C   0  0  0  0  0  0  0  0  0  0  0  0
    3.5815   -2.7546    0.0000 C   0  0  0  0  0  0  0  0  0  0  0  0
    3.5712   -1.9254    0.0000 C   0  0  0  0  0  0  0  0  0  0  0  0
    2.8532   -1.5234    0.0000 N   0  0  0  0  0  0  0  0  0  0  0  0
    4.2786   -1.5023    0.0000 C   0  0  0  0  0  0  0  0  0  0  0  0
    4.9997   -1.9079    0.0000 C   0  0  0  0  0  0  0  0  0  0  0  0
    5.7095   -1.4863    0.0000 N   0  0  0  0  0  0  0  0  0  0  0  0
    5.6993   -0.6592    0.0000 C   0  0  0  0  0  0  0  0  0  0  0  0
    4.9735   -0.2555    0.0000 N   0  0  0  0  0  0  0  0  0  0  0  0
    4.2666   -0.6795    0.0000 C   0  0  0  0  0  0  0  0  0  0  0  0
    1.4410   -3.1946    0.0000 C   0  0  0  0  0  0  0  0  0  0  0  0
   -2.1327   -2.7975    0.0000 O   0  0  0  0  0  0  0  0  0  0  0  0
   -3.5176    1.6638    0.0000 H   0  0  0  0  0  0  0  0  0  0  0  0
   -4.0698    4.1305    0.0000 H   0  0  0  0  0  0  0  0  0  0  0  0
   -5.6663    3.1892    0.0000 H   0  0  0  0  0  0  0  0  0  0  0  0
   -5.1398    4.1207    0.0000 H   0  0  0  0  0  0  0  0  0  0  0  0
   -2.8066    1.5734    0.0000 H   0  0  0  0  0  0  0  0  0  0  0  0
   -2.8241    3.4267    0.0000 H   0  0  0  0  0  0  0  0  0  0  0  0
   -2.2803    2.5051    0.0000 H   0  0  0  0  0  0  0  0  0  0  0  0
   -3.5616   -3.0109    0.0000 H   0  0  0  0  0  0  0  0  0  0  0  0
   -1.9527   -0.2143    0.0000 H   0  0  0  0  0  0  0  0  0  0  0  0
   -3.5651    0.7078    0.0000 H   0  0  0  0  0  0  0  0  0  0  0  0
   -5.9180   -0.8563    0.0000 H   0  0  0  0  0  0  0  0  0  0  0  0
   -5.9178    0.2136    0.0000 H   0  0  0  0  0  0  0  0  0  0  0  0
   -3.3068    0.6569    0.0000 H   0  0  0  0  0  0  0  0  0  0  0  0
   -3.5703    1.7443    0.0000 H   0  0  0  0  0  0  0  0  0  0  0  0
   -6.0319    2.6344    0.0000 H   0  0  0  0  0  0  0  0  0  0  0  0
   -6.4597    1.6014    0.0000 H   0  0  0  0  0  0  0  0  0  0  0  0
   -6.6749    0.6552    0.0000 H   0  0  0  0  0  0  0  0  0  0  0  0
   -5.8247   -0.0710    0.0000 H   0  0  0  0  0  0  0  0  0  0  0  0
   -1.4214   -0.5721    0.0000 H   0  0  0  0  0  0  0  0  0  0  0  0
   -1.5935   -3.3086    0.0000 H   0  0  0  0  0  0  0  0  0  0  0  0
    0.0174   -4.2310    0.0000 H   0  0  0  0  0  0  0  0  0  0  0  0
   -0.0033   -0.5187    0.0000 H   0  0  0  0  0  0  0  0  0  0  0  0
    1.4197   -0.5516    0.0000 H   0  0  0  0  0  0  0  0  0  0  0  0
    2.8790   -4.2058    0.0000 H   0  0  0  0  0  0  0  0  0  0  0  0
    4.4807   -3.2611    0.0000 H   0  0  0  0  0  0  0  0  0  0  0  0
    5.0119   -2.9398    0.0000 H   0  0  0  0  0  0  0  0  0  0  0  0
    6.5856   -0.1306    0.0000 H   0  0  0  0  0  0  0  0  0  0  0  0
    3.3649   -0.1775    0.0000 H   0  0  0  0  0  0  0  0  0  0  0  0
    1.4433   -4.2646    0.0000 H   0  0  0  0  0  0  0  0  0  0  0  0
    2.3665   -2.6576    0.0000 H   0  0  0  0  0  0  0  0  0  0  0  0
    2.3688   -3.7276    0.0000 H   0  0  0  0  0  0  0  0  0  0  0  0
  1  2  1  0  0  0  0
  1 15  1  0  0  0  0
  1 43  1  1  0  0  0
  2  4  1  0  0  0  0
  2  3  1  0  0  0  0
  3 44  1  0  0  0  0
  3 45  1  0  0  0  0
  3 46  1  0  0  0  0
  4 47  1  0  0  0  0
  4 48  1  0  0  0  0
  4 49  1  0  0  0  0
  5  6  2  0  0  0  0
  5 11  1  0  0  0  0
  6  7  1  0  0  0  0
  6 13  1  0  0  0  0
  7  8  2  0  0  0  0
  7 50  1  0  0  0  0
  8  9  1  0  0  0  0
  8 20  1  0  0  0  0
  9 10  2  0  0  0  0
  9 51  1  0  0  0  0
 10  5  1  0  0  0  0
 10 52  1  0  0  0  0
 11 12  1  0  0  0  0
 11 53  1  0  0  0  0
 11 54  1  0  0  0  0
 12 14  1  0  0  0  0
 13 17  1  0  0  0  0
 13 18  1  0  0  0  0
 13 19  1  0  0  0  0
 14  1  1  0  0  0  0
 14 55  1  0  0  0  0
 14 56  1  0  0  0  0
 15 16  1  0  0  0  0
 15 57  1  0  0  0  0
 15 58  1  0  0  0  0
 16 12  1  0  0  0  0
 16 59  1  0  0  0  0
 16 60  1  0  0  0  0
 20 21  1  0  0  0  0
 20 42  2  0  0  0  0
 21 22  1  0  0  0  0
 21 61  1  0  0  0  0
 22 23  2  0  0  0  0
 23 24  1  0  0  0  0
 23 62  1  0  0  0  0
 24 25  2  0  0  0  0
 24 63  1  0  0  0  0
 25 26  1  0  0  0  0
 25 41  1  0  0  0  0
 26 27  2  0  0  0  0
 26 28  1  0  0  0  0
 27 22  1  0  0  0  0
 27 64  1  0  0  0  0
 28 29  1  0  0  0  0
 28 65  1  0  0  0  0
 29 30  2  0  0  0  0
 30 31  1  0  0  0  0
 31 32  2  0  0  0  0
 31 66  1  0  0  0  0
 32 33  1  0  0  0  0
 32 67  1  0  0  0  0
 33 34  2  0  0  0  0
 33 35  1  0  0  0  0
 34 29  1  0  0  0  0
 35 36  2  0  0  0  0
 36 37  1  0  0  0  0
 36 68  1  0  0  0  0
 37 38  2  0  0  0  0
 38 39  1  0  0  0  0
 38 69  1  0  0  0  0
 39 40  2  0  0  0  0
 40 35  1  0  0  0  0
 40 70  1  0  0  0  0
 41 71  1  0  0  0  0
 41 72  1  0  0  0  0
 41 73  1  0  0  0  0
M  END
>  <DRUGBANK_ID>
DB11851

>  <COMMON_NAME>
Bafetinib

>  <CAS_NUMBER>
859212-16-1

>  <UNII>
NVW4Z03I9B

>  <SYNONYMS>
Baf√©tinib; Bafetinib; Bafetinibum

$$$$
