
 OpenBabel10282417072D

 30 31  0  0  1  0  0  0  0  0999 V2000
    1.3222   -0.0616    0.0000 O   0  0  0  0  0  0  0  0  0  0  0  0
    2.0367   -0.4741    0.0000 C   0  0  0  0  0  0  0  0  0  0  0  0
    2.0367   -1.2991    0.0000 C   0  0  1  0  0  0  0  0  0  0  0  0
    2.7041   -1.7840    0.0000 C   0  0  0  0  0  0  0  0  0  0  0  0
    2.4492   -2.5687    0.0000 C   0  0  0  0  0  0  0  0  0  0  0  0
    1.6242   -2.5687    0.0000 C   0  0  0  0  0  0  0  0  0  0  0  0
    1.1393   -3.2361    0.0000 O   0  0  0  0  0  0  0  0  0  0  0  0
    1.3693   -1.7840    0.0000 N   0  0  0  0  0  0  0  0  0  0  0  0
    2.7512   -0.0616    0.0000 N   0  0  0  0  0  0  0  0  0  0  0  0
    2.7512    0.7634    0.0000 C   0  0  0  0  0  0  0  0  0  0  0  0
    3.4656    1.1759    0.0000 C   0  0  0  0  0  0  0  0  0  0  0  0
    4.1801    0.7634    0.0000 C   0  0  0  0  0  0  0  0  0  0  0  0
    4.1801   -0.0616    0.0000 C   0  0  0  0  0  0  0  0  0  0  0  0
    3.4656   -0.4741    0.0000 C   0  0  0  0  0  0  0  0  0  0  0  0
    2.9901   -0.8133    0.0000 H   0  0  0  0  0  0  0  0  0  0  0  0
    3.7217   -1.4533    0.0000 H   0  0  0  0  0  0  0  0  0  0  0  0
    3.4607   -2.5406    0.0000 H   0  0  0  0  0  0  0  0  0  0  0  0
    3.0782   -3.4343    0.0000 H   0  0  0  0  0  0  0  0  0  0  0  0
    1.9634   -3.5221    0.0000 H   0  0  0  0  0  0  0  0  0  0  0  0
    0.4330   -1.4797    0.0000 H   0  0  0  0  0  0  0  0  0  0  0  0
    1.8245    1.2984    0.0000 H   0  0  0  0  0  0  0  0  0  0  0  0
    2.7512    1.8334    0.0000 H   0  0  0  0  0  0  0  0  0  0  0  0
    3.4656    2.2459    0.0000 H   0  0  0  0  0  0  0  0  0  0  0  0
    4.3922    1.7109    0.0000 H   0  0  0  0  0  0  0  0  0  0  0  0
    5.1067    1.2984    0.0000 H   0  0  0  0  0  0  0  0  0  0  0  0
    5.1067    0.2284    0.0000 H   0  0  0  0  0  0  0  0  0  0  0  0
    5.1067   -0.5966    0.0000 H   0  0  0  0  0  0  0  0  0  0  0  0
    4.1801   -1.1316    0.0000 H   0  0  0  0  0  0  0  0  0  0  0  0
    3.4656   -1.5441    0.0000 H   0  0  0  0  0  0  0  0  0  0  0  0
    2.5389   -1.0091    0.0000 H   0  0  0  0  0  0  0  0  0  0  0  0
  1  2  2  0  0  0  0
  2  9  1  0  0  0  0
  3  2  1  0  0  0  0
  3  4  1  0  0  0  0
  3  8  1  0  0  0  0
  3 15  1  6  0  0  0
  4  5  1  0  0  0  0
  4 16  1  0  0  0  0
  4 17  1  0  0  0  0
  5  6  1  0  0  0  0
  5 18  1  0  0  0  0
  5 19  1  0  0  0  0
  6  7  2  0  0  0  0
  6  8  1  0  0  0  0
  8 20  1  0  0  0  0
  9 10  1  0  0  0  0
  9 14  1  0  0  0  0
 10 11  1  0  0  0  0
 10 21  1  0  0  0  0
 10 22  1  0  0  0  0
 11 12  1  0  0  0  0
 11 23  1  0  0  0  0
 11 24  1  0  0  0  0
 12 13  1  0  0  0  0
 12 25  1  0  0  0  0
 12 26  1  0  0  0  0
 13 14  1  0  0  0  0
 13 27  1  0  0  0  0
 13 28  1  0  0  0  0
 14 29  1  0  0  0  0
 14 30  1  0  0  0  0
M  END
>  <DRUGBANK_ID>
DB16163

>  <COMMON_NAME>
Fasoracetam

>  <CAS_NUMBER>
110958-19-5

>  <UNII>
42O8UF5CJB

>  <SYNONYMS>
Fasoracetam

$$$$
