
 OpenBabel10282417072D

126130  0  0  0  0  0  0  0  0999 V2000
    0.5355   -1.0703    0.0000 C   0  0  1  0  0  0  0  0  0  0  0  0
    1.9873   -0.9811    0.0000 C   0  0  2  0  0  0  0  0  0  0  0  0
    1.2434   -0.6388    0.0000 O   0  0  0  0  0  0  0  0  0  0  0  0
   -0.1932   -1.4810    0.0000 O   0  0  0  0  0  0  0  0  0  0  0  0
   -4.8043   -1.2619    0.0000 O   0  0  0  0  0  0  0  0  0  0  0  0
   -5.5416   -0.8758    0.0000 C   0  0  1  0  0  0  0  0  0  0  0  0
   -2.2007   -1.5076    0.0000 C   0  0  0  0  0  0  0  0  0  0  0  0
   -0.8742   -1.1183    0.0000 C   0  0  2  0  0  0  0  0  0  0  0  0
   -4.7708   -2.0924    0.0000 C   0  0  1  0  0  0  0  0  0  0  0  0
    2.7861   -1.2569    0.0000 O   0  0  0  0  0  0  0  0  0  0  0  0
   -1.4616   -1.6637    0.0000 C   0  0  1  0  0  0  0  0  0  0  0  0
   -5.6170   -0.0660    0.0000 C   0  0  2  0  0  0  0  0  0  0  0  0
   -2.7323   -2.1183    0.0000 C   0  0  2  0  0  0  0  0  0  0  0  0
   -4.0708   -2.4280    0.0000 C   0  0  2  0  0  0  0  0  0  0  0  0
    3.3431   -0.5962    0.0000 C   0  0  2  0  0  0  0  0  0  0  0  0
   -3.4731   -1.9140    0.0000 C   0  0  2  0  0  0  0  0  0  0  0  0
    4.6554   -0.7191    0.0000 O   0  0  0  0  0  0  0  0  0  0  0  0
    0.6418   -1.9327    0.0000 C   0  0  0  0  0  0  0  0  0  0  0  0
   -4.9586    0.4328    0.0000 C   0  0  0  0  0  0  0  0  0  0  0  0
    4.1260   -0.2028    0.0000 C   0  0  2  0  0  0  0  0  0  0  0  0
   -6.2265   -1.3139    0.0000 C   0  0  2  0  0  0  0  0  0  0  0  0
   -5.4703   -2.5073    0.0000 C   0  0  2  0  0  0  0  0  0  0  0  0
   -1.0085   -0.3623    0.0000 C   0  0  2  0  0  0  0  0  0  0  0  0
    0.3228   -0.1592    0.0000 C   0  0  1  0  0  0  0  0  0  0  0  0
    1.3126   -2.2641    0.0000 C   0  0  0  0  0  0  0  0  0  0  0  0
    5.7484    0.3243    0.0000 C   0  0  1  0  0  0  0  0  0  0  0  0
    5.4661   -0.5182    0.0000 C   0  0  2  0  0  0  0  0  0  0  0  0
   -6.1950   -2.1172    0.0000 C   0  0  0  0  0  0  0  0  0  0  0  0
    1.9618   -1.8654    0.0000 C   0  0  1  0  0  0  0  0  0  0  0  0
   -0.4529    0.1101    0.0000 C   0  0  0  0  0  0  0  0  0  0  0  0
    2.1006   -0.1100    0.0000 C   0  0  0  0  0  0  0  0  0  0  0  0
   -2.4581   -0.7153    0.0000 O   0  0  0  0  0  0  0  0  0  0  0  0
    2.9050    0.0887    0.0000 C   0  0  0  0  0  0  0  0  0  0  0  0
   -4.1917    0.1050    0.0000 O   0  0  0  0  0  0  0  0  0  0  0  0
    5.0125    0.8778    0.0000 C   0  0  0  0  0  0  0  0  0  0  0  0
    4.2511    0.5678    0.0000 C   0  0  0  0  0  0  0  0  0  0  0  0
   -3.6530   -1.1035    0.0000 O   0  0  0  0  0  0  0  0  0  0  0  0
   -5.0591    1.2554    0.0000 O   0  0  0  0  0  0  0  0  0  0  0  0
    6.1680    1.0446    0.0000 O   0  0  0  0  0  0  0  0  0  0  0  0
   -6.3860    0.2680    0.0000 C   0  0  0  0  0  0  0  0  0  0  0  0
    2.6612   -2.2847    0.0000 O   0  0  0  0  0  0  0  0  0  0  0  0
   -1.2420   -2.4683    0.0000 C   0  0  0  0  0  0  0  0  0  0  0  0
   -2.4832   -2.9064    0.0000 C   0  0  0  0  0  0  0  0  0  0  0  0
   -3.9538   -3.2591    0.0000 C   0  0  0  0  0  0  0  0  0  0  0  0
    3.8463   -1.2460    0.0000 C   0  0  0  0  0  0  0  0  0  0  0  0
    6.4924   -0.0179    0.0000 C   0  0  0  0  0  0  0  0  0  0  0  0
   -6.9575   -0.9257    0.0000 C   0  0  0  0  0  0  0  0  0  0  0  0
   -1.7884   -0.0805    0.0000 C   0  0  0  0  0  0  0  0  0  0  0  0
   -5.4515   -3.3356    0.0000 C   0  0  0  0  0  0  0  0  0  0  0  0
    0.9501    0.3921    0.0000 C   0  0  0  0  0  0  0  0  0  0  0  0
    6.0323   -1.1268    0.0000 C   0  0  0  0  0  0  0  0  0  0  0  0
   -6.3212    1.0956    0.0000 C   0  0  0  0  0  0  0  0  0  0  0  0
   -0.4290   -2.5310    0.0000 C   0  0  0  0  0  0  0  0  0  0  0  0
    7.0740    0.5673    0.0000 C   0  0  0  0  0  0  0  0  0  0  0  0
    5.6332    0.2940    0.0000 H   0  0  0  0  0  0  0  0  0  0  0  0
   -3.4451   -1.2201    0.0000 H   0  0  0  0  0  0  0  0  0  0  0  0
   -0.6693   -2.6920    0.0000 H   0  0  0  0  0  0  0  0  0  0  0  0
   -4.2235    0.0077    0.0000 H   0  0  0  0  0  0  0  0  0  0  0  0
   -2.1958   -2.4420    0.0000 H   0  0  0  0  0  0  0  0  0  0  0  0
   -6.4835   -0.6937    0.0000 H   0  0  0  0  0  0  0  0  0  0  0  0
   -1.6847   -2.3362    0.0000 H   0  0  0  0  0  0  0  0  0  0  0  0
   -4.9343   -3.0599    0.0000 H   0  0  0  0  0  0  0  0  0  0  0  0
   -4.4884   -1.5763    0.0000 H   0  0  0  0  0  0  0  0  0  0  0  0
   -0.1997   -2.5300    0.0000 H   0  0  0  0  0  0  0  0  0  0  0  0
   -7.1325   -1.8831    0.0000 H   0  0  0  0  0  0  0  0  0  0  0  0
   -4.5346   -3.0263    0.0000 H   0  0  0  0  0  0  0  0  0  0  0  0
   -1.1990    0.6906    0.0000 H   0  0  0  0  0  0  0  0  0  0  0  0
    1.3417   -0.4858    0.0000 H   0  0  0  0  0  0  0  0  0  0  0  0
    1.3600   -3.2950    0.0000 H   0  0  0  0  0  0  0  0  0  0  0  0
    5.1609   -1.5437    0.0000 H   0  0  0  0  0  0  0  0  0  0  0  0
   -7.1026   -2.6838    0.0000 H   0  0  0  0  0  0  0  0  0  0  0  0
   -6.1606   -3.1866    0.0000 H   0  0  0  0  0  0  0  0  0  0  0  0
    1.9675   -2.9354    0.0000 H   0  0  0  0  0  0  0  0  0  0  0  0
   -0.6500    1.1618    0.0000 H   0  0  0  0  0  0  0  0  0  0  0  0
    0.3579    0.8083    0.0000 H   0  0  0  0  0  0  0  0  0  0  0  0
    1.3025    0.6027    0.0000 H   0  0  0  0  0  0  0  0  0  0  0  0
    2.3585    0.9285    0.0000 H   0  0  0  0  0  0  0  0  0  0  0  0
    3.3017    1.0825    0.0000 H   0  0  0  0  0  0  0  0  0  0  0  0
    3.9702    0.1898    0.0000 H   0  0  0  0  0  0  0  0  0  0  0  0
    5.1503    1.9389    0.0000 H   0  0  0  0  0  0  0  0  0  0  0  0
    4.1650    1.5310    0.0000 H   0  0  0  0  0  0  0  0  0  0  0  0
    3.4141    1.2344    0.0000 H   0  0  0  0  0  0  0  0  0  0  0  0
    3.2530    0.1822    0.0000 H   0  0  0  0  0  0  0  0  0  0  0  0
   -2.9380   -0.4480    0.0000 H   0  0  0  0  0  0  0  0  0  0  0  0
   -4.3104    1.8189    0.0000 H   0  0  0  0  0  0  0  0  0  0  0  0
    7.1380    1.0408    0.0000 H   0  0  0  0  0  0  0  0  0  0  0  0
   -7.3029   -0.2835    0.0000 H   0  0  0  0  0  0  0  0  0  0  0  0
   -7.2961    0.8307    0.0000 H   0  0  0  0  0  0  0  0  0  0  0  0
    2.6452   -3.2546    0.0000 H   0  0  0  0  0  0  0  0  0  0  0  0
   -1.9236   -3.2931    0.0000 H   0  0  0  0  0  0  0  0  0  0  0  0
   -0.8238   -3.4532    0.0000 H   0  0  0  0  0  0  0  0  0  0  0  0
   -3.2055   -3.6958    0.0000 H   0  0  0  0  0  0  0  0  0  0  0  0
   -1.4384   -3.1373    0.0000 H   0  0  0  0  0  0  0  0  0  0  0  0
   -2.1607   -3.9266    0.0000 H   0  0  0  0  0  0  0  0  0  0  0  0
   -4.7968   -3.9181    0.0000 H   0  0  0  0  0  0  0  0  0  0  0  0
   -2.9616   -3.6597    0.0000 H   0  0  0  0  0  0  0  0  0  0  0  0
   -3.8046   -4.3187    0.0000 H   0  0  0  0  0  0  0  0  0  0  0  0
    3.4412   -2.2364    0.0000 H   0  0  0  0  0  0  0  0  0  0  0  0
    4.9065   -1.1016    0.0000 H   0  0  0  0  0  0  0  0  0  0  0  0
    4.5014   -2.0920    0.0000 H   0  0  0  0  0  0  0  0  0  0  0  0
    6.6826   -1.0709    0.0000 H   0  0  0  0  0  0  0  0  0  0  0  0
    7.5140   -0.3360    0.0000 H   0  0  0  0  0  0  0  0  0  0  0  0
   -6.9954    0.1436    0.0000 H   0  0  0  0  0  0  0  0  0  0  0  0
   -7.8646   -1.4932    0.0000 H   0  0  0  0  0  0  0  0  0  0  0  0
   -7.9025   -0.4238    0.0000 H   0  0  0  0  0  0  0  0  0  0  0  0
   -1.9767    0.9728    0.0000 H   0  0  0  0  0  0  0  0  0  0  0  0
   -2.6065   -0.7702    0.0000 H   0  0  0  0  0  0  0  0  0  0  0  0
   -2.7947    0.2831    0.0000 H   0  0  0  0  0  0  0  0  0  0  0  0
   -6.3658   -3.8915    0.0000 H   0  0  0  0  0  0  0  0  0  0  0  0
   -4.5130   -3.8494    0.0000 H   0  0  0  0  0  0  0  0  0  0  0  0
   -5.4272   -4.4053    0.0000 H   0  0  0  0  0  0  0  0  0  0  0  0
    1.9637    0.0492    0.0000 H   0  0  0  0  0  0  0  0  0  0  0  0
    0.7402    1.4413    0.0000 H   0  0  0  0  0  0  0  0  0  0  0  0
    1.7538    1.0984    0.0000 H   0  0  0  0  0  0  0  0  0  0  0  0
    5.7183   -2.1497    0.0000 H   0  0  0  0  0  0  0  0  0  0  0  0
    7.0752   -0.8873    0.0000 H   0  0  0  0  0  0  0  0  0  0  0  0
    6.7611   -1.9102    0.0000 H   0  0  0  0  0  0  0  0  0  0  0  0
   -5.3556    1.5566    0.0000 H   0  0  0  0  0  0  0  0  0  0  0  0
   -7.2033    1.7013    0.0000 H   0  0  0  0  0  0  0  0  0  0  0  0
   -6.2377    2.1623    0.0000 H   0  0  0  0  0  0  0  0  0  0  0  0
    0.0332   -3.4960    0.0000 H   0  0  0  0  0  0  0  0  0  0  0  0
    0.1757   -1.6482    0.0000 H   0  0  0  0  0  0  0  0  0  0  0  0
    0.6378   -2.6133    0.0000 H   0  0  0  0  0  0  0  0  0  0  0  0
    8.1084    0.2936    0.0000 H   0  0  0  0  0  0  0  0  0  0  0  0
    6.7939    1.6000    0.0000 H   0  0  0  0  0  0  0  0  0  0  0  0
    7.8283    1.3262    0.0000 H   0  0  0  0  0  0  0  0  0  0  0  0
  1  3  1  6  0  0  0
  1 18  1  0  0  0  0
  2  3  1  6  0  0  0
  2 31  1  0  0  0  0
  2 29  1  0  0  0  0
  4  1  1  0  0  0  0
  6  5  1  0  0  0  0
  6 21  1  0  0  0  0
  6 58  1  1  0  0  0
  7 11  1  0  0  0  0
  8  4  1  0  0  0  0
  8 23  1  0  0  0  0
  8 57  1  1  0  0  0
  9  5  1  0  0  0  0
  9 14  1  0  0  0  0
  9 56  1  6  0  0  0
 10  2  1  0  0  0  0
 11  8  1  0  0  0  0
 11 42  1  0  0  0  0
 11 59  1  6  0  0  0
 12  6  1  0  0  0  0
 12 40  1  0  0  0  0
 12 60  1  6  0  0  0
 13  7  1  0  0  0  0
 13 43  1  0  0  0  0
 13 61  1  6  0  0  0
 14 16  1  0  0  0  0
 14 44  1  0  0  0  0
 14 62  1  1  0  0  0
 15 10  1  0  0  0  0
 15 45  1  6  0  0  0
 15 33  1  0  0  0  0
 16 13  1  0  0  0  0
 16 37  1  0  0  0  0
 16 63  1  1  0  0  0
 18 64  1  0  0  0  0
 19 12  1  0  0  0  0
 20 17  1  0  0  0  0
 20 15  1  0  0  0  0
 20 55  1  6  0  0  0
 21 28  1  0  0  0  0
 21 47  1  0  0  0  0
 21 65  1  1  0  0  0
 22  9  1  0  0  0  0
 22 49  1  0  0  0  0
 22 66  1  6  0  0  0
 23 30  1  0  0  0  0
 23 48  1  0  0  0  0
 23 67  1  6  0  0  0
 24  1  1  0  0  0  0
 24 50  1  0  0  0  0
 24 68  1  6  0  0  0
 25 18  2  0  0  0  0
 25 69  1  0  0  0  0
 26 35  1  0  0  0  0
 26 39  1  1  0  0  0
 27 17  1  0  0  0  0
 27 51  1  0  0  0  0
 27 26  1  0  0  0  0
 27 70  1  1  0  0  0
 28 22  1  0  0  0  0
 28 71  1  0  0  0  0
 28 72  1  0  0  0  0
 29 25  1  0  0  0  0
 29 41  1  0  0  0  0
 29 73  1  1  0  0  0
 30 24  1  0  0  0  0
 30 74  1  0  0  0  0
 30 75  1  0  0  0  0
 31 76  1  0  0  0  0
 31 77  1  0  0  0  0
 32  7  2  0  0  0  0
 33 31  1  0  0  0  0
 33 78  1  0  0  0  0
 33 79  1  0  0  0  0
 34 19  2  0  0  0  0
 35 36  1  0  0  0  0
 35 80  1  0  0  0  0
 35 81  1  0  0  0  0
 36 20  1  0  0  0  0
 36 82  1  0  0  0  0
 36 83  1  0  0  0  0
 37 84  1  0  0  0  0
 38 19  1  0  0  0  0
 38 85  1  0  0  0  0
 39 86  1  0  0  0  0
 40 87  1  0  0  0  0
 40 88  1  0  0  0  0
 41 89  1  0  0  0  0
 42 90  1  0  0  0  0
 42 91  1  0  0  0  0
 43 92  1  0  0  0  0
 43 93  1  0  0  0  0
 43 94  1  0  0  0  0
 44 95  1  0  0  0  0
 44 96  1  0  0  0  0
 44 97  1  0  0  0  0
 45 98  1  0  0  0  0
 45 99  1  0  0  0  0
 45100  1  0  0  0  0
 46 26  1  0  0  0  0
 46101  1  0  0  0  0
 46102  1  0  0  0  0
 47103  1  0  0  0  0
 47104  1  0  0  0  0
 47105  1  0  0  0  0
 48106  1  0  0  0  0
 48107  1  0  0  0  0
 48108  1  0  0  0  0
 49109  1  0  0  0  0
 49110  1  0  0  0  0
 49111  1  0  0  0  0
 50112  1  0  0  0  0
 50113  1  0  0  0  0
 50114  1  0  0  0  0
 51115  1  0  0  0  0
 51116  1  0  0  0  0
 51117  1  0  0  0  0
 52 40  1  0  0  0  0
 52118  1  0  0  0  0
 52119  1  0  0  0  0
 52120  1  0  0  0  0
 53 42  1  0  0  0  0
 53121  1  0  0  0  0
 53122  1  0  0  0  0
 53123  1  0  0  0  0
 54 46  1  0  0  0  0
 54124  1  0  0  0  0
 54125  1  0  0  0  0
 54126  1  0  0  0  0
M  END
>  <DRUGBANK_ID>
DB11432

>  <COMMON_NAME>
Narasin

>  <CAS_NUMBER>
55134-13-9

>  <UNII>
DZY9VU539P

>  <SYNONYMS>
Narasin; Narasin A; Narasine; Narasino; Narasinum

$$$$
