
 OpenBabel10282417072D

 59 63  0  0  0  0  0  0  0  0999 V2000
    6.6515    0.7169    0.0000 O   0  0  0  0  0  0  0  0  0  0  0  0
    3.7935    2.3669    0.0000 O   0  0  0  0  0  0  0  0  0  0  0  0
    7.8519   -2.9954    0.0000 O   0  0  0  0  0  0  0  0  0  0  0  0
    9.1718    2.8675    0.0000 O   0  0  0  0  0  0  0  0  0  0  0  0
    5.9370   -0.5207    0.0000 N   0  0  0  0  0  0  0  0  0  0  0  0
    3.0791    1.1294    0.0000 N   0  0  0  0  0  0  0  0  0  0  0  0
    8.1466   -0.2693    0.0000 N   0  0  0  0  0  0  0  0  0  0  0  0
    8.6280   -0.9332    0.0000 N   0  0  0  0  0  0  0  0  0  0  0  0
    9.2102   -2.5515    0.0000 N   0  0  0  0  0  0  0  0  0  0  0  0
    6.6515   -1.7582    0.0000 C   0  0  0  0  0  0  0  0  0  0  0  0
    5.9370   -1.3457    0.0000 C   0  0  0  0  0  0  0  0  0  0  0  0
    7.3659   -1.3457    0.0000 C   0  0  0  0  0  0  0  0  0  0  0  0
    7.3659   -0.5207    0.0000 C   0  0  0  0  0  0  0  0  0  0  0  0
    2.3645    0.7169    0.0000 C   0  0  0  0  0  0  0  0  0  0  0  0
    1.6500    1.1294    0.0000 C   0  0  0  0  0  0  0  0  0  0  0  0
    1.6500    1.9544    0.0000 C   0  0  0  0  0  0  0  0  0  0  0  0
    2.3645    2.3669    0.0000 C   0  0  0  0  0  0  0  0  0  0  0  0
    6.6515   -0.1082    0.0000 C   0  0  0  0  0  0  0  0  0  0  0  0
    5.2224   -0.1082    0.0000 C   0  0  0  0  0  0  0  0  0  0  0  0
    3.7935    0.7169    0.0000 C   0  0  0  0  0  0  0  0  0  0  0  0
    3.0791    1.9544    0.0000 C   0  0  0  0  0  0  0  0  0  0  0  0
    8.1466   -1.5972    0.0000 C   0  0  0  0  0  0  0  0  0  0  0  0
    5.2224    0.7169    0.0000 C   0  0  0  0  0  0  0  0  0  0  0  0
    4.5080   -0.5207    0.0000 C   0  0  0  0  0  0  0  0  0  0  0  0
    4.5080    1.1294    0.0000 C   0  0  0  0  0  0  0  0  0  0  0  0
    3.7935   -0.1082    0.0000 C   0  0  0  0  0  0  0  0  0  0  0  0
    8.4029    0.5149    0.0000 C   0  0  0  0  0  0  0  0  0  0  0  0
    8.4029   -2.3813    0.0000 C   0  0  0  0  0  0  0  0  0  0  0  0
    7.8519    1.1290    0.0000 C   0  0  0  0  0  0  0  0  0  0  0  0
    9.2102    0.6851    0.0000 C   0  0  0  0  0  0  0  0  0  0  0  0
    8.1082    1.9132    0.0000 C   0  0  0  0  0  0  0  0  0  0  0  0
    9.4665    1.4693    0.0000 C   0  0  0  0  0  0  0  0  0  0  0  0
    8.9155    2.0833    0.0000 C   0  0  0  0  0  0  0  0  0  0  0  0
    9.9791    3.0376    0.0000 C   0  0  0  0  0  0  0  0  0  0  0  0
    9.5160   -3.4873    0.0000 H   0  0  0  0  0  0  0  0  0  0  0  0
    9.8677   -1.8188    0.0000 H   0  0  0  0  0  0  0  0  0  0  0  0
    6.6515   -2.8282    0.0000 H   0  0  0  0  0  0  0  0  0  0  0  0
    7.5782   -2.2932    0.0000 H   0  0  0  0  0  0  0  0  0  0  0  0
    5.0104   -1.8807    0.0000 H   0  0  0  0  0  0  0  0  0  0  0  0
    5.9370   -2.4157    0.0000 H   0  0  0  0  0  0  0  0  0  0  0  0
    2.3645   -0.3531    0.0000 H   0  0  0  0  0  0  0  0  0  0  0  0
    1.4378    0.1819    0.0000 H   0  0  0  0  0  0  0  0  0  0  0  0
    0.7234    0.5944    0.0000 H   0  0  0  0  0  0  0  0  0  0  0  0
    0.7234    1.6644    0.0000 H   0  0  0  0  0  0  0  0  0  0  0  0
    0.7234    2.4894    0.0000 H   0  0  0  0  0  0  0  0  0  0  0  0
    1.6500    3.0244    0.0000 H   0  0  0  0  0  0  0  0  0  0  0  0
    2.3645    3.4369    0.0000 H   0  0  0  0  0  0  0  0  0  0  0  0
    3.2911    2.9020    0.0000 H   0  0  0  0  0  0  0  0  0  0  0  0
    6.1161    1.2329    0.0000 H   0  0  0  0  0  0  0  0  0  0  0  0
    4.5080   -1.5527    0.0000 H   0  0  0  0  0  0  0  0  0  0  0  0
    4.5080    2.1614    0.0000 H   0  0  0  0  0  0  0  0  0  0  0  0
    2.8998   -0.6242    0.0000 H   0  0  0  0  0  0  0  0  0  0  0  0
    6.8421    0.9162    0.0000 H   0  0  0  0  0  0  0  0  0  0  0  0
    9.8994   -0.0830    0.0000 H   0  0  0  0  0  0  0  0  0  0  0  0
    7.4190    2.6813    0.0000 H   0  0  0  0  0  0  0  0  0  0  0  0
   10.4763    1.6822    0.0000 H   0  0  0  0  0  0  0  0  0  0  0  0
   10.6937    2.2412    0.0000 H   0  0  0  0  0  0  0  0  0  0  0  0
   10.3116    4.0546    0.0000 H   0  0  0  0  0  0  0  0  0  0  0  0
   11.0261    3.2582    0.0000 H   0  0  0  0  0  0  0  0  0  0  0  0
  1 18  2  0  0  0  0
  2 21  2  0  0  0  0
  3 28  2  0  0  0  0
  4 33  1  0  0  0  0
  4 34  1  0  0  0  0
  5 11  1  0  0  0  0
  5 18  1  0  0  0  0
  5 19  1  0  0  0  0
  6 14  1  0  0  0  0
  6 20  1  0  0  0  0
  6 21  1  0  0  0  0
  7  8  1  0  0  0  0
  7 13  1  0  0  0  0
  7 27  1  0  0  0  0
  8 22  2  0  0  0  0
  9 28  1  0  0  0  0
  9 35  1  0  0  0  0
  9 36  1  0  0  0  0
 10 11  1  0  0  0  0
 10 12  1  0  0  0  0
 10 37  1  0  0  0  0
 10 38  1  0  0  0  0
 11 39  1  0  0  0  0
 11 40  1  0  0  0  0
 12 13  2  0  0  0  0
 12 22  1  0  0  0  0
 13 18  1  0  0  0  0
 14 15  1  0  0  0  0
 14 41  1  0  0  0  0
 14 42  1  0  0  0  0
 15 16  1  0  0  0  0
 15 43  1  0  0  0  0
 15 44  1  0  0  0  0
 16 17  1  0  0  0  0
 16 45  1  0  0  0  0
 16 46  1  0  0  0  0
 17 21  1  0  0  0  0
 17 47  1  0  0  0  0
 17 48  1  0  0  0  0
 19 23  2  0  0  0  0
 19 24  1  0  0  0  0
 20 25  2  0  0  0  0
 20 26  1  0  0  0  0
 22 28  1  0  0  0  0
 23 25  1  0  0  0  0
 23 49  1  0  0  0  0
 24 26  2  0  0  0  0
 24 50  1  0  0  0  0
 25 51  1  0  0  0  0
 26 52  1  0  0  0  0
 27 29  2  0  0  0  0
 27 30  1  0  0  0  0
 29 31  1  0  0  0  0
 29 53  1  0  0  0  0
 30 32  2  0  0  0  0
 30 54  1  0  0  0  0
 31 33  2  0  0  0  0
 31 55  1  0  0  0  0
 32 33  1  0  0  0  0
 32 56  1  0  0  0  0
 34 57  1  0  0  0  0
 34 58  1  0  0  0  0
 34 59  1  0  0  0  0
M  END
>  <DRUGBANK_ID>
DB06605

>  <SECONDARY_ACCESSION_NUMBERS>
DB07828

>  <COMMON_NAME>
Apixaban

>  <CAS_NUMBER>
503612-47-3

>  <UNII>
3Z9Y7UWC1J

>  <SYNONYMS>
apixab√°n; Apixaban; apixabanum

$$$$
