
 OpenBabel10282417072D

 32 32  0  0  0  0  0  0  0  0999 V2000
   -1.7861    1.0312    0.0000 C   0  0  0  0  0  0  0  0  0  0  0  0
   -1.7861    0.2062    0.0000 C   0  0  0  0  0  0  0  0  0  0  0  0
   -1.0716   -0.2062    0.0000 C   0  0  0  0  0  0  0  0  0  0  0  0
   -0.3572    0.2062    0.0000 C   0  0  0  0  0  0  0  0  0  0  0  0
   -0.3572    1.0312    0.0000 C   0  0  0  0  0  0  0  0  0  0  0  0
   -1.0716    1.4437    0.0000 C   0  0  0  0  0  0  0  0  0  0  0  0
   -2.5006    1.4437    0.0000 O   0  0  0  0  0  0  0  0  0  0  0  0
   -3.2151    1.0312    0.0000 C   0  0  0  0  0  0  0  0  0  0  0  0
   -1.0716   -1.0312    0.0000 O   0  0  0  0  0  0  0  0  0  0  0  0
   -0.3572   -1.4437    0.0000 C   0  0  0  0  0  0  0  0  0  0  0  0
    0.3572    1.4437    0.0000 N   0  0  0  0  0  0  0  0  0  0  0  0
    1.0717    1.0312    0.0000 C   0  0  0  0  0  0  0  0  0  0  0  0
    1.7861    1.4437    0.0000 N   0  0  0  0  0  0  0  0  0  0  0  0
    2.5006    1.0312    0.0000 C   0  0  0  0  0  0  0  0  0  0  0  0
    3.2151    1.4437    0.0000 N   0  0  0  0  0  0  0  0  0  0  0  0
    1.0717    0.2062    0.0000 N   0  0  0  0  0  0  0  0  0  0  0  0
    2.5006    0.2062    0.0000 N   0  0  0  0  0  0  0  0  0  0  0  0
   -2.6798   -0.3099    0.0000 H   0  0  0  0  0  0  0  0  0  0  0  0
    0.5365   -0.3098    0.0000 H   0  0  0  0  0  0  0  0  0  0  0  0
   -1.0716    2.4757    0.0000 H   0  0  0  0  0  0  0  0  0  0  0  0
   -4.1417    1.5662    0.0000 H   0  0  0  0  0  0  0  0  0  0  0  0
   -3.2151   -0.0388    0.0000 H   0  0  0  0  0  0  0  0  0  0  0  0
   -4.1418    0.4962    0.0000 H   0  0  0  0  0  0  0  0  0  0  0  0
   -0.3572   -2.5137    0.0000 H   0  0  0  0  0  0  0  0  0  0  0  0
    0.5695   -0.9087    0.0000 H   0  0  0  0  0  0  0  0  0  0  0  0
    0.5694   -1.9787    0.0000 H   0  0  0  0  0  0  0  0  0  0  0  0
    0.3572    2.4282    0.0000 H   0  0  0  0  0  0  0  0  0  0  0  0
    1.7861    2.4282    0.0000 H   0  0  0  0  0  0  0  0  0  0  0  0
    4.0677    0.9514    0.0000 H   0  0  0  0  0  0  0  0  0  0  0  0
    3.2151    2.4282    0.0000 H   0  0  0  0  0  0  0  0  0  0  0  0
    0.2191   -0.2861    0.0000 H   0  0  0  0  0  0  0  0  0  0  0  0
    1.6480   -0.2861    0.0000 H   0  0  0  0  0  0  0  0  0  0  0  0
  1  6  2  0  0  0  0
  1  2  1  0  0  0  0
  1  7  1  0  0  0  0
  2  3  2  0  0  0  0
  2 18  1  0  0  0  0
  3  4  1  0  0  0  0
  3  9  1  0  0  0  0
  4  5  2  0  0  0  0
  4 19  1  0  0  0  0
  5 11  1  0  0  0  0
  5  6  1  0  0  0  0
  6 20  1  0  0  0  0
  8  7  1  0  0  0  0
  8 21  1  0  0  0  0
  8 22  1  0  0  0  0
  8 23  1  0  0  0  0
 10  9  1  0  0  0  0
 10 24  1  0  0  0  0
 10 25  1  0  0  0  0
 10 26  1  0  0  0  0
 11 27  1  0  0  0  0
 12 11  1  0  0  0  0
 12 13  1  0  0  0  0
 12 16  2  0  0  0  0
 13 28  1  0  0  0  0
 14 13  1  0  0  0  0
 14 17  2  0  0  0  0
 14 15  1  0  0  0  0
 15 29  1  0  0  0  0
 15 30  1  0  0  0  0
 16 31  1  0  0  0  0
 17 32  1  0  0  0  0
M  END
>  <DRUGBANK_ID>
DB08479

>  <COMMON_NAME>
N-(3,5-dimethoxyphenyl)imidodicarbonimidic diamide

>  <CAS_NUMBER>
524055-74-1

$$$$
