
 OpenBabel10282417072D

 63 63  0  0  0  0  0  0  0  0999 V2000
    3.0241   -1.6499    0.0000 O   0  0  0  0  0  0  0  0  0  0  0  0
    1.5951    2.4750    0.0000 O   0  0  0  0  0  0  0  0  0  0  0  0
    2.3096   -3.7125    0.0000 O   0  0  0  0  0  0  0  0  0  0  0  0
    3.0241   -2.4750    0.0000 O   0  0  0  0  0  0  0  0  0  0  0  0
    1.5951   -4.1250    0.0000 O   0  0  0  0  0  0  0  0  0  0  0  0
    2.3096   -0.4124    0.0000 N   0  0  0  0  0  0  0  0  0  0  0  0
    2.3096    1.2375    0.0000 N   0  0  0  0  0  0  0  0  0  0  0  0
    1.5951   -1.6499    0.0000 N   0  0  0  0  0  0  0  0  0  0  0  0
    3.0241    2.4750    0.0000 N   0  0  0  0  0  0  0  0  0  0  0  0
   -1.9771   -2.8875    0.0000 N   0  0  0  0  0  0  0  0  0  0  0  0
   -3.4062   -2.8875    0.0000 N   0  0  0  0  0  0  0  0  0  0  0  0
   -2.6916   -1.6499    0.0000 N   0  0  0  0  0  0  0  0  0  0  0  0
    1.5951    0.0000    0.0000 C   0  0  0  0  0  0  0  0  0  0  0  0
    3.0241    0.0000    0.0000 C   0  0  0  0  0  0  0  0  0  0  0  0
    1.5951    0.8250    0.0000 C   0  0  0  0  0  0  0  0  0  0  0  0
    3.0241    0.8250    0.0000 C   0  0  0  0  0  0  0  0  0  0  0  0
    0.8807   -2.8875    0.0000 C   0  0  1  0  0  0  0  0  0  0  0  0
    1.5951   -2.4750    0.0000 C   0  0  1  0  0  0  0  0  0  0  0  0
    2.3096   -1.2375    0.0000 C   0  0  0  0  0  0  0  0  0  0  0  0
    3.0241    3.2999    0.0000 C   0  0  0  0  0  0  0  0  0  0  0  0
    0.1662   -2.4750    0.0000 C   0  0  0  0  0  0  0  0  0  0  0  0
    2.3096    2.0625    0.0000 C   0  0  0  0  0  0  0  0  0  0  0  0
   -0.5482   -2.8875    0.0000 C   0  0  0  0  0  0  0  0  0  0  0  0
    2.1991    3.2999    0.0000 C   0  0  0  0  0  0  0  0  0  0  0  0
    3.8491    3.2999    0.0000 C   0  0  0  0  0  0  0  0  0  0  0  0
    3.0241    4.1250    0.0000 C   0  0  0  0  0  0  0  0  0  0  0  0
    2.3096   -2.8875    0.0000 C   0  0  0  0  0  0  0  0  0  0  0  0
    0.8807   -3.7125    0.0000 C   0  0  0  0  0  0  0  0  0  0  0  0
   -1.2627   -2.4750    0.0000 C   0  0  0  0  0  0  0  0  0  0  0  0
   -2.6916   -2.4750    0.0000 C   0  0  0  0  0  0  0  0  0  0  0  0
    1.1522   -1.3942    0.0000 H   0  0  0  0  0  0  0  0  0  0  0  0
    3.4671    2.2193    0.0000 H   0  0  0  0  0  0  0  0  0  0  0  0
   -3.4062   -3.3990    0.0000 H   0  0  0  0  0  0  0  0  0  0  0  0
   -3.8491   -2.6317    0.0000 H   0  0  0  0  0  0  0  0  0  0  0  0
   -2.2487   -1.3942    0.0000 H   0  0  0  0  0  0  0  0  0  0  0  0
   -3.1346   -1.3942    0.0000 H   0  0  0  0  0  0  0  0  0  0  0  0
    1.4981   -4.1810    0.0000 H   0  0  0  0  0  0  0  0  0  0  0  0
    0.6685   -0.5351    0.0000 H   0  0  0  0  0  0  0  0  0  0  0  0
    0.6684    0.5350    0.0000 H   0  0  0  0  0  0  0  0  0  0  0  0
    3.9507   -0.5351    0.0000 H   0  0  0  0  0  0  0  0  0  0  0  0
    3.9508    0.5350    0.0000 H   0  0  0  0  0  0  0  0  0  0  0  0
    0.6685    1.3600    0.0000 H   0  0  0  0  0  0  0  0  0  0  0  0
    0.6685    0.2900    0.0000 H   0  0  0  0  0  0  0  0  0  0  0  0
    3.9507    1.3600    0.0000 H   0  0  0  0  0  0  0  0  0  0  0  0
    3.9507    0.2900    0.0000 H   0  0  0  0  0  0  0  0  0  0  0  0
    1.8074   -3.4225    0.0000 H   0  0  0  0  0  0  0  0  0  0  0  0
    0.6684   -1.9400    0.0000 H   0  0  0  0  0  0  0  0  0  0  0  0
    0.1662   -1.4050    0.0000 H   0  0  0  0  0  0  0  0  0  0  0  0
   -0.7605   -1.9400    0.0000 H   0  0  0  0  0  0  0  0  0  0  0  0
   -0.5482   -3.9575    0.0000 H   0  0  0  0  0  0  0  0  0  0  0  0
   -1.4748   -3.4225    0.0000 H   0  0  0  0  0  0  0  0  0  0  0  0
    1.6641    4.2265    0.0000 H   0  0  0  0  0  0  0  0  0  0  0  0
    1.6641    2.3733    0.0000 H   0  0  0  0  0  0  0  0  0  0  0  0
    1.1291    3.2999    0.0000 H   0  0  0  0  0  0  0  0  0  0  0  0
    4.3841    2.3733    0.0000 H   0  0  0  0  0  0  0  0  0  0  0  0
    4.3841    4.2265    0.0000 H   0  0  0  0  0  0  0  0  0  0  0  0
    4.9191    3.2999    0.0000 H   0  0  0  0  0  0  0  0  0  0  0  0
    3.9507    4.6600    0.0000 H   0  0  0  0  0  0  0  0  0  0  0  0
    2.0975    4.6600    0.0000 H   0  0  0  0  0  0  0  0  0  0  0  0
    3.0241    5.1950    0.0000 H   0  0  0  0  0  0  0  0  0  0  0  0
   -0.0130   -4.2285    0.0000 H   0  0  0  0  0  0  0  0  0  0  0  0
   -1.2627   -1.4050    0.0000 H   0  0  0  0  0  0  0  0  0  0  0  0
   -0.3361   -1.9400    0.0000 H   0  0  0  0  0  0  0  0  0  0  0  0
  1 19  2  0  0  0  0
  2 22  2  0  0  0  0
  3 27  1  0  0  0  0
  3 37  1  0  0  0  0
  4 27  2  0  0  0  0
  5 28  2  0  0  0  0
  6 13  1  0  0  0  0
  6 14  1  0  0  0  0
  6 19  1  0  0  0  0
  7 15  1  0  0  0  0
  7 16  1  0  0  0  0
  7 22  1  0  0  0  0
  8 19  1  0  0  0  0
  8 31  1  0  0  0  0
  9 20  1  0  0  0  0
  9 22  1  0  0  0  0
  9 32  1  0  0  0  0
 10 29  1  0  0  0  0
 10 30  2  0  0  0  0
 11 30  1  0  0  0  0
 11 33  1  0  0  0  0
 11 34  1  0  0  0  0
 12 30  1  0  0  0  0
 12 35  1  0  0  0  0
 12 36  1  0  0  0  0
 13 15  1  0  0  0  0
 13 38  1  0  0  0  0
 13 39  1  0  0  0  0
 14 16  1  0  0  0  0
 14 40  1  0  0  0  0
 14 41  1  0  0  0  0
 15 42  1  0  0  0  0
 15 43  1  0  0  0  0
 16 44  1  0  0  0  0
 16 45  1  0  0  0  0
 17 18  1  0  0  0  0
 17 21  1  0  0  0  0
 17 28  1  0  0  0  0
 17 46  1  1  0  0  0
 18  8  1  0  0  0  0
 18 27  1  0  0  0  0
 18 47  1  1  0  0  0
 20 24  1  0  0  0  0
 20 25  1  0  0  0  0
 20 26  1  0  0  0  0
 21 23  1  0  0  0  0
 21 48  1  0  0  0  0
 21 49  1  0  0  0  0
 23 29  1  0  0  0  0
 23 50  1  0  0  0  0
 23 51  1  0  0  0  0
 24 52  1  0  0  0  0
 24 53  1  0  0  0  0
 24 54  1  0  0  0  0
 25 55  1  0  0  0  0
 25 56  1  0  0  0  0
 25 57  1  0  0  0  0
 26 58  1  0  0  0  0
 26 59  1  0  0  0  0
 26 60  1  0  0  0  0
 28 61  1  0  0  0  0
 29 62  1  0  0  0  0
 29 63  1  0  0  0  0
M  END
>  <DRUGBANK_ID>
DB03417

>  <SECONDARY_ACCESSION_NUMBERS>
EXPT00047

>  <COMMON_NAME>
(2S,3R)-2-[[4-(Tert-butylcarbamoyl)piperazine-1-carbonyl]amino]-6-(diaminomethylideneamino)-3-formylhexanoic acid

$$$$
