
 OpenBabel10282417072D

 74 77  0  0  0  0  0  0  0  0999 V2000
   18.8497   -5.3426    0.0000 N   0  0  0  0  0  0  0  0  0  0  0  0
   18.8497   -6.1676    0.0000 C   0  0  0  0  0  0  0  0  0  0  0  0
   18.1352   -4.9301    0.0000 C   0  0  0  0  0  0  0  0  0  0  0  0
   18.1352   -6.5802    0.0000 N   0  0  0  0  0  0  0  0  0  0  0  0
   17.4207   -5.3426    0.0000 C   0  0  0  0  0  0  0  0  0  0  0  0
   17.4207   -6.1676    0.0000 C   0  0  0  0  0  0  0  0  0  0  0  0
   19.5678   -6.5726    0.0000 N   0  0  0  0  0  0  0  0  0  0  0  0
   16.7062   -6.5802    0.0000 N   0  0  0  0  0  0  0  0  0  0  0  0
   15.9918   -6.1676    0.0000 C   0  0  0  0  0  0  0  0  0  0  0  0
   15.2773   -6.5802    0.0000 C   0  0  0  0  0  0  0  0  0  0  0  0
   15.9918   -5.3426    0.0000 C   0  0  0  0  0  0  0  0  0  0  0  0
   14.5628   -6.1675    0.0000 C   0  0  0  0  0  0  0  0  0  0  0  0
   15.2773   -4.9301    0.0000 C   0  0  0  0  0  0  0  0  0  0  0  0
   14.5629   -5.3426    0.0000 C   0  0  0  0  0  0  0  0  0  0  0  0
   16.7062   -4.9301    0.0000 Cl  0  0  0  0  0  0  0  0  0  0  0  0
   19.5688   -7.3975    0.0000 C   0  0  0  0  0  0  0  0  0  0  0  0
   18.8549   -7.8108    0.0000 C   0  0  0  0  0  0  0  0  0  0  0  0
   20.2838   -7.8093    0.0000 C   0  0  0  0  0  0  0  0  0  0  0  0
   18.8557   -8.6359    0.0000 C   0  0  0  0  0  0  0  0  0  0  0  0
   20.2847   -8.6342    0.0000 C   0  0  0  0  0  0  0  0  0  0  0  0
   19.5707   -9.0477    0.0000 C   0  0  0  0  0  0  0  0  0  0  0  0
   19.5715   -9.8725    0.0000 C   0  0  0  0  0  0  0  0  0  0  0  0
   18.8575  -10.2858    0.0000 C   0  0  0  0  0  0  0  0  0  0  0  0
   20.2867  -10.2843    0.0000 C   0  0  0  0  0  0  0  0  0  0  0  0
   18.8586  -11.1109    0.0000 C   0  0  0  0  0  0  0  0  0  0  0  0
   20.2875  -11.1093    0.0000 C   0  0  0  0  0  0  0  0  0  0  0  0
   19.5735  -11.5226    0.0000 N   0  0  0  0  0  0  0  0  0  0  0  0
   20.9978   -7.3960    0.0000 O   0  0  0  0  0  0  0  0  0  0  0  0
   21.7127   -7.8078    0.0000 C   0  0  0  0  0  0  0  0  0  0  0  0
   18.1417   -9.0492    0.0000 C   0  0  0  0  0  0  0  0  0  0  0  0
   22.4267   -7.3945    0.0000 C   0  0  0  0  0  0  0  0  0  0  0  0
   21.7136   -8.6328    0.0000 C   0  0  0  0  0  0  0  0  0  0  0  0
   15.2773   -7.4052    0.0000 S   0  0  0  0  0  0  0  0  0  0  0  0
   14.5628   -7.8178    0.0000 C   0  0  0  0  0  0  0  0  0  0  0  0
   15.6898   -8.1197    0.0000 O   0  0  0  0  0  0  0  0  0  0  0  0
   16.1023   -7.4052    0.0000 O   0  0  0  0  0  0  0  0  0  0  0  0
   13.8483   -7.4053    0.0000 C   0  0  0  0  0  0  0  0  0  0  0  0
   14.5628   -8.6428    0.0000 C   0  0  0  0  0  0  0  0  0  0  0  0
   18.1352   -3.8981    0.0000 H   0  0  0  0  0  0  0  0  0  0  0  0
   20.4176   -6.0755    0.0000 H   0  0  0  0  0  0  0  0  0  0  0  0
   16.7062   -7.5647    0.0000 H   0  0  0  0  0  0  0  0  0  0  0  0
   16.8855   -4.8266    0.0000 H   0  0  0  0  0  0  0  0  0  0  0  0
   13.6690   -6.6834    0.0000 H   0  0  0  0  0  0  0  0  0  0  0  0
   15.2773   -3.8981    0.0000 H   0  0  0  0  0  0  0  0  0  0  0  0
   13.6692   -4.8266    0.0000 H   0  0  0  0  0  0  0  0  0  0  0  0
   17.9606   -7.2958    0.0000 H   0  0  0  0  0  0  0  0  0  0  0  0
   21.1791   -9.1491    0.0000 H   0  0  0  0  0  0  0  0  0  0  0  0
   20.4976   -9.3365    0.0000 H   0  0  0  0  0  0  0  0  0  0  0  0
   17.9302   -9.7519    0.0000 H   0  0  0  0  0  0  0  0  0  0  0  0
   17.9315  -10.8220    0.0000 H   0  0  0  0  0  0  0  0  0  0  0  0
   21.2128   -9.7483    0.0000 H   0  0  0  0  0  0  0  0  0  0  0  0
   21.2139  -10.8184    0.0000 H   0  0  0  0  0  0  0  0  0  0  0  0
   17.9326  -11.6470    0.0000 H   0  0  0  0  0  0  0  0  0  0  0  0
   18.8598  -12.1809    0.0000 H   0  0  0  0  0  0  0  0  0  0  0  0
   21.2147  -11.6433    0.0000 H   0  0  0  0  0  0  0  0  0  0  0  0
   20.2887  -12.1793    0.0000 H   0  0  0  0  0  0  0  0  0  0  0  0
   19.5746  -12.5426    0.0000 H   0  0  0  0  0  0  0  0  0  0  0  0
   22.6399   -8.3418    0.0000 H   0  0  0  0  0  0  0  0  0  0  0  0
   17.2145   -8.5152    0.0000 H   0  0  0  0  0  0  0  0  0  0  0  0
   18.1429  -10.1192    0.0000 H   0  0  0  0  0  0  0  0  0  0  0  0
   17.2157   -9.5852    0.0000 H   0  0  0  0  0  0  0  0  0  0  0  0
   23.3539   -7.9285    0.0000 H   0  0  0  0  0  0  0  0  0  0  0  0
   22.4255   -6.3245    0.0000 H   0  0  0  0  0  0  0  0  0  0  0  0
   23.3527   -6.8585    0.0000 H   0  0  0  0  0  0  0  0  0  0  0  0
   20.7875   -9.1688    0.0000 H   0  0  0  0  0  0  0  0  0  0  0  0
   22.6408   -9.1668    0.0000 H   0  0  0  0  0  0  0  0  0  0  0  0
   21.7148   -9.7028    0.0000 H   0  0  0  0  0  0  0  0  0  0  0  0
   13.6362   -8.3528    0.0000 H   0  0  0  0  0  0  0  0  0  0  0  0
   13.8483   -6.3353    0.0000 H   0  0  0  0  0  0  0  0  0  0  0  0
   12.9217   -7.9403    0.0000 H   0  0  0  0  0  0  0  0  0  0  0  0
   12.9216   -6.8703    0.0000 H   0  0  0  0  0  0  0  0  0  0  0  0
   13.6362   -9.1778    0.0000 H   0  0  0  0  0  0  0  0  0  0  0  0
   15.4894   -9.1778    0.0000 H   0  0  0  0  0  0  0  0  0  0  0  0
   14.5628   -9.7128    0.0000 H   0  0  0  0  0  0  0  0  0  0  0  0
  2  1  1  0  0  0  0
  2  7  1  0  0  0  0
  3  1  2  0  0  0  0
  3 39  1  0  0  0  0
  4  2  2  0  0  0  0
  5  3  1  0  0  0  0
  5 15  1  0  0  0  0
  6  4  1  0  0  0  0
  6  5  2  0  0  0  0
  6  8  1  0  0  0  0
  7 16  1  0  0  0  0
  7 40  1  0  0  0  0
  8  9  1  0  0  0  0
  8 41  1  0  0  0  0
 10  9  1  0  0  0  0
 10 33  1  0  0  0  0
 11  9  2  0  0  0  0
 11 42  1  0  0  0  0
 12 10  2  0  0  0  0
 12 43  1  0  0  0  0
 13 11  1  0  0  0  0
 13 44  1  0  0  0  0
 14 12  1  0  0  0  0
 14 13  2  0  0  0  0
 14 45  1  0  0  0  0
 17 16  1  0  0  0  0
 17 46  1  0  0  0  0
 18 16  2  0  0  0  0
 18 28  1  0  0  0  0
 19 17  2  0  0  0  0
 19 30  1  0  0  0  0
 20 18  1  0  0  0  0
 20 47  1  0  0  0  0
 21 19  1  0  0  0  0
 21 20  2  0  0  0  0
 21 22  1  0  0  0  0
 22 48  1  0  0  0  0
 23 22  1  0  0  0  0
 23 49  1  0  0  0  0
 23 50  1  0  0  0  0
 24 22  1  0  0  0  0
 24 51  1  0  0  0  0
 24 52  1  0  0  0  0
 25 23  1  0  0  0  0
 25 53  1  0  0  0  0
 25 54  1  0  0  0  0
 26 24  1  0  0  0  0
 26 55  1  0  0  0  0
 26 56  1  0  0  0  0
 27 25  1  0  0  0  0
 27 26  1  0  0  0  0
 27 57  1  0  0  0  0
 28 29  1  0  0  0  0
 29 31  1  0  0  0  0
 29 32  1  0  0  0  0
 29 58  1  0  0  0  0
 30 59  1  0  0  0  0
 30 60  1  0  0  0  0
 30 61  1  0  0  0  0
 31 62  1  0  0  0  0
 31 63  1  0  0  0  0
 31 64  1  0  0  0  0
 32 65  1  0  0  0  0
 32 66  1  0  0  0  0
 32 67  1  0  0  0  0
 33 34  1  0  0  0  0
 33 35  2  0  0  0  0
 33 36  2  0  0  0  0
 34 37  1  0  0  0  0
 34 38  1  0  0  0  0
 34 68  1  0  0  0  0
 37 69  1  0  0  0  0
 37 70  1  0  0  0  0
 37 71  1  0  0  0  0
 38 72  1  0  0  0  0
 38 73  1  0  0  0  0
 38 74  1  0  0  0  0
M  END
>  <DRUGBANK_ID>
DB09063

>  <COMMON_NAME>
Ceritinib

>  <CAS_NUMBER>
1032900-25-6

>  <UNII>
K418KG2GET

>  <SYNONYMS>
Ceritinib; CÃ©ritinib; Ceritinibum; N-{2-[(5-chloro-2-{[2-isopropoxy-5-methyl-4-(piperidin-4-yl)phenyl]amino}pyrimidin-4-yl)amino]phenyl}propane-2-sulfonamide

$$$$
