
 OpenBabel10282417072D

 17 16  0  0  0  0  0  0  0  0999 V2000
   -0.2063    0.7144    0.0000 C   0  0  0  0  0  0  0  0  0  0  0  0
    0.2062    0.0000    0.0000 C   0  0  1  0  0  0  0  0  0  0  0  0
    1.0318    0.0000    0.0000 O   0  0  0  0  0  0  0  0  0  0  0  0
   -0.2063   -0.7145    0.0000 C   0  0  2  0  0  0  0  0  0  0  0  0
   -1.0317   -0.7145    0.0000 O   0  0  0  0  0  0  0  0  0  0  0  0
    0.2062   -1.4289    0.0000 C   0  0  0  0  0  0  0  0  0  0  0  0
    1.0318   -1.4289    0.0000 O   0  0  0  0  0  0  0  0  0  0  0  0
   -1.0317    0.7144    0.0000 O   0  0  0  0  0  0  0  0  0  0  0  0
    0.2062    1.4289    0.0000 O   0  0  0  0  0  0  0  0  0  0  0  0
    0.7412    0.9267    0.0000 H   0  0  0  0  0  0  0  0  0  0  0  0
    1.5168   -0.8400    0.0000 H   0  0  0  0  0  0  0  0  0  0  0  0
   -0.7413    0.2121    0.0000 H   0  0  0  0  0  0  0  0  0  0  0  0
   -1.5167    0.1255    0.0000 H   0  0  0  0  0  0  0  0  0  0  0  0
   -0.3288   -2.3556    0.0000 H   0  0  0  0  0  0  0  0  0  0  0  0
    0.7412   -2.3555    0.0000 H   0  0  0  0  0  0  0  0  0  0  0  0
    1.5168   -2.2689    0.0000 H   0  0  0  0  0  0  0  0  0  0  0  0
    1.1432    1.4289    0.0000 H   0  0  0  0  0  0  0  0  0  0  0  0
  1  2  1  0  0  0  0
  1  8  2  0  0  0  0
  1  9  1  0  0  0  0
  2  3  1  0  0  0  0
  2  4  1  0  0  0  0
  2 10  1  6  0  0  0
  3 11  1  0  0  0  0
  4  5  1  0  0  0  0
  4  6  1  0  0  0  0
  4 12  1  6  0  0  0
  5 13  1  0  0  0  0
  6  7  1  0  0  0  0
  6 14  1  0  0  0  0
  6 15  1  0  0  0  0
  7 16  1  0  0  0  0
  9 17  1  0  0  0  0
M  END
>  <DRUGBANK_ID>
DB14228

>  <COMMON_NAME>
Threonic acid

>  <CAS_NUMBER>
3909-12-4

>  <UNII>
NTD0MI8XRT

>  <SYNONYMS>
2,3,4-Trihydroxy-(threo)-butanoic acid; DL-threonic acid; Threo-2,3,4-trihydroxybutyric acid

$$$$
