
 OpenBabel10282417072D

 57 58  0  0  0  0  0  0  0  0999 V2000
    3.6190   -1.0417    0.0000 C   0  0  1  0  0  0  0  0  0  0  0  0
    3.1341   -0.3743    0.0000 C   0  0  1  0  0  0  0  0  0  0  0  0
    2.3495   -0.6292    0.0000 O   0  0  0  0  0  0  0  0  0  0  0  0
    2.3495   -1.4542    0.0000 C   0  0  1  0  0  0  0  0  0  0  0  0
    3.1341   -1.7091    0.0000 C   0  0  1  0  0  0  0  0  0  0  0  0
    3.3891    0.4103    0.0000 N   0  0  0  0  0  0  0  0  0  0  0  0
    4.1960    0.5818    0.0000 C   0  0  0  0  0  0  0  0  0  0  0  0
    2.8370    1.0234    0.0000 C   0  0  0  0  0  0  0  0  0  0  0  0
    4.4440   -1.0417    0.0000 O   0  0  0  0  0  0  0  0  0  0  0  0
    4.4510    1.3664    0.0000 N   0  0  0  0  0  0  0  0  0  0  0  0
    4.7481   -0.0312    0.0000 O   0  0  0  0  0  0  0  0  0  0  0  0
    3.0920    1.8080    0.0000 C   0  0  0  0  0  0  0  0  0  0  0  0
    3.3891   -2.4938    0.0000 O   0  0  0  0  0  0  0  0  0  0  0  0
    3.8989    1.9795    0.0000 C   0  0  0  0  0  0  0  0  0  0  0  0
    4.1539    2.7641    0.0000 N   0  0  0  0  0  0  0  0  0  0  0  0
    1.6821   -1.9391    0.0000 C   0  0  0  0  0  0  0  0  0  0  0  0
    0.9676   -1.5266    0.0000 O   0  0  0  0  0  0  0  0  0  0  0  0
   -0.4613   -1.5266    0.0000 O   0  0  0  0  0  0  0  0  0  0  0  0
    0.2531   -2.7641    0.0000 O   0  0  0  0  0  0  0  0  0  0  0  0
   -1.1757   -2.7641    0.0000 O   0  0  0  0  0  0  0  0  0  0  0  0
   -1.1757   -1.9391    0.0000 P   0  0  3  0  0  0  0  0  0  0  0  0
   -1.1757   -1.1141    0.0000 O   0  5  0  0  0  0  0  0  0  0  0  0
    0.2531   -1.9391    0.0000 P   0  0  3  0  0  0  0  0  0  0  0  0
    0.2531   -1.1141    0.0000 O   0  0  0  0  0  0  0  0  0  0  0  0
   -1.8902   -1.5266    0.0000 O   0  0  0  0  0  0  0  0  0  0  0  0
   -2.6047   -1.9391    0.0000 C   0  0  0  0  0  0  0  0  0  0  0  0
   -3.3191   -1.5266    0.0000 C   0  0  0  0  0  0  0  0  0  0  0  0
   -4.0336   -2.7641    0.0000 C   0  0  0  0  0  0  0  0  0  0  0  0
   -4.7481   -2.3516    0.0000 C   0  0  0  0  0  0  0  0  0  0  0  0
   -4.0336   -1.9391    0.0000 N   0  3  0  0  0  0  0  0  0  0  0  0
   -4.7481   -1.5266    0.0000 C   0  0  0  0  0  0  0  0  0  0  0  0
    4.1048   -0.0883    0.0000 H   0  0  0  0  0  0  0  0  0  0  0  0
    4.1909   -0.2070    0.0000 H   0  0  0  0  0  0  0  0  0  0  0  0
    1.3961   -0.9684    0.0000 H   0  0  0  0  0  0  0  0  0  0  0  0
    4.1909   -1.8765    0.0000 H   0  0  0  0  0  0  0  0  0  0  0  0
    1.8275    0.8088    0.0000 H   0  0  0  0  0  0  0  0  0  0  0  0
    4.9290   -1.8817    0.0000 H   0  0  0  0  0  0  0  0  0  0  0  0
    2.4015    2.5750    0.0000 H   0  0  0  0  0  0  0  0  0  0  0  0
    2.7401   -3.2147    0.0000 H   0  0  0  0  0  0  0  0  0  0  0  0
    5.1169    2.9687    0.0000 H   0  0  0  0  0  0  0  0  0  0  0  0
    3.4952    3.4958    0.0000 H   0  0  0  0  0  0  0  0  0  0  0  0
    1.7381   -3.0076    0.0000 H   0  0  0  0  0  0  0  0  0  0  0  0
    0.7698   -2.4982    0.0000 H   0  0  0  0  0  0  0  0  0  0  0  0
    1.0931   -0.6291    0.0000 H   0  0  0  0  0  0  0  0  0  0  0  0
   -2.6047   -3.0091    0.0000 H   0  0  0  0  0  0  0  0  0  0  0  0
   -3.5314   -2.4741    0.0000 H   0  0  0  0  0  0  0  0  0  0  0  0
   -3.3191   -0.4566    0.0000 H   0  0  0  0  0  0  0  0  0  0  0  0
   -4.2457   -0.9916    0.0000 H   0  0  0  0  0  0  0  0  0  0  0  0
   -4.9602   -3.2991    0.0000 H   0  0  0  0  0  0  0  0  0  0  0  0
   -3.1070   -3.2991    0.0000 H   0  0  0  0  0  0  0  0  0  0  0  0
   -4.0336   -3.8341    0.0000 H   0  0  0  0  0  0  0  0  0  0  0  0
   -5.6747   -1.8166    0.0000 H   0  0  0  0  0  0  0  0  0  0  0  0
   -4.7481   -3.4216    0.0000 H   0  0  0  0  0  0  0  0  0  0  0  0
   -5.6748   -2.8866    0.0000 H   0  0  0  0  0  0  0  0  0  0  0  0
   -4.7481   -0.4566    0.0000 H   0  0  0  0  0  0  0  0  0  0  0  0
   -5.6747   -2.0616    0.0000 H   0  0  0  0  0  0  0  0  0  0  0  0
   -5.6748   -0.9916    0.0000 H   0  0  0  0  0  0  0  0  0  0  0  0
  1  9  1  0  0  0  0
  1  5  1  0  0  0  0
  1 32  1  1  0  0  0
  2  1  1  0  0  0  0
  2  6  1  0  0  0  0
  2  3  1  0  0  0  0
  2 33  1  6  0  0  0
  3  4  1  0  0  0  0
  4 16  1  0  0  0  0
  4  5  1  0  0  0  0
  4 34  1  6  0  0  0
  5 13  1  0  0  0  0
  5 35  1  1  0  0  0
  6  7  1  0  0  0  0
  6  8  1  0  0  0  0
  7 10  1  0  0  0  0
  7 11  2  0  0  0  0
  8 12  2  0  0  0  0
  8 36  1  0  0  0  0
  9 37  1  0  0  0  0
 10 14  2  0  0  0  0
 12 14  1  0  0  0  0
 12 38  1  0  0  0  0
 13 39  1  0  0  0  0
 14 15  1  0  0  0  0
 15 40  1  0  0  0  0
 15 41  1  0  0  0  0
 16 17  1  0  0  0  0
 16 42  1  0  0  0  0
 16 43  1  0  0  0  0
 17 23  1  0  0  0  0
 18 21  1  0  0  0  0
 21 20  2  0  0  0  0
 21 25  1  0  0  0  0
 21 22  1  0  0  0  0
 23 18  1  0  0  0  0
 23 19  2  0  0  0  0
 23 24  1  0  0  0  0
 24 44  1  0  0  0  0
 25 26  1  0  0  0  0
 26 27  1  0  0  0  0
 26 45  1  0  0  0  0
 26 46  1  0  0  0  0
 27 30  1  0  0  0  0
 27 47  1  0  0  0  0
 27 48  1  0  0  0  0
 28 49  1  0  0  0  0
 28 50  1  0  0  0  0
 28 51  1  0  0  0  0
 29 52  1  0  0  0  0
 29 53  1  0  0  0  0
 29 54  1  0  0  0  0
 30 28  1  0  0  0  0
 30 29  1  0  0  0  0
 30 31  1  0  0  0  0
 31 55  1  0  0  0  0
 31 56  1  0  0  0  0
 31 57  1  0  0  0  0
M  CHG  2  22  -1  30   1
M  END
>  <DRUGBANK_ID>
DB12153

>  <SECONDARY_ACCESSION_NUMBERS>
EXPT00867; DB04290

>  <COMMON_NAME>
Citicoline

>  <CAS_NUMBER>
987-78-0

>  <UNII>
536BQ2JVC7

>  <SYNONYMS>
CDP-choline; CDP-colina; citicolina; Citicoline; citidin difosfato de colina; Cytidine 5'-(choline diphosphate); Cytidine 5'-(cholinyl pyrophosphate); Cytidine 5'-diphosphocholine; Cytidine 5'-diphosphoric choline; Cytidine-5'-diphosphocholine

$$$$
