
 OpenBabel10282417072D

 61 63  0  0  0  0  0  0  0  0999 V2000
   -5.1260   -0.8294    0.0000 C   0  0  0  0  0  0  0  0  0  0  0  0
   -4.4116   -0.4169    0.0000 N   0  0  0  0  0  0  0  0  0  0  0  0
   -3.6971   -0.8294    0.0000 C   0  0  0  0  0  0  0  0  0  0  0  0
   -3.6971   -1.6544    0.0000 O   0  0  0  0  0  0  0  0  0  0  0  0
   -2.9826   -0.4169    0.0000 C   0  0  0  0  0  0  0  0  0  0  0  0
   -2.2682   -0.8294    0.0000 C   0  0  1  0  0  0  0  0  0  0  0  0
   -2.2682   -1.6544    0.0000 N   0  0  0  0  0  0  0  0  0  0  0  0
   -1.5537   -0.4169    0.0000 C   0  0  0  0  0  0  0  0  0  0  0  0
   -1.5537    0.4080    0.0000 O   0  0  0  0  0  0  0  0  0  0  0  0
   -0.8392   -0.8294    0.0000 N   0  0  0  0  0  0  0  0  0  0  0  0
   -0.1247   -0.4169    0.0000 C   0  0  1  0  0  0  0  0  0  0  0  0
    0.5896   -0.8294    0.0000 C   0  0  0  0  0  0  0  0  0  0  0  0
    0.5896   -1.6544    0.0000 O   0  0  0  0  0  0  0  0  0  0  0  0
    1.3041   -0.4169    0.0000 N   0  0  0  0  0  0  0  0  0  0  0  0
    2.0186   -0.8294    0.0000 C   0  0  1  0  0  0  0  0  0  0  0  0
    2.8155   -0.6159    0.0000 C   0  0  1  0  0  0  0  0  0  0  0  0
    3.5074   -0.1666    0.0000 S   0  0  0  0  0  0  0  0  0  0  0  0
    4.1485   -0.6858    0.0000 C   0  0  0  0  0  0  0  0  0  0  0  0
    4.5978    0.0060    0.0000 C   0  0  0  0  0  0  0  0  0  0  0  0
    4.8836   -1.0603    0.0000 C   0  0  0  0  0  0  0  0  0  0  0  0
    3.8528   -1.4560    0.0000 C   0  0  1  0  0  0  0  0  0  0  0  0
    3.0290   -1.4128    0.0000 N   0  0  0  0  0  0  0  0  0  0  0  0
    2.2321   -1.6263    0.0000 C   0  0  0  0  0  0  0  0  0  0  0  0
    1.8196   -2.3408    0.0000 O   0  0  0  0  0  0  0  0  0  0  0  0
    4.3022   -2.1479    0.0000 C   0  0  0  0  0  0  0  0  0  0  0  0
    5.1260   -2.1047    0.0000 O   0  0  0  0  0  0  0  0  0  0  0  0
    3.9276   -2.8830    0.0000 O   0  0  0  0  0  0  0  0  0  0  0  0
   -0.1247    0.4080    0.0000 C   0  0  0  0  0  0  0  0  0  0  0  0
   -0.8392    0.8205    0.0000 C   0  0  0  0  0  0  0  0  0  0  0  0
   -0.8392    1.6455    0.0000 C   0  0  0  0  0  0  0  0  0  0  0  0
   -0.1247    2.0580    0.0000 C   0  0  0  0  0  0  0  0  0  0  0  0
   -0.1247    2.8830    0.0000 O   0  0  0  0  0  0  0  0  0  0  0  0
    0.5896    1.6455    0.0000 C   0  0  0  0  0  0  0  0  0  0  0  0
    0.5896    0.8205    0.0000 C   0  0  0  0  0  0  0  0  0  0  0  0
   -6.0527   -0.2944    0.0000 H   0  0  0  0  0  0  0  0  0  0  0  0
   -5.1260   -1.8994    0.0000 H   0  0  0  0  0  0  0  0  0  0  0  0
   -6.0526   -1.3644    0.0000 H   0  0  0  0  0  0  0  0  0  0  0  0
   -4.4116    0.5676    0.0000 H   0  0  0  0  0  0  0  0  0  0  0  0
   -2.9826    0.6531    0.0000 H   0  0  0  0  0  0  0  0  0  0  0  0
   -2.0559    0.1181    0.0000 H   0  0  0  0  0  0  0  0  0  0  0  0
   -3.1949   -1.3644    0.0000 H   0  0  0  0  0  0  0  0  0  0  0  0
   -3.1515   -2.1644    0.0000 H   0  0  0  0  0  0  0  0  0  0  0  0
   -1.3849   -2.1644    0.0000 H   0  0  0  0  0  0  0  0  0  0  0  0
   -0.8392   -1.8139    0.0000 H   0  0  0  0  0  0  0  0  0  0  0  0
   -0.1248   -1.4869    0.0000 H   0  0  0  0  0  0  0  0  0  0  0  0
    1.3041    0.5676    0.0000 H   0  0  0  0  0  0  0  0  0  0  0  0
    2.1583    0.2314    0.0000 H   0  0  0  0  0  0  0  0  0  0  0  0
    2.2805   -1.5425    0.0000 H   0  0  0  0  0  0  0  0  0  0  0  0
    5.6663   -0.0500    0.0000 H   0  0  0  0  0  0  0  0  0  0  0  0
    4.1121    0.9594    0.0000 H   0  0  0  0  0  0  0  0  0  0  0  0
    5.1806    0.9034    0.0000 H   0  0  0  0  0  0  0  0  0  0  0  0
    4.9397   -2.1288    0.0000 H   0  0  0  0  0  0  0  0  0  0  0  0
    5.7809   -0.4775    0.0000 H   0  0  0  0  0  0  0  0  0  0  0  0
    5.8370   -1.5460    0.0000 H   0  0  0  0  0  0  0  0  0  0  0  0
    4.9169   -1.3441    0.0000 H   0  0  0  0  0  0  0  0  0  0  0  0
    5.6364   -2.8905    0.0000 H   0  0  0  0  0  0  0  0  0  0  0  0
   -1.7329    0.3045    0.0000 H   0  0  0  0  0  0  0  0  0  0  0  0
   -1.7329    2.1615    0.0000 H   0  0  0  0  0  0  0  0  0  0  0  0
    0.6868    3.3515    0.0000 H   0  0  0  0  0  0  0  0  0  0  0  0
    1.4834    2.1615    0.0000 H   0  0  0  0  0  0  0  0  0  0  0  0
    1.4834    0.3045    0.0000 H   0  0  0  0  0  0  0  0  0  0  0  0
  1  2  1  0  0  0  0
  1 35  1  0  0  0  0
  1 36  1  0  0  0  0
  1 37  1  0  0  0  0
  2  3  1  0  0  0  0
  2 38  1  0  0  0  0
  3  4  2  0  0  0  0
  3  5  1  0  0  0  0
  5 39  1  0  0  0  0
  5 40  1  0  0  0  0
  6  5  1  0  0  0  0
  6  7  1  0  0  0  0
  6  8  1  0  0  0  0
  6 41  1  1  0  0  0
  7 42  1  0  0  0  0
  7 43  1  0  0  0  0
  8  9  2  0  0  0  0
  8 10  1  0  0  0  0
 10 44  1  0  0  0  0
 11 10  1  0  0  0  0
 11 12  1  0  0  0  0
 11 28  1  0  0  0  0
 11 45  1  1  0  0  0
 12 13  2  0  0  0  0
 12 14  1  0  0  0  0
 14 46  1  0  0  0  0
 15 14  1  0  0  0  0
 15 16  1  0  0  0  0
 15 23  1  0  0  0  0
 15 47  1  6  0  0  0
 16 17  1  0  0  0  0
 16 22  1  0  0  0  0
 16 48  1  6  0  0  0
 17 18  1  0  0  0  0
 18 19  1  0  0  0  0
 18 20  1  0  0  0  0
 19 49  1  0  0  0  0
 19 50  1  0  0  0  0
 19 51  1  0  0  0  0
 20 52  1  0  0  0  0
 20 53  1  0  0  0  0
 20 54  1  0  0  0  0
 21 18  1  0  0  0  0
 21 22  1  0  0  0  0
 21 25  1  0  0  0  0
 21 55  1  1  0  0  0
 22 23  1  0  0  0  0
 23 24  2  0  0  0  0
 25 26  1  0  0  0  0
 25 27  2  0  0  0  0
 26 56  1  0  0  0  0
 28 29  2  0  0  0  0
 28 34  1  0  0  0  0
 29 30  1  0  0  0  0
 29 57  1  0  0  0  0
 30 31  2  0  0  0  0
 30 58  1  0  0  0  0
 31 32  1  0  0  0  0
 31 33  1  0  0  0  0
 32 59  1  0  0  0  0
 33 34  2  0  0  0  0
 33 60  1  0  0  0  0
 34 61  1  0  0  0  0
M  END
>  <DRUGBANK_ID>
DB13816

>  <COMMON_NAME>
Aspoxicillin

>  <CAS_NUMBER>
63358-49-6

>  <UNII>
0745KNO26J

>  <SYNONYMS>
Aspoxicillin

$$$$
