
 OpenBabel10282417072D

 37 39  0  0  1  0  0  0  0  0999 V2000
    2.3645    0.6188    0.0000 Cl  0  0  0  0  0  0  0  0  0  0  0  0
    6.7176   -1.6952    0.0000 S   0  0  0  0  0  0  0  0  0  0  0  0
    4.5080   -0.6188    0.0000 N   0  0  0  0  0  0  0  0  0  0  0  0
    4.5080   -1.4438    0.0000 C   0  0  0  0  0  0  0  0  0  0  0  0
    5.2224   -0.2063    0.0000 C   0  0  0  0  0  0  0  0  0  0  0  0
    3.7935   -0.2063    0.0000 C   0  0  1  0  0  0  0  0  0  0  0  0
    5.2224   -1.8563    0.0000 C   0  0  0  0  0  0  0  0  0  0  0  0
    5.9370   -0.6188    0.0000 C   0  0  0  0  0  0  0  0  0  0  0  0
    5.9370   -1.4438    0.0000 C   0  0  0  0  0  0  0  0  0  0  0  0
    3.0791   -0.6188    0.0000 C   0  0  0  0  0  0  0  0  0  0  0  0
    6.7176   -0.3674    0.0000 C   0  0  0  0  0  0  0  0  0  0  0  0
    7.1991   -1.0313    0.0000 C   0  0  0  0  0  0  0  0  0  0  0  0
    2.3645   -0.2063    0.0000 C   0  0  0  0  0  0  0  0  0  0  0  0
    3.0791   -1.4438    0.0000 C   0  0  0  0  0  0  0  0  0  0  0  0
    1.6500   -0.6188    0.0000 C   0  0  0  0  0  0  0  0  0  0  0  0
    2.3645   -1.8563    0.0000 C   0  0  0  0  0  0  0  0  0  0  0  0
    1.6500   -1.4438    0.0000 C   0  0  0  0  0  0  0  0  0  0  0  0
    3.7935    0.6187    0.0000 C   0  0  0  0  0  0  0  0  0  0  0  0
    3.0790    1.0312    0.0000 O   0  0  0  0  0  0  0  0  0  0  0  0
    4.5080    1.0312    0.0000 O   0  0  0  0  0  0  0  0  0  0  0  0
    5.2224    1.4437    0.0000 C   0  0  0  0  0  0  0  0  0  0  0  0
    4.0070   -1.0032    0.0000 H   0  0  0  0  0  0  0  0  0  0  0  0
    3.5813   -1.9788    0.0000 H   0  0  0  0  0  0  0  0  0  0  0  0
    4.5080   -2.5138    0.0000 H   0  0  0  0  0  0  0  0  0  0  0  0
    5.2223    0.8637    0.0000 H   0  0  0  0  0  0  0  0  0  0  0  0
    6.1490    0.3288    0.0000 H   0  0  0  0  0  0  0  0  0  0  0  0
    5.2223   -2.9263    0.0000 H   0  0  0  0  0  0  0  0  0  0  0  0
    6.1490   -2.3914    0.0000 H   0  0  0  0  0  0  0  0  0  0  0  0
    7.0382    0.6135    0.0000 H   0  0  0  0  0  0  0  0  0  0  0  0
    8.2311   -1.0313    0.0000 H   0  0  0  0  0  0  0  0  0  0  0  0
    3.9728   -1.9598    0.0000 H   0  0  0  0  0  0  0  0  0  0  0  0
    0.7563   -0.1028    0.0000 H   0  0  0  0  0  0  0  0  0  0  0  0
    2.3645   -2.8883    0.0000 H   0  0  0  0  0  0  0  0  0  0  0  0
    0.7563   -1.9598    0.0000 H   0  0  0  0  0  0  0  0  0  0  0  0
    6.1491    0.9087    0.0000 H   0  0  0  0  0  0  0  0  0  0  0  0
    5.2224    2.5137    0.0000 H   0  0  0  0  0  0  0  0  0  0  0  0
    6.1490    1.9787    0.0000 H   0  0  0  0  0  0  0  0  0  0  0  0
  1 13  1  0  0  0  0
  2  9  1  0  0  0  0
  2 12  1  0  0  0  0
  3  4  1  0  0  0  0
  3  5  1  0  0  0  0
  3  6  1  0  0  0  0
  4  7  1  0  0  0  0
  4 23  1  0  0  0  0
  4 24  1  0  0  0  0
  5  8  1  0  0  0  0
  5 25  1  0  0  0  0
  5 26  1  0  0  0  0
  6 10  1  0  0  0  0
  6 18  1  0  0  0  0
  6 22  1  6  0  0  0
  7  9  1  0  0  0  0
  7 27  1  0  0  0  0
  7 28  1  0  0  0  0
  8  9  2  0  0  0  0
  8 11  1  0  0  0  0
 10 13  1  0  0  0  0
 10 14  2  0  0  0  0
 11 12  2  0  0  0  0
 11 29  1  0  0  0  0
 12 30  1  0  0  0  0
 13 15  2  0  0  0  0
 14 16  1  0  0  0  0
 14 31  1  0  0  0  0
 15 17  1  0  0  0  0
 15 32  1  0  0  0  0
 16 17  2  0  0  0  0
 16 33  1  0  0  0  0
 17 34  1  0  0  0  0
 18 19  2  0  0  0  0
 18 20  1  0  0  0  0
 20 21  1  0  0  0  0
 21 35  1  0  0  0  0
 21 36  1  0  0  0  0
 21 37  1  0  0  0  0
M  END
>  <DRUGBANK_ID>
DB00758

>  <SECONDARY_ACCESSION_NUMBERS>
APRD00444

>  <COMMON_NAME>
Clopidogrel

>  <CAS_NUMBER>
113665-84-2

>  <UNII>
A74586SNO7

>  <SYNONYMS>
(+)-Clopidogrel; Clopidogrel; Clopidogrelum

$$$$
