DR4
 OpenBabel10282417072D

 54 54  0  0  0  0  0  0  0  0999 V2000
   -5.9724    0.1051    0.0000 C   0  0  0  0  0  0  0  0  0  0  0  0
   -5.2579    0.5176    0.0000 O   0  0  0  0  0  0  0  0  0  0  0  0
   -4.5433    0.1051    0.0000 C   0  0  0  0  0  0  0  0  0  0  0  0
   -4.5433   -0.7200    0.0000 O   0  0  0  0  0  0  0  0  0  0  0  0
   -3.8289    0.5176    0.0000 C   0  0  0  0  0  0  0  0  0  0  0  0
   -3.1143    0.1051    0.0000 C   0  0  0  0  0  0  0  0  0  0  0  0
   -2.3998    0.5176    0.0000 C   0  0  0  0  0  0  0  0  0  0  0  0
   -1.6852    0.1051    0.0000 C   0  0  0  0  0  0  0  0  0  0  0  0
   -0.9708    0.5176    0.0000 C   0  0  0  0  0  0  0  0  0  0  0  0
   -0.2562    0.1051    0.0000 C   0  0  0  0  0  0  0  0  0  0  0  0
    0.4583    0.5176    0.0000 C   0  0  0  0  0  0  0  0  0  0  0  0
    1.1728    0.1051    0.0000 C   0  0  0  0  0  0  0  0  0  0  0  0
    1.8873    0.5176    0.0000 O   0  0  0  0  0  0  0  0  0  0  0  0
    2.6019    0.1051    0.0000 C   0  0  2  0  0  0  0  0  0  0  0  0
    3.3164    0.5176    0.0000 O   0  0  0  0  0  0  0  0  0  0  0  0
    4.0309    0.1051    0.0000 C   0  0  2  0  0  0  0  0  0  0  0  0
    4.7455    0.5176    0.0000 C   0  0  0  0  0  0  0  0  0  0  0  0
    4.7455    1.3427    0.0000 O   0  0  0  0  0  0  0  0  0  0  0  0
    4.0309   -0.7200    0.0000 C   0  0  2  0  0  0  0  0  0  0  0  0
    4.7455   -1.1325    0.0000 O   0  0  0  0  0  0  0  0  0  0  0  0
    3.3164   -1.1325    0.0000 C   0  0  2  0  0  0  0  0  0  0  0  0
    3.3164   -1.9575    0.0000 O   0  0  0  0  0  0  0  0  0  0  0  0
    2.6019   -0.7200    0.0000 C   0  0  1  0  0  0  0  0  0  0  0  0
    1.8873   -1.1325    0.0000 O   0  0  0  0  0  0  0  0  0  0  0  0
    2.6019    0.6892    0.0000 H   0  0  0  0  0  0  0  0  0  0  0  0
    4.0309    0.6892    0.0000 H   0  0  0  0  0  0  0  0  0  0  0  0
    4.5366   -0.4279    0.0000 H   0  0  0  0  0  0  0  0  0  0  0  0
    3.8222   -1.4244    0.0000 H   0  0  0  0  0  0  0  0  0  0  0  0
    2.0962   -0.4279    0.0000 H   0  0  0  0  0  0  0  0  0  0  0  0
   -6.8990    0.6401    0.0000 H   0  0  0  0  0  0  0  0  0  0  0  0
   -5.9724   -0.9649    0.0000 H   0  0  0  0  0  0  0  0  0  0  0  0
   -6.8991   -0.4299    0.0000 H   0  0  0  0  0  0  0  0  0  0  0  0
   -3.8290    1.5876    0.0000 H   0  0  0  0  0  0  0  0  0  0  0  0
   -2.9023    1.0527    0.0000 H   0  0  0  0  0  0  0  0  0  0  0  0
   -3.1143   -0.9649    0.0000 H   0  0  0  0  0  0  0  0  0  0  0  0
   -2.1876   -0.4299    0.0000 H   0  0  0  0  0  0  0  0  0  0  0  0
   -2.3998    1.5876    0.0000 H   0  0  0  0  0  0  0  0  0  0  0  0
   -1.4732    1.0527    0.0000 H   0  0  0  0  0  0  0  0  0  0  0  0
   -1.6851   -0.9649    0.0000 H   0  0  0  0  0  0  0  0  0  0  0  0
   -0.7585   -0.4299    0.0000 H   0  0  0  0  0  0  0  0  0  0  0  0
   -0.9709    1.5876    0.0000 H   0  0  0  0  0  0  0  0  0  0  0  0
   -0.0442    1.0527    0.0000 H   0  0  0  0  0  0  0  0  0  0  0  0
   -0.2562   -0.9649    0.0000 H   0  0  0  0  0  0  0  0  0  0  0  0
    0.6705   -0.4299    0.0000 H   0  0  0  0  0  0  0  0  0  0  0  0
    0.4583    1.5876    0.0000 H   0  0  0  0  0  0  0  0  0  0  0  0
    1.3849    1.0526    0.0000 H   0  0  0  0  0  0  0  0  0  0  0  0
    1.1728   -0.9649    0.0000 H   0  0  0  0  0  0  0  0  0  0  0  0
    2.0994   -0.4299    0.0000 H   0  0  0  0  0  0  0  0  0  0  0  0
    5.6721   -0.0174    0.0000 H   0  0  0  0  0  0  0  0  0  0  0  0
    5.6722    1.0526    0.0000 H   0  0  0  0  0  0  0  0  0  0  0  0
    5.5855    1.8277    0.0000 H   0  0  0  0  0  0  0  0  0  0  0  0
    4.7456   -2.1025    0.0000 H   0  0  0  0  0  0  0  0  0  0  0  0
    2.4764   -2.4425    0.0000 H   0  0  0  0  0  0  0  0  0  0  0  0
    1.0473   -0.6474    0.0000 H   0  0  0  0  0  0  0  0  0  0  0  0
  1  2  1  0  0  0  0
  1 30  1  0  0  0  0
  1 31  1  0  0  0  0
  1 32  1  0  0  0  0
  2  3  1  0  0  0  0
  3  4  2  0  0  0  0
  3  5  1  0  0  0  0
  5  6  1  0  0  0  0
  5 33  1  0  0  0  0
  5 34  1  0  0  0  0
  6  7  1  0  0  0  0
  6 35  1  0  0  0  0
  6 36  1  0  0  0  0
  7  8  1  0  0  0  0
  7 37  1  0  0  0  0
  7 38  1  0  0  0  0
  8  9  1  0  0  0  0
  8 39  1  0  0  0  0
  8 40  1  0  0  0  0
  9 10  1  0  0  0  0
  9 41  1  0  0  0  0
  9 42  1  0  0  0  0
 10 11  1  0  0  0  0
 10 43  1  0  0  0  0
 10 44  1  0  0  0  0
 11 12  1  0  0  0  0
 11 45  1  0  0  0  0
 11 46  1  0  0  0  0
 12 13  1  0  0  0  0
 12 47  1  0  0  0  0
 12 48  1  0  0  0  0
 14 13  1  0  0  0  0
 14 15  1  0  0  0  0
 14 23  1  0  0  0  0
 14 25  1  1  0  0  0
 15 16  1  0  0  0  0
 16 17  1  0  0  0  0
 16 19  1  0  0  0  0
 16 26  1  1  0  0  0
 17 18  1  0  0  0  0
 17 49  1  0  0  0  0
 17 50  1  0  0  0  0
 18 51  1  0  0  0  0
 19 20  1  0  0  0  0
 19 21  1  0  0  0  0
 19 27  1  1  0  0  0
 20 52  1  0  0  0  0
 21 22  1  0  0  0  0
 21 23  1  0  0  0  0
 21 28  1  1  0  0  0
 22 53  1  0  0  0  0
 23 24  1  0  0  0  0
 23 29  1  6  0  0  0
 24 54  1  0  0  0  0
M  END
>  <DRUGBANK_ID>
DB04680

>  <COMMON_NAME>
GALACTOSE GREASE

$$$$
