
 OpenBabel10282417072D

 67 70  0  0  0  0  0  0  0  0999 V2000
   -1.4640   -1.9837    0.0000 C   0  0  0  0  0  0  0  0  0  0  0  0
   -2.1786   -2.3961    0.0000 C   0  0  0  0  0  0  0  0  0  0  0  0
   -2.8930   -1.9837    0.0000 C   0  0  0  0  0  0  0  0  0  0  0  0
   -3.6075   -2.3961    0.0000 C   0  0  0  0  0  0  0  0  0  0  0  0
   -4.3219   -1.1588    0.0000 C   0  0  0  0  0  0  0  0  0  0  0  0
   -3.6075   -0.7462    0.0000 C   0  0  0  0  0  0  0  0  0  0  0  0
   -1.4640    0.4912    0.0000 C   0  0  0  0  0  0  0  0  0  0  0  0
    0.5200   -0.3338    0.0000 C   0  0  0  0  0  0  0  0  0  0  0  0
    0.0350   -1.0012    0.0000 C   0  0  0  0  0  0  0  0  0  0  0  0
   -2.1786   -0.7462    0.0000 C   0  0  2  0  0  0  0  0  0  0  0  0
   -2.1786   -1.5712    0.0000 H   0  0  0  0  0  0  0  0  0  0  0  0
   -0.7495   -0.7462    0.0000 C   0  0  1  0  0  0  0  0  0  0  0  0
   -0.7495   -1.5712    0.0000 H   0  0  0  0  0  0  0  0  0  0  0  0
   -1.4640   -1.1588    0.0000 C   0  0  2  0  0  0  0  0  0  0  0  0
   -1.4640   -0.3338    0.0000 H   0  0  0  0  0  0  0  0  0  0  0  0
   -0.7495    0.0787    0.0000 C   0  0  1  0  0  0  0  0  0  0  0  0
    0.0350    0.3337    0.0000 C   0  0  1  0  0  0  0  0  0  0  0  0
   -4.3219   -1.9837    0.0000 C   0  0  0  0  0  0  0  0  0  0  0  0
   -5.0365   -2.3962    0.0000 O   0  0  0  0  0  0  0  0  0  0  0  0
   -2.1786    0.0787    0.0000 C   0  0  1  0  0  0  0  0  0  0  0  0
   -2.8931    0.4912    0.0000 O   0  0  0  0  0  0  0  0  0  0  0  0
    0.0350    1.1587    0.0000 C   0  0  0  0  0  0  0  0  0  0  0  0
   -0.6793    1.5712    0.0000 O   0  0  0  0  0  0  0  0  0  0  0  0
    0.7495    1.5712    0.0000 C   0  0  0  0  0  0  0  0  0  0  0  0
    1.4641    1.1587    0.0000 O   0  0  0  0  0  0  0  0  0  0  0  0
    0.7495    0.7461    0.0000 O   0  0  0  0  0  0  0  0  0  0  0  0
   -0.7495    0.9037    0.0000 C   0  0  0  0  0  0  0  0  0  0  0  0
   -2.8930   -1.1588    0.0000 C   0  0  2  0  0  0  0  0  0  0  0  0
   -2.8930   -0.3338    0.0000 C   0  0  0  0  0  0  0  0  0  0  0  0
    2.1786    1.5712    0.0000 C   0  0  0  0  0  0  0  0  0  0  0  0
    2.8931    1.1587    0.0000 C   0  0  0  0  0  0  0  0  0  0  0  0
    3.6075    1.5712    0.0000 C   0  0  0  0  0  0  0  0  0  0  0  0
    4.3220    1.1587    0.0000 C   0  0  0  0  0  0  0  0  0  0  0  0
    5.0365    1.5712    0.0000 O   0  0  0  0  0  0  0  0  0  0  0  0
    4.3220    0.3337    0.0000 O   0  0  0  0  0  0  0  0  0  0  0  0
    2.1786    2.3962    0.0000 O   0  0  0  0  0  0  0  0  0  0  0  0
   -0.5374   -2.5188    0.0000 H   0  0  0  0  0  0  0  0  0  0  0  0
   -1.4641   -3.0537    0.0000 H   0  0  0  0  0  0  0  0  0  0  0  0
   -2.1787   -3.4661    0.0000 H   0  0  0  0  0  0  0  0  0  0  0  0
   -3.1052   -2.9311    0.0000 H   0  0  0  0  0  0  0  0  0  0  0  0
   -3.6075   -3.4281    0.0000 H   0  0  0  0  0  0  0  0  0  0  0  0
   -5.2486   -0.6239    0.0000 H   0  0  0  0  0  0  0  0  0  0  0  0
   -4.3220   -0.0888    0.0000 H   0  0  0  0  0  0  0  0  0  0  0  0
   -3.6075    0.3238    0.0000 H   0  0  0  0  0  0  0  0  0  0  0  0
   -2.6808   -0.2112    0.0000 H   0  0  0  0  0  0  0  0  0  0  0  0
   -1.4640    1.5612    0.0000 H   0  0  0  0  0  0  0  0  0  0  0  0
   -0.5373    1.0262    0.0000 H   0  0  0  0  0  0  0  0  0  0  0  0
    1.5900   -0.3338    0.0000 H   0  0  0  0  0  0  0  0  0  0  0  0
    1.0057   -1.2872    0.0000 H   0  0  0  0  0  0  0  0  0  0  0  0
    0.3655   -2.0189    0.0000 H   0  0  0  0  0  0  0  0  0  0  0  0
   -0.7217   -1.7577    0.0000 H   0  0  0  0  0  0  0  0  0  0  0  0
   -3.1052   -0.4563    0.0000 H   0  0  0  0  0  0  0  0  0  0  0  0
   -2.8931    1.4612    0.0000 H   0  0  0  0  0  0  0  0  0  0  0  0
    0.7495    2.6412    0.0000 H   0  0  0  0  0  0  0  0  0  0  0  0
    1.6761    2.1063    0.0000 H   0  0  0  0  0  0  0  0  0  0  0  0
    1.5895    0.2610    0.0000 H   0  0  0  0  0  0  0  0  0  0  0  0
    0.1771    1.4387    0.0000 H   0  0  0  0  0  0  0  0  0  0  0  0
   -1.6761    1.4387    0.0000 H   0  0  0  0  0  0  0  0  0  0  0  0
   -0.7495    1.9737    0.0000 H   0  0  0  0  0  0  0  0  0  0  0  0
   -1.9664    0.2012    0.0000 H   0  0  0  0  0  0  0  0  0  0  0  0
   -3.8196    0.2012    0.0000 H   0  0  0  0  0  0  0  0  0  0  0  0
   -2.8930    0.7362    0.0000 H   0  0  0  0  0  0  0  0  0  0  0  0
    2.8931    0.0887    0.0000 H   0  0  0  0  0  0  0  0  0  0  0  0
    3.8198    0.6237    0.0000 H   0  0  0  0  0  0  0  0  0  0  0  0
    3.6075    2.6412    0.0000 H   0  0  0  0  0  0  0  0  0  0  0  0
    4.5341    2.1062    0.0000 H   0  0  0  0  0  0  0  0  0  0  0  0
    5.8480    1.1027    0.0000 H   0  0  0  0  0  0  0  0  0  0  0  0
  1  2  1  0  0  0  0
  1 37  1  0  0  0  0
  1 38  1  0  0  0  0
  2  3  1  0  0  0  0
  2 39  1  0  0  0  0
  2 40  1  0  0  0  0
  3  4  2  0  0  0  0
  3 28  1  0  0  0  0
  4 18  1  0  0  0  0
  4 41  1  0  0  0  0
  5  6  1  0  0  0  0
  5 42  1  0  0  0  0
  5 43  1  0  0  0  0
  6 28  1  0  0  0  0
  6 44  1  0  0  0  0
  6 45  1  0  0  0  0
  7 16  1  0  0  0  0
  7 46  1  0  0  0  0
  7 47  1  0  0  0  0
  8  9  1  0  0  0  0
  8 48  1  0  0  0  0
  8 49  1  0  0  0  0
  9 12  1  0  0  0  0
  9 50  1  0  0  0  0
  9 51  1  0  0  0  0
 10 20  1  0  0  0  0
 10 11  1  6  0  0  0
 12 13  1  6  0  0  0
 14  1  1  0  0  0  0
 14 10  1  0  0  0  0
 14 12  1  0  0  0  0
 14 15  1  1  0  0  0
 16 17  1  0  0  0  0
 16 12  1  0  0  0  0
 16 27  1  1  0  0  0
 17  8  1  0  0  0  0
 17 26  1  6  0  0  0
 17 22  1  0  0  0  0
 18  5  1  0  0  0  0
 18 19  2  0  0  0  0
 20  7  1  0  0  0  0
 20 21  1  0  0  0  0
 20 52  1  6  0  0  0
 21 53  1  0  0  0  0
 22 24  1  0  0  0  0
 22 23  2  0  0  0  0
 24 25  1  0  0  0  0
 24 54  1  0  0  0  0
 24 55  1  0  0  0  0
 25 30  1  0  0  0  0
 26 56  1  0  0  0  0
 27 57  1  0  0  0  0
 27 58  1  0  0  0  0
 27 59  1  0  0  0  0
 28 10  1  0  0  0  0
 28 29  1  1  0  0  0
 29 60  1  0  0  0  0
 29 61  1  0  0  0  0
 29 62  1  0  0  0  0
 30 31  1  0  0  0  0
 30 36  2  0  0  0  0
 31 32  1  0  0  0  0
 31 63  1  0  0  0  0
 31 64  1  0  0  0  0
 32 33  1  0  0  0  0
 32 65  1  0  0  0  0
 32 66  1  0  0  0  0
 33 34  1  0  0  0  0
 33 35  2  0  0  0  0
 34 67  1  0  0  0  0
M  END
>  <DRUGBANK_ID>
DB14545

>  <COMMON_NAME>
Hydrocortisone succinate

>  <CAS_NUMBER>
2203-97-6

>  <UNII>
IHV1VP592V

>  <SYNONYMS>
Cortisol 21-(hydrogen succinate); Cortisol succinate; Hydrocortisone hemisuccinate anhydrous; Hydrocortisone hydrogen succinate; Hydrocortisone succinate; Hydroxycortisone succinate

$$$$
