
 OpenBabel10282417072D

 48 49  0  0  0  0  0  0  0  0999 V2000
    4.2717   -0.7282    0.0000 C   0  0  0  0  0  0  0  0  0  0  0  0
   -4.2717    0.0442    0.0000 C   0  0  0  0  0  0  0  0  0  0  0  0
   -3.5572    1.2817    0.0000 C   0  0  0  0  0  0  0  0  0  0  0  0
    1.7653    1.1867    0.0000 C   0  0  0  0  0  0  0  0  0  0  0  0
   -2.3477    1.7014    0.0000 C   0  0  0  0  0  0  0  0  0  0  0  0
   -1.0838    1.7014    0.0000 C   0  0  0  0  0  0  0  0  0  0  0  0
    3.4512   -0.8145    0.0000 C   0  0  0  0  0  0  0  0  0  0  0  0
    2.9663   -0.1470    0.0000 C   0  0  0  0  0  0  0  0  0  0  0  0
   -2.8427    0.0442    0.0000 C   0  0  0  0  0  0  0  0  0  0  0  0
    0.9263   -0.7762    0.0000 C   0  0  0  0  0  0  0  0  0  0  0  0
   -3.5572    0.4567    0.0000 C   0  0  0  0  0  0  0  0  0  0  0  0
    1.5937    0.3797    0.0000 C   0  0  0  0  0  0  0  0  0  0  0  0
    2.1458   -0.2333    0.0000 C   0  0  0  0  0  0  0  0  0  0  0  0
   -2.1282    0.4567    0.0000 C   0  0  3  0  0  0  0  0  0  0  0  0
    1.7333   -0.9478    0.0000 C   0  0  0  0  0  0  0  0  0  0  0  0
    0.8401    0.0442    0.0000 C   0  0  3  0  0  0  0  0  0  0  0  0
   -1.3032    0.4567    0.0000 C   0  0  3  0  0  0  0  0  0  0  0  0
   -0.5888    0.0442    0.0000 C   0  0  0  0  0  0  0  0  0  0  0  0
   -1.7157    1.1711    0.0000 C   0  0  0  0  0  0  0  0  0  0  0  0
    2.0688   -1.7014    0.0000 O   0  0  0  0  0  0  0  0  0  0  0  0
   -0.5888   -0.7807    0.0000 O   0  0  0  0  0  0  0  0  0  0  0  0
    0.1256    0.4567    0.0000 O   0  0  0  0  0  0  0  0  0  0  0  0
    4.8784   -1.5631    0.0000 H   0  0  0  0  0  0  0  0  0  0  0  0
    4.6914    0.2146    0.0000 H   0  0  0  0  0  0  0  0  0  0  0  0
   -5.1983    0.5792    0.0000 H   0  0  0  0  0  0  0  0  0  0  0  0
   -4.2717   -1.0258    0.0000 H   0  0  0  0  0  0  0  0  0  0  0  0
   -5.1984   -0.4908    0.0000 H   0  0  0  0  0  0  0  0  0  0  0  0
   -2.6306    1.8167    0.0000 H   0  0  0  0  0  0  0  0  0  0  0  0
   -4.4838    1.8167    0.0000 H   0  0  0  0  0  0  0  0  0  0  0  0
   -3.5572    2.3517    0.0000 H   0  0  0  0  0  0  0  0  0  0  0  0
    2.7830    1.5173    0.0000 H   0  0  0  0  0  0  0  0  0  0  0  0
    0.9702    1.9027    0.0000 H   0  0  0  0  0  0  0  0  0  0  0  0
    1.9878    2.2333    0.0000 H   0  0  0  0  0  0  0  0  0  0  0  0
   -2.1619    2.7551    0.0000 H   0  0  0  0  0  0  0  0  0  0  0  0
   -3.3532    1.3354    0.0000 H   0  0  0  0  0  0  0  0  0  0  0  0
   -3.1674    2.3892    0.0000 H   0  0  0  0  0  0  0  0  0  0  0  0
   -0.0783    1.3355    0.0000 H   0  0  0  0  0  0  0  0  0  0  0  0
   -1.2697    2.7551    0.0000 H   0  0  0  0  0  0  0  0  0  0  0  0
   -0.2642    2.3892    0.0000 H   0  0  0  0  0  0  0  0  0  0  0  0
    3.0315   -1.7573    0.0000 H   0  0  0  0  0  0  0  0  0  0  0  0
    3.4015    0.8305    0.0000 H   0  0  0  0  0  0  0  0  0  0  0  0
    2.3373    0.7186    0.0000 H   0  0  0  0  0  0  0  0  0  0  0  0
   -2.8427   -0.9878    0.0000 H   0  0  0  0  0  0  0  0  0  0  0  0
    0.1311   -1.4921    0.0000 H   0  0  0  0  0  0  0  0  0  0  0  0
   -0.0726   -0.3927    0.0000 H   0  0  0  0  0  0  0  0  0  0  0  0
   -1.8513   -0.5768    0.0000 H   0  0  0  0  0  0  0  0  0  0  0  0
    1.7667   -0.4908    0.0000 H   0  0  0  0  0  0  0  0  0  0  0  0
   -1.5802   -0.5768    0.0000 H   0  0  0  0  0  0  0  0  0  0  0  0
  1 23  1  0  0  0  0
  1 24  1  0  0  0  0
  2 25  1  0  0  0  0
  2 26  1  0  0  0  0
  2 27  1  0  0  0  0
  3 28  1  0  0  0  0
  3 29  1  0  0  0  0
  3 30  1  0  0  0  0
  4 31  1  0  0  0  0
  4 32  1  0  0  0  0
  4 33  1  0  0  0  0
  5 34  1  0  0  0  0
  5 35  1  0  0  0  0
  5 36  1  0  0  0  0
  6 37  1  0  0  0  0
  6 38  1  0  0  0  0
  6 39  1  0  0  0  0
  7  1  2  0  0  0  0
  7 40  1  0  0  0  0
  8  7  1  0  0  0  0
  8 41  1  0  0  0  0
  8 42  1  0  0  0  0
  9 43  1  0  0  0  0
 10 44  1  0  0  0  0
 10 45  1  0  0  0  0
 11  2  1  0  0  0  0
 11  3  1  0  0  0  0
 11  9  2  0  0  0  0
 12  4  1  0  0  0  0
 13  8  1  0  0  0  0
 13 12  2  0  0  0  0
 14  9  1  0  0  0  0
 14 46  1  0  0  0  0
 15 10  1  0  0  0  0
 15 13  1  0  0  0  0
 16 10  1  0  0  0  0
 16 12  1  0  0  0  0
 16 47  1  0  0  0  0
 17 14  1  0  0  0  0
 17 48  1  0  0  0  0
 18 17  1  0  0  0  0
 19  5  1  0  0  0  0
 19  6  1  0  0  0  0
 19 14  1  0  0  0  0
 19 17  1  0  0  0  0
 20 15  2  0  0  0  0
 21 18  2  0  0  0  0
 22 16  1  0  0  0  0
 22 18  1  0  0  0  0
M  END
>  <DRUGBANK_ID>
DB13746

>  <COMMON_NAME>
Bioallethrin

>  <CAS_NUMBER>
584-79-2

>  <UNII>
0X03II877M

>  <SYNONYMS>
Depall√©thrine

$$$$
