
 OpenBabel10282417072D

 87 91  0  0  0  0  0  0  0  0999 V2000
   -4.2868   -2.4750    0.0000 C   0  0  0  0  0  0  0  0  0  0  0  0
   -5.0013   -2.8875    0.0000 N   0  0  0  0  0  0  0  0  0  0  0  0
   -5.0013   -3.7125    0.0000 C   0  0  0  0  0  0  0  0  0  0  0  0
   -4.2868   -4.1250    0.0000 C   0  0  0  0  0  0  0  0  0  0  0  0
   -4.2868   -4.9500    0.0000 N   0  0  0  0  0  0  0  0  0  0  0  0
   -3.5724   -5.3625    0.0000 C   0  0  0  0  0  0  0  0  0  0  0  0
   -3.5724   -6.1875    0.0000 C   0  0  0  0  0  0  0  0  0  0  0  0
   -4.2868   -6.6000    0.0000 C   0  0  0  0  0  0  0  0  0  0  0  0
   -5.0013   -6.1875    0.0000 C   0  0  0  0  0  0  0  0  0  0  0  0
   -5.0013   -5.3625    0.0000 C   0  0  0  0  0  0  0  0  0  0  0  0
   -4.2868   -7.4250    0.0000 O   0  0  0  0  0  0  0  0  0  0  0  0
   -5.0013   -7.8375    0.0000 C   0  0  0  0  0  0  0  0  0  0  0  0
   -5.7158   -7.4250    0.0000 O   0  0  0  0  0  0  0  0  0  0  0  0
   -5.0013   -8.6625    0.0000 N   0  0  0  0  0  0  0  0  0  0  0  0
   -5.7158   -9.0750    0.0000 C   0  0  0  0  0  0  0  0  0  0  0  0
   -6.4302   -8.6625    0.0000 C   0  0  0  0  0  0  0  0  0  0  0  0
   -7.1447   -9.0750    0.0000 C   0  0  0  0  0  0  0  0  0  0  0  0
   -7.1447   -9.9000    0.0000 C   0  0  0  0  0  0  0  0  0  0  0  0
   -6.4302  -10.3125    0.0000 C   0  0  0  0  0  0  0  0  0  0  0  0
   -5.7158   -9.9000    0.0000 C   0  0  0  0  0  0  0  0  0  0  0  0
   -5.0013  -10.3125    0.0000 C   0  0  0  0  0  0  0  0  0  0  0  0
   -4.2868   -9.9000    0.0000 C   0  0  0  0  0  0  0  0  0  0  0  0
   -3.5724  -10.3125    0.0000 C   0  0  0  0  0  0  0  0  0  0  0  0
   -3.5724  -11.1375    0.0000 C   0  0  0  0  0  0  0  0  0  0  0  0
   -4.2868  -11.5500    0.0000 C   0  0  0  0  0  0  0  0  0  0  0  0
   -5.0013  -11.1375    0.0000 C   0  0  0  0  0  0  0  0  0  0  0  0
   -5.7158   -2.4750    0.0000 C   0  0  0  0  0  0  0  0  0  0  0  0
   -6.4302   -2.8875    0.0000 O   0  0  0  0  0  0  0  0  0  0  0  0
   -5.7158   -1.6500    0.0000 C   0  0  0  0  0  0  0  0  0  0  0  0
   -6.4302   -1.2375    0.0000 C   0  0  0  0  0  0  0  0  0  0  0  0
   -6.4302   -0.4125    0.0000 C   0  0  0  0  0  0  0  0  0  0  0  0
   -5.7158   -0.0000    0.0000 C   0  0  0  0  0  0  0  0  0  0  0  0
   -5.0013   -0.4125    0.0000 C   0  0  0  0  0  0  0  0  0  0  0  0
   -5.0013   -1.2375    0.0000 C   0  0  0  0  0  0  0  0  0  0  0  0
   -5.7158    0.8250    0.0000 C   0  0  0  0  0  0  0  0  0  0  0  0
   -6.4302    1.2375    0.0000 N   0  0  0  0  0  0  0  0  0  0  0  0
   -7.1447    0.8250    0.0000 C   0  0  0  0  0  0  0  0  0  0  0  0
   -7.8592    1.2375    0.0000 C   0  0  0  0  0  0  0  0  0  0  0  0
   -7.8592    2.0625    0.0000 C   0  0  0  0  0  0  0  0  0  0  0  0
   -7.1447    2.4750    0.0000 C   0  0  0  0  0  0  0  0  0  0  0  0
   -6.4302    2.0625    0.0000 C   0  0  0  0  0  0  0  0  0  0  0  0
   -8.5737    2.4750    0.0000 C   0  0  0  0  0  0  0  0  0  0  0  0
   -9.2881    2.0625    0.0000 O   0  0  0  0  0  0  0  0  0  0  0  0
   -8.5737    3.3000    0.0000 N   0  0  0  0  0  0  0  0  0  0  0  0
   -3.3602   -3.0100    0.0000 H   0  0  0  0  0  0  0  0  0  0  0  0
   -4.2868   -1.4050    0.0000 H   0  0  0  0  0  0  0  0  0  0  0  0
   -3.3601   -1.9400    0.0000 H   0  0  0  0  0  0  0  0  0  0  0  0
   -5.9279   -4.2475    0.0000 H   0  0  0  0  0  0  0  0  0  0  0  0
   -5.0013   -4.7825    0.0000 H   0  0  0  0  0  0  0  0  0  0  0  0
   -3.3602   -3.5900    0.0000 H   0  0  0  0  0  0  0  0  0  0  0  0
   -3.3602   -4.6600    0.0000 H   0  0  0  0  0  0  0  0  0  0  0  0
   -2.6457   -4.8275    0.0000 H   0  0  0  0  0  0  0  0  0  0  0  0
   -2.6458   -5.8975    0.0000 H   0  0  0  0  0  0  0  0  0  0  0  0
   -2.6457   -6.7225    0.0000 H   0  0  0  0  0  0  0  0  0  0  0  0
   -3.5724   -7.2575    0.0000 H   0  0  0  0  0  0  0  0  0  0  0  0
   -5.2134   -7.1350    0.0000 H   0  0  0  0  0  0  0  0  0  0  0  0
   -5.9279   -6.7225    0.0000 H   0  0  0  0  0  0  0  0  0  0  0  0
   -5.9279   -5.6525    0.0000 H   0  0  0  0  0  0  0  0  0  0  0  0
   -5.9279   -4.8275    0.0000 H   0  0  0  0  0  0  0  0  0  0  0  0
   -5.0013   -4.2925    0.0000 H   0  0  0  0  0  0  0  0  0  0  0  0
   -4.1487   -9.1548    0.0000 H   0  0  0  0  0  0  0  0  0  0  0  0
   -6.4302   -7.6305    0.0000 H   0  0  0  0  0  0  0  0  0  0  0  0
   -8.0384   -8.5590    0.0000 H   0  0  0  0  0  0  0  0  0  0  0  0
   -8.0384  -10.4160    0.0000 H   0  0  0  0  0  0  0  0  0  0  0  0
   -6.4302  -11.3445    0.0000 H   0  0  0  0  0  0  0  0  0  0  0  0
   -4.2868   -8.8680    0.0000 H   0  0  0  0  0  0  0  0  0  0  0  0
   -2.6787   -9.7965    0.0000 H   0  0  0  0  0  0  0  0  0  0  0  0
   -2.6787  -11.6535    0.0000 H   0  0  0  0  0  0  0  0  0  0  0  0
   -4.2868  -12.5820    0.0000 H   0  0  0  0  0  0  0  0  0  0  0  0
   -5.8950  -11.6535    0.0000 H   0  0  0  0  0  0  0  0  0  0  0  0
   -7.3239   -1.7535    0.0000 H   0  0  0  0  0  0  0  0  0  0  0  0
   -7.3239    0.1035    0.0000 H   0  0  0  0  0  0  0  0  0  0  0  0
   -4.1076    0.1035    0.0000 H   0  0  0  0  0  0  0  0  0  0  0  0
   -4.1076   -1.7535    0.0000 H   0  0  0  0  0  0  0  0  0  0  0  0
   -4.7891    1.3600    0.0000 H   0  0  0  0  0  0  0  0  0  0  0  0
   -5.7158    1.8950    0.0000 H   0  0  0  0  0  0  0  0  0  0  0  0
   -7.1447   -0.2450    0.0000 H   0  0  0  0  0  0  0  0  0  0  0  0
   -8.0713    0.2900    0.0000 H   0  0  0  0  0  0  0  0  0  0  0  0
   -8.7858    0.7025    0.0000 H   0  0  0  0  0  0  0  0  0  0  0  0
   -8.7858    1.7725    0.0000 H   0  0  0  0  0  0  0  0  0  0  0  0
   -7.8592    3.1325    0.0000 H   0  0  0  0  0  0  0  0  0  0  0  0
   -7.1447    3.5450    0.0000 H   0  0  0  0  0  0  0  0  0  0  0  0
   -6.2181    3.0100    0.0000 H   0  0  0  0  0  0  0  0  0  0  0  0
   -5.5036    2.5975    0.0000 H   0  0  0  0  0  0  0  0  0  0  0  0
   -5.5036    1.5275    0.0000 H   0  0  0  0  0  0  0  0  0  0  0  0
   -7.7211    3.7923    0.0000 H   0  0  0  0  0  0  0  0  0  0  0  0
   -9.4263    3.7922    0.0000 H   0  0  0  0  0  0  0  0  0  0  0  0
  1  2  1  0  0  0  0
  1 45  1  0  0  0  0
  1 46  1  0  0  0  0
  1 47  1  0  0  0  0
  2  3  1  0  0  0  0
  2 27  1  0  0  0  0
  3  4  1  0  0  0  0
  3 48  1  0  0  0  0
  3 49  1  0  0  0  0
  4  5  1  0  0  0  0
  4 50  1  0  0  0  0
  4 51  1  0  0  0  0
  5  6  1  0  0  0  0
  5 10  1  0  0  0  0
  6  7  1  0  0  0  0
  6 52  1  0  0  0  0
  6 53  1  0  0  0  0
  7  8  1  0  0  0  0
  7 54  1  0  0  0  0
  7 55  1  0  0  0  0
  8  9  1  0  0  0  0
  8 11  1  0  0  0  0
  8 56  1  0  0  0  0
  9 10  1  0  0  0  0
  9 57  1  0  0  0  0
  9 58  1  0  0  0  0
 10 59  1  0  0  0  0
 10 60  1  0  0  0  0
 11 12  1  0  0  0  0
 12 13  2  0  0  0  0
 12 14  1  0  0  0  0
 14 15  1  0  0  0  0
 14 61  1  0  0  0  0
 15 16  2  0  0  0  0
 15 20  1  0  0  0  0
 16 17  1  0  0  0  0
 16 62  1  0  0  0  0
 17 18  2  0  0  0  0
 17 63  1  0  0  0  0
 18 19  1  0  0  0  0
 18 64  1  0  0  0  0
 19 20  2  0  0  0  0
 19 65  1  0  0  0  0
 20 21  1  0  0  0  0
 21 22  2  0  0  0  0
 21 26  1  0  0  0  0
 22 23  1  0  0  0  0
 22 66  1  0  0  0  0
 23 24  2  0  0  0  0
 23 67  1  0  0  0  0
 24 25  1  0  0  0  0
 24 68  1  0  0  0  0
 25 26  2  0  0  0  0
 25 69  1  0  0  0  0
 26 70  1  0  0  0  0
 27 28  2  0  0  0  0
 27 29  1  0  0  0  0
 29 30  2  0  0  0  0
 29 34  1  0  0  0  0
 30 31  1  0  0  0  0
 30 71  1  0  0  0  0
 31 32  2  0  0  0  0
 31 72  1  0  0  0  0
 32 33  1  0  0  0  0
 32 35  1  0  0  0  0
 33 34  2  0  0  0  0
 33 73  1  0  0  0  0
 34 74  1  0  0  0  0
 35 36  1  0  0  0  0
 35 75  1  0  0  0  0
 35 76  1  0  0  0  0
 36 37  1  0  0  0  0
 36 41  1  0  0  0  0
 37 38  1  0  0  0  0
 37 77  1  0  0  0  0
 37 78  1  0  0  0  0
 38 39  1  0  0  0  0
 38 79  1  0  0  0  0
 38 80  1  0  0  0  0
 39 40  1  0  0  0  0
 39 42  1  0  0  0  0
 39 81  1  0  0  0  0
 40 41  1  0  0  0  0
 40 82  1  0  0  0  0
 40 83  1  0  0  0  0
 41 84  1  0  0  0  0
 41 85  1  0  0  0  0
 42 43  2  0  0  0  0
 42 44  1  0  0  0  0
 44 86  1  0  0  0  0
 44 87  1  0  0  0  0
M  END
>  <DRUGBANK_ID>
DB11855

>  <COMMON_NAME>
Revefenacin

>  <CAS_NUMBER>
864750-70-9

>  <UNII>
G2AE2VE07O

>  <SYNONYMS>
Revefenacin

$$$$
