
 OpenBabel10282417072D

 52 53  0  0  1  0  0  0  0  0999 V2000
   -2.0672   -0.1266    0.0000 C   0  0  0  0  0  0  0  0  0  0  0  0
   -2.3221    0.6580    0.0000 C   0  0  2  0  0  0  0  0  0  0  0  0
   -2.7346    1.3725    0.0000 C   0  0  0  0  0  0  0  0  0  0  0  0
   -2.1826    1.9856    0.0000 S   0  0  0  0  0  0  0  0  0  0  0  0
   -1.4289    1.6500    0.0000 C   0  0  0  0  0  0  0  0  0  0  0  0
   -1.5152    0.8295    0.0000 N   0  0  0  0  0  0  0  0  0  0  0  0
   -0.7145    2.0625    0.0000 C   0  0  0  0  0  0  0  0  0  0  0  0
   -0.7145    2.8875    0.0000 C   0  0  0  0  0  0  0  0  0  0  0  0
   -0.0000    3.3000    0.0000 C   0  0  0  0  0  0  0  0  0  0  0  0
    0.7145    2.8875    0.0000 C   0  0  0  0  0  0  0  0  0  0  0  0
    0.7145    2.0625    0.0000 C   0  0  0  0  0  0  0  0  0  0  0  0
   -0.0000    1.6500    0.0000 C   0  0  0  0  0  0  0  0  0  0  0  0
   -0.0000    0.8250    0.0000 O   0  0  0  0  0  0  0  0  0  0  0  0
    1.4289    1.6500    0.0000 O   0  0  0  0  0  0  0  0  0  0  0  0
    2.1434    2.0625    0.0000 C   0  0  0  0  0  0  0  0  0  0  0  0
    2.8579    1.6500    0.0000 C   0  0  0  0  0  0  0  0  0  0  0  0
    3.5724    2.0625    0.0000 O   0  0  0  0  0  0  0  0  0  0  0  0
    4.2868    1.6500    0.0000 C   0  0  0  0  0  0  0  0  0  0  0  0
    5.0013    2.0625    0.0000 C   0  0  0  0  0  0  0  0  0  0  0  0
    5.7158    1.6500    0.0000 O   0  0  0  0  0  0  0  0  0  0  0  0
    6.4302    2.0625    0.0000 C   0  0  0  0  0  0  0  0  0  0  0  0
    7.1447    1.6500    0.0000 C   0  0  0  0  0  0  0  0  0  0  0  0
    7.8592    2.0625    0.0000 O   0  0  0  0  0  0  0  0  0  0  0  0
    8.5737    1.6500    0.0000 C   0  0  0  0  0  0  0  0  0  0  0  0
   -3.0758    0.3224    0.0000 C   0  0  0  0  0  0  0  0  0  0  0  0
   -3.1621   -0.4980    0.0000 O   0  0  0  0  0  0  0  0  0  0  0  0
   -3.7433    0.8074    0.0000 O   0  0  0  0  0  0  0  0  0  0  0  0
   -2.7832   -0.9217    0.0000 H   0  0  0  0  0  0  0  0  0  0  0  0
   -1.0206   -0.3491    0.0000 H   0  0  0  0  0  0  0  0  0  0  0  0
   -1.7366   -1.1442    0.0000 H   0  0  0  0  0  0  0  0  0  0  0  0
   -3.7987    1.4843    0.0000 H   0  0  0  0  0  0  0  0  0  0  0  0
   -3.1181    2.3714    0.0000 H   0  0  0  0  0  0  0  0  0  0  0  0
   -1.6082    3.4035    0.0000 H   0  0  0  0  0  0  0  0  0  0  0  0
    0.0000    4.3320    0.0000 H   0  0  0  0  0  0  0  0  0  0  0  0
    1.6082    3.4035    0.0000 H   0  0  0  0  0  0  0  0  0  0  0  0
   -0.8115    0.3565    0.0000 H   0  0  0  0  0  0  0  0  0  0  0  0
    2.1434    3.1325    0.0000 H   0  0  0  0  0  0  0  0  0  0  0  0
    3.0700    2.5975    0.0000 H   0  0  0  0  0  0  0  0  0  0  0  0
    2.8579    0.5800    0.0000 H   0  0  0  0  0  0  0  0  0  0  0  0
    3.7845    1.1150    0.0000 H   0  0  0  0  0  0  0  0  0  0  0  0
    4.2868    0.5800    0.0000 H   0  0  0  0  0  0  0  0  0  0  0  0
    5.2134    1.1150    0.0000 H   0  0  0  0  0  0  0  0  0  0  0  0
    5.0013    3.1325    0.0000 H   0  0  0  0  0  0  0  0  0  0  0  0
    5.9279    2.5975    0.0000 H   0  0  0  0  0  0  0  0  0  0  0  0
    6.4302    3.1325    0.0000 H   0  0  0  0  0  0  0  0  0  0  0  0
    7.3568    2.5975    0.0000 H   0  0  0  0  0  0  0  0  0  0  0  0
    7.1447    0.5800    0.0000 H   0  0  0  0  0  0  0  0  0  0  0  0
    8.0713    1.1150    0.0000 H   0  0  0  0  0  0  0  0  0  0  0  0
    8.5737    0.5800    0.0000 H   0  0  0  0  0  0  0  0  0  0  0  0
    9.5003    2.1850    0.0000 H   0  0  0  0  0  0  0  0  0  0  0  0
    9.5004    1.1150    0.0000 H   0  0  0  0  0  0  0  0  0  0  0  0
   -3.6453    1.7393    0.0000 H   0  0  0  0  0  0  0  0  0  0  0  0
  1 28  1  0  0  0  0
  1 29  1  0  0  0  0
  1 30  1  0  0  0  0
  2  1  1  0  0  0  0
  2  3  1  0  0  0  0
  2  6  1  0  0  0  0
  2 25  1  1  0  0  0
  3  4  1  0  0  0  0
  3 31  1  0  0  0  0
  3 32  1  0  0  0  0
  4  5  1  0  0  0  0
  5  6  2  0  0  0  0
  5  7  1  0  0  0  0
  7  8  2  0  0  0  0
  7 12  1  0  0  0  0
  8  9  1  0  0  0  0
  8 33  1  0  0  0  0
  9 10  2  0  0  0  0
  9 34  1  0  0  0  0
 10 11  1  0  0  0  0
 10 35  1  0  0  0  0
 11 12  2  0  0  0  0
 11 14  1  0  0  0  0
 12 13  1  0  0  0  0
 13 36  1  0  0  0  0
 14 15  1  0  0  0  0
 15 16  1  0  0  0  0
 15 37  1  0  0  0  0
 15 38  1  0  0  0  0
 16 17  1  0  0  0  0
 16 39  1  0  0  0  0
 16 40  1  0  0  0  0
 17 18  1  0  0  0  0
 18 19  1  0  0  0  0
 18 41  1  0  0  0  0
 18 42  1  0  0  0  0
 19 20  1  0  0  0  0
 19 43  1  0  0  0  0
 19 44  1  0  0  0  0
 20 21  1  0  0  0  0
 21 22  1  0  0  0  0
 21 45  1  0  0  0  0
 21 46  1  0  0  0  0
 22 23  1  0  0  0  0
 22 47  1  0  0  0  0
 22 48  1  0  0  0  0
 23 24  1  0  0  0  0
 24 49  1  0  0  0  0
 24 50  1  0  0  0  0
 24 51  1  0  0  0  0
 25 26  2  0  0  0  0
 25 27  1  0  0  0  0
 27 52  1  0  0  0  0
M  END
>  <DRUGBANK_ID>
DB13120

>  <COMMON_NAME>
Deferitazole

>  <CAS_NUMBER>
945635-15-4

>  <UNII>
4D8DC53Y1L

>  <SYNONYMS>
Deferitazole

$$$$
