
 OpenBabel10282417072D

 26 25  0  0  0  0  0  0  0  0999 V2000
   -1.0110   -1.1887    0.0000 S   0  0  0  0  0  0  0  0  0  0  0  0
    2.1419   -0.0492    0.0000 S   0  0  0  0  0  0  0  0  0  0  0  0
   -0.7196    0.7689    0.0000 O   0  0  0  0  0  0  0  0  0  0  0  0
   -0.0042    1.1887    0.0000 O   0  0  0  0  0  0  0  0  0  0  0  0
    1.4266    1.1887    0.0000 O   0  0  0  0  0  0  0  0  0  0  0  0
   -0.0042   -0.4647    0.0000 N   0  0  0  0  0  0  0  0  0  0  0  0
   -1.4307   -0.4647    0.0000 C   0  0  0  0  0  0  0  0  0  0  0  0
   -0.7154   -0.0578    0.0000 C   0  0  0  0  0  0  0  0  0  0  0  0
    0.7111   -0.0536    0.0000 C   0  0  2  0  0  0  0  0  0  0  0  0
    0.7111    0.7732    0.0000 C   0  0  0  0  0  0  0  0  0  0  0  0
    1.4266   -0.4604    0.0000 C   0  0  0  0  0  0  0  0  0  0  0  0
   -2.1419   -0.0578    0.0000 C   0  0  0  0  0  0  0  0  0  0  0  0
   -1.8634   -1.1673    0.0000 C   0  0  0  0  0  0  0  0  0  0  0  0
   -1.6889   -2.3677    0.0000 H   0  0  0  0  0  0  0  0  0  0  0  0
    3.3184   -0.7314    0.0000 H   0  0  0  0  0  0  0  0  0  0  0  0
    2.2392    0.7222    0.0000 H   0  0  0  0  0  0  0  0  0  0  0  0
   -0.0032   -1.4492    0.0000 H   0  0  0  0  0  0  0  0  0  0  0  0
   -0.2150    0.4823    0.0000 H   0  0  0  0  0  0  0  0  0  0  0  0
    1.4291   -1.5304    0.0000 H   0  0  0  0  0  0  0  0  0  0  0  0
    0.5024   -0.9996    0.0000 H   0  0  0  0  0  0  0  0  0  0  0  0
   -2.1461    1.0122    0.0000 H   0  0  0  0  0  0  0  0  0  0  0  0
   -3.0664   -0.5964    0.0000 H   0  0  0  0  0  0  0  0  0  0  0  0
   -3.0706    0.4736    0.0000 H   0  0  0  0  0  0  0  0  0  0  0  0
   -2.9330   -1.1369    0.0000 H   0  0  0  0  0  0  0  0  0  0  0  0
   -1.3549   -2.1088    0.0000 H   0  0  0  0  0  0  0  0  0  0  0  0
   -2.4245   -2.0784    0.0000 H   0  0  0  0  0  0  0  0  0  0  0  0
  1  7  1  0  0  0  0
  1 14  1  0  0  0  0
  2 11  1  0  0  0  0
  2 15  1  0  0  0  0
  3  8  2  0  0  0  0
  4 10  2  0  0  0  0
  5 10  1  0  0  0  0
  5 16  1  0  0  0  0
  6  8  1  0  0  0  0
  6 17  1  0  0  0  0
  7  8  1  0  0  0  0
  7 12  1  0  0  0  0
  7 13  1  0  0  0  0
  9  6  1  0  0  0  0
  9 10  1  0  0  0  0
  9 11  1  0  0  0  0
  9 18  1  1  0  0  0
 11 19  1  0  0  0  0
 11 20  1  0  0  0  0
 12 21  1  0  0  0  0
 12 22  1  0  0  0  0
 12 23  1  0  0  0  0
 13 24  1  0  0  0  0
 13 25  1  0  0  0  0
 13 26  1  0  0  0  0
M  END
>  <DRUGBANK_ID>
DB12160

>  <COMMON_NAME>
Bucillamine

>  <CAS_NUMBER>
65002-17-7

>  <UNII>
R80LRA5WTF

>  <SYNONYMS>
Bucilamina; Bucillamine; Bucillaminum

$$$$
