
 OpenBabel10282417072D

107111  0  0  0  0  0  0  0  0999 V2000
    5.0957    1.6452    0.0000 S   0  0  0  0  0  0  0  0  0  0  0  0
   -3.5002    0.3421    0.0000 P   0  0  3  0  0  0  0  0  0  0  0  0
   -4.9215    0.1951    0.0000 P   0  0  3  0  0  0  0  0  0  0  0  0
   -7.4959    1.2180    0.0000 P   0  0  0  0  0  0  0  0  0  0  0  0
   -2.7470    0.0052    0.0000 O   0  0  0  0  0  0  0  0  0  0  0  0
   -1.1733   -0.2467    0.0000 O   0  0  0  0  0  0  0  0  0  0  0  0
   -0.2529    1.8107    0.0000 O   0  0  0  0  0  0  0  0  0  0  0  0
   -4.2532    0.6789    0.0000 O   0  0  0  0  0  0  0  0  0  0  0  0
   -3.1633    1.0952    0.0000 O   0  0  0  0  0  0  0  0  0  0  0  0
   -3.8370   -0.4110    0.0000 O   0  0  0  0  0  0  0  0  0  0  0  0
   -5.5898   -0.2885    0.0000 O   0  0  0  0  0  0  0  0  0  0  0  0
   -4.4378   -0.4730    0.0000 O   0  0  0  0  0  0  0  0  0  0  0  0
   -5.4053    0.8634    0.0000 O   0  0  0  0  0  0  0  0  0  0  0  0
   -7.0127   -1.2604    0.0000 O   0  0  0  0  0  0  0  0  0  0  0  0
    2.1681    2.1720    0.0000 O   0  0  0  0  0  0  0  0  0  0  0  0
   -8.0490    0.6058    0.0000 O   0  0  0  0  0  0  0  0  0  0  0  0
   -9.1065   -0.8443    0.0000 O   0  0  0  0  0  0  0  0  0  0  0  0
   -6.9428    1.8302    0.0000 O   0  0  0  0  0  0  0  0  0  0  0  0
   -8.1080    1.7711    0.0000 O   0  0  0  0  0  0  0  0  0  0  0  0
   -6.8837    0.6649    0.0000 O   0  0  0  0  0  0  0  0  0  0  0  0
    5.9336    0.4877    0.0000 O   0  0  0  0  0  0  0  0  0  0  0  0
    8.4371    4.0641    0.0000 O   0  0  0  0  0  0  0  0  0  0  0  0
   10.1130    1.7491    0.0000 O   0  0  0  0  0  0  0  0  0  0  0  0
    9.9434    3.3903    0.0000 O   0  0  0  0  0  0  0  0  0  0  0  0
    0.1632    0.7207    0.0000 N   0  0  0  0  0  0  0  0  0  0  0  0
    3.0060    1.0146    0.0000 N   0  0  0  0  0  0  0  0  0  0  0  0
   -8.0540   -2.2982    0.0000 N   0  0  0  0  0  0  0  0  0  0  0  0
   -8.0540   -3.6261    0.0000 N   0  0  0  0  0  0  0  0  0  0  0  0
   -9.5492   -2.1371    0.0000 N   0  0  0  0  0  0  0  0  0  0  0  0
  -10.2636   -3.3746    0.0000 N   0  0  0  0  0  0  0  0  0  0  0  0
   -9.5492   -4.6121    0.0000 N   0  0  0  0  0  0  0  0  0  0  0  0
   -1.7419    1.2421    0.0000 C   0  0  0  0  0  0  0  0  0  0  0  0
   -1.2581    0.5738    0.0000 C   0  0  3  0  0  0  0  0  0  0  0  0
   -2.0787    0.4890    0.0000 C   0  0  2  0  0  0  0  0  0  0  0  0
   -1.4050    1.9952    0.0000 C   0  0  0  0  0  0  0  0  0  0  0  0
   -2.4950    1.5789    0.0000 C   0  0  0  0  0  0  0  0  0  0  0  0
   -0.5898    1.0576    0.0000 C   0  0  0  0  0  0  0  0  0  0  0  0
    0.8315    1.2045    0.0000 C   0  0  0  0  0  0  0  0  0  0  0  0
    1.5846    0.8676    0.0000 C   0  0  0  0  0  0  0  0  0  0  0  0
    2.2529    1.3514    0.0000 C   0  0  0  0  0  0  0  0  0  0  0  0
   -7.0113   -0.4354    0.0000 C   0  0  1  0  0  0  0  0  0  0  0  0
   -7.7954   -0.1791    0.0000 C   0  0  2  0  0  0  0  0  0  0  0  0
   -6.3429    0.0483    0.0000 C   0  0  0  0  0  0  0  0  0  0  0  0
   -8.2814   -0.8458    0.0000 C   0  0  1  0  0  0  0  0  0  0  0  0
   -7.7977   -1.5140    0.0000 C   0  0  1  0  0  0  0  0  0  0  0  0
    3.6743    1.4983    0.0000 C   0  0  0  0  0  0  0  0  0  0  0  0
   -8.8347   -2.5496    0.0000 C   0  0  0  0  0  0  0  0  0  0  0  0
   -7.5725   -2.9621    0.0000 C   0  0  0  0  0  0  0  0  0  0  0  0
   -8.8347   -3.3746    0.0000 C   0  0  0  0  0  0  0  0  0  0  0  0
    4.4274    1.1614    0.0000 C   0  0  0  0  0  0  0  0  0  0  0  0
   -9.5492   -3.7871    0.0000 C   0  0  0  0  0  0  0  0  0  0  0  0
  -10.2636   -2.5496    0.0000 C   0  0  0  0  0  0  0  0  0  0  0  0
    5.8488    1.3083    0.0000 C   0  0  0  0  0  0  0  0  0  0  0  0
    6.5171    1.7921    0.0000 C   0  0  0  0  0  0  0  0  0  0  0  0
    7.2701    1.4553    0.0000 C   0  0  0  0  0  0  0  0  0  0  0  0
    7.9385    1.9391    0.0000 C   0  0  0  0  0  0  0  0  0  0  0  0
    8.6916    1.6021    0.0000 C   0  0  0  0  0  0  0  0  0  0  0  0
    7.8537    2.7596    0.0000 C   0  0  0  0  0  0  0  0  0  0  0  0
    8.5219    3.2434    0.0000 C   0  0  0  0  0  0  0  0  0  0  0  0
    9.3599    2.0859    0.0000 C   0  0  0  0  0  0  0  0  0  0  0  0
    9.2750    2.9066    0.0000 C   0  0  0  0  0  0  0  0  0  0  0  0
    7.6841    4.4009    0.0000 C   0  0  0  0  0  0  0  0  0  0  0  0
   10.1978    0.9284    0.0000 C   0  0  0  0  0  0  0  0  0  0  0  0
   -1.9590   -0.8155    0.0000 H   0  0  0  0  0  0  0  0  0  0  0  0
   -2.1984    1.1949    0.0000 H   0  0  0  0  0  0  0  0  0  0  0  0
   -4.8338   -1.3585    0.0000 H   0  0  0  0  0  0  0  0  0  0  0  0
   -9.5900   -0.0034    0.0000 H   0  0  0  0  0  0  0  0  0  0  0  0
   -5.9943    1.6269    0.0000 H   0  0  0  0  0  0  0  0  0  0  0  0
   -7.9046    2.7195    0.0000 H   0  0  0  0  0  0  0  0  0  0  0  0
   10.7987    3.0076    0.0000 H   0  0  0  0  0  0  0  0  0  0  0  0
    0.2644   -0.2586    0.0000 H   0  0  0  0  0  0  0  0  0  0  0  0
    3.1072    0.0353    0.0000 H   0  0  0  0  0  0  0  0  0  0  0  0
  -10.4018   -5.1044    0.0000 H   0  0  0  0  0  0  0  0  0  0  0  0
   -8.6966   -5.1044    0.0000 H   0  0  0  0  0  0  0  0  0  0  0  0
   -2.9091    1.1638    0.0000 H   0  0  0  0  0  0  0  0  0  0  0  0
   -0.3407    2.1052    0.0000 H   0  0  0  0  0  0  0  0  0  0  0  0
   -2.0324    2.8620    0.0000 H   0  0  0  0  0  0  0  0  0  0  0  0
   -0.9681    2.9719    0.0000 H   0  0  0  0  0  0  0  0  0  0  0  0
   -2.6051    2.6432    0.0000 H   0  0  0  0  0  0  0  0  0  0  0  0
   -3.3617    0.9514    0.0000 H   0  0  0  0  0  0  0  0  0  0  0  0
   -3.4718    2.0157    0.0000 H   0  0  0  0  0  0  0  0  0  0  0  0
    0.7215    2.2688    0.0000 H   0  0  0  0  0  0  0  0  0  0  0  0
    1.6983    1.8319    0.0000 H   0  0  0  0  0  0  0  0  0  0  0  0
    1.6946   -0.1967    0.0000 H   0  0  0  0  0  0  0  0  0  0  0  0
    2.5613    0.4307    0.0000 H   0  0  0  0  0  0  0  0  0  0  0  0
   -6.0588   -0.9229    0.0000 H   0  0  0  0  0  0  0  0  0  0  0  0
   -7.0375    0.5762    0.0000 H   0  0  0  0  0  0  0  0  0  0  0  0
   -6.4529    1.1126    0.0000 H   0  0  0  0  0  0  0  0  0  0  0  0
   -7.3196    0.4853    0.0000 H   0  0  0  0  0  0  0  0  0  0  0  0
   -8.7655    0.1084    0.0000 H   0  0  0  0  0  0  0  0  0  0  0  0
   -7.0424   -2.2719    0.0000 H   0  0  0  0  0  0  0  0  0  0  0  0
    3.5644    2.5626    0.0000 H   0  0  0  0  0  0  0  0  0  0  0  0
    4.5411    2.1257    0.0000 H   0  0  0  0  0  0  0  0  0  0  0  0
   -6.5405   -2.9621    0.0000 H   0  0  0  0  0  0  0  0  0  0  0  0
    4.5374    0.0971    0.0000 H   0  0  0  0  0  0  0  0  0  0  0  0
    3.5606    0.5340    0.0000 H   0  0  0  0  0  0  0  0  0  0  0  0
  -11.1573   -2.0336    0.0000 H   0  0  0  0  0  0  0  0  0  0  0  0
    6.4110    2.8186    0.0000 H   0  0  0  0  0  0  0  0  0  0  0  0
    7.3762    0.4288    0.0000 H   0  0  0  0  0  0  0  0  0  0  0  0
    8.7976    0.5756    0.0000 H   0  0  0  0  0  0  0  0  0  0  0  0
    6.9116    3.1809    0.0000 H   0  0  0  0  0  0  0  0  0  0  0  0
    7.5741    5.4652    0.0000 H   0  0  0  0  0  0  0  0  0  0  0  0
    6.8174    3.7734    0.0000 H   0  0  0  0  0  0  0  0  0  0  0  0
    6.7074    4.8378    0.0000 H   0  0  0  0  0  0  0  0  0  0  0  0
    9.3310    0.3010    0.0000 H   0  0  0  0  0  0  0  0  0  0  0  0
   11.1745    0.4915    0.0000 H   0  0  0  0  0  0  0  0  0  0  0  0
   10.3078   -0.1359    0.0000 H   0  0  0  0  0  0  0  0  0  0  0  0
  1 50  1  0  0  0  0
  1 53  1  0  0  0  0
  2  5  1  0  0  0  0
  2  8  1  0  0  0  0
  2  9  1  0  0  0  0
  2 10  2  0  0  0  0
  3  8  1  0  0  0  0
  3 11  1  0  0  0  0
  3 12  1  0  0  0  0
  3 13  2  0  0  0  0
  4 16  1  0  0  0  0
  4 18  1  0  0  0  0
  4 19  1  0  0  0  0
  4 20  2  0  0  0  0
  6 33  1  0  0  0  0
  6 64  1  0  0  0  0
  7 37  2  0  0  0  0
  9 65  1  0  0  0  0
 11 43  1  0  0  0  0
 12 66  1  0  0  0  0
 14 41  1  0  0  0  0
 14 45  1  0  0  0  0
 15 40  2  0  0  0  0
 17 67  1  0  0  0  0
 18 68  1  0  0  0  0
 19 69  1  0  0  0  0
 21 53  2  0  0  0  0
 22 59  1  0  0  0  0
 22 62  1  0  0  0  0
 23 60  1  0  0  0  0
 23 63  1  0  0  0  0
 24 61  1  0  0  0  0
 24 70  1  0  0  0  0
 25 37  1  0  0  0  0
 25 38  1  0  0  0  0
 25 71  1  0  0  0  0
 26 40  1  0  0  0  0
 26 46  1  0  0  0  0
 26 72  1  0  0  0  0
 27 47  1  0  0  0  0
 27 48  1  0  0  0  0
 28 48  2  0  0  0  0
 28 49  1  0  0  0  0
 29 47  2  0  0  0  0
 29 52  1  0  0  0  0
 30 51  1  0  0  0  0
 30 52  2  0  0  0  0
 31 51  1  0  0  0  0
 31 73  1  0  0  0  0
 31 74  1  0  0  0  0
 32 33  1  0  0  0  0
 32 34  1  0  0  0  0
 32 35  1  0  0  0  0
 32 36  1  0  0  0  0
 33 34  1  0  0  0  0
 33 37  1  0  0  0  0
 34  5  1  0  0  0  0
 34 75  1  1  0  0  0
 35 76  1  0  0  0  0
 35 77  1  0  0  0  0
 35 78  1  0  0  0  0
 36 79  1  0  0  0  0
 36 80  1  0  0  0  0
 36 81  1  0  0  0  0
 38 39  1  0  0  0  0
 38 82  1  0  0  0  0
 38 83  1  0  0  0  0
 39 40  1  0  0  0  0
 39 84  1  0  0  0  0
 39 85  1  0  0  0  0
 41 42  1  0  0  0  0
 41 43  1  0  0  0  0
 41 86  1  6  0  0  0
 42 16  1  0  0  0  0
 42 44  1  0  0  0  0
 42 87  1  1  0  0  0
 43 88  1  0  0  0  0
 43 89  1  0  0  0  0
 44 17  1  0  0  0  0
 44 45  1  0  0  0  0
 44 90  1  6  0  0  0
 45 27  1  0  0  0  0
 45 91  1  6  0  0  0
 46 50  1  0  0  0  0
 46 92  1  0  0  0  0
 46 93  1  0  0  0  0
 47 49  1  0  0  0  0
 48 94  1  0  0  0  0
 49 51  2  0  0  0  0
 50 95  1  0  0  0  0
 50 96  1  0  0  0  0
 52 97  1  0  0  0  0
 53 54  1  0  0  0  0
 54 55  2  0  0  0  0
 54 98  1  0  0  0  0
 55 56  1  0  0  0  0
 55 99  1  0  0  0  0
 56 57  2  0  0  0  0
 56 58  1  0  0  0  0
 57 60  1  0  0  0  0
 57100  1  0  0  0  0
 58 59  2  0  0  0  0
 58101  1  0  0  0  0
 59 61  1  0  0  0  0
 60 61  2  0  0  0  0
 62102  1  0  0  0  0
 62103  1  0  0  0  0
 62104  1  0  0  0  0
 63105  1  0  0  0  0
 63106  1  0  0  0  0
 63107  1  0  0  0  0
M  END
>  <DRUGBANK_ID>
DB03179

>  <SECONDARY_ACCESSION_NUMBERS>
EXPT02943

>  <COMMON_NAME>
Sinapoyl coenzyme A

$$$$
