
 OpenBabel10282417072D

 33 35  0  0  0  0  0  0  0  0999 V2000
   -1.4604   -3.1062    0.0000 C   0  0  0  0  0  0  0  0  0  0  0  0
   -2.2673   -3.2777    0.0000 C   0  0  0  0  0  0  0  0  0  0  0  0
   -2.8194   -2.6646    0.0000 C   0  0  0  0  0  0  0  0  0  0  0  0
   -2.5644   -1.8800    0.0000 C   0  0  0  0  0  0  0  0  0  0  0  0
   -1.7575   -1.7084    0.0000 C   0  0  0  0  0  0  0  0  0  0  0  0
   -1.2054   -2.3215    0.0000 C   0  0  0  0  0  0  0  0  0  0  0  0
   -0.3984   -2.1500    0.0000 C   0  0  0  0  0  0  0  0  0  0  0  0
    0.1536   -2.7631    0.0000 O   0  0  0  0  0  0  0  0  0  0  0  0
   -0.1435   -1.3654    0.0000 C   0  0  0  0  0  0  0  0  0  0  0  0
    0.6411   -1.1104    0.0000 C   0  0  0  0  0  0  0  0  0  0  0  0
    0.6411   -0.2854    0.0000 C   0  0  0  0  0  0  0  0  0  0  0  0
   -0.1435   -0.0305    0.0000 S   0  0  0  0  0  0  0  0  0  0  0  0
   -0.6284   -0.6979    0.0000 C   0  0  0  0  0  0  0  0  0  0  0  0
   -1.4534   -0.6979    0.0000 N   0  0  0  0  0  0  0  0  0  0  0  0
    1.3556    0.1271    0.0000 C   0  0  0  0  0  0  0  0  0  0  0  0
    2.0701   -0.2854    0.0000 C   0  0  0  0  0  0  0  0  0  0  0  0
    2.0701   -1.1104    0.0000 C   0  0  0  0  0  0  0  0  0  0  0  0
    1.3556   -1.5229    0.0000 C   0  0  0  0  0  0  0  0  0  0  0  0
   -3.6263   -2.8361    0.0000 Cl  0  0  0  0  0  0  0  0  0  0  0  0
   -0.7699   -3.8731    0.0000 H   0  0  0  0  0  0  0  0  0  0  0  0
   -2.5862   -4.2592    0.0000 H   0  0  0  0  0  0  0  0  0  0  0  0
   -3.2550   -1.1131    0.0000 H   0  0  0  0  0  0  0  0  0  0  0  0
   -1.4387   -0.7269    0.0000 H   0  0  0  0  0  0  0  0  0  0  0  0
   -1.9457    0.1547    0.0000 H   0  0  0  0  0  0  0  0  0  0  0  0
   -1.9457   -1.5505    0.0000 H   0  0  0  0  0  0  0  0  0  0  0  0
    1.3556    1.1971    0.0000 H   0  0  0  0  0  0  0  0  0  0  0  0
    2.2822    0.6621    0.0000 H   0  0  0  0  0  0  0  0  0  0  0  0
    2.9967    0.2496    0.0000 H   0  0  0  0  0  0  0  0  0  0  0  0
    2.9967   -0.8204    0.0000 H   0  0  0  0  0  0  0  0  0  0  0  0
    2.9967   -1.6454    0.0000 H   0  0  0  0  0  0  0  0  0  0  0  0
    2.0701   -2.1804    0.0000 H   0  0  0  0  0  0  0  0  0  0  0  0
    1.3556   -2.5929    0.0000 H   0  0  0  0  0  0  0  0  0  0  0  0
    0.4290   -2.0579    0.0000 H   0  0  0  0  0  0  0  0  0  0  0  0
  1  2  2  0  0  0  0
  1  6  1  0  0  0  0
  1 20  1  0  0  0  0
  2  3  1  0  0  0  0
  2 21  1  0  0  0  0
  3  4  2  0  0  0  0
  3 19  1  0  0  0  0
  4  5  1  0  0  0  0
  4 22  1  0  0  0  0
  5  6  2  0  0  0  0
  5 23  1  0  0  0  0
  6  7  1  0  0  0  0
  7  8  2  0  0  0  0
  7  9  1  0  0  0  0
  9 10  1  0  0  0  0
  9 13  2  0  0  0  0
 10 11  2  0  0  0  0
 10 18  1  0  0  0  0
 11 12  1  0  0  0  0
 11 15  1  0  0  0  0
 12 13  1  0  0  0  0
 13 14  1  0  0  0  0
 14 24  1  0  0  0  0
 14 25  1  0  0  0  0
 15 16  1  0  0  0  0
 15 26  1  0  0  0  0
 15 27  1  0  0  0  0
 16 17  1  0  0  0  0
 16 28  1  0  0  0  0
 16 29  1  0  0  0  0
 17 18  1  0  0  0  0
 17 30  1  0  0  0  0
 17 31  1  0  0  0  0
 18 32  1  0  0  0  0
 18 33  1  0  0  0  0
M  END
>  <DRUGBANK_ID>
DB12919

>  <COMMON_NAME>
T-62

>  <CAS_NUMBER>
40312-34-3

>  <UNII>
9Q765ZIF8L

$$$$
