
 OpenBabel10282417072D

 17 16  0  0  1  0  0  0  0  0999 V2000
   27.4081  -13.7192    0.0000 Se  0  0  0  0  0  0  0  0  0  0  0  0
   29.5516  -12.4817    0.0000 O   0  0  0  0  0  0  0  0  0  0  0  0
   28.8371  -11.2442    0.0000 O   0  0  0  0  0  0  0  0  0  0  0  0
   27.4081  -12.0692    0.0000 N   0  0  0  0  0  0  0  0  0  0  0  0
   28.1226  -12.4817    0.0000 C   0  0  1  0  0  0  0  0  0  0  0  0
   28.1226  -13.3067    0.0000 C   0  0  0  0  0  0  0  0  0  0  0  0
   27.4081  -14.5442    0.0000 C   0  0  0  0  0  0  0  0  0  0  0  0
   28.8371  -12.0692    0.0000 C   0  0  0  0  0  0  0  0  0  0  0  0
   29.5516  -13.4187    0.0000 H   0  0  0  0  0  0  0  0  0  0  0  0
   27.4081  -11.0492    0.0000 H   0  0  0  0  0  0  0  0  0  0  0  0
   26.5248  -12.5792    0.0000 H   0  0  0  0  0  0  0  0  0  0  0  0
   27.1960  -13.0167    0.0000 H   0  0  0  0  0  0  0  0  0  0  0  0
   29.0492  -13.8417    0.0000 H   0  0  0  0  0  0  0  0  0  0  0  0
   29.0492  -12.7717    0.0000 H   0  0  0  0  0  0  0  0  0  0  0  0
   26.4815  -15.0792    0.0000 H   0  0  0  0  0  0  0  0  0  0  0  0
   28.3347  -15.0792    0.0000 H   0  0  0  0  0  0  0  0  0  0  0  0
   27.4081  -15.6142    0.0000 H   0  0  0  0  0  0  0  0  0  0  0  0
  1  6  1  0  0  0  0
  1  7  1  0  0  0  0
  2  8  1  0  0  0  0
  2  9  1  0  0  0  0
  3  8  2  0  0  0  0
  4 10  1  0  0  0  0
  4 11  1  0  0  0  0
  5  4  1  0  0  0  0
  5  6  1  0  0  0  0
  5  8  1  0  0  0  0
  5 12  1  1  0  0  0
  6 13  1  0  0  0  0
  6 14  1  0  0  0  0
  7 15  1  0  0  0  0
  7 16  1  0  0  0  0
  7 17  1  0  0  0  0
M  END
>  <DRUGBANK_ID>
DB12697

>  <COMMON_NAME>
Methylselenocysteine

>  <CAS_NUMBER>
26046-90-2

>  <UNII>
TWK220499Z

>  <SYNONYMS>
SE-METHYL-SELENO-L-CYSTEINE

$$$$
