
 OpenBabel10282417072D

 80 81  0  0  0  0  0  0  0  0999 V2000
   -2.8644    0.6244    0.0000 C   0  0  0  0  0  0  0  0  0  0  0  0
   -3.5863    0.2119    0.0000 C   0  0  0  0  0  0  0  0  0  0  0  0
   -3.5863   -0.6130    0.0000 C   0  0  0  0  0  0  0  0  0  0  0  0
   -2.8644   -1.0369    0.0000 C   0  0  0  0  0  0  0  0  0  0  0  0
   -2.1540   -0.6130    0.0000 C   0  0  0  0  0  0  0  0  0  0  0  0
   -2.1540    0.2119    0.0000 C   0  0  0  0  0  0  0  0  0  0  0  0
   -4.2967    0.6244    0.0000 C   0  0  0  0  0  0  0  0  0  0  0  0
   -4.2967    1.4494    0.0000 O   0  0  0  0  0  0  0  0  0  0  0  0
   -5.0185    0.2119    0.0000 O   0  0  0  0  0  0  0  0  0  0  0  0
   -4.2967   -1.0369    0.0000 O   0  0  0  0  0  0  0  0  0  0  0  0
   -4.2967   -1.8618    0.0000 C   0  0  0  0  0  0  0  0  0  0  0  0
   -5.0185   -2.2743    0.0000 C   0  0  0  0  0  0  0  0  0  0  0  0
   -5.0185   -3.0993    0.0000 O   0  0  0  0  0  0  0  0  0  0  0  0
   -5.7289   -1.8618    0.0000 O   0  0  0  0  0  0  0  0  0  0  0  0
   -1.4322    0.6244    0.0000 C   0  0  0  0  0  0  0  0  0  0  0  0
   -0.7103    0.2119    0.0000 C   0  0  1  0  0  0  0  0  0  0  0  0
   -0.7103   -0.6130    0.0000 C   0  0  0  0  0  0  0  0  0  0  0  0
   -1.4322   -1.0369    0.0000 O   0  0  0  0  0  0  0  0  0  0  0  0
    0.0000   -1.0369    0.0000 N   0  0  0  0  0  0  0  0  0  0  0  0
    0.0000   -1.8618    0.0000 C   0  0  0  0  0  0  0  0  0  0  0  0
    0.7104   -2.2743    0.0000 C   0  0  0  0  0  0  0  0  0  0  0  0
    1.4322   -1.8618    0.0000 C   0  0  0  0  0  0  0  0  0  0  0  0
    2.1426   -2.2743    0.0000 C   0  0  0  0  0  0  0  0  0  0  0  0
    2.8644   -1.8618    0.0000 C   0  0  0  0  0  0  0  0  0  0  0  0
    0.0000    0.6244    0.0000 N   0  0  0  0  0  0  0  0  0  0  0  0
    0.7104    0.2119    0.0000 C   0  0  0  0  0  0  0  0  0  0  0  0
    0.7104   -0.6130    0.0000 O   0  0  0  0  0  0  0  0  0  0  0  0
    1.4322    0.6244    0.0000 C   0  0  2  0  0  0  0  0  0  0  0  0
    2.8644    0.6244    0.0000 C   0  0  0  0  0  0  0  0  0  0  0  0
    1.4322    1.4494    0.0000 C   0  0  0  0  0  0  0  0  0  0  0  0
    0.7218    1.8618    0.0000 C   0  0  0  0  0  0  0  0  0  0  0  0
    0.0000    3.0993    0.0000 C   0  0  0  0  0  0  0  0  0  0  0  0
   -0.7103    2.6868    0.0000 C   0  0  0  0  0  0  0  0  0  0  0  0
   -0.7103    1.8618    0.0000 C   0  0  0  0  0  0  0  0  0  0  0  0
    0.0000    1.4494    0.0000 C   0  0  0  0  0  0  0  0  0  0  0  0
    0.7218    2.6868    0.0000 C   0  0  0  0  0  0  0  0  0  0  0  0
    2.1540    0.2119    0.0000 N   0  0  0  0  0  0  0  0  0  0  0  0
    2.8644    1.4494    0.0000 O   0  0  0  0  0  0  0  0  0  0  0  0
    3.5863    0.2119    0.0000 C   0  0  0  0  0  0  0  0  0  0  0  0
    4.2967    0.6244    0.0000 C   0  0  0  0  0  0  0  0  0  0  0  0
    5.0185    0.2119    0.0000 C   0  0  0  0  0  0  0  0  0  0  0  0
    5.0185   -0.6130    0.0000 O   0  0  0  0  0  0  0  0  0  0  0  0
    5.7289    0.6244    0.0000 O   0  0  0  0  0  0  0  0  0  0  0  0
   -2.8608    1.6564    0.0000 H   0  0  0  0  0  0  0  0  0  0  0  0
   -2.8608   -2.0689    0.0000 H   0  0  0  0  0  0  0  0  0  0  0  0
   -1.2566   -1.1226    0.0000 H   0  0  0  0  0  0  0  0  0  0  0  0
   -5.8279    0.6840    0.0000 H   0  0  0  0  0  0  0  0  0  0  0  0
   -3.3712   -2.3988    0.0000 H   0  0  0  0  0  0  0  0  0  0  0  0
   -4.3002   -2.9318    0.0000 H   0  0  0  0  0  0  0  0  0  0  0  0
   -5.7266   -0.9248    0.0000 H   0  0  0  0  0  0  0  0  0  0  0  0
   -1.4322    1.6944    0.0000 H   0  0  0  0  0  0  0  0  0  0  0  0
   -0.5068    1.1615    0.0000 H   0  0  0  0  0  0  0  0  0  0  0  0
   -0.7140    1.2819    0.0000 H   0  0  0  0  0  0  0  0  0  0  0  0
    0.8561   -0.5508    0.0000 H   0  0  0  0  0  0  0  0  0  0  0  0
   -0.9273   -2.3957    0.0000 H   0  0  0  0  0  0  0  0  0  0  0  0
   -0.0020   -2.9318    0.0000 H   0  0  0  0  0  0  0  0  0  0  0  0
    0.7067   -3.3443    0.0000 H   0  0  0  0  0  0  0  0  0  0  0  0
    1.6349   -2.8129    0.0000 H   0  0  0  0  0  0  0  0  0  0  0  0
    1.4359   -0.7918    0.0000 H   0  0  0  0  0  0  0  0  0  0  0  0
    2.3604   -1.3295    0.0000 H   0  0  0  0  0  0  0  0  0  0  0  0
    2.1389   -3.3443    0.0000 H   0  0  0  0  0  0  0  0  0  0  0  0
    3.0671   -2.8129    0.0000 H   0  0  0  0  0  0  0  0  0  0  0  0
    3.7887   -2.4009    0.0000 H   0  0  0  0  0  0  0  0  0  0  0  0
    2.8691   -0.7918    0.0000 H   0  0  0  0  0  0  0  0  0  0  0  0
    3.7934   -1.3309    0.0000 H   0  0  0  0  0  0  0  0  0  0  0  0
   -0.0000    1.6089    0.0000 H   0  0  0  0  0  0  0  0  0  0  0  0
    0.5067    1.1614    0.0000 H   0  0  0  0  0  0  0  0  0  0  0  0
    2.3595    1.9833    0.0000 H   0  0  0  0  0  0  0  0  0  0  0  0
    1.4341    2.5194    0.0000 H   0  0  0  0  0  0  0  0  0  0  0  0
   -0.0036    4.1313    0.0000 H   0  0  0  0  0  0  0  0  0  0  0  0
   -1.6047    3.2017    0.0000 H   0  0  0  0  0  0  0  0  0  0  0  0
   -1.6047    1.3469    0.0000 H   0  0  0  0  0  0  0  0  0  0  0  0
   -0.0036    0.4174    0.0000 H   0  0  0  0  0  0  0  0  0  0  0  0
    1.6144    3.2048    0.0000 H   0  0  0  0  0  0  0  0  0  0  0  0
    2.1574   -0.7726    0.0000 H   0  0  0  0  0  0  0  0  0  0  0  0
    3.5900   -0.8581    0.0000 H   0  0  0  0  0  0  0  0  0  0  0  0
    4.5145   -0.3203    0.0000 H   0  0  0  0  0  0  0  0  0  0  0  0
    4.2930    1.6944    0.0000 H   0  0  0  0  0  0  0  0  0  0  0  0
    5.2212    1.1630    0.0000 H   0  0  0  0  0  0  0  0  0  0  0  0
    6.5415    0.1579    0.0000 H   0  0  0  0  0  0  0  0  0  0  0  0
  1  2  2  0  0  0  0
  1  6  1  0  0  0  0
  1 44  1  0  0  0  0
  2  3  1  0  0  0  0
  2  7  1  0  0  0  0
  3  4  2  0  0  0  0
  3 10  1  0  0  0  0
  4  5  1  0  0  0  0
  4 45  1  0  0  0  0
  5  6  2  0  0  0  0
  5 46  1  0  0  0  0
  6 15  1  0  0  0  0
  7  9  1  0  0  0  0
  7  8  2  0  0  0  0
  9 47  1  0  0  0  0
 10 11  1  0  0  0  0
 11 12  1  0  0  0  0
 11 48  1  0  0  0  0
 11 49  1  0  0  0  0
 12 13  2  0  0  0  0
 12 14  1  0  0  0  0
 14 50  1  0  0  0  0
 15 51  1  0  0  0  0
 15 52  1  0  0  0  0
 16 15  1  0  0  0  0
 16 25  1  0  0  0  0
 16 17  1  0  0  0  0
 16 53  1  1  0  0  0
 17 18  2  0  0  0  0
 17 19  1  0  0  0  0
 19 20  1  0  0  0  0
 19 54  1  0  0  0  0
 20 21  1  0  0  0  0
 20 55  1  0  0  0  0
 20 56  1  0  0  0  0
 21 22  1  0  0  0  0
 21 57  1  0  0  0  0
 21 58  1  0  0  0  0
 22 23  1  0  0  0  0
 22 59  1  0  0  0  0
 22 60  1  0  0  0  0
 23 24  1  0  0  0  0
 23 61  1  0  0  0  0
 23 62  1  0  0  0  0
 24 63  1  0  0  0  0
 24 64  1  0  0  0  0
 24 65  1  0  0  0  0
 25 26  1  0  0  0  0
 25 66  1  0  0  0  0
 26 28  1  0  0  0  0
 26 27  2  0  0  0  0
 28 37  1  0  0  0  0
 28 30  1  0  0  0  0
 28 67  1  1  0  0  0
 29 37  1  0  0  0  0
 29 39  1  0  0  0  0
 29 38  2  0  0  0  0
 30 31  1  0  0  0  0
 30 68  1  0  0  0  0
 30 69  1  0  0  0  0
 31 35  1  0  0  0  0
 31 36  2  0  0  0  0
 32 33  2  0  0  0  0
 32 36  1  0  0  0  0
 32 70  1  0  0  0  0
 33 34  1  0  0  0  0
 33 71  1  0  0  0  0
 34 35  2  0  0  0  0
 34 72  1  0  0  0  0
 35 73  1  0  0  0  0
 36 74  1  0  0  0  0
 37 75  1  0  0  0  0
 39 40  1  0  0  0  0
 39 76  1  0  0  0  0
 39 77  1  0  0  0  0
 40 41  1  0  0  0  0
 40 78  1  0  0  0  0
 40 79  1  0  0  0  0
 41 43  1  0  0  0  0
 41 42  2  0  0  0  0
 43 80  1  0  0  0  0
M  END
>  <DRUGBANK_ID>
DB04525

>  <SECONDARY_ACCESSION_NUMBERS>
EXPT01897

>  <COMMON_NAME>
N-(3-Carboxypropanoyl)-L-phenylalanyl-3-carboxy-O-(carboxymethyl)-N-pentyl-L-tyrosinamide

$$$$
