LZ8
 OpenBabel10282417072D

 37 39  0  0  0  0  0  0  0  0999 V2000
   16.8125    7.5662    0.0000 F   0  0  0  0  0  0  0  0  0  0  0  0
   16.8125    6.7412    0.0000 C   0  0  0  0  0  0  0  0  0  0  0  0
   17.5270    6.3287    0.0000 C   0  0  0  0  0  0  0  0  0  0  0  0
   17.5270    5.5037    0.0000 C   0  0  0  0  0  0  0  0  0  0  0  0
   16.8125    5.0912    0.0000 C   0  0  0  0  0  0  0  0  0  0  0  0
   16.8125    4.2662    0.0000 N   0  0  0  0  0  0  0  0  0  0  0  0
   16.0980    3.8537    0.0000 C   0  0  0  0  0  0  0  0  0  0  0  0
   15.3836    4.2662    0.0000 O   0  0  0  0  0  0  0  0  0  0  0  0
   16.0980    3.0287    0.0000 C   0  0  0  0  0  0  0  0  0  0  0  0
   16.7655    2.5438    0.0000 N   0  0  0  0  0  0  0  0  0  0  0  0
   16.5105    1.7592    0.0000 N   0  0  0  0  0  0  0  0  0  0  0  0
   15.6855    1.7592    0.0000 C   0  0  0  0  0  0  0  0  0  0  0  0
   15.4306    2.5438    0.0000 C   0  0  0  0  0  0  0  0  0  0  0  0
   14.6460    2.7987    0.0000 N   0  0  0  0  0  0  0  0  0  0  0  0
   14.0329    2.2467    0.0000 C   0  0  0  0  0  0  0  0  0  0  0  0
   14.2044    1.4397    0.0000 O   0  0  0  0  0  0  0  0  0  0  0  0
   13.2483    2.5017    0.0000 C   0  0  0  0  0  0  0  0  0  0  0  0
   12.6352    1.9496    0.0000 C   0  0  0  0  0  0  0  0  0  0  0  0
   11.8505    2.2046    0.0000 C   0  0  0  0  0  0  0  0  0  0  0  0
   11.6790    3.0115    0.0000 C   0  0  0  0  0  0  0  0  0  0  0  0
   12.2921    3.5636    0.0000 C   0  0  0  0  0  0  0  0  0  0  0  0
   13.0767    3.3086    0.0000 C   0  0  0  0  0  0  0  0  0  0  0  0
   16.0980    5.5037    0.0000 C   0  0  0  0  0  0  0  0  0  0  0  0
   16.0980    6.3287    0.0000 C   0  0  0  0  0  0  0  0  0  0  0  0
   18.4207    6.8447    0.0000 H   0  0  0  0  0  0  0  0  0  0  0  0
   18.4207    4.9877    0.0000 H   0  0  0  0  0  0  0  0  0  0  0  0
   17.6651    3.7739    0.0000 H   0  0  0  0  0  0  0  0  0  0  0  0
   17.0891    0.9627    0.0000 H   0  0  0  0  0  0  0  0  0  0  0  0
   15.0789    0.9243    0.0000 H   0  0  0  0  0  0  0  0  0  0  0  0
   14.4413    3.7617    0.0000 H   0  0  0  0  0  0  0  0  0  0  0  0
   12.8498    0.9402    0.0000 H   0  0  0  0  0  0  0  0  0  0  0  0
   11.0836    1.5141    0.0000 H   0  0  0  0  0  0  0  0  0  0  0  0
   10.6975    3.3304    0.0000 H   0  0  0  0  0  0  0  0  0  0  0  0
   12.0775    4.5731    0.0000 H   0  0  0  0  0  0  0  0  0  0  0  0
   13.8436    3.9992    0.0000 H   0  0  0  0  0  0  0  0  0  0  0  0
   15.2043    4.9877    0.0000 H   0  0  0  0  0  0  0  0  0  0  0  0
   15.2043    6.8447    0.0000 H   0  0  0  0  0  0  0  0  0  0  0  0
  1  2  1  0  0  0  0
  2  3  1  0  0  0  0
  2 24  2  0  0  0  0
  3  4  2  0  0  0  0
  3 25  1  0  0  0  0
  4  5  1  0  0  0  0
  4 26  1  0  0  0  0
  5  6  1  0  0  0  0
  5 23  2  0  0  0  0
  6  7  1  0  0  0  0
  6 27  1  0  0  0  0
  7  8  2  0  0  0  0
  7  9  1  0  0  0  0
  9 10  2  0  0  0  0
  9 13  1  0  0  0  0
 10 11  1  0  0  0  0
 11 12  1  0  0  0  0
 11 28  1  0  0  0  0
 12 13  2  0  0  0  0
 12 29  1  0  0  0  0
 13 14  1  0  0  0  0
 14 15  1  0  0  0  0
 14 30  1  0  0  0  0
 15 16  2  0  0  0  0
 15 17  1  0  0  0  0
 17 18  1  0  0  0  0
 17 22  2  0  0  0  0
 18 19  2  0  0  0  0
 18 31  1  0  0  0  0
 19 20  1  0  0  0  0
 19 32  1  0  0  0  0
 20 21  2  0  0  0  0
 20 33  1  0  0  0  0
 21 22  1  0  0  0  0
 21 34  1  0  0  0  0
 22 35  1  0  0  0  0
 23 24  1  0  0  0  0
 23 36  1  0  0  0  0
 24 37  1  0  0  0  0
M  END
>  <DRUGBANK_ID>
DB08137

>  <COMMON_NAME>
(4E)-N-(4-fluorophenyl)-4-[(phenylcarbonyl)imino]-4H-pyrazole-3-carboxamide

$$$$
