
 OpenBabel10282417072D

 76 72  0  0  0  0  0  0  0  0999 V2000
   -4.2997    0.4300    0.0000 C   0  0  0  0  0  0  0  0  0  0  0  0
   -4.2997    1.2462    0.0000 O   0  0  0  0  0  0  0  0  0  0  0  0
   -3.6002    0.0072    0.0000 O   0  5  0  0  0  0  0  0  0  0  0  0
   -5.0139    0.0072    0.0000 C   0  0  0  0  0  0  0  0  0  0  0  0
   -5.7135    0.3716    0.0000 C   0  0  0  0  0  0  0  0  0  0  0  0
   -6.4715   -0.0511    0.0000 C   0  0  0  0  0  0  0  0  0  0  0  0
   -7.2877    0.4882    0.0000 C   0  0  0  0  0  0  0  0  0  0  0  0
   -5.0139   -0.8089    0.0000 C   0  0  0  0  0  0  0  0  0  0  0  0
   -4.2414   -1.2462    0.0000 C   0  0  0  0  0  0  0  0  0  0  0  0
   -3.5564   -0.8089    0.0000 C   0  0  0  0  0  0  0  0  0  0  0  0
    1.1077    0.4300    0.0000 C   0  0  0  0  0  0  0  0  0  0  0  0
    1.1077    1.2462    0.0000 O   0  0  0  0  0  0  0  0  0  0  0  0
    1.7636    0.0072    0.0000 O   0  5  0  0  0  0  0  0  0  0  0  0
    0.4081    0.0072    0.0000 C   0  0  0  0  0  0  0  0  0  0  0  0
   -0.3497    0.3716    0.0000 C   0  0  0  0  0  0  0  0  0  0  0  0
   -1.0494   -0.0511    0.0000 C   0  0  0  0  0  0  0  0  0  0  0  0
   -1.8656    0.4882    0.0000 C   0  0  0  0  0  0  0  0  0  0  0  0
    0.4081   -0.8089    0.0000 C   0  0  0  0  0  0  0  0  0  0  0  0
    1.1660   -1.2462    0.0000 C   0  0  0  0  0  0  0  0  0  0  0  0
    1.8803   -0.8089    0.0000 C   0  0  0  0  0  0  0  0  0  0  0  0
    6.5152    0.4300    0.0000 C   0  0  0  0  0  0  0  0  0  0  0  0
    6.5152    1.2462    0.0000 O   0  0  0  0  0  0  0  0  0  0  0  0
    7.1711    0.0072    0.0000 O   0  5  0  0  0  0  0  0  0  0  0  0
    5.8156    0.0072    0.0000 C   0  0  0  0  0  0  0  0  0  0  0  0
    5.0577    0.3716    0.0000 C   0  0  0  0  0  0  0  0  0  0  0  0
    4.3580   -0.0511    0.0000 C   0  0  0  0  0  0  0  0  0  0  0  0
    3.5564    0.4882    0.0000 C   0  0  0  0  0  0  0  0  0  0  0  0
    5.8156   -0.8089    0.0000 C   0  0  0  0  0  0  0  0  0  0  0  0
    6.5881   -1.2462    0.0000 C   0  0  0  0  0  0  0  0  0  0  0  0
    7.2877   -0.8089    0.0000 C   0  0  0  0  0  0  0  0  0  0  0  0
   -0.8453    1.2170    0.0000 Bi  0  1  0  0  0  0  0  0  0  0  0  0
   -5.9287   -0.5478    0.0000 H   0  0  0  0  0  0  0  0  0  0  0  0
   -5.7287    1.4415    0.0000 H   0  0  0  0  0  0  0  0  0  0  0  0
   -6.6400    0.9069    0.0000 H   0  0  0  0  0  0  0  0  0  0  0  0
   -6.5117   -1.1203    0.0000 H   0  0  0  0  0  0  0  0  0  0  0  0
   -7.4232   -0.5401    0.0000 H   0  0  0  0  0  0  0  0  0  0  0  0
   -7.2232    1.5563    0.0000 H   0  0  0  0  0  0  0  0  0  0  0  0
   -8.2449    0.0100    0.0000 H   0  0  0  0  0  0  0  0  0  0  0  0
   -8.1804    1.0781    0.0000 H   0  0  0  0  0  0  0  0  0  0  0  0
   -5.9383   -1.3478    0.0000 H   0  0  0  0  0  0  0  0  0  0  0  0
   -5.0071   -1.8789    0.0000 H   0  0  0  0  0  0  0  0  0  0  0  0
   -4.2130   -2.3158    0.0000 H   0  0  0  0  0  0  0  0  0  0  0  0
   -3.2963   -1.7479    0.0000 H   0  0  0  0  0  0  0  0  0  0  0  0
   -2.6068   -1.3021    0.0000 H   0  0  0  0  0  0  0  0  0  0  0  0
   -3.6041    0.2600    0.0000 H   0  0  0  0  0  0  0  0  0  0  0  0
   -2.6545   -0.2331    0.0000 H   0  0  0  0  0  0  0  0  0  0  0  0
   -0.4977   -0.5623    0.0000 H   0  0  0  0  0  0  0  0  0  0  0  0
   -0.4006    1.4404    0.0000 H   0  0  0  0  0  0  0  0  0  0  0  0
   -1.2939    0.8751    0.0000 H   0  0  0  0  0  0  0  0  0  0  0  0
   -1.0710   -1.1209    0.0000 H   0  0  0  0  0  0  0  0  0  0  0  0
   -1.9968   -0.5484    0.0000 H   0  0  0  0  0  0  0  0  0  0  0  0
   -1.8011    1.5563    0.0000 H   0  0  0  0  0  0  0  0  0  0  0  0
   -2.8228    0.0100    0.0000 H   0  0  0  0  0  0  0  0  0  0  0  0
   -2.7583    1.0781    0.0000 H   0  0  0  0  0  0  0  0  0  0  0  0
   -0.5185   -1.3440    0.0000 H   0  0  0  0  0  0  0  0  0  0  0  0
    0.4083   -1.8789    0.0000 H   0  0  0  0  0  0  0  0  0  0  0  0
    1.1799   -2.3161    0.0000 H   0  0  0  0  0  0  0  0  0  0  0  0
    2.1028   -1.7631    0.0000 H   0  0  0  0  0  0  0  0  0  0  0  0
    2.8204   -1.3199    0.0000 H   0  0  0  0  0  0  0  0  0  0  0  0
    1.8528    0.2607    0.0000 H   0  0  0  0  0  0  0  0  0  0  0  0
    2.7929   -0.2502    0.0000 H   0  0  0  0  0  0  0  0  0  0  0  0
    4.9098   -0.5624    0.0000 H   0  0  0  0  0  0  0  0  0  0  0  0
    5.0068    1.4404    0.0000 H   0  0  0  0  0  0  0  0  0  0  0  0
    4.1135    0.8750    0.0000 H   0  0  0  0  0  0  0  0  0  0  0  0
    4.3319   -1.1208    0.0000 H   0  0  0  0  0  0  0  0  0  0  0  0
    3.4075   -0.5424    0.0000 H   0  0  0  0  0  0  0  0  0  0  0  0
    3.6298    1.5557    0.0000 H   0  0  0  0  0  0  0  0  0  0  0  0
    2.5952    0.0180    0.0000 H   0  0  0  0  0  0  0  0  0  0  0  0
    2.6686    1.0855    0.0000 H   0  0  0  0  0  0  0  0  0  0  0  0
    4.8912   -1.3478    0.0000 H   0  0  0  0  0  0  0  0  0  0  0  0
    5.8224   -1.8789    0.0000 H   0  0  0  0  0  0  0  0  0  0  0  0
    6.6114   -2.3159    0.0000 H   0  0  0  0  0  0  0  0  0  0  0  0
    7.5296   -1.7547    0.0000 H   0  0  0  0  0  0  0  0  0  0  0  0
    8.2325   -1.3111    0.0000 H   0  0  0  0  0  0  0  0  0  0  0  0
    7.2502    0.2604    0.0000 H   0  0  0  0  0  0  0  0  0  0  0  0
    8.1950   -0.2418    0.0000 H   0  0  0  0  0  0  0  0  0  0  0  0
  1  2  2  0  0  0  0
  1  3  1  0  0  0  0
  1  4  1  0  0  0  0
  4  5  1  0  0  0  0
  4  8  1  0  0  0  0
  4 32  1  0  0  0  0
  5  6  1  0  0  0  0
  5 33  1  0  0  0  0
  5 34  1  0  0  0  0
  6  7  1  0  0  0  0
  6 35  1  0  0  0  0
  6 36  1  0  0  0  0
  7 37  1  0  0  0  0
  7 38  1  0  0  0  0
  7 39  1  0  0  0  0
  8  9  1  0  0  0  0
  8 40  1  0  0  0  0
  8 41  1  0  0  0  0
  9 10  1  0  0  0  0
  9 42  1  0  0  0  0
  9 43  1  0  0  0  0
 10 44  1  0  0  0  0
 10 45  1  0  0  0  0
 10 46  1  0  0  0  0
 11 12  2  0  0  0  0
 11 13  1  0  0  0  0
 11 14  1  0  0  0  0
 14 15  1  0  0  0  0
 14 18  1  0  0  0  0
 14 47  1  0  0  0  0
 15 16  1  0  0  0  0
 15 48  1  0  0  0  0
 15 49  1  0  0  0  0
 16 17  1  0  0  0  0
 16 50  1  0  0  0  0
 16 51  1  0  0  0  0
 17 52  1  0  0  0  0
 17 53  1  0  0  0  0
 17 54  1  0  0  0  0
 18 19  1  0  0  0  0
 18 55  1  0  0  0  0
 18 56  1  0  0  0  0
 19 20  1  0  0  0  0
 19 57  1  0  0  0  0
 19 58  1  0  0  0  0
 20 59  1  0  0  0  0
 20 60  1  0  0  0  0
 20 61  1  0  0  0  0
 21 22  2  0  0  0  0
 21 23  1  0  0  0  0
 21 24  1  0  0  0  0
 24 25  1  0  0  0  0
 24 28  1  0  0  0  0
 24 62  1  0  0  0  0
 25 26  1  0  0  0  0
 25 63  1  0  0  0  0
 25 64  1  0  0  0  0
 26 27  1  0  0  0  0
 26 65  1  0  0  0  0
 26 66  1  0  0  0  0
 27 67  1  0  0  0  0
 27 68  1  0  0  0  0
 27 69  1  0  0  0  0
 28 29  1  0  0  0  0
 28 70  1  0  0  0  0
 28 71  1  0  0  0  0
 29 30  1  0  0  0  0
 29 72  1  0  0  0  0
 29 73  1  0  0  0  0
 30 74  1  0  0  0  0
 30 75  1  0  0  0  0
 30 76  1  0  0  0  0
M  CHG  4   3  -1  13  -1  23  -1  31   3
M  END
>  <DRUGBANK_ID>
DB13910

>  <COMMON_NAME>
Valproate bismuth

>  <CAS_NUMBER>
60364-28-5

>  <UNII>
87PTX621FI

>  <SYNONYMS>
Bismuth dipropylacetate

$$$$
