
 OpenBabel10282417072D

 23 21  0  0  0  0  0  0  0  0999 V2000
    0.0000   -0.2062    0.0000 C   0  0  1  0  0  0  0  0  0  0  0  0
   -0.7144    0.2062    0.0000 C   0  0  1  0  0  0  0  0  0  0  0  0
    0.7144    0.2062    0.0000 C   0  0  1  0  0  0  0  0  0  0  0  0
   -1.4289   -0.2062    0.0000 C   0  0  2  0  0  0  0  0  0  0  0  0
    1.4289   -0.2062    0.0000 C   0  0  0  0  0  0  0  0  0  0  0  0
   -2.1434    0.2062    0.0000 C   0  0  0  0  0  0  0  0  0  0  0  0
    0.0000   -1.0312    0.0000 O   0  0  0  0  0  0  0  0  0  0  0  0
   -0.7144    1.0312    0.0000 O   0  0  0  0  0  0  0  0  0  0  0  0
    0.7144    1.0312    0.0000 O   0  0  0  0  0  0  0  0  0  0  0  0
   -1.4289   -1.0312    0.0000 O   0  0  0  0  0  0  0  0  0  0  0  0
    1.4289   -1.0312    0.0000 O   0  0  0  0  0  0  0  0  0  0  0  0
    2.1434    0.2062    0.0000 O   0  5  0  0  0  0  0  0  0  0  0  0
   -2.8578   -0.2062    0.0000 O   0  0  0  0  0  0  0  0  0  0  0  0
   -2.1434    1.0312    0.0000 O   0  5  0  0  0  0  0  0  0  0  0  0
    2.8578    0.6187    0.0000 Ca  0  2  0  0  0  0  0  0  0  0  0  0
    0.0000    0.6187    0.0000 H   0  0  0  0  0  0  0  0  0  0  0  0
   -0.7144   -0.6187    0.0000 H   0  0  0  0  0  0  0  0  0  0  0  0
    0.7144   -0.6187    0.0000 H   0  0  0  0  0  0  0  0  0  0  0  0
   -1.4289    0.6187    0.0000 H   0  0  0  0  0  0  0  0  0  0  0  0
   -0.8400   -1.5162    0.0000 H   0  0  0  0  0  0  0  0  0  0  0  0
    0.1256    1.5162    0.0000 H   0  0  0  0  0  0  0  0  0  0  0  0
    1.5544    1.5162    0.0000 H   0  0  0  0  0  0  0  0  0  0  0  0
   -2.2689   -1.5162    0.0000 H   0  0  0  0  0  0  0  0  0  0  0  0
  1  2  1  0  0  0  0
  1  3  1  0  0  0  0
  1  7  1  0  0  0  0
  1 16  1  6  0  0  0
  2  4  1  0  0  0  0
  2  8  1  0  0  0  0
  2 17  1  6  0  0  0
  3  5  1  0  0  0  0
  3  9  1  0  0  0  0
  3 18  1  1  0  0  0
  4  6  1  0  0  0  0
  4 10  1  0  0  0  0
  4 19  1  6  0  0  0
  7 20  1  0  0  0  0
  8 21  1  0  0  0  0
  9 22  1  0  0  0  0
 10 23  1  0  0  0  0
 11  5  2  0  0  0  0
 12  5  1  0  0  0  0
 13  6  2  0  0  0  0
 14  6  1  0  0  0  0
M  CHG  3  12  -1  14  -1  15   2
M  END
>  <DRUGBANK_ID>
DB13962

>  <COMMON_NAME>
Calcium saccharate

>  <CAS_NUMBER>
5793-88-4

>  <UNII>
SST07NLK7J

>  <SYNONYMS>
Calcii saccharas; Calcium D-glucarate; Calcium D-saccharate; Calcium glucarate; Calcium saccharate; Sacarato calcico; Saccharate de calcium; Saccharated lime

$$$$
