MDW
 OpenBabel10282417072D

 48 50  0  0  0  0  0  0  0  0999 V2000
   -1.9360   -1.9888    0.0000 C   0  0  0  0  0  0  0  0  0  0  0  0
   -2.6505   -1.5763    0.0000 C   0  0  0  0  0  0  0  0  0  0  0  0
   -3.3649   -1.9888    0.0000 O   0  0  0  0  0  0  0  0  0  0  0  0
   -2.6505   -0.7513    0.0000 C   0  0  0  0  0  0  0  0  0  0  0  0
   -3.3649   -0.3388    0.0000 O   0  0  0  0  0  0  0  0  0  0  0  0
   -3.3649    0.4862    0.0000 C   0  0  0  0  0  0  0  0  0  0  0  0
   -1.9360   -0.3388    0.0000 C   0  0  0  0  0  0  0  0  0  0  0  0
   -1.2215   -0.7513    0.0000 C   0  0  0  0  0  0  0  0  0  0  0  0
   -0.5070   -0.3388    0.0000 C   0  0  2  0  0  0  0  0  0  0  0  0
   -0.5070    0.4862    0.0000 C   0  0  0  0  0  0  0  0  0  0  0  0
    0.2074    0.8987    0.0000 O   0  0  0  0  0  0  0  0  0  0  0  0
   -1.2215    0.8987    0.0000 N   0  0  0  0  0  0  0  0  0  0  0  0
   -1.2215    1.7237    0.0000 O   0  0  0  0  0  0  0  0  0  0  0  0
   -1.2215   -1.5763    0.0000 C   0  0  0  0  0  0  0  0  0  0  0  0
   -0.5070   -1.9888    0.0000 C   0  0  0  0  0  0  0  0  0  0  0  0
    0.2074   -1.5763    0.0000 C   0  0  0  0  0  0  0  0  0  0  0  0
    0.2074   -0.7513    0.0000 N   0  0  0  0  0  0  0  0  0  0  0  0
    0.9219   -0.3388    0.0000 S   0  0  0  0  0  0  0  0  0  0  0  0
    1.3344   -1.0533    0.0000 O   0  0  0  0  0  0  0  0  0  0  0  0
    0.5094    0.3757    0.0000 O   0  0  0  0  0  0  0  0  0  0  0  0
    1.6364    0.0737    0.0000 C   0  0  0  0  0  0  0  0  0  0  0  0
    1.6364    0.8987    0.0000 C   0  0  0  0  0  0  0  0  0  0  0  0
    2.3508    1.3112    0.0000 C   0  0  0  0  0  0  0  0  0  0  0  0
    3.0653    0.8987    0.0000 C   0  0  0  0  0  0  0  0  0  0  0  0
    3.7798    1.3112    0.0000 O   0  0  0  0  0  0  0  0  0  0  0  0
    3.7798    2.1362    0.0000 C   0  0  0  0  0  0  0  0  0  0  0  0
    3.0653    0.0737    0.0000 C   0  0  0  0  0  0  0  0  0  0  0  0
    2.3508   -0.3388    0.0000 C   0  0  0  0  0  0  0  0  0  0  0  0
   -1.0127   -0.0468    0.0000 H   0  0  0  0  0  0  0  0  0  0  0  0
   -1.9360   -3.0208    0.0000 H   0  0  0  0  0  0  0  0  0  0  0  0
   -4.1764   -1.5203    0.0000 H   0  0  0  0  0  0  0  0  0  0  0  0
   -2.4383    1.0212    0.0000 H   0  0  0  0  0  0  0  0  0  0  0  0
   -4.2915    1.0212    0.0000 H   0  0  0  0  0  0  0  0  0  0  0  0
   -3.3649    1.5562    0.0000 H   0  0  0  0  0  0  0  0  0  0  0  0
   -1.9360    0.6932    0.0000 H   0  0  0  0  0  0  0  0  0  0  0  0
   -2.0741    0.4064    0.0000 H   0  0  0  0  0  0  0  0  0  0  0  0
   -0.3815    2.2087    0.0000 H   0  0  0  0  0  0  0  0  0  0  0  0
   -0.5070   -3.0588    0.0000 H   0  0  0  0  0  0  0  0  0  0  0  0
    0.4197   -2.5238    0.0000 H   0  0  0  0  0  0  0  0  0  0  0  0
    1.1341   -2.1113    0.0000 H   0  0  0  0  0  0  0  0  0  0  0  0
    1.1340   -1.0413    0.0000 H   0  0  0  0  0  0  0  0  0  0  0  0
    0.7427    1.4147    0.0000 H   0  0  0  0  0  0  0  0  0  0  0  0
    2.3508    2.3432    0.0000 H   0  0  0  0  0  0  0  0  0  0  0  0
    4.7064    2.6712    0.0000 H   0  0  0  0  0  0  0  0  0  0  0  0
    2.8532    2.6712    0.0000 H   0  0  0  0  0  0  0  0  0  0  0  0
    3.7798    3.2062    0.0000 H   0  0  0  0  0  0  0  0  0  0  0  0
    3.9590   -0.4423    0.0000 H   0  0  0  0  0  0  0  0  0  0  0  0
    2.3508   -1.3708    0.0000 H   0  0  0  0  0  0  0  0  0  0  0  0
  1  2  1  0  0  0  0
  1 14  2  0  0  0  0
  1 30  1  0  0  0  0
  2  3  1  0  0  0  0
  2  4  2  0  0  0  0
  3 31  1  0  0  0  0
  4  5  1  0  0  0  0
  4  7  1  0  0  0  0
  5  6  1  0  0  0  0
  6 32  1  0  0  0  0
  6 33  1  0  0  0  0
  6 34  1  0  0  0  0
  7  8  2  0  0  0  0
  7 35  1  0  0  0  0
  8  9  1  0  0  0  0
  8 14  1  0  0  0  0
  9 10  1  0  0  0  0
  9 17  1  0  0  0  0
  9 29  1  1  0  0  0
 10 11  2  0  0  0  0
 10 12  1  0  0  0  0
 12 13  1  0  0  0  0
 12 36  1  0  0  0  0
 13 37  1  0  0  0  0
 14 15  1  0  0  0  0
 15 16  1  0  0  0  0
 15 38  1  0  0  0  0
 15 39  1  0  0  0  0
 16 17  1  0  0  0  0
 16 40  1  0  0  0  0
 16 41  1  0  0  0  0
 17 18  1  0  0  0  0
 18 19  2  0  0  0  0
 18 20  2  0  0  0  0
 18 21  1  0  0  0  0
 21 22  1  0  0  0  0
 21 28  2  0  0  0  0
 22 23  2  0  0  0  0
 22 42  1  0  0  0  0
 23 24  1  0  0  0  0
 23 43  1  0  0  0  0
 24 25  1  0  0  0  0
 24 27  2  0  0  0  0
 25 26  1  0  0  0  0
 26 44  1  0  0  0  0
 26 45  1  0  0  0  0
 26 46  1  0  0  0  0
 27 28  1  0  0  0  0
 27 47  1  0  0  0  0
 28 48  1  0  0  0  0
M  END
>  <DRUGBANK_ID>
DB08170

>  <COMMON_NAME>
(1R)-N,6-DIHYDROXY-7-METHOXY-2-[(4-METHOXYPHENYL)SULFONYL]-1,2,3,4-TETRAHYDROISOQUINOLINE-1-CARBOXAMIDE

$$$$
