
 OpenBabel10282417072D

 76 78  0  0  1  0  0  0  0  0999 V2000
    1.0518   -3.4814    0.0000 H   0  0  0  0  0  0  0  0  0  0  0  0
    1.0950   -2.6576    0.0000 C   0  0  1  0  0  0  0  0  0  0  0  0
    0.3413   -2.9931    0.0000 C   0  0  0  0  0  0  0  0  0  0  0  0
   -0.2107   -2.3800    0.0000 C   0  0  0  0  0  0  0  0  0  0  0  0
    0.2018   -1.6656    0.0000 C   0  0  1  0  0  0  0  0  0  0  0  0
    0.7538   -1.0525    0.0000 H   0  0  0  0  0  0  0  0  0  0  0  0
   -0.0532   -0.8809    0.0000 C   0  0  2  0  0  0  0  0  0  0  0  0
   -0.6052   -1.4940    0.0000 H   0  0  0  0  0  0  0  0  0  0  0  0
   -0.8601   -0.7094    0.0000 C   0  0  0  0  0  0  0  0  0  0  0  0
   -1.1151    0.0752    0.0000 C   0  0  0  0  0  0  0  0  0  0  0  0
   -0.5630    0.6883    0.0000 C   0  0  0  0  0  0  0  0  0  0  0  0
   -0.8180    1.4729    0.0000 N   0  0  0  0  0  0  0  0  0  0  0  0
   -1.6250    1.6445    0.0000 O   0  0  0  0  0  0  0  0  0  0  0  0
    0.2439    0.5168    0.0000 C   0  0  2  0  0  0  0  0  0  0  0  0
    0.2727    1.3413    0.0000 C   0  0  0  0  0  0  0  0  0  0  0  0
    1.0609    0.6316    0.0000 C   0  0  0  0  0  0  0  0  0  0  0  0
    1.5688   -0.0185    0.0000 C   0  0  0  0  0  0  0  0  0  0  0  0
    2.3858    0.0963    0.0000 C   0  0  0  0  0  0  0  0  0  0  0  0
    2.8937   -0.5538    0.0000 O   0  0  0  0  0  0  0  0  0  0  0  0
    0.4989   -0.2678    0.0000 C   0  0  1  0  0  0  0  0  0  0  0  0
    1.0509    0.3453    0.0000 H   0  0  0  0  0  0  0  0  0  0  0  0
    1.3058   -0.4394    0.0000 C   0  0  0  0  0  0  0  0  0  0  0  0
    1.5608   -1.2240    0.0000 C   0  0  0  0  0  0  0  0  0  0  0  0
    1.0087   -1.8371    0.0000 C   0  0  2  0  0  0  0  0  0  0  0  0
    1.7934   -2.0920    0.0000 C   0  0  0  0  0  0  0  0  0  0  0  0
    1.8094   -3.0701    0.0000 C   0  0  2  0  0  0  0  0  0  0  0  0
    1.8094   -3.8951    0.0000 C   0  0  0  0  0  0  0  0  0  0  0  0
    2.5239   -2.6576    0.0000 C   0  0  0  0  0  0  0  0  0  0  0  0
    3.2384   -3.0701    0.0000 C   0  0  0  0  0  0  0  0  0  0  0  0
    3.9529   -2.6576    0.0000 C   0  0  0  0  0  0  0  0  0  0  0  0
    4.6673   -3.0701    0.0000 C   0  0  0  0  0  0  0  0  0  0  0  0
    5.3818   -2.6576    0.0000 C   0  0  0  0  0  0  0  0  0  0  0  0
    4.6673   -3.8951    0.0000 C   0  0  0  0  0  0  0  0  0  0  0  0
    0.1188   -4.0397    0.0000 H   0  0  0  0  0  0  0  0  0  0  0  0
   -0.6923   -3.2700    0.0000 H   0  0  0  0  0  0  0  0  0  0  0  0
   -1.2748   -2.4918    0.0000 H   0  0  0  0  0  0  0  0  0  0  0  0
   -0.7934   -1.4826    0.0000 H   0  0  0  0  0  0  0  0  0  0  0  0
   -1.5760   -1.5046    0.0000 H   0  0  0  0  0  0  0  0  0  0  0  0
   -1.9067   -0.4870    0.0000 H   0  0  0  0  0  0  0  0  0  0  0  0
   -2.1617    0.2977    0.0000 H   0  0  0  0  0  0  0  0  0  0  0  0
   -1.4457    1.0928    0.0000 H   0  0  0  0  0  0  0  0  0  0  0  0
   -1.9145    2.5357    0.0000 H   0  0  0  0  0  0  0  0  0  0  0  0
    1.2175    1.8436    0.0000 H   0  0  0  0  0  0  0  0  0  0  0  0
   -0.6347    1.9083    0.0000 H   0  0  0  0  0  0  0  0  0  0  0  0
    0.3101    2.4106    0.0000 H   0  0  0  0  0  0  0  0  0  0  0  0
    1.4617    1.6237    0.0000 H   0  0  0  0  0  0  0  0  0  0  0  0
    2.1205    0.7805    0.0000 H   0  0  0  0  0  0  0  0  0  0  0  0
    1.1680   -1.0106    0.0000 H   0  0  0  0  0  0  0  0  0  0  0  0
    2.2275   -0.8617    0.0000 H   0  0  0  0  0  0  0  0  0  0  0  0
    2.7866    1.0884    0.0000 H   0  0  0  0  0  0  0  0  0  0  0  0
    3.4454    0.2452    0.0000 H   0  0  0  0  0  0  0  0  0  0  0  0
    2.5303   -1.4532    0.0000 H   0  0  0  0  0  0  0  0  0  0  0  0
    2.0218    0.3558    0.0000 H   0  0  0  0  0  0  0  0  0  0  0  0
    2.3524   -0.6618    0.0000 H   0  0  0  0  0  0  0  0  0  0  0  0
    2.6074   -1.4465    0.0000 H   0  0  0  0  0  0  0  0  0  0  0  0
    1.8914   -2.2416    0.0000 H   0  0  0  0  0  0  0  0  0  0  0  0
    2.0159   -3.1386    0.0000 H   0  0  0  0  0  0  0  0  0  0  0  0
    2.5885   -1.3760    0.0000 H   0  0  0  0  0  0  0  0  0  0  0  0
    2.8111   -2.4226    0.0000 H   0  0  0  0  0  0  0  0  0  0  0  0
    2.7360   -3.6051    0.0000 H   0  0  0  0  0  0  0  0  0  0  0  0
    0.8828   -4.4301    0.0000 H   0  0  0  0  0  0  0  0  0  0  0  0
    2.7360   -4.4301    0.0000 H   0  0  0  0  0  0  0  0  0  0  0  0
    1.8094   -4.9651    0.0000 H   0  0  0  0  0  0  0  0  0  0  0  0
    2.5239   -1.5876    0.0000 H   0  0  0  0  0  0  0  0  0  0  0  0
    3.4505   -2.1226    0.0000 H   0  0  0  0  0  0  0  0  0  0  0  0
    3.2384   -4.1401    0.0000 H   0  0  0  0  0  0  0  0  0  0  0  0
    4.1650   -3.6051    0.0000 H   0  0  0  0  0  0  0  0  0  0  0  0
    3.9529   -1.5876    0.0000 H   0  0  0  0  0  0  0  0  0  0  0  0
    4.8796   -2.1226    0.0000 H   0  0  0  0  0  0  0  0  0  0  0  0
    5.5939   -3.6051    0.0000 H   0  0  0  0  0  0  0  0  0  0  0  0
    6.3084   -3.1926    0.0000 H   0  0  0  0  0  0  0  0  0  0  0  0
    5.3818   -1.5876    0.0000 H   0  0  0  0  0  0  0  0  0  0  0  0
    6.3085   -2.1226    0.0000 H   0  0  0  0  0  0  0  0  0  0  0  0
    3.7407   -4.4301    0.0000 H   0  0  0  0  0  0  0  0  0  0  0  0
    5.5939   -4.4301    0.0000 H   0  0  0  0  0  0  0  0  0  0  0  0
    4.6673   -4.9651    0.0000 H   0  0  0  0  0  0  0  0  0  0  0  0
  2  1  1  6  0  0  0
  2  3  1  0  0  0  0
  2 24  1  0  0  0  0
  2 26  1  0  0  0  0
  3  4  1  0  0  0  0
  3 34  1  0  0  0  0
  3 35  1  0  0  0  0
  4 36  1  0  0  0  0
  4 37  1  0  0  0  0
  5  4  1  0  0  0  0
  5  6  1  6  0  0  0
  5  7  1  0  0  0  0
  7  8  1  1  0  0  0
  7  9  1  0  0  0  0
  7 20  1  0  0  0  0
  9 10  1  0  0  0  0
  9 38  1  0  0  0  0
  9 39  1  0  0  0  0
 10 11  1  0  0  0  0
 10 40  1  0  0  0  0
 10 41  1  0  0  0  0
 11 12  2  0  0  0  0
 12 13  1  0  0  0  0
 13 42  1  0  0  0  0
 14 11  1  0  0  0  0
 14 15  1  1  0  0  0
 14 16  1  0  0  0  0
 15 43  1  0  0  0  0
 15 44  1  0  0  0  0
 15 45  1  0  0  0  0
 16 17  1  0  0  0  0
 16 46  1  0  0  0  0
 16 47  1  0  0  0  0
 17 18  1  0  0  0  0
 17 48  1  0  0  0  0
 17 49  1  0  0  0  0
 18 19  1  0  0  0  0
 18 50  1  0  0  0  0
 18 51  1  0  0  0  0
 19 52  1  0  0  0  0
 20 14  1  0  0  0  0
 20 21  1  6  0  0  0
 20 22  1  0  0  0  0
 22 23  1  0  0  0  0
 22 53  1  0  0  0  0
 22 54  1  0  0  0  0
 23 55  1  0  0  0  0
 23 56  1  0  0  0  0
 24 23  1  0  0  0  0
 24  5  1  0  0  0  0
 24 25  1  1  0  0  0
 25 57  1  0  0  0  0
 25 58  1  0  0  0  0
 25 59  1  0  0  0  0
 26 27  1  0  0  0  0
 26 28  1  0  0  0  0
 26 60  1  6  0  0  0
 27 61  1  0  0  0  0
 27 62  1  0  0  0  0
 27 63  1  0  0  0  0
 28 29  1  0  0  0  0
 28 64  1  0  0  0  0
 28 65  1  0  0  0  0
 29 30  1  0  0  0  0
 29 66  1  0  0  0  0
 29 67  1  0  0  0  0
 30 31  1  0  0  0  0
 30 68  1  0  0  0  0
 30 69  1  0  0  0  0
 31 32  1  0  0  0  0
 31 33  1  0  0  0  0
 31 70  1  0  0  0  0
 32 71  1  0  0  0  0
 32 72  1  0  0  0  0
 32 73  1  0  0  0  0
 33 74  1  0  0  0  0
 33 75  1  0  0  0  0
 33 76  1  0  0  0  0
M  END
>  <DRUGBANK_ID>
DB16031

>  <COMMON_NAME>
TRO40303

>  <CAS_NUMBER>
14291-24-8

>  <UNII>
3W389841RN

$$$$
