AL2
 OpenBabel10282417072D

 38 40  0  0  0  0  0  0  0  0999 V2000
   -2.1647   -0.7019    0.0000 C   0  0  0  0  0  0  0  0  0  0  0  0
   -0.1807   -2.3519    0.0000 O   0  0  0  0  0  0  0  0  0  0  0  0
    0.5338   -1.1144    0.0000 C   0  0  0  0  0  0  0  0  0  0  0  0
   -0.1807   -1.5269    0.0000 C   0  0  1  0  0  0  0  0  0  0  0  0
    1.2482    0.1231    0.0000 C   0  0  0  0  0  0  0  0  0  0  0  0
    1.2482    0.9481    0.0000 C   0  0  0  0  0  0  0  0  0  0  0  0
    1.9627    1.3606    0.0000 C   0  0  0  0  0  0  0  0  0  0  0  0
    2.6772    0.9481    0.0000 C   0  0  0  0  0  0  0  0  0  0  0  0
    2.6772    0.1231    0.0000 C   0  0  0  0  0  0  0  0  0  0  0  0
    1.9627   -0.2894    0.0000 C   0  0  0  0  0  0  0  0  0  0  0  0
   -3.8147   -0.7019    0.0000 O   0  0  0  0  0  0  0  0  0  0  0  0
   -2.9897   -1.5269    0.0000 O   0  0  0  0  0  0  0  0  0  0  0  0
   -2.9897    0.1231    0.0000 N   0  0  0  0  0  0  0  0  0  0  0  0
   -2.9897   -0.7019    0.0000 S   0  0  0  0  0  0  0  0  0  0  0  0
   -1.6798   -1.3694    0.0000 C   0  0  0  0  0  0  0  0  0  0  0  0
   -0.8952   -1.1144    0.0000 C   0  0  0  0  0  0  0  0  0  0  0  0
   -0.8952   -0.2894    0.0000 C   0  0  0  0  0  0  0  0  0  0  0  0
   -1.6798   -0.0345    0.0000 S   0  0  0  0  0  0  0  0  0  0  0  0
   -0.1807    0.1231    0.0000 S   0  0  0  0  0  0  0  0  0  0  0  0
   -0.7110    0.7551    0.0000 O   0  0  0  0  0  0  0  0  0  0  0  0
    0.3496    0.7551    0.0000 O   0  0  0  0  0  0  0  0  0  0  0  0
    0.5338   -0.2894    0.0000 N   0  0  0  0  0  0  0  0  0  0  0  0
    3.3916    1.3606    0.0000 O   0  0  0  0  0  0  0  0  0  0  0  0
    3.3916    2.1856    0.0000 C   0  0  0  0  0  0  0  0  0  0  0  0
    0.3250   -1.8189    0.0000 H   0  0  0  0  0  0  0  0  0  0  0  0
   -1.0207   -2.8369    0.0000 H   0  0  0  0  0  0  0  0  0  0  0  0
    1.4604   -1.6494    0.0000 H   0  0  0  0  0  0  0  0  0  0  0  0
    1.4604   -0.5794    0.0000 H   0  0  0  0  0  0  0  0  0  0  0  0
    0.3545    1.4641    0.0000 H   0  0  0  0  0  0  0  0  0  0  0  0
    1.9627    2.3926    0.0000 H   0  0  0  0  0  0  0  0  0  0  0  0
    3.5709   -0.3929    0.0000 H   0  0  0  0  0  0  0  0  0  0  0  0
    1.9627   -1.3214    0.0000 H   0  0  0  0  0  0  0  0  0  0  0  0
   -2.1064    0.6331    0.0000 H   0  0  0  0  0  0  0  0  0  0  0  0
   -3.8730    0.6331    0.0000 H   0  0  0  0  0  0  0  0  0  0  0  0
   -1.9987   -2.3509    0.0000 H   0  0  0  0  0  0  0  0  0  0  0  0
    4.3182    2.7206    0.0000 H   0  0  0  0  0  0  0  0  0  0  0  0
    2.4650    2.7206    0.0000 H   0  0  0  0  0  0  0  0  0  0  0  0
    3.3916    3.2556    0.0000 H   0  0  0  0  0  0  0  0  0  0  0  0
  1 14  1  0  0  0  0
  1 15  2  0  0  0  0
  1 18  1  0  0  0  0
  2 26  1  0  0  0  0
  3  4  1  0  0  0  0
  3 22  1  0  0  0  0
  3 27  1  0  0  0  0
  3 28  1  0  0  0  0
  4  2  1  0  0  0  0
  4 16  1  0  0  0  0
  4 25  1  1  0  0  0
  5  6  2  0  0  0  0
  5 10  1  0  0  0  0
  5 22  1  0  0  0  0
  6  7  1  0  0  0  0
  6 29  1  0  0  0  0
  7  8  2  0  0  0  0
  7 30  1  0  0  0  0
  8  9  1  0  0  0  0
  8 23  1  0  0  0  0
  9 10  2  0  0  0  0
  9 31  1  0  0  0  0
 10 32  1  0  0  0  0
 11 14  2  0  0  0  0
 12 14  2  0  0  0  0
 13 14  1  0  0  0  0
 13 33  1  0  0  0  0
 13 34  1  0  0  0  0
 15 16  1  0  0  0  0
 15 35  1  0  0  0  0
 16 17  2  0  0  0  0
 17 18  1  0  0  0  0
 17 19  1  0  0  0  0
 19 20  2  0  0  0  0
 19 21  2  0  0  0  0
 19 22  1  0  0  0  0
 23 24  1  0  0  0  0
 24 36  1  0  0  0  0
 24 37  1  0  0  0  0
 24 38  1  0  0  0  0
M  END
>  <DRUGBANK_ID>
DB01964

>  <SECONDARY_ACCESSION_NUMBERS>
EXPT00487

>  <COMMON_NAME>
AL5424

$$$$
