SCZ
 OpenBabel10282417072D

 45 49  0  0  0  0  0  0  0  0999 V2000
   -1.2769    1.0517    0.0000 C   0  0  0  0  0  0  0  0  0  0  0  0
   -0.4923    0.7968    0.0000 C   0  0  0  0  0  0  0  0  0  0  0  0
   -0.4923   -0.0282    0.0000 N   0  0  0  0  0  0  0  0  0  0  0  0
   -1.2769   -0.2832    0.0000 N   0  0  0  0  0  0  0  0  0  0  0  0
   -1.7618    0.3843    0.0000 C   0  0  0  0  0  0  0  0  0  0  0  0
    0.2222    1.2093    0.0000 N   0  0  0  0  0  0  0  0  0  0  0  0
    0.9367    0.7968    0.0000 C   0  0  0  0  0  0  0  0  0  0  0  0
    0.9367   -0.0282    0.0000 C   0  0  0  0  0  0  0  0  0  0  0  0
    0.2222   -0.4407    0.0000 C   0  0  0  0  0  0  0  0  0  0  0  0
    0.2222   -1.2657    0.0000 N   0  0  0  0  0  0  0  0  0  0  0  0
    1.6512    1.2093    0.0000 C   0  0  0  0  0  0  0  0  0  0  0  0
   -0.4923   -1.6782    0.0000 C   0  0  0  0  0  0  0  0  0  0  0  0
   -0.4923   -2.5032    0.0000 C   0  0  0  0  0  0  0  0  0  0  0  0
   -1.2067   -2.9157    0.0000 C   0  0  0  0  0  0  0  0  0  0  0  0
   -1.2067   -3.7407    0.0000 N   0  0  0  0  0  0  0  0  0  0  0  0
   -0.4923   -4.1532    0.0000 C   0  0  0  0  0  0  0  0  0  0  0  0
    0.2222   -3.7407    0.0000 C   0  0  0  0  0  0  0  0  0  0  0  0
    0.2222   -2.9157    0.0000 C   0  0  0  0  0  0  0  0  0  0  0  0
    2.3656    0.7968    0.0000 C   0  0  0  0  0  0  0  0  0  0  0  0
    3.0801    1.2093    0.0000 C   0  0  0  0  0  0  0  0  0  0  0  0
    3.0801    2.0343    0.0000 C   0  0  0  0  0  0  0  0  0  0  0  0
    2.3656    2.4468    0.0000 C   0  0  0  0  0  0  0  0  0  0  0  0
    1.6512    2.0343    0.0000 C   0  0  0  0  0  0  0  0  0  0  0  0
   -1.5318    1.8363    0.0000 C   0  0  0  0  0  0  0  0  0  0  0  0
   -2.1449    2.3884    0.0000 C   0  0  0  0  0  0  0  0  0  0  0  0
   -1.3603    2.6433    0.0000 C   0  0  0  0  0  0  0  0  0  0  0  0
   -2.7938    0.3843    0.0000 H   0  0  0  0  0  0  0  0  0  0  0  0
    1.8304   -0.5442    0.0000 H   0  0  0  0  0  0  0  0  0  0  0  0
    1.0748   -1.7580    0.0000 H   0  0  0  0  0  0  0  0  0  0  0  0
   -1.4189   -1.1432    0.0000 H   0  0  0  0  0  0  0  0  0  0  0  0
   -1.4189   -2.2132    0.0000 H   0  0  0  0  0  0  0  0  0  0  0  0
   -2.1004   -2.3997    0.0000 H   0  0  0  0  0  0  0  0  0  0  0  0
   -0.4923   -5.1852    0.0000 H   0  0  0  0  0  0  0  0  0  0  0  0
    1.1159   -4.2567    0.0000 H   0  0  0  0  0  0  0  0  0  0  0  0
    1.1159   -2.3997    0.0000 H   0  0  0  0  0  0  0  0  0  0  0  0
    2.3656   -0.2352    0.0000 H   0  0  0  0  0  0  0  0  0  0  0  0
    3.9738    0.6933    0.0000 H   0  0  0  0  0  0  0  0  0  0  0  0
    3.9738    2.5503    0.0000 H   0  0  0  0  0  0  0  0  0  0  0  0
    2.3656    3.4788    0.0000 H   0  0  0  0  0  0  0  0  0  0  0  0
    0.7575    2.5503    0.0000 H   0  0  0  0  0  0  0  0  0  0  0  0
   -1.8624    2.8539    0.0000 H   0  0  0  0  0  0  0  0  0  0  0  0
   -3.1915    2.6109    0.0000 H   0  0  0  0  0  0  0  0  0  0  0  0
   -2.2009    3.4569    0.0000 H   0  0  0  0  0  0  0  0  0  0  0  0
   -0.6443    3.4385    0.0000 H   0  0  0  0  0  0  0  0  0  0  0  0
   -1.9430    3.5407    0.0000 H   0  0  0  0  0  0  0  0  0  0  0  0
  1  2  2  0  0  0  0
  1 24  1  0  0  0  0
  2  6  1  0  0  0  0
  3  2  1  0  0  0  0
  4  5  2  0  0  0  0
  4  3  1  0  0  0  0
  5  1  1  0  0  0  0
  5 27  1  0  0  0  0
  7  6  2  0  0  0  0
  7 11  1  0  0  0  0
  8  7  1  0  0  0  0
  8 28  1  0  0  0  0
  9  3  1  0  0  0  0
  9  8  2  0  0  0  0
 10 12  1  0  0  0  0
 10  9  1  0  0  0  0
 10 29  1  0  0  0  0
 11 23  2  0  0  0  0
 11 19  1  0  0  0  0
 12 30  1  0  0  0  0
 12 31  1  0  0  0  0
 13 18  1  0  0  0  0
 13 12  1  0  0  0  0
 14 13  2  0  0  0  0
 14 32  1  0  0  0  0
 15 16  2  0  0  0  0
 15 14  1  0  0  0  0
 16 17  1  0  0  0  0
 16 33  1  0  0  0  0
 17 18  2  0  0  0  0
 17 34  1  0  0  0  0
 18 35  1  0  0  0  0
 19 20  2  0  0  0  0
 19 36  1  0  0  0  0
 20 21  1  0  0  0  0
 20 37  1  0  0  0  0
 21 38  1  0  0  0  0
 22 21  2  0  0  0  0
 22 39  1  0  0  0  0
 23 22  1  0  0  0  0
 23 40  1  0  0  0  0
 24 25  1  0  0  0  0
 24 26  1  0  0  0  0
 24 41  1  0  0  0  0
 25 26  1  0  0  0  0
 25 42  1  0  0  0  0
 25 43  1  0  0  0  0
 26 44  1  0  0  0  0
 26 45  1  0  0  0  0
M  END
>  <DRUGBANK_ID>
DB08539

>  <COMMON_NAME>
3-cyclopropyl-5-phenyl-N-(pyridin-3-ylmethyl)pyrazolo[1,5-a]pyrimidin-7-amine

$$$$
