
 OpenBabel10282417072D

 35 37  0  0  0  0  0  0  0  0999 V2000
   -0.1769    1.4923    0.0000 C   0  0  0  0  0  0  0  0  0  0  0  0
   -0.1769    0.6672    0.0000 C   0  0  0  0  0  0  0  0  0  0  0  0
    1.0926    1.0797    0.0000 C   0  0  0  0  0  0  0  0  0  0  0  0
   -0.8913    1.9048    0.0000 C   0  0  0  0  0  0  0  0  0  0  0  0
   -0.8913    2.7297    0.0000 O   0  0  0  0  0  0  0  0  0  0  0  0
   -1.6058    1.4923    0.0000 N   0  0  0  0  0  0  0  0  0  0  0  0
   -0.8913    0.2548    0.0000 N   0  0  0  0  0  0  0  0  0  0  0  0
    0.6077    1.7472    0.0000 N   0  0  0  0  0  0  0  0  0  0  0  0
    0.6077    0.4124    0.0000 C   0  0  0  0  0  0  0  0  0  0  0  0
    0.8212   -0.3845    0.0000 C   0  0  2  0  0  0  0  0  0  0  0  0
    0.3363   -1.0518    0.0000 N   0  0  0  0  0  0  0  0  0  0  0  0
    0.8212   -1.7193    0.0000 C   0  0  2  0  0  0  0  0  0  0  0  0
    0.6077   -2.5162    0.0000 C   0  0  0  0  0  0  0  0  0  0  0  0
   -0.1891   -2.7298    0.0000 O   0  0  0  0  0  0  0  0  0  0  0  0
    1.6058   -0.6394    0.0000 C   0  0  2  0  0  0  0  0  0  0  0  0
    2.3203   -0.2269    0.0000 O   0  0  0  0  0  0  0  0  0  0  0  0
    1.6058   -1.4644    0.0000 C   0  0  2  0  0  0  0  0  0  0  0  0
    2.3203   -1.8769    0.0000 O   0  0  0  0  0  0  0  0  0  0  0  0
   -1.6058    0.6672    0.0000 C   0  0  0  0  0  0  0  0  0  0  0  0
   -2.3203    0.2548    0.0000 N   0  0  0  0  0  0  0  0  0  0  0  0
    2.1246    1.0796    0.0000 H   0  0  0  0  0  0  0  0  0  0  0  0
   -2.4584    1.9846    0.0000 H   0  0  0  0  0  0  0  0  0  0  0  0
    0.9120    2.6835    0.0000 H   0  0  0  0  0  0  0  0  0  0  0  0
    1.5973    0.3520    0.0000 H   0  0  0  0  0  0  0  0  0  0  0  0
   -0.6837   -1.0517    0.0000 H   0  0  0  0  0  0  0  0  0  0  0  0
    1.5973   -2.4558    0.0000 H   0  0  0  0  0  0  0  0  0  0  0  0
    1.3644   -3.2727    0.0000 H   0  0  0  0  0  0  0  0  0  0  0  0
    0.3309   -3.5498    0.0000 H   0  0  0  0  0  0  0  0  0  0  0  0
   -0.8751   -2.0440    0.0000 H   0  0  0  0  0  0  0  0  0  0  0  0
    2.5324   -1.1744    0.0000 H   0  0  0  0  0  0  0  0  0  0  0  0
    3.1603   -0.7119    0.0000 H   0  0  0  0  0  0  0  0  0  0  0  0
    1.4939   -2.5285    0.0000 H   0  0  0  0  0  0  0  0  0  0  0  0
    2.3203   -2.8469    0.0000 H   0  0  0  0  0  0  0  0  0  0  0  0
   -3.1728    0.7472    0.0000 H   0  0  0  0  0  0  0  0  0  0  0  0
   -2.3204   -0.7297    0.0000 H   0  0  0  0  0  0  0  0  0  0  0  0
  1  2  2  0  0  0  0
  2  9  1  0  0  0  0
  3 21  1  0  0  0  0
  4  6  1  0  0  0  0
  4  1  1  0  0  0  0
  4  5  2  0  0  0  0
  6 19  1  0  0  0  0
  6 22  1  0  0  0  0
  7  2  1  0  0  0  0
  8  1  1  0  0  0  0
  8  3  1  0  0  0  0
  8 23  1  0  0  0  0
  9  3  2  0  0  0  0
 10  9  1  0  0  0  0
 10 11  1  0  0  0  0
 10 24  1  6  0  0  0
 11 25  1  0  0  0  0
 12 17  1  0  0  0  0
 12 11  1  0  0  0  0
 12 13  1  0  0  0  0
 12 26  1  6  0  0  0
 13 14  1  0  0  0  0
 13 27  1  0  0  0  0
 13 28  1  0  0  0  0
 14 29  1  0  0  0  0
 15 10  1  0  0  0  0
 15 16  1  0  0  0  0
 15 30  1  1  0  0  0
 16 31  1  0  0  0  0
 17 15  1  0  0  0  0
 17 18  1  0  0  0  0
 17 32  1  1  0  0  0
 18 33  1  0  0  0  0
 19  7  2  0  0  0  0
 19 20  1  0  0  0  0
 20 34  1  0  0  0  0
 20 35  1  0  0  0  0
M  END
>  <DRUGBANK_ID>
DB02230

>  <SECONDARY_ACCESSION_NUMBERS>
EXPT01868

>  <COMMON_NAME>
Immucillin-G

>  <UNII>
XLM0Q9H891

>  <SYNONYMS>
(1S)-1,4-dideoxy-1,4-imino-1-(9-deazaguanin-9-yl)-D-ribitol

$$$$
