
 OpenBabel10282417072D

 54 58  0  0  0  0  0  0  0  0999 V2000
    0.4768    0.3981    0.0000 C   0  0  0  0  0  0  0  0  0  0  0  0
    1.1902   -0.0143    0.0000 N   0  0  0  0  0  0  0  0  0  0  0  0
    1.9036    0.3981    0.0000 C   0  0  0  0  0  0  0  0  0  0  0  0
    1.9036    1.2231    0.0000 C   0  0  0  0  0  0  0  0  0  0  0  0
    1.1902    1.6356    0.0000 C   0  0  0  0  0  0  0  0  0  0  0  0
    0.4768    1.2231    0.0000 N   0  0  0  0  0  0  0  0  0  0  0  0
    3.1727    0.8106    0.0000 N   0  0  0  0  0  0  0  0  0  0  0  0
    2.6897    0.1459    0.0000 N   0  0  0  0  0  0  0  0  0  0  0  0
    2.6897    1.4795    0.0000 C   0  0  0  0  0  0  0  0  0  0  0  0
    1.1902    2.4606    0.0000 O   0  0  0  0  0  0  0  0  0  0  0  0
    4.0078   -1.5943    0.0000 C   0  0  0  0  0  0  0  0  0  0  0  0
    3.7515   -0.8124    0.0000 C   0  0  0  0  0  0  0  0  0  0  0  0
    2.9462   -0.6401    0.0000 C   0  0  0  0  0  0  0  0  0  0  0  0
    2.3931   -1.2540    0.0000 C   0  0  0  0  0  0  0  0  0  0  0  0
    2.6452   -2.0360    0.0000 C   0  0  0  0  0  0  0  0  0  0  0  0
    3.4546   -2.2082    0.0000 O   0  0  0  0  0  0  0  0  0  0  0  0
   -1.1327   -1.0034    0.0000 N   0  0  0  0  0  0  0  0  0  0  0  0
   -0.3231   -0.8353    0.0000 C   0  0  0  0  0  0  0  0  0  0  0  0
   -0.2365   -0.0143    0.0000 C   0  0  2  0  0  0  0  0  0  0  0  0
   -0.9920    0.3237    0.0000 C   0  0  1  0  0  0  0  0  0  0  0  0
   -1.5451   -0.2900    0.0000 C   0  0  0  0  0  0  0  0  0  0  0  0
   -1.1642    1.1291    0.0000 C   0  0  0  0  0  0  0  0  0  0  0  0
   -1.5375   -1.7224    0.0000 C   0  0  0  0  0  0  0  0  0  0  0  0
   -2.3625   -1.7313    0.0000 C   0  0  0  0  0  0  0  0  0  0  0  0
   -2.7780   -1.0204    0.0000 N   0  0  0  0  0  0  0  0  0  0  0  0
   -3.6022   -1.0289    0.0000 C   0  0  0  0  0  0  0  0  0  0  0  0
   -4.0078   -1.7483    0.0000 C   0  0  0  0  0  0  0  0  0  0  0  0
   -3.5832   -2.4606    0.0000 C   0  0  0  0  0  0  0  0  0  0  0  0
   -2.7604   -2.4485    0.0000 N   0  0  0  0  0  0  0  0  0  0  0  0
   -0.3760    1.7151    0.0000 H   0  0  0  0  0  0  0  0  0  0  0  0
    3.0095    2.4607    0.0000 H   0  0  0  0  0  0  0  0  0  0  0  0
    5.0547   -1.8156    0.0000 H   0  0  0  0  0  0  0  0  0  0  0  0
    4.3388   -2.6118    0.0000 H   0  0  0  0  0  0  0  0  0  0  0  0
    4.4670   -0.0168    0.0000 H   0  0  0  0  0  0  0  0  0  0  0  0
    3.4212    0.2053    0.0000 H   0  0  0  0  0  0  0  0  0  0  0  0
    1.8995   -0.4181    0.0000 H   0  0  0  0  0  0  0  0  0  0  0  0
    1.3468   -1.0302    0.0000 H   0  0  0  0  0  0  0  0  0  0  0  0
    1.6757   -2.0479    0.0000 H   0  0  0  0  0  0  0  0  0  0  0  0
    1.9282   -2.8303    0.0000 H   0  0  0  0  0  0  0  0  0  0  0  0
    2.9751   -3.0539    0.0000 H   0  0  0  0  0  0  0  0  0  0  0  0
    0.4702   -1.5533    0.0000 H   0  0  0  0  0  0  0  0  0  0  0  0
    0.6764   -0.4533    0.0000 H   0  0  0  0  0  0  0  0  0  0  0  0
    0.6609   -0.5970    0.0000 H   0  0  0  0  0  0  0  0  0  0  0  0
   -0.1603    0.9968    0.0000 H   0  0  0  0  0  0  0  0  0  0  0  0
   -2.6092   -0.1782    0.0000 H   0  0  0  0  0  0  0  0  0  0  0  0
   -2.1276   -1.1875    0.0000 H   0  0  0  0  0  0  0  0  0  0  0  0
   -0.3699    1.8460    0.0000 H   0  0  0  0  0  0  0  0  0  0  0  0
   -2.1822    1.4585    0.0000 H   0  0  0  0  0  0  0  0  0  0  0  0
   -1.3879    2.1755    0.0000 H   0  0  0  0  0  0  0  0  0  0  0  0
   -0.9925   -2.6432    0.0000 H   0  0  0  0  0  0  0  0  0  0  0  0
   -2.0625   -2.6548    0.0000 H   0  0  0  0  0  0  0  0  0  0  0  0
   -4.1273   -0.1405    0.0000 H   0  0  0  0  0  0  0  0  0  0  0  0
   -5.0397   -1.7608    0.0000 H   0  0  0  0  0  0  0  0  0  0  0  0
   -4.0863   -3.3616    0.0000 H   0  0  0  0  0  0  0  0  0  0  0  0
  1  2  2  0  0  0  0
  1  6  1  0  0  0  0
  2  3  1  0  0  0  0
  3  4  2  0  0  0  0
  3  8  1  0  0  0  0
  4  5  1  0  0  0  0
  4  9  1  0  0  0  0
  5  6  1  0  0  0  0
  5 10  2  0  0  0  0
  6 30  1  0  0  0  0
  7  8  1  0  0  0  0
  7  9  2  0  0  0  0
  8 13  1  0  0  0  0
  9 31  1  0  0  0  0
 11 12  1  0  0  0  0
 11 16  1  0  0  0  0
 11 32  1  0  0  0  0
 11 33  1  0  0  0  0
 12 13  1  0  0  0  0
 12 34  1  0  0  0  0
 12 35  1  0  0  0  0
 13 14  1  0  0  0  0
 13 36  1  0  0  0  0
 14 15  1  0  0  0  0
 14 37  1  0  0  0  0
 14 38  1  0  0  0  0
 15 16  1  0  0  0  0
 15 39  1  0  0  0  0
 15 40  1  0  0  0  0
 17 18  1  0  0  0  0
 17 21  1  0  0  0  0
 17 23  1  0  0  0  0
 18 19  1  0  0  0  0
 18 41  1  0  0  0  0
 18 42  1  0  0  0  0
 19 20  1  0  0  0  0
 19  1  1  0  0  0  0
 19 43  1  1  0  0  0
 20 21  1  0  0  0  0
 20 22  1  0  0  0  0
 20 44  1  6  0  0  0
 21 45  1  0  0  0  0
 21 46  1  0  0  0  0
 22 47  1  0  0  0  0
 22 48  1  0  0  0  0
 22 49  1  0  0  0  0
 23 24  1  0  0  0  0
 23 50  1  0  0  0  0
 23 51  1  0  0  0  0
 24 25  2  0  0  0  0
 25 26  1  0  0  0  0
 26 27  2  0  0  0  0
 26 52  1  0  0  0  0
 27 28  1  0  0  0  0
 27 53  1  0  0  0  0
 28 29  2  0  0  0  0
 28 54  1  0  0  0  0
 29 24  1  0  0  0  0
M  END
>  <DRUGBANK_ID>
DB11953

>  <COMMON_NAME>
PF-04447943

>  <CAS_NUMBER>
1082744-20-4

>  <UNII>
7N969W8Y4O

>  <SYNONYMS>
4H-pyrazolo(3,4-d)pyrimidin-4-one, 1,5-dihydro-6-((3S,4S)-4-methyl-1-(2-pyrimidinylmethyl)-3-pyrrolidinyl)-1-(tetrahydro-2H-pyran-4-yl)-; 6-((3S,4S)-4-Methyl-1-(pyrimidin-2-ylmethyl)pyrrolidin-3-yl)-1-(tetrahydro-2H-pyran-4-yl)-1,5-dihydro-4H-pyrazolo(3,4-d)pyrimidin-4-one

$$$$
