220
 OpenBabel10282417072D

 85 88  0  0  1  0  0  0  0  0999 V2000
    3.7935    0.3077    0.0000 S   0  0  0  0  0  0  0  0  0  0  0  0
    5.2224   -2.1673    0.0000 O   0  0  0  0  0  0  0  0  0  0  0  0
    6.6515    0.3077    0.0000 O   0  0  0  0  0  0  0  0  0  0  0  0
    3.7935    1.1327    0.0000 O   0  0  0  0  0  0  0  0  0  0  0  0
    5.9370    4.0203    0.0000 O   0  0  0  0  0  0  0  0  0  0  0  0
    6.6515   -1.3423    0.0000 N   0  0  0  0  0  0  0  0  0  0  0  0
    5.9370   -3.4048    0.0000 N   0  0  0  0  0  0  0  0  0  0  0  0
    5.2224    1.1327    0.0000 N   0  0  0  0  0  0  0  0  0  0  0  0
    8.0804   -2.1673    0.0000 C   0  0  2  0  0  0  0  0  0  0  0  0
    8.0804   -1.3423    0.0000 C   0  0  1  0  0  0  0  0  0  0  0  0
    7.3659   -2.5798    0.0000 C   0  0  0  0  0  0  0  0  0  0  0  0
    7.3659   -0.9298    0.0000 C   0  0  0  0  0  0  0  0  0  0  0  0
    8.8180   -2.6084    0.0000 C   0  0  0  0  0  0  0  0  0  0  0  0
    8.8180   -0.9012    0.0000 C   0  0  0  0  0  0  0  0  0  0  0  0
    6.6515   -2.1673    0.0000 C   0  0  1  0  0  0  0  0  0  0  0  0
    9.5654   -2.1845    0.0000 C   0  0  0  0  0  0  0  0  0  0  0  0
    9.5654   -1.3251    0.0000 C   0  0  0  0  0  0  0  0  0  0  0  0
    5.9370   -0.9298    0.0000 C   0  0  0  0  0  0  0  0  0  0  0  0
    5.9370   -2.5798    0.0000 C   0  0  0  0  0  0  0  0  0  0  0  0
    5.9370   -0.1048    0.0000 C   0  0  2  0  0  0  0  0  0  0  0  0
    5.2224    0.3077    0.0000 C   0  0  2  0  0  0  0  0  0  0  0  0
    5.2224   -3.8174    0.0000 C   0  0  0  0  0  0  0  0  0  0  0  0
    4.5080   -0.1048    0.0000 C   0  0  0  0  0  0  0  0  0  0  0  0
    4.8099   -3.1029    0.0000 C   0  0  0  0  0  0  0  0  0  0  0  0
    4.5080   -4.2299    0.0000 C   0  0  0  0  0  0  0  0  0  0  0  0
    5.6350   -4.5318    0.0000 C   0  0  0  0  0  0  0  0  0  0  0  0
    4.5080    1.5453    0.0000 C   0  0  0  0  0  0  0  0  0  0  0  0
    4.5080    2.3703    0.0000 C   0  0  0  0  0  0  0  0  0  0  0  0
    3.0791   -0.1048    0.0000 C   0  0  0  0  0  0  0  0  0  0  0  0
    5.2224    2.7828    0.0000 C   0  0  0  0  0  0  0  0  0  0  0  0
    3.7935    2.7828    0.0000 C   0  0  0  0  0  0  0  0  0  0  0  0
    3.0791   -0.9298    0.0000 C   0  0  0  0  0  0  0  0  0  0  0  0
    2.3645    0.3077    0.0000 C   0  0  0  0  0  0  0  0  0  0  0  0
    5.2224    3.6078    0.0000 C   0  0  0  0  0  0  0  0  0  0  0  0
    5.9370    2.3703    0.0000 C   0  0  0  0  0  0  0  0  0  0  0  0
    3.7935    3.6078    0.0000 C   0  0  0  0  0  0  0  0  0  0  0  0
    2.3645   -1.3423    0.0000 C   0  0  0  0  0  0  0  0  0  0  0  0
    1.6500   -0.1048    0.0000 C   0  0  0  0  0  0  0  0  0  0  0  0
    4.5080    4.0203    0.0000 C   0  0  0  0  0  0  0  0  0  0  0  0
    1.6500   -0.9298    0.0000 C   0  0  0  0  0  0  0  0  0  0  0  0
    8.0754   -2.8273    0.0000 H   0  0  0  0  0  0  0  0  0  0  0  0
    8.0754   -0.6823    0.0000 H   0  0  0  0  0  0  0  0  0  0  0  0
    7.4915   -0.1773    0.0000 H   0  0  0  0  0  0  0  0  0  0  0  0
    6.7484    3.5517    0.0000 H   0  0  0  0  0  0  0  0  0  0  0  0
    6.7896   -3.8970    0.0000 H   0  0  0  0  0  0  0  0  0  0  0  0
    6.0750    1.6249    0.0000 H   0  0  0  0  0  0  0  0  0  0  0  0
    7.3659   -3.6498    0.0000 H   0  0  0  0  0  0  0  0  0  0  0  0
    6.4392   -3.1148    0.0000 H   0  0  0  0  0  0  0  0  0  0  0  0
    7.3659    0.1402    0.0000 H   0  0  0  0  0  0  0  0  0  0  0  0
    8.2925   -0.3948    0.0000 H   0  0  0  0  0  0  0  0  0  0  0  0
    8.8057   -3.6783    0.0000 H   0  0  0  0  0  0  0  0  0  0  0  0
    9.7395   -3.1523    0.0000 H   0  0  0  0  0  0  0  0  0  0  0  0
    8.8057    0.1687    0.0000 H   0  0  0  0  0  0  0  0  0  0  0  0
    9.7395   -0.3573    0.0000 H   0  0  0  0  0  0  0  0  0  0  0  0
    5.7249   -1.6323    0.0000 H   0  0  0  0  0  0  0  0  0  0  0  0
   10.4900   -2.7231    0.0000 H   0  0  0  0  0  0  0  0  0  0  0  0
   10.4931   -1.6513    0.0000 H   0  0  0  0  0  0  0  0  0  0  0  0
   10.4900   -0.7865    0.0000 H   0  0  0  0  0  0  0  0  0  0  0  0
   10.4931   -1.8583    0.0000 H   0  0  0  0  0  0  0  0  0  0  0  0
    5.0104   -1.4648    0.0000 H   0  0  0  0  0  0  0  0  0  0  0  0
    5.0104   -0.3948    0.0000 H   0  0  0  0  0  0  0  0  0  0  0  0
    6.8636   -0.6398    0.0000 H   0  0  0  0  0  0  0  0  0  0  0  0
    6.1490    0.8427    0.0000 H   0  0  0  0  0  0  0  0  0  0  0  0
    4.5080   -1.1748    0.0000 H   0  0  0  0  0  0  0  0  0  0  0  0
    5.4347   -0.6398    0.0000 H   0  0  0  0  0  0  0  0  0  0  0  0
    5.3449   -2.1763    0.0000 H   0  0  0  0  0  0  0  0  0  0  0  0
    3.7399   -3.1029    0.0000 H   0  0  0  0  0  0  0  0  0  0  0  0
    4.2749   -2.1762    0.0000 H   0  0  0  0  0  0  0  0  0  0  0  0
    3.5813   -3.6949    0.0000 H   0  0  0  0  0  0  0  0  0  0  0  0
    4.5080   -5.2999    0.0000 H   0  0  0  0  0  0  0  0  0  0  0  0
    3.5814   -4.7649    0.0000 H   0  0  0  0  0  0  0  0  0  0  0  0
    5.1001   -5.4585    0.0000 H   0  0  0  0  0  0  0  0  0  0  0  0
    6.7050   -4.5316    0.0000 H   0  0  0  0  0  0  0  0  0  0  0  0
    6.1701   -5.4584    0.0000 H   0  0  0  0  0  0  0  0  0  0  0  0
    2.8998    2.2668    0.0000 H   0  0  0  0  0  0  0  0  0  0  0  0
    3.9728   -1.4458    0.0000 H   0  0  0  0  0  0  0  0  0  0  0  0
    2.3645    1.3397    0.0000 H   0  0  0  0  0  0  0  0  0  0  0  0
    5.9371    1.3003    0.0000 H   0  0  0  0  0  0  0  0  0  0  0  0
    6.8636    2.9054    0.0000 H   0  0  0  0  0  0  0  0  0  0  0  0
    6.8637    1.8354    0.0000 H   0  0  0  0  0  0  0  0  0  0  0  0
    2.8998    4.1238    0.0000 H   0  0  0  0  0  0  0  0  0  0  0  0
    2.3645   -2.3743    0.0000 H   0  0  0  0  0  0  0  0  0  0  0  0
    0.7563    0.4112    0.0000 H   0  0  0  0  0  0  0  0  0  0  0  0
    4.5080    5.0523    0.0000 H   0  0  0  0  0  0  0  0  0  0  0  0
    0.7563   -1.4458    0.0000 H   0  0  0  0  0  0  0  0  0  0  0  0
  1 23  1  0  0  0  0
  1 29  1  0  0  0  0
  2 19  2  0  0  0  0
  3 43  1  0  0  0  0
  4 27  2  0  0  0  0
  5 34  1  0  0  0  0
  5 44  1  0  0  0  0
  6 12  1  0  0  0  0
  6 15  1  0  0  0  0
  6 18  1  0  0  0  0
  7 19  1  0  0  0  0
  7 22  1  0  0  0  0
  7 45  1  0  0  0  0
  8 27  1  0  0  0  0
  8 46  1  0  0  0  0
  9 10  1  0  0  0  0
  9 11  1  0  0  0  0
  9 13  1  0  0  0  0
  9 41  1  6  0  0  0
 10 12  1  0  0  0  0
 10 14  1  0  0  0  0
 10 42  1  6  0  0  0
 11 15  1  0  0  0  0
 11 47  1  0  0  0  0
 11 48  1  0  0  0  0
 12 49  1  0  0  0  0
 12 50  1  0  0  0  0
 13 16  1  0  0  0  0
 13 51  1  0  0  0  0
 13 52  1  0  0  0  0
 14 17  1  0  0  0  0
 14 53  1  0  0  0  0
 14 54  1  0  0  0  0
 15 19  1  0  0  0  0
 15 55  1  6  0  0  0
 16 17  1  0  0  0  0
 16 56  1  0  0  0  0
 16 57  1  0  0  0  0
 17 58  1  0  0  0  0
 17 59  1  0  0  0  0
 18 20  1  0  0  0  0
 18 60  1  0  0  0  0
 18 61  1  0  0  0  0
 20  3  1  0  0  0  0
 20 21  1  0  0  0  0
 20 62  1  1  0  0  0
 21  8  1  0  0  0  0
 21 23  1  0  0  0  0
 21 63  1  1  0  0  0
 22 24  1  0  0  0  0
 22 25  1  0  0  0  0
 22 26  1  0  0  0  0
 23 64  1  0  0  0  0
 23 65  1  0  0  0  0
 24 66  1  0  0  0  0
 24 67  1  0  0  0  0
 24 68  1  0  0  0  0
 25 69  1  0  0  0  0
 25 70  1  0  0  0  0
 25 71  1  0  0  0  0
 26 72  1  0  0  0  0
 26 73  1  0  0  0  0
 26 74  1  0  0  0  0
 27 28  1  0  0  0  0
 28 30  2  0  0  0  0
 28 31  1  0  0  0  0
 29 32  2  0  0  0  0
 29 33  1  0  0  0  0
 30 34  1  0  0  0  0
 30 35  1  0  0  0  0
 31 36  2  0  0  0  0
 31 75  1  0  0  0  0
 32 37  1  0  0  0  0
 32 76  1  0  0  0  0
 33 38  2  0  0  0  0
 33 77  1  0  0  0  0
 34 39  2  0  0  0  0
 35 78  1  0  0  0  0
 35 79  1  0  0  0  0
 35 80  1  0  0  0  0
 36 39  1  0  0  0  0
 36 81  1  0  0  0  0
 37 40  2  0  0  0  0
 37 82  1  0  0  0  0
 38 40  1  0  0  0  0
 38 83  1  0  0  0  0
 39 84  1  0  0  0  0
 40 85  1  0  0  0  0
M  END
>  <DRUGBANK_ID>
DB00220

>  <SECONDARY_ACCESSION_NUMBERS>
APRD00003

>  <COMMON_NAME>
Nelfinavir

>  <CAS_NUMBER>
159989-64-7

>  <UNII>
HO3OGH5D7I

>  <SYNONYMS>
Nelfinavir

$$$$
