
 OpenBabel10282417072D

 54 53  0  0  0  0  0  0  0  0999 V2000
   -1.2344    0.1321    0.0000 C   0  0  0  0  0  0  0  0  0  0  0  0
   -0.4129    0.1321    0.0000 C   0  0  0  0  0  0  0  0  0  0  0  0
   -1.9488   -0.2808    0.0000 C   0  0  0  0  0  0  0  0  0  0  0  0
    0.3014   -0.2808    0.0000 C   0  0  0  0  0  0  0  0  0  0  0  0
   -2.6589    0.1321    0.0000 C   0  0  0  0  0  0  0  0  0  0  0  0
    1.0157    0.1321    0.0000 C   0  0  0  0  0  0  0  0  0  0  0  0
   -3.4846    0.1321    0.0000 C   0  0  0  0  0  0  0  0  0  0  0  0
    1.8373    0.1321    0.0000 C   0  0  0  0  0  0  0  0  0  0  0  0
   -4.1907   -0.2808    0.0000 C   0  0  0  0  0  0  0  0  0  0  0  0
    2.5515   -0.2808    0.0000 C   0  0  0  0  0  0  0  0  0  0  0  0
   -4.9091    0.1321    0.0000 C   0  0  0  0  0  0  0  0  0  0  0  0
    3.2617    0.1321    0.0000 C   0  0  0  0  0  0  0  0  0  0  0  0
   -5.6234   -0.2808    0.0000 C   0  0  0  0  0  0  0  0  0  0  0  0
    4.0874    0.1321    0.0000 C   0  0  0  0  0  0  0  0  0  0  0  0
   -6.3336    0.1321    0.0000 C   0  0  0  0  0  0  0  0  0  0  0  0
    4.8017   -0.2808    0.0000 C   0  0  0  0  0  0  0  0  0  0  0  0
   -7.0478   -0.2808    0.0000 O   0  0  0  0  0  0  0  0  0  0  0  0
   -6.3336    0.9538    0.0000 O   0  0  0  0  0  0  0  0  0  0  0  0
    5.5119    0.1321    0.0000 C   0  0  0  0  0  0  0  0  0  0  0  0
    6.2262   -0.2808    0.0000 C   0  0  0  0  0  0  0  0  0  0  0  0
    6.9363    0.1321    0.0000 C   0  0  0  0  0  0  0  0  0  0  0  0
    7.6506   -0.2808    0.0000 C   0  0  0  0  0  0  0  0  0  0  0  0
   -1.5017    1.1289    0.0000 H   0  0  0  0  0  0  0  0  0  0  0  0
   -0.1455    1.1289    0.0000 H   0  0  0  0  0  0  0  0  0  0  0  0
   -1.9502   -1.3508    0.0000 H   0  0  0  0  0  0  0  0  0  0  0  0
   -2.8766   -0.8138    0.0000 H   0  0  0  0  0  0  0  0  0  0  0  0
    0.3014   -1.3508    0.0000 H   0  0  0  0  0  0  0  0  0  0  0  0
    1.2282   -0.8156    0.0000 H   0  0  0  0  0  0  0  0  0  0  0  0
   -2.3903    1.1285    0.0000 H   0  0  0  0  0  0  0  0  0  0  0  0
    0.7483    1.1289    0.0000 H   0  0  0  0  0  0  0  0  0  0  0  0
   -3.7545    1.1282    0.0000 H   0  0  0  0  0  0  0  0  0  0  0  0
    2.1047    1.1289    0.0000 H   0  0  0  0  0  0  0  0  0  0  0  0
   -4.1867   -1.3508    0.0000 H   0  0  0  0  0  0  0  0  0  0  0  0
   -5.1158   -0.8184    0.0000 H   0  0  0  0  0  0  0  0  0  0  0  0
    2.5528   -1.3508    0.0000 H   0  0  0  0  0  0  0  0  0  0  0  0
    3.4793   -0.8138    0.0000 H   0  0  0  0  0  0  0  0  0  0  0  0
   -4.9104    1.2021    0.0000 H   0  0  0  0  0  0  0  0  0  0  0  0
   -5.8362    0.6663    0.0000 H   0  0  0  0  0  0  0  0  0  0  0  0
    2.9931    1.1285    0.0000 H   0  0  0  0  0  0  0  0  0  0  0  0
   -5.6247   -1.3508    0.0000 H   0  0  0  0  0  0  0  0  0  0  0  0
   -6.5512   -0.8138    0.0000 H   0  0  0  0  0  0  0  0  0  0  0  0
    4.3548    1.1289    0.0000 H   0  0  0  0  0  0  0  0  0  0  0  0
    4.8030   -1.3508    0.0000 H   0  0  0  0  0  0  0  0  0  0  0  0
    5.7295   -0.8138    0.0000 H   0  0  0  0  0  0  0  0  0  0  0  0
   -7.8595    0.1872    0.0000 H   0  0  0  0  0  0  0  0  0  0  0  0
    5.5106    1.2021    0.0000 H   0  0  0  0  0  0  0  0  0  0  0  0
    6.4384    0.6674    0.0000 H   0  0  0  0  0  0  0  0  0  0  0  0
    6.2276   -1.3508    0.0000 H   0  0  0  0  0  0  0  0  0  0  0  0
    7.1540   -0.8138    0.0000 H   0  0  0  0  0  0  0  0  0  0  0  0
    6.9349    1.2021    0.0000 H   0  0  0  0  0  0  0  0  0  0  0  0
    7.8627    0.6675    0.0000 H   0  0  0  0  0  0  0  0  0  0  0  0
    7.6500   -1.3508    0.0000 H   0  0  0  0  0  0  0  0  0  0  0  0
    8.5775    0.2537    0.0000 H   0  0  0  0  0  0  0  0  0  0  0  0
    8.5770   -0.8163    0.0000 H   0  0  0  0  0  0  0  0  0  0  0  0
  1  2  2  0  0  0  0
  1  3  1  0  0  0  0
  1 23  1  0  0  0  0
  2  4  1  0  0  0  0
  2 24  1  0  0  0  0
  3  5  1  0  0  0  0
  3 25  1  0  0  0  0
  3 26  1  0  0  0  0
  4  6  1  0  0  0  0
  4 27  1  0  0  0  0
  4 28  1  0  0  0  0
  5  7  2  0  0  0  0
  5 29  1  0  0  0  0
  6  8  2  0  0  0  0
  6 30  1  0  0  0  0
  7  9  1  0  0  0  0
  7 31  1  0  0  0  0
  8 10  1  0  0  0  0
  8 32  1  0  0  0  0
  9 11  1  0  0  0  0
  9 33  1  0  0  0  0
  9 34  1  0  0  0  0
 10 12  1  0  0  0  0
 10 35  1  0  0  0  0
 10 36  1  0  0  0  0
 11 13  1  0  0  0  0
 11 37  1  0  0  0  0
 11 38  1  0  0  0  0
 12 14  2  0  0  0  0
 12 39  1  0  0  0  0
 13 15  1  0  0  0  0
 13 40  1  0  0  0  0
 13 41  1  0  0  0  0
 14 16  1  0  0  0  0
 14 42  1  0  0  0  0
 15 17  1  0  0  0  0
 15 18  2  0  0  0  0
 16 19  1  0  0  0  0
 16 43  1  0  0  0  0
 16 44  1  0  0  0  0
 17 45  1  0  0  0  0
 19 20  1  0  0  0  0
 19 46  1  0  0  0  0
 19 47  1  0  0  0  0
 20 21  1  0  0  0  0
 20 48  1  0  0  0  0
 20 49  1  0  0  0  0
 21 22  1  0  0  0  0
 21 50  1  0  0  0  0
 21 51  1  0  0  0  0
 22 52  1  0  0  0  0
 22 53  1  0  0  0  0
 22 54  1  0  0  0  0
M  END
>  <DRUGBANK_ID>
DB04557

>  <SECONDARY_ACCESSION_NUMBERS>
EXPT00409

>  <COMMON_NAME>
Arachidonic Acid

>  <CAS_NUMBER>
506-32-1

>  <UNII>
27YG812J1I

$$$$
