A46
 OpenBabel10282417072D

 38 40  0  0  0  0  0  0  0  0999 V2000
   -0.1192   -0.5015    0.0000 C   0  0  0  0  0  0  0  0  0  0  0  0
    0.7058   -0.5015    0.0000 N   0  0  0  0  0  0  0  0  0  0  0  0
    1.1183    0.2130    0.0000 C   0  0  0  0  0  0  0  0  0  0  0  0
    1.9433    0.2130    0.0000 C   0  0  0  0  0  0  0  0  0  0  0  0
    0.7058    0.9274    0.0000 O   0  0  0  0  0  0  0  0  0  0  0  0
    2.4282   -0.4545    0.0000 N   0  0  0  0  0  0  0  0  0  0  0  0
    2.4282    0.8804    0.0000 C   0  0  0  0  0  0  0  0  0  0  0  0
    3.2129   -0.1995    0.0000 C   0  0  0  0  0  0  0  0  0  0  0  0
    3.2129    0.6255    0.0000 C   0  0  0  0  0  0  0  0  0  0  0  0
    3.9273   -0.6120    0.0000 C   0  0  0  0  0  0  0  0  0  0  0  0
    3.9273    1.0380    0.0000 C   0  0  0  0  0  0  0  0  0  0  0  0
    4.6418   -0.1995    0.0000 C   0  0  0  0  0  0  0  0  0  0  0  0
    4.6418    0.6255    0.0000 C   0  0  0  0  0  0  0  0  0  0  0  0
    5.3563    1.0380    0.0000 Cl  0  0  0  0  0  0  0  0  0  0  0  0
   -0.5317   -1.2160    0.0000 C   0  0  0  0  0  0  0  0  0  0  0  0
   -1.3567   -1.2160    0.0000 C   0  0  0  0  0  0  0  0  0  0  0  0
   -1.7692   -0.5015    0.0000 C   0  0  0  0  0  0  0  0  0  0  0  0
   -1.3567    0.2130    0.0000 C   0  0  0  0  0  0  0  0  0  0  0  0
   -0.5317    0.2130    0.0000 C   0  0  0  0  0  0  0  0  0  0  0  0
   -2.5942   -0.5015    0.0000 C   0  0  2  0  0  0  0  0  0  0  0  0
   -3.0067    0.2130    0.0000 C   0  0  0  0  0  0  0  0  0  0  0  0
   -3.0067   -1.2160    0.0000 O   0  0  0  0  0  0  0  0  0  0  0  0
   -3.8317    0.2130    0.0000 O   0  0  0  0  0  0  0  0  0  0  0  0
   -2.3022    0.0042    0.0000 H   0  0  0  0  0  0  0  0  0  0  0  0
    1.1981   -1.3541    0.0000 H   0  0  0  0  0  0  0  0  0  0  0  0
    2.1240   -1.3908    0.0000 H   0  0  0  0  0  0  0  0  0  0  0  0
    2.1093    1.8619    0.0000 H   0  0  0  0  0  0  0  0  0  0  0  0
    3.9273   -1.6440    0.0000 H   0  0  0  0  0  0  0  0  0  0  0  0
    3.9273    2.0700    0.0000 H   0  0  0  0  0  0  0  0  0  0  0  0
    5.5355   -0.7155    0.0000 H   0  0  0  0  0  0  0  0  0  0  0  0
   -0.0157   -2.1097    0.0000 H   0  0  0  0  0  0  0  0  0  0  0  0
   -1.8727   -2.1097    0.0000 H   0  0  0  0  0  0  0  0  0  0  0  0
   -1.8727    1.1067    0.0000 H   0  0  0  0  0  0  0  0  0  0  0  0
   -0.0157    1.1067    0.0000 H   0  0  0  0  0  0  0  0  0  0  0  0
   -2.4717    1.1396    0.0000 H   0  0  0  0  0  0  0  0  0  0  0  0
   -3.5417    1.1396    0.0000 H   0  0  0  0  0  0  0  0  0  0  0  0
   -3.9767   -1.2160    0.0000 H   0  0  0  0  0  0  0  0  0  0  0  0
   -4.3167    1.0530    0.0000 H   0  0  0  0  0  0  0  0  0  0  0  0
  1 15  2  0  0  0  0
  1 19  1  0  0  0  0
  2  1  1  0  0  0  0
  2 25  1  0  0  0  0
  3  5  2  0  0  0  0
  3  2  1  0  0  0  0
  4  3  1  0  0  0  0
  6  4  1  0  0  0  0
  6 26  1  0  0  0  0
  7  4  2  0  0  0  0
  7 27  1  0  0  0  0
  8  9  1  0  0  0  0
  8  6  1  0  0  0  0
  9  7  1  0  0  0  0
 10  8  2  0  0  0  0
 10 28  1  0  0  0  0
 11  9  2  0  0  0  0
 11 29  1  0  0  0  0
 12 13  2  0  0  0  0
 12 10  1  0  0  0  0
 12 30  1  0  0  0  0
 13 11  1  0  0  0  0
 14 13  1  0  0  0  0
 15 16  1  0  0  0  0
 15 31  1  0  0  0  0
 16 17  2  0  0  0  0
 16 32  1  0  0  0  0
 17 20  1  0  0  0  0
 18 17  1  0  0  0  0
 18 33  1  0  0  0  0
 19 18  2  0  0  0  0
 19 34  1  0  0  0  0
 20 21  1  0  0  0  0
 20 22  1  0  0  0  0
 20 24  1  6  0  0  0
 21 35  1  0  0  0  0
 21 36  1  0  0  0  0
 22 37  1  0  0  0  0
 23 21  1  0  0  0  0
 23 38  1  0  0  0  0
M  END
>  <DRUGBANK_ID>
DB07315

>  <COMMON_NAME>
5-chloro-N-{4-[(1R)-1,2-dihydroxyethyl]phenyl}-1H-indole-2-carboxamide

$$$$
