
 OpenBabel10282417072D

 47 47  0  0  0  0  0  0  0  0999 V2000
   -2.8267    0.4126    0.0000 C   0  0  0  0  0  0  0  0  0  0  0  0
   -2.8267   -0.4124    0.0000 C   0  0  0  0  0  0  0  0  0  0  0  0
   -2.1121   -0.8251    0.0000 C   0  0  0  0  0  0  0  0  0  0  0  0
   -1.3975   -0.4124    0.0000 C   0  0  0  0  0  0  0  0  0  0  0  0
   -1.3975    0.4126    0.0000 C   0  0  0  0  0  0  0  0  0  0  0  0
   -2.1121    0.8251    0.0000 C   0  0  0  0  0  0  0  0  0  0  0  0
   -3.5412    0.8251    0.0000 N   0  0  0  0  0  0  0  0  0  0  0  0
   -0.6719   -0.8315    0.0000 C   0  0  0  0  0  0  0  0  0  0  0  0
    0.0383   -0.4215    0.0000 O   0  0  0  0  0  0  0  0  0  0  0  0
   -0.6721   -1.6501    0.0000 O   0  0  0  0  0  0  0  0  0  0  0  0
   -4.2458    0.4183    0.0000 C   0  0  0  0  0  0  0  0  0  0  0  0
   -3.5413    1.6501    0.0000 C   0  0  0  0  0  0  0  0  0  0  0  0
    0.7351   -0.8239    0.0000 C   0  0  0  0  0  0  0  0  0  0  0  0
    1.4389   -0.4177    0.0000 C   0  0  3  0  0  0  0  0  0  0  0  0
    2.1390   -0.8220    0.0000 C   0  0  0  0  0  0  0  0  0  0  0  0
    2.8409   -0.4167    0.0000 C   0  0  0  0  0  0  0  0  0  0  0  0
    3.5420   -0.8214    0.0000 C   0  0  0  0  0  0  0  0  0  0  0  0
    1.4390    0.3962    0.0000 C   0  0  0  0  0  0  0  0  0  0  0  0
    2.1573    0.8109    0.0000 C   0  0  0  0  0  0  0  0  0  0  0  0
    4.2458   -0.4153    0.0000 C   0  0  0  0  0  0  0  0  0  0  0  0
   -3.7205   -0.9283    0.0000 H   0  0  0  0  0  0  0  0  0  0  0  0
   -2.1121   -1.8571    0.0000 H   0  0  0  0  0  0  0  0  0  0  0  0
   -0.5038    0.9286    0.0000 H   0  0  0  0  0  0  0  0  0  0  0  0
   -2.1121    1.8571    0.0000 H   0  0  0  0  0  0  0  0  0  0  0  0
   -5.1724    0.9533    0.0000 H   0  0  0  0  0  0  0  0  0  0  0  0
   -4.2458   -0.6517    0.0000 H   0  0  0  0  0  0  0  0  0  0  0  0
   -5.1724   -0.1167    0.0000 H   0  0  0  0  0  0  0  0  0  0  0  0
   -2.6147    2.1852    0.0000 H   0  0  0  0  0  0  0  0  0  0  0  0
   -4.4680    2.1850    0.0000 H   0  0  0  0  0  0  0  0  0  0  0  0
   -3.5414    2.7201    0.0000 H   0  0  0  0  0  0  0  0  0  0  0  0
    0.7350   -1.8939    0.0000 H   0  0  0  0  0  0  0  0  0  0  0  0
    1.6617   -1.3590    0.0000 H   0  0  0  0  0  0  0  0  0  0  0  0
    1.4388   -1.4877    0.0000 H   0  0  0  0  0  0  0  0  0  0  0  0
    2.1390   -1.8920    0.0000 H   0  0  0  0  0  0  0  0  0  0  0  0
    3.0657   -1.3570    0.0000 H   0  0  0  0  0  0  0  0  0  0  0  0
    2.8408    0.6533    0.0000 H   0  0  0  0  0  0  0  0  0  0  0  0
    3.7675    0.1184    0.0000 H   0  0  0  0  0  0  0  0  0  0  0  0
    3.5419   -1.8914    0.0000 H   0  0  0  0  0  0  0  0  0  0  0  0
    4.4686   -1.3566    0.0000 H   0  0  0  0  0  0  0  0  0  0  0  0
    0.5124    0.9313    0.0000 H   0  0  0  0  0  0  0  0  0  0  0  0
    1.4390    1.4662    0.0000 H   0  0  0  0  0  0  0  0  0  0  0  0
    3.0839    0.2759    0.0000 H   0  0  0  0  0  0  0  0  0  0  0  0
    2.1573    1.8809    0.0000 H   0  0  0  0  0  0  0  0  0  0  0  0
    3.0840    1.3459    0.0000 H   0  0  0  0  0  0  0  0  0  0  0  0
    5.1723   -0.9505    0.0000 H   0  0  0  0  0  0  0  0  0  0  0  0
    4.2461    0.6547    0.0000 H   0  0  0  0  0  0  0  0  0  0  0  0
    5.1726    0.1195    0.0000 H   0  0  0  0  0  0  0  0  0  0  0  0
  1  2  2  0  0  0  0
  1  6  1  0  0  0  0
  1  7  1  0  0  0  0
  2  3  1  0  0  0  0
  2 21  1  0  0  0  0
  3  4  2  0  0  0  0
  3 22  1  0  0  0  0
  4  5  1  0  0  0  0
  4  8  1  0  0  0  0
  5  6  2  0  0  0  0
  5 23  1  0  0  0  0
  6 24  1  0  0  0  0
  7 11  1  0  0  0  0
  7 12  1  0  0  0  0
  8  9  1  0  0  0  0
  8 10  2  0  0  0  0
  9 13  1  0  0  0  0
 11 25  1  0  0  0  0
 11 26  1  0  0  0  0
 11 27  1  0  0  0  0
 12 28  1  0  0  0  0
 12 29  1  0  0  0  0
 12 30  1  0  0  0  0
 13 14  1  0  0  0  0
 13 31  1  0  0  0  0
 13 32  1  0  0  0  0
 14 15  1  0  0  0  0
 14 18  1  0  0  0  0
 14 33  1  0  0  0  0
 15 16  1  0  0  0  0
 15 34  1  0  0  0  0
 15 35  1  0  0  0  0
 16 17  1  0  0  0  0
 16 36  1  0  0  0  0
 16 37  1  0  0  0  0
 17 20  1  0  0  0  0
 17 38  1  0  0  0  0
 17 39  1  0  0  0  0
 18 19  1  0  0  0  0
 18 40  1  0  0  0  0
 18 41  1  0  0  0  0
 19 42  1  0  0  0  0
 19 43  1  0  0  0  0
 19 44  1  0  0  0  0
 20 45  1  0  0  0  0
 20 46  1  0  0  0  0
 20 47  1  0  0  0  0
M  END
>  <DRUGBANK_ID>
DB11570

>  <COMMON_NAME>
Padimate O

>  <CAS_NUMBER>
21245-02-3

>  <UNII>
Z11006CMUZ

>  <SYNONYMS>
Padimate O; Padimate-O

$$$$
