
 OpenBabel10282417072D

 69 73  0  0  1  0  0  0  0  0999 V2000
    5.5071    4.2233    0.0000 C   0  0  0  0  0  0  0  0  0  0  0  0
    5.6832    3.4173    0.0000 C   0  0  0  0  0  0  0  0  0  0  0  0
    6.4692    3.1668    0.0000 O   0  0  0  0  0  0  0  0  0  0  0  0
    5.0732    2.8618    0.0000 O   0  0  0  0  0  0  0  0  0  0  0  0
    5.2493    2.0558    0.0000 C   0  0  0  0  0  0  0  0  0  0  0  0
    4.7546    1.4827    0.0000 C   0  0  0  0  0  0  0  0  0  0  0  0
    3.8532    1.7508    0.0000 O   0  0  0  0  0  0  0  0  0  0  0  0
    4.8154    0.6943    0.0000 C   0  0  1  0  0  0  0  0  0  0  0  0
    4.9914   -0.1117    0.0000 C   0  0  1  0  0  0  0  0  0  0  0  0
    4.2793   -0.5282    0.0000 C   0  0  0  0  0  0  0  0  0  0  0  0
    3.6631    0.0204    0.0000 C   0  0  2  0  0  0  0  0  0  0  0  0
    3.9944    0.7759    0.0000 C   0  0  2  0  0  0  0  0  0  0  0  0
    3.5057    1.4406    0.0000 C   0  0  0  0  0  0  0  0  0  0  0  0
    2.6857    1.3498    0.0000 C   0  0  1  0  0  0  0  0  0  0  0  0
    2.3544    0.5942    0.0000 C   0  0  1  0  0  0  0  0  0  0  0  0
    2.8431   -0.0705    0.0000 C   0  0  1  0  0  0  0  0  0  0  0  0
    2.5118   -0.8260    0.0000 C   0  0  0  0  0  0  0  0  0  0  0  0
    1.6918   -0.9169    0.0000 C   0  0  1  0  0  0  0  0  0  0  0  0
    1.2031   -0.2522    0.0000 C   0  0  0  0  0  0  0  0  0  0  0  0
    0.3832   -0.3431    0.0000 C   0  0  0  0  0  0  0  0  0  0  0  0
   -0.1055    0.3216    0.0000 C   0  0  0  0  0  0  0  0  0  0  0  0
   -0.9255    0.2308    0.0000 O   0  0  0  0  0  0  0  0  0  0  0  0
    0.2258    1.0772    0.0000 C   0  0  0  0  0  0  0  0  0  0  0  0
    1.0458    1.1681    0.0000 C   0  0  0  0  0  0  0  0  0  0  0  0
    1.5345    0.5034    0.0000 C   0  0  2  0  0  0  0  0  0  0  0  0
    1.8658    1.2589    0.0000 C   0  0  0  0  0  0  0  0  0  0  0  0
    1.3605   -1.6724    0.0000 F   0  0  0  0  0  0  0  0  0  0  0  0
    2.1971    2.0145    0.0000 O   0  0  0  0  0  0  0  0  0  0  0  0
    4.4029    1.4927    0.0000 C   0  0  0  0  0  0  0  0  0  0  0  0
    5.8124   -0.1933    0.0000 O   0  0  0  0  0  0  0  0  0  0  0  0
    6.1437    0.5623    0.0000 C   0  0  0  0  0  0  0  0  0  0  0  0
    5.5275    1.1108    0.0000 O   0  0  0  0  0  0  0  0  0  0  0  0
    6.9323    0.3200    0.0000 C   0  0  0  0  0  0  0  0  0  0  0  0
    6.7594    1.1113    0.0000 C   0  0  0  0  0  0  0  0  0  0  0  0
    6.2982    4.9438    0.0000 H   0  0  0  0  0  0  0  0  0  0  0  0
    4.4876    4.5482    0.0000 H   0  0  0  0  0  0  0  0  0  0  0  0
    5.2787    5.2686    0.0000 H   0  0  0  0  0  0  0  0  0  0  0  0
    6.2864    1.7926    0.0000 H   0  0  0  0  0  0  0  0  0  0  0  0
    5.5707    1.0352    0.0000 H   0  0  0  0  0  0  0  0  0  0  0  0
    5.7029    0.6875    0.0000 H   0  0  0  0  0  0  0  0  0  0  0  0
    4.1734   -1.5930    0.0000 H   0  0  0  0  0  0  0  0  0  0  0  0
    3.2825   -0.9173    0.0000 H   0  0  0  0  0  0  0  0  0  0  0  0
    4.7085    0.2487    0.0000 H   0  0  0  0  0  0  0  0  0  0  0  0
    3.9354    2.4205    0.0000 H   0  0  0  0  0  0  0  0  0  0  0  0
    2.8719    2.3027    0.0000 H   0  0  0  0  0  0  0  0  0  0  0  0
    3.1155    2.3297    0.0000 H   0  0  0  0  0  0  0  0  0  0  0  0
    3.4179    0.7121    0.0000 H   0  0  0  0  0  0  0  0  0  0  0  0
    1.7796   -0.1883    0.0000 H   0  0  0  0  0  0  0  0  0  0  0  0
    3.1456   -1.6881    0.0000 H   0  0  0  0  0  0  0  0  0  0  0  0
    2.0821   -1.8059    0.0000 H   0  0  0  0  0  0  0  0  0  0  0  0
    2.3256   -1.7790    0.0000 H   0  0  0  0  0  0  0  0  0  0  0  0
   -0.0312   -1.2882    0.0000 H   0  0  0  0  0  0  0  0  0  0  0  0
   -0.4080    1.9393    0.0000 H   0  0  0  0  0  0  0  0  0  0  0  0
    0.6555    2.0571    0.0000 H   0  0  0  0  0  0  0  0  0  0  0  0
    1.4755    2.1480    0.0000 H   0  0  0  0  0  0  0  0  0  0  0  0
    2.1093    1.2860    0.0000 H   0  0  0  0  0  0  0  0  0  0  0  0
    2.9293    1.3767    0.0000 H   0  0  0  0  0  0  0  0  0  0  0  0
    1.2320    2.1210    0.0000 H   0  0  0  0  0  0  0  0  0  0  0  0
    2.2955    2.2388    0.0000 H   0  0  0  0  0  0  0  0  0  0  0  0
    2.5867    2.9028    0.0000 H   0  0  0  0  0  0  0  0  0  0  0  0
    5.4729    1.4987    0.0000 H   0  0  0  0  0  0  0  0  0  0  0  0
    3.8627    2.4163    0.0000 H   0  0  0  0  0  0  0  0  0  0  0  0
    4.9327    2.4223    0.0000 H   0  0  0  0  0  0  0  0  0  0  0  0
    7.1715   -0.7229    0.0000 H   0  0  0  0  0  0  0  0  0  0  0  0
    7.7159    1.0486    0.0000 H   0  0  0  0  0  0  0  0  0  0  0  0
    7.9551    0.0057    0.0000 H   0  0  0  0  0  0  0  0  0  0  0  0
    7.7754    0.7757    0.0000 H   0  0  0  0  0  0  0  0  0  0  0  0
    6.5420    2.1590    0.0000 H   0  0  0  0  0  0  0  0  0  0  0  0
    7.5580    1.8234    0.0000 H   0  0  0  0  0  0  0  0  0  0  0  0
  1  2  1  0  0  0  0
  1 35  1  0  0  0  0
  1 36  1  0  0  0  0
  1 37  1  0  0  0  0
  2  3  2  0  0  0  0
  2  4  1  0  0  0  0
  4  5  1  0  0  0  0
  5  6  1  0  0  0  0
  5 38  1  0  0  0  0
  5 39  1  0  0  0  0
  6  7  2  0  0  0  0
  8  6  1  1  0  0  0
  8  9  1  0  0  0  0
  8 12  1  0  0  0  0
  8 32  1  0  0  0  0
  9 10  1  0  0  0  0
  9 30  1  0  0  0  0
  9 40  1  1  0  0  0
 10 41  1  0  0  0  0
 10 42  1  0  0  0  0
 11 10  1  0  0  0  0
 11 12  1  0  0  0  0
 11 16  1  0  0  0  0
 11 43  1  6  0  0  0
 12 13  1  0  0  0  0
 12 29  1  1  0  0  0
 13 14  1  0  0  0  0
 13 44  1  0  0  0  0
 13 45  1  0  0  0  0
 14 28  1  0  0  0  0
 14 46  1  6  0  0  0
 15 14  1  0  0  0  0
 15 16  1  0  0  0  0
 15 25  1  0  0  0  0
 15 47  1  6  0  0  0
 16 17  1  0  0  0  0
 16 48  1  1  0  0  0
 17 18  1  0  0  0  0
 17 49  1  0  0  0  0
 17 50  1  0  0  0  0
 18 19  1  0  0  0  0
 18 27  1  0  0  0  0
 18 51  1  1  0  0  0
 19 20  2  0  0  0  0
 19 25  1  0  0  0  0
 20 21  1  0  0  0  0
 20 52  1  0  0  0  0
 21 22  2  0  0  0  0
 21 23  1  0  0  0  0
 23 24  1  0  0  0  0
 23 53  1  0  0  0  0
 23 54  1  0  0  0  0
 24 25  1  0  0  0  0
 24 55  1  0  0  0  0
 24 56  1  0  0  0  0
 25 26  1  1  0  0  0
 26 57  1  0  0  0  0
 26 58  1  0  0  0  0
 26 59  1  0  0  0  0
 28 60  1  0  0  0  0
 29 61  1  0  0  0  0
 29 62  1  0  0  0  0
 29 63  1  0  0  0  0
 30 31  1  0  0  0  0
 31 32  1  0  0  0  0
 31 33  1  0  0  0  0
 31 34  1  0  0  0  0
 33 64  1  0  0  0  0
 33 65  1  0  0  0  0
 33 66  1  0  0  0  0
 34 67  1  0  0  0  0
 34 68  1  0  0  0  0
 34 69  1  0  0  0  0
M  END
>  <DRUGBANK_ID>
DB14673

>  <SECONDARY_ACCESSION_NUMBERS>
DBSALT002283

>  <COMMON_NAME>
Flurandrenolide acetate

>  <CAS_NUMBER>
2802-11-1

>  <UNII>
0P9257GI1B

>  <SYNONYMS>
Flurandrenolone acetate

$$$$
