
 OpenBabel10282417072D

 48 50  0  0  1  0  0  0  0  0999 V2000
   -0.1013    3.6619    0.0000 C   0  0  0  0  0  0  0  0  0  0  0  0
   -0.4542    4.4076    0.0000 N   0  3  0  0  0  0  0  0  0  0  0  0
   -0.1914    5.3262    0.0000 C   0  0  2  0  0  0  0  0  0  0  0  0
   -1.0072    5.2032    0.0000 C   0  0  0  0  0  0  0  0  0  0  0  0
   -1.4197    4.4887    0.0000 C   0  0  0  0  0  0  0  0  0  0  0  0
   -1.1183    3.7208    0.0000 C   0  0  1  0  0  0  0  0  0  0  0  0
   -0.3299    3.4776    0.0000 C   0  0  0  0  0  0  0  0  0  0  0  0
    0.3517    3.9423    0.0000 C   0  0  2  0  0  0  0  0  0  0  0  0
    0.4134    4.7650    0.0000 C   0  0  0  0  0  0  0  0  0  0  0  0
    1.0662    3.5298    0.0000 O   0  0  0  0  0  0  0  0  0  0  0  0
    1.0662    2.7048    0.0000 C   0  0  0  0  0  0  0  0  0  0  0  0
    0.3517    2.2923    0.0000 O   0  0  0  0  0  0  0  0  0  0  0  0
    1.7807    2.2923    0.0000 C   0  0  3  0  0  0  0  0  0  0  0  0
    2.4951    2.7048    0.0000 C   0  0  0  0  0  0  0  0  0  0  0  0
    3.2096    2.2923    0.0000 O   0  0  0  0  0  0  0  0  0  0  0  0
    1.7807    1.4673    0.0000 C   0  0  0  0  0  0  0  0  0  0  0  0
    2.4951    1.0548    0.0000 C   0  0  0  0  0  0  0  0  0  0  0  0
    2.4951    0.2298    0.0000 C   0  0  0  0  0  0  0  0  0  0  0  0
    1.7807   -0.1827    0.0000 C   0  0  0  0  0  0  0  0  0  0  0  0
    1.0662    0.2298    0.0000 C   0  0  0  0  0  0  0  0  0  0  0  0
    1.0662    1.0548    0.0000 C   0  0  0  0  0  0  0  0  0  0  0  0
    0.3681    4.4749    0.0000 C   0  0  0  0  0  0  0  0  0  0  0  0
   -0.7100    2.7819    0.0000 H   0  0  0  0  0  0  0  0  0  0  0  0
    0.9651    3.5747    0.0000 H   0  0  0  0  0  0  0  0  0  0  0  0
    0.3564    2.6947    0.0000 H   0  0  0  0  0  0  0  0  0  0  0  0
   -0.9952    4.6199    0.0000 H   0  0  0  0  0  0  0  0  0  0  0  0
   -1.6100    6.0873    0.0000 H   0  0  0  0  0  0  0  0  0  0  0  0
   -2.0765    5.1632    0.0000 H   0  0  0  0  0  0  0  0  0  0  0  0
   -2.4867    4.5686    0.0000 H   0  0  0  0  0  0  0  0  0  0  0  0
   -2.0551    3.6278    0.0000 H   0  0  0  0  0  0  0  0  0  0  0  0
   -0.9086    4.7700    0.0000 H   0  0  0  0  0  0  0  0  0  0  0  0
   -0.1704    2.4195    0.0000 H   0  0  0  0  0  0  0  0  0  0  0  0
    0.6508    3.0497    0.0000 H   0  0  0  0  0  0  0  0  0  0  0  0
    0.3917    2.8730    0.0000 H   0  0  0  0  0  0  0  0  0  0  0  0
    1.4095    5.1559    0.0000 H   0  0  0  0  0  0  0  0  0  0  0  0
    0.6124    5.8163    0.0000 H   0  0  0  0  0  0  0  0  0  0  0  0
    1.7807    3.3623    0.0000 H   0  0  0  0  0  0  0  0  0  0  0  0
    2.4951    3.7748    0.0000 H   0  0  0  0  0  0  0  0  0  0  0  0
    3.4217    3.2398    0.0000 H   0  0  0  0  0  0  0  0  0  0  0  0
    3.2096    1.3223    0.0000 H   0  0  0  0  0  0  0  0  0  0  0  0
    3.3888    1.5708    0.0000 H   0  0  0  0  0  0  0  0  0  0  0  0
    3.3888   -0.2862    0.0000 H   0  0  0  0  0  0  0  0  0  0  0  0
    1.7807   -1.2147    0.0000 H   0  0  0  0  0  0  0  0  0  0  0  0
    0.1725   -0.2862    0.0000 H   0  0  0  0  0  0  0  0  0  0  0  0
    0.1725    1.5708    0.0000 H   0  0  0  0  0  0  0  0  0  0  0  0
    0.9769    3.5950    0.0000 H   0  0  0  0  0  0  0  0  0  0  0  0
    0.8257    5.4421    0.0000 H   0  0  0  0  0  0  0  0  0  0  0  0
    1.4345    4.5622    0.0000 H   0  0  0  0  0  0  0  0  0  0  0  0
  1  2  1  0  0  0  0
  1 23  1  0  0  0  0
  1 24  1  0  0  0  0
  1 25  1  0  0  0  0
  2  3  1  0  0  0  0
  2  6  1  0  0  0  0
  2 22  1  0  0  0  0
  3  4  1  0  0  0  0
  3  9  1  0  0  0  0
  3 26  1  1  0  0  0
  4  5  1  0  0  0  0
  4 27  1  0  0  0  0
  4 28  1  0  0  0  0
  5 29  1  0  0  0  0
  5 30  1  0  0  0  0
  6  5  1  0  0  0  0
  6  7  1  0  0  0  0
  6 31  1  1  0  0  0
  7  8  1  0  0  0  0
  7 32  1  0  0  0  0
  7 33  1  0  0  0  0
  8  9  1  0  0  0  0
  8 10  1  0  0  0  0
  8 34  1  1  0  0  0
  9 35  1  0  0  0  0
  9 36  1  0  0  0  0
 10 11  1  0  0  0  0
 11 12  2  0  0  0  0
 11 13  1  0  0  0  0
 13 14  1  0  0  0  0
 13 16  1  0  0  0  0
 13 37  1  0  0  0  0
 14 15  1  0  0  0  0
 14 38  1  0  0  0  0
 14 39  1  0  0  0  0
 15 40  1  0  0  0  0
 16 17  2  0  0  0  0
 16 21  1  0  0  0  0
 17 18  1  0  0  0  0
 17 41  1  0  0  0  0
 18 19  2  0  0  0  0
 18 42  1  0  0  0  0
 19 20  1  0  0  0  0
 19 43  1  0  0  0  0
 20 21  2  0  0  0  0
 20 44  1  0  0  0  0
 21 45  1  0  0  0  0
 22 46  1  0  0  0  0
 22 47  1  0  0  0  0
 22 48  1  0  0  0  0
M  CHG  1   2   1
M  END
>  <DRUGBANK_ID>
DB13833

>  <COMMON_NAME>
Methylatropine

>  <CAS_NUMBER>
31610-87-4

>  <UNII>
80719I460H

>  <SYNONYMS>
Methylatropinium

$$$$
