
 OpenBabel10282417072D

 45 47  0  0  0  0  0  0  0  0999 V2000
    3.6710    0.9480    0.0000 C   0  0  0  0  0  0  0  0  0  0  0  0
    2.9383    1.3272    0.0000 C   0  0  0  0  0  0  0  0  0  0  0  0
    2.2312    0.9378    0.0000 C   0  0  0  0  0  0  0  0  0  0  0  0
    2.2363    0.1845    0.0000 C   0  0  0  0  0  0  0  0  0  0  0  0
    1.5138   -0.1998    0.0000 C   0  0  1  0  0  0  0  0  0  0  0  0
    1.5138   -0.9530    0.0000 C   0  0  0  0  0  0  0  0  0  0  0  0
    0.7861   -1.3272    0.0000 O   0  0  0  0  0  0  0  0  0  0  0  0
    0.7912    0.1794    0.0000 C   0  0  0  0  0  0  0  0  0  0  0  0
    0.7912    0.9378    0.0000 O   0  0  0  0  0  0  0  0  0  0  0  0
    0.0739   -0.1998    0.0000 O   0  0  0  0  0  0  0  0  0  0  0  0
   -0.7613   -0.2049    0.0000 C   0  0  2  0  0  0  0  0  0  0  0  0
   -1.1816    0.5995    0.0000 C   0  0  0  0  0  0  0  0  0  0  0  0
   -2.1397    0.7841    0.0000 C   0  0  2  0  0  0  0  0  0  0  0  0
   -2.9032    0.2306    0.0000 C   0  0  2  0  0  0  0  0  0  0  0  0
   -2.9032   -0.6557    0.0000 C   0  0  0  0  0  0  0  0  0  0  0  0
   -2.1295   -1.2142    0.0000 C   0  0  2  0  0  0  0  0  0  0  0  0
   -1.1764   -1.0042    0.0000 C   0  0  0  0  0  0  0  0  0  0  0  0
   -1.5455   -0.2305    0.0000 N   0  0  0  0  0  0  0  0  0  0  0  0
   -3.3388   -0.2202    0.0000 C   0  0  0  0  0  0  0  0  0  0  0  0
   -3.6710    0.6739    0.0000 O   0  0  0  0  0  0  0  0  0  0  0  0
    2.9639   -0.1844    0.0000 C   0  0  0  0  0  0  0  0  0  0  0  0
    3.6710    0.1948    0.0000 C   0  0  0  0  0  0  0  0  0  0  0  0
    4.5526    1.4844    0.0000 H   0  0  0  0  0  0  0  0  0  0  0  0
    2.9250    2.3591    0.0000 H   0  0  0  0  0  0  0  0  0  0  0  0
    1.3410    1.4598    0.0000 H   0  0  0  0  0  0  0  0  0  0  0  0
    2.4310   -0.7508    0.0000 H   0  0  0  0  0  0  0  0  0  0  0  0
    2.4272   -1.5104    0.0000 H   0  0  0  0  0  0  0  0  0  0  0  0
    1.4748   -2.0223    0.0000 H   0  0  0  0  0  0  0  0  0  0  0  0
   -0.0294   -0.8019    0.0000 H   0  0  0  0  0  0  0  0  0  0  0  0
   -0.2097    0.7120    0.0000 H   0  0  0  0  0  0  0  0  0  0  0  0
   -0.5428    1.4579    0.0000 H   0  0  0  0  0  0  0  0  0  0  0  0
   -1.5688    1.5970    0.0000 H   0  0  0  0  0  0  0  0  0  0  0  0
   -1.2662    0.1662    0.0000 H   0  0  0  0  0  0  0  0  0  0  0  0
   -2.9586    1.2992    0.0000 H   0  0  0  0  0  0  0  0  0  0  0  0
   -3.8558   -1.1429    0.0000 H   0  0  0  0  0  0  0  0  0  0  0  0
   -2.9847   -1.7226    0.0000 H   0  0  0  0  0  0  0  0  0  0  0  0
   -2.3472   -0.1666    0.0000 H   0  0  0  0  0  0  0  0  0  0  0  0
   -0.5252   -1.8532    0.0000 H   0  0  0  0  0  0  0  0  0  0  0  0
   -0.1105   -0.9105    0.0000 H   0  0  0  0  0  0  0  0  0  0  0  0
   -3.8685    0.7095    0.0000 H   0  0  0  0  0  0  0  0  0  0  0  0
   -3.8791   -1.1438    0.0000 H   0  0  0  0  0  0  0  0  0  0  0  0
   -4.4088   -0.2141    0.0000 H   0  0  0  0  0  0  0  0  0  0  0  0
   -3.6710    1.6439    0.0000 H   0  0  0  0  0  0  0  0  0  0  0  0
    2.9758   -1.2163    0.0000 H   0  0  0  0  0  0  0  0  0  0  0  0
    4.5565   -0.3351    0.0000 H   0  0  0  0  0  0  0  0  0  0  0  0
  1 22  2  0  0  0  0
  1 23  1  0  0  0  0
  2  1  1  0  0  0  0
  2  3  2  0  0  0  0
  2 24  1  0  0  0  0
  3  4  1  0  0  0  0
  3 25  1  0  0  0  0
  4  5  1  0  0  0  0
  5  6  1  0  0  0  0
  5  8  1  0  0  0  0
  5 26  1  6  0  0  0
  6 27  1  0  0  0  0
  6 28  1  0  0  0  0
  7  6  1  0  0  0  0
  7 29  1  0  0  0  0
  8 10  1  0  0  0  0
  9  8  2  0  0  0  0
 11 10  1  0  0  0  0
 11 12  1  0  0  0  0
 11 30  1  6  0  0  0
 12 13  1  0  0  0  0
 12 31  1  0  0  0  0
 12 32  1  0  0  0  0
 13 18  1  0  0  0  0
 13 33  1  6  0  0  0
 14 13  1  0  0  0  0
 14 20  1  0  0  0  0
 14 34  1  1  0  0  0
 15 14  1  0  0  0  0
 15 16  1  0  0  0  0
 15 35  1  0  0  0  0
 15 36  1  0  0  0  0
 16 18  1  0  0  0  0
 16 37  1  6  0  0  0
 17 16  1  0  0  0  0
 17 11  1  0  0  0  0
 17 38  1  0  0  0  0
 17 39  1  0  0  0  0
 19 18  1  0  0  0  0
 19 40  1  0  0  0  0
 19 41  1  0  0  0  0
 19 42  1  0  0  0  0
 20 43  1  0  0  0  0
 21  4  2  0  0  0  0
 21 44  1  0  0  0  0
 22 21  1  0  0  0  0
 22 45  1  0  0  0  0
M  END
>  <DRUGBANK_ID>
DB16896

>  <COMMON_NAME>
Raceanisodamine

>  <CAS_NUMBER>
85760-60-7

>  <UNII>
U5AC4ZPQ36

$$$$
