
 OpenBabel10282417072D

 72 75  0  0  0  0  0  0  0  0999 V2000
   -5.4109    6.9326    0.0000 C   0  0  0  0  0  0  0  0  0  0  0  0
   -5.1560    6.1480    0.0000 N   0  0  0  0  0  0  0  0  0  0  0  0
   -5.7080    5.5349    0.0000 C   0  0  0  0  0  0  0  0  0  0  0  0
   -4.3490    5.9764    0.0000 C   0  0  0  0  0  0  0  0  0  0  0  0
   -4.0941    5.1918    0.0000 C   0  0  0  0  0  0  0  0  0  0  0  0
   -3.2871    5.0203    0.0000 N   0  0  0  0  0  0  0  0  0  0  0  0
   -2.7351    5.6334    0.0000 C   0  0  0  0  0  0  0  0  0  0  0  0
   -3.0321    4.2357    0.0000 C   0  0  0  0  0  0  0  0  0  0  0  0
   -2.2252    4.0641    0.0000 N   0  0  0  0  0  0  0  0  0  0  0  0
   -1.9702    3.2795    0.0000 C   0  0  0  0  0  0  0  0  0  0  0  0
   -1.1633    3.1080    0.0000 O   0  0  0  0  0  0  0  0  0  0  0  0
   -0.6112    3.7211    0.0000 C   0  0  0  0  0  0  0  0  0  0  0  0
   -0.8662    4.5057    0.0000 C   0  0  0  0  0  0  0  0  0  0  0  0
   -0.0815    4.7606    0.0000 F   0  0  0  0  0  0  0  0  0  0  0  0
   -1.6508    4.2508    0.0000 F   0  0  0  0  0  0  0  0  0  0  0  0
   -1.1211    5.2903    0.0000 F   0  0  0  0  0  0  0  0  0  0  0  0
   -2.5223    2.6664    0.0000 C   0  0  0  0  0  0  0  0  0  0  0  0
   -2.2673    1.8818    0.0000 N   0  0  0  0  0  0  0  0  0  0  0  0
   -1.4604    1.7103    0.0000 C   0  0  0  0  0  0  0  0  0  0  0  0
   -0.9083    2.3234    0.0000 N   0  0  0  0  0  0  0  0  0  0  0  0
   -0.1014    2.1518    0.0000 C   0  0  0  0  0  0  0  0  0  0  0  0
    0.1536    1.3672    0.0000 C   0  0  0  0  0  0  0  0  0  0  0  0
   -0.3984    0.7541    0.0000 C   0  0  0  0  0  0  0  0  0  0  0  0
   -1.2054    0.9256    0.0000 N   0  0  0  0  0  0  0  0  0  0  0  0
   -0.1435   -0.0305    0.0000 C   0  0  0  0  0  0  0  0  0  0  0  0
   -0.6284   -0.6979    0.0000 C   0  0  0  0  0  0  0  0  0  0  0  0
   -0.1435   -1.3654    0.0000 N   0  0  0  0  0  0  0  0  0  0  0  0
   -0.3984   -2.1500    0.0000 C   0  0  0  0  0  0  0  0  0  0  0  0
    0.6411   -1.1104    0.0000 C   0  0  0  0  0  0  0  0  0  0  0  0
    0.6411   -0.2854    0.0000 C   0  0  0  0  0  0  0  0  0  0  0  0
    1.3556    0.1271    0.0000 C   0  0  0  0  0  0  0  0  0  0  0  0
    2.0701   -0.2854    0.0000 C   0  0  0  0  0  0  0  0  0  0  0  0
    2.0701   -1.1104    0.0000 C   0  0  0  0  0  0  0  0  0  0  0  0
    1.3556   -1.5229    0.0000 C   0  0  0  0  0  0  0  0  0  0  0  0
   -3.3292    2.8379    0.0000 C   0  0  0  0  0  0  0  0  0  0  0  0
   -3.5842    3.6226    0.0000 C   0  0  0  0  0  0  0  0  0  0  0  0
   -4.3912    3.7941    0.0000 N   0  0  0  0  0  0  0  0  0  0  0  0
   -4.9432    3.1810    0.0000 C   0  0  0  0  0  0  0  0  0  0  0  0
   -5.7502    3.3525    0.0000 O   0  0  0  0  0  0  0  0  0  0  0  0
   -4.6882    2.3964    0.0000 C   0  0  0  0  0  0  0  0  0  0  0  0
   -5.2403    1.7833    0.0000 C   0  0  0  0  0  0  0  0  0  0  0  0
   -4.6949    7.7277    0.0000 H   0  0  0  0  0  0  0  0  0  0  0  0
   -6.4575    7.1551    0.0000 H   0  0  0  0  0  0  0  0  0  0  0  0
   -5.7415    7.9502    0.0000 H   0  0  0  0  0  0  0  0  0  0  0  0
   -6.7546    5.7573    0.0000 H   0  0  0  0  0  0  0  0  0  0  0  0
   -5.3773    4.5173    0.0000 H   0  0  0  0  0  0  0  0  0  0  0  0
   -6.4239    4.7397    0.0000 H   0  0  0  0  0  0  0  0  0  0  0  0
   -3.6330    6.7715    0.0000 H   0  0  0  0  0  0  0  0  0  0  0  0
   -3.3024    5.7539    0.0000 H   0  0  0  0  0  0  0  0  0  0  0  0
   -4.8101    4.3966    0.0000 H   0  0  0  0  0  0  0  0  0  0  0  0
   -3.7634    4.1742    0.0000 H   0  0  0  0  0  0  0  0  0  0  0  0
   -1.6885    5.4110    0.0000 H   0  0  0  0  0  0  0  0  0  0  0  0
   -3.0658    6.6510    0.0000 H   0  0  0  0  0  0  0  0  0  0  0  0
   -2.0192    6.4286    0.0000 H   0  0  0  0  0  0  0  0  0  0  0  0
    0.4354    3.4986    0.0000 H   0  0  0  0  0  0  0  0  0  0  0  0
    0.1047    4.5163    0.0000 H   0  0  0  0  0  0  0  0  0  0  0  0
   -2.9260    1.1501    0.0000 H   0  0  0  0  0  0  0  0  0  0  0  0
    0.5892    2.9187    0.0000 H   0  0  0  0  0  0  0  0  0  0  0  0
    1.1631    1.1527    0.0000 H   0  0  0  0  0  0  0  0  0  0  0  0
   -1.6604   -0.6979    0.0000 H   0  0  0  0  0  0  0  0  0  0  0  0
   -1.4450   -2.3725    0.0000 H   0  0  0  0  0  0  0  0  0  0  0  0
    0.3176   -2.9451    0.0000 H   0  0  0  0  0  0  0  0  0  0  0  0
   -0.7290   -3.1676    0.0000 H   0  0  0  0  0  0  0  0  0  0  0  0
    1.3556    1.1591    0.0000 H   0  0  0  0  0  0  0  0  0  0  0  0
    2.9638    0.2306    0.0000 H   0  0  0  0  0  0  0  0  0  0  0  0
    2.9638   -1.6264    0.0000 H   0  0  0  0  0  0  0  0  0  0  0  0
    1.3556   -2.5549    0.0000 H   0  0  0  0  0  0  0  0  0  0  0  0
   -4.0197    2.0710    0.0000 H   0  0  0  0  0  0  0  0  0  0  0  0
   -4.6955    4.7304    0.0000 H   0  0  0  0  0  0  0  0  0  0  0  0
   -3.6787    2.1818    0.0000 H   0  0  0  0  0  0  0  0  0  0  0  0
   -6.2497    1.9979    0.0000 H   0  0  0  0  0  0  0  0  0  0  0  0
   -4.9214    0.8018    0.0000 H   0  0  0  0  0  0  0  0  0  0  0  0
  1  2  1  0  0  0  0
  1 42  1  0  0  0  0
  1 43  1  0  0  0  0
  1 44  1  0  0  0  0
  2  3  1  0  0  0  0
  2  4  1  0  0  0  0
  3 45  1  0  0  0  0
  3 46  1  0  0  0  0
  3 47  1  0  0  0  0
  4  5  1  0  0  0  0
  4 48  1  0  0  0  0
  4 49  1  0  0  0  0
  5  6  1  0  0  0  0
  5 50  1  0  0  0  0
  5 51  1  0  0  0  0
  6  7  1  0  0  0  0
  6  8  1  0  0  0  0
  7 52  1  0  0  0  0
  7 53  1  0  0  0  0
  7 54  1  0  0  0  0
  8  9  2  0  0  0  0
  8 36  1  0  0  0  0
  9 10  1  0  0  0  0
 10 11  1  0  0  0  0
 10 17  2  0  0  0  0
 11 12  1  0  0  0  0
 12 13  1  0  0  0  0
 12 55  1  0  0  0  0
 12 56  1  0  0  0  0
 13 14  1  0  0  0  0
 13 15  1  0  0  0  0
 13 16  1  0  0  0  0
 17 18  1  0  0  0  0
 17 35  1  0  0  0  0
 18 19  1  0  0  0  0
 18 57  1  0  0  0  0
 19 20  2  0  0  0  0
 19 24  1  0  0  0  0
 20 21  1  0  0  0  0
 21 22  2  0  0  0  0
 21 58  1  0  0  0  0
 22 23  1  0  0  0  0
 22 59  1  0  0  0  0
 23 24  2  0  0  0  0
 23 25  1  0  0  0  0
 25 26  2  0  0  0  0
 25 30  1  0  0  0  0
 26 27  1  0  0  0  0
 26 60  1  0  0  0  0
 27 28  1  0  0  0  0
 27 29  1  0  0  0  0
 28 61  1  0  0  0  0
 28 62  1  0  0  0  0
 28 63  1  0  0  0  0
 29 30  2  0  0  0  0
 29 34  1  0  0  0  0
 30 31  1  0  0  0  0
 31 32  2  0  0  0  0
 31 64  1  0  0  0  0
 32 33  1  0  0  0  0
 32 65  1  0  0  0  0
 33 34  2  0  0  0  0
 33 66  1  0  0  0  0
 34 67  1  0  0  0  0
 35 36  2  0  0  0  0
 35 68  1  0  0  0  0
 36 37  1  0  0  0  0
 37 38  1  0  0  0  0
 37 69  1  0  0  0  0
 38 39  2  0  0  0  0
 38 40  1  0  0  0  0
 40 41  2  0  0  0  0
 40 70  1  0  0  0  0
 41 71  1  0  0  0  0
 41 72  1  0  0  0  0
M  END
>  <DRUGBANK_ID>
DB16087

>  <COMMON_NAME>
Alflutinib

>  <CAS_NUMBER>
1869057-83-9

>  <UNII>
A49A7A5YN4

$$$$
