
 OpenBabel10282417072D

 30 33  0  0  0  0  0  0  0  0999 V2000
   -0.2701    3.4709    0.0000 C   0  0  0  0  0  0  0  0  0  0  0  0
   -0.6140    2.7210    0.0000 C   0  0  0  0  0  0  0  0  0  0  0  0
    0.5512    3.5481    0.0000 C   0  0  0  0  0  0  0  0  0  0  0  0
   -0.1365    2.0482    0.0000 C   0  0  0  0  0  0  0  0  0  0  0  0
    4.6501    3.3434    0.0000 C   0  0  0  0  0  0  0  0  0  0  0  0
    3.8683    3.6070    0.0000 C   0  0  0  0  0  0  0  0  0  0  0  0
    4.1935    1.9893    0.0000 C   0  0  0  0  0  0  0  0  0  0  0  0
    2.7926    1.7077    0.0000 C   0  0  0  0  0  0  0  0  0  0  0  0
    3.4118    2.2529    0.0000 C   0  0  0  0  0  0  0  0  0  0  0  0
    4.8127    2.5346    0.0000 C   0  0  0  0  0  0  0  0  0  0  0  0
    1.0288    2.8753    0.0000 C   0  0  0  0  0  0  0  0  0  0  0  0
    0.6849    2.1254    0.0000 C   0  0  0  0  0  0  0  0  0  0  0  0
    3.2492    3.0617    0.0000 C   0  0  0  0  0  0  0  0  0  0  0  0
    1.8482    2.7801    0.0000 C   0  0  0  0  0  0  0  0  0  0  0  0
    1.2919    1.5666    0.0000 C   0  0  0  0  0  0  0  0  0  0  0  0
    5.5944    2.2710    0.0000 N   0  0  0  0  0  0  0  0  0  0  0  0
    2.4674    3.3253    0.0000 N   0  0  0  0  0  0  0  0  0  0  0  0
    2.0109    1.9712    0.0000 N   0  0  0  0  0  0  0  0  0  0  0  0
    1.1966    0.7472    0.0000 O   0  0  0  0  0  0  0  0  0  0  0  0
   -0.8674    4.3125    0.0000 H   0  0  0  0  0  0  0  0  0  0  0  0
   -1.6415    2.6245    0.0000 H   0  0  0  0  0  0  0  0  0  0  0  0
    0.9813    4.4862    0.0000 H   0  0  0  0  0  0  0  0  0  0  0  0
   -0.5666    1.1101    0.0000 H   0  0  0  0  0  0  0  0  0  0  0  0
    5.4246    4.0254    0.0000 H   0  0  0  0  0  0  0  0  0  0  0  0
    3.6648    4.6187    0.0000 H   0  0  0  0  0  0  0  0  0  0  0  0
    4.3969    0.9775    0.0000 H   0  0  0  0  0  0  0  0  0  0  0  0
    3.0035    0.6587    0.0000 H   0  0  0  0  0  0  0  0  0  0  0  0
    1.9896    1.0005    0.0000 H   0  0  0  0  0  0  0  0  0  0  0  0
    5.7884    1.3058    0.0000 H   0  0  0  0  0  0  0  0  0  0  0  0
    6.3333    2.9216    0.0000 H   0  0  0  0  0  0  0  0  0  0  0  0
  1 20  1  0  0  0  0
  2  1  2  0  0  0  0
  2 21  1  0  0  0  0
  3  1  1  0  0  0  0
  3 22  1  0  0  0  0
  4  2  1  0  0  0  0
  4 23  1  0  0  0  0
  5 24  1  0  0  0  0
  6  5  1  0  0  0  0
  6 25  1  0  0  0  0
  7 26  1  0  0  0  0
  8 27  1  0  0  0  0
  8 28  1  0  0  0  0
  9  7  2  0  0  0  0
  9  8  1  0  0  0  0
 10  5  2  0  0  0  0
 10  7  1  0  0  0  0
 11  3  2  0  0  0  0
 12  4  2  0  0  0  0
 12 11  1  0  0  0  0
 13  6  2  0  0  0  0
 13  9  1  0  0  0  0
 14 11  1  0  0  0  0
 15 12  1  0  0  0  0
 16 10  1  0  0  0  0
 16 29  1  0  0  0  0
 16 30  1  0  0  0  0
 17 13  1  0  0  0  0
 17 14  2  0  0  0  0
 18  8  1  0  0  0  0
 18 14  1  0  0  0  0
 18 15  1  0  0  0  0
 19 15  2  0  0  0  0
M  END
>  <DRUGBANK_ID>
DB12804

>  <COMMON_NAME>
Daniquidone

>  <CAS_NUMBER>
67199-66-0

>  <UNII>
E780TX33D2

>  <SYNONYMS>
Batracylin; Daniquidone

$$$$
