N8E
 OpenBabel10282417072D

 62 61  0  0  0  0  0  0  0  0999 V2000
   -7.7137   -0.1846    0.0000 C   0  0  0  0  0  0  0  0  0  0  0  0
   -6.9992    0.2279    0.0000 C   0  0  0  0  0  0  0  0  0  0  0  0
   -6.2847   -0.1846    0.0000 C   0  0  0  0  0  0  0  0  0  0  0  0
   -5.5701    0.2279    0.0000 C   0  0  0  0  0  0  0  0  0  0  0  0
   -4.8556   -0.1846    0.0000 C   0  0  0  0  0  0  0  0  0  0  0  0
   -4.1411    0.2279    0.0000 C   0  0  0  0  0  0  0  0  0  0  0  0
   -3.4266   -0.1846    0.0000 C   0  0  0  0  0  0  0  0  0  0  0  0
   -2.7120    0.2279    0.0000 C   0  0  0  0  0  0  0  0  0  0  0  0
   -1.9975   -0.1846    0.0000 O   0  0  0  0  0  0  0  0  0  0  0  0
   -1.2830    0.2279    0.0000 C   0  0  0  0  0  0  0  0  0  0  0  0
   -0.5684   -0.1846    0.0000 C   0  0  0  0  0  0  0  0  0  0  0  0
    0.1461    0.2279    0.0000 O   0  0  0  0  0  0  0  0  0  0  0  0
    0.8606   -0.1846    0.0000 C   0  0  0  0  0  0  0  0  0  0  0  0
    1.5751    0.2279    0.0000 C   0  0  0  0  0  0  0  0  0  0  0  0
    2.2897   -0.1846    0.0000 O   0  0  0  0  0  0  0  0  0  0  0  0
    3.0041    0.2279    0.0000 C   0  0  0  0  0  0  0  0  0  0  0  0
    3.7187   -0.1846    0.0000 C   0  0  0  0  0  0  0  0  0  0  0  0
    4.4332    0.2279    0.0000 O   0  0  0  0  0  0  0  0  0  0  0  0
    5.1477   -0.1846    0.0000 C   0  0  0  0  0  0  0  0  0  0  0  0
    5.8622    0.2279    0.0000 C   0  0  0  0  0  0  0  0  0  0  0  0
    6.5768   -0.1846    0.0000 O   0  0  0  0  0  0  0  0  0  0  0  0
    7.2913    0.2279    0.0000 C   0  0  0  0  0  0  0  0  0  0  0  0
    8.0058   -0.1846    0.0000 C   0  0  0  0  0  0  0  0  0  0  0  0
    8.7203    0.2279    0.0000 O   0  0  0  0  0  0  0  0  0  0  0  0
   -8.6403    0.3504    0.0000 H   0  0  0  0  0  0  0  0  0  0  0  0
   -7.7137   -1.2546    0.0000 H   0  0  0  0  0  0  0  0  0  0  0  0
   -8.6404   -0.7196    0.0000 H   0  0  0  0  0  0  0  0  0  0  0  0
   -6.9992    1.2979    0.0000 H   0  0  0  0  0  0  0  0  0  0  0  0
   -6.0726    0.7629    0.0000 H   0  0  0  0  0  0  0  0  0  0  0  0
   -6.2847   -1.2546    0.0000 H   0  0  0  0  0  0  0  0  0  0  0  0
   -5.3581   -0.7197    0.0000 H   0  0  0  0  0  0  0  0  0  0  0  0
   -5.5701    1.2979    0.0000 H   0  0  0  0  0  0  0  0  0  0  0  0
   -4.6434    0.7629    0.0000 H   0  0  0  0  0  0  0  0  0  0  0  0
   -4.8556   -1.2546    0.0000 H   0  0  0  0  0  0  0  0  0  0  0  0
   -3.9290   -0.7196    0.0000 H   0  0  0  0  0  0  0  0  0  0  0  0
   -4.1411    1.2979    0.0000 H   0  0  0  0  0  0  0  0  0  0  0  0
   -3.2145    0.7629    0.0000 H   0  0  0  0  0  0  0  0  0  0  0  0
   -3.4266   -1.2546    0.0000 H   0  0  0  0  0  0  0  0  0  0  0  0
   -2.5000   -0.7197    0.0000 H   0  0  0  0  0  0  0  0  0  0  0  0
   -2.7120    1.2979    0.0000 H   0  0  0  0  0  0  0  0  0  0  0  0
   -1.7853    0.7629    0.0000 H   0  0  0  0  0  0  0  0  0  0  0  0
   -1.2830    1.2979    0.0000 H   0  0  0  0  0  0  0  0  0  0  0  0
   -0.3564    0.7630    0.0000 H   0  0  0  0  0  0  0  0  0  0  0  0
   -0.5684   -1.2546    0.0000 H   0  0  0  0  0  0  0  0  0  0  0  0
    0.3583   -0.7196    0.0000 H   0  0  0  0  0  0  0  0  0  0  0  0
    0.8606   -1.2546    0.0000 H   0  0  0  0  0  0  0  0  0  0  0  0
    1.7872   -0.7196    0.0000 H   0  0  0  0  0  0  0  0  0  0  0  0
    1.5751    1.2979    0.0000 H   0  0  0  0  0  0  0  0  0  0  0  0
    2.5017    0.7630    0.0000 H   0  0  0  0  0  0  0  0  0  0  0  0
    3.0040    1.2979    0.0000 H   0  0  0  0  0  0  0  0  0  0  0  0
    3.9307    0.7630    0.0000 H   0  0  0  0  0  0  0  0  0  0  0  0
    3.7187   -1.2546    0.0000 H   0  0  0  0  0  0  0  0  0  0  0  0
    4.6454   -0.7196    0.0000 H   0  0  0  0  0  0  0  0  0  0  0  0
    5.1477   -1.2546    0.0000 H   0  0  0  0  0  0  0  0  0  0  0  0
    6.0743   -0.7196    0.0000 H   0  0  0  0  0  0  0  0  0  0  0  0
    5.8622    1.2979    0.0000 H   0  0  0  0  0  0  0  0  0  0  0  0
    6.7888    0.7630    0.0000 H   0  0  0  0  0  0  0  0  0  0  0  0
    7.2913    1.2979    0.0000 H   0  0  0  0  0  0  0  0  0  0  0  0
    8.2179    0.7629    0.0000 H   0  0  0  0  0  0  0  0  0  0  0  0
    8.0058   -1.2546    0.0000 H   0  0  0  0  0  0  0  0  0  0  0  0
    8.9324   -0.7196    0.0000 H   0  0  0  0  0  0  0  0  0  0  0  0
    9.5603   -0.2571    0.0000 H   0  0  0  0  0  0  0  0  0  0  0  0
  1  2  1  0  0  0  0
  1 25  1  0  0  0  0
  1 26  1  0  0  0  0
  1 27  1  0  0  0  0
  2  3  1  0  0  0  0
  2 28  1  0  0  0  0
  2 29  1  0  0  0  0
  3  4  1  0  0  0  0
  3 30  1  0  0  0  0
  3 31  1  0  0  0  0
  4  5  1  0  0  0  0
  4 32  1  0  0  0  0
  4 33  1  0  0  0  0
  5  6  1  0  0  0  0
  5 34  1  0  0  0  0
  5 35  1  0  0  0  0
  6  7  1  0  0  0  0
  6 36  1  0  0  0  0
  6 37  1  0  0  0  0
  7  8  1  0  0  0  0
  7 38  1  0  0  0  0
  7 39  1  0  0  0  0
  8  9  1  0  0  0  0
  8 40  1  0  0  0  0
  8 41  1  0  0  0  0
  9 10  1  0  0  0  0
 10 11  1  0  0  0  0
 10 42  1  0  0  0  0
 10 43  1  0  0  0  0
 11 12  1  0  0  0  0
 11 44  1  0  0  0  0
 11 45  1  0  0  0  0
 12 13  1  0  0  0  0
 13 14  1  0  0  0  0
 13 46  1  0  0  0  0
 13 47  1  0  0  0  0
 14 15  1  0  0  0  0
 14 48  1  0  0  0  0
 14 49  1  0  0  0  0
 15 16  1  0  0  0  0
 16 17  1  0  0  0  0
 16 50  1  0  0  0  0
 16 51  1  0  0  0  0
 17 18  1  0  0  0  0
 17 52  1  0  0  0  0
 17 53  1  0  0  0  0
 18 19  1  0  0  0  0
 19 20  1  0  0  0  0
 19 54  1  0  0  0  0
 19 55  1  0  0  0  0
 20 21  1  0  0  0  0
 20 56  1  0  0  0  0
 20 57  1  0  0  0  0
 21 22  1  0  0  0  0
 22 23  1  0  0  0  0
 22 58  1  0  0  0  0
 22 59  1  0  0  0  0
 23 24  1  0  0  0  0
 23 60  1  0  0  0  0
 23 61  1  0  0  0  0
 24 62  1  0  0  0  0
M  END
>  <DRUGBANK_ID>
DB08249

>  <COMMON_NAME>
3,6,9,12,15-PENTAOXATRICOSAN-1-OL

>  <UNII>
85FR004F9B

$$$$
