
 OpenBabel10282417072D

 59 58  0  0  1  0  0  0  0  0999 V2000
    7.2336   -5.0013    0.0000 C   0  0  0  0  0  0  0  0  0  0  0  0
    7.9480   -4.5888    0.0000 C   0  0  0  0  0  0  0  0  0  0  0  0
    7.9480   -3.7638    0.0000 O   0  0  0  0  0  0  0  0  0  0  0  0
    8.6625   -5.0013    0.0000 O   0  0  0  0  0  0  0  0  0  0  0  0
    9.3770   -4.5888    0.0000 C   0  0  0  0  0  0  0  0  0  0  0  0
   10.0914   -5.0013    0.0000 C   0  0  0  0  0  0  0  0  0  0  0  0
   10.8059   -4.5888    0.0000 N   0  0  0  0  0  0  0  0  0  0  0  0
   11.5204   -5.0013    0.0000 C   0  0  0  0  0  0  0  0  0  0  0  0
   11.5204   -5.8263    0.0000 O   0  0  0  0  0  0  0  0  0  0  0  0
   12.2349   -4.5888    0.0000 C   0  0  0  0  0  0  0  0  0  0  0  0
   12.9493   -5.0013    0.0000 C   0  0  0  0  0  0  0  0  0  0  0  0
   13.6638   -4.5888    0.0000 N   0  0  0  0  0  0  0  0  0  0  0  0
   14.3783   -5.0013    0.0000 C   0  0  0  0  0  0  0  0  0  0  0  0
   14.3783   -5.8263    0.0000 O   0  0  0  0  0  0  0  0  0  0  0  0
   15.0927   -4.5888    0.0000 C   0  0  2  0  0  0  0  0  0  0  0  0
   15.0927   -3.7638    0.0000 O   0  0  0  0  0  0  0  0  0  0  0  0
   15.8072   -5.0013    0.0000 C   0  0  0  0  0  0  0  0  0  0  0  0
   15.3947   -5.7158    0.0000 C   0  0  0  0  0  0  0  0  0  0  0  0
   16.2197   -4.2868    0.0000 C   0  0  0  0  0  0  0  0  0  0  0  0
   16.5217   -5.4138    0.0000 C   0  0  0  0  0  0  0  0  0  0  0  0
   17.2362   -5.0013    0.0000 O   0  0  0  0  0  0  0  0  0  0  0  0
   17.9506   -5.4138    0.0000 C   0  0  0  0  0  0  0  0  0  0  0  0
   17.9506   -6.2388    0.0000 O   0  0  0  0  0  0  0  0  0  0  0  0
   18.6651   -5.0013    0.0000 C   0  0  0  0  0  0  0  0  0  0  0  0
   19.3796   -4.5888    0.0000 C   0  0  0  0  0  0  0  0  0  0  0  0
   19.0776   -5.7158    0.0000 C   0  0  0  0  0  0  0  0  0  0  0  0
   18.2526   -4.2868    0.0000 C   0  0  0  0  0  0  0  0  0  0  0  0
    6.3069   -4.4663    0.0000 H   0  0  0  0  0  0  0  0  0  0  0  0
    7.2336   -6.0713    0.0000 H   0  0  0  0  0  0  0  0  0  0  0  0
    6.3070   -5.5363    0.0000 H   0  0  0  0  0  0  0  0  0  0  0  0
    9.3770   -3.5188    0.0000 H   0  0  0  0  0  0  0  0  0  0  0  0
   10.3037   -4.0538    0.0000 H   0  0  0  0  0  0  0  0  0  0  0  0
   10.0914   -6.0713    0.0000 H   0  0  0  0  0  0  0  0  0  0  0  0
   11.0180   -5.5363    0.0000 H   0  0  0  0  0  0  0  0  0  0  0  0
   10.8059   -3.6043    0.0000 H   0  0  0  0  0  0  0  0  0  0  0  0
   12.2349   -3.5188    0.0000 H   0  0  0  0  0  0  0  0  0  0  0  0
   13.1616   -4.0538    0.0000 H   0  0  0  0  0  0  0  0  0  0  0  0
   12.9493   -6.0713    0.0000 H   0  0  0  0  0  0  0  0  0  0  0  0
   13.8759   -5.5363    0.0000 H   0  0  0  0  0  0  0  0  0  0  0  0
   13.6638   -3.6043    0.0000 H   0  0  0  0  0  0  0  0  0  0  0  0
   14.1660   -4.0538    0.0000 H   0  0  0  0  0  0  0  0  0  0  0  0
   15.9327   -3.2788    0.0000 H   0  0  0  0  0  0  0  0  0  0  0  0
   14.3247   -5.7158    0.0000 H   0  0  0  0  0  0  0  0  0  0  0  0
   15.9297   -6.6424    0.0000 H   0  0  0  0  0  0  0  0  0  0  0  0
   14.8597   -6.6425    0.0000 H   0  0  0  0  0  0  0  0  0  0  0  0
   17.2897   -4.2868    0.0000 H   0  0  0  0  0  0  0  0  0  0  0  0
   15.6847   -3.3602    0.0000 H   0  0  0  0  0  0  0  0  0  0  0  0
   16.7547   -3.3601    0.0000 H   0  0  0  0  0  0  0  0  0  0  0  0
   16.5217   -6.4838    0.0000 H   0  0  0  0  0  0  0  0  0  0  0  0
   17.4483   -5.9488    0.0000 H   0  0  0  0  0  0  0  0  0  0  0  0
   20.3062   -5.1238    0.0000 H   0  0  0  0  0  0  0  0  0  0  0  0
   19.3796   -3.5188    0.0000 H   0  0  0  0  0  0  0  0  0  0  0  0
   20.3063   -4.0538    0.0000 H   0  0  0  0  0  0  0  0  0  0  0  0
   18.5426   -6.6424    0.0000 H   0  0  0  0  0  0  0  0  0  0  0  0
   20.1476   -5.7158    0.0000 H   0  0  0  0  0  0  0  0  0  0  0  0
   19.6126   -6.6425    0.0000 H   0  0  0  0  0  0  0  0  0  0  0  0
   18.7876   -3.3602    0.0000 H   0  0  0  0  0  0  0  0  0  0  0  0
   17.1826   -4.2868    0.0000 H   0  0  0  0  0  0  0  0  0  0  0  0
   17.7176   -3.3601    0.0000 H   0  0  0  0  0  0  0  0  0  0  0  0
  1  2  1  0  0  0  0
  1 28  1  0  0  0  0
  1 29  1  0  0  0  0
  1 30  1  0  0  0  0
  2  3  2  0  0  0  0
  2  4  1  0  0  0  0
  4  5  1  0  0  0  0
  5  6  1  0  0  0  0
  5 31  1  0  0  0  0
  5 32  1  0  0  0  0
  6  7  1  0  0  0  0
  6 33  1  0  0  0  0
  6 34  1  0  0  0  0
  7  8  1  0  0  0  0
  7 35  1  0  0  0  0
  8  9  2  0  0  0  0
  8 10  1  0  0  0  0
 10 11  1  0  0  0  0
 10 36  1  0  0  0  0
 10 37  1  0  0  0  0
 11 12  1  0  0  0  0
 11 38  1  0  0  0  0
 11 39  1  0  0  0  0
 12 13  1  0  0  0  0
 12 40  1  0  0  0  0
 13 14  2  0  0  0  0
 13 15  1  0  0  0  0
 15 16  1  0  0  0  0
 15 17  1  0  0  0  0
 15 41  1  1  0  0  0
 16 42  1  0  0  0  0
 17 18  1  0  0  0  0
 17 19  1  0  0  0  0
 17 20  1  0  0  0  0
 18 43  1  0  0  0  0
 18 44  1  0  0  0  0
 18 45  1  0  0  0  0
 19 46  1  0  0  0  0
 19 47  1  0  0  0  0
 19 48  1  0  0  0  0
 20 21  1  0  0  0  0
 20 49  1  0  0  0  0
 20 50  1  0  0  0  0
 21 22  1  0  0  0  0
 22 23  2  0  0  0  0
 22 24  1  0  0  0  0
 24 25  1  0  0  0  0
 24 26  1  0  0  0  0
 24 27  1  0  0  0  0
 25 51  1  0  0  0  0
 25 52  1  0  0  0  0
 25 53  1  0  0  0  0
 26 54  1  0  0  0  0
 26 55  1  0  0  0  0
 26 56  1  0  0  0  0
 27 57  1  0  0  0  0
 27 58  1  0  0  0  0
 27 59  1  0  0  0  0
M  END
>  <DRUGBANK_ID>
DB03045

>  <SECONDARY_ACCESSION_NUMBERS>
EXPT00046

>  <COMMON_NAME>
Pantothenyl-Aminoethanol-Acetate Pivalic Acid

$$$$
