
 OpenBabel10282417072D

 65 68  0  0  0  0  0  0  0  0999 V2000
   -1.7309    6.9020    0.0000 C   0  0  0  0  0  0  0  0  0  0  0  0
   -1.0164    6.4895    0.0000 O   0  0  0  0  0  0  0  0  0  0  0  0
   -0.3020    6.9020    0.0000 C   0  0  0  0  0  0  0  0  0  0  0  0
    0.4125    6.4895    0.0000 C   0  0  0  0  0  0  0  0  0  0  0  0
    1.1270    6.9020    0.0000 C   0  0  0  0  0  0  0  0  0  0  0  0
    1.1270    7.7270    0.0000 C   0  0  0  0  0  0  0  0  0  0  0  0
    0.4125    8.1395    0.0000 C   0  0  0  0  0  0  0  0  0  0  0  0
   -0.3020    7.7270    0.0000 C   0  0  0  0  0  0  0  0  0  0  0  0
   -1.0164    8.1395    0.0000 C   0  0  0  0  0  0  0  0  0  0  0  0
   -1.7309    7.7270    0.0000 C   0  0  0  0  0  0  0  0  0  0  0  0
    1.8414    8.1395    0.0000 C   0  0  0  0  0  0  0  0  0  0  0  0
    2.5559    7.7270    0.0000 O   0  0  0  0  0  0  0  0  0  0  0  0
    1.8414    8.9645    0.0000 N   0  0  0  0  0  0  0  0  0  0  0  0
    2.5559    9.3770    0.0000 C   0  0  0  0  0  0  0  0  0  0  0  0
    2.5559   10.2020    0.0000 C   0  0  0  0  0  0  0  0  0  0  0  0
    3.2704   10.6145    0.0000 C   0  0  0  0  0  0  0  0  0  0  0  0
    3.9849   10.2020    0.0000 C   0  0  0  0  0  0  0  0  0  0  0  0
    3.9849    9.3770    0.0000 C   0  0  0  0  0  0  0  0  0  0  0  0
    3.2704    8.9645    0.0000 C   0  0  0  0  0  0  0  0  0  0  0  0
    4.6993   10.6145    0.0000 C   0  0  0  0  0  0  0  0  0  0  0  0
    5.4138   10.2020    0.0000 N   0  0  0  0  0  0  0  0  0  0  0  0
    4.6993   11.4395    0.0000 N   0  0  0  0  0  0  0  0  0  0  0  0
    1.8414    6.4895    0.0000 C   0  0  0  0  0  0  0  0  0  0  0  0
    2.5559    6.9020    0.0000 C   0  0  0  0  0  0  0  0  0  0  0  0
    3.2704    6.4895    0.0000 C   0  0  0  0  0  0  0  0  0  0  0  0
    3.2704    5.6645    0.0000 C   0  0  0  0  0  0  0  0  0  0  0  0
    2.5559    5.2520    0.0000 N   0  0  0  0  0  0  0  0  0  0  0  0
    1.8414    5.6645    0.0000 C   0  0  0  0  0  0  0  0  0  0  0  0
    1.1270    5.2520    0.0000 C   0  0  0  0  0  0  0  0  0  0  0  0
    0.4125    5.6645    0.0000 O   0  0  0  0  0  0  0  0  0  0  0  0
    1.1270    4.4270    0.0000 O   0  0  0  0  0  0  0  0  0  0  0  0
    3.9849    5.2520    0.0000 C   0  0  0  0  0  0  0  0  0  0  0  0
    4.6993    5.6645    0.0000 O   0  0  0  0  0  0  0  0  0  0  0  0
    3.9849    4.4270    0.0000 N   0  0  0  0  0  0  0  0  0  0  0  0
    3.2704    4.0145    0.0000 C   0  0  0  0  0  0  0  0  0  0  0  0
    3.2704    3.1895    0.0000 C   0  0  0  0  0  0  0  0  0  0  0  0
    3.6829    2.4750    0.0000 C   0  0  0  0  0  0  0  0  0  0  0  0
    2.8579    2.4750    0.0000 C   0  0  0  0  0  0  0  0  0  0  0  0
   -1.7309    7.9720    0.0000 H   0  0  0  0  0  0  0  0  0  0  0  0
   -2.6575    6.3670    0.0000 H   0  0  0  0  0  0  0  0  0  0  0  0
   -2.6576    7.4370    0.0000 H   0  0  0  0  0  0  0  0  0  0  0  0
    0.4125    5.4575    0.0000 H   0  0  0  0  0  0  0  0  0  0  0  0
    0.4125    9.1715    0.0000 H   0  0  0  0  0  0  0  0  0  0  0  0
   -1.0164    9.1715    0.0000 H   0  0  0  0  0  0  0  0  0  0  0  0
   -2.6246    8.2430    0.0000 H   0  0  0  0  0  0  0  0  0  0  0  0
   -1.7309    6.6950    0.0000 H   0  0  0  0  0  0  0  0  0  0  0  0
    0.9888    9.4568    0.0000 H   0  0  0  0  0  0  0  0  0  0  0  0
    1.6622   10.7180    0.0000 H   0  0  0  0  0  0  0  0  0  0  0  0
    3.2704   11.6465    0.0000 H   0  0  0  0  0  0  0  0  0  0  0  0
    4.8786    8.8610    0.0000 H   0  0  0  0  0  0  0  0  0  0  0  0
    3.2704    7.9325    0.0000 H   0  0  0  0  0  0  0  0  0  0  0  0
    5.4138    9.2175    0.0000 H   0  0  0  0  0  0  0  0  0  0  0  0
    5.5519   11.9318    0.0000 H   0  0  0  0  0  0  0  0  0  0  0  0
    3.8467   11.9318    0.0000 H   0  0  0  0  0  0  0  0  0  0  0  0
    2.5559    7.9340    0.0000 H   0  0  0  0  0  0  0  0  0  0  0  0
    4.1641    7.0055    0.0000 H   0  0  0  0  0  0  0  0  0  0  0  0
    0.3155    3.9585    0.0000 H   0  0  0  0  0  0  0  0  0  0  0  0
    4.8375    3.9347    0.0000 H   0  0  0  0  0  0  0  0  0  0  0  0
    2.3438    4.5495    0.0000 H   0  0  0  0  0  0  0  0  0  0  0  0
    2.3438    3.4795    0.0000 H   0  0  0  0  0  0  0  0  0  0  0  0
    3.2704    2.1195    0.0000 H   0  0  0  0  0  0  0  0  0  0  0  0
    4.6095    1.9400    0.0000 H   0  0  0  0  0  0  0  0  0  0  0  0
    3.4060    1.4415    0.0000 H   0  0  0  0  0  0  0  0  0  0  0  0
    1.9313    1.9400    0.0000 H   0  0  0  0  0  0  0  0  0  0  0  0
    2.1013    3.2316    0.0000 H   0  0  0  0  0  0  0  0  0  0  0  0
  1  2  1  0  0  0  0
  1 39  1  0  0  0  0
  1 40  1  0  0  0  0
  1 41  1  0  0  0  0
  2  3  1  0  0  0  0
  3  4  2  0  0  0  0
  3  8  1  0  0  0  0
  4  5  1  0  0  0  0
  4 42  1  0  0  0  0
  5  6  2  0  0  0  0
  5 23  1  0  0  0  0
  6  7  1  0  0  0  0
  6 11  1  0  0  0  0
  7  8  2  0  0  0  0
  7 43  1  0  0  0  0
  8  9  1  0  0  0  0
  9 10  2  0  0  0  0
  9 44  1  0  0  0  0
 10 45  1  0  0  0  0
 10 46  1  0  0  0  0
 11 12  2  0  0  0  0
 11 13  1  0  0  0  0
 13 14  1  0  0  0  0
 13 47  1  0  0  0  0
 14 15  2  0  0  0  0
 14 19  1  0  0  0  0
 15 16  1  0  0  0  0
 15 48  1  0  0  0  0
 16 17  2  0  0  0  0
 16 49  1  0  0  0  0
 17 18  1  0  0  0  0
 17 20  1  0  0  0  0
 18 19  2  0  0  0  0
 18 50  1  0  0  0  0
 19 51  1  0  0  0  0
 20 21  2  0  0  0  0
 20 22  1  0  0  0  0
 21 52  1  0  0  0  0
 22 53  1  0  0  0  0
 22 54  1  0  0  0  0
 23 24  2  0  0  0  0
 23 28  1  0  0  0  0
 24 25  1  0  0  0  0
 24 55  1  0  0  0  0
 25 26  2  0  0  0  0
 25 56  1  0  0  0  0
 26 27  1  0  0  0  0
 26 32  1  0  0  0  0
 27 28  2  0  0  0  0
 28 29  1  0  0  0  0
 29 30  2  0  0  0  0
 29 31  1  0  0  0  0
 31 57  1  0  0  0  0
 32 33  2  0  0  0  0
 32 34  1  0  0  0  0
 34 35  1  0  0  0  0
 34 58  1  0  0  0  0
 35 36  1  0  0  0  0
 35 59  1  0  0  0  0
 35 60  1  0  0  0  0
 36 37  1  0  0  0  0
 36 38  1  0  0  0  0
 36 61  1  0  0  0  0
 37 38  1  0  0  0  0
 37 62  1  0  0  0  0
 37 63  1  0  0  0  0
 38 64  1  0  0  0  0
 38 65  1  0  0  0  0
M  END
>  <DRUGBANK_ID>
DB12120

>  <COMMON_NAME>
Avoralstat

>  <CAS_NUMBER>
918407-35-9

>  <UNII>
UX17773O15

>  <SYNONYMS>
3-(2-((4-Carbamimidoylphenyl)carbamoyl)-4-ethenyl-5-methoxyphenyl)-6-((cyclopropylmethyl)carbamoyl)pyridine-2-carboxylic acid; 3-[2-(4-carbamimidoyl-phenylcarbamoyl)-5-methoxy-4-vinyl-phenyl]-6-(cyclopropylmethyl-carbamoyl)-pyridine-2-carboxylic acid; 3-[2-[(4-carbamimidoylphenyl)carbamoyl]-4-ethenyl-5-methoxyphenyl]-6-(cyclopropylmethylcarbamoyl)pyridine-2-carboxylic acid; Avoralstat; BCX-4161; BCX4161

$$$$
