
 OpenBabel10282417072D

 65 69  0  0  0  0  0  0  0  0999 V2000
    1.7374   -0.6194    0.0000 C   0  0  0  0  0  0  0  0  0  0  0  0
    1.7415   -1.4453    0.0000 C   0  0  0  0  0  0  0  0  0  0  0  0
    0.9573   -1.7039    0.0000 N   0  0  0  0  0  0  0  0  0  0  0  0
    0.4692   -1.0365    0.0000 C   0  0  0  0  0  0  0  0  0  0  0  0
    0.9531   -0.3691    0.0000 C   0  0  0  0  0  0  0  0  0  0  0  0
   -0.3566   -1.0324    0.0000 C   0  0  0  0  0  0  0  0  0  0  0  0
   -0.7738   -1.7415    0.0000 C   0  0  0  0  0  0  0  0  0  0  0  0
   -1.5997   -1.7373    0.0000 C   0  0  0  0  0  0  0  0  0  0  0  0
   -2.0127   -1.0114    0.0000 C   0  0  0  0  0  0  0  0  0  0  0  0
   -2.8344   -1.0073    0.0000 C   0  0  0  0  0  0  0  0  0  0  0  0
   -3.2432   -0.2940    0.0000 N   0  0  0  0  0  0  0  0  0  0  0  0
   -2.8302    0.4192    0.0000 C   0  0  0  0  0  0  0  0  0  0  0  0
   -3.2349    1.1284    0.0000 C   0  0  0  0  0  0  0  0  0  0  0  0
   -4.0566    1.1367    0.0000 N   0  0  0  0  0  0  0  0  0  0  0  0
   -4.4738    0.4276    0.0000 C   0  0  0  0  0  0  0  0  0  0  0  0
   -4.0650   -0.2898    0.0000 C   0  0  0  0  0  0  0  0  0  0  0  0
   -4.4696    1.8500    0.0000 C   0  0  0  0  0  0  0  0  0  0  0  0
   -5.2955    1.8500    0.0000 C   0  0  0  0  0  0  0  0  0  0  0  0
   -1.5913   -0.2981    0.0000 C   0  0  0  0  0  0  0  0  0  0  0  0
   -0.7654   -0.3065    0.0000 C   0  0  0  0  0  0  0  0  0  0  0  0
    2.4548   -1.8583    0.0000 N   0  0  0  0  0  0  0  0  0  0  0  0
    3.1723   -1.4453    0.0000 C   0  0  0  0  0  0  0  0  0  0  0  0
    3.1723   -0.6152    0.0000 N   0  0  0  0  0  0  0  0  0  0  0  0
    2.4548   -0.2022    0.0000 C   0  0  0  0  0  0  0  0  0  0  0  0
    2.4507    0.6194    0.0000 N   0  0  0  0  0  0  0  0  0  0  0  0
    3.1598    1.0324    0.0000 C   0  0  1  0  0  0  0  0  0  0  0  0
    3.8731    0.6236    0.0000 C   0  0  0  0  0  0  0  0  0  0  0  0
    3.8689   -0.1980    0.0000 C   0  0  0  0  0  0  0  0  0  0  0  0
    4.5822   -0.6069    0.0000 C   0  0  0  0  0  0  0  0  0  0  0  0
    5.2955   -0.1939    0.0000 C   0  0  0  0  0  0  0  0  0  0  0  0
    5.2914    0.6319    0.0000 C   0  0  0  0  0  0  0  0  0  0  0  0
    4.5781    1.0366    0.0000 C   0  0  0  0  0  0  0  0  0  0  0  0
    3.1556    1.8583    0.0000 C   0  0  0  0  0  0  0  0  0  0  0  0
    0.6566   -2.6414    0.0000 H   0  0  0  0  0  0  0  0  0  0  0  0
    0.6311    0.6114    0.0000 H   0  0  0  0  0  0  0  0  0  0  0  0
   -0.2638   -2.6386    0.0000 H   0  0  0  0  0  0  0  0  0  0  0  0
   -2.1208   -2.6281    0.0000 H   0  0  0  0  0  0  0  0  0  0  0  0
   -3.3732   -1.9318    0.0000 H   0  0  0  0  0  0  0  0  0  0  0  0
   -3.9044   -1.0034    0.0000 H   0  0  0  0  0  0  0  0  0  0  0  0
   -1.7602    0.4158    0.0000 H   0  0  0  0  0  0  0  0  0  0  0  0
   -2.2914    1.3436    0.0000 H   0  0  0  0  0  0  0  0  0  0  0  0
   -2.6929    2.0510    0.0000 H   0  0  0  0  0  0  0  0  0  0  0  0
   -3.7617    2.0597    0.0000 H   0  0  0  0  0  0  0  0  0  0  0  0
   -5.5438    0.4350    0.0000 H   0  0  0  0  0  0  0  0  0  0  0  0
   -5.0146   -0.4957    0.0000 H   0  0  0  0  0  0  0  0  0  0  0  0
   -4.6050   -1.2136    0.0000 H   0  0  0  0  0  0  0  0  0  0  0  0
   -5.1350   -0.2839    0.0000 H   0  0  0  0  0  0  0  0  0  0  0  0
   -3.9352    2.7770    0.0000 H   0  0  0  0  0  0  0  0  0  0  0  0
   -5.0049    2.7765    0.0000 H   0  0  0  0  0  0  0  0  0  0  0  0
   -5.8305    2.7766    0.0000 H   0  0  0  0  0  0  0  0  0  0  0  0
   -5.8305    0.9234    0.0000 H   0  0  0  0  0  0  0  0  0  0  0  0
   -6.3655    1.8500    0.0000 H   0  0  0  0  0  0  0  0  0  0  0  0
   -2.0983    0.6008    0.0000 H   0  0  0  0  0  0  0  0  0  0  0  0
   -0.2401    0.5818    0.0000 H   0  0  0  0  0  0  0  0  0  0  0  0
    4.0657   -1.9619    0.0000 H   0  0  0  0  0  0  0  0  0  0  0  0
    1.5959    1.1079    0.0000 H   0  0  0  0  0  0  0  0  0  0  0  0
    2.2308    1.5633    0.0000 H   0  0  0  0  0  0  0  0  0  0  0  0
    2.9746   -0.7131    0.0000 H   0  0  0  0  0  0  0  0  0  0  0  0
    4.5844   -1.6389    0.0000 H   0  0  0  0  0  0  0  0  0  0  0  0
    6.1908   -0.7071    0.0000 H   0  0  0  0  0  0  0  0  0  0  0  0
    6.1819    1.1535    0.0000 H   0  0  0  0  0  0  0  0  0  0  0  0
    4.5710    2.0686    0.0000 H   0  0  0  0  0  0  0  0  0  0  0  0
    4.0795    2.3980    0.0000 H   0  0  0  0  0  0  0  0  0  0  0  0
    2.2262    2.3886    0.0000 H   0  0  0  0  0  0  0  0  0  0  0  0
    3.1502    2.9283    0.0000 H   0  0  0  0  0  0  0  0  0  0  0  0
  2  1  2  0  0  0  0
  3  2  1  0  0  0  0
  3  4  1  0  0  0  0
  3 34  1  0  0  0  0
  4  5  2  0  0  0  0
  5  1  1  0  0  0  0
  5 35  1  0  0  0  0
  6  4  1  0  0  0  0
  7  6  1  0  0  0  0
  7 36  1  0  0  0  0
  8  7  2  0  0  0  0
  8 37  1  0  0  0  0
  9  8  1  0  0  0  0
  9 19  2  0  0  0  0
 10  9  1  0  0  0  0
 10 38  1  0  0  0  0
 10 39  1  0  0  0  0
 11 10  1  0  0  0  0
 12 11  1  0  0  0  0
 12 40  1  0  0  0  0
 12 41  1  0  0  0  0
 13 12  1  0  0  0  0
 13 42  1  0  0  0  0
 13 43  1  0  0  0  0
 14 13  1  0  0  0  0
 14 15  1  0  0  0  0
 15 16  1  0  0  0  0
 15 44  1  0  0  0  0
 15 45  1  0  0  0  0
 16 11  1  0  0  0  0
 16 46  1  0  0  0  0
 16 47  1  0  0  0  0
 17 14  1  0  0  0  0
 17 48  1  0  0  0  0
 17 49  1  0  0  0  0
 18 17  1  0  0  0  0
 18 50  1  0  0  0  0
 18 51  1  0  0  0  0
 18 52  1  0  0  0  0
 19 20  1  0  0  0  0
 19 53  1  0  0  0  0
 20  6  2  0  0  0  0
 20 54  1  0  0  0  0
 21  2  1  0  0  0  0
 22 21  2  0  0  0  0
 22 55  1  0  0  0  0
 23 22  1  0  0  0  0
 23 24  2  0  0  0  0
 24  1  1  0  0  0  0
 25 24  1  0  0  0  0
 25 56  1  0  0  0  0
 26 25  1  0  0  0  0
 26 33  1  0  0  0  0
 26 57  1  1  0  0  0
 27 26  1  0  0  0  0
 28 27  2  0  0  0  0
 28 58  1  0  0  0  0
 29 28  1  0  0  0  0
 29 59  1  0  0  0  0
 30 29  2  0  0  0  0
 30 60  1  0  0  0  0
 31 30  1  0  0  0  0
 31 32  2  0  0  0  0
 31 61  1  0  0  0  0
 32 27  1  0  0  0  0
 32 62  1  0  0  0  0
 33 63  1  0  0  0  0
 33 64  1  0  0  0  0
 33 65  1  0  0  0  0
M  END
>  <DRUGBANK_ID>
DB12558

>  <COMMON_NAME>
AEE-788

>  <CAS_NUMBER>
497839-62-0

>  <UNII>
F9JLR95I3I

$$$$
