
 OpenBabel10282417072D

 55 59  0  0  0  0  0  0  0  0999 V2000
    4.0678    2.2910    0.0000 C   0  0  0  0  0  0  0  0  0  0  0  0
    4.7350    1.8058    0.0000 N   0  0  0  0  0  0  0  0  0  0  0  0
    4.6485    0.9854    0.0000 C   0  0  1  0  0  0  0  0  0  0  0  0
    4.8478    0.1848    0.0000 C   0  0  0  0  0  0  0  0  0  0  0  0
    4.2541   -0.3881    0.0000 C   0  0  0  0  0  0  0  0  0  0  0  0
    3.4612   -0.1604    0.0000 C   0  0  1  0  0  0  0  0  0  0  0  0
    3.6605   -0.9609    0.0000 O   0  0  0  0  0  0  0  0  0  0  0  0
    3.0668   -1.5338    0.0000 C   0  0  0  0  0  0  0  0  0  0  0  0
    2.2739   -1.3062    0.0000 C   0  0  0  0  0  0  0  0  0  0  0  0
    2.0746   -0.5056    0.0000 C   0  0  0  0  0  0  0  0  0  0  0  0
    2.6682    0.0673    0.0000 C   0  0  0  0  0  0  0  0  0  0  0  0
    2.3068    0.8089    0.0000 N   0  0  0  0  0  0  0  0  0  0  0  0
    1.4898    0.6944    0.0000 C   0  0  0  0  0  0  0  0  0  0  0  0
    1.3463   -0.1180    0.0000 C   0  0  0  0  0  0  0  0  0  0  0  0
    0.5709   -0.3999    0.0000 C   0  0  0  0  0  0  0  0  0  0  0  0
   -0.0609    0.1306    0.0000 C   0  0  0  0  0  0  0  0  0  0  0  0
    0.0827    0.9430    0.0000 C   0  0  0  0  0  0  0  0  0  0  0  0
    0.8580    1.2249    0.0000 C   0  0  0  0  0  0  0  0  0  0  0  0
   -0.8362   -0.1513    0.0000 F   0  0  0  0  0  0  0  0  0  0  0  0
    3.2619    0.6402    0.0000 C   0  0  0  0  0  0  0  0  0  0  0  0
    3.8555    1.2131    0.0000 C   0  0  0  0  0  0  0  0  0  0  0  0
    5.4715    1.0426    0.0000 C   0  0  0  0  0  0  0  0  0  0  0  0
    5.8334    1.7840    0.0000 C   0  0  0  0  0  0  0  0  0  0  0  0
    6.6564    1.8413    0.0000 C   0  0  0  0  0  0  0  0  0  0  0  0
    7.1175    1.1572    0.0000 C   0  0  0  0  0  0  0  0  0  0  0  0
    6.7556    0.4158    0.0000 C   0  0  0  0  0  0  0  0  0  0  0  0
    5.9326    0.3585    0.0000 C   0  0  0  0  0  0  0  0  0  0  0  0
    5.4888    2.1411    0.0000 C   0  0  0  0  0  0  0  0  0  0  0  0
    4.1801    3.3551    0.0000 H   0  0  0  0  0  0  0  0  0  0  0  0
    3.0901    1.8562    0.0000 H   0  0  0  0  0  0  0  0  0  0  0  0
    3.2024    2.9203    0.0000 H   0  0  0  0  0  0  0  0  0  0  0  0
    5.8762   -0.1105    0.0000 H   0  0  0  0  0  0  0  0  0  0  0  0
    5.1063   -0.8535    0.0000 H   0  0  0  0  0  0  0  0  0  0  0  0
    4.5126   -1.4264    0.0000 H   0  0  0  0  0  0  0  0  0  0  0  0
    3.4841   -1.1311    0.0000 H   0  0  0  0  0  0  0  0  0  0  0  0
    3.3253   -2.5721    0.0000 H   0  0  0  0  0  0  0  0  0  0  0  0
    2.2969   -2.2769    0.0000 H   0  0  0  0  0  0  0  0  0  0  0  0
    1.5040   -2.0492    0.0000 H   0  0  0  0  0  0  0  0  0  0  0  0
    1.2455   -1.0109    0.0000 H   0  0  0  0  0  0  0  0  0  0  0  0
    2.7693    1.6780    0.0000 H   0  0  0  0  0  0  0  0  0  0  0  0
    0.3913   -1.4162    0.0000 H   0  0  0  0  0  0  0  0  0  0  0  0
   -0.7076    1.6067    0.0000 H   0  0  0  0  0  0  0  0  0  0  0  0
    1.0375    2.2412    0.0000 H   0  0  0  0  0  0  0  0  0  0  0  0
    2.2334    0.9355    0.0000 H   0  0  0  0  0  0  0  0  0  0  0  0
    3.0034    1.6785    0.0000 H   0  0  0  0  0  0  0  0  0  0  0  0
    3.5970    2.2514    0.0000 H   0  0  0  0  0  0  0  0  0  0  0  0
    4.6254    1.9561    0.0000 H   0  0  0  0  0  0  0  0  0  0  0  0
    5.2566    2.6397    0.0000 H   0  0  0  0  0  0  0  0  0  0  0  0
    7.1091    2.7687    0.0000 H   0  0  0  0  0  0  0  0  0  0  0  0
    8.1470    1.2289    0.0000 H   0  0  0  0  0  0  0  0  0  0  0  0
    7.3324   -0.4399    0.0000 H   0  0  0  0  0  0  0  0  0  0  0  0
    5.4799   -0.5689    0.0000 H   0  0  0  0  0  0  0  0  0  0  0  0
    6.3542    1.5119    0.0000 H   0  0  0  0  0  0  0  0  0  0  0  0
    5.6010    3.2052    0.0000 H   0  0  0  0  0  0  0  0  0  0  0  0
    6.4664    2.5760    0.0000 H   0  0  0  0  0  0  0  0  0  0  0  0
  1  2  1  0  0  0  0
  1 29  1  0  0  0  0
  1 30  1  0  0  0  0
  1 31  1  0  0  0  0
  2 28  1  0  0  0  0
  3  2  1  1  0  0  0
  3  4  1  0  0  0  0
  3 21  1  0  0  0  0
  3 22  1  0  0  0  0
  4  5  1  0  0  0  0
  4 32  1  0  0  0  0
  4 33  1  0  0  0  0
  5  6  1  0  0  0  0
  5 34  1  0  0  0  0
  5 35  1  0  0  0  0
  6  7  1  6  0  0  0
  6 11  1  0  0  0  0
  6 20  1  0  0  0  0
  7  8  1  0  0  0  0
  8  9  1  0  0  0  0
  8 36  1  0  0  0  0
  8 37  1  0  0  0  0
  9 10  1  0  0  0  0
  9 38  1  0  0  0  0
  9 39  1  0  0  0  0
 10 11  2  0  0  0  0
 10 14  1  0  0  0  0
 11 12  1  0  0  0  0
 12 13  1  0  0  0  0
 12 40  1  0  0  0  0
 13 14  1  0  0  0  0
 13 18  2  0  0  0  0
 14 15  2  0  0  0  0
 15 16  1  0  0  0  0
 15 41  1  0  0  0  0
 16 17  2  0  0  0  0
 16 19  1  0  0  0  0
 17 18  1  0  0  0  0
 17 42  1  0  0  0  0
 18 43  1  0  0  0  0
 20 21  1  0  0  0  0
 20 44  1  0  0  0  0
 20 45  1  0  0  0  0
 21 46  1  0  0  0  0
 21 47  1  0  0  0  0
 22 23  2  0  0  0  0
 22 27  1  0  0  0  0
 23 24  1  0  0  0  0
 23 48  1  0  0  0  0
 24 25  2  0  0  0  0
 24 49  1  0  0  0  0
 25 26  1  0  0  0  0
 25 50  1  0  0  0  0
 26 27  2  0  0  0  0
 26 51  1  0  0  0  0
 27 52  1  0  0  0  0
 28 53  1  0  0  0  0
 28 54  1  0  0  0  0
 28 55  1  0  0  0  0
M  END
>  <DRUGBANK_ID>
DB12830

>  <COMMON_NAME>
Cebranopadol

>  <CAS_NUMBER>
863513-91-1

>  <UNII>
7GDW9S3GN3

>  <SYNONYMS>
Cebranopadol

$$$$
