
 OpenBabel10282417072D

 70 75  0  0  0  0  0  0  0  0999 V2000
    2.0701   -6.3146    0.0000 C   0  0  0  0  0  0  0  0  0  0  0  0
    2.7845   -6.7271    0.0000 C   0  0  0  0  0  0  0  0  0  0  0  0
    2.7845   -7.5521    0.0000 C   0  0  0  0  0  0  0  0  0  0  0  0
    3.4990   -6.3146    0.0000 O   0  0  0  0  0  0  0  0  0  0  0  0
    3.4990   -5.4896    0.0000 C   0  0  0  0  0  0  0  0  0  0  0  0
    2.7845   -5.0771    0.0000 C   0  0  0  0  0  0  0  0  0  0  0  0
    2.7845   -4.2521    0.0000 C   0  0  0  0  0  0  0  0  0  0  0  0
    3.4990   -3.8396    0.0000 C   0  0  0  0  0  0  0  0  0  0  0  0
    3.4990   -3.0146    0.0000 C   0  0  0  0  0  0  0  0  0  0  0  0
    4.2135   -2.6021    0.0000 O   0  0  0  0  0  0  0  0  0  0  0  0
    2.7845   -2.6021    0.0000 N   0  0  0  0  0  0  0  0  0  0  0  0
    2.7845   -1.7771    0.0000 C   0  0  0  0  0  0  0  0  0  0  0  0
    3.4990   -1.3646    0.0000 C   0  0  0  0  0  0  0  0  0  0  0  0
    3.4990   -0.5396    0.0000 C   0  0  0  0  0  0  0  0  0  0  0  0
    2.7845   -0.1271    0.0000 C   0  0  0  0  0  0  0  0  0  0  0  0
    2.7845    0.6979    0.0000 O   0  0  0  0  0  0  0  0  0  0  0  0
    2.0701    1.1104    0.0000 C   0  0  0  0  0  0  0  0  0  0  0  0
    1.3556    0.6979    0.0000 C   0  0  0  0  0  0  0  0  0  0  0  0
    0.6411    1.1104    0.0000 C   0  0  0  0  0  0  0  0  0  0  0  0
   -0.1435    0.8555    0.0000 C   0  0  0  0  0  0  0  0  0  0  0  0
   -0.6284    1.5229    0.0000 N   0  0  0  0  0  0  0  0  0  0  0  0
   -0.1435    2.1904    0.0000 N   0  0  0  0  0  0  0  0  0  0  0  0
   -0.3984    2.9750    0.0000 C   0  0  0  0  0  0  0  0  0  0  0  0
    0.6411    1.9354    0.0000 C   0  0  0  0  0  0  0  0  0  0  0  0
    1.3556    2.3479    0.0000 C   0  0  0  0  0  0  0  0  0  0  0  0
    2.0701    1.9354    0.0000 C   0  0  0  0  0  0  0  0  0  0  0  0
    2.7845    2.3479    0.0000 C   0  0  0  0  0  0  0  0  0  0  0  0
    2.8708    3.1684    0.0000 C   0  0  0  0  0  0  0  0  0  0  0  0
    3.6777    3.3400    0.0000 N   0  0  0  0  0  0  0  0  0  0  0  0
    4.0902    2.6255    0.0000 N   0  0  0  0  0  0  0  0  0  0  0  0
    3.5382    2.0124    0.0000 C   0  0  0  0  0  0  0  0  0  0  0  0
    2.0701   -0.5396    0.0000 C   0  0  0  0  0  0  0  0  0  0  0  0
    1.3556   -0.1271    0.0000 F   0  0  0  0  0  0  0  0  0  0  0  0
    2.0701   -1.3646    0.0000 C   0  0  0  0  0  0  0  0  0  0  0  0
    4.2135   -4.2521    0.0000 C   0  0  0  0  0  0  0  0  0  0  0  0
    4.9279   -3.8396    0.0000 O   0  0  0  0  0  0  0  0  0  0  0  0
    4.2135   -5.0771    0.0000 N   0  0  0  0  0  0  0  0  0  0  0  0
    4.9279   -5.4896    0.0000 C   0  0  0  0  0  0  0  0  0  0  0  0
    5.6424   -5.0771    0.0000 C   0  0  0  0  0  0  0  0  0  0  0  0
    6.3569   -5.4896    0.0000 C   0  0  0  0  0  0  0  0  0  0  0  0
    6.3569   -6.3146    0.0000 C   0  0  0  0  0  0  0  0  0  0  0  0
    7.0714   -6.7271    0.0000 F   0  0  0  0  0  0  0  0  0  0  0  0
    5.6424   -6.7271    0.0000 C   0  0  0  0  0  0  0  0  0  0  0  0
    4.9279   -6.3146    0.0000 C   0  0  0  0  0  0  0  0  0  0  0  0
    2.0701   -5.2446    0.0000 H   0  0  0  0  0  0  0  0  0  0  0  0
    1.1434   -6.8496    0.0000 H   0  0  0  0  0  0  0  0  0  0  0  0
    1.1435   -5.7796    0.0000 H   0  0  0  0  0  0  0  0  0  0  0  0
    3.7111   -7.2621    0.0000 H   0  0  0  0  0  0  0  0  0  0  0  0
    1.8579   -8.0871    0.0000 H   0  0  0  0  0  0  0  0  0  0  0  0
    3.7111   -8.0871    0.0000 H   0  0  0  0  0  0  0  0  0  0  0  0
    2.7845   -8.6221    0.0000 H   0  0  0  0  0  0  0  0  0  0  0  0
    1.8908   -5.5931    0.0000 H   0  0  0  0  0  0  0  0  0  0  0  0
    1.8908   -3.7361    0.0000 H   0  0  0  0  0  0  0  0  0  0  0  0
    1.9319   -3.0944    0.0000 H   0  0  0  0  0  0  0  0  0  0  0  0
    4.3927   -1.8806    0.0000 H   0  0  0  0  0  0  0  0  0  0  0  0
    4.3927   -0.0236    0.0000 H   0  0  0  0  0  0  0  0  0  0  0  0
    1.3556   -0.3341    0.0000 H   0  0  0  0  0  0  0  0  0  0  0  0
   -0.4624   -0.1260    0.0000 H   0  0  0  0  0  0  0  0  0  0  0  0
    0.3176    3.7701    0.0000 H   0  0  0  0  0  0  0  0  0  0  0  0
   -1.4450    3.1975    0.0000 H   0  0  0  0  0  0  0  0  0  0  0  0
   -0.7290    3.9926    0.0000 H   0  0  0  0  0  0  0  0  0  0  0  0
    1.3556    3.3799    0.0000 H   0  0  0  0  0  0  0  0  0  0  0  0
    2.1039    3.8589    0.0000 H   0  0  0  0  0  0  0  0  0  0  0  0
    5.0693    2.5226    0.0000 H   0  0  0  0  0  0  0  0  0  0  0  0
    3.7528    1.0030    0.0000 H   0  0  0  0  0  0  0  0  0  0  0  0
    1.1764   -1.8806    0.0000 H   0  0  0  0  0  0  0  0  0  0  0  0
    5.6424   -4.0451    0.0000 H   0  0  0  0  0  0  0  0  0  0  0  0
    7.2506   -4.9736    0.0000 H   0  0  0  0  0  0  0  0  0  0  0  0
    5.6424   -7.7591    0.0000 H   0  0  0  0  0  0  0  0  0  0  0  0
    4.0342   -6.8306    0.0000 H   0  0  0  0  0  0  0  0  0  0  0  0
  1  2  1  0  0  0  0
  1 45  1  0  0  0  0
  1 46  1  0  0  0  0
  1 47  1  0  0  0  0
  2  3  1  0  0  0  0
  2  4  1  0  0  0  0
  2 48  1  0  0  0  0
  3 49  1  0  0  0  0
  3 50  1  0  0  0  0
  3 51  1  0  0  0  0
  4  5  1  0  0  0  0
  5  6  2  0  0  0  0
  5 37  1  0  0  0  0
  6  7  1  0  0  0  0
  6 52  1  0  0  0  0
  7  8  2  0  0  0  0
  7 53  1  0  0  0  0
  8  9  1  0  0  0  0
  8 35  1  0  0  0  0
  9 10  2  0  0  0  0
  9 11  1  0  0  0  0
 11 12  1  0  0  0  0
 11 54  1  0  0  0  0
 12 13  2  0  0  0  0
 12 34  1  0  0  0  0
 13 14  1  0  0  0  0
 13 55  1  0  0  0  0
 14 15  2  0  0  0  0
 14 56  1  0  0  0  0
 15 16  1  0  0  0  0
 15 32  1  0  0  0  0
 16 17  1  0  0  0  0
 17 18  1  0  0  0  0
 17 26  2  0  0  0  0
 18 19  2  0  0  0  0
 18 57  1  0  0  0  0
 19 20  1  0  0  0  0
 19 24  1  0  0  0  0
 20 21  2  0  0  0  0
 20 58  1  0  0  0  0
 21 22  1  0  0  0  0
 22 23  1  0  0  0  0
 22 24  1  0  0  0  0
 23 59  1  0  0  0  0
 23 60  1  0  0  0  0
 23 61  1  0  0  0  0
 24 25  2  0  0  0  0
 25 26  1  0  0  0  0
 25 62  1  0  0  0  0
 26 27  1  0  0  0  0
 27 28  1  0  0  0  0
 27 31  2  0  0  0  0
 28 29  2  0  0  0  0
 28 63  1  0  0  0  0
 29 30  1  0  0  0  0
 30 31  1  0  0  0  0
 30 64  1  0  0  0  0
 31 65  1  0  0  0  0
 32 33  1  0  0  0  0
 32 34  2  0  0  0  0
 34 66  1  0  0  0  0
 35 36  2  0  0  0  0
 35 37  1  0  0  0  0
 37 38  1  0  0  0  0
 38 39  2  0  0  0  0
 38 44  1  0  0  0  0
 39 40  1  0  0  0  0
 39 67  1  0  0  0  0
 40 41  2  0  0  0  0
 40 68  1  0  0  0  0
 41 42  1  0  0  0  0
 41 43  1  0  0  0  0
 43 44  2  0  0  0  0
 43 69  1  0  0  0  0
 44 70  1  0  0  0  0
M  END
>  <DRUGBANK_ID>
DB18306

>  <COMMON_NAME>
TSN-084

>  <CAS_NUMBER>
2412309-60-3

>  <UNII>
9FJ3MBL7XW

>  <SYNONYMS>
3-PYRIDINECARBOXAMIDE, N-(3-FLUORO-4-((1-METHYL-6-(1H-PYRAZOL-4-YL)-1H-INDAZOL-5-YL)OXY)PHENYL)-1-(4-FLUOROPHENYL)-1,2-DIHYDRO-6-(1-METHYLETHOXY)-2-OXO-; N-[3-fluoro-4-[[1-methyl-6-(1H-pyrazol-4-yl)-1H-indazol-5-yl]oxy]phenyl]-1-(4-fluorophenyl)-1,2-dihydro-6-(1-methylethoxy)-2-oxo-3-pyridinecarboxamide

$$$$
