
 OpenBabel10282417072D

 30 30  0  0  1  0  0  0  0  0999 V2000
    2.0322    2.8382    0.0000 F   0  0  0  0  0  0  0  0  0  0  0  0
    3.3376    2.2570    0.0000 F   0  0  0  0  0  0  0  0  0  0  0  0
    4.5311   -0.2899    0.0000 O   0  0  0  0  0  0  0  0  0  0  0  0
    1.6500   -1.3450    0.0000 O   0  0  0  0  0  0  0  0  0  0  0  0
    3.0791   -0.5199    0.0000 N   0  0  0  0  0  0  0  0  0  0  0  0
    2.3645   -2.5825    0.0000 N   0  0  0  0  0  0  0  0  0  0  0  0
    2.6666    0.7496    0.0000 C   0  0  1  0  0  0  0  0  0  0  0  0
    2.4115   -0.0350    0.0000 C   0  0  0  0  0  0  0  0  0  0  0  0
    3.4916    0.7496    0.0000 C   0  0  0  0  0  0  0  0  0  0  0  0
    3.0791   -1.3450    0.0000 C   0  0  1  0  0  0  0  0  0  0  0  0
    3.7465   -0.0350    0.0000 C   0  0  0  0  0  0  0  0  0  0  0  0
    3.7935   -1.7575    0.0000 C   0  0  0  0  0  0  0  0  0  0  0  0
    2.1816    1.4171    0.0000 C   0  0  0  0  0  0  0  0  0  0  0  0
    2.3645   -1.7575    0.0000 C   0  0  0  0  0  0  0  0  0  0  0  0
    3.7935   -2.5825    0.0000 C   0  0  0  0  0  0  0  0  0  0  0  0
    2.5171    2.1708    0.0000 C   0  0  0  0  0  0  0  0  0  0  0  0
    1.5119   -3.0748    0.0000 H   0  0  0  0  0  0  0  0  0  0  0  0
    3.2171   -3.0747    0.0000 H   0  0  0  0  0  0  0  0  0  0  0  0
    1.6098    0.5823    0.0000 H   0  0  0  0  0  0  0  0  0  0  0  0
    1.3939   -0.3656    0.0000 H   0  0  0  0  0  0  0  0  0  0  0  0
    1.6550    0.7217    0.0000 H   0  0  0  0  0  0  0  0  0  0  0  0
    4.1205    1.6152    0.0000 H   0  0  0  0  0  0  0  0  0  0  0  0
    4.5484    0.5822    0.0000 H   0  0  0  0  0  0  0  0  0  0  0  0
    4.0058   -0.8100    0.0000 H   0  0  0  0  0  0  0  0  0  0  0  0
    4.7202   -1.2225    0.0000 H   0  0  0  0  0  0  0  0  0  0  0  0
    4.7201   -2.2925    0.0000 H   0  0  0  0  0  0  0  0  0  0  0  0
    1.1553    1.3092    0.0000 H   0  0  0  0  0  0  0  0  0  0  0  0
    2.8669   -3.1175    0.0000 H   0  0  0  0  0  0  0  0  0  0  0  0
    4.7201   -3.1175    0.0000 H   0  0  0  0  0  0  0  0  0  0  0  0
    3.7935   -3.6525    0.0000 H   0  0  0  0  0  0  0  0  0  0  0  0
  1 16  1  0  0  0  0
  2 16  1  0  0  0  0
  3 11  2  0  0  0  0
  4 14  2  0  0  0  0
  5  8  1  0  0  0  0
  5 10  1  0  0  0  0
  5 11  1  0  0  0  0
  6 14  1  0  0  0  0
  6 17  1  0  0  0  0
  6 18  1  0  0  0  0
  7  8  1  0  0  0  0
  7  9  1  0  0  0  0
  7 13  1  0  0  0  0
  7 19  1  1  0  0  0
  8 20  1  0  0  0  0
  8 21  1  0  0  0  0
  9 11  1  0  0  0  0
  9 22  1  0  0  0  0
  9 23  1  0  0  0  0
 10 12  1  0  0  0  0
 10 14  1  0  0  0  0
 10 24  1  6  0  0  0
 12 15  1  0  0  0  0
 12 25  1  0  0  0  0
 12 26  1  0  0  0  0
 13 16  2  0  0  0  0
 13 27  1  0  0  0  0
 15 28  1  0  0  0  0
 15 29  1  0  0  0  0
 15 30  1  0  0  0  0
M  END
>  <DRUGBANK_ID>
DB05885

>  <SECONDARY_ACCESSION_NUMBERS>
DB12175

>  <COMMON_NAME>
Seletracetam

>  <CAS_NUMBER>
357336-74-4

>  <UNII>
RFR2CH3QZK

>  <SYNONYMS>
(2S)-2-((4S)-4-(2,2-Difluoroethenyl)-2-oxopyrrolidin-1-yl)butanamide; Seletracetam

$$$$
