BTQ
 OpenBabel10282417072D

 32 33  0  0  0  0  0  0  0  0999 V2000
   -2.8965   -0.2346    0.0000 C   0  0  0  0  0  0  0  0  0  0  0  0
   -3.6110    0.1779    0.0000 O   0  0  0  0  0  0  0  0  0  0  0  0
   -2.8965   -1.0596    0.0000 O   0  0  0  0  0  0  0  0  0  0  0  0
   -2.1821    0.1779    0.0000 C   0  0  0  0  0  0  0  0  0  0  0  0
   -1.4676   -0.2346    0.0000 C   0  0  0  0  0  0  0  0  0  0  0  0
   -0.7531    0.1779    0.0000 C   0  0  0  0  0  0  0  0  0  0  0  0
   -0.0387   -0.2346    0.0000 C   0  0  0  0  0  0  0  0  0  0  0  0
    0.6758    0.1779    0.0000 C   0  0  1  0  0  0  0  0  0  0  0  0
    0.7620    0.9983    0.0000 S   0  0  0  0  0  0  0  0  0  0  0  0
    1.5690    1.1699    0.0000 C   0  0  0  0  0  0  0  0  0  0  0  0
    1.9815    0.4554    0.0000 C   0  0  2  0  0  0  0  0  0  0  0  0
    2.7352    0.1198    0.0000 N   0  0  0  0  0  0  0  0  0  0  0  0
    2.6490   -0.7006    0.0000 C   0  0  0  0  0  0  0  0  0  0  0  0
    3.2621   -1.2527    0.0000 O   0  0  0  0  0  0  0  0  0  0  0  0
    1.8420   -0.8722    0.0000 N   0  0  0  0  0  0  0  0  0  0  0  0
    1.4295   -0.1577    0.0000 C   0  0  2  0  0  0  0  0  0  0  0  0
    0.1861    0.4959    0.0000 H   0  0  0  0  0  0  0  0  0  0  0  0
    2.3722    0.8893    0.0000 H   0  0  0  0  0  0  0  0  0  0  0  0
    1.0388   -0.5916    0.0000 H   0  0  0  0  0  0  0  0  0  0  0  0
   -3.7080   -1.5281    0.0000 H   0  0  0  0  0  0  0  0  0  0  0  0
   -2.1821    1.2479    0.0000 H   0  0  0  0  0  0  0  0  0  0  0  0
   -1.2555    0.7129    0.0000 H   0  0  0  0  0  0  0  0  0  0  0  0
   -1.4676   -1.3046    0.0000 H   0  0  0  0  0  0  0  0  0  0  0  0
   -0.5410   -0.7696    0.0000 H   0  0  0  0  0  0  0  0  0  0  0  0
   -0.7531    1.2479    0.0000 H   0  0  0  0  0  0  0  0  0  0  0  0
    0.1736    0.7129    0.0000 H   0  0  0  0  0  0  0  0  0  0  0  0
   -0.0387   -1.3046    0.0000 H   0  0  0  0  0  0  0  0  0  0  0  0
    0.8879   -0.7696    0.0000 H   0  0  0  0  0  0  0  0  0  0  0  0
    2.0042    2.1474    0.0000 H   0  0  0  0  0  0  0  0  0  0  0  0
    2.6375    1.2259    0.0000 H   0  0  0  0  0  0  0  0  0  0  0  0
    3.5878    0.6120    0.0000 H   0  0  0  0  0  0  0  0  0  0  0  0
    1.4416   -1.7716    0.0000 H   0  0  0  0  0  0  0  0  0  0  0  0
  1  2  2  0  0  0  0
  1  3  1  0  0  0  0
  1  4  1  0  0  0  0
  3 20  1  0  0  0  0
  4  5  1  0  0  0  0
  4 21  1  0  0  0  0
  4 22  1  0  0  0  0
  5  6  1  0  0  0  0
  5 23  1  0  0  0  0
  5 24  1  0  0  0  0
  6  7  1  0  0  0  0
  6 25  1  0  0  0  0
  6 26  1  0  0  0  0
  7 27  1  0  0  0  0
  7 28  1  0  0  0  0
  8  7  1  0  0  0  0
  8  9  1  0  0  0  0
  8 16  1  0  0  0  0
  8 17  1  6  0  0  0
  9 10  1  0  0  0  0
 10 11  1  0  0  0  0
 10 29  1  0  0  0  0
 10 30  1  0  0  0  0
 11 12  1  0  0  0  0
 11 16  1  0  0  0  0
 11 18  1  1  0  0  0
 12 13  1  0  0  0  0
 12 31  1  0  0  0  0
 13 14  2  0  0  0  0
 13 15  1  0  0  0  0
 15 16  1  0  0  0  0
 15 32  1  0  0  0  0
 16 19  1  1  0  0  0
M  END
>  <DRUGBANK_ID>
DB04650

>  <COMMON_NAME>
5-[(3AS,4R,6AR)-2-OXOHEXAHYDRO-1H-THIENO[3,4-D]IMIDAZOL-4-YL]PENTANOIC ACID

$$$$
