
 OpenBabel10282417072D

 87 89  0  0  0  0  0  0  0  0999 V2000
   -2.8173   -2.2538    0.0000 C   0  0  2  0  0  0  0  0  0  0  0  0
   -2.8173   -3.0789    0.0000 C   0  0  1  0  0  0  0  0  0  0  0  0
   -3.5319   -1.8414    0.0000 O   0  0  0  0  0  0  0  0  0  0  0  0
   -3.5319   -3.4913    0.0000 C   0  0  2  0  0  0  0  0  0  0  0  0
   -4.2463   -2.2538    0.0000 C   0  0  1  0  0  0  0  0  0  0  0  0
   -4.2463   -3.0789    0.0000 C   0  0  1  0  0  0  0  0  0  0  0  0
   -2.1029   -1.8414    0.0000 O   0  0  0  0  0  0  0  0  0  0  0  0
   -2.1029   -3.4913    0.0000 O   0  0  0  0  0  0  0  0  0  0  0  0
   -3.5319   -4.3163    0.0000 O   0  0  0  0  0  0  0  0  0  0  0  0
   -4.9607   -3.4913    0.0000 O   0  0  0  0  0  0  0  0  0  0  0  0
   -4.9607   -1.8414    0.0000 C   0  0  0  0  0  0  0  0  0  0  0  0
   -5.6752   -2.2538    0.0000 O   0  0  0  0  0  0  0  0  0  0  0  0
    0.0404   -0.6040    0.0000 C   0  0  2  0  0  0  0  0  0  0  0  0
    0.0404   -1.4289    0.0000 C   0  0  1  0  0  0  0  0  0  0  0  0
   -0.6741   -0.1915    0.0000 O   0  0  0  0  0  0  0  0  0  0  0  0
   -0.6741   -1.8414    0.0000 C   0  0  2  0  0  0  0  0  0  0  0  0
   -1.3884   -0.6040    0.0000 C   0  0  1  0  0  0  0  0  0  0  0  0
   -1.3884   -1.4289    0.0000 C   0  0  1  0  0  0  0  0  0  0  0  0
    0.7548   -0.1915    0.0000 O   0  0  0  0  0  0  0  0  0  0  0  0
    0.7548   -1.8414    0.0000 O   0  0  0  0  0  0  0  0  0  0  0  0
   -0.6741   -2.6664    0.0000 O   0  0  0  0  0  0  0  0  0  0  0  0
   -2.1029   -0.1915    0.0000 C   0  0  0  0  0  0  0  0  0  0  0  0
   -2.8173   -0.6040    0.0000 O   0  0  0  0  0  0  0  0  0  0  0  0
    2.8982    1.0459    0.0000 C   0  0  2  0  0  0  0  0  0  0  0  0
    2.8982    0.2210    0.0000 C   0  0  1  0  0  0  0  0  0  0  0  0
    2.1838    1.4584    0.0000 O   0  0  0  0  0  0  0  0  0  0  0  0
    2.1838   -0.1915    0.0000 C   0  0  2  0  0  0  0  0  0  0  0  0
    1.4693    1.0459    0.0000 C   0  0  1  0  0  0  0  0  0  0  0  0
    1.4693    0.2210    0.0000 C   0  0  1  0  0  0  0  0  0  0  0  0
    3.6127    1.4584    0.0000 O   0  0  0  0  0  0  0  0  0  0  0  0
    3.6127   -0.1915    0.0000 O   0  0  0  0  0  0  0  0  0  0  0  0
    2.1837   -1.0165    0.0000 O   0  0  0  0  0  0  0  0  0  0  0  0
    0.7548    1.4584    0.0000 C   0  0  0  0  0  0  0  0  0  0  0  0
    0.0404    1.0459    0.0000 O   0  0  0  0  0  0  0  0  0  0  0  0
    4.4377    2.8873    0.0000 C   0  0  2  0  0  0  0  0  0  0  0  0
    4.8502    2.1730    0.0000 C   0  0  2  0  0  0  0  0  0  0  0  0
    4.4377    1.4584    0.0000 C   0  0  1  0  0  0  0  0  0  0  0  0
    4.8502    0.7439    0.0000 C   0  0  1  0  0  0  0  0  0  0  0  0
    4.4377    0.0295    0.0000 C   0  0  0  0  0  0  0  0  0  0  0  0
    4.8502    3.6019    0.0000 C   0  0  0  0  0  0  0  0  0  0  0  0
    5.6752    2.1730    0.0000 O   0  0  0  0  0  0  0  0  0  0  0  0
    5.6752    0.7439    0.0000 O   0  0  0  0  0  0  0  0  0  0  0  0
    4.8502   -0.6848    0.0000 O   0  0  0  0  0  0  0  0  0  0  0  0
    4.4377    4.3163    0.0000 O   0  0  0  0  0  0  0  0  0  0  0  0
    3.6127    2.8873    0.0000 O   0  0  0  0  0  0  0  0  0  0  0  0
   -1.8907   -2.7888    0.0000 H   0  0  0  0  0  0  0  0  0  0  0  0
   -1.8907   -2.5439    0.0000 H   0  0  0  0  0  0  0  0  0  0  0  0
   -2.6053   -4.0264    0.0000 H   0  0  0  0  0  0  0  0  0  0  0  0
   -4.2463   -1.1838    0.0000 H   0  0  0  0  0  0  0  0  0  0  0  0
   -4.2463   -4.1489    0.0000 H   0  0  0  0  0  0  0  0  0  0  0  0
   -2.1028   -4.4613    0.0000 H   0  0  0  0  0  0  0  0  0  0  0  0
   -4.3719   -4.8013    0.0000 H   0  0  0  0  0  0  0  0  0  0  0  0
   -5.8007   -3.0062    0.0000 H   0  0  0  0  0  0  0  0  0  0  0  0
   -4.9607   -0.7714    0.0000 H   0  0  0  0  0  0  0  0  0  0  0  0
   -5.8873   -1.3063    0.0000 H   0  0  0  0  0  0  0  0  0  0  0  0
   -6.5152   -1.7687    0.0000 H   0  0  0  0  0  0  0  0  0  0  0  0
    0.9671   -1.1390    0.0000 H   0  0  0  0  0  0  0  0  0  0  0  0
    0.9671   -0.8939    0.0000 H   0  0  0  0  0  0  0  0  0  0  0  0
    0.2525   -2.3764    0.0000 H   0  0  0  0  0  0  0  0  0  0  0  0
   -1.3885    0.4660    0.0000 H   0  0  0  0  0  0  0  0  0  0  0  0
   -1.3885   -2.4989    0.0000 H   0  0  0  0  0  0  0  0  0  0  0  0
    0.7548   -2.8114    0.0000 H   0  0  0  0  0  0  0  0  0  0  0  0
   -1.5141   -3.1514    0.0000 H   0  0  0  0  0  0  0  0  0  0  0  0
   -2.1029    0.8785    0.0000 H   0  0  0  0  0  0  0  0  0  0  0  0
   -3.0296    0.3435    0.0000 H   0  0  0  0  0  0  0  0  0  0  0  0
   -3.6574   -0.1190    0.0000 H   0  0  0  0  0  0  0  0  0  0  0  0
    3.8248    0.5109    0.0000 H   0  0  0  0  0  0  0  0  0  0  0  0
    3.8248    0.7560    0.0000 H   0  0  0  0  0  0  0  0  0  0  0  0
    3.1104   -0.7265    0.0000 H   0  0  0  0  0  0  0  0  0  0  0  0
    1.4693    2.1159    0.0000 H   0  0  0  0  0  0  0  0  0  0  0  0
    1.4693   -0.8490    0.0000 H   0  0  0  0  0  0  0  0  0  0  0  0
    3.6127   -1.1615    0.0000 H   0  0  0  0  0  0  0  0  0  0  0  0
    1.3436   -1.5014    0.0000 H   0  0  0  0  0  0  0  0  0  0  0  0
    0.7548    2.5284    0.0000 H   0  0  0  0  0  0  0  0  0  0  0  0
   -0.1719    1.9934    0.0000 H   0  0  0  0  0  0  0  0  0  0  0  0
   -0.7997    1.5309    0.0000 H   0  0  0  0  0  0  0  0  0  0  0  0
    3.9027    1.9606    0.0000 H   0  0  0  0  0  0  0  0  0  0  0  0
    5.3852    3.0997    0.0000 H   0  0  0  0  0  0  0  0  0  0  0  0
    3.9027    2.3850    0.0000 H   0  0  0  0  0  0  0  0  0  0  0  0
    5.3852    1.6705    0.0000 H   0  0  0  0  0  0  0  0  0  0  0  0
    3.3677    0.0295    0.0000 H   0  0  0  0  0  0  0  0  0  0  0  0
    3.9028   -0.8972    0.0000 H   0  0  0  0  0  0  0  0  0  0  0  0
    5.8822    3.6020    0.0000 H   0  0  0  0  0  0  0  0  0  0  0  0
    6.1602    1.3330    0.0000 H   0  0  0  0  0  0  0  0  0  0  0  0
    6.1602   -0.0961    0.0000 H   0  0  0  0  0  0  0  0  0  0  0  0
    4.3653   -1.5249    0.0000 H   0  0  0  0  0  0  0  0  0  0  0  0
    3.1277    3.7273    0.0000 H   0  0  0  0  0  0  0  0  0  0  0  0
  1  2  1  0  0  0  0
  1  3  1  0  0  0  0
  1  7  1  0  0  0  0
  1 46  1  1  0  0  0
  2  4  1  0  0  0  0
  2  8  1  0  0  0  0
  2 47  1  1  0  0  0
  3  5  1  0  0  0  0
  4  6  1  0  0  0  0
  4  9  1  0  0  0  0
  4 48  1  6  0  0  0
  5  6  1  0  0  0  0
  5 11  1  0  0  0  0
  5 49  1  6  0  0  0
  6 10  1  0  0  0  0
  6 50  1  1  0  0  0
  8 51  1  0  0  0  0
  9 52  1  0  0  0  0
 10 53  1  0  0  0  0
 11 54  1  0  0  0  0
 11 55  1  0  0  0  0
 12 11  1  0  0  0  0
 12 56  1  0  0  0  0
 13 14  1  0  0  0  0
 13 15  1  0  0  0  0
 13 19  1  0  0  0  0
 13 57  1  1  0  0  0
 14 16  1  0  0  0  0
 14 20  1  0  0  0  0
 14 58  1  1  0  0  0
 15 17  1  0  0  0  0
 16 18  1  0  0  0  0
 16 21  1  0  0  0  0
 16 59  1  6  0  0  0
 17 18  1  0  0  0  0
 17 22  1  0  0  0  0
 17 60  1  6  0  0  0
 18  7  1  0  0  0  0
 18 61  1  1  0  0  0
 20 62  1  0  0  0  0
 21 63  1  0  0  0  0
 22 64  1  0  0  0  0
 22 65  1  0  0  0  0
 23 22  1  0  0  0  0
 23 66  1  0  0  0  0
 24 25  1  0  0  0  0
 24 26  1  0  0  0  0
 24 30  1  0  0  0  0
 24 67  1  1  0  0  0
 25 27  1  0  0  0  0
 25 31  1  0  0  0  0
 25 68  1  1  0  0  0
 26 28  1  0  0  0  0
 27 29  1  0  0  0  0
 27 32  1  0  0  0  0
 27 69  1  6  0  0  0
 28 29  1  0  0  0  0
 28 33  1  0  0  0  0
 28 70  1  6  0  0  0
 29 19  1  0  0  0  0
 29 71  1  1  0  0  0
 31 72  1  0  0  0  0
 32 73  1  0  0  0  0
 33 74  1  0  0  0  0
 33 75  1  0  0  0  0
 34 33  1  0  0  0  0
 34 76  1  0  0  0  0
 35 45  1  0  0  0  0
 35 77  1  6  0  0  0
 36 35  1  0  0  0  0
 36 41  1  0  0  0  0
 36 78  1  6  0  0  0
 37 36  1  0  0  0  0
 37 30  1  0  0  0  0
 37 79  1  6  0  0  0
 38 37  1  0  0  0  0
 38 42  1  0  0  0  0
 38 80  1  1  0  0  0
 39 38  1  0  0  0  0
 39 81  1  0  0  0  0
 39 82  1  0  0  0  0
 40 35  1  0  0  0  0
 40 83  1  0  0  0  0
 41 84  1  0  0  0  0
 42 85  1  0  0  0  0
 43 39  1  0  0  0  0
 43 86  1  0  0  0  0
 44 40  2  0  0  0  0
 45 87  1  0  0  0  0
M  END
>  <DRUGBANK_ID>
DB02237

>  <SECONDARY_ACCESSION_NUMBERS>
EXPT02252

>  <COMMON_NAME>
Maltotetraose

>  <CAS_NUMBER>
34612-38-9

>  <UNII>
BO88JLT87R

>  <SYNONYMS>
alpha-1,4-tetraglucose; Amylotetraose

$$$$
