809
 OpenBabel10282417072D

 41 42  0  0  1  0  0  0  0  0999 V2000
    4.2365   -0.8250    0.0000 O   0  0  0  0  0  0  0  0  0  0  0  0
    2.0930    0.4125    0.0000 O   0  0  0  0  0  0  0  0  0  0  0  0
    3.5220    0.4125    0.0000 N   0  0  0  0  0  0  0  0  0  0  0  0
    4.2365    3.3001    0.0000 N   0  0  0  0  0  0  0  0  0  0  0  0
    2.8075   -0.8250    0.0000 C   0  0  3  0  0  0  0  0  0  0  0  0
    3.5220   -0.4125    0.0000 C   0  0  0  0  0  0  0  0  0  0  0  0
    4.2365    0.8250    0.0000 C   0  0  0  0  0  0  0  0  0  0  0  0
    2.8075   -1.6500    0.0000 C   0  0  0  0  0  0  0  0  0  0  0  0
    2.8075    0.8250    0.0000 C   0  0  0  0  0  0  0  0  0  0  0  0
    2.0930   -0.4125    0.0000 C   0  0  0  0  0  0  0  0  0  0  0  0
    4.2365    1.6500    0.0000 C   0  0  0  0  0  0  0  0  0  0  0  0
    3.5220   -2.0625    0.0000 C   0  0  0  0  0  0  0  0  0  0  0  0
    2.0930   -2.0625    0.0000 C   0  0  0  0  0  0  0  0  0  0  0  0
    2.8075    1.6500    0.0000 C   0  0  0  0  0  0  0  0  0  0  0  0
    4.9509    2.0625    0.0000 C   0  0  0  0  0  0  0  0  0  0  0  0
    3.5220    2.0625    0.0000 C   0  0  0  0  0  0  0  0  0  0  0  0
    3.5220   -2.8876    0.0000 C   0  0  0  0  0  0  0  0  0  0  0  0
    2.0930   -2.8876    0.0000 C   0  0  0  0  0  0  0  0  0  0  0  0
    2.8075   -3.3001    0.0000 C   0  0  0  0  0  0  0  0  0  0  0  0
    4.9509    2.8876    0.0000 C   0  0  0  0  0  0  0  0  0  0  0  0
    3.5220    2.8876    0.0000 C   0  0  0  0  0  0  0  0  0  0  0  0
    2.9330    0.8975    0.0000 H   0  0  0  0  0  0  0  0  0  0  0  0
    3.7341   -1.3600    0.0000 H   0  0  0  0  0  0  0  0  0  0  0  0
    5.1631    0.2900    0.0000 H   0  0  0  0  0  0  0  0  0  0  0  0
    5.1631    1.3600    0.0000 H   0  0  0  0  0  0  0  0  0  0  0  0
    1.8809    0.2900    0.0000 H   0  0  0  0  0  0  0  0  0  0  0  0
    1.8809    1.3600    0.0000 H   0  0  0  0  0  0  0  0  0  0  0  0
    1.1664   -0.9475    0.0000 H   0  0  0  0  0  0  0  0  0  0  0  0
    2.0930   -1.4825    0.0000 H   0  0  0  0  0  0  0  0  0  0  0  0
    4.4157   -1.5465    0.0000 H   0  0  0  0  0  0  0  0  0  0  0  0
    1.1993   -1.5465    0.0000 H   0  0  0  0  0  0  0  0  0  0  0  0
    3.7341    2.1850    0.0000 H   0  0  0  0  0  0  0  0  0  0  0  0
    1.8809    2.1850    0.0000 H   0  0  0  0  0  0  0  0  0  0  0  0
    2.8075    2.7200    0.0000 H   0  0  0  0  0  0  0  0  0  0  0  0
    5.8446    1.5465    0.0000 H   0  0  0  0  0  0  0  0  0  0  0  0
    2.6283    1.5465    0.0000 H   0  0  0  0  0  0  0  0  0  0  0  0
    4.4157   -3.4036    0.0000 H   0  0  0  0  0  0  0  0  0  0  0  0
    1.1993   -3.4036    0.0000 H   0  0  0  0  0  0  0  0  0  0  0  0
    2.8075   -4.3321    0.0000 H   0  0  0  0  0  0  0  0  0  0  0  0
    5.8446    3.4036    0.0000 H   0  0  0  0  0  0  0  0  0  0  0  0
    2.6283    3.4036    0.0000 H   0  0  0  0  0  0  0  0  0  0  0  0
  1  6  2  0  0  0  0
  2 10  1  0  0  0  0
  2 22  1  0  0  0  0
  3  6  1  0  0  0  0
  3  7  1  0  0  0  0
  3  9  1  0  0  0  0
  4 20  2  0  0  0  0
  4 21  1  0  0  0  0
  5  6  1  0  0  0  0
  5  8  1  0  0  0  0
  5 10  1  0  0  0  0
  5 23  1  0  0  0  0
  7 11  1  0  0  0  0
  7 24  1  0  0  0  0
  7 25  1  0  0  0  0
  8 12  2  0  0  0  0
  8 13  1  0  0  0  0
  9 14  1  0  0  0  0
  9 26  1  0  0  0  0
  9 27  1  0  0  0  0
 10 28  1  0  0  0  0
 10 29  1  0  0  0  0
 11 15  2  0  0  0  0
 11 16  1  0  0  0  0
 12 17  1  0  0  0  0
 12 30  1  0  0  0  0
 13 18  2  0  0  0  0
 13 31  1  0  0  0  0
 14 32  1  0  0  0  0
 14 33  1  0  0  0  0
 14 34  1  0  0  0  0
 15 20  1  0  0  0  0
 15 35  1  0  0  0  0
 16 21  2  0  0  0  0
 16 36  1  0  0  0  0
 17 19  2  0  0  0  0
 17 37  1  0  0  0  0
 18 19  1  0  0  0  0
 18 38  1  0  0  0  0
 19 39  1  0  0  0  0
 20 40  1  0  0  0  0
 21 41  1  0  0  0  0
M  END
>  <DRUGBANK_ID>
DB00809

>  <SECONDARY_ACCESSION_NUMBERS>
APRD00287

>  <COMMON_NAME>
Tropicamide

>  <CAS_NUMBER>
1508-75-4

>  <UNII>
N0A3Z5XTC6

>  <SYNONYMS>
Tropicamid; Tropicamida; Tropicamide; Tropicamidum

$$$$
