
 OpenBabel10282417072D

142146  0  0  1  0  0  0  0  0999 V2000
    1.0746    7.3470    0.0000 C   0  0  0  0  0  0  0  0  0  0  0  0
    1.8816    7.1755    0.0000 C   0  0  0  0  0  0  0  0  0  0  0  0
    2.4336    7.7886    0.0000 C   0  0  0  0  0  0  0  0  0  0  0  0
    2.1365    6.3908    0.0000 C   0  0  0  0  0  0  0  0  0  0  0  0
    2.6886    7.0039    0.0000 N   0  0  0  0  0  0  0  0  0  0  0  0
    3.4955    6.8324    0.0000 C   0  0  0  0  0  0  0  0  0  0  0  0
    4.0476    7.4455    0.0000 O   0  0  0  0  0  0  0  0  0  0  0  0
    3.7505    6.0478    0.0000 C   0  0  2  0  0  0  0  0  0  0  0  0
    4.5574    5.8763    0.0000 C   0  0  0  0  0  0  0  0  0  0  0  0
    5.1095    6.4894    0.0000 C   0  0  0  0  0  0  0  0  0  0  0  0
    5.9164    6.3178    0.0000 C   0  0  0  0  0  0  0  0  0  0  0  0
    6.4685    6.9309    0.0000 C   0  0  0  0  0  0  0  0  0  0  0  0
    7.2755    6.7594    0.0000 N   0  0  0  0  0  0  0  0  0  0  0  0
    3.1984    5.4347    0.0000 N   0  0  0  0  0  0  0  0  0  0  0  0
    3.4534    4.6501    0.0000 C   0  0  0  0  0  0  0  0  0  0  0  0
    4.2603    4.4785    0.0000 O   0  0  0  0  0  0  0  0  0  0  0  0
    2.9013    4.0370    0.0000 C   0  0  0  0  0  0  0  0  0  0  0  0
    3.7083    3.8655    0.0000 C   0  0  0  0  0  0  0  0  0  0  0  0
    3.9633    3.0808    0.0000 C   0  0  0  0  0  0  0  0  0  0  0  0
    3.4783    2.4134    0.0000 C   0  0  0  0  0  0  0  0  0  0  0  0
    3.9633    1.7460    0.0000 N   0  0  0  0  0  0  0  0  0  0  0  0
    4.7479    2.0009    0.0000 C   0  0  0  0  0  0  0  0  0  0  0  0
    5.4623    1.5884    0.0000 C   0  0  0  0  0  0  0  0  0  0  0  0
    6.1768    2.0009    0.0000 C   0  0  0  0  0  0  0  0  0  0  0  0
    6.1768    2.8259    0.0000 C   0  0  0  0  0  0  0  0  0  0  0  0
    5.4623    3.2384    0.0000 C   0  0  0  0  0  0  0  0  0  0  0  0
    4.7479    2.8259    0.0000 C   0  0  0  0  0  0  0  0  0  0  0  0
    3.1563    3.2524    0.0000 N   0  0  0  0  0  0  0  0  0  0  0  0
    2.6043    2.6393    0.0000 C   0  0  0  0  0  0  0  0  0  0  0  0
    1.7973    2.8108    0.0000 O   0  0  0  0  0  0  0  0  0  0  0  0
    2.8592    1.8546    0.0000 C   0  0  2  0  0  0  0  0  0  0  0  0
    3.6662    1.6831    0.0000 C   0  0  0  0  0  0  0  0  0  0  0  0
    3.9211    0.8985    0.0000 C   0  0  0  0  0  0  0  0  0  0  0  0
    4.7281    0.7270    0.0000 C   0  0  0  0  0  0  0  0  0  0  0  0
    4.9830   -0.0577    0.0000 C   0  0  0  0  0  0  0  0  0  0  0  0
    4.4310   -0.6707    0.0000 C   0  0  0  0  0  0  0  0  0  0  0  0
    4.6859   -1.4554    0.0000 O   0  0  0  0  0  0  0  0  0  0  0  0
    3.6240   -0.4992    0.0000 C   0  0  0  0  0  0  0  0  0  0  0  0
    3.0720   -1.1123    0.0000 I   0  0  0  0  0  0  0  0  0  0  0  0
    3.3691    0.2854    0.0000 C   0  0  0  0  0  0  0  0  0  0  0  0
    2.3072    1.2415    0.0000 N   0  0  0  0  0  0  0  0  0  0  0  0
    1.5002    1.4131    0.0000 C   0  0  0  0  0  0  0  0  0  0  0  0
    0.9482    0.8000    0.0000 O   0  0  0  0  0  0  0  0  0  0  0  0
    1.2452    2.1977    0.0000 C   0  0  0  0  0  0  0  0  0  0  0  0
    0.4383    2.3692    0.0000 C   0  0  0  0  0  0  0  0  0  0  0  0
    0.1833    3.1538    0.0000 S   0  0  0  0  0  0  0  0  0  0  0  0
    0.7354    3.7669    0.0000 S   0  0  0  0  0  0  0  0  0  0  0  0
    0.4804    4.5516    0.0000 C   0  0  0  0  0  0  0  0  0  0  0  0
    1.0325    5.1647    0.0000 C   0  0  0  0  0  0  0  0  0  0  0  0
    0.7775    5.9493    0.0000 N   0  0  0  0  0  0  0  0  0  0  0  0
    1.3296    6.5624    0.0000 C   0  0  0  0  0  0  0  0  0  0  0  0
    0.6621    7.0473    0.0000 O   0  0  0  0  0  0  0  0  0  0  0  0
    0.2255    5.3362    0.0000 C   0  0  0  0  0  0  0  0  0  0  0  0
   -0.0294    6.1208    0.0000 O   0  0  0  0  0  0  0  0  0  0  0  0
   -0.3265    4.7231    0.0000 N   0  0  0  0  0  0  0  0  0  0  0  0
   -1.1335    4.8946    0.0000 C   0  0  1  0  0  0  0  0  0  0  0  0
   -1.3885    5.6792    0.0000 C   0  0  1  0  0  0  0  0  0  0  0  0
   -2.1954    5.8508    0.0000 C   0  0  0  0  0  0  0  0  0  0  0  0
   -0.8364    6.2923    0.0000 O   0  0  0  0  0  0  0  0  0  0  0  0
   -1.6855    4.2815    0.0000 C   0  0  0  0  0  0  0  0  0  0  0  0
   -1.4306    3.4969    0.0000 N   0  0  0  0  0  0  0  0  0  0  0  0
   -2.4925    4.4530    0.0000 O   0  0  0  0  0  0  0  0  0  0  0  0
    0.6932    1.5846    0.0000 N   0  0  0  0  0  0  0  0  0  0  0  0
   -0.1138    1.7561    0.0000 C   0  0  0  0  0  0  0  0  0  0  0  0
   -0.6658    1.1430    0.0000 O   0  0  0  0  0  0  0  0  0  0  0  0
   -0.3687    2.5408    0.0000 C   0  0  2  0  0  0  0  0  0  0  0  0
   -0.2825    3.3612    0.0000 N   0  0  0  0  0  0  0  0  0  0  0  0
   -1.1757    2.7123    0.0000 C   0  0  0  0  0  0  0  0  0  0  0  0
   -1.7277    2.0992    0.0000 C   0  0  0  0  0  0  0  0  0  0  0  0
   -2.5347    2.2707    0.0000 C   0  0  0  0  0  0  0  0  0  0  0  0
   -3.0867    1.6576    0.0000 C   0  0  0  0  0  0  0  0  0  0  0  0
   -2.8318    0.8730    0.0000 C   0  0  0  0  0  0  0  0  0  0  0  0
   -3.3838    0.2599    0.0000 N   0  0  0  0  0  0  0  0  0  0  0  0
   -2.0248    0.7015    0.0000 C   0  0  0  0  0  0  0  0  0  0  0  0
   -1.7699   -0.0832    0.0000 I   0  0  0  0  0  0  0  0  0  0  0  0
   -1.4728    1.3146    0.0000 C   0  0  0  0  0  0  0  0  0  0  0  0
    0.7439    8.3646    0.0000 H   0  0  0  0  0  0  0  0  0  0  0  0
    0.3587    6.5518    0.0000 H   0  0  0  0  0  0  0  0  0  0  0  0
    0.0280    7.5694    0.0000 H   0  0  0  0  0  0  0  0  0  0  0  0
    2.9282    6.9530    0.0000 H   0  0  0  0  0  0  0  0  0  0  0  0
    3.4802    7.5662    0.0000 H   0  0  0  0  0  0  0  0  0  0  0  0
    2.1029    8.8062    0.0000 H   0  0  0  0  0  0  0  0  0  0  0  0
    3.1495    8.5838    0.0000 H   0  0  0  0  0  0  0  0  0  0  0  0
    1.8059    7.4085    0.0000 H   0  0  0  0  0  0  0  0  0  0  0  0
    2.3844    7.9402    0.0000 H   0  0  0  0  0  0  0  0  0  0  0  0
    4.4664    6.8430    0.0000 H   0  0  0  0  0  0  0  0  0  0  0  0
    4.8880    4.8587    0.0000 H   0  0  0  0  0  0  0  0  0  0  0  0
    5.6040    5.6538    0.0000 H   0  0  0  0  0  0  0  0  0  0  0  0
    4.7789    7.5071    0.0000 H   0  0  0  0  0  0  0  0  0  0  0  0
    5.8255    7.2845    0.0000 H   0  0  0  0  0  0  0  0  0  0  0  0
    6.2470    5.3001    0.0000 H   0  0  0  0  0  0  0  0  0  0  0  0
    6.9630    6.0953    0.0000 H   0  0  0  0  0  0  0  0  0  0  0  0
    6.1379    7.9485    0.0000 H   0  0  0  0  0  0  0  0  0  0  0  0
    7.1845    7.7261    0.0000 H   0  0  0  0  0  0  0  0  0  0  0  0
    7.5907    5.7893    0.0000 H   0  0  0  0  0  0  0  0  0  0  0  0
    7.9580    7.5174    0.0000 H   0  0  0  0  0  0  0  0  0  0  0  0
    2.2354    5.6394    0.0000 H   0  0  0  0  0  0  0  0  0  0  0  0
    3.6965    3.3211    0.0000 H   0  0  0  0  0  0  0  0  0  0  0  0
    4.4242    4.6607    0.0000 H   0  0  0  0  0  0  0  0  0  0  0  0
    4.7549    3.6431    0.0000 H   0  0  0  0  0  0  0  0  0  0  0  0
    2.4463    2.4134    0.0000 H   0  0  0  0  0  0  0  0  0  0  0  0
    3.6591    0.8097    0.0000 H   0  0  0  0  0  0  0  0  0  0  0  0
    5.4623    0.5564    0.0000 H   0  0  0  0  0  0  0  0  0  0  0  0
    7.0705    1.4849    0.0000 H   0  0  0  0  0  0  0  0  0  0  0  0
    7.0705    3.3419    0.0000 H   0  0  0  0  0  0  0  0  0  0  0  0
    5.4623    4.2704    0.0000 H   0  0  0  0  0  0  0  0  0  0  0  0
    4.1193    3.0478    0.0000 H   0  0  0  0  0  0  0  0  0  0  0  0
    3.5752    2.6498    0.0000 H   0  0  0  0  0  0  0  0  0  0  0  0
    4.3822    2.4783    0.0000 H   0  0  0  0  0  0  0  0  0  0  0  0
    4.7128    1.4606    0.0000 H   0  0  0  0  0  0  0  0  0  0  0  0
    5.4187    1.4939    0.0000 H   0  0  0  0  0  0  0  0  0  0  0  0
    5.9924   -0.2723    0.0000 H   0  0  0  0  0  0  0  0  0  0  0  0
    4.0589   -2.1517    0.0000 H   0  0  0  0  0  0  0  0  0  0  0  0
    2.3597    0.5000    0.0000 H   0  0  0  0  0  0  0  0  0  0  0  0
    2.6114    0.3052    0.0000 H   0  0  0  0  0  0  0  0  0  0  0  0
    0.2276    1.8670    0.0000 H   0  0  0  0  0  0  0  0  0  0  0  0
   -0.2776    1.5740    0.0000 H   0  0  0  0  0  0  0  0  0  0  0  0
   -0.6083    2.5916    0.0000 H   0  0  0  0  0  0  0  0  0  0  0  0
   -0.5662    4.7741    0.0000 H   0  0  0  0  0  0  0  0  0  0  0  0
    0.1498    5.5692    0.0000 H   0  0  0  0  0  0  0  0  0  0  0  0
    0.2373    5.8806    0.0000 H   0  0  0  0  0  0  0  0  0  0  0  0
   -0.1855    6.1540    0.0000 H   0  0  0  0  0  0  0  0  0  0  0  0
   -0.0222    3.7868    0.0000 H   0  0  0  0  0  0  0  0  0  0  0  0
   -0.4176    5.6898    0.0000 H   0  0  0  0  0  0  0  0  0  0  0  0
   -0.3419    5.4567    0.0000 H   0  0  0  0  0  0  0  0  0  0  0  0
   -2.5259    6.8685    0.0000 H   0  0  0  0  0  0  0  0  0  0  0  0
   -2.9115    5.0557    0.0000 H   0  0  0  0  0  0  0  0  0  0  0  0
   -3.2420    6.0734    0.0000 H   0  0  0  0  0  0  0  0  0  0  0  0
    0.1124    6.0906    0.0000 H   0  0  0  0  0  0  0  0  0  0  0  0
   -2.0894    2.7653    0.0000 H   0  0  0  0  0  0  0  0  0  0  0  0
   -0.4676    3.2922    0.0000 H   0  0  0  0  0  0  0  0  0  0  0  0
    0.9975    0.6483    0.0000 H   0  0  0  0  0  0  0  0  0  0  0  0
    0.6954    2.6526    0.0000 H   0  0  0  0  0  0  0  0  0  0  0  0
    0.6493    3.7761    0.0000 H   0  0  0  0  0  0  0  0  0  0  0  0
   -1.1077    3.9607    0.0000 H   0  0  0  0  0  0  0  0  0  0  0  0
   -1.5064    3.7299    0.0000 H   0  0  0  0  0  0  0  0  0  0  0  0
   -2.2223    2.9347    0.0000 H   0  0  0  0  0  0  0  0  0  0  0  0
   -2.8536    3.2522    0.0000 H   0  0  0  0  0  0  0  0  0  0  0  0
   -4.0961    1.8722    0.0000 H   0  0  0  0  0  0  0  0  0  0  0  0
   -4.3468    0.4646    0.0000 H   0  0  0  0  0  0  0  0  0  0  0  0
   -3.0795   -0.6764    0.0000 H   0  0  0  0  0  0  0  0  0  0  0  0
   -0.4634    1.1000    0.0000 H   0  0  0  0  0  0  0  0  0  0  0  0
  1  2  1  0  0  0  0
  1 77  1  0  0  0  0
  1 78  1  0  0  0  0
  1 79  1  0  0  0  0
  2  3  1  0  0  0  0
  2 80  1  0  0  0  0
  3 81  1  0  0  0  0
  3 82  1  0  0  0  0
  3 83  1  0  0  0  0
  4  2  1  0  0  0  0
  4  5  1  0  0  0  0
  4 51  1  0  0  0  0
  4 84  1  0  0  0  0
  5  6  1  0  0  0  0
  5 85  1  0  0  0  0
  6  7  2  0  0  0  0
  8  6  1  0  0  0  0
  8  9  1  0  0  0  0
  8 14  1  0  0  0  0
  8 86  1  1  0  0  0
  9 10  1  0  0  0  0
  9 87  1  0  0  0  0
  9 88  1  0  0  0  0
 10 11  1  0  0  0  0
 10 89  1  0  0  0  0
 10 90  1  0  0  0  0
 11 12  1  0  0  0  0
 11 91  1  0  0  0  0
 11 92  1  0  0  0  0
 12 13  1  0  0  0  0
 12 93  1  0  0  0  0
 12 94  1  0  0  0  0
 13 95  1  0  0  0  0
 13 96  1  0  0  0  0
 14 15  1  0  0  0  0
 14 97  1  0  0  0  0
 15 16  2  0  0  0  0
 17 15  1  0  0  0  0
 17 18  1  0  0  0  0
 17 28  1  0  0  0  0
 17 98  1  0  0  0  0
 18 19  1  0  0  0  0
 18 99  1  0  0  0  0
 18100  1  0  0  0  0
 19 20  2  0  0  0  0
 19 27  1  0  0  0  0
 20 21  1  0  0  0  0
 20101  1  0  0  0  0
 21 22  1  0  0  0  0
 21102  1  0  0  0  0
 22 23  2  0  0  0  0
 22 27  1  0  0  0  0
 23 24  1  0  0  0  0
 23103  1  0  0  0  0
 24 25  2  0  0  0  0
 24104  1  0  0  0  0
 25 26  1  0  0  0  0
 25105  1  0  0  0  0
 26 27  2  0  0  0  0
 26106  1  0  0  0  0
 28 29  1  0  0  0  0
 28107  1  0  0  0  0
 29 30  2  0  0  0  0
 31 29  1  0  0  0  0
 31 32  1  0  0  0  0
 31 41  1  0  0  0  0
 31108  1  1  0  0  0
 32 33  1  0  0  0  0
 32109  1  0  0  0  0
 32110  1  0  0  0  0
 33 34  2  0  0  0  0
 33 40  1  0  0  0  0
 34 35  1  0  0  0  0
 34111  1  0  0  0  0
 35 36  2  0  0  0  0
 35112  1  0  0  0  0
 36 37  1  0  0  0  0
 36 38  1  0  0  0  0
 37113  1  0  0  0  0
 38 39  1  0  0  0  0
 38 40  2  0  0  0  0
 40114  1  0  0  0  0
 41 42  1  0  0  0  0
 41115  1  0  0  0  0
 42 43  2  0  0  0  0
 44 42  1  0  0  0  0
 44 45  1  0  0  0  0
 44 63  1  0  0  0  0
 44116  1  0  0  0  0
 45 46  1  0  0  0  0
 45117  1  0  0  0  0
 45118  1  0  0  0  0
 46 47  1  0  0  0  0
 47 48  1  0  0  0  0
 48119  1  0  0  0  0
 48120  1  0  0  0  0
 49 48  1  0  0  0  0
 49 50  1  0  0  0  0
 49 53  1  0  0  0  0
 49121  1  0  0  0  0
 50 51  1  0  0  0  0
 50122  1  0  0  0  0
 51 52  2  0  0  0  0
 53 54  2  0  0  0  0
 53 55  1  0  0  0  0
 55123  1  0  0  0  0
 56 55  1  0  0  0  0
 56 57  1  0  0  0  0
 56 60  1  0  0  0  0
 56124  1  1  0  0  0
 57 58  1  0  0  0  0
 57 59  1  0  0  0  0
 57125  1  6  0  0  0
 58126  1  0  0  0  0
 58127  1  0  0  0  0
 58128  1  0  0  0  0
 59129  1  0  0  0  0
 60 61  1  0  0  0  0
 60 62  2  0  0  0  0
 61130  1  0  0  0  0
 61131  1  0  0  0  0
 63 64  1  0  0  0  0
 63132  1  0  0  0  0
 64 65  2  0  0  0  0
 66 64  1  0  0  0  0
 66 67  1  0  0  0  0
 66 68  1  0  0  0  0
 66133  1  6  0  0  0
 67134  1  0  0  0  0
 67135  1  0  0  0  0
 68 69  1  0  0  0  0
 68136  1  0  0  0  0
 68137  1  0  0  0  0
 69 70  2  0  0  0  0
 69 76  1  0  0  0  0
 70 71  1  0  0  0  0
 70138  1  0  0  0  0
 71 72  2  0  0  0  0
 71139  1  0  0  0  0
 72 73  1  0  0  0  0
 72 74  1  0  0  0  0
 73140  1  0  0  0  0
 73141  1  0  0  0  0
 74 75  1  0  0  0  0
 74 76  2  0  0  0  0
 76142  1  0  0  0  0
M  END
>  <DRUGBANK_ID>
DB18206

>  <COMMON_NAME>
AP-102

>  <CAS_NUMBER>
846569-60-6

>  <UNII>
EW91FWW4HC

>  <SYNONYMS>
H-(4-amino-3-iodo)-d-phe-c(cys-(3-iodo)-tyr-d-trp-lys-val-cys)-thr-nh2; H-(4-amino-3-iodo)-D-Phe-c[Cys-(3-iodo)-Tyr-D-Trp-Lys-Val-Cys]-Thr-NH2; L-threoninamide, 4-amino-3-iodo-d-phenylalanyl-l-cysteinyl-3-iodo-l-tyrosyl-d-tryptophyl-l-lysyl-l-valyl-l-cysteinyl-, cyclic (2->7)-disulfide

$$$$
