579
 OpenBabel10282417072D

 33 36  0  0  1  0  0  0  0  0999 V2000
    7.2861    1.3858    0.0000 Cl  0  0  0  0  0  0  0  0  0  0  0  0
    4.1476    1.1910    0.0000 O   0  0  0  0  0  0  0  0  0  0  0  0
    4.4025   -0.4186    0.0000 N   0  0  0  0  0  0  0  0  0  0  0  0
    3.9905   -1.6828    0.0000 N   0  0  0  0  0  0  0  0  0  0  0  0
    4.1476    0.3660    0.0000 C   0  0  3  0  0  0  0  0  0  0  0  0
    3.3226    0.3660    0.0000 C   0  0  0  0  0  0  0  0  0  0  0  0
    3.7351   -0.9035    0.0000 C   0  0  0  0  0  0  0  0  0  0  0  0
    5.0648   -0.9024    0.0000 C   0  0  0  0  0  0  0  0  0  0  0  0
    3.0676   -0.4186    0.0000 C   0  0  0  0  0  0  0  0  0  0  0  0
    4.9322    0.6210    0.0000 C   0  0  0  0  0  0  0  0  0  0  0  0
    4.8107   -1.6822    0.0000 C   0  0  0  0  0  0  0  0  0  0  0  0
    2.7575    1.0134    0.0000 C   0  0  0  0  0  0  0  0  0  0  0  0
    2.2299   -0.6103    0.0000 C   0  0  0  0  0  0  0  0  0  0  0  0
    5.1037    1.4279    0.0000 C   0  0  0  0  0  0  0  0  0  0  0  0
    5.5453    0.0689    0.0000 C   0  0  0  0  0  0  0  0  0  0  0  0
    1.9156    0.8413    0.0000 C   0  0  0  0  0  0  0  0  0  0  0  0
    1.6500    0.0239    0.0000 C   0  0  0  0  0  0  0  0  0  0  0  0
    5.8884    1.6828    0.0000 C   0  0  0  0  0  0  0  0  0  0  0  0
    6.3299    0.3238    0.0000 C   0  0  0  0  0  0  0  0  0  0  0  0
    6.5014    1.1308    0.0000 C   0  0  0  0  0  0  0  0  0  0  0  0
    4.9876    1.6760    0.0000 H   0  0  0  0  0  0  0  0  0  0  0  0
    6.0830   -0.5735    0.0000 H   0  0  0  0  0  0  0  0  0  0  0  0
    5.8204   -1.6600    0.0000 H   0  0  0  0  0  0  0  0  0  0  0  0
    5.4396   -2.5479    0.0000 H   0  0  0  0  0  0  0  0  0  0  0  0
    5.8676   -1.5153    0.0000 H   0  0  0  0  0  0  0  0  0  0  0  0
    3.0878    1.9911    0.0000 H   0  0  0  0  0  0  0  0  0  0  0  0
    1.9224   -1.5954    0.0000 H   0  0  0  0  0  0  0  0  0  0  0  0
    4.3368    2.1185    0.0000 H   0  0  0  0  0  0  0  0  0  0  0  0
    5.3307   -0.9405    0.0000 H   0  0  0  0  0  0  0  0  0  0  0  0
    1.2281    1.6109    0.0000 H   0  0  0  0  0  0  0  0  0  0  0  0
    0.6414   -0.1945    0.0000 H   0  0  0  0  0  0  0  0  0  0  0  0
    6.1030    2.6922    0.0000 H   0  0  0  0  0  0  0  0  0  0  0  0
    7.0968   -0.3667    0.0000 H   0  0  0  0  0  0  0  0  0  0  0  0
  1 20  1  0  0  0  0
  2  5  1  0  0  0  0
  2 21  1  0  0  0  0
  3  5  1  0  0  0  0
  3  7  1  0  0  0  0
  3  8  1  0  0  0  0
  4  7  2  0  0  0  0
  4 11  1  0  0  0  0
  5  6  1  0  0  0  0
  5 10  1  0  0  0  0
  6  9  1  0  0  0  0
  6 12  2  0  0  0  0
  7  9  1  0  0  0  0
  8 11  1  0  0  0  0
  8 22  1  0  0  0  0
  8 23  1  0  0  0  0
  9 13  2  0  0  0  0
 10 14  2  0  0  0  0
 10 15  1  0  0  0  0
 11 24  1  0  0  0  0
 11 25  1  0  0  0  0
 12 16  1  0  0  0  0
 12 26  1  0  0  0  0
 13 17  1  0  0  0  0
 13 27  1  0  0  0  0
 14 18  1  0  0  0  0
 14 28  1  0  0  0  0
 15 19  2  0  0  0  0
 15 29  1  0  0  0  0
 16 17  2  0  0  0  0
 16 30  1  0  0  0  0
 17 31  1  0  0  0  0
 18 20  2  0  0  0  0
 18 32  1  0  0  0  0
 19 20  1  0  0  0  0
 19 33  1  0  0  0  0
M  END
>  <DRUGBANK_ID>
DB00579

>  <SECONDARY_ACCESSION_NUMBERS>
APRD01085

>  <COMMON_NAME>
Mazindol

>  <CAS_NUMBER>
22232-71-9

>  <UNII>
C56709M5NH

>  <SYNONYMS>
Mazindol; Mazindolo; Mazindolum

$$$$
