
 OpenBabel10282417072D

 60 63  0  0  0  0  0  0  0  0999 V2000
    0.3417    0.6046    0.0000 C   0  0  2  0  0  0  0  0  0  0  0  0
   -1.0777    0.6046    0.0000 C   0  0  0  0  0  0  0  0  0  0  0  0
    1.7875    0.6046    0.0000 C   0  0  0  0  0  0  0  0  0  0  0  0
   -0.3679    1.0252    0.0000 C   0  0  0  0  0  0  0  0  0  0  0  0
    1.0514    1.0252    0.0000 C   0  0  0  0  0  0  0  0  0  0  0  0
   -1.8137    1.0252    0.0000 C   0  0  0  0  0  0  0  0  0  0  0  0
    0.3417   -0.2102    0.0000 C   0  0  2  0  0  0  0  0  0  0  0  0
   -2.5235   -0.2102    0.0000 C   0  0  0  0  0  0  0  0  0  0  0  0
   -2.5235    0.6046    0.0000 C   0  0  0  0  0  0  0  0  0  0  0  0
    1.7875   -0.2102    0.0000 C   0  0  0  0  0  0  0  0  0  0  0  0
   -1.8137   -0.6308    0.0000 C   0  0  1  0  0  0  0  0  0  0  0  0
   -1.0777   -0.2102    0.0000 C   0  0  1  0  0  0  0  0  0  0  0  0
    1.0514   -0.6308    0.0000 C   0  0  1  0  0  0  0  0  0  0  0  0
   -0.3679   -0.6308    0.0000 C   0  0  0  0  0  0  0  0  0  0  0  0
    2.4972    1.0252    0.0000 C   0  0  0  0  0  0  0  0  0  0  0  0
   -3.2332   -0.6308    0.0000 C   0  0  0  0  0  0  0  0  0  0  0  0
   -3.2332    1.0252    0.0000 C   0  0  0  0  0  0  0  0  0  0  0  0
    1.0514    1.8400    0.0000 O   0  0  0  0  0  0  0  0  0  0  0  0
   -1.8137    1.8400    0.0000 O   0  0  0  0  0  0  0  0  0  0  0  0
    1.0514   -1.4457    0.0000 N   0  0  0  0  0  0  0  0  0  0  0  0
    3.2070    0.6309    0.0000 N   0  0  0  0  0  0  0  0  0  0  0  0
    0.3417    1.3406    0.0000 O   0  0  0  0  0  0  0  0  0  0  0  0
    2.4972    1.8663    0.0000 O   0  0  0  0  0  0  0  0  0  0  0  0
   -0.3679    1.8400    0.0000 O   0  0  0  0  0  0  0  0  0  0  0  0
    2.4972   -0.6308    0.0000 O   0  0  0  0  0  0  0  0  0  0  0  0
   -3.9430   -0.2102    0.0000 C   0  0  0  0  0  0  0  0  0  0  0  0
   -3.9430    0.6046    0.0000 C   0  0  0  0  0  0  0  0  0  0  0  0
    3.2070   -0.2102    0.0000 C   0  0  0  0  0  0  0  0  0  0  0  0
   -3.2332   -1.4457    0.0000 Cl  0  0  0  0  0  0  0  0  0  0  0  0
   -3.2332    1.8400    0.0000 O   0  0  0  0  0  0  0  0  0  0  0  0
    3.9430   -0.6308    0.0000 O   0  0  0  0  0  0  0  0  0  0  0  0
    1.7875   -1.8663    0.0000 C   0  0  0  0  0  0  0  0  0  0  0  0
    0.3417   -1.8663    0.0000 C   0  0  0  0  0  0  0  0  0  0  0  0
    0.3417   -1.0251    0.0000 H   0  0  0  0  0  0  0  0  0  0  0  0
   -2.2165   -1.3418    0.0000 C   0  0  0  0  0  0  0  0  0  0  0  0
   -1.4015   -1.3418    0.0000 O   0  0  0  0  0  0  0  0  0  0  0  0
   -1.0777   -1.0352    0.0000 H   0  0  0  0  0  0  0  0  0  0  0  0
    0.1217   -1.1605    0.0000 H   0  0  0  0  0  0  0  0  0  0  0  0
   -0.3678   -1.7008    0.0000 H   0  0  0  0  0  0  0  0  0  0  0  0
   -1.2975   -1.1606    0.0000 H   0  0  0  0  0  0  0  0  0  0  0  0
    4.0555    1.1302    0.0000 H   0  0  0  0  0  0  0  0  0  0  0  0
    1.1817    1.8256    0.0000 H   0  0  0  0  0  0  0  0  0  0  0  0
    0.4436    2.3085    0.0000 H   0  0  0  0  0  0  0  0  0  0  0  0
    2.4865   -1.5677    0.0000 H   0  0  0  0  0  0  0  0  0  0  0  0
   -4.8396   -0.7211    0.0000 H   0  0  0  0  0  0  0  0  0  0  0  0
   -4.8396    1.1155    0.0000 H   0  0  0  0  0  0  0  0  0  0  0  0
    2.2815   -0.7472    0.0000 H   0  0  0  0  0  0  0  0  0  0  0  0
    3.2105   -1.2802    0.0000 H   0  0  0  0  0  0  0  0  0  0  0  0
   -2.4217    2.3085    0.0000 H   0  0  0  0  0  0  0  0  0  0  0  0
    3.9473   -1.6008    0.0000 H   0  0  0  0  0  0  0  0  0  0  0  0
    1.7923   -2.9363    0.0000 H   0  0  0  0  0  0  0  0  0  0  0  0
    2.7117   -1.3272    0.0000 H   0  0  0  0  0  0  0  0  0  0  0  0
    2.7165   -2.3971    0.0000 H   0  0  0  0  0  0  0  0  0  0  0  0
   -0.5910   -1.3419    0.0000 H   0  0  0  0  0  0  0  0  0  0  0  0
    0.3539   -2.9362    0.0000 H   0  0  0  0  0  0  0  0  0  0  0  0
   -0.5788   -2.4118    0.0000 H   0  0  0  0  0  0  0  0  0  0  0  0
   -3.2865   -1.3505    0.0000 H   0  0  0  0  0  0  0  0  0  0  0  0
   -1.6740   -2.2641    0.0000 H   0  0  0  0  0  0  0  0  0  0  0  0
   -2.7439   -2.2728    0.0000 H   0  0  0  0  0  0  0  0  0  0  0  0
   -1.8850   -2.1827    0.0000 H   0  0  0  0  0  0  0  0  0  0  0  0
  1 22  1  1  0  0  0
  4  1  1  0  0  0  0
  4  2  2  0  0  0  0
  5  1  1  0  0  0  0
  5  3  1  0  0  0  0
  6  2  1  0  0  0  0
  7  1  1  0  0  0  0
  7 34  1  1  0  0  0
  9  6  1  0  0  0  0
  9  8  2  0  0  0  0
 10  3  2  0  0  0  0
 11  8  1  0  0  0  0
 11 35  1  0  0  0  0
 11 36  1  6  0  0  0
 12  2  1  0  0  0  0
 12 11  1  0  0  0  0
 12 37  1  1  0  0  0
 13  7  1  0  0  0  0
 13 10  1  0  0  0  0
 13 20  1  0  0  0  0
 13 38  1  6  0  0  0
 14  7  1  0  0  0  0
 14 12  1  0  0  0  0
 14 39  1  0  0  0  0
 14 40  1  0  0  0  0
 15  3  1  0  0  0  0
 16  8  1  0  0  0  0
 17  9  1  0  0  0  0
 18  5  2  0  0  0  0
 19  6  2  0  0  0  0
 21 15  1  0  0  0  0
 21 41  1  0  0  0  0
 22 42  1  0  0  0  0
 23 15  2  0  0  0  0
 24  4  1  0  0  0  0
 24 43  1  0  0  0  0
 25 10  1  0  0  0  0
 25 44  1  0  0  0  0
 26 16  2  0  0  0  0
 26 45  1  0  0  0  0
 27 17  2  0  0  0  0
 27 26  1  0  0  0  0
 27 46  1  0  0  0  0
 28 21  1  0  0  0  0
 28 47  1  0  0  0  0
 28 48  1  0  0  0  0
 29 16  1  0  0  0  0
 30 17  1  0  0  0  0
 30 49  1  0  0  0  0
 31 28  1  0  0  0  0
 31 50  1  0  0  0  0
 32 20  1  0  0  0  0
 32 51  1  0  0  0  0
 32 52  1  0  0  0  0
 32 53  1  0  0  0  0
 33 20  1  0  0  0  0
 33 54  1  0  0  0  0
 33 55  1  0  0  0  0
 33 56  1  0  0  0  0
 35 57  1  0  0  0  0
 35 58  1  0  0  0  0
 35 59  1  0  0  0  0
 36 60  1  0  0  0  0
M  END
>  <DRUGBANK_ID>
DB00453

>  <SECONDARY_ACCESSION_NUMBERS>
APRD00343

>  <COMMON_NAME>
Clomocycline

>  <CAS_NUMBER>
1181-54-0

>  <UNII>
YP0241BU76

>  <SYNONYMS>
Chlormethylenecycline; Clomociclina; Clomocyclina; Clomocycline; Clomocyclinum

$$$$
