1039
 OpenBabel10282417072D

 46 47  0  0  0  0  0  0  0  0999 V2000
    7.3659    3.9188    0.0000 Cl  0  0  0  0  0  0  0  0  0  0  0  0
    4.5080   -1.0313    0.0000 O   0  0  0  0  0  0  0  0  0  0  0  0
    3.0791   -2.6813    0.0000 O   0  0  0  0  0  0  0  0  0  0  0  0
    2.3645   -1.4438    0.0000 O   0  0  0  0  0  0  0  0  0  0  0  0
    3.7935    2.6813    0.0000 O   0  0  0  0  0  0  0  0  0  0  0  0
    3.7935   -1.4438    0.0000 C   0  0  0  0  0  0  0  0  0  0  0  0
    4.2060   -2.1582    0.0000 C   0  0  0  0  0  0  0  0  0  0  0  0
    3.3810   -0.7293    0.0000 C   0  0  0  0  0  0  0  0  0  0  0  0
    3.0791   -1.8563    0.0000 C   0  0  0  0  0  0  0  0  0  0  0  0
    2.3645   -3.0938    0.0000 C   0  0  0  0  0  0  0  0  0  0  0  0
    4.5080   -0.2063    0.0000 C   0  0  0  0  0  0  0  0  0  0  0  0
    5.2224    0.2063    0.0000 C   0  0  0  0  0  0  0  0  0  0  0  0
    3.7935    0.2063    0.0000 C   0  0  0  0  0  0  0  0  0  0  0  0
    4.5080    1.4438    0.0000 C   0  0  0  0  0  0  0  0  0  0  0  0
    2.3645   -3.9188    0.0000 C   0  0  0  0  0  0  0  0  0  0  0  0
    1.6500   -2.6813    0.0000 C   0  0  0  0  0  0  0  0  0  0  0  0
    5.2224    1.0313    0.0000 C   0  0  0  0  0  0  0  0  0  0  0  0
    3.7935    1.0313    0.0000 C   0  0  0  0  0  0  0  0  0  0  0  0
    4.5080    2.2688    0.0000 C   0  0  0  0  0  0  0  0  0  0  0  0
    5.2224    2.6813    0.0000 C   0  0  0  0  0  0  0  0  0  0  0  0
    5.2224    3.5063    0.0000 C   0  0  0  0  0  0  0  0  0  0  0  0
    5.9370    2.2688    0.0000 C   0  0  0  0  0  0  0  0  0  0  0  0
    5.9370    3.9188    0.0000 C   0  0  0  0  0  0  0  0  0  0  0  0
    6.6515    2.6813    0.0000 C   0  0  0  0  0  0  0  0  0  0  0  0
    6.6515    3.5063    0.0000 C   0  0  0  0  0  0  0  0  0  0  0  0
    3.6710   -3.0849    0.0000 H   0  0  0  0  0  0  0  0  0  0  0  0
    5.2760   -2.1582    0.0000 H   0  0  0  0  0  0  0  0  0  0  0  0
    4.7410   -3.0848    0.0000 H   0  0  0  0  0  0  0  0  0  0  0  0
    3.9160    0.1973    0.0000 H   0  0  0  0  0  0  0  0  0  0  0  0
    2.3110   -0.7293    0.0000 H   0  0  0  0  0  0  0  0  0  0  0  0
    2.8460    0.1974    0.0000 H   0  0  0  0  0  0  0  0  0  0  0  0
    1.4379   -3.6288    0.0000 H   0  0  0  0  0  0  0  0  0  0  0  0
    6.1162   -0.3096    0.0000 H   0  0  0  0  0  0  0  0  0  0  0  0
    2.8997   -0.3097    0.0000 H   0  0  0  0  0  0  0  0  0  0  0  0
    1.4379   -4.4538    0.0000 H   0  0  0  0  0  0  0  0  0  0  0  0
    3.2911   -4.4538    0.0000 H   0  0  0  0  0  0  0  0  0  0  0  0
    2.3645   -4.9888    0.0000 H   0  0  0  0  0  0  0  0  0  0  0  0
    1.6500   -1.6113    0.0000 H   0  0  0  0  0  0  0  0  0  0  0  0
    0.7234   -3.2163    0.0000 H   0  0  0  0  0  0  0  0  0  0  0  0
    0.7233   -2.1463    0.0000 H   0  0  0  0  0  0  0  0  0  0  0  0
    6.1161    1.5473    0.0000 H   0  0  0  0  0  0  0  0  0  0  0  0
    2.8998    1.5473    0.0000 H   0  0  0  0  0  0  0  0  0  0  0  0
    4.3287    4.0223    0.0000 H   0  0  0  0  0  0  0  0  0  0  0  0
    5.9370    1.2368    0.0000 H   0  0  0  0  0  0  0  0  0  0  0  0
    5.9370    4.9508    0.0000 H   0  0  0  0  0  0  0  0  0  0  0  0
    7.5452    2.1653    0.0000 H   0  0  0  0  0  0  0  0  0  0  0  0
  1 25  1  0  0  0  0
  2  6  1  0  0  0  0
  2 11  1  0  0  0  0
  3  9  1  0  0  0  0
  3 10  1  0  0  0  0
  4  9  2  0  0  0  0
  5 19  2  0  0  0  0
  6  7  1  0  0  0  0
  6  8  1  0  0  0  0
  6  9  1  0  0  0  0
  7 26  1  0  0  0  0
  7 27  1  0  0  0  0
  7 28  1  0  0  0  0
  8 29  1  0  0  0  0
  8 30  1  0  0  0  0
  8 31  1  0  0  0  0
 10 15  1  0  0  0  0
 10 16  1  0  0  0  0
 10 32  1  0  0  0  0
 11 12  2  0  0  0  0
 11 13  1  0  0  0  0
 12 17  1  0  0  0  0
 12 33  1  0  0  0  0
 13 18  2  0  0  0  0
 13 34  1  0  0  0  0
 14 17  2  0  0  0  0
 14 18  1  0  0  0  0
 14 19  1  0  0  0  0
 15 35  1  0  0  0  0
 15 36  1  0  0  0  0
 15 37  1  0  0  0  0
 16 38  1  0  0  0  0
 16 39  1  0  0  0  0
 16 40  1  0  0  0  0
 17 41  1  0  0  0  0
 18 42  1  0  0  0  0
 19 20  1  0  0  0  0
 20 21  2  0  0  0  0
 20 22  1  0  0  0  0
 21 23  1  0  0  0  0
 21 43  1  0  0  0  0
 22 24  2  0  0  0  0
 22 44  1  0  0  0  0
 23 25  2  0  0  0  0
 23 45  1  0  0  0  0
 24 25  1  0  0  0  0
 24 46  1  0  0  0  0
M  END
>  <DRUGBANK_ID>
DB01039

>  <SECONDARY_ACCESSION_NUMBERS>
APRD00405; DB09545

>  <COMMON_NAME>
Fenofibrate

>  <CAS_NUMBER>
49562-28-9

>  <UNII>
U202363UOS

>  <SYNONYMS>
2-(4-(4-Chlorobenzoyl)phenoxy)-2-methylpropanoic acid 1-methylethyl ester; Fenofibrate; Fenofibrato; Fenofibratum; Finofibrate; FNF; Isopropyl (4'-(p-chlorobenzoyl)-2-phenoxy-2-methyl)propionate; Isopropyl 2-(4-(4-chlorobenzoyl)phenoxy)-2-methylpropionate; Procetofen

$$$$
