
 OpenBabel10282417072D

 41 43  0  0  0  0  0  0  0  0999 V2000
   -0.7144   -1.0312    0.0000 C   0  0  0  0  0  0  0  0  0  0  0  0
    0.0000   -1.4437    0.0000 C   0  0  0  0  0  0  0  0  0  0  0  0
   -1.4290   -1.4437    0.0000 C   0  0  0  0  0  0  0  0  0  0  0  0
   -0.7144   -0.2062    0.0000 C   0  0  0  0  0  0  0  0  0  0  0  0
    0.7144   -0.2062    0.0000 C   0  0  0  0  0  0  0  0  0  0  0  0
    0.7144   -1.0313    0.0000 C   0  0  0  0  0  0  0  0  0  0  0  0
    0.0000    0.2062    0.0000 O   0  0  0  0  0  0  0  0  0  0  0  0
   -2.1434   -1.0312    0.0000 C   0  0  0  0  0  0  0  0  0  0  0  0
   -1.4289    0.2062    0.0000 C   0  0  0  0  0  0  0  0  0  0  0  0
   -2.1434   -0.2062    0.0000 C   0  0  0  0  0  0  0  0  0  0  0  0
    1.4289    0.2062    0.0000 C   0  0  0  0  0  0  0  0  0  0  0  0
    2.1434   -0.2062    0.0000 C   0  0  0  0  0  0  0  0  0  0  0  0
    2.8579    0.2062    0.0000 C   0  0  0  0  0  0  0  0  0  0  0  0
    0.0000   -2.2687    0.0000 O   0  0  0  0  0  0  0  0  0  0  0  0
    2.8579    1.0312    0.0000 C   0  0  0  0  0  0  0  0  0  0  0  0
    1.4290    1.0312    0.0000 C   0  0  0  0  0  0  0  0  0  0  0  0
    2.1434    1.4437    0.0000 C   0  0  0  0  0  0  0  0  0  0  0  0
   -1.4290   -2.2687    0.0000 O   0  0  0  0  0  0  0  0  0  0  0  0
   -2.8579   -1.4437    0.0000 O   0  0  0  0  0  0  0  0  0  0  0  0
   -2.8579    0.2062    0.0000 O   0  0  0  0  0  0  0  0  0  0  0  0
    3.5724   -0.2062    0.0000 O   0  0  0  0  0  0  0  0  0  0  0  0
    3.5724    1.4437    0.0000 O   0  0  0  0  0  0  0  0  0  0  0  0
   -3.5724   -1.0311    0.0000 C   0  0  0  0  0  0  0  0  0  0  0  0
    3.5724   -1.0313    0.0000 C   0  0  0  0  0  0  0  0  0  0  0  0
    3.5724    2.2687    0.0000 C   0  0  0  0  0  0  0  0  0  0  0  0
    1.6081   -1.5473    0.0000 H   0  0  0  0  0  0  0  0  0  0  0  0
   -1.4289    1.2382    0.0000 H   0  0  0  0  0  0  0  0  0  0  0  0
    2.1434   -1.2382    0.0000 H   0  0  0  0  0  0  0  0  0  0  0  0
    0.5353    1.5472    0.0000 H   0  0  0  0  0  0  0  0  0  0  0  0
    2.1434    2.4757    0.0000 H   0  0  0  0  0  0  0  0  0  0  0  0
   -2.2405   -2.7372    0.0000 H   0  0  0  0  0  0  0  0  0  0  0  0
   -2.8580    1.1432    0.0000 H   0  0  0  0  0  0  0  0  0  0  0  0
   -3.5723    0.0389    0.0000 H   0  0  0  0  0  0  0  0  0  0  0  0
   -4.4991   -1.5660    0.0000 H   0  0  0  0  0  0  0  0  0  0  0  0
   -4.4990   -0.4960    0.0000 H   0  0  0  0  0  0  0  0  0  0  0  0
    2.6458   -1.5663    0.0000 H   0  0  0  0  0  0  0  0  0  0  0  0
    4.4990   -1.5663    0.0000 H   0  0  0  0  0  0  0  0  0  0  0  0
    3.5724   -2.1013    0.0000 H   0  0  0  0  0  0  0  0  0  0  0  0
    4.4990    2.8037    0.0000 H   0  0  0  0  0  0  0  0  0  0  0  0
    2.6458    2.8037    0.0000 H   0  0  0  0  0  0  0  0  0  0  0  0
    3.5724    3.3387    0.0000 H   0  0  0  0  0  0  0  0  0  0  0  0
  2  1  1  0  0  0  0
  3  1  2  0  0  0  0
  4  1  1  0  0  0  0
  5  6  2  0  0  0  0
  5  7  1  0  0  0  0
  6  2  1  0  0  0  0
  6 26  1  0  0  0  0
  7  4  1  0  0  0  0
  8  3  1  0  0  0  0
  9  4  2  0  0  0  0
  9 27  1  0  0  0  0
 10  9  1  0  0  0  0
 10  8  2  0  0  0  0
 11  5  1  0  0  0  0
 12 11  1  0  0  0  0
 12 28  1  0  0  0  0
 13 12  2  0  0  0  0
 13 15  1  0  0  0  0
 14  2  2  0  0  0  0
 15 17  2  0  0  0  0
 16 11  2  0  0  0  0
 16 29  1  0  0  0  0
 17 16  1  0  0  0  0
 17 30  1  0  0  0  0
 18  3  1  0  0  0  0
 18 31  1  0  0  0  0
 19  8  1  0  0  0  0
 20 10  1  0  0  0  0
 20 32  1  0  0  0  0
 21 13  1  0  0  0  0
 22 15  1  0  0  0  0
 23 19  1  0  0  0  0
 23 33  1  0  0  0  0
 23 34  1  0  0  0  0
 23 35  1  0  0  0  0
 24 21  1  0  0  0  0
 24 36  1  0  0  0  0
 24 37  1  0  0  0  0
 24 38  1  0  0  0  0
 25 22  1  0  0  0  0
 25 39  1  0  0  0  0
 25 40  1  0  0  0  0
 25 41  1  0  0  0  0
M  END
>  <DRUGBANK_ID>
DB16885

>  <COMMON_NAME>
Eupatilin

>  <CAS_NUMBER>
22368-21-4

>  <UNII>
4D58O05490

$$$$
