
 OpenBabel10282417072D

 55 55  0  0  0  0  0  0  0  0999 V2000
    1.8529   -8.5585    0.0000 C   0  0  0  0  0  0  0  0  0  0  0  0
    2.5674   -8.1460    0.0000 C   0  0  0  0  0  0  0  0  0  0  0  0
    3.2818   -8.5585    0.0000 C   0  0  0  0  0  0  0  0  0  0  0  0
    3.9963   -8.1460    0.0000 C   0  0  0  0  0  0  0  0  0  0  0  0
    4.7108   -8.5585    0.0000 C   0  0  0  0  0  0  0  0  0  0  0  0
    5.4253   -8.1460    0.0000 C   0  0  0  0  0  0  0  0  0  0  0  0
    6.1397   -8.5585    0.0000 C   0  0  0  0  0  0  0  0  0  0  0  0
    6.8542   -8.1460    0.0000 C   0  0  0  0  0  0  0  0  0  0  0  0
    7.5687   -8.5585    0.0000 C   0  0  0  0  0  0  0  0  0  0  0  0
    8.2831   -8.1460    0.0000 C   0  0  0  0  0  0  0  0  0  0  0  0
    8.9976   -8.5585    0.0000 C   0  0  0  0  0  0  0  0  0  0  0  0
    9.7121   -8.1460    0.0000 C   0  0  0  0  0  0  0  0  0  0  0  0
   10.4266   -8.5585    0.0000 N   0  0  0  0  0  0  0  0  0  0  0  0
   11.1082   -8.0937    0.0000 C   0  0  0  0  0  0  0  0  0  0  0  0
   11.8965   -8.3369    0.0000 C   0  0  0  0  0  0  0  0  0  0  0  0
   12.1980   -9.1049    0.0000 C   0  0  0  0  0  0  0  0  0  0  0  0
   11.7855   -9.8194    0.0000 C   0  0  0  0  0  0  0  0  0  0  0  0
   10.9697   -9.9423    0.0000 C   0  0  0  0  0  0  0  0  0  0  0  0
   10.3649   -9.3812    0.0000 C   0  0  0  0  0  0  0  0  0  0  0  0
    9.5969   -9.6826    0.0000 O   0  0  0  0  0  0  0  0  0  0  0  0
    0.9263   -8.0235    0.0000 H   0  0  0  0  0  0  0  0  0  0  0  0
    1.8529   -9.6285    0.0000 H   0  0  0  0  0  0  0  0  0  0  0  0
    0.9262   -9.0935    0.0000 H   0  0  0  0  0  0  0  0  0  0  0  0
    2.5674   -7.0760    0.0000 H   0  0  0  0  0  0  0  0  0  0  0  0
    3.4941   -7.6110    0.0000 H   0  0  0  0  0  0  0  0  0  0  0  0
    3.2818   -9.6285    0.0000 H   0  0  0  0  0  0  0  0  0  0  0  0
    4.2084   -9.0935    0.0000 H   0  0  0  0  0  0  0  0  0  0  0  0
    3.9963   -7.0760    0.0000 H   0  0  0  0  0  0  0  0  0  0  0  0
    4.9229   -7.6110    0.0000 H   0  0  0  0  0  0  0  0  0  0  0  0
    4.7108   -9.6285    0.0000 H   0  0  0  0  0  0  0  0  0  0  0  0
    5.6374   -9.0935    0.0000 H   0  0  0  0  0  0  0  0  0  0  0  0
    5.4253   -7.0760    0.0000 H   0  0  0  0  0  0  0  0  0  0  0  0
    6.3520   -7.6110    0.0000 H   0  0  0  0  0  0  0  0  0  0  0  0
    6.1397   -9.6285    0.0000 H   0  0  0  0  0  0  0  0  0  0  0  0
    7.0663   -9.0935    0.0000 H   0  0  0  0  0  0  0  0  0  0  0  0
    6.8542   -7.0760    0.0000 H   0  0  0  0  0  0  0  0  0  0  0  0
    7.7808   -7.6110    0.0000 H   0  0  0  0  0  0  0  0  0  0  0  0
    7.5687   -9.6285    0.0000 H   0  0  0  0  0  0  0  0  0  0  0  0
    8.4954   -9.0935    0.0000 H   0  0  0  0  0  0  0  0  0  0  0  0
    8.2831   -7.0760    0.0000 H   0  0  0  0  0  0  0  0  0  0  0  0
    9.2097   -7.6110    0.0000 H   0  0  0  0  0  0  0  0  0  0  0  0
    8.9976   -9.6285    0.0000 H   0  0  0  0  0  0  0  0  0  0  0  0
    9.9242   -9.0935    0.0000 H   0  0  0  0  0  0  0  0  0  0  0  0
    9.7121   -7.0760    0.0000 H   0  0  0  0  0  0  0  0  0  0  0  0
   10.6387   -7.6110    0.0000 H   0  0  0  0  0  0  0  0  0  0  0  0
   10.9487   -7.0357    0.0000 H   0  0  0  0  0  0  0  0  0  0  0  0
   11.9192   -7.3958    0.0000 H   0  0  0  0  0  0  0  0  0  0  0  0
   12.6243   -7.5525    0.0000 H   0  0  0  0  0  0  0  0  0  0  0  0
   12.9479   -8.5358    0.0000 H   0  0  0  0  0  0  0  0  0  0  0  0
   13.2650   -9.1848    0.0000 H   0  0  0  0  0  0  0  0  0  0  0  0
   12.6980  -10.0509    0.0000 H   0  0  0  0  0  0  0  0  0  0  0  0
   12.3882  -10.7035    0.0000 H   0  0  0  0  0  0  0  0  0  0  0  0
   11.3576  -10.8001    0.0000 H   0  0  0  0  0  0  0  0  0  0  0  0
   10.6543  -10.9648    0.0000 H   0  0  0  0  0  0  0  0  0  0  0  0
    9.9362  -10.2193    0.0000 H   0  0  0  0  0  0  0  0  0  0  0  0
  1  2  1  0  0  0  0
  1 21  1  0  0  0  0
  1 22  1  0  0  0  0
  1 23  1  0  0  0  0
  2  3  1  0  0  0  0
  2 24  1  0  0  0  0
  2 25  1  0  0  0  0
  3  4  1  0  0  0  0
  3 26  1  0  0  0  0
  3 27  1  0  0  0  0
  4  5  1  0  0  0  0
  4 28  1  0  0  0  0
  4 29  1  0  0  0  0
  5  6  1  0  0  0  0
  5 30  1  0  0  0  0
  5 31  1  0  0  0  0
  6  7  1  0  0  0  0
  6 32  1  0  0  0  0
  6 33  1  0  0  0  0
  7  8  1  0  0  0  0
  7 34  1  0  0  0  0
  7 35  1  0  0  0  0
  8  9  1  0  0  0  0
  8 36  1  0  0  0  0
  8 37  1  0  0  0  0
  9 10  1  0  0  0  0
  9 38  1  0  0  0  0
  9 39  1  0  0  0  0
 10 11  1  0  0  0  0
 10 40  1  0  0  0  0
 10 41  1  0  0  0  0
 11 12  1  0  0  0  0
 11 42  1  0  0  0  0
 11 43  1  0  0  0  0
 12 13  1  0  0  0  0
 12 44  1  0  0  0  0
 12 45  1  0  0  0  0
 13 14  1  0  0  0  0
 13 19  1  0  0  0  0
 14 15  1  0  0  0  0
 14 46  1  0  0  0  0
 14 47  1  0  0  0  0
 15 16  1  0  0  0  0
 15 48  1  0  0  0  0
 15 49  1  0  0  0  0
 16 17  1  0  0  0  0
 16 50  1  0  0  0  0
 16 51  1  0  0  0  0
 17 18  1  0  0  0  0
 17 52  1  0  0  0  0
 17 53  1  0  0  0  0
 18 19  1  0  0  0  0
 18 54  1  0  0  0  0
 18 55  1  0  0  0  0
 19 20  2  0  0  0  0
M  END
>  <DRUGBANK_ID>
DB17308

>  <COMMON_NAME>
Laurocapram

>  <CAS_NUMBER>
59227-89-3

>  <UNII>
1F3X9DRV9X

>  <SYNONYMS>
1-dodecylazacycloheptan-2-one; 1-dodecylhexahydro-2h-azepin-2-one; 1-n-dodecylazacycloheptan-2-one; 2h-azepin-2-one, 1-dodecylhexahydro-; Azone; N-dodecyl-.epsilon.-caprolactam

$$$$
