
 OpenBabel10282417072D

 70 71  0  0  1  0  0  0  0  0999 V2000
    0.7145   -1.2375    0.0000 C   0  0  0  0  0  0  0  0  0  0  0  0
    1.4289   -1.6500    0.0000 C   0  0  0  0  0  0  0  0  0  0  0  0
    1.4289   -2.4750    0.0000 C   0  0  0  0  0  0  0  0  0  0  0  0
    2.1434   -2.8875    0.0000 C   0  0  2  0  0  0  0  0  0  0  0  0
    2.8579   -2.4750    0.0000 C   0  0  0  0  0  0  0  0  0  0  0  0
    3.2704   -3.1895    0.0000 C   0  0  0  0  0  0  0  0  0  0  0  0
    2.4454   -1.7605    0.0000 C   0  0  0  0  0  0  0  0  0  0  0  0
    3.5724   -2.0625    0.0000 C   0  0  0  0  0  0  0  0  0  0  0  0
    2.1434   -3.7125    0.0000 N   0  0  0  0  0  0  0  0  0  0  0  0
    2.8579   -4.1250    0.0000 C   0  0  0  0  0  0  0  0  0  0  0  0
    3.5724   -3.7125    0.0000 O   0  0  0  0  0  0  0  0  0  0  0  0
    2.8579   -4.9500    0.0000 C   0  0  0  0  0  0  0  0  0  0  0  0
    3.5724   -5.3625    0.0000 C   0  0  0  0  0  0  0  0  0  0  0  0
    3.5724   -6.1875    0.0000 C   0  0  0  0  0  0  0  0  0  0  0  0
    2.8579   -6.6000    0.0000 C   0  0  0  0  0  0  0  0  0  0  0  0
    2.1434   -6.1875    0.0000 C   0  0  0  0  0  0  0  0  0  0  0  0
    2.1434   -5.3625    0.0000 C   0  0  0  0  0  0  0  0  0  0  0  0
    1.4289   -6.6000    0.0000 C   0  0  0  0  0  0  0  0  0  0  0  0
    4.2868   -6.6000    0.0000 C   0  0  0  0  0  0  0  0  0  0  0  0
    1.4289   -4.1250    0.0000 N   0  0  0  0  0  0  0  0  0  0  0  0
    0.7145   -3.7125    0.0000 C   0  0  0  0  0  0  0  0  0  0  0  0
    0.7145   -2.8875    0.0000 O   0  0  0  0  0  0  0  0  0  0  0  0
    0.0000   -4.1250    0.0000 C   0  0  0  0  0  0  0  0  0  0  0  0
    0.0000   -4.9500    0.0000 C   0  0  0  0  0  0  0  0  0  0  0  0
   -0.7145   -5.3625    0.0000 C   0  0  0  0  0  0  0  0  0  0  0  0
   -1.4289   -4.9500    0.0000 C   0  0  0  0  0  0  0  0  0  0  0  0
   -1.4289   -4.1250    0.0000 C   0  0  0  0  0  0  0  0  0  0  0  0
   -0.7145   -3.7125    0.0000 C   0  0  0  0  0  0  0  0  0  0  0  0
   -0.7145   -2.8875    0.0000 C   0  0  0  0  0  0  0  0  0  0  0  0
    0.0000   -2.4750    0.0000 C   0  0  0  0  0  0  0  0  0  0  0  0
   -2.1434   -3.7125    0.0000 O   0  0  0  0  0  0  0  0  0  0  0  0
   -2.8579   -4.1250    0.0000 C   0  0  0  0  0  0  0  0  0  0  0  0
    0.7145   -0.1675    0.0000 H   0  0  0  0  0  0  0  0  0  0  0  0
   -0.2122   -1.7725    0.0000 H   0  0  0  0  0  0  0  0  0  0  0  0
   -0.2121   -0.7025    0.0000 H   0  0  0  0  0  0  0  0  0  0  0  0
    2.3556   -1.1150    0.0000 H   0  0  0  0  0  0  0  0  0  0  0  0
    2.3555   -2.1850    0.0000 H   0  0  0  0  0  0  0  0  0  0  0  0
    0.5023   -3.0100    0.0000 H   0  0  0  0  0  0  0  0  0  0  0  0
    1.4289   -3.5450    0.0000 H   0  0  0  0  0  0  0  0  0  0  0  0
    1.2168   -3.4225    0.0000 H   0  0  0  0  0  0  0  0  0  0  0  0
    2.7354   -4.1161    0.0000 H   0  0  0  0  0  0  0  0  0  0  0  0
    4.3404   -3.1895    0.0000 H   0  0  0  0  0  0  0  0  0  0  0  0
    3.8054   -4.1162    0.0000 H   0  0  0  0  0  0  0  0  0  0  0  0
    2.9804   -0.8339    0.0000 H   0  0  0  0  0  0  0  0  0  0  0  0
    1.3754   -1.7605    0.0000 H   0  0  0  0  0  0  0  0  0  0  0  0
    1.9104   -0.8338    0.0000 H   0  0  0  0  0  0  0  0  0  0  0  0
    4.4990   -2.5975    0.0000 H   0  0  0  0  0  0  0  0  0  0  0  0
    3.5724   -0.9925    0.0000 H   0  0  0  0  0  0  0  0  0  0  0  0
    4.4991   -1.5275    0.0000 H   0  0  0  0  0  0  0  0  0  0  0  0
    4.4661   -4.8465    0.0000 H   0  0  0  0  0  0  0  0  0  0  0  0
    2.8579   -7.6320    0.0000 H   0  0  0  0  0  0  0  0  0  0  0  0
    1.2497   -4.8465    0.0000 H   0  0  0  0  0  0  0  0  0  0  0  0
    0.5023   -6.0650    0.0000 H   0  0  0  0  0  0  0  0  0  0  0  0
    1.4289   -7.6700    0.0000 H   0  0  0  0  0  0  0  0  0  0  0  0
    0.5022   -7.1350    0.0000 H   0  0  0  0  0  0  0  0  0  0  0  0
    4.2868   -7.6700    0.0000 H   0  0  0  0  0  0  0  0  0  0  0  0
    5.2135   -6.0650    0.0000 H   0  0  0  0  0  0  0  0  0  0  0  0
    5.2134   -7.1350    0.0000 H   0  0  0  0  0  0  0  0  0  0  0  0
    1.4289   -5.1095    0.0000 H   0  0  0  0  0  0  0  0  0  0  0  0
    0.8937   -5.4660    0.0000 H   0  0  0  0  0  0  0  0  0  0  0  0
   -0.7145   -6.3945    0.0000 H   0  0  0  0  0  0  0  0  0  0  0  0
   -2.3226   -5.4660    0.0000 H   0  0  0  0  0  0  0  0  0  0  0  0
   -1.6411   -2.3525    0.0000 H   0  0  0  0  0  0  0  0  0  0  0  0
   -0.7145   -1.8175    0.0000 H   0  0  0  0  0  0  0  0  0  0  0  0
    0.9266   -3.0100    0.0000 H   0  0  0  0  0  0  0  0  0  0  0  0
    0.0000   -1.4050    0.0000 H   0  0  0  0  0  0  0  0  0  0  0  0
    0.9267   -1.9400    0.0000 H   0  0  0  0  0  0  0  0  0  0  0  0
   -3.7845   -3.5900    0.0000 H   0  0  0  0  0  0  0  0  0  0  0  0
   -2.8579   -5.1950    0.0000 H   0  0  0  0  0  0  0  0  0  0  0  0
   -3.7846   -4.6600    0.0000 H   0  0  0  0  0  0  0  0  0  0  0  0
  1  2  1  0  0  0  0
  1 33  1  0  0  0  0
  1 34  1  0  0  0  0
  1 35  1  0  0  0  0
  2  3  1  0  0  0  0
  2 36  1  0  0  0  0
  2 37  1  0  0  0  0
  3  4  1  0  0  0  0
  3 38  1  0  0  0  0
  3 39  1  0  0  0  0
  4  5  1  0  0  0  0
  4  9  1  0  0  0  0
  4 40  1  1  0  0  0
  5  6  1  0  0  0  0
  5  7  1  0  0  0  0
  5  8  1  0  0  0  0
  6 41  1  0  0  0  0
  6 42  1  0  0  0  0
  6 43  1  0  0  0  0
  7 44  1  0  0  0  0
  7 45  1  0  0  0  0
  7 46  1  0  0  0  0
  8 47  1  0  0  0  0
  8 48  1  0  0  0  0
  8 49  1  0  0  0  0
  9 10  1  0  0  0  0
  9 20  1  0  0  0  0
 10 11  2  0  0  0  0
 10 12  1  0  0  0  0
 12 13  2  0  0  0  0
 12 17  1  0  0  0  0
 13 14  1  0  0  0  0
 13 50  1  0  0  0  0
 14 15  2  0  0  0  0
 14 19  1  0  0  0  0
 15 16  1  0  0  0  0
 15 51  1  0  0  0  0
 16 17  2  0  0  0  0
 16 18  1  0  0  0  0
 17 52  1  0  0  0  0
 18 53  1  0  0  0  0
 18 54  1  0  0  0  0
 18 55  1  0  0  0  0
 19 56  1  0  0  0  0
 19 57  1  0  0  0  0
 19 58  1  0  0  0  0
 20 21  1  0  0  0  0
 20 59  1  0  0  0  0
 21 22  2  0  0  0  0
 21 23  1  0  0  0  0
 23 24  2  0  0  0  0
 23 28  1  0  0  0  0
 24 25  1  0  0  0  0
 24 60  1  0  0  0  0
 25 26  2  0  0  0  0
 25 61  1  0  0  0  0
 26 27  1  0  0  0  0
 26 62  1  0  0  0  0
 27 28  2  0  0  0  0
 27 31  1  0  0  0  0
 28 29  1  0  0  0  0
 29 30  1  0  0  0  0
 29 63  1  0  0  0  0
 29 64  1  0  0  0  0
 30 65  1  0  0  0  0
 30 66  1  0  0  0  0
 30 67  1  0  0  0  0
 31 32  1  0  0  0  0
 32 68  1  0  0  0  0
 32 69  1  0  0  0  0
 32 70  1  0  0  0  0
M  END
>  <DRUGBANK_ID>
DB12170

>  <COMMON_NAME>
Veledimex

>  <CAS_NUMBER>
1093130-72-3

>  <UNII>
ASU841TV0X

>  <SYNONYMS>
Veledimex

$$$$
