
 OpenBabel10282417072D

 64 63  0  0  0  0  0  0  0  0999 V2000
    2.5032    0.0025    0.0000 C   0  0  1  0  0  0  0  0  0  0  0  0
    1.7901   -0.4078    0.0000 N   0  0  0  0  0  0  0  0  0  0  0  0
    2.5032    0.8275    0.0000 C   0  0  0  0  0  0  0  0  0  0  0  0
    3.2140    1.2421    0.0000 C   0  0  0  0  0  0  0  0  0  0  0  0
    3.2140    2.0670    0.0000 C   0  0  0  0  0  0  0  0  0  0  0  0
    3.9290    2.4774    0.0000 C   0  0  0  0  0  0  0  0  0  0  0  0
    3.2109   -1.2286    0.0000 O   0  0  0  0  0  0  0  0  0  0  0  0
    1.0730   -0.0015    0.0000 C   0  0  0  0  0  0  0  0  0  0  0  0
    1.0689    0.8233    0.0000 O   0  0  0  0  0  0  0  0  0  0  0  0
    0.3558   -0.4119    0.0000 C   0  0  1  0  0  0  0  0  0  0  0  0
   -0.3585   -0.0006    0.0000 N   0  0  0  0  0  0  0  0  0  0  0  0
    0.3547   -1.2369    0.0000 C   0  0  0  0  0  0  0  0  0  0  0  0
    1.0692   -1.6524    0.0000 C   0  0  0  0  0  0  0  0  0  0  0  0
    1.0682   -2.4774    0.0000 C   0  0  0  0  0  0  0  0  0  0  0  0
    1.7848   -1.2387    0.0000 C   0  0  0  0  0  0  0  0  0  0  0  0
   -1.0757   -0.4069    0.0000 C   0  0  0  0  0  0  0  0  0  0  0  0
   -1.0798   -1.2318    0.0000 O   0  0  0  0  0  0  0  0  0  0  0  0
   -1.7928    0.0034    0.0000 C   0  0  1  0  0  0  0  0  0  0  0  0
   -2.5073   -0.4078    0.0000 N   0  0  0  0  0  0  0  0  0  0  0  0
   -1.7939    0.8284    0.0000 C   0  0  0  0  0  0  0  0  0  0  0  0
   -1.0795    1.2439    0.0000 C   0  0  0  0  0  0  0  0  0  0  0  0
   -1.0804    2.0689    0.0000 C   0  0  0  0  0  0  0  0  0  0  0  0
   -0.3639    0.8302    0.0000 C   0  0  0  0  0  0  0  0  0  0  0  0
   -3.2177    0.0034    0.0000 C   0  0  0  0  0  0  0  0  0  0  0  0
   -3.9290   -0.4060    0.0000 C   0  0  0  0  0  0  0  0  0  0  0  0
   -3.2167    0.8242    0.0000 O   0  0  0  0  0  0  0  0  0  0  0  0
    3.2121   -0.4078    0.0000 C   0  0  0  0  0  0  0  0  0  0  0  0
    3.9275    0.0029    0.0000 H   0  0  0  0  0  0  0  0  0  0  0  0
    3.4301    0.5370    0.0000 H   0  0  0  0  0  0  0  0  0  0  0  0
    1.7934   -1.3923    0.0000 H   0  0  0  0  0  0  0  0  0  0  0  0
    1.5754    1.3604    0.0000 H   0  0  0  0  0  0  0  0  0  0  0  0
    2.4996    1.8975    0.0000 H   0  0  0  0  0  0  0  0  0  0  0  0
    4.1418    0.7092    0.0000 H   0  0  0  0  0  0  0  0  0  0  0  0
    4.1401    1.7781    0.0000 H   0  0  0  0  0  0  0  0  0  0  0  0
    2.2880    2.6032    0.0000 H   0  0  0  0  0  0  0  0  0  0  0  0
    3.2160    3.1370    0.0000 H   0  0  0  0  0  0  0  0  0  0  0  0
    4.8543    1.9401    0.0000 H   0  0  0  0  0  0  0  0  0  0  0  0
    3.9317    3.5474    0.0000 H   0  0  0  0  0  0  0  0  0  0  0  0
    4.8570    3.0101    0.0000 H   0  0  0  0  0  0  0  0  0  0  0  0
   -0.5709   -0.9468    0.0000 H   0  0  0  0  0  0  0  0  0  0  0  0
   -0.3550    0.9839    0.0000 H   0  0  0  0  0  0  0  0  0  0  0  0
   -0.5731   -1.7698    0.0000 H   0  0  0  0  0  0  0  0  0  0  0  0
    0.3518   -2.3069    0.0000 H   0  0  0  0  0  0  0  0  0  0  0  0
    1.9957   -2.1877    0.0000 H   0  0  0  0  0  0  0  0  0  0  0  0
    0.1409   -3.0113    0.0000 H   0  0  0  0  0  0  0  0  0  0  0  0
    1.9942   -3.0135    0.0000 H   0  0  0  0  0  0  0  0  0  0  0  0
    1.0669   -3.5474    0.0000 H   0  0  0  0  0  0  0  0  0  0  0  0
    2.7118   -1.7732    0.0000 H   0  0  0  0  0  0  0  0  0  0  0  0
    1.7842   -0.1687    0.0000 H   0  0  0  0  0  0  0  0  0  0  0  0
    2.7111   -0.7032    0.0000 H   0  0  0  0  0  0  0  0  0  0  0  0
   -2.7194    0.5384    0.0000 H   0  0  0  0  0  0  0  0  0  0  0  0
   -2.5085   -1.3923    0.0000 H   0  0  0  0  0  0  0  0  0  0  0  0
   -2.7218    1.3613    0.0000 H   0  0  0  0  0  0  0  0  0  0  0  0
   -1.7968    1.8984    0.0000 H   0  0  0  0  0  0  0  0  0  0  0  0
   -0.1530    1.7791    0.0000 H   0  0  0  0  0  0  0  0  0  0  0  0
   -0.1543    2.6049    0.0000 H   0  0  0  0  0  0  0  0  0  0  0  0
   -2.0076    2.6029    0.0000 H   0  0  0  0  0  0  0  0  0  0  0  0
   -1.0816    3.1389    0.0000 H   0  0  0  0  0  0  0  0  0  0  0  0
   -0.3645   -0.2398    0.0000 H   0  0  0  0  0  0  0  0  0  0  0  0
    0.5631    1.3647    0.0000 H   0  0  0  0  0  0  0  0  0  0  0  0
    0.5624    0.2947    0.0000 H   0  0  0  0  0  0  0  0  0  0  0  0
   -4.8549    0.1302    0.0000 H   0  0  0  0  0  0  0  0  0  0  0  0
   -3.9304   -1.4760    0.0000 H   0  0  0  0  0  0  0  0  0  0  0  0
   -4.8564   -0.9398    0.0000 H   0  0  0  0  0  0  0  0  0  0  0  0
  1  2  1  0  0  0  0
  1  3  1  0  0  0  0
  1 29  1  6  0  0  0
  2  8  1  0  0  0  0
  2 30  1  0  0  0  0
  3  4  1  0  0  0  0
  3 31  1  0  0  0  0
  3 32  1  0  0  0  0
  4  5  1  0  0  0  0
  4 33  1  0  0  0  0
  4 34  1  0  0  0  0
  5  6  1  0  0  0  0
  5 35  1  0  0  0  0
  5 36  1  0  0  0  0
  6 37  1  0  0  0  0
  6 38  1  0  0  0  0
  6 39  1  0  0  0  0
  8  9  2  0  0  0  0
  8 10  1  0  0  0  0
 10 12  1  0  0  0  0
 10 11  1  0  0  0  0
 10 40  1  1  0  0  0
 11 16  1  0  0  0  0
 11 41  1  0  0  0  0
 12 13  1  0  0  0  0
 12 42  1  0  0  0  0
 12 43  1  0  0  0  0
 13 14  1  0  0  0  0
 13 15  1  0  0  0  0
 13 44  1  0  0  0  0
 14 45  1  0  0  0  0
 14 46  1  0  0  0  0
 14 47  1  0  0  0  0
 15 48  1  0  0  0  0
 15 49  1  0  0  0  0
 15 50  1  0  0  0  0
 16 18  1  0  0  0  0
 16 17  2  0  0  0  0
 18 19  1  0  0  0  0
 18 20  1  0  0  0  0
 18 51  1  6  0  0  0
 19 24  1  0  0  0  0
 19 52  1  0  0  0  0
 20 21  1  0  0  0  0
 20 53  1  0  0  0  0
 20 54  1  0  0  0  0
 21 22  1  0  0  0  0
 21 23  1  0  0  0  0
 21 55  1  0  0  0  0
 22 56  1  0  0  0  0
 22 57  1  0  0  0  0
 22 58  1  0  0  0  0
 23 59  1  0  0  0  0
 23 60  1  0  0  0  0
 23 61  1  0  0  0  0
 24 25  1  0  0  0  0
 24 26  2  0  0  0  0
 25 62  1  0  0  0  0
 25 63  1  0  0  0  0
 25 64  1  0  0  0  0
 27  1  1  0  0  0  0
 27  7  2  0  0  0  0
 27 28  1  0  0  0  0
M  END
>  <DRUGBANK_ID>
DB07558

>  <COMMON_NAME>
acetylleucyl-leucyl-norleucinal

>  <CAS_NUMBER>
110044-82-1

>  <SYNONYMS>
Ac-Leu-leu-nle-al; Acetyl-leucyl-leucyl-norleucine-aldehyde; Acetylleucyl-leucyl-norleucinal; N-Ac-Leu-leu-norleucinal; N-acetylleucylleucylnorleucinal

$$$$
