
 OpenBabel10282417072D

 56 58  0  0  0  0  0  0  0  0999 V2000
    2.1433    3.3000    0.0000 C   0  0  0  0  0  0  0  0  0  0  0  0
    1.4289    2.8875    0.0000 C   0  0  0  0  0  0  0  0  0  0  0  0
    1.4289    2.0625    0.0000 C   0  0  0  0  0  0  0  0  0  0  0  0
    2.1433    1.6500    0.0000 C   0  0  0  0  0  0  0  0  0  0  0  0
    2.8578    2.0625    0.0000 C   0  0  0  0  0  0  0  0  0  0  0  0
    2.8578    2.8875    0.0000 C   0  0  0  0  0  0  0  0  0  0  0  0
    3.5723    1.6500    0.0000 C   0  0  0  0  0  0  0  0  0  0  0  0
    4.2868    2.0625    0.0000 N   0  0  0  0  0  0  0  0  0  0  0  0
    4.2868    2.8875    0.0000 C   0  0  0  0  0  0  0  0  0  0  0  0
    3.5723    3.3000    0.0000 N   0  0  0  0  0  0  0  0  0  0  0  0
    5.0013    3.3000    0.0000 N   0  0  0  0  0  0  0  0  0  0  0  0
    3.5723    0.8250    0.0000 N   0  0  0  0  0  0  0  0  0  0  0  0
    0.7144    1.6500    0.0000 C   0  0  0  0  0  0  0  0  0  0  0  0
    0.0000    2.0625    0.0000 C   0  0  0  0  0  0  0  0  0  0  0  0
   -0.7144    1.6500    0.0000 C   0  0  0  0  0  0  0  0  0  0  0  0
   -1.4289    2.0625    0.0000 C   0  0  0  0  0  0  0  0  0  0  0  0
   -2.1434    1.6500    0.0000 C   0  0  0  0  0  0  0  0  0  0  0  0
   -2.1434    0.8250    0.0000 C   0  0  0  0  0  0  0  0  0  0  0  0
   -1.4289    0.4125    0.0000 C   0  0  0  0  0  0  0  0  0  0  0  0
   -0.7144    0.8250    0.0000 C   0  0  0  0  0  0  0  0  0  0  0  0
   -2.8578    0.4125    0.0000 C   0  0  0  0  0  0  0  0  0  0  0  0
   -2.8578   -0.4124    0.0000 N   0  0  0  0  0  0  0  0  0  0  0  0
   -3.5723    0.8250    0.0000 O   0  0  0  0  0  0  0  0  0  0  0  0
   -3.5723   -0.8249    0.0000 C   0  0  3  0  0  0  0  0  0  0  0  0
   -3.5723   -1.6500    0.0000 C   0  0  0  0  0  0  0  0  0  0  0  0
   -4.2868   -2.0624    0.0000 C   0  0  0  0  0  0  0  0  0  0  0  0
   -4.2868   -0.4124    0.0000 C   0  0  0  0  0  0  0  0  0  0  0  0
   -5.0013   -0.8249    0.0000 O   0  0  0  0  0  0  0  0  0  0  0  0
   -4.2868    0.4125    0.0000 O   0  0  0  0  0  0  0  0  0  0  0  0
   -4.2868   -2.8875    0.0000 C   0  0  0  0  0  0  0  0  0  0  0  0
   -5.0013   -1.6500    0.0000 C   0  0  0  0  0  0  0  0  0  0  0  0
   -5.0013   -3.3000    0.0000 O   0  0  0  0  0  0  0  0  0  0  0  0
   -3.5723   -3.3000    0.0000 O   0  0  0  0  0  0  0  0  0  0  0  0
    2.1433    4.3320    0.0000 H   0  0  0  0  0  0  0  0  0  0  0  0
    0.5352    3.4035    0.0000 H   0  0  0  0  0  0  0  0  0  0  0  0
    2.1433    0.6180    0.0000 H   0  0  0  0  0  0  0  0  0  0  0  0
    5.8539    2.8077    0.0000 H   0  0  0  0  0  0  0  0  0  0  0  0
    5.0013    4.2845    0.0000 H   0  0  0  0  0  0  0  0  0  0  0  0
    2.7197    0.3327    0.0000 H   0  0  0  0  0  0  0  0  0  0  0  0
    4.4249    0.3327    0.0000 H   0  0  0  0  0  0  0  0  0  0  0  0
    0.7144    0.5800    0.0000 H   0  0  0  0  0  0  0  0  0  0  0  0
   -0.2123    1.1150    0.0000 H   0  0  0  0  0  0  0  0  0  0  0  0
    0.0000    3.1325    0.0000 H   0  0  0  0  0  0  0  0  0  0  0  0
   -0.9267    2.5975    0.0000 H   0  0  0  0  0  0  0  0  0  0  0  0
   -1.4289    3.0945    0.0000 H   0  0  0  0  0  0  0  0  0  0  0  0
   -3.0371    2.1660    0.0000 H   0  0  0  0  0  0  0  0  0  0  0  0
   -1.4289   -0.6195    0.0000 H   0  0  0  0  0  0  0  0  0  0  0  0
    0.1793    0.3090    0.0000 H   0  0  0  0  0  0  0  0  0  0  0  0
   -2.0052   -0.9047    0.0000 H   0  0  0  0  0  0  0  0  0  0  0  0
   -2.6457   -1.3599    0.0000 H   0  0  0  0  0  0  0  0  0  0  0  0
   -2.6457   -2.1851    0.0000 H   0  0  0  0  0  0  0  0  0  0  0  0
   -3.5724   -2.7200    0.0000 H   0  0  0  0  0  0  0  0  0  0  0  0
   -5.8128   -0.3564    0.0000 H   0  0  0  0  0  0  0  0  0  0  0  0
   -5.0014   -0.6180    0.0000 H   0  0  0  0  0  0  0  0  0  0  0  0
   -5.8950   -2.1661    0.0000 H   0  0  0  0  0  0  0  0  0  0  0  0
   -3.5723   -4.2370    0.0000 H   0  0  0  0  0  0  0  0  0  0  0  0
  1  2  1  0  0  0  0
  1  6  2  0  0  0  0
  1 34  1  0  0  0  0
  2  3  2  0  0  0  0
  2 35  1  0  0  0  0
  3  4  1  0  0  0  0
  3 13  1  0  0  0  0
  4  5  2  0  0  0  0
  4 36  1  0  0  0  0
  5  6  1  0  0  0  0
  5  7  1  0  0  0  0
  6 10  1  0  0  0  0
  7  8  2  0  0  0  0
  7 12  1  0  0  0  0
  8  9  1  0  0  0  0
  9 10  2  0  0  0  0
  9 11  1  0  0  0  0
 11 37  1  0  0  0  0
 11 38  1  0  0  0  0
 12 39  1  0  0  0  0
 12 40  1  0  0  0  0
 13 14  1  0  0  0  0
 13 41  1  0  0  0  0
 13 42  1  0  0  0  0
 14 15  1  0  0  0  0
 14 43  1  0  0  0  0
 14 44  1  0  0  0  0
 16 17  1  0  0  0  0
 16 15  2  0  0  0  0
 16 45  1  0  0  0  0
 17 18  2  0  0  0  0
 17 46  1  0  0  0  0
 18 19  1  0  0  0  0
 18 21  1  0  0  0  0
 19 20  2  0  0  0  0
 19 47  1  0  0  0  0
 20 15  1  0  0  0  0
 20 48  1  0  0  0  0
 21 22  1  0  0  0  0
 21 23  2  0  0  0  0
 22 24  1  0  0  0  0
 22 49  1  0  0  0  0
 24 25  1  0  0  0  0
 24 27  1  0  0  0  0
 24 50  1  0  0  0  0
 25 26  1  0  0  0  0
 25 51  1  0  0  0  0
 25 52  1  0  0  0  0
 26 30  1  0  0  0  0
 26 31  2  0  0  0  0
 27 28  1  0  0  0  0
 27 29  2  0  0  0  0
 28 53  1  0  0  0  0
 30 32  2  0  0  0  0
 30 33  1  0  0  0  0
 31 54  1  0  0  0  0
 31 55  1  0  0  0  0
 33 56  1  0  0  0  0
M  END
>  <DRUGBANK_ID>
DB05616

>  <COMMON_NAME>
4'-Methylene-5,8,10-trideazaaminopterin

>  <CAS_NUMBER>
238074-89-0

>  <UNII>
8Y3RH62XPB

$$$$
