
 OpenBabel10282417072D

 29 31  0  0  0  0  0  0  0  0999 V2000
    4.0668   -0.1271    0.0000 C   0  0  0  0  0  0  0  0  0  0  0  0
    4.0668    0.6979    0.0000 C   0  0  0  0  0  0  0  0  0  0  0  0
    4.7812    1.1104    0.0000 C   0  0  0  0  0  0  0  0  0  0  0  0
    4.7812    1.9354    0.0000 C   0  0  0  0  0  0  0  0  0  0  0  0
    5.4957    2.3479    0.0000 O   0  0  0  0  0  0  0  0  0  0  0  0
    4.0668    2.3479    0.0000 O   0  0  0  0  0  0  0  0  0  0  0  0
    3.3523    1.9354    0.0000 C   0  0  0  0  0  0  0  0  0  0  0  0
    3.3523    1.1104    0.0000 C   0  0  0  0  0  0  0  0  0  0  0  0
    2.6378    0.6979    0.0000 C   0  0  0  0  0  0  0  0  0  0  0  0
    1.9233    1.1104    0.0000 C   0  0  0  0  0  0  0  0  0  0  0  0
    1.1387    0.8555    0.0000 C   0  0  0  0  0  0  0  0  0  0  0  0
    0.6538    1.5229    0.0000 C   0  0  0  0  0  0  0  0  0  0  0  0
    1.1387    2.1904    0.0000 O   0  0  0  0  0  0  0  0  0  0  0  0
    1.9233    1.9354    0.0000 C   0  0  0  0  0  0  0  0  0  0  0  0
    2.6378    2.3479    0.0000 C   0  0  0  0  0  0  0  0  0  0  0  0
    2.6378    3.1729    0.0000 C   0  0  0  0  0  0  0  0  0  0  0  0
   -0.1712    1.5229    0.0000 C   0  0  0  0  0  0  0  0  0  0  0  0
    3.1402   -0.6621    0.0000 H   0  0  0  0  0  0  0  0  0  0  0  0
    4.9934   -0.6621    0.0000 H   0  0  0  0  0  0  0  0  0  0  0  0
    4.0668   -1.1971    0.0000 H   0  0  0  0  0  0  0  0  0  0  0  0
    5.6749    0.5944    0.0000 H   0  0  0  0  0  0  0  0  0  0  0  0
    2.6378   -0.3341    0.0000 H   0  0  0  0  0  0  0  0  0  0  0  0
    0.8198   -0.1260    0.0000 H   0  0  0  0  0  0  0  0  0  0  0  0
    3.5644    3.7079    0.0000 H   0  0  0  0  0  0  0  0  0  0  0  0
    1.7112    3.7079    0.0000 H   0  0  0  0  0  0  0  0  0  0  0  0
    2.6378    4.2429    0.0000 H   0  0  0  0  0  0  0  0  0  0  0  0
   -0.7062    2.4495    0.0000 H   0  0  0  0  0  0  0  0  0  0  0  0
   -0.7062    0.5963    0.0000 H   0  0  0  0  0  0  0  0  0  0  0  0
   -1.2412    1.5229    0.0000 H   0  0  0  0  0  0  0  0  0  0  0  0
  1  2  1  0  0  0  0
  1 18  1  0  0  0  0
  1 19  1  0  0  0  0
  1 20  1  0  0  0  0
  2  3  2  0  0  0  0
  2  8  1  0  0  0  0
  3  4  1  0  0  0  0
  3 21  1  0  0  0  0
  4  5  2  0  0  0  0
  4  6  1  0  0  0  0
  6  7  1  0  0  0  0
  7  8  2  0  0  0  0
  7 15  1  0  0  0  0
  8  9  1  0  0  0  0
  9 10  2  0  0  0  0
  9 22  1  0  0  0  0
 10 11  1  0  0  0  0
 10 14  1  0  0  0  0
 11 12  2  0  0  0  0
 11 23  1  0  0  0  0
 12 13  1  0  0  0  0
 12 17  1  0  0  0  0
 13 14  1  0  0  0  0
 14 15  2  0  0  0  0
 15 16  1  0  0  0  0
 16 24  1  0  0  0  0
 16 25  1  0  0  0  0
 16 26  1  0  0  0  0
 17 27  1  0  0  0  0
 17 28  1  0  0  0  0
 17 29  1  0  0  0  0
M  END
>  <DRUGBANK_ID>
DB04571

>  <COMMON_NAME>
Trioxsalen

>  <CAS_NUMBER>
3902-71-4

>  <UNII>
Y6UY8OV51T

>  <SYNONYMS>
2',4,8-Trimethylpsoralen; 4,5',8-Trimethylpsoralen; 4,8,5'-Trimethylpsoralen; 6-hydroxy-β,2,7-trimethyl-5-benzofuranacrylic acid, δ-lactone; Trimethylpsoralen; Trioxisaleno; Trioxsalen; Trioxysalen; Trioxysalene; Trioxysalenum; Trisoralen

$$$$
