555
 OpenBabel10282417072D

 23 24  0  0  0  0  0  0  0  0999 V2000
    4.9509    0.9529    0.0000 Cl  0  0  0  0  0  0  0  0  0  0  0  0
    4.9509    2.6029    0.0000 Cl  0  0  0  0  0  0  0  0  0  0  0  0
    4.2365   -0.2846    0.0000 N   0  0  0  0  0  0  0  0  0  0  0  0
    2.8075   -1.1096    0.0000 N   0  0  0  0  0  0  0  0  0  0  0  0
    2.0930    0.1279    0.0000 N   0  0  0  0  0  0  0  0  0  0  0  0
    4.2365   -1.1096    0.0000 N   0  0  0  0  0  0  0  0  0  0  0  0
    3.5220   -2.3472    0.0000 N   0  0  0  0  0  0  0  0  0  0  0  0
    3.5220    0.9529    0.0000 C   0  0  0  0  0  0  0  0  0  0  0  0
    3.5220    0.1279    0.0000 C   0  0  0  0  0  0  0  0  0  0  0  0
    4.2365    1.3654    0.0000 C   0  0  0  0  0  0  0  0  0  0  0  0
    2.8075    1.3654    0.0000 C   0  0  0  0  0  0  0  0  0  0  0  0
    2.8075   -0.2846    0.0000 C   0  0  0  0  0  0  0  0  0  0  0  0
    4.2365    2.1904    0.0000 C   0  0  0  0  0  0  0  0  0  0  0  0
    2.8075    2.1904    0.0000 C   0  0  0  0  0  0  0  0  0  0  0  0
    3.5220    2.6029    0.0000 C   0  0  0  0  0  0  0  0  0  0  0  0
    3.5220   -1.5222    0.0000 C   0  0  0  0  0  0  0  0  0  0  0  0
    2.0930    1.1124    0.0000 H   0  0  0  0  0  0  0  0  0  0  0  0
    1.2404   -0.3644    0.0000 H   0  0  0  0  0  0  0  0  0  0  0  0
    2.6694   -2.8395    0.0000 H   0  0  0  0  0  0  0  0  0  0  0  0
    4.3746   -2.8394    0.0000 H   0  0  0  0  0  0  0  0  0  0  0  0
    1.9138    0.8494    0.0000 H   0  0  0  0  0  0  0  0  0  0  0  0
    1.9138    2.7064    0.0000 H   0  0  0  0  0  0  0  0  0  0  0  0
    3.5220    3.6349    0.0000 H   0  0  0  0  0  0  0  0  0  0  0  0
  1 10  1  0  0  0  0
  2 13  1  0  0  0  0
  3  6  2  0  0  0  0
  3  9  1  0  0  0  0
  4 12  1  0  0  0  0
  4 16  2  0  0  0  0
  5 12  1  0  0  0  0
  5 17  1  0  0  0  0
  5 18  1  0  0  0  0
  6 16  1  0  0  0  0
  7 16  1  0  0  0  0
  7 19  1  0  0  0  0
  7 20  1  0  0  0  0
  8  9  1  0  0  0  0
  8 10  2  0  0  0  0
  8 11  1  0  0  0  0
  9 12  2  0  0  0  0
 10 13  1  0  0  0  0
 11 14  2  0  0  0  0
 11 21  1  0  0  0  0
 13 15  2  0  0  0  0
 14 15  1  0  0  0  0
 14 22  1  0  0  0  0
 15 23  1  0  0  0  0
M  END
>  <DRUGBANK_ID>
DB00555

>  <SECONDARY_ACCESSION_NUMBERS>
APRD00570

>  <COMMON_NAME>
Lamotrigine

>  <CAS_NUMBER>
84057-84-1

>  <UNII>
U3H27498KS

>  <SYNONYMS>
3,5-diamino-6-(2,3-dichlorophenyl)-1,2,4-triazine; Lamotrigina; Lamotrigine; Lamotriginum

$$$$
