
 OpenBabel10282417072D

 42 43  0  0  1  0  0  0  0  0999 V2000
    1.3501    4.9592    0.0000 C   0  0  0  0  0  0  0  0  0  0  0  0
   -2.1360    3.2034    0.0000 C   0  0  0  0  0  0  0  0  0  0  0  0
   -2.0363    6.0596    0.0000 C   0  0  0  0  0  0  0  0  0  0  0  0
    0.6086    4.5976    0.0000 C   0  0  0  0  0  0  0  0  0  0  0  0
   -0.8744    1.3993    0.0000 C   0  0  0  0  0  0  0  0  0  0  0  0
   -0.1599    1.8118    0.0000 C   0  0  0  0  0  0  0  0  0  0  0  0
   -1.5888    1.8118    0.0000 C   0  0  0  0  0  0  0  0  0  0  0  0
   -0.1599    2.6368    0.0000 C   0  0  0  0  0  0  0  0  0  0  0  0
   -1.5888    2.6368    0.0000 C   0  0  0  0  0  0  0  0  0  0  0  0
   -0.4372    4.5739    0.0000 C   0  0  0  0  0  0  0  0  0  0  0  0
   -0.8245    5.3024    0.0000 C   0  0  0  0  0  0  0  0  0  0  0  0
   -2.0862    4.6315    0.0000 C   0  0  0  0  0  0  0  0  0  0  0  0
   -1.6989    3.9031    0.0000 C   0  0  2  0  0  0  0  0  0  0  0  0
   -0.8744    3.0493    0.0000 C   0  0  0  0  0  0  0  0  0  0  0  0
    0.5511    3.7746    0.0000 C   0  0  0  0  0  0  0  0  0  0  0  0
   -0.8744    3.8743    0.0000 C   0  0  1  0  0  0  0  0  0  0  0  0
   -1.6490    5.3311    0.0000 N   0  0  0  0  0  0  0  0  0  0  0  0
    1.2351    3.3133    0.0000 O   0  0  0  0  0  0  0  0  0  0  0  0
   -0.1904    3.4129    0.0000 O   0  0  0  0  0  0  0  0  0  0  0  0
   -2.5234    3.9319    0.0000 H   0  0  0  0  0  0  0  0  0  0  0  0
    2.2371    4.3608    0.0000 H   0  0  0  0  0  0  0  0  0  0  0  0
    1.4248    6.0266    0.0000 H   0  0  0  0  0  0  0  0  0  0  0  0
    2.3118    5.4282    0.0000 H   0  0  0  0  0  0  0  0  0  0  0  0
   -3.2054    3.2406    0.0000 H   0  0  0  0  0  0  0  0  0  0  0  0
   -1.6335    2.2587    0.0000 H   0  0  0  0  0  0  0  0  0  0  0  0
   -2.7029    2.2959    0.0000 H   0  0  0  0  0  0  0  0  0  0  0  0
   -1.4692    6.9670    0.0000 H   0  0  0  0  0  0  0  0  0  0  0  0
   -3.1056    6.0970    0.0000 H   0  0  0  0  0  0  0  0  0  0  0  0
   -2.5386    7.0044    0.0000 H   0  0  0  0  0  0  0  0  0  0  0  0
   -0.2785    5.1959    0.0000 H   0  0  0  0  0  0  0  0  0  0  0  0
   -0.3531    4.1285    0.0000 H   0  0  0  0  0  0  0  0  0  0  0  0
   -0.8744    0.3673    0.0000 H   0  0  0  0  0  0  0  0  0  0  0  0
    0.7338    1.2958    0.0000 H   0  0  0  0  0  0  0  0  0  0  0  0
   -2.4825    1.2958    0.0000 H   0  0  0  0  0  0  0  0  0  0  0  0
    0.7338    3.1528    0.0000 H   0  0  0  0  0  0  0  0  0  0  0  0
   -2.4825    3.1528    0.0000 H   0  0  0  0  0  0  0  0  0  0  0  0
    0.6321    4.5365    0.0000 H   0  0  0  0  0  0  0  0  0  0  0  0
    0.0651    3.6291    0.0000 H   0  0  0  0  0  0  0  0  0  0  0  0
   -0.2575    6.2098    0.0000 H   0  0  0  0  0  0  0  0  0  0  0  0
   -1.3269    6.2471    0.0000 H   0  0  0  0  0  0  0  0  0  0  0  0
   -3.1555    4.6689    0.0000 H   0  0  0  0  0  0  0  0  0  0  0  0
   -2.5885    5.5763    0.0000 H   0  0  0  0  0  0  0  0  0  0  0  0
  1 21  1  0  0  0  0
  1 22  1  0  0  0  0
  1 23  1  0  0  0  0
  2 24  1  0  0  0  0
  2 25  1  0  0  0  0
  2 26  1  0  0  0  0
  3 27  1  0  0  0  0
  3 28  1  0  0  0  0
  3 29  1  0  0  0  0
  4  1  1  0  0  0  0
  4 30  1  0  0  0  0
  4 31  1  0  0  0  0
  5 32  1  0  0  0  0
  6  5  2  0  0  0  0
  6 33  1  0  0  0  0
  7  5  1  0  0  0  0
  7 34  1  0  0  0  0
  8  6  1  0  0  0  0
  8 35  1  0  0  0  0
  9  7  2  0  0  0  0
  9 36  1  0  0  0  0
 10 37  1  0  0  0  0
 10 38  1  0  0  0  0
 11 10  1  0  0  0  0
 11 39  1  0  0  0  0
 11 40  1  0  0  0  0
 12 41  1  0  0  0  0
 12 42  1  0  0  0  0
 13  2  1  0  0  0  0
 13 12  1  0  0  0  0
 13 20  1  1  0  0  0
 14  8  2  0  0  0  0
 14  9  1  0  0  0  0
 15  4  1  0  0  0  0
 16 10  1  0  0  0  0
 16 13  1  0  0  0  0
 16 14  1  0  0  0  0
 16 19  1  1  0  0  0
 17  3  1  0  0  0  0
 17 11  1  0  0  0  0
 17 12  1  0  0  0  0
 18 15  2  0  0  0  0
 19 15  1  0  0  0  0
M  END
>  <DRUGBANK_ID>
DB01473

>  <COMMON_NAME>
Betaprodine

>  <CAS_NUMBER>
468-59-7

>  <UNII>
21J54X4Z4Z

>  <SYNONYMS>
beta-Prodine; Betaprodina; Betaprodine; Betaprodinum

$$$$
