
 OpenBabel10282417072D

 63 64  0  0  0  0  0  0  0  0999 V2000
   -0.7144    1.6500    0.0000 C   0  0  0  0  0  0  0  0  0  0  0  0
   -1.4289   -2.0625    0.0000 C   0  0  0  0  0  0  0  0  0  0  0  0
    2.8578    0.4125    0.0000 C   0  0  0  0  0  0  0  0  0  0  0  0
   -3.3881    0.2194    0.0000 C   0  0  0  0  0  0  0  0  0  0  0  0
   -2.3275    0.2194    0.0000 C   0  0  0  0  0  0  0  0  0  0  0  0
    0.7144   -1.6500    0.0000 C   0  0  0  0  0  0  0  0  0  0  0  0
   -3.5723   -1.6500    0.0000 C   0  0  0  0  0  0  0  0  0  0  0  0
   -2.8578   -2.0625    0.0000 C   0  0  0  0  0  0  0  0  0  0  0  0
    0.7144   -0.8250    0.0000 C   0  0  0  0  0  0  0  0  0  0  0  0
    1.4289   -2.0625    0.0000 C   0  0  0  0  0  0  0  0  0  0  0  0
    0.0000    0.4125    0.0000 C   0  0  0  0  0  0  0  0  0  0  0  0
   -1.4289    0.4125    0.0000 C   0  0  0  0  0  0  0  0  0  0  0  0
    0.7144    0.8250    0.0000 C   0  0  0  0  0  0  0  0  0  0  0  0
   -1.4289   -0.4125    0.0000 C   0  0  0  0  0  0  0  0  0  0  0  0
   -3.5723   -0.8250    0.0000 C   0  0  0  0  0  0  0  0  0  0  0  0
    2.1434    1.6500    0.0000 C   0  0  0  0  0  0  0  0  0  0  0  0
    2.1434   -0.8250    0.0000 C   0  0  0  0  0  0  0  0  0  0  0  0
   -0.7144    0.8250    0.0000 C   0  0  0  0  0  0  0  0  0  0  0  0
   -2.1434   -1.6500    0.0000 C   0  0  0  0  0  0  0  0  0  0  0  0
    2.1434    0.8250    0.0000 C   0  0  0  0  0  0  0  0  0  0  0  0
    1.4289   -0.4125    0.0000 C   0  0  0  0  0  0  0  0  0  0  0  0
    2.1434   -1.6500    0.0000 C   0  0  0  0  0  0  0  0  0  0  0  0
    1.4289    0.4125    0.0000 C   0  0  0  0  0  0  0  0  0  0  0  0
   -2.1434   -0.8250    0.0000 C   0  0  0  0  0  0  0  0  0  0  0  0
    1.4289    2.0625    0.0000 C   0  0  0  0  0  0  0  0  0  0  0  0
    2.8578   -2.0625    0.0000 C   0  0  0  0  0  0  0  0  0  0  0  0
   -2.8578   -0.4125    0.0000 C   0  0  0  0  0  0  0  0  0  0  0  0
    0.7144    1.6500    0.0000 O   0  0  0  0  0  0  0  0  0  0  0  0
    1.4289    2.8875    0.0000 O   0  0  0  0  0  0  0  0  0  0  0  0
    2.8578   -2.8875    0.0000 O   0  0  0  0  0  0  0  0  0  0  0  0
    3.5723   -1.6500    0.0000 O   0  0  0  0  0  0  0  0  0  0  0  0
    0.0000   -0.4125    0.0000 H   0  0  0  0  0  0  0  0  0  0  0  0
   -1.7254    1.1823    0.0000 H   0  0  0  0  0  0  0  0  0  0  0  0
    0.0000    1.2375    0.0000 H   0  0  0  0  0  0  0  0  0  0  0  0
   -0.7144   -0.8250    0.0000 H   0  0  0  0  0  0  0  0  0  0  0  0
    2.8578    2.0625    0.0000 H   0  0  0  0  0  0  0  0  0  0  0  0
    0.2122    2.1850    0.0000 H   0  0  0  0  0  0  0  0  0  0  0  0
   -1.6410    2.1850    0.0000 H   0  0  0  0  0  0  0  0  0  0  0  0
   -0.7144    2.7200    0.0000 H   0  0  0  0  0  0  0  0  0  0  0  0
   -1.4289   -3.1325    0.0000 H   0  0  0  0  0  0  0  0  0  0  0  0
   -0.5023   -1.5275    0.0000 H   0  0  0  0  0  0  0  0  0  0  0  0
   -0.5022   -2.5975    0.0000 H   0  0  0  0  0  0  0  0  0  0  0  0
    2.8578   -0.6575    0.0000 H   0  0  0  0  0  0  0  0  0  0  0  0
    3.7845    0.9475    0.0000 H   0  0  0  0  0  0  0  0  0  0  0  0
    3.7844   -0.1225    0.0000 H   0  0  0  0  0  0  0  0  0  0  0  0
   -3.0222    1.2249    0.0000 H   0  0  0  0  0  0  0  0  0  0  0  0
   -4.4418    0.0335    0.0000 H   0  0  0  0  0  0  0  0  0  0  0  0
   -4.0759    1.0390    0.0000 H   0  0  0  0  0  0  0  0  0  0  0  0
   -1.2738    0.0335    0.0000 H   0  0  0  0  0  0  0  0  0  0  0  0
   -2.6934    1.2249    0.0000 H   0  0  0  0  0  0  0  0  0  0  0  0
   -1.6397    1.0390    0.0000 H   0  0  0  0  0  0  0  0  0  0  0  0
   -0.1793   -2.1660    0.0000 H   0  0  0  0  0  0  0  0  0  0  0  0
   -4.4989   -2.1850    0.0000 H   0  0  0  0  0  0  0  0  0  0  0  0
   -4.4989   -1.1150    0.0000 H   0  0  0  0  0  0  0  0  0  0  0  0
   -2.8578   -3.1325    0.0000 H   0  0  0  0  0  0  0  0  0  0  0  0
   -1.9311   -2.5975    0.0000 H   0  0  0  0  0  0  0  0  0  0  0  0
   -0.1793   -0.3090    0.0000 H   0  0  0  0  0  0  0  0  0  0  0  0
    1.4289   -3.0945    0.0000 H   0  0  0  0  0  0  0  0  0  0  0  0
   -4.4989   -0.2900    0.0000 H   0  0  0  0  0  0  0  0  0  0  0  0
   -3.5723    0.2450    0.0000 H   0  0  0  0  0  0  0  0  0  0  0  0
    3.0371   -0.3090    0.0000 H   0  0  0  0  0  0  0  0  0  0  0  0
    2.2404    3.3560    0.0000 H   0  0  0  0  0  0  0  0  0  0  0  0
    4.3838   -2.1185    0.0000 H   0  0  0  0  0  0  0  0  0  0  0  0
  1 37  1  0  0  0  0
  1 38  1  0  0  0  0
  1 39  1  0  0  0  0
  2 40  1  0  0  0  0
  2 41  1  0  0  0  0
  2 42  1  0  0  0  0
  3 43  1  0  0  0  0
  3 44  1  0  0  0  0
  3 45  1  0  0  0  0
  4 46  1  0  0  0  0
  4 47  1  0  0  0  0
  4 48  1  0  0  0  0
  5 49  1  0  0  0  0
  5 50  1  0  0  0  0
  5 51  1  0  0  0  0
  6 52  1  0  0  0  0
  7 53  1  0  0  0  0
  7 54  1  0  0  0  0
  8  7  1  0  0  0  0
  8 55  1  0  0  0  0
  8 56  1  0  0  0  0
  9  6  2  0  0  0  0
  9 57  1  0  0  0  0
 10  6  1  0  0  0  0
 10 58  1  0  0  0  0
 13 11  1  0  0  0  0
 14 12  2  0  0  0  0
 15  7  1  0  0  0  0
 15 59  1  0  0  0  0
 15 60  1  0  0  0  0
 17 61  1  0  0  0  0
 18  1  1  0  0  0  0
 18 11  2  0  0  0  0
 18 12  1  0  0  0  0
 19  2  1  0  0  0  0
 19  8  1  0  0  0  0
 20  3  1  0  0  0  0
 20 16  2  0  0  0  0
 21  9  1  0  0  0  0
 21 17  2  0  0  0  0
 22 10  2  0  0  0  0
 22 17  1  0  0  0  0
 23 13  2  0  0  0  0
 23 20  1  0  0  0  0
 23 21  1  0  0  0  0
 24 14  1  0  0  0  0
 24 19  2  0  0  0  0
 25 16  1  0  0  0  0
 26 22  1  0  0  0  0
 27  4  1  0  0  0  0
 27  5  1  0  0  0  0
 27 15  1  0  0  0  0
 27 24  1  0  0  0  0
 28 25  2  0  0  0  0
 29 25  1  0  0  0  0
 29 62  1  0  0  0  0
 30 26  2  0  0  0  0
 31 26  1  0  0  0  0
 31 63  1  0  0  0  0
 32 11  1  0  0  0  0
 33 12  1  0  0  0  0
 34 13  1  0  0  0  0
 35 14  1  0  0  0  0
 36 16  1  0  0  0  0
M  END
>  <DRUGBANK_ID>
DB14097

>  <COMMON_NAME>
13-cis-12-(3'-Carboxyphenyl)retinoic acid

>  <CAS_NUMBER>
141948-79-0

>  <UNII>
Y8U3B6ZM8D

$$$$
