SOX
 OpenBabel10282417072D

 44 46  0  0  0  0  0  0  0  0999 V2000
   -0.9005    0.8478    0.0000 O   0  0  0  0  0  0  0  0  0  0  0  0
   -0.3171    0.2644    0.0000 C   0  0  0  0  0  0  0  0  0  0  0  0
    0.5079    0.2644    0.0000 N   0  0  0  0  0  0  0  0  0  0  0  0
    1.2925    0.5193    0.0000 C   0  0  1  0  0  0  0  0  0  0  0  0
    1.5475    1.3040    0.0000 C   0  0  0  0  0  0  0  0  0  0  0  0
    2.3544    1.4755    0.0000 O   0  0  0  0  0  0  0  0  0  0  0  0
    0.9954    1.9171    0.0000 O   0  0  0  0  0  0  0  0  0  0  0  0
    1.7774   -0.1481    0.0000 C   0  0  0  0  0  0  0  0  0  0  0  0
    2.3905    0.4039    0.0000 C   0  0  0  0  0  0  0  0  0  0  0  0
    2.3905   -0.7001    0.0000 C   0  0  0  0  0  0  0  0  0  0  0  0
    1.2925   -0.8155    0.0000 S   0  0  1  0  0  0  0  0  0  0  0  0
    0.5079   -0.5606    0.0000 C   0  0  2  0  0  0  0  0  0  0  0  0
   -0.3171   -0.5606    0.0000 C   0  0  2  0  0  0  0  0  0  0  0  0
   -0.9005   -1.1440    0.0000 N   0  0  0  0  0  0  0  0  0  0  0  0
   -1.6974   -0.9304    0.0000 C   0  0  0  0  0  0  0  0  0  0  0  0
   -1.9109   -0.1335    0.0000 O   0  0  0  0  0  0  0  0  0  0  0  0
   -2.2807   -1.5138    0.0000 C   0  0  0  0  0  0  0  0  0  0  0  0
   -3.0776   -1.3003    0.0000 C   0  0  0  0  0  0  0  0  0  0  0  0
   -3.6610   -1.8836    0.0000 C   0  0  0  0  0  0  0  0  0  0  0  0
   -4.4579   -1.6701    0.0000 C   0  0  0  0  0  0  0  0  0  0  0  0
   -4.6714   -0.8732    0.0000 C   0  0  0  0  0  0  0  0  0  0  0  0
   -4.0880   -0.2899    0.0000 C   0  0  0  0  0  0  0  0  0  0  0  0
   -3.2911   -0.5034    0.0000 C   0  0  0  0  0  0  0  0  0  0  0  0
    1.5475   -1.6002    0.0000 O   0  0  0  0  0  0  0  0  0  0  0  0
    0.8796    0.9322    0.0000 H   0  0  0  0  0  0  0  0  0  0  0  0
    1.9909   -0.9262    0.0000 H   0  0  0  0  0  0  0  0  0  0  0  0
    0.4165   -1.1373    0.0000 H   0  0  0  0  0  0  0  0  0  0  0  0
   -0.8566   -0.3371    0.0000 H   0  0  0  0  0  0  0  0  0  0  0  0
    1.2849    2.8083    0.0000 H   0  0  0  0  0  0  0  0  0  0  0  0
    3.4081    0.0732    0.0000 H   0  0  0  0  0  0  0  0  0  0  0  0
    2.1681    1.4505    0.0000 H   0  0  0  0  0  0  0  0  0  0  0  0
    3.1857    1.1198    0.0000 H   0  0  0  0  0  0  0  0  0  0  0  0
    2.1681   -1.7467    0.0000 H   0  0  0  0  0  0  0  0  0  0  0  0
    3.4081   -0.3694    0.0000 H   0  0  0  0  0  0  0  0  0  0  0  0
    3.1857   -1.4160    0.0000 H   0  0  0  0  0  0  0  0  0  0  0  0
   -0.6457   -2.0950    0.0000 H   0  0  0  0  0  0  0  0  0  0  0  0
   -2.0037   -2.5473    0.0000 H   0  0  0  0  0  0  0  0  0  0  0  0
   -3.0373   -2.2704    0.0000 H   0  0  0  0  0  0  0  0  0  0  0  0
   -3.3939   -2.8804    0.0000 H   0  0  0  0  0  0  0  0  0  0  0  0
   -5.1876   -2.3998    0.0000 H   0  0  0  0  0  0  0  0  0  0  0  0
   -5.6682   -0.6060    0.0000 H   0  0  0  0  0  0  0  0  0  0  0  0
   -4.3551    0.7069    0.0000 H   0  0  0  0  0  0  0  0  0  0  0  0
   -2.5614    0.2263    0.0000 H   0  0  0  0  0  0  0  0  0  0  0  0
    0.8985   -2.3211    0.0000 H   0  0  0  0  0  0  0  0  0  0  0  0
  1  2  2  0  0  0  0
  2 13  1  0  0  0  0
  3  2  1  0  0  0  0
  3  4  1  0  0  0  0
  3 12  1  0  0  0  0
  4  5  1  0  0  0  0
  4  8  1  0  0  0  0
  4 25  1  6  0  0  0
  5  6  2  0  0  0  0
  5  7  1  0  0  0  0
  7 29  1  0  0  0  0
  8  9  1  0  0  0  0
  8 10  1  0  0  0  0
  8 11  1  0  0  0  0
  9 30  1  0  0  0  0
  9 31  1  0  0  0  0
  9 32  1  0  0  0  0
 10 33  1  0  0  0  0
 10 34  1  0  0  0  0
 10 35  1  0  0  0  0
 11 12  1  0  0  0  0
 11 24  1  0  0  0  0
 11 26  1  1  0  0  0
 12 13  1  0  0  0  0
 12 27  1  1  0  0  0
 13 14  1  0  0  0  0
 13 28  1  1  0  0  0
 14 15  1  0  0  0  0
 14 36  1  0  0  0  0
 15 16  2  0  0  0  0
 15 17  1  0  0  0  0
 17 18  1  0  0  0  0
 17 37  1  0  0  0  0
 17 38  1  0  0  0  0
 18 19  2  0  0  0  0
 18 23  1  0  0  0  0
 19 20  1  0  0  0  0
 19 39  1  0  0  0  0
 20 21  2  0  0  0  0
 20 40  1  0  0  0  0
 21 22  1  0  0  0  0
 21 41  1  0  0  0  0
 22 23  2  0  0  0  0
 22 42  1  0  0  0  0
 23 43  1  0  0  0  0
 24 44  1  0  0  0  0
M  END
>  <DRUGBANK_ID>
DB08559

>  <COMMON_NAME>
N-[(2S,4S,6R)-2-(dihydroxymethyl)-4-hydroxy-3,3-dimethyl-7-oxo-4lambda~4~-thia-1-azabicyclo[3.2.0]hept-6-yl]-2-phenylacetamide

$$$$
