
 OpenBabel10282417072D

 52 54  0  0  0  0  0  0  0  0999 V2000
    9.2309   -1.0079    0.0000 C   0  0  0  0  0  0  0  0  0  0  0  0
    4.2868   -0.8250    0.0000 C   0  0  0  0  0  0  0  0  0  0  0  0
    8.4064   -0.9792    0.0000 C   0  0  0  0  0  0  0  0  0  0  0  0
    9.6182   -1.7364    0.0000 C   0  0  0  0  0  0  0  0  0  0  0  0
    3.5724   -0.4125    0.0000 C   0  0  0  0  0  0  0  0  0  0  0  0
    2.1434    0.4125    0.0000 C   0  0  0  0  0  0  0  0  0  0  0  0
    1.4289   -0.8250    0.0000 C   0  0  0  0  0  0  0  0  0  0  0  0
    1.4289    0.8250    0.0000 C   0  0  0  0  0  0  0  0  0  0  0  0
    0.7145   -0.4125    0.0000 C   0  0  0  0  0  0  0  0  0  0  0  0
    7.1447   -0.8250    0.0000 C   0  0  0  0  0  0  0  0  0  0  0  0
    6.4302   -2.0625    0.0000 C   0  0  0  0  0  0  0  0  0  0  0  0
    5.0013   -0.4125    0.0000 C   0  0  0  0  0  0  0  0  0  0  0  0
    6.4302   -0.4125    0.0000 C   0  0  0  0  0  0  0  0  0  0  0  0
    5.7158   -1.6500    0.0000 C   0  0  0  0  0  0  0  0  0  0  0  0
    8.3565   -2.4072    0.0000 C   0  0  0  0  0  0  0  0  0  0  0  0
    2.1434   -0.4125    0.0000 C   0  0  0  0  0  0  0  0  0  0  0  0
    7.9692   -1.6788    0.0000 C   0  0  0  0  0  0  0  0  0  0  0  0
    9.1810   -2.4360    0.0000 C   0  0  0  0  0  0  0  0  0  0  0  0
    0.7145    0.4125    0.0000 C   0  0  0  0  0  0  0  0  0  0  0  0
    2.8579   -0.8250    0.0000 C   0  0  0  0  0  0  0  0  0  0  0  0
    7.1447   -1.6500    0.0000 C   0  0  0  0  0  0  0  0  0  0  0  0
    9.5683   -3.1644    0.0000 C   0  0  0  0  0  0  0  0  0  0  0  0
    0.0000    0.8250    0.0000 F   0  0  0  0  0  0  0  0  0  0  0  0
    9.9556   -3.8929    0.0000 F   0  0  0  0  0  0  0  0  0  0  0  0
    8.8399   -3.5518    0.0000 F   0  0  0  0  0  0  0  0  0  0  0  0
   10.2968   -2.7771    0.0000 F   0  0  0  0  0  0  0  0  0  0  0  0
    5.7158   -0.8250    0.0000 N   0  0  0  0  0  0  0  0  0  0  0  0
    2.8579   -1.6500    0.0000 O   0  0  0  0  0  0  0  0  0  0  0  0
    7.5819   -2.3496    0.0000 O   0  0  0  0  0  0  0  0  0  0  0  0
    9.7778   -0.1327    0.0000 H   0  0  0  0  0  0  0  0  0  0  0  0
    4.2868   -1.8950    0.0000 H   0  0  0  0  0  0  0  0  0  0  0  0
    5.2134   -1.3600    0.0000 H   0  0  0  0  0  0  0  0  0  0  0  0
    7.9219   -0.0680    0.0000 H   0  0  0  0  0  0  0  0  0  0  0  0
   10.6496   -1.7725    0.0000 H   0  0  0  0  0  0  0  0  0  0  0  0
    3.5724    0.6575    0.0000 H   0  0  0  0  0  0  0  0  0  0  0  0
    2.6458    0.1225    0.0000 H   0  0  0  0  0  0  0  0  0  0  0  0
    3.0371    0.9285    0.0000 H   0  0  0  0  0  0  0  0  0  0  0  0
    1.4289   -1.8570    0.0000 H   0  0  0  0  0  0  0  0  0  0  0  0
    1.4289    1.8570    0.0000 H   0  0  0  0  0  0  0  0  0  0  0  0
   -0.1792   -0.9285    0.0000 H   0  0  0  0  0  0  0  0  0  0  0  0
    8.0713   -0.2900    0.0000 H   0  0  0  0  0  0  0  0  0  0  0  0
    8.0713   -1.3600    0.0000 H   0  0  0  0  0  0  0  0  0  0  0  0
    6.4302   -3.1325    0.0000 H   0  0  0  0  0  0  0  0  0  0  0  0
    7.3568   -2.5975    0.0000 H   0  0  0  0  0  0  0  0  0  0  0  0
    5.0013    0.6575    0.0000 H   0  0  0  0  0  0  0  0  0  0  0  0
    5.9279    0.1225    0.0000 H   0  0  0  0  0  0  0  0  0  0  0  0
    6.4302    0.6575    0.0000 H   0  0  0  0  0  0  0  0  0  0  0  0
    5.5035    0.1225    0.0000 H   0  0  0  0  0  0  0  0  0  0  0  0
    4.7891   -2.1850    0.0000 H   0  0  0  0  0  0  0  0  0  0  0  0
    4.7892   -1.1150    0.0000 H   0  0  0  0  0  0  0  0  0  0  0  0
    7.8096   -3.2824    0.0000 H   0  0  0  0  0  0  0  0  0  0  0  0
    7.1265   -3.2061    0.0000 H   0  0  0  0  0  0  0  0  0  0  0  0
  1 30  1  0  0  0  0
  2 31  1  0  0  0  0
  2 32  1  0  0  0  0
  3  1  2  0  0  0  0
  3 33  1  0  0  0  0
  4  1  1  0  0  0  0
  4 34  1  0  0  0  0
  5  2  1  0  0  0  0
  5 35  1  0  0  0  0
  5 36  1  0  0  0  0
  6 37  1  0  0  0  0
  7 38  1  0  0  0  0
  8  6  1  0  0  0  0
  8 39  1  0  0  0  0
  9  7  2  0  0  0  0
  9 40  1  0  0  0  0
 10 41  1  0  0  0  0
 10 42  1  0  0  0  0
 11 43  1  0  0  0  0
 11 44  1  0  0  0  0
 12  2  1  0  0  0  0
 12 45  1  0  0  0  0
 12 46  1  0  0  0  0
 13 10  1  0  0  0  0
 13 47  1  0  0  0  0
 13 48  1  0  0  0  0
 14 11  1  0  0  0  0
 14 49  1  0  0  0  0
 14 50  1  0  0  0  0
 15 51  1  0  0  0  0
 16  6  2  0  0  0  0
 16  7  1  0  0  0  0
 17  3  1  0  0  0  0
 17 15  2  0  0  0  0
 18  4  2  0  0  0  0
 18 15  1  0  0  0  0
 19  8  2  0  0  0  0
 19  9  1  0  0  0  0
 20  5  1  0  0  0  0
 20 16  1  0  0  0  0
 21 10  1  0  0  0  0
 21 11  1  0  0  0  0
 21 17  1  0  0  0  0
 22 18  1  0  0  0  0
 23 19  1  0  0  0  0
 24 22  1  0  0  0  0
 25 22  1  0  0  0  0
 26 22  1  0  0  0  0
 27 12  1  0  0  0  0
 27 13  1  0  0  0  0
 27 14  1  0  0  0  0
 28 20  2  0  0  0  0
 29 21  1  0  0  0  0
 29 52  1  0  0  0  0
M  END
>  <DRUGBANK_ID>
DB13552

>  <COMMON_NAME>
Trifluperidol

>  <CAS_NUMBER>
749-13-3

>  <UNII>
R8869Q7R8I

>  <SYNONYMS>
Trifluperidol

$$$$
