
 OpenBabel10282417072D

 53 53  0  0  1  0  0  0  0  0999 V2000
   -0.7145    0.4125    0.0000 O   0  0  0  0  0  0  0  0  0  0  0  0
    0.0000    0.0000    0.0000 C   0  0  0  0  0  0  0  0  0  0  0  0
    0.0000   -0.8250    0.0000 O   0  0  0  0  0  0  0  0  0  0  0  0
   -2.0738   -1.3395    0.0000 C   0  0  3  0  0  0  0  0  0  0  0  0
   -1.4289   -0.8250    0.0000 C   0  0  0  0  0  0  0  0  0  0  0  0
   -2.8783    0.3307    0.0000 C   0  0  3  0  0  0  0  0  0  0  0  0
   -2.0740    0.5143    0.0000 C   0  0  0  0  0  0  0  0  0  0  0  0
   -1.4289    0.0000    0.0000 C   0  0  2  0  0  0  0  0  0  0  0  0
   -1.9509   -0.1194    0.0000 N   0  3  0  0  0  0  0  0  0  0  0  0
   -1.2473    1.5548    0.0000 Br  0  5  0  0  0  0  0  0  0  0  0  0
   -3.2908   -0.3838    0.0000 C   0  0  0  0  0  0  0  0  0  0  0  0
   -2.8707   -1.1260    0.0000 C   0  0  0  0  0  0  0  0  0  0  0  0
   -1.7374    0.6774    0.0000 C   0  0  0  0  0  0  0  0  0  0  0  0
   -1.1540   -0.3330    0.0000 C   0  0  0  0  0  0  0  0  0  0  0  0
    0.7145    0.4125    0.0000 C   0  0  0  0  0  0  0  0  0  0  0  0
    0.7145    1.2375    0.0000 C   0  0  0  0  0  0  0  0  0  0  0  0
    1.4289    0.0000    0.0000 C   0  0  0  0  0  0  0  0  0  0  0  0
    1.4289    1.6500    0.0000 C   0  0  0  0  0  0  0  0  0  0  0  0
    1.4289    2.4750    0.0000 C   0  0  0  0  0  0  0  0  0  0  0  0
    2.1434    0.4125    0.0000 C   0  0  0  0  0  0  0  0  0  0  0  0
    2.8579    0.0000    0.0000 C   0  0  0  0  0  0  0  0  0  0  0  0
   -1.5619   -0.3999    0.0000 H   0  0  0  0  0  0  0  0  0  0  0  0
   -0.4648   -1.2892    0.0000 H   0  0  0  0  0  0  0  0  0  0  0  0
   -0.5229   -0.2557    0.0000 H   0  0  0  0  0  0  0  0  0  0  0  0
   -1.8152    0.2093    0.0000 H   0  0  0  0  0  0  0  0  0  0  0  0
   -1.8360    1.5575    0.0000 H   0  0  0  0  0  0  0  0  0  0  0  0
   -1.0641    0.8678    0.0000 H   0  0  0  0  0  0  0  0  0  0  0  0
   -0.5022   -0.5350    0.0000 H   0  0  0  0  0  0  0  0  0  0  0  0
   -4.3608   -0.3792    0.0000 H   0  0  0  0  0  0  0  0  0  0  0  0
   -3.8317   -1.3070    0.0000 H   0  0  0  0  0  0  0  0  0  0  0  0
   -3.5257   -1.9721    0.0000 H   0  0  0  0  0  0  0  0  0  0  0  0
   -3.9379   -1.0492    0.0000 H   0  0  0  0  0  0  0  0  0  0  0  0
   -0.7039    0.9543    0.0000 H   0  0  0  0  0  0  0  0  0  0  0  0
   -2.4940    1.4340    0.0000 H   0  0  0  0  0  0  0  0  0  0  0  0
   -1.4605    1.7109    0.0000 H   0  0  0  0  0  0  0  0  0  0  0  0
   -0.8771   -1.3666    0.0000 H   0  0  0  0  0  0  0  0  0  0  0  0
   -0.3973    0.4235    0.0000 H   0  0  0  0  0  0  0  0  0  0  0  0
   -0.1205   -0.6100    0.0000 H   0  0  0  0  0  0  0  0  0  0  0  0
    1.6412    0.9475    0.0000 H   0  0  0  0  0  0  0  0  0  0  0  0
   -0.2122    1.7725    0.0000 H   0  0  0  0  0  0  0  0  0  0  0  0
    0.7145    2.3075    0.0000 H   0  0  0  0  0  0  0  0  0  0  0  0
    1.4289   -1.0700    0.0000 H   0  0  0  0  0  0  0  0  0  0  0  0
    2.3555   -0.5350    0.0000 H   0  0  0  0  0  0  0  0  0  0  0  0
    2.3556    1.1150    0.0000 H   0  0  0  0  0  0  0  0  0  0  0  0
    2.3555    2.1850    0.0000 H   0  0  0  0  0  0  0  0  0  0  0  0
    2.3555    3.0100    0.0000 H   0  0  0  0  0  0  0  0  0  0  0  0
    0.5023    3.0100    0.0000 H   0  0  0  0  0  0  0  0  0  0  0  0
    1.4289    3.5450    0.0000 H   0  0  0  0  0  0  0  0  0  0  0  0
    2.1434    1.4825    0.0000 H   0  0  0  0  0  0  0  0  0  0  0  0
    3.0700    0.9475    0.0000 H   0  0  0  0  0  0  0  0  0  0  0  0
    2.8579   -1.0700    0.0000 H   0  0  0  0  0  0  0  0  0  0  0  0
    3.7845    0.5350    0.0000 H   0  0  0  0  0  0  0  0  0  0  0  0
    3.7846   -0.5350    0.0000 H   0  0  0  0  0  0  0  0  0  0  0  0
  2  1  1  0  0  0  0
  2  3  2  0  0  0  0
  2 15  1  0  0  0  0
  4  9  1  0  0  0  0
  4 12  1  0  0  0  0
  4 22  1  0  0  0  0
  5  4  1  0  0  0  0
  5 23  1  0  0  0  0
  5 24  1  0  0  0  0
  6  9  1  0  0  0  0
  6 11  1  0  0  0  0
  6 25  1  0  0  0  0
  7  6  1  0  0  0  0
  7  8  1  0  0  0  0
  7 26  1  0  0  0  0
  7 27  1  0  0  0  0
  8  1  1  0  0  0  0
  8  5  1  0  0  0  0
  8 28  1  1  0  0  0
  9 13  1  0  0  0  0
  9 14  1  0  0  0  0
 11 29  1  0  0  0  0
 11 30  1  0  0  0  0
 12 11  1  0  0  0  0
 12 31  1  0  0  0  0
 12 32  1  0  0  0  0
 13 33  1  0  0  0  0
 13 34  1  0  0  0  0
 13 35  1  0  0  0  0
 14 36  1  0  0  0  0
 14 37  1  0  0  0  0
 14 38  1  0  0  0  0
 15 16  1  0  0  0  0
 15 17  1  0  0  0  0
 15 39  1  0  0  0  0
 16 18  1  0  0  0  0
 16 40  1  0  0  0  0
 16 41  1  0  0  0  0
 17 20  1  0  0  0  0
 17 42  1  0  0  0  0
 17 43  1  0  0  0  0
 18 19  1  0  0  0  0
 18 44  1  0  0  0  0
 18 45  1  0  0  0  0
 19 46  1  0  0  0  0
 19 47  1  0  0  0  0
 19 48  1  0  0  0  0
 20 21  1  0  0  0  0
 20 49  1  0  0  0  0
 20 50  1  0  0  0  0
 21 51  1  0  0  0  0
 21 52  1  0  0  0  0
 21 53  1  0  0  0  0
M  CHG  2   9   1  10  -1
M  END
>  <DRUGBANK_ID>
DB00517

>  <SECONDARY_ACCESSION_NUMBERS>
APRD00800

>  <COMMON_NAME>
Anisotropine methylbromide

>  <CAS_NUMBER>
80-50-2

>  <UNII>
62M960DHIL

>  <SYNONYMS>
8-Methyl-3-(2-propylpentanoyloxy)tropinium bromide; 8-Methyltropinium bromide 2-propylpentanoate; 8-Methyltropinium bromide 2-propylvalerate; Anisotropine methobromide; Anisotropine methylbromide; endo-8,8-Dimethyl-3-((1-oxo-2-propylpentyl)oxy)-8-azoniabicyclo(3.2.1)octane bromide; MÃ©thylbromure d'octatropine; Methyloctatropine bromide; Metilbromuro de octatropina; Octatropine methylbromide; Octatropini methylbromidum

$$$$
