
 OpenBabel10282417072D

 52 55  0  0  1  0  0  0  0  0999 V2000
    1.0015    3.2506    0.0000 C   0  0  0  0  0  0  0  0  0  0  0  0
    1.7552    2.9150    0.0000 C   0  0  0  0  0  0  0  0  0  0  0  0
    2.4226    3.3999    0.0000 C   0  0  0  0  0  0  0  0  0  0  0  0
    1.8414    2.0945    0.0000 C   0  0  1  0  0  0  0  0  0  0  0  0
    2.0964    1.3099    0.0000 C   0  0  0  0  0  0  0  0  0  0  0  0
    1.4289    0.8250    0.0000 C   0  0  0  0  0  0  0  0  0  0  0  0
    0.7615    1.3099    0.0000 N   0  0  0  0  0  0  0  0  0  0  0  0
    1.0164    2.0945    0.0000 O   0  0  0  0  0  0  0  0  0  0  0  0
    1.4289    0.0000    0.0000 C   0  0  0  0  0  0  0  0  0  0  0  0
    2.1434   -0.4125    0.0000 C   0  0  0  0  0  0  0  0  0  0  0  0
    2.8579    0.0000    0.0000 C   0  0  0  0  0  0  0  0  0  0  0  0
    3.5724   -0.4125    0.0000 C   0  0  0  0  0  0  0  0  0  0  0  0
    3.5724   -1.2375    0.0000 C   0  0  0  0  0  0  0  0  0  0  0  0
    2.8579   -1.6500    0.0000 C   0  0  0  0  0  0  0  0  0  0  0  0
    2.1434   -1.2375    0.0000 C   0  0  0  0  0  0  0  0  0  0  0  0
    1.4289   -1.6500    0.0000 C   0  0  0  0  0  0  0  0  0  0  0  0
    0.7145   -1.2375    0.0000 C   0  0  0  0  0  0  0  0  0  0  0  0
    0.7145   -0.4125    0.0000 N   0  0  0  0  0  0  0  0  0  0  0  0
    2.6484    2.2661    0.0000 C   0  0  0  0  0  0  0  0  0  0  0  0
    3.2004    1.6530    0.0000 O   0  0  0  0  0  0  0  0  0  0  0  0
    2.9034    3.0507    0.0000 N   0  0  0  0  0  0  0  0  0  0  0  0
    3.7103    3.2222    0.0000 C   0  0  1  0  0  0  0  0  0  0  0  0
    4.0459    3.9759    0.0000 C   0  0  0  0  0  0  0  0  0  0  0  0
    4.8664    3.8897    0.0000 C   0  0  0  0  0  0  0  0  0  0  0  0
    5.4184    4.5028    0.0000 O   0  0  0  0  0  0  0  0  0  0  0  0
    5.0379    3.0827    0.0000 O   0  0  0  0  0  0  0  0  0  0  0  0
    4.3234    2.6702    0.0000 C   0  0  2  0  0  0  0  0  0  0  0  0
    4.6511    1.9130    0.0000 C   0  0  0  0  0  0  0  0  0  0  0  0
    4.1592    1.2507    0.0000 F   0  0  0  0  0  0  0  0  0  0  0  0
    3.8455    1.9977    0.0000 O   0  0  0  0  0  0  0  0  0  0  0  0
    0.8897    4.3147    0.0000 H   0  0  0  0  0  0  0  0  0  0  0  0
    0.1358    2.6217    0.0000 H   0  0  0  0  0  0  0  0  0  0  0  0
    0.0240    3.6858    0.0000 H   0  0  0  0  0  0  0  0  0  0  0  0
    2.7327    2.4798    0.0000 H   0  0  0  0  0  0  0  0  0  0  0  0
    3.4001    2.9647    0.0000 H   0  0  0  0  0  0  0  0  0  0  0  0
    2.3107    4.4640    0.0000 H   0  0  0  0  0  0  0  0  0  0  0  0
    3.2882    4.0288    0.0000 H   0  0  0  0  0  0  0  0  0  0  0  0
    3.1140    0.9793    0.0000 H   0  0  0  0  0  0  0  0  0  0  0  0
    2.2638    0.2531    0.0000 H   0  0  0  0  0  0  0  0  0  0  0  0
    2.8579    1.0320    0.0000 H   0  0  0  0  0  0  0  0  0  0  0  0
    4.4661    0.1035    0.0000 H   0  0  0  0  0  0  0  0  0  0  0  0
    4.4661   -1.7535    0.0000 H   0  0  0  0  0  0  0  0  0  0  0  0
    2.8579   -2.6820    0.0000 H   0  0  0  0  0  0  0  0  0  0  0  0
    1.4289   -2.6820    0.0000 H   0  0  0  0  0  0  0  0  0  0  0  0
   -0.1792   -1.7535    0.0000 H   0  0  0  0  0  0  0  0  0  0  0  0
    2.2447    3.7824    0.0000 H   0  0  0  0  0  0  0  0  0  0  0  0
    3.0369    4.0538    0.0000 H   0  0  0  0  0  0  0  0  0  0  0  0
    3.5109    4.9025    0.0000 H   0  0  0  0  0  0  0  0  0  0  0  0
    4.6286    4.8733    0.0000 H   0  0  0  0  0  0  0  0  0  0  0  0
    5.7140    1.7900    0.0000 H   0  0  0  0  0  0  0  0  0  0  0  0
    5.0760    0.9310    0.0000 H   0  0  0  0  0  0  0  0  0  0  0  0
    2.8798    2.0890    0.0000 H   0  0  0  0  0  0  0  0  0  0  0  0
  1  2  1  0  0  0  0
  1 31  1  0  0  0  0
  1 32  1  0  0  0  0
  1 33  1  0  0  0  0
  2  3  1  0  0  0  0
  2 34  1  0  0  0  0
  3 35  1  0  0  0  0
  3 36  1  0  0  0  0
  3 37  1  0  0  0  0
  4  2  1  0  0  0  0
  4  5  1  0  0  0  0
  4  8  1  0  0  0  0
  4 19  1  6  0  0  0
  5  6  1  0  0  0  0
  5 38  1  0  0  0  0
  5 39  1  0  0  0  0
  6  7  2  0  0  0  0
  6  9  1  0  0  0  0
  7  8  1  0  0  0  0
  9 10  1  0  0  0  0
  9 18  2  0  0  0  0
 10 11  2  0  0  0  0
 10 15  1  0  0  0  0
 11 12  1  0  0  0  0
 11 40  1  0  0  0  0
 12 13  2  0  0  0  0
 12 41  1  0  0  0  0
 13 14  1  0  0  0  0
 13 42  1  0  0  0  0
 14 15  2  0  0  0  0
 14 43  1  0  0  0  0
 15 16  1  0  0  0  0
 16 17  2  0  0  0  0
 16 44  1  0  0  0  0
 17 18  1  0  0  0  0
 17 45  1  0  0  0  0
 19 20  2  0  0  0  0
 19 21  1  0  0  0  0
 21 46  1  0  0  0  0
 22 21  1  0  0  0  0
 22 23  1  0  0  0  0
 22 27  1  0  0  0  0
 22 47  1  6  0  0  0
 23 24  1  0  0  0  0
 23 48  1  0  0  0  0
 23 49  1  0  0  0  0
 24 25  2  0  0  0  0
 24 26  1  0  0  0  0
 26 27  1  0  0  0  0
 27 28  1  0  0  0  0
 27 30  1  1  0  0  0
 28 29  1  0  0  0  0
 28 50  1  0  0  0  0
 28 51  1  0  0  0  0
 30 52  1  0  0  0  0
M  END
>  <DRUGBANK_ID>
DB12720

>  <COMMON_NAME>
Nivocasan

>  <CAS_NUMBER>
908253-63-4

>  <UNII>
9554OW6MVU

>  <SYNONYMS>
Nivocasan

$$$$
