
 OpenBabel10282417072D

 78 82  0  0  0  0  0  0  0  0999 V2000
    0.4468   -0.7087    0.0000 N   0  0  0  0  0  0  0  0  0  0  0  0
   -0.2956   -0.2961    0.0000 C   0  0  0  0  0  0  0  0  0  0  0  0
   -1.0380   -0.7087    0.0000 C   0  0  0  0  0  0  0  0  0  0  0  0
   -1.7524   -0.2961    0.0000 C   0  0  2  0  0  0  0  0  0  0  0  0
   -1.7524    0.5288    0.0000 N   0  0  0  0  0  0  0  0  0  0  0  0
   -1.0379    0.9412    0.0000 C   0  0  0  0  0  0  0  0  0  0  0  0
   -1.0379    1.7661    0.0000 C   0  0  0  0  0  0  0  0  0  0  0  0
   -2.4669   -0.7086    0.0000 C   0  0  0  0  0  0  0  0  0  0  0  0
   -2.4672   -1.5449    0.0000 C   0  0  0  0  0  0  0  0  0  0  0  0
   -3.1817   -1.9572    0.0000 C   0  0  0  0  0  0  0  0  0  0  0  0
   -3.8961   -1.5448    0.0000 C   0  0  0  0  0  0  0  0  0  0  0  0
   -3.8959   -0.7082    0.0000 C   0  0  0  0  0  0  0  0  0  0  0  0
   -3.1814   -0.2960    0.0000 C   0  0  0  0  0  0  0  0  0  0  0  0
   -0.3320    2.1736    0.0000 C   0  0  0  0  0  0  0  0  0  0  0  0
   -0.3320    2.9985    0.0000 C   0  0  0  0  0  0  0  0  0  0  0  0
   -1.0465    3.4112    0.0000 C   0  0  0  0  0  0  0  0  0  0  0  0
   -1.7521    3.0039    0.0000 C   0  0  0  0  0  0  0  0  0  0  0  0
   -1.7523    2.1789    0.0000 C   0  0  0  0  0  0  0  0  0  0  0  0
   -0.3235    0.5288    0.0000 O   0  0  0  0  0  0  0  0  0  0  0  0
    1.8759   -0.7087    0.0000 C   0  0  0  0  0  0  0  0  0  0  0  0
    1.8759   -1.5337    0.0000 C   0  0  2  0  0  0  0  0  0  0  0  0
    1.1613   -0.2961    0.0000 C   0  0  1  0  0  0  0  0  0  0  0  0
    1.1613   -1.9462    0.0000 C   0  0  0  0  0  0  0  0  0  0  0  0
    0.4468   -1.5337    0.0000 C   0  0  2  0  0  0  0  0  0  0  0  0
    2.5903   -1.9462    0.0000 N   0  0  0  0  0  0  0  0  0  0  0  0
    3.3440   -1.6106    0.0000 C   0  0  0  0  0  0  0  0  0  0  0  0
    2.6766   -2.7666    0.0000 C   0  0  0  0  0  0  0  0  0  0  0  0
    3.8961   -2.2237    0.0000 N   0  0  0  0  0  0  0  0  0  0  0  0
    3.4837   -2.9382    0.0000 N   0  0  0  0  0  0  0  0  0  0  0  0
    2.0635   -3.3187    0.0000 C   0  0  0  0  0  0  0  0  0  0  0  0
    3.5156   -0.8036    0.0000 C   0  0  0  0  0  0  0  0  0  0  0  0
    1.2787   -3.0638    0.0000 C   0  0  0  0  0  0  0  0  0  0  0  0
    2.2350   -4.1257    0.0000 C   0  0  0  0  0  0  0  0  0  0  0  0
    1.4711   -0.9365    0.0000 C   0  0  0  0  0  0  0  0  0  0  0  0
    1.1700   -1.5350    0.0000 C   0  0  0  0  0  0  0  0  0  0  0  0
   -1.4588    4.1257    0.0000 F   0  0  0  0  0  0  0  0  0  0  0  0
   -0.6338    4.1256    0.0000 F   0  0  0  0  0  0  0  0  0  0  0  0
   -0.2956    0.7739    0.0000 H   0  0  0  0  0  0  0  0  0  0  0  0
    0.6266    0.2465    0.0000 H   0  0  0  0  0  0  0  0  0  0  0  0
   -1.0468   -1.7787    0.0000 H   0  0  0  0  0  0  0  0  0  0  0  0
   -1.9669   -1.2398    0.0000 H   0  0  0  0  0  0  0  0  0  0  0  0
   -0.8257    0.2388    0.0000 H   0  0  0  0  0  0  0  0  0  0  0  0
   -2.6050    1.0211    0.0000 H   0  0  0  0  0  0  0  0  0  0  0  0
   -1.0377    2.8361    0.0000 H   0  0  0  0  0  0  0  0  0  0  0  0
   -1.5736   -2.0612    0.0000 H   0  0  0  0  0  0  0  0  0  0  0  0
   -3.1818   -2.9892    0.0000 H   0  0  0  0  0  0  0  0  0  0  0  0
   -4.7899   -2.0607    0.0000 H   0  0  0  0  0  0  0  0  0  0  0  0
   -4.7895   -0.1919    0.0000 H   0  0  0  0  0  0  0  0  0  0  0  0
   -3.1812    0.7360    0.0000 H   0  0  0  0  0  0  0  0  0  0  0  0
    0.5946    1.6386    0.0000 H   0  0  0  0  0  0  0  0  0  0  0  0
    0.5947    2.7086    0.0000 H   0  0  0  0  0  0  0  0  0  0  0  0
    0.5947    3.5334    0.0000 H   0  0  0  0  0  0  0  0  0  0  0  0
   -0.3318    4.0685    0.0000 H   0  0  0  0  0  0  0  0  0  0  0  0
   -2.6787    3.5391    0.0000 H   0  0  0  0  0  0  0  0  0  0  0  0
   -2.6789    2.4691    0.0000 H   0  0  0  0  0  0  0  0  0  0  0  0
   -2.6791    1.6442    0.0000 H   0  0  0  0  0  0  0  0  0  0  0  0
   -1.7527    1.1089    0.0000 H   0  0  0  0  0  0  0  0  0  0  0  0
    2.8026   -0.1737    0.0000 H   0  0  0  0  0  0  0  0  0  0  0  0
    1.8759    0.3613    0.0000 H   0  0  0  0  0  0  0  0  0  0  0  0
    2.8026   -0.9987    0.0000 H   0  0  0  0  0  0  0  0  0  0  0  0
    1.8898   -1.0798    0.0000 H   0  0  0  0  0  0  0  0  0  0  0  0
    1.1613   -3.0162    0.0000 H   0  0  0  0  0  0  0  0  0  0  0  0
    0.2346   -2.4812    0.0000 H   0  0  0  0  0  0  0  0  0  0  0  0
    1.4801   -1.8116    0.0000 H   0  0  0  0  0  0  0  0  0  0  0  0
    1.2684   -4.0347    0.0000 H   0  0  0  0  0  0  0  0  0  0  0  0
    4.5333   -0.4730    0.0000 H   0  0  0  0  0  0  0  0  0  0  0  0
    2.7205   -0.0876    0.0000 H   0  0  0  0  0  0  0  0  0  0  0  0
    3.7381    0.2430    0.0000 H   0  0  0  0  0  0  0  0  0  0  0  0
    1.0561   -2.0172    0.0000 H   0  0  0  0  0  0  0  0  0  0  0  0
    0.4836   -3.7799    0.0000 H   0  0  0  0  0  0  0  0  0  0  0  0
    0.2610   -2.7333    0.0000 H   0  0  0  0  0  0  0  0  0  0  0  0
    1.4398   -4.8416    0.0000 H   0  0  0  0  0  0  0  0  0  0  0  0
    3.2526   -4.4564    0.0000 H   0  0  0  0  0  0  0  0  0  0  0  0
    2.4574   -5.1723    0.0000 H   0  0  0  0  0  0  0  0  0  0  0  0
    2.5411   -0.9448    0.0000 H   0  0  0  0  0  0  0  0  0  0  0  0
    2.0290   -1.8496    0.0000 H   0  0  0  0  0  0  0  0  0  0  0  0
    1.7306   -2.4464    0.0000 H   0  0  0  0  0  0  0  0  0  0  0  0
    2.2390   -1.4894    0.0000 H   0  0  0  0  0  0  0  0  0  0  0  0
  1  2  1  0  0  0  0
  1 22  1  0  0  0  0
  2  3  1  0  0  0  0
  2 38  1  0  0  0  0
  2 39  1  0  0  0  0
  3  4  1  0  0  0  0
  3 40  1  0  0  0  0
  3 41  1  0  0  0  0
  4  5  1  0  0  0  0
  4  8  1  0  0  0  0
  4 42  1  6  0  0  0
  5  6  1  0  0  0  0
  5 43  1  0  0  0  0
  6  7  1  0  0  0  0
  6 19  2  0  0  0  0
  7 14  1  0  0  0  0
  7 18  1  0  0  0  0
  7 44  1  0  0  0  0
  8  9  1  0  0  0  0
  8 13  2  0  0  0  0
  9 10  2  0  0  0  0
  9 45  1  0  0  0  0
 10 11  1  0  0  0  0
 10 46  1  0  0  0  0
 11 12  2  0  0  0  0
 11 47  1  0  0  0  0
 12 13  1  0  0  0  0
 12 48  1  0  0  0  0
 13 49  1  0  0  0  0
 14 15  1  0  0  0  0
 14 50  1  0  0  0  0
 14 51  1  0  0  0  0
 15 16  1  0  0  0  0
 15 52  1  0  0  0  0
 15 53  1  0  0  0  0
 16 17  1  0  0  0  0
 17 18  1  0  0  0  0
 17 54  1  0  0  0  0
 17 55  1  0  0  0  0
 18 56  1  0  0  0  0
 18 57  1  0  0  0  0
 20 58  1  0  0  0  0
 20 59  1  0  0  0  0
 21 20  1  0  0  0  0
 21 25  1  0  0  0  0
 21 60  1  6  0  0  0
 22 20  1  0  0  0  0
 22 34  1  0  0  0  0
 22 61  1  6  0  0  0
 23 21  1  0  0  0  0
 23 62  1  0  0  0  0
 23 63  1  0  0  0  0
 24 23  1  0  0  0  0
 24  1  1  0  0  0  0
 24 35  1  0  0  0  0
 24 64  1  6  0  0  0
 26 25  1  0  0  0  0
 26 31  1  0  0  0  0
 27 25  1  0  0  0  0
 27 30  1  0  0  0  0
 28 26  2  0  0  0  0
 29 27  2  0  0  0  0
 29 28  1  0  0  0  0
 30 32  1  0  0  0  0
 30 33  1  0  0  0  0
 30 65  1  0  0  0  0
 31 66  1  0  0  0  0
 31 67  1  0  0  0  0
 31 68  1  0  0  0  0
 32 69  1  0  0  0  0
 32 70  1  0  0  0  0
 32 71  1  0  0  0  0
 33 72  1  0  0  0  0
 33 73  1  0  0  0  0
 33 74  1  0  0  0  0
 34 35  1  0  0  0  0
 34 75  1  0  0  0  0
 34 76  1  0  0  0  0
 35 77  1  0  0  0  0
 35 78  1  0  0  0  0
 36 16  1  0  0  0  0
 37 16  1  0  0  0  0
M  END
>  <DRUGBANK_ID>
DB04835

>  <COMMON_NAME>
Maraviroc

>  <CAS_NUMBER>
376348-65-1

>  <UNII>
MD6P741W8A

>  <SYNONYMS>
Maraviroc; Maravirocum

$$$$
