2E1
 OpenBabel10282417072D

 45 47  0  0  0  0  0  0  0  0999 V2000
    0.9888    1.3413    0.0000 C   0  0  0  0  0  0  0  0  0  0  0  0
    0.9888    0.5163    0.0000 C   0  0  0  0  0  0  0  0  0  0  0  0
   -0.4402    0.5163    0.0000 C   0  0  0  0  0  0  0  0  0  0  0  0
   -0.4402    1.3413    0.0000 C   0  0  0  0  0  0  0  0  0  0  0  0
    0.2743    0.1038    0.0000 N   0  0  0  0  0  0  0  0  0  0  0  0
    0.2743   -0.7212    0.0000 C   0  0  0  0  0  0  0  0  0  0  0  0
   -0.3932   -1.2062    0.0000 C   0  0  0  0  0  0  0  0  0  0  0  0
   -1.1778   -0.9512    0.0000 C   0  0  0  0  0  0  0  0  0  0  0  0
    0.2743    1.7538    0.0000 N   0  0  0  0  0  0  0  0  0  0  0  0
   -1.7909   -1.5033    0.0000 O   0  0  0  0  0  0  0  0  0  0  0  0
   -1.3493   -0.1443    0.0000 N   0  0  0  0  0  0  0  0  0  0  0  0
   -2.1339    0.1107    0.0000 C   0  0  0  0  0  0  0  0  0  0  0  0
   -2.7470   -0.4413    0.0000 C   0  0  0  0  0  0  0  0  0  0  0  0
   -0.1382   -1.9908    0.0000 N   0  0  0  0  0  0  0  0  0  0  0  0
    0.6868   -1.9908    0.0000 N   0  0  0  0  0  0  0  0  0  0  0  0
    0.9417   -1.2062    0.0000 C   0  0  0  0  0  0  0  0  0  0  0  0
    1.7263   -0.9512    0.0000 C   0  0  0  0  0  0  0  0  0  0  0  0
    1.8979   -0.1443    0.0000 C   0  0  0  0  0  0  0  0  0  0  0  0
    2.6825    0.1107    0.0000 C   0  0  0  0  0  0  0  0  0  0  0  0
    2.8540    0.9177    0.0000 Cl  0  0  0  0  0  0  0  0  0  0  0  0
    3.2956   -0.4413    0.0000 C   0  0  0  0  0  0  0  0  0  0  0  0
    4.0802   -0.1864    0.0000 O   0  0  0  0  0  0  0  0  0  0  0  0
    3.1241   -1.2483    0.0000 C   0  0  0  0  0  0  0  0  0  0  0  0
    2.3394   -1.5033    0.0000 C   0  0  0  0  0  0  0  0  0  0  0  0
    2.1679   -2.3102    0.0000 O   0  0  0  0  0  0  0  0  0  0  0  0
    1.9154    1.8763    0.0000 H   0  0  0  0  0  0  0  0  0  0  0  0
    0.9888    2.4113    0.0000 H   0  0  0  0  0  0  0  0  0  0  0  0
    1.9154   -0.0187    0.0000 H   0  0  0  0  0  0  0  0  0  0  0  0
    0.9888   -0.5537    0.0000 H   0  0  0  0  0  0  0  0  0  0  0  0
   -1.3668   -0.0187    0.0000 H   0  0  0  0  0  0  0  0  0  0  0  0
   -0.4402   -0.5537    0.0000 H   0  0  0  0  0  0  0  0  0  0  0  0
   -1.3668    1.8763    0.0000 H   0  0  0  0  0  0  0  0  0  0  0  0
   -0.4402    2.4113    0.0000 H   0  0  0  0  0  0  0  0  0  0  0  0
    0.2743    2.7738    0.0000 H   0  0  0  0  0  0  0  0  0  0  0  0
   -0.6176    0.5144    0.0000 H   0  0  0  0  0  0  0  0  0  0  0  0
   -2.3563    1.1573    0.0000 H   0  0  0  0  0  0  0  0  0  0  0  0
   -3.1515    0.4414    0.0000 H   0  0  0  0  0  0  0  0  0  0  0  0
   -3.7646   -0.1106    0.0000 H   0  0  0  0  0  0  0  0  0  0  0  0
   -2.5246   -1.4879    0.0000 H   0  0  0  0  0  0  0  0  0  0  0  0
   -3.5422   -1.1572    0.0000 H   0  0  0  0  0  0  0  0  0  0  0  0
    1.2655   -2.7873    0.0000 H   0  0  0  0  0  0  0  0  0  0  0  0
    1.1310    0.5463    0.0000 H   0  0  0  0  0  0  0  0  0  0  0  0
    4.7765   -0.8134    0.0000 H   0  0  0  0  0  0  0  0  0  0  0  0
    3.8911   -1.9388    0.0000 H   0  0  0  0  0  0  0  0  0  0  0  0
    1.2768   -2.5998    0.0000 H   0  0  0  0  0  0  0  0  0  0  0  0
  1  2  1  0  0  0  0
  1  9  1  0  0  0  0
  1 26  1  0  0  0  0
  1 27  1  0  0  0  0
  2  5  1  0  0  0  0
  2 28  1  0  0  0  0
  2 29  1  0  0  0  0
  3  4  1  0  0  0  0
  3  5  1  0  0  0  0
  3 30  1  0  0  0  0
  3 31  1  0  0  0  0
  4  9  1  0  0  0  0
  4 32  1  0  0  0  0
  4 33  1  0  0  0  0
  5  6  1  0  0  0  0
  6  7  1  0  0  0  0
  6 16  2  0  0  0  0
  7  8  1  0  0  0  0
  7 14  2  0  0  0  0
  8 10  2  0  0  0  0
  8 11  1  0  0  0  0
  9 34  1  0  0  0  0
 11 12  1  0  0  0  0
 11 35  1  0  0  0  0
 12 13  1  0  0  0  0
 12 36  1  0  0  0  0
 12 37  1  0  0  0  0
 13 38  1  0  0  0  0
 13 39  1  0  0  0  0
 13 40  1  0  0  0  0
 14 15  1  0  0  0  0
 15 16  1  0  0  0  0
 15 41  1  0  0  0  0
 16 17  1  0  0  0  0
 17 18  2  0  0  0  0
 17 24  1  0  0  0  0
 18 19  1  0  0  0  0
 18 42  1  0  0  0  0
 19 20  1  0  0  0  0
 19 21  2  0  0  0  0
 21 22  1  0  0  0  0
 21 23  1  0  0  0  0
 22 43  1  0  0  0  0
 23 24  2  0  0  0  0
 23 44  1  0  0  0  0
 24 25  1  0  0  0  0
 25 45  1  0  0  0  0
M  END
>  <DRUGBANK_ID>
DB06958

>  <COMMON_NAME>
5-(5-CHLORO-2,4-DIHYDROXYPHENYL)-N-ETHYL-4-PIPERAZIN-1-YL-1H-PYRAZOLE-3-CARBOXAMIDE

$$$$
