
 OpenBabel10282417072D

 63 69  0  0  0  0  0  0  0  0999 V2000
    4.4965    3.5410    0.0000 C   0  0  0  0  0  0  0  0  0  0  0  0
    3.8658    3.0093    0.0000 C   0  0  0  0  0  0  0  0  0  0  0  0
    3.0899    3.2897    0.0000 C   0  0  0  0  0  0  0  0  0  0  0  0
    2.9447    4.1018    0.0000 N   0  0  0  0  0  0  0  0  0  0  0  0
    3.5755    4.6335    0.0000 C   0  0  0  0  0  0  0  0  0  0  0  0
    4.3514    4.3532    0.0000 C   0  0  0  0  0  0  0  0  0  0  0  0
    3.2647    5.3978    0.0000 N   0  0  0  0  0  0  0  0  0  0  0  0
    2.4418    5.3383    0.0000 C   0  0  0  0  0  0  0  0  0  0  0  0
    2.2441    4.5374    0.0000 C   0  0  0  0  0  0  0  0  0  0  0  0
    1.4799    4.2265    0.0000 C   0  0  0  0  0  0  0  0  0  0  0  0
    1.2821    3.4256    0.0000 C   0  0  0  0  0  0  0  0  0  0  0  0
    0.4593    3.3661    0.0000 C   0  0  0  0  0  0  0  0  0  0  0  0
    0.0237    2.6655    0.0000 O   0  0  0  0  0  0  0  0  0  0  0  0
    0.1485    4.1304    0.0000 N   0  0  0  0  0  0  0  0  0  0  0  0
    0.7792    4.6621    0.0000 C   0  0  0  0  0  0  0  0  0  0  0  0
    0.7198    5.4850    0.0000 O   0  0  0  0  0  0  0  0  0  0  0  0
    1.8139    2.7948    0.0000 C   0  0  0  0  0  0  0  0  0  0  0  0
    2.6367    2.8543    0.0000 C   0  0  0  0  0  0  0  0  0  0  0  0
    2.9476    2.0901    0.0000 N   0  0  0  0  0  0  0  0  0  0  0  0
    2.3168    1.5583    0.0000 C   0  0  0  0  0  0  0  0  0  0  0  0
    1.6162    1.9939    0.0000 C   0  0  0  0  0  0  0  0  0  0  0  0
    0.8886    1.6049    0.0000 C   0  0  0  0  0  0  0  0  0  0  0  0
    0.8617    0.7803    0.0000 C   0  0  0  0  0  0  0  0  0  0  0  0
    1.5624    0.3448    0.0000 C   0  0  0  0  0  0  0  0  0  0  0  0
    2.3393    0.7336    0.0000 C   0  0  0  0  0  0  0  0  0  0  0  0
    2.9981    0.2370    0.0000 C   0  0  0  0  0  0  0  0  0  0  0  0
    3.7971    0.4424    0.0000 N   0  0  0  0  0  0  0  0  0  0  0  0
    4.1346    1.1952    0.0000 C   0  0  0  0  0  0  0  0  0  0  0  0
    3.7566    1.9285    0.0000 C   0  0  0  0  0  0  0  0  0  0  0  0
    4.3288   -0.1883    0.0000 C   0  0  0  0  0  0  0  0  0  0  0  0
    5.1410   -0.0432    0.0000 O   0  0  0  0  0  0  0  0  0  0  0  0
    4.0484   -0.9642    0.0000 N   0  0  0  0  0  0  0  0  0  0  0  0
    4.5802   -1.5950    0.0000 C   0  0  0  0  0  0  0  0  0  0  0  0
    4.2998   -2.3709    0.0000 C   0  0  0  0  0  0  0  0  0  0  0  0
    3.4877   -2.5160    0.0000 C   0  0  0  0  0  0  0  0  0  0  0  0
    2.9559   -1.8853    0.0000 C   0  0  0  0  0  0  0  0  0  0  0  0
    3.2363   -1.1094    0.0000 C   0  0  0  0  0  0  0  0  0  0  0  0
    0.1342    0.3913    0.0000 F   0  0  0  0  0  0  0  0  0  0  0  0
    5.4671    3.1902    0.0000 H   0  0  0  0  0  0  0  0  0  0  0  0
    4.0473    1.9934    0.0000 H   0  0  0  0  0  0  0  0  0  0  0  0
    2.3009    2.6245    0.0000 H   0  0  0  0  0  0  0  0  0  0  0  0
    5.1404    5.0184    0.0000 H   0  0  0  0  0  0  0  0  0  0  0  0
    1.7766    6.1273    0.0000 H   0  0  0  0  0  0  0  0  0  0  0  0
   -0.8073    4.3664    0.0000 H   0  0  0  0  0  0  0  0  0  0  0  0
    3.1815    3.7308    0.0000 H   0  0  0  0  0  0  0  0  0  0  0  0
    0.0122    2.1498    0.0000 H   0  0  0  0  0  0  0  0  0  0  0  0
    1.5149   -0.6861    0.0000 H   0  0  0  0  0  0  0  0  0  0  0  0
    2.7885   -0.8123    0.0000 H   0  0  0  0  0  0  0  0  0  0  0  0
    3.7750   -0.4987    0.0000 H   0  0  0  0  0  0  0  0  0  0  0  0
    5.2042    1.2243    0.0000 H   0  0  0  0  0  0  0  0  0  0  0  0
    4.6790    2.1163    0.0000 H   0  0  0  0  0  0  0  0  0  0  0  0
    4.4007    2.7829    0.0000 H   0  0  0  0  0  0  0  0  0  0  0  0
    3.3758    2.9285    0.0000 H   0  0  0  0  0  0  0  0  0  0  0  0
    5.6335   -1.4068    0.0000 H   0  0  0  0  0  0  0  0  0  0  0  0
    5.2699   -2.4131    0.0000 H   0  0  0  0  0  0  0  0  0  0  0  0
    4.9894   -3.1890    0.0000 H   0  0  0  0  0  0  0  0  0  0  0  0
    3.9361   -3.3772    0.0000 H   0  0  0  0  0  0  0  0  0  0  0  0
    3.1241   -3.5223    0.0000 H   0  0  0  0  0  0  0  0  0  0  0  0
    2.4344   -2.7043    0.0000 H   0  0  0  0  0  0  0  0  0  0  0  0
    1.9026   -2.0736    0.0000 H   0  0  0  0  0  0  0  0  0  0  0  0
    2.2662   -1.0672    0.0000 H   0  0  0  0  0  0  0  0  0  0  0  0
    2.5466   -0.2913    0.0000 H   0  0  0  0  0  0  0  0  0  0  0  0
    3.5999   -0.1031    0.0000 H   0  0  0  0  0  0  0  0  0  0  0  0
  1  2  1  0  0  0  0
  1  6  2  0  0  0  0
  1 39  1  0  0  0  0
  2  3  2  0  0  0  0
  2 40  1  0  0  0  0
  3  4  1  0  0  0  0
  3 41  1  0  0  0  0
  4  5  1  0  0  0  0
  4  9  1  0  0  0  0
  5  6  1  0  0  0  0
  5  7  2  0  0  0  0
  6 42  1  0  0  0  0
  7  8  1  0  0  0  0
  8  9  2  0  0  0  0
  8 43  1  0  0  0  0
  9 10  1  0  0  0  0
 10 11  2  0  0  0  0
 10 15  1  0  0  0  0
 11 12  1  0  0  0  0
 11 17  1  0  0  0  0
 12 13  2  0  0  0  0
 12 14  1  0  0  0  0
 14 15  1  0  0  0  0
 14 44  1  0  0  0  0
 15 16  2  0  0  0  0
 17 18  2  0  0  0  0
 17 21  1  0  0  0  0
 18 19  1  0  0  0  0
 18 45  1  0  0  0  0
 19 20  1  0  0  0  0
 19 29  1  0  0  0  0
 20 21  1  0  0  0  0
 20 25  2  0  0  0  0
 21 22  2  0  0  0  0
 22 23  1  0  0  0  0
 22 46  1  0  0  0  0
 23 24  2  0  0  0  0
 23 38  1  0  0  0  0
 24 25  1  0  0  0  0
 24 47  1  0  0  0  0
 25 26  1  0  0  0  0
 26 27  1  0  0  0  0
 26 48  1  0  0  0  0
 26 49  1  0  0  0  0
 27 28  1  0  0  0  0
 27 30  1  0  0  0  0
 28 29  1  0  0  0  0
 28 50  1  0  0  0  0
 28 51  1  0  0  0  0
 29 52  1  0  0  0  0
 29 53  1  0  0  0  0
 30 31  2  0  0  0  0
 30 32  1  0  0  0  0
 32 33  1  0  0  0  0
 32 37  1  0  0  0  0
 33 34  1  0  0  0  0
 33 54  1  0  0  0  0
 33 55  1  0  0  0  0
 34 35  1  0  0  0  0
 34 56  1  0  0  0  0
 34 57  1  0  0  0  0
 35 36  1  0  0  0  0
 35 58  1  0  0  0  0
 35 59  1  0  0  0  0
 36 37  1  0  0  0  0
 36 60  1  0  0  0  0
 36 61  1  0  0  0  0
 37 62  1  0  0  0  0
 37 63  1  0  0  0  0
M  END
>  <DRUGBANK_ID>
DB11913

>  <COMMON_NAME>
LY-2090314

>  <CAS_NUMBER>
603288-22-8

>  <UNII>
822M3GYM67

$$$$
