ZPR
 OpenBabel10282417072D

 46 48  0  0  0  0  0  0  0  0999 V2000
    2.3695    0.7968    0.0000 C   0  0  0  0  0  0  0  0  0  0  0  0
    3.0840    1.2093    0.0000 O   0  0  0  0  0  0  0  0  0  0  0  0
    2.3695   -0.0282    0.0000 C   0  0  2  0  0  0  0  0  0  0  0  0
    3.0369   -0.5132    0.0000 C   0  0  0  0  0  0  0  0  0  0  0  0
    2.7820   -1.2978    0.0000 C   0  0  0  0  0  0  0  0  0  0  0  0
    1.9570   -1.2978    0.0000 C   0  0  0  0  0  0  0  0  0  0  0  0
    1.7021   -0.5132    0.0000 N   0  0  0  0  0  0  0  0  0  0  0  0
    0.9174   -0.2582    0.0000 C   0  0  0  0  0  0  0  0  0  0  0  0
    0.7459    0.5487    0.0000 O   0  0  0  0  0  0  0  0  0  0  0  0
    0.3044   -0.8103    0.0000 C   0  0  2  0  0  0  0  0  0  0  0  0
    0.3906   -1.6307    0.0000 C   0  0  0  0  0  0  0  0  0  0  0  0
   -0.3631   -1.9663    0.0000 C   0  0  0  0  0  0  0  0  0  0  0  0
   -0.9151   -1.3532    0.0000 C   0  0  0  0  0  0  0  0  0  0  0  0
   -0.5026   -0.6387    0.0000 N   0  0  0  0  0  0  0  0  0  0  0  0
   -0.8382    0.1149    0.0000 C   0  0  0  0  0  0  0  0  0  0  0  0
   -1.6587    0.2012    0.0000 O   0  0  0  0  0  0  0  0  0  0  0  0
   -0.3533    0.7824    0.0000 O   0  0  0  0  0  0  0  0  0  0  0  0
   -0.6888    1.5361    0.0000 C   0  0  0  0  0  0  0  0  0  0  0  0
   -1.5093    1.6223    0.0000 C   0  0  0  0  0  0  0  0  0  0  0  0
   -1.9942    0.9549    0.0000 C   0  0  0  0  0  0  0  0  0  0  0  0
   -2.8147    1.0411    0.0000 C   0  0  0  0  0  0  0  0  0  0  0  0
   -3.1503    1.7948    0.0000 C   0  0  0  0  0  0  0  0  0  0  0  0
   -2.6653    2.4622    0.0000 C   0  0  0  0  0  0  0  0  0  0  0  0
   -1.8449    2.3760    0.0000 C   0  0  0  0  0  0  0  0  0  0  0  0
    2.8898    0.2369    0.0000 H   0  0  0  0  0  0  0  0  0  0  0  0
    0.8495   -1.0195    0.0000 H   0  0  0  0  0  0  0  0  0  0  0  0
    1.4758    1.3128    0.0000 H   0  0  0  0  0  0  0  0  0  0  0  0
    4.0545   -0.1826    0.0000 H   0  0  0  0  0  0  0  0  0  0  0  0
    3.7935   -1.2698    0.0000 H   0  0  0  0  0  0  0  0  0  0  0  0
    3.4109   -2.1634    0.0000 H   0  0  0  0  0  0  0  0  0  0  0  0
    2.2962   -2.2512    0.0000 H   0  0  0  0  0  0  0  0  0  0  0  0
    1.3281   -2.1634    0.0000 H   0  0  0  0  0  0  0  0  0  0  0  0
    0.9002   -1.1304    0.0000 H   0  0  0  0  0  0  0  0  0  0  0  0
    1.3172   -2.1657    0.0000 H   0  0  0  0  0  0  0  0  0  0  0  0
    0.3346   -2.6992    0.0000 H   0  0  0  0  0  0  0  0  0  0  0  0
   -0.5856   -3.0129    0.0000 H   0  0  0  0  0  0  0  0  0  0  0  0
   -1.3966   -2.2432    0.0000 H   0  0  0  0  0  0  0  0  0  0  0  0
   -1.9792   -1.4650    0.0000 H   0  0  0  0  0  0  0  0  0  0  0  0
   -1.4979   -0.4558    0.0000 H   0  0  0  0  0  0  0  0  0  0  0  0
   -0.0599    2.4017    0.0000 H   0  0  0  0  0  0  0  0  0  0  0  0
   -1.1240    2.5136    0.0000 H   0  0  0  0  0  0  0  0  0  0  0  0
   -1.5744    0.0121    0.0000 H   0  0  0  0  0  0  0  0  0  0  0  0
   -3.4213    0.2062    0.0000 H   0  0  0  0  0  0  0  0  0  0  0  0
   -4.1766    1.9027    0.0000 H   0  0  0  0  0  0  0  0  0  0  0  0
   -3.0850    3.4050    0.0000 H   0  0  0  0  0  0  0  0  0  0  0  0
   -1.2383    3.2109    0.0000 H   0  0  0  0  0  0  0  0  0  0  0  0
  1  2  2  0  0  0  0
  1 27  1  0  0  0  0
  3  1  1  0  0  0  0
  3  4  1  0  0  0  0
  3  7  1  0  0  0  0
  3 25  1  1  0  0  0
  4  5  1  0  0  0  0
  4 28  1  0  0  0  0
  4 29  1  0  0  0  0
  5  6  1  0  0  0  0
  5 30  1  0  0  0  0
  5 31  1  0  0  0  0
  6  7  1  0  0  0  0
  6 32  1  0  0  0  0
  6 33  1  0  0  0  0
  7  8  1  0  0  0  0
  8  9  2  0  0  0  0
 10  8  1  0  0  0  0
 10 11  1  0  0  0  0
 10 14  1  0  0  0  0
 10 26  1  1  0  0  0
 11 12  1  0  0  0  0
 11 34  1  0  0  0  0
 11 35  1  0  0  0  0
 12 13  1  0  0  0  0
 12 36  1  0  0  0  0
 12 37  1  0  0  0  0
 13 14  1  0  0  0  0
 13 38  1  0  0  0  0
 13 39  1  0  0  0  0
 14 15  1  0  0  0  0
 15 16  2  0  0  0  0
 15 17  1  0  0  0  0
 17 18  1  0  0  0  0
 18 19  1  0  0  0  0
 18 40  1  0  0  0  0
 18 41  1  0  0  0  0
 19 20  2  0  0  0  0
 19 24  1  0  0  0  0
 20 21  1  0  0  0  0
 20 42  1  0  0  0  0
 21 22  2  0  0  0  0
 21 43  1  0  0  0  0
 22 23  1  0  0  0  0
 22 44  1  0  0  0  0
 23 24  2  0  0  0  0
 23 45  1  0  0  0  0
 24 46  1  0  0  0  0
M  END
>  <DRUGBANK_ID>
DB03535

>  <SECONDARY_ACCESSION_NUMBERS>
EXPT03293

>  <COMMON_NAME>
Z-Pro-Prolinal

>  <UNII>
4YM8D0GKX6

$$$$
