
 OpenBabel10282417072D

 76 80  0  0  0  0  0  0  0  0999 V2000
    0.6412   -0.4206    0.0000 C   0  0  0  0  0  0  0  0  0  0  0  0
   -0.7877   -0.4206    0.0000 N   0  0  0  0  0  0  0  0  0  0  0  0
   -0.0732   -0.0081    0.0000 C   0  0  1  0  0  0  0  0  0  0  0  0
   -0.0732    0.8168    0.0000 C   0  0  0  0  0  0  0  0  0  0  0  0
    0.6412    1.2293    0.0000 C   0  0  0  0  0  0  0  0  0  0  0  0
    1.3556    0.8168    0.0000 C   0  0  0  0  0  0  0  0  0  0  0  0
    2.0701    1.2293    0.0000 C   0  0  0  0  0  0  0  0  0  0  0  0
    2.0701    2.0543    0.0000 C   0  0  0  0  0  0  0  0  0  0  0  0
    1.3556    2.4668    0.0000 C   0  0  0  0  0  0  0  0  0  0  0  0
    0.6412    2.0543    0.0000 C   0  0  0  0  0  0  0  0  0  0  0  0
    0.6412   -1.2457    0.0000 O   0  0  0  0  0  0  0  0  0  0  0  0
    1.3556   -0.0081    0.0000 O   0  0  0  0  0  0  0  0  0  0  0  0
    2.7847    2.4668    0.0000 N   0  0  0  0  0  0  0  0  0  0  0  0
    3.4991    2.0543    0.0000 C   0  0  0  0  0  0  0  0  0  0  0  0
    3.4991    1.2293    0.0000 O   0  0  0  0  0  0  0  0  0  0  0  0
    4.9280    3.7043    0.0000 C   0  0  0  0  0  0  0  0  0  0  0  0
    4.2135    3.2918    0.0000 C   0  0  0  0  0  0  0  0  0  0  0  0
    4.2135    2.4668    0.0000 C   0  0  0  0  0  0  0  0  0  0  0  0
    4.9280    2.0543    0.0000 C   0  0  0  0  0  0  0  0  0  0  0  0
    5.6426    2.4668    0.0000 C   0  0  0  0  0  0  0  0  0  0  0  0
    5.6426    3.2918    0.0000 N   0  0  0  0  0  0  0  0  0  0  0  0
    4.9280    1.2293    0.0000 Cl  0  0  0  0  0  0  0  0  0  0  0  0
    3.4991    3.7043    0.0000 Cl  0  0  0  0  0  0  0  0  0  0  0  0
   -1.5021   -0.0081    0.0000 C   0  0  0  0  0  0  0  0  0  0  0  0
   -2.3028   -1.2411    0.0000 N   0  0  0  0  0  0  0  0  0  0  0  0
   -2.2166   -0.4206    0.0000 C   0  0  1  0  0  0  0  0  0  0  0  0
   -2.9703   -0.0851    0.0000 C   0  0  0  0  0  0  0  0  0  0  0  0
   -3.5223   -0.6982    0.0000 C   0  0  2  0  0  0  0  0  0  0  0  0
   -3.1098   -1.4126    0.0000 C   0  0  0  0  0  0  0  0  0  0  0  0
   -1.5021    0.8168    0.0000 O   0  0  0  0  0  0  0  0  0  0  0  0
   -4.3428   -0.6119    0.0000 N   0  0  0  0  0  0  0  0  0  0  0  0
   -4.8277   -1.2794    0.0000 C   0  0  0  0  0  0  0  0  0  0  0  0
   -5.6426   -1.4084    0.0000 C   0  0  0  0  0  0  0  0  0  0  0  0
   -5.5135   -2.2234    0.0000 C   0  0  0  0  0  0  0  0  0  0  0  0
   -4.6987   -2.0942    0.0000 C   0  0  0  0  0  0  0  0  0  0  0  0
   -1.6898   -1.7931    0.0000 S   0  0  0  0  0  0  0  0  0  0  0  0
   -1.1377   -1.1800    0.0000 O   0  0  0  0  0  0  0  0  0  0  0  0
   -2.2418   -2.4063    0.0000 O   0  0  0  0  0  0  0  0  0  0  0  0
   -1.0767   -2.3453    0.0000 C   0  0  0  0  0  0  0  0  0  0  0  0
   -0.2920   -2.0902    0.0000 C   0  0  0  0  0  0  0  0  0  0  0  0
    0.3210   -2.6423    0.0000 C   0  0  0  0  0  0  0  0  0  0  0  0
    0.1494   -3.4492    0.0000 C   0  0  0  0  0  0  0  0  0  0  0  0
   -0.6351   -3.7043    0.0000 C   0  0  0  0  0  0  0  0  0  0  0  0
   -1.2482   -3.1521    0.0000 C   0  0  0  0  0  0  0  0  0  0  0  0
    1.1056   -2.3873    0.0000 C   0  0  0  0  0  0  0  0  0  0  0  0
    1.8902   -2.1324    0.0000 N   0  0  0  0  0  0  0  0  0  0  0  0
   -0.7877   -1.4051    0.0000 H   0  0  0  0  0  0  0  0  0  0  0  0
   -0.9998    0.5269    0.0000 H   0  0  0  0  0  0  0  0  0  0  0  0
   -0.9999    1.3518    0.0000 H   0  0  0  0  0  0  0  0  0  0  0  0
   -0.0732    1.8868    0.0000 H   0  0  0  0  0  0  0  0  0  0  0  0
    1.3556   -0.2152    0.0000 H   0  0  0  0  0  0  0  0  0  0  0  0
    2.9638    0.7133    0.0000 H   0  0  0  0  0  0  0  0  0  0  0  0
    1.3556    3.4988    0.0000 H   0  0  0  0  0  0  0  0  0  0  0  0
   -0.2525    2.5703    0.0000 H   0  0  0  0  0  0  0  0  0  0  0  0
    2.1671   -0.4766    0.0000 H   0  0  0  0  0  0  0  0  0  0  0  0
    2.7848    3.4513    0.0000 H   0  0  0  0  0  0  0  0  0  0  0  0
    4.9280    4.7363    0.0000 H   0  0  0  0  0  0  0  0  0  0  0  0
    6.5363    1.9508    0.0000 H   0  0  0  0  0  0  0  0  0  0  0  0
   -1.3192   -1.0034    0.0000 H   0  0  0  0  0  0  0  0  0  0  0  0
   -3.1928    0.9615    0.0000 H   0  0  0  0  0  0  0  0  0  0  0  0
   -4.0039    0.1918    0.0000 H   0  0  0  0  0  0  0  0  0  0  0  0
   -3.9057    0.3007    0.0000 H   0  0  0  0  0  0  0  0  0  0  0  0
   -3.5450   -2.3901    0.0000 H   0  0  0  0  0  0  0  0  0  0  0  0
   -2.4364   -2.2442    0.0000 H   0  0  0  0  0  0  0  0  0  0  0  0
   -4.7577    0.3199    0.0000 H   0  0  0  0  0  0  0  0  0  0  0  0
   -3.7873   -1.5292    0.0000 H   0  0  0  0  0  0  0  0  0  0  0  0
   -6.5082   -0.7794    0.0000 H   0  0  0  0  0  0  0  0  0  0  0  0
   -6.5549   -1.9675    0.0000 H   0  0  0  0  0  0  0  0  0  0  0  0
   -6.1423   -3.0891    0.0000 H   0  0  0  0  0  0  0  0  0  0  0  0
   -4.9543   -3.1356    0.0000 H   0  0  0  0  0  0  0  0  0  0  0  0
   -3.8330   -2.7231    0.0000 H   0  0  0  0  0  0  0  0  0  0  0  0
   -3.7864   -1.5351    0.0000 H   0  0  0  0  0  0  0  0  0  0  0  0
   -0.0774   -1.0807    0.0000 H   0  0  0  0  0  0  0  0  0  0  0  0
    0.9164   -4.1397    0.0000 H   0  0  0  0  0  0  0  0  0  0  0  0
   -0.8496   -4.7138    0.0000 H   0  0  0  0  0  0  0  0  0  0  0  0
   -2.2297   -3.4709    0.0000 H   0  0  0  0  0  0  0  0  0  0  0  0
  1  3  1  0  0  0  0
  1 11  2  0  0  0  0
  1 12  1  0  0  0  0
  2  3  1  0  0  0  0
  2 24  1  0  0  0  0
  2 47  1  0  0  0  0
  3  4  1  0  0  0  0
  3 48  1  6  0  0  0
  4  5  1  0  0  0  0
  4 49  1  0  0  0  0
  4 50  1  0  0  0  0
  5  6  1  0  0  0  0
  5 10  2  0  0  0  0
  6  7  2  0  0  0  0
  6 51  1  0  0  0  0
  7  8  1  0  0  0  0
  7 52  1  0  0  0  0
  8  9  2  0  0  0  0
  8 13  1  0  0  0  0
  9 10  1  0  0  0  0
  9 53  1  0  0  0  0
 10 54  1  0  0  0  0
 12 55  1  0  0  0  0
 13 14  1  0  0  0  0
 13 56  1  0  0  0  0
 14 15  2  0  0  0  0
 14 18  1  0  0  0  0
 16 17  1  0  0  0  0
 16 21  2  0  0  0  0
 16 57  1  0  0  0  0
 17 18  2  0  0  0  0
 17 23  1  0  0  0  0
 18 19  1  0  0  0  0
 19 20  2  0  0  0  0
 19 22  1  0  0  0  0
 20 21  1  0  0  0  0
 20 58  1  0  0  0  0
 24 30  2  0  0  0  0
 25 26  1  0  0  0  0
 25 29  1  0  0  0  0
 25 36  1  0  0  0  0
 26 24  1  0  0  0  0
 26 27  1  0  0  0  0
 26 59  1  6  0  0  0
 27 28  1  0  0  0  0
 27 60  1  0  0  0  0
 27 61  1  0  0  0  0
 28 29  1  0  0  0  0
 28 31  1  0  0  0  0
 28 62  1  1  0  0  0
 29 63  1  0  0  0  0
 29 64  1  0  0  0  0
 31 32  1  0  0  0  0
 31 65  1  0  0  0  0
 32 33  1  0  0  0  0
 32 35  1  0  0  0  0
 32 66  1  0  0  0  0
 33 34  1  0  0  0  0
 33 67  1  0  0  0  0
 33 68  1  0  0  0  0
 34 35  1  0  0  0  0
 34 69  1  0  0  0  0
 34 70  1  0  0  0  0
 35 71  1  0  0  0  0
 35 72  1  0  0  0  0
 36 37  2  0  0  0  0
 36 38  2  0  0  0  0
 36 39  1  0  0  0  0
 39 40  1  0  0  0  0
 39 44  2  0  0  0  0
 40 41  2  0  0  0  0
 40 73  1  0  0  0  0
 41 42  1  0  0  0  0
 41 45  1  0  0  0  0
 42 43  2  0  0  0  0
 42 74  1  0  0  0  0
 43 44  1  0  0  0  0
 43 75  1  0  0  0  0
 44 76  1  0  0  0  0
 45 46  3  0  0  0  0
M  END
>  <DRUGBANK_ID>
DB15791

>  <COMMON_NAME>
MK-0668

>  <CAS_NUMBER>
865110-07-2

>  <UNII>
S441P37178

$$$$
