
 OpenBabel10282417072D

 51 54  0  0  1  0  0  0  0  0999 V2000
    3.0458   -0.8264    0.0000 N   0  0  0  0  0  0  0  0  0  0  0  0
    3.0458   -1.6514    0.0000 C   0  0  0  0  0  0  0  0  0  0  0  0
    3.7602   -2.0639    0.0000 N   0  0  0  0  0  0  0  0  0  0  0  0
    3.7602   -2.8889    0.0000 C   0  0  0  0  0  0  0  0  0  0  0  0
    4.4747   -3.3014    0.0000 O   0  0  0  0  0  0  0  0  0  0  0  0
    3.0458   -3.3014    0.0000 N   0  0  0  0  0  0  0  0  0  0  0  0
    2.3313   -2.8889    0.0000 C   0  0  0  0  0  0  0  0  0  0  0  0
    2.3313   -2.0639    0.0000 C   0  0  0  0  0  0  0  0  0  0  0  0
    3.0458   -4.1264    0.0000 C   0  0  2  0  0  0  0  0  0  0  0  0
    3.7132   -4.6114    0.0000 O   0  0  0  0  0  0  0  0  0  0  0  0
    3.4583   -5.3960    0.0000 C   0  0  2  0  0  0  0  0  0  0  0  0
    3.9432   -6.0634    0.0000 C   0  0  0  0  0  0  0  0  0  0  0  0
    4.7637   -5.9772    0.0000 O   0  0  0  0  0  0  0  0  0  0  0  0
    5.2486   -6.6446    0.0000 P   0  0  2  0  0  0  0  0  0  0  0  0
    4.5071   -7.0063    0.0000 O   0  0  0  0  0  0  0  0  0  0  0  0
    5.8217   -6.0512    0.0000 O   0  0  0  0  0  0  0  0  0  0  0  0
    6.6222   -6.2507    0.0000 C   0  0  0  0  0  0  0  0  0  0  0  0
    6.8496   -7.0438    0.0000 C   0  0  0  0  0  0  0  0  0  0  0  0
    6.2765   -7.6372    0.0000 C   0  0  2  0  0  0  0  0  0  0  0  0
    5.4760   -7.4377    0.0000 O   0  0  0  0  0  0  0  0  0  0  0  0
    6.5039   -8.4303    0.0000 C   0  0  0  0  0  0  0  0  0  0  0  0
    7.3044   -8.6299    0.0000 C   0  0  0  0  0  0  0  0  0  0  0  0
    7.5318   -9.4229    0.0000 C   0  0  0  0  0  0  0  0  0  0  0  0
    6.9587  -10.0164    0.0000 N   0  0  0  0  0  0  0  0  0  0  0  0
    6.1582   -9.8168    0.0000 C   0  0  0  0  0  0  0  0  0  0  0  0
    5.9308   -9.0237    0.0000 C   0  0  0  0  0  0  0  0  0  0  0  0
    2.6333   -5.3960    0.0000 C   0  0  1  0  0  0  0  0  0  0  0  0
    2.1483   -6.0634    0.0000 O   0  0  0  0  0  0  0  0  0  0  0  0
    2.3783   -4.6114    0.0000 C   0  0  2  0  0  0  0  0  0  0  0  0
    1.5937   -4.3564    0.0000 O   0  0  0  0  0  0  0  0  0  0  0  0
    3.8984   -0.3341    0.0000 H   0  0  0  0  0  0  0  0  0  0  0  0
    2.1932   -0.3342    0.0000 H   0  0  0  0  0  0  0  0  0  0  0  0
    1.4376   -3.4049    0.0000 H   0  0  0  0  0  0  0  0  0  0  0  0
    1.4376   -1.5479    0.0000 H   0  0  0  0  0  0  0  0  0  0  0  0
    3.9992   -3.6407    0.0000 H   0  0  0  0  0  0  0  0  0  0  0  0
    4.5151   -5.2286    0.0000 H   0  0  0  0  0  0  0  0  0  0  0  0
    3.5080   -7.0409    0.0000 H   0  0  0  0  0  0  0  0  0  0  0  0
    4.5721   -6.9291    0.0000 H   0  0  0  0  0  0  0  0  0  0  0  0
    7.3655   -5.4810    0.0000 H   0  0  0  0  0  0  0  0  0  0  0  0
    7.6604   -6.5095    0.0000 H   0  0  0  0  0  0  0  0  0  0  0  0
    7.8878   -7.3027    0.0000 H   0  0  0  0  0  0  0  0  0  0  0  0
    7.1445   -8.0724    0.0000 H   0  0  0  0  0  0  0  0  0  0  0  0
    7.3147   -7.8961    0.0000 H   0  0  0  0  0  0  0  0  0  0  0  0
    8.0213   -7.8875    0.0000 H   0  0  0  0  0  0  0  0  0  0  0  0
    8.5332   -9.6725    0.0000 H   0  0  0  0  0  0  0  0  0  0  0  0
    5.4413  -10.5591    0.0000 H   0  0  0  0  0  0  0  0  0  0  0  0
    4.9295   -8.7740    0.0000 H   0  0  0  0  0  0  0  0  0  0  0  0
    3.1190   -6.3494    0.0000 H   0  0  0  0  0  0  0  0  0  0  0  0
    1.1836   -5.9619    0.0000 H   0  0  0  0  0  0  0  0  0  0  0  0
    1.6217   -5.3680    0.0000 H   0  0  0  0  0  0  0  0  0  0  0  0
    1.3921   -3.4076    0.0000 H   0  0  0  0  0  0  0  0  0  0  0  0
  1  2  1  0  0  0  0
  1 31  1  0  0  0  0
  1 32  1  0  0  0  0
  2  3  2  0  0  0  0
  2  8  1  0  0  0  0
  3  4  1  0  0  0  0
  4  5  2  0  0  0  0
  4  6  1  0  0  0  0
  6  7  1  0  0  0  0
  7  8  2  0  0  0  0
  7 33  1  0  0  0  0
  8 34  1  0  0  0  0
  9  6  1  0  0  0  0
  9 10  1  0  0  0  0
  9 35  1  1  0  0  0
 11 10  1  0  0  0  0
 11 12  1  0  0  0  0
 11 36  1  1  0  0  0
 12 13  1  0  0  0  0
 12 37  1  0  0  0  0
 12 38  1  0  0  0  0
 14 13  1  0  0  0  0
 14 15  2  1  0  0  0
 14 16  1  0  0  0  0
 14 20  1  0  0  0  0
 16 17  1  0  0  0  0
 17 18  1  0  0  0  0
 17 39  1  0  0  0  0
 17 40  1  0  0  0  0
 18 41  1  0  0  0  0
 18 42  1  0  0  0  0
 19 18  1  0  0  0  0
 19 20  1  0  0  0  0
 19 21  1  0  0  0  0
 19 43  1  6  0  0  0
 21 22  2  0  0  0  0
 21 26  1  0  0  0  0
 22 23  1  0  0  0  0
 22 44  1  0  0  0  0
 23 24  2  0  0  0  0
 23 45  1  0  0  0  0
 24 25  1  0  0  0  0
 25 26  2  0  0  0  0
 25 46  1  0  0  0  0
 26 47  1  0  0  0  0
 27 11  1  0  0  0  0
 27 28  1  0  0  0  0
 27 29  1  0  0  0  0
 27 48  1  6  0  0  0
 28 49  1  0  0  0  0
 29  9  1  0  0  0  0
 29 30  1  0  0  0  0
 29 50  1  1  0  0  0
 30 51  1  0  0  0  0
M  END
>  <DRUGBANK_ID>
DB17139

>  <COMMON_NAME>
MB07133

>  <CAS_NUMBER>
685111-92-6

>  <UNII>
BNL5ERR07R

>  <SYNONYMS>
(2R,4S)-4-amino-1-(5-O-(2-oxo-4-(4-pyridyl)-1,3,2-dioxaphosphorinan-2-yl)-beta-d-arabinofuranosyl)-2(1H)-pyrimidinone; 2(1h)-pyrimidinone, 4-amino-1-(5-o-((2r,4s)-2-oxido-4-(4-pyridinyl)-1,3,2-dioxaphosphorinan-2-yl)-.beta.-d-arabinofuranosyl)-; 4-amino-1-(5-o-((2r, 4s)-2-oxido-4-(4-pyridinyl)-1, 3, 2-dioxaphosphorinan-2-yl)-.beta.-d-arabinofuranosyl)-2(1h)-pyrimidinone; 4-Amino-1-[5-O-[(2R, 4S)-2-oxido-4-(4-pyridinyl)-1, 3, 2-dioxaphosphorinan-2-yl]-b-D-arabinofuranosyl]-2(1H)-pyrimidinone

$$$$
