VXX
 OpenBabel10282417072D

 23 23  0  0  0  0  0  0  0  0999 V2000
    2.0879   -0.5069    0.0000 C   0  0  0  0  0  0  0  0  0  0  0  0
    2.0879   -1.3319    0.0000 C   0  0  0  0  0  0  0  0  0  0  0  0
    1.3735   -0.0944    0.0000 C   0  0  0  0  0  0  0  0  0  0  0  0
    1.3735   -1.7444    0.0000 C   0  0  0  0  0  0  0  0  0  0  0  0
    0.6590   -0.5069    0.0000 C   0  0  0  0  0  0  0  0  0  0  0  0
   -0.0555   -0.0944    0.0000 O   0  0  0  0  0  0  0  0  0  0  0  0
    0.6590   -1.3319    0.0000 C   0  0  0  0  0  0  0  0  0  0  0  0
    2.8024   -0.0944    0.0000 C   0  0  0  0  0  0  0  0  0  0  0  0
   -0.7699   -0.5069    0.0000 C   0  0  0  0  0  0  0  0  0  0  0  0
    2.8024    0.7306    0.0000 O   0  0  0  0  0  0  0  0  0  0  0  0
    3.5169   -0.5069    0.0000 O   0  0  0  0  0  0  0  0  0  0  0  0
   -0.0555   -1.7444    0.0000 O   0  0  0  0  0  0  0  0  0  0  0  0
    4.2313   -0.0944    0.0000 C   0  0  0  0  0  0  0  0  0  0  0  0
    2.9816   -1.8479    0.0000 H   0  0  0  0  0  0  0  0  0  0  0  0
    1.3735    0.9376    0.0000 H   0  0  0  0  0  0  0  0  0  0  0  0
    1.3735   -2.7764    0.0000 H   0  0  0  0  0  0  0  0  0  0  0  0
   -1.6966    0.0281    0.0000 H   0  0  0  0  0  0  0  0  0  0  0  0
   -0.7699   -1.5769    0.0000 H   0  0  0  0  0  0  0  0  0  0  0  0
   -1.6965   -1.0419    0.0000 H   0  0  0  0  0  0  0  0  0  0  0  0
   -0.8670   -1.2759    0.0000 H   0  0  0  0  0  0  0  0  0  0  0  0
    5.1580   -0.6294    0.0000 H   0  0  0  0  0  0  0  0  0  0  0  0
    4.2313    0.9756    0.0000 H   0  0  0  0  0  0  0  0  0  0  0  0
    5.1579    0.4406    0.0000 H   0  0  0  0  0  0  0  0  0  0  0  0
  1  2  1  0  0  0  0
  1  3  2  0  0  0  0
  1  8  1  0  0  0  0
  2  4  2  0  0  0  0
  2 14  1  0  0  0  0
  3  5  1  0  0  0  0
  3 15  1  0  0  0  0
  4  7  1  0  0  0  0
  4 16  1  0  0  0  0
  5  6  1  0  0  0  0
  5  7  2  0  0  0  0
  6  9  1  0  0  0  0
  7 12  1  0  0  0  0
  8 10  2  0  0  0  0
  8 11  1  0  0  0  0
  9 17  1  0  0  0  0
  9 18  1  0  0  0  0
  9 19  1  0  0  0  0
 11 13  1  0  0  0  0
 12 20  1  0  0  0  0
 13 21  1  0  0  0  0
 13 22  1  0  0  0  0
 13 23  1  0  0  0  0
M  END
>  <DRUGBANK_ID>
DB08711

>  <COMMON_NAME>
Methyl vanillate

>  <CAS_NUMBER>
3943-74-6

>  <UNII>
2HXG8QSO3D

>  <SYNONYMS>
4-hydroxy-3-methoxy methyl benzoate; 4-hydroxy-3-methoxybenzoic acid methyl ester; Methyl 3-methoxy-4-hydroxybenzoate; Methyl 4-hydroxy-3-methoxybenzoate; Vanillic acid, methyl ester

$$$$
