
 OpenBabel10282417072D

 82 86  0  0  0  0  0  0  0  0999 V2000
    3.5671    2.4546    0.0000 O   0  0  0  0  0  0  0  0  0  0  0  0
   -0.6834   -2.4795    0.0000 O   0  0  0  0  0  0  0  0  0  0  0  0
    0.7000   -0.0374    0.0000 C   0  0  2  0  0  0  0  0  0  0  0  0
    0.7000    0.7543    0.0000 C   0  0  1  0  0  0  0  0  0  0  0  0
    1.4168    1.1793    0.0000 C   0  0  2  0  0  0  0  0  0  0  0  0
    0.0166   -0.4375    0.0000 C   0  0  1  0  0  0  0  0  0  0  0  0
    2.1337    0.7709    0.0000 C   0  0  1  0  0  0  0  0  0  0  0  0
    1.4168   -0.4626    0.0000 C   0  0  0  0  0  0  0  0  0  0  0  0
    2.1337   -0.0541    0.0000 C   0  0  0  0  0  0  0  0  0  0  0  0
    2.8838    1.1960    0.0000 C   0  0  0  0  0  0  0  0  0  0  0  0
    0.0166    1.1460    0.0000 C   0  0  0  0  0  0  0  0  0  0  0  0
   -0.6751   -0.0374    0.0000 C   0  0  0  0  0  0  0  0  0  0  0  0
    1.3919    2.0378    0.0000 C   0  0  0  0  0  0  0  0  0  0  0  0
    0.0250   -1.2626    0.0000 C   0  0  0  0  0  0  0  0  0  0  0  0
   -0.6751    0.7543    0.0000 C   0  0  0  0  0  0  0  0  0  0  0  0
   -1.4001   -1.2710    0.0000 C   0  0  1  0  0  0  0  0  0  0  0  0
    0.9751   -0.7876    0.0000 C   0  0  0  0  0  0  0  0  0  0  0  0
   -1.3919   -0.4459    0.0000 C   0  0  0  0  0  0  0  0  0  0  0  0
    2.8838    2.0545    0.0000 C   0  0  2  0  0  0  0  0  0  0  0  0
    0.7251    1.5711    0.0000 C   0  0  0  0  0  0  0  0  0  0  0  0
   -0.6834   -1.6794    0.0000 C   0  0  1  0  0  0  0  0  0  0  0  0
    2.1337    2.4795    0.0000 C   0  0  0  0  0  0  0  0  0  0  0  0
    0.5250   -1.0460    0.0000 C   0  0  0  0  0  0  0  0  0  0  0  0
   -2.1253    0.0041    0.0000 C   0  0  0  0  0  0  0  0  0  0  0  0
   -2.1419   -1.7044    0.0000 C   0  0  0  0  0  0  0  0  0  0  0  0
    3.2754    0.5042    0.0000 C   0  0  0  0  0  0  0  0  0  0  0  0
    3.6756    1.1876    0.0000 C   0  0  0  0  0  0  0  0  0  0  0  0
   -2.8838   -0.4125    0.0000 C   0  0  0  0  0  0  0  0  0  0  0  0
   -2.8921   -1.2793    0.0000 C   0  0  0  0  0  0  0  0  0  0  0  0
   -1.4085   -2.0628    0.0000 C   0  0  0  0  0  0  0  0  0  0  0  0
   -3.2672    0.2792    0.0000 C   0  0  0  0  0  0  0  0  0  0  0  0
   -3.6756   -0.4042    0.0000 C   0  0  0  0  0  0  0  0  0  0  0  0
    0.7000    1.3877    0.0000 H   0  0  0  0  0  0  0  0  0  0  0  0
    2.6837    0.4459    0.0000 H   0  0  0  0  0  0  0  0  0  0  0  0
    4.4101    1.9748    0.0000 H   0  0  0  0  0  0  0  0  0  0  0  0
   -1.5234   -2.9645    0.0000 H   0  0  0  0  0  0  0  0  0  0  0  0
    1.4075   -1.5326    0.0000 H   0  0  0  0  0  0  0  0  0  0  0  0
    2.3396   -1.0043    0.0000 H   0  0  0  0  0  0  0  0  0  0  0  0
    3.0588   -0.5917    0.0000 H   0  0  0  0  0  0  0  0  0  0  0  0
    2.1291   -1.1241    0.0000 H   0  0  0  0  0  0  0  0  0  0  0  0
    0.0194    2.2160    0.0000 H   0  0  0  0  0  0  0  0  0  0  0  0
   -0.9071    1.6861    0.0000 H   0  0  0  0  0  0  0  0  0  0  0  0
    0.4541    2.5530    0.0000 H   0  0  0  0  0  0  0  0  0  0  0  0
    1.3733    3.1076    0.0000 H   0  0  0  0  0  0  0  0  0  0  0  0
    0.9565   -1.7891    0.0000 H   0  0  0  0  0  0  0  0  0  0  0  0
    0.0343   -2.3326    0.0000 H   0  0  0  0  0  0  0  0  0  0  0  0
   -1.5995    1.2932    0.0000 H   0  0  0  0  0  0  0  0  0  0  0  0
   -1.6029    0.2212    0.0000 H   0  0  0  0  0  0  0  0  0  0  0  0
    0.2893   -1.6089    0.0000 H   0  0  0  0  0  0  0  0  0  0  0  0
    2.0293   -0.9709    0.0000 H   0  0  0  0  0  0  0  0  0  0  0  0
    1.3435   -1.7922    0.0000 H   0  0  0  0  0  0  0  0  0  0  0  0
    3.8121    1.5223    0.0000 H   0  0  0  0  0  0  0  0  0  0  0  0
    0.7163    2.6411    0.0000 H   0  0  0  0  0  0  0  0  0  0  0  0
   -0.1971    1.0285    0.0000 H   0  0  0  0  0  0  0  0  0  0  0  0
   -0.2059    2.0985    0.0000 H   0  0  0  0  0  0  0  0  0  0  0  0
    0.2454   -2.2106    0.0000 H   0  0  0  0  0  0  0  0  0  0  0  0
    2.1222    3.5494    0.0000 H   0  0  0  0  0  0  0  0  0  0  0  0
    3.0553    3.0232    0.0000 H   0  0  0  0  0  0  0  0  0  0  0  0
    0.1569   -2.0507    0.0000 H   0  0  0  0  0  0  0  0  0  0  0  0
    1.5791   -0.8624    0.0000 H   0  0  0  0  0  0  0  0  0  0  0  0
    1.2110   -1.8671    0.0000 H   0  0  0  0  0  0  0  0  0  0  0  0
   -2.0996    1.0738    0.0000 H   0  0  0  0  0  0  0  0  0  0  0  0
   -3.0396    0.5600    0.0000 H   0  0  0  0  0  0  0  0  0  0  0  0
   -2.1348   -2.7744    0.0000 H   0  0  0  0  0  0  0  0  0  0  0  0
   -3.0646   -2.2462    0.0000 H   0  0  0  0  0  0  0  0  0  0  0  0
    2.7325   -0.4179    0.0000 H   0  0  0  0  0  0  0  0  0  0  0  0
    4.3454    0.4951    0.0000 H   0  0  0  0  0  0  0  0  0  0  0  0
    3.8025   -0.4270    0.0000 H   0  0  0  0  0  0  0  0  0  0  0  0
    4.2007    0.2553    0.0000 H   0  0  0  0  0  0  0  0  0  0  0  0
    4.2204    2.1085    0.0000 H   0  0  0  0  0  0  0  0  0  0  0  0
    4.7455    1.1762    0.0000 H   0  0  0  0  0  0  0  0  0  0  0  0
   -3.8192   -1.8136    0.0000 H   0  0  0  0  0  0  0  0  0  0  0  0
   -3.8160   -0.7395    0.0000 H   0  0  0  0  0  0  0  0  0  0  0  0
   -2.3408   -2.5879    0.0000 H   0  0  0  0  0  0  0  0  0  0  0  0
   -0.4876   -2.6076    0.0000 H   0  0  0  0  0  0  0  0  0  0  0  0
   -1.4199   -3.1327    0.0000 H   0  0  0  0  0  0  0  0  0  0  0  0
   -2.7161    1.1964    0.0000 H   0  0  0  0  0  0  0  0  0  0  0  0
   -4.3370    0.2979    0.0000 H   0  0  0  0  0  0  0  0  0  0  0  0
   -3.7859    1.2151    0.0000 H   0  0  0  0  0  0  0  0  0  0  0  0
   -4.2009    0.5280    0.0000 H   0  0  0  0  0  0  0  0  0  0  0  0
   -4.2203   -1.3252    0.0000 H   0  0  0  0  0  0  0  0  0  0  0  0
   -4.7455   -0.3930    0.0000 H   0  0  0  0  0  0  0  0  0  0  0  0
  1 35  1  0  0  0  0
  2 36  1  0  0  0  0
  3  4  1  0  0  0  0
  3  6  1  0  0  0  0
  3  8  1  0  0  0  0
  3 17  1  6  0  0  0
  4  5  1  0  0  0  0
  4 11  1  0  0  0  0
  4 33  1  1  0  0  0
  5  7  1  0  0  0  0
  5 13  1  0  0  0  0
  5 20  1  6  0  0  0
  6 12  1  0  0  0  0
  6 14  1  0  0  0  0
  6 23  1  1  0  0  0
  7  9  1  0  0  0  0
  7 10  1  0  0  0  0
  7 34  1  1  0  0  0
  8  9  1  0  0  0  0
  8 37  1  0  0  0  0
  8 38  1  0  0  0  0
  9 39  1  0  0  0  0
  9 40  1  0  0  0  0
 10 19  1  0  0  0  0
 10 26  1  0  0  0  0
 10 27  1  0  0  0  0
 11 15  1  0  0  0  0
 11 41  1  0  0  0  0
 11 42  1  0  0  0  0
 12 15  1  0  0  0  0
 12 18  2  0  0  0  0
 13 22  1  0  0  0  0
 13 43  1  0  0  0  0
 13 44  1  0  0  0  0
 14 21  1  0  0  0  0
 14 45  1  0  0  0  0
 14 46  1  0  0  0  0
 15 47  1  0  0  0  0
 15 48  1  0  0  0  0
 16 18  1  0  0  0  0
 16 21  1  0  0  0  0
 16 25  1  0  0  0  0
 16 30  1  6  0  0  0
 17 49  1  0  0  0  0
 17 50  1  0  0  0  0
 17 51  1  0  0  0  0
 18 24  1  0  0  0  0
 19  1  1  0  0  0  0
 19 22  1  0  0  0  0
 19 52  1  1  0  0  0
 20 53  1  0  0  0  0
 20 54  1  0  0  0  0
 20 55  1  0  0  0  0
 21  2  1  0  0  0  0
 21 56  1  1  0  0  0
 22 57  1  0  0  0  0
 22 58  1  0  0  0  0
 23 59  1  0  0  0  0
 23 60  1  0  0  0  0
 23 61  1  0  0  0  0
 24 28  1  0  0  0  0
 24 62  1  0  0  0  0
 24 63  1  0  0  0  0
 25 29  1  0  0  0  0
 25 64  1  0  0  0  0
 25 65  1  0  0  0  0
 26 66  1  0  0  0  0
 26 67  1  0  0  0  0
 26 68  1  0  0  0  0
 27 69  1  0  0  0  0
 27 70  1  0  0  0  0
 27 71  1  0  0  0  0
 28 29  1  0  0  0  0
 28 31  1  0  0  0  0
 28 32  1  0  0  0  0
 29 72  1  0  0  0  0
 29 73  1  0  0  0  0
 30 74  1  0  0  0  0
 30 75  1  0  0  0  0
 30 76  1  0  0  0  0
 31 77  1  0  0  0  0
 31 78  1  0  0  0  0
 31 79  1  0  0  0  0
 32 80  1  0  0  0  0
 32 81  1  0  0  0  0
 32 82  1  0  0  0  0
M  END
>  <DRUGBANK_ID>
DB14555

>  <COMMON_NAME>
Ursadiol

>  <CAS_NUMBER>
37384-13-7

>  <UNII>
3D089V7L0K

>  <SYNONYMS>
Coflodiol

$$$$
