
 OpenBabel10282417072D

 46 48  0  0  1  0  0  0  0  0999 V2000
    1.1269   -0.2062    0.0000 N   0  0  0  0  0  0  0  0  0  0  0  0
    1.1269    0.6187    0.0000 C   0  0  1  0  0  0  0  0  0  0  0  0
    1.8414   -0.6187    0.0000 C   0  0  0  0  0  0  0  0  0  0  0  0
    0.3019   -0.2062    0.0000 C   0  0  0  0  0  0  0  0  0  0  0  0
    0.3019    0.6187    0.0000 C   0  0  1  0  0  0  0  0  0  0  0  0
    1.8414    1.0312    0.0000 S   0  0  0  0  0  0  0  0  0  0  0  0
    2.5559   -0.2062    0.0000 C   0  0  0  0  0  0  0  0  0  0  0  0
    1.8414   -1.4437    0.0000 C   0  0  0  0  0  0  0  0  0  0  0  0
   -0.4124   -0.6187    0.0000 O   0  0  0  0  0  0  0  0  0  0  0  0
   -0.4124    1.0312    0.0000 N   0  0  0  0  0  0  0  0  0  0  0  0
    2.5559    0.6187    0.0000 C   0  0  0  0  0  0  0  0  0  0  0  0
    3.2703   -0.6187    0.0000 C   0  0  0  0  0  0  0  0  0  0  0  0
    2.5559   -1.8562    0.0000 O   0  0  0  0  0  0  0  0  0  0  0  0
    1.1269   -1.8562    0.0000 O   0  0  0  0  0  0  0  0  0  0  0  0
   -1.1269    0.6187    0.0000 C   0  0  0  0  0  0  0  0  0  0  0  0
    3.9848   -0.2062    0.0000 C   0  0  0  0  0  0  0  0  0  0  0  0
   -1.8414    1.0312    0.0000 C   0  0  2  0  0  0  0  0  0  0  0  0
   -1.1269   -0.2062    0.0000 O   0  0  0  0  0  0  0  0  0  0  0  0
   -1.8414    1.8562    0.0000 N   0  0  0  0  0  0  0  0  0  0  0  0
    0.2873    1.3935    0.0000 H   0  0  0  0  0  0  0  0  0  0  0  0
    1.1415    1.3935    0.0000 H   0  0  0  0  0  0  0  0  0  0  0  0
   -2.5559    0.6187    0.0000 C   0  0  0  0  0  0  0  0  0  0  0  0
   -3.2703    1.0312    0.0000 C   0  0  0  0  0  0  0  0  0  0  0  0
   -2.5559   -0.2062    0.0000 C   0  0  0  0  0  0  0  0  0  0  0  0
   -3.9848    0.6187    0.0000 C   0  0  0  0  0  0  0  0  0  0  0  0
   -3.2703   -0.6187    0.0000 C   0  0  0  0  0  0  0  0  0  0  0  0
   -3.9848   -0.2062    0.0000 C   0  0  0  0  0  0  0  0  0  0  0  0
   -4.6993   -0.6187    0.0000 O   0  0  0  0  0  0  0  0  0  0  0  0
    4.6993   -0.6187    0.0000 C   0  0  0  0  0  0  0  0  0  0  0  0
   -0.4123    2.0157    0.0000 H   0  0  0  0  0  0  0  0  0  0  0  0
    3.4825    1.1537    0.0000 H   0  0  0  0  0  0  0  0  0  0  0  0
    3.4825    0.0837    0.0000 H   0  0  0  0  0  0  0  0  0  0  0  0
    3.2703   -1.6507    0.0000 H   0  0  0  0  0  0  0  0  0  0  0  0
    0.3154   -1.3877    0.0000 H   0  0  0  0  0  0  0  0  0  0  0  0
    3.9848    0.8258    0.0000 H   0  0  0  0  0  0  0  0  0  0  0  0
   -0.9148    1.5662    0.0000 H   0  0  0  0  0  0  0  0  0  0  0  0
   -0.9581    2.3662    0.0000 H   0  0  0  0  0  0  0  0  0  0  0  0
   -2.7247    2.3662    0.0000 H   0  0  0  0  0  0  0  0  0  0  0  0
   -3.2703    2.0632    0.0000 H   0  0  0  0  0  0  0  0  0  0  0  0
   -1.6622   -0.7222    0.0000 H   0  0  0  0  0  0  0  0  0  0  0  0
   -4.8785    1.1347    0.0000 H   0  0  0  0  0  0  0  0  0  0  0  0
   -3.2703   -1.6507    0.0000 H   0  0  0  0  0  0  0  0  0  0  0  0
   -5.5108   -0.1502    0.0000 H   0  0  0  0  0  0  0  0  0  0  0  0
    4.6993   -1.6887    0.0000 H   0  0  0  0  0  0  0  0  0  0  0  0
    5.6259   -0.0837    0.0000 H   0  0  0  0  0  0  0  0  0  0  0  0
    5.6260   -1.1537    0.0000 H   0  0  0  0  0  0  0  0  0  0  0  0
  2  1  1  0  0  0  0
  2 21  1  6  0  0  0
  3  1  1  0  0  0  0
  4  1  1  0  0  0  0
  5  2  1  0  0  0  0
  5  4  1  0  0  0  0
  5 10  1  0  0  0  0
  5 20  1  6  0  0  0
  6  2  1  0  0  0  0
  7  3  2  0  0  0  0
  8  3  1  0  0  0  0
  9  4  2  0  0  0  0
 10 30  1  0  0  0  0
 11  6  1  0  0  0  0
 11  7  1  0  0  0  0
 11 31  1  0  0  0  0
 11 32  1  0  0  0  0
 12  7  1  0  0  0  0
 12 33  1  0  0  0  0
 13  8  2  0  0  0  0
 14  8  1  0  0  0  0
 14 34  1  0  0  0  0
 15 10  1  0  0  0  0
 16 12  2  3  0  0  0
 16 29  1  0  0  0  0
 16 35  1  0  0  0  0
 17 15  1  0  0  0  0
 17 19  1  0  0  0  0
 17 36  1  6  0  0  0
 18 15  2  0  0  0  0
 19 37  1  0  0  0  0
 19 38  1  0  0  0  0
 22 17  1  0  0  0  0
 23 22  1  0  0  0  0
 23 39  1  0  0  0  0
 24 22  2  0  0  0  0
 24 40  1  0  0  0  0
 25 23  2  0  0  0  0
 25 41  1  0  0  0  0
 26 24  1  0  0  0  0
 26 42  1  0  0  0  0
 27 25  1  0  0  0  0
 27 26  2  0  0  0  0
 28 27  1  0  0  0  0
 28 43  1  0  0  0  0
 29 44  1  0  0  0  0
 29 45  1  0  0  0  0
 29 46  1  0  0  0  0
M  END
>  <DRUGBANK_ID>
DB01150

>  <SECONDARY_ACCESSION_NUMBERS>
APRD00461

>  <COMMON_NAME>
Cefprozil

>  <CAS_NUMBER>
92665-29-7

>  <UNII>
1M698F4H4E

>  <SYNONYMS>
Cefprozil; Cefprozil anhydrous; Cefprozilo; Cefprozilum

$$$$
