
 OpenBabel10282417072D

 54 57  0  0  1  0  0  0  0  0999 V2000
    2.1434   -2.8875    0.0000 C   0  0  0  0  0  0  0  0  0  0  0  0
    1.4289   -2.4750    0.0000 C   0  0  1  0  0  0  0  0  0  0  0  0
    0.7145   -2.8875    0.0000 N   0  0  0  0  0  0  0  0  0  0  0  0
    0.7145   -3.7125    0.0000 C   0  0  0  0  0  0  0  0  0  0  0  0
    1.4289   -4.1250    0.0000 C   0  0  0  0  0  0  0  0  0  0  0  0
    1.4289   -4.9500    0.0000 C   0  0  0  0  0  0  0  0  0  0  0  0
    0.7145   -5.3625    0.0000 C   0  0  0  0  0  0  0  0  0  0  0  0
    0.0000   -4.9500    0.0000 C   0  0  0  0  0  0  0  0  0  0  0  0
    0.0000   -4.1250    0.0000 C   0  0  0  0  0  0  0  0  0  0  0  0
   -0.7145   -3.7125    0.0000 C   0  0  0  0  0  0  0  0  0  0  0  0
   -0.7145   -2.8875    0.0000 O   0  0  0  0  0  0  0  0  0  0  0  0
   -1.4289   -4.1250    0.0000 O   0  0  0  0  0  0  0  0  0  0  0  0
    1.4289   -1.6500    0.0000 C   0  0  0  0  0  0  0  0  0  0  0  0
    0.7145   -1.2375    0.0000 C   0  0  0  0  0  0  0  0  0  0  0  0
    0.7145   -0.4125    0.0000 C   0  0  0  0  0  0  0  0  0  0  0  0
    0.0000    0.0000    0.0000 C   0  0  0  0  0  0  0  0  0  0  0  0
    1.4289    0.0000    0.0000 C   0  0  0  0  0  0  0  0  0  0  0  0
    2.1434   -0.4125    0.0000 N   0  0  0  0  0  0  0  0  0  0  0  0
    2.8579    0.0000    0.0000 C   0  0  0  0  0  0  0  0  0  0  0  0
    2.8579    0.8250    0.0000 O   0  0  0  0  0  0  0  0  0  0  0  0
    3.5724   -0.4125    0.0000 C   0  0  0  0  0  0  0  0  0  0  0  0
    3.5724   -1.2375    0.0000 C   0  0  0  0  0  0  0  0  0  0  0  0
    2.8579   -1.6500    0.0000 N   0  0  0  0  0  0  0  0  0  0  0  0
    2.1434   -1.2375    0.0000 C   0  0  0  0  0  0  0  0  0  0  0  0
    4.2868   -1.6500    0.0000 N   0  0  0  0  0  0  0  0  0  0  0  0
    5.0013   -1.2375    0.0000 C   0  0  0  0  0  0  0  0  0  0  0  0
    5.7158   -1.6500    0.0000 C   0  0  0  0  0  0  0  0  0  0  0  0
    5.7158   -2.4750    0.0000 O   0  0  0  0  0  0  0  0  0  0  0  0
    5.0013   -2.8875    0.0000 C   0  0  0  0  0  0  0  0  0  0  0  0
    4.2868   -2.4750    0.0000 C   0  0  0  0  0  0  0  0  0  0  0  0
    2.1434   -3.9575    0.0000 H   0  0  0  0  0  0  0  0  0  0  0  0
    3.0700   -2.3525    0.0000 H   0  0  0  0  0  0  0  0  0  0  0  0
    3.0701   -3.4225    0.0000 H   0  0  0  0  0  0  0  0  0  0  0  0
    1.4289   -3.5450    0.0000 H   0  0  0  0  0  0  0  0  0  0  0  0
   -0.1381   -2.3953    0.0000 H   0  0  0  0  0  0  0  0  0  0  0  0
    2.3226   -3.6090    0.0000 H   0  0  0  0  0  0  0  0  0  0  0  0
    2.3226   -5.4660    0.0000 H   0  0  0  0  0  0  0  0  0  0  0  0
    0.7145   -6.3945    0.0000 H   0  0  0  0  0  0  0  0  0  0  0  0
   -0.8937   -5.4660    0.0000 H   0  0  0  0  0  0  0  0  0  0  0  0
    0.0970   -2.4190    0.0000 H   0  0  0  0  0  0  0  0  0  0  0  0
   -0.1792   -1.7535    0.0000 H   0  0  0  0  0  0  0  0  0  0  0  0
   -0.0000    1.0700    0.0000 H   0  0  0  0  0  0  0  0  0  0  0  0
   -0.9266   -0.5350    0.0000 H   0  0  0  0  0  0  0  0  0  0  0  0
   -0.9267    0.5350    0.0000 H   0  0  0  0  0  0  0  0  0  0  0  0
    1.4289    1.0320    0.0000 H   0  0  0  0  0  0  0  0  0  0  0  0
    4.4661    0.1035    0.0000 H   0  0  0  0  0  0  0  0  0  0  0  0
    5.0013   -0.1675    0.0000 H   0  0  0  0  0  0  0  0  0  0  0  0
    5.9279   -0.7025    0.0000 H   0  0  0  0  0  0  0  0  0  0  0  0
    6.6424   -1.1150    0.0000 H   0  0  0  0  0  0  0  0  0  0  0  0
    6.6424   -2.1850    0.0000 H   0  0  0  0  0  0  0  0  0  0  0  0
    5.0013   -3.9575    0.0000 H   0  0  0  0  0  0  0  0  0  0  0  0
    4.0747   -3.4225    0.0000 H   0  0  0  0  0  0  0  0  0  0  0  0
    3.3602   -3.0100    0.0000 H   0  0  0  0  0  0  0  0  0  0  0  0
    3.3602   -1.9400    0.0000 H   0  0  0  0  0  0  0  0  0  0  0  0
  1 31  1  0  0  0  0
  1 32  1  0  0  0  0
  1 33  1  0  0  0  0
  2  1  1  0  0  0  0
  2  3  1  0  0  0  0
  2 13  1  0  0  0  0
  2 34  1  6  0  0  0
  3  4  1  0  0  0  0
  3 35  1  0  0  0  0
  4  5  2  0  0  0  0
  4  9  1  0  0  0  0
  5  6  1  0  0  0  0
  5 36  1  0  0  0  0
  6  7  2  0  0  0  0
  6 37  1  0  0  0  0
  7  8  1  0  0  0  0
  7 38  1  0  0  0  0
  8  9  2  0  0  0  0
  8 39  1  0  0  0  0
  9 10  1  0  0  0  0
 10 11  1  0  0  0  0
 10 12  2  0  0  0  0
 11 40  1  0  0  0  0
 13 14  2  0  0  0  0
 13 24  1  0  0  0  0
 14 15  1  0  0  0  0
 14 41  1  0  0  0  0
 15 16  1  0  0  0  0
 15 17  2  0  0  0  0
 16 42  1  0  0  0  0
 16 43  1  0  0  0  0
 16 44  1  0  0  0  0
 17 18  1  0  0  0  0
 17 45  1  0  0  0  0
 18 19  1  0  0  0  0
 18 24  1  0  0  0  0
 19 20  2  0  0  0  0
 19 21  1  0  0  0  0
 21 22  2  0  0  0  0
 21 46  1  0  0  0  0
 22 23  1  0  0  0  0
 22 25  1  0  0  0  0
 23 24  2  0  0  0  0
 25 26  1  0  0  0  0
 25 30  1  0  0  0  0
 26 27  1  0  0  0  0
 26 47  1  0  0  0  0
 26 48  1  0  0  0  0
 27 28  1  0  0  0  0
 27 49  1  0  0  0  0
 27 50  1  0  0  0  0
 28 29  1  0  0  0  0
 29 30  1  0  0  0  0
 29 51  1  0  0  0  0
 29 52  1  0  0  0  0
 30 53  1  0  0  0  0
 30 54  1  0  0  0  0
M  END
>  <DRUGBANK_ID>
DB14980

>  <COMMON_NAME>
AZD-6482

>  <CAS_NUMBER>
1173900-33-8

>  <UNII>
78G6MP5PZ5

$$$$
