SCL
 OpenBabel10282417072D

 23 23  0  0  0  0  0  0  0  0999 V2000
   -0.7229    0.1749    0.0000 C   0  0  0  0  0  0  0  0  0  0  0  0
   -0.7229   -0.6501    0.0000 C   0  0  0  0  0  0  0  0  0  0  0  0
   -1.4374   -1.0626    0.0000 C   0  0  0  0  0  0  0  0  0  0  0  0
   -2.1519   -0.6501    0.0000 C   0  0  0  0  0  0  0  0  0  0  0  0
   -2.1519    0.1749    0.0000 C   0  0  0  0  0  0  0  0  0  0  0  0
   -1.4374    0.5874    0.0000 C   0  0  0  0  0  0  0  0  0  0  0  0
   -0.0084    0.5874    0.0000 C   0  0  0  0  0  0  0  0  0  0  0  0
    2.1350    0.1749    0.0000 C   0  0  0  0  0  0  0  0  0  0  0  0
    2.8494    0.5874    0.0000 C   0  0  0  0  0  0  0  0  0  0  0  0
    0.7060    0.1749    0.0000 N   0  0  0  0  0  0  0  0  0  0  0  0
   -0.0084   -1.0626    0.0000 O   0  0  0  0  0  0  0  0  0  0  0  0
   -0.0084    1.4124    0.0000 O   0  0  0  0  0  0  0  0  0  0  0  0
    1.4205    0.5874    0.0000 O   0  0  0  0  0  0  0  0  0  0  0  0
    2.1350   -0.6501    0.0000 O   0  0  0  0  0  0  0  0  0  0  0  0
   -1.4374   -2.0946    0.0000 H   0  0  0  0  0  0  0  0  0  0  0  0
   -3.0456   -1.1661    0.0000 H   0  0  0  0  0  0  0  0  0  0  0  0
   -3.0456    0.6909    0.0000 H   0  0  0  0  0  0  0  0  0  0  0  0
   -1.4374    1.6194    0.0000 H   0  0  0  0  0  0  0  0  0  0  0  0
    3.7761    0.0524    0.0000 H   0  0  0  0  0  0  0  0  0  0  0  0
    2.8494    1.6574    0.0000 H   0  0  0  0  0  0  0  0  0  0  0  0
    3.7760    1.1224    0.0000 H   0  0  0  0  0  0  0  0  0  0  0  0
    0.7060   -0.8096    0.0000 H   0  0  0  0  0  0  0  0  0  0  0  0
   -0.0084   -1.9996    0.0000 H   0  0  0  0  0  0  0  0  0  0  0  0
  1  2  2  0  0  0  0
  1  6  1  0  0  0  0
  1  7  1  0  0  0  0
  2  3  1  0  0  0  0
  2 11  1  0  0  0  0
  3  4  2  0  0  0  0
  3 15  1  0  0  0  0
  4  5  1  0  0  0  0
  4 16  1  0  0  0  0
  5  6  2  0  0  0  0
  5 17  1  0  0  0  0
  6 18  1  0  0  0  0
  7 10  1  0  0  0  0
  7 12  2  0  0  0  0
  8  9  1  0  0  0  0
  8 13  1  0  0  0  0
  8 14  2  0  0  0  0
  9 19  1  0  0  0  0
  9 20  1  0  0  0  0
  9 21  1  0  0  0  0
 10 13  1  0  0  0  0
 10 22  1  0  0  0  0
 11 23  1  0  0  0  0
M  END
>  <DRUGBANK_ID>
DB03667

>  <SECONDARY_ACCESSION_NUMBERS>
EXPT02867

>  <COMMON_NAME>
Acetic Acid Salicyloyl-Amino-Ester

$$$$
