
 OpenBabel10282417072D

 22 22  0  0  0  0  0  0  0  0999 V2000
    2.4210    0.7462    0.0000 C   0  0  0  0  0  0  0  0  0  0  0  0
    1.7065    0.3337    0.0000 C   0  0  0  0  0  0  0  0  0  0  0  0
    1.7065   -0.4913    0.0000 O   0  0  0  0  0  0  0  0  0  0  0  0
    0.9920    0.7462    0.0000 N   0  0  0  0  0  0  0  0  0  0  0  0
    0.2774    0.3337    0.0000 C   0  0  0  0  0  0  0  0  0  0  0  0
   -0.4369    0.7462    0.0000 C   0  0  0  0  0  0  0  0  0  0  0  0
   -1.1514    0.3337    0.0000 C   0  0  0  0  0  0  0  0  0  0  0  0
   -2.4210   -0.0787    0.0000 N   0  0  0  0  0  0  0  0  0  0  0  0
   -1.1514   -0.4913    0.0000 N   0  0  0  0  0  0  0  0  0  0  0  0
   -1.9361    0.5886    0.0000 C   0  0  0  0  0  0  0  0  0  0  0  0
   -1.9361   -0.7462    0.0000 C   0  0  0  0  0  0  0  0  0  0  0  0
    3.3476    0.2112    0.0000 H   0  0  0  0  0  0  0  0  0  0  0  0
    2.4210    1.8162    0.0000 H   0  0  0  0  0  0  0  0  0  0  0  0
    3.3477    1.2812    0.0000 H   0  0  0  0  0  0  0  0  0  0  0  0
    0.9920    1.7307    0.0000 H   0  0  0  0  0  0  0  0  0  0  0  0
    0.2773   -0.7363    0.0000 H   0  0  0  0  0  0  0  0  0  0  0  0
   -0.6493   -0.2012    0.0000 H   0  0  0  0  0  0  0  0  0  0  0  0
   -0.4368    1.8162    0.0000 H   0  0  0  0  0  0  0  0  0  0  0  0
    0.4898    1.2811    0.0000 H   0  0  0  0  0  0  0  0  0  0  0  0
   -3.4055   -0.0786    0.0000 H   0  0  0  0  0  0  0  0  0  0  0  0
   -2.2550    1.5701    0.0000 H   0  0  0  0  0  0  0  0  0  0  0  0
   -2.2551   -1.7277    0.0000 H   0  0  0  0  0  0  0  0  0  0  0  0
  1 12  1  0  0  0  0
  1 13  1  0  0  0  0
  1 14  1  0  0  0  0
  2  1  1  0  0  0  0
  2  3  2  0  0  0  0
  4  2  1  0  0  0  0
  4  5  1  0  0  0  0
  4 15  1  0  0  0  0
  5  6  1  0  0  0  0
  5 16  1  0  0  0  0
  5 17  1  0  0  0  0
  6  7  1  0  0  0  0
  6 18  1  0  0  0  0
  6 19  1  0  0  0  0
  7 10  2  0  0  0  0
  8 20  1  0  0  0  0
  9  7  1  0  0  0  0
 10  8  1  0  0  0  0
 10 21  1  0  0  0  0
 11  9  2  0  0  0  0
 11  8  1  0  0  0  0
 11 22  1  0  0  0  0
M  END
>  <DRUGBANK_ID>
DB04622

>  <COMMON_NAME>
N-acetylhistamine

>  <CAS_NUMBER>
673-49-4

>  <UNII>
E65S46EBQ6

>  <SYNONYMS>
4-(2-acetamidoethyl)imidazole; 4-(2-acetylaminoethyl)imidazole; 4-(beta-Acetylaminoethyl)imidazole; Î±-N-acetylhistamine

$$$$
