
 OpenBabel10282417072D

 51 53  0  0  0  0  0  0  0  0999 V2000
    2.4242   -2.4525    0.0000 C   0  0  0  0  0  0  0  0  0  0  0  0
    1.6131   -2.3015    0.0000 O   0  0  0  0  0  0  0  0  0  0  0  0
    1.3384   -1.5236    0.0000 C   0  0  0  0  0  0  0  0  0  0  0  0
    1.8746   -0.8968    0.0000 C   0  0  0  0  0  0  0  0  0  0  0  0
    2.6856   -1.0478    0.0000 O   0  0  0  0  0  0  0  0  0  0  0  0
    3.2220   -0.4209    0.0000 C   0  0  0  0  0  0  0  0  0  0  0  0
    1.5999   -0.1189    0.0000 C   0  0  0  0  0  0  0  0  0  0  0  0
    0.7888    0.0321    0.0000 C   0  0  0  0  0  0  0  0  0  0  0  0
    0.2524   -0.5947    0.0000 C   0  0  0  0  0  0  0  0  0  0  0  0
    0.5273   -1.3725    0.0000 C   0  0  0  0  0  0  0  0  0  0  0  0
   -0.0089   -1.9994    0.0000 O   0  0  0  0  0  0  0  0  0  0  0  0
    0.2657   -2.7773    0.0000 C   0  0  0  0  0  0  0  0  0  0  0  0
   -0.5719   -0.5663    0.0000 C   0  0  0  0  0  0  0  0  0  0  0  0
   -0.7832   -1.3637    0.0000 C   0  0  0  0  0  0  0  0  0  0  0  0
   -1.5384   -1.6958    0.0000 C   0  0  0  0  0  0  0  0  0  0  0  0
   -2.2689   -1.3124    0.0000 C   0  0  0  0  0  0  0  0  0  0  0  0
   -2.4245   -0.5024    0.0000 C   0  0  0  0  0  0  0  0  0  0  0  0
   -3.2219   -0.2912    0.0000 O   0  0  0  0  0  0  0  0  0  0  0  0
   -1.8883    0.1244    0.0000 C   0  0  0  0  0  0  0  0  0  0  0  0
   -1.0638    0.0960    0.0000 C   0  0  0  0  0  0  0  0  0  0  0  0
   -0.8526    0.8936    0.0000 C   0  0  3  0  0  0  0  0  0  0  0  0
   -0.0973    1.2257    0.0000 C   0  0  0  0  0  0  0  0  0  0  0  0
    0.6330    0.8423    0.0000 C   0  0  0  0  0  0  0  0  0  0  0  0
   -1.4795    1.4298    0.0000 N   0  0  0  0  0  0  0  0  0  0  0  0
   -1.3284    2.2409    0.0000 C   0  0  0  0  0  0  0  0  0  0  0  0
   -1.9553    2.7773    0.0000 O   0  0  0  0  0  0  0  0  0  0  0  0
   -0.5505    2.5157    0.0000 C   0  0  0  0  0  0  0  0  0  0  0  0
   -2.9310   -1.8043    0.0000 O   0  0  0  0  0  0  0  0  0  0  0  0
    2.7806   -3.4614    0.0000 H   0  0  0  0  0  0  0  0  0  0  0  0
    3.1198   -1.6394    0.0000 H   0  0  0  0  0  0  0  0  0  0  0  0
    3.4761   -2.6483    0.0000 H   0  0  0  0  0  0  0  0  0  0  0  0
    4.2739   -0.6168    0.0000 H   0  0  0  0  0  0  0  0  0  0  0  0
    2.8657    0.5880    0.0000 H   0  0  0  0  0  0  0  0  0  0  0  0
    3.9176    0.3921    0.0000 H   0  0  0  0  0  0  0  0  0  0  0  0
    2.2708    0.6653    0.0000 H   0  0  0  0  0  0  0  0  0  0  0  0
   -0.4300   -3.5902    0.0000 H   0  0  0  0  0  0  0  0  0  0  0  0
    1.3176   -2.9733    0.0000 H   0  0  0  0  0  0  0  0  0  0  0  0
    0.6219   -3.7863    0.0000 H   0  0  0  0  0  0  0  0  0  0  0  0
    0.0009   -2.0346    0.0000 H   0  0  0  0  0  0  0  0  0  0  0  0
   -1.5740   -2.7272    0.0000 H   0  0  0  0  0  0  0  0  0  0  0  0
   -2.3038    1.0691    0.0000 H   0  0  0  0  0  0  0  0  0  0  0  0
   -0.0396    0.1980    0.0000 H   0  0  0  0  0  0  0  0  0  0  0  0
   -0.0603    2.2951    0.0000 H   0  0  0  0  0  0  0  0  0  0  0  0
    0.8279    1.7633    0.0000 H   0  0  0  0  0  0  0  0  0  0  0  0
    1.4921    1.4802    0.0000 H   0  0  0  0  0  0  0  0  0  0  0  0
    1.6302    0.4543    0.0000 H   0  0  0  0  0  0  0  0  0  0  0  0
   -2.4078    1.1019    0.0000 H   0  0  0  0  0  0  0  0  0  0  0  0
    0.2626    1.8202    0.0000 H   0  0  0  0  0  0  0  0  0  0  0  0
   -0.3547    3.5676    0.0000 H   0  0  0  0  0  0  0  0  0  0  0  0
    0.4584    2.8721    0.0000 H   0  0  0  0  0  0  0  0  0  0  0  0
   -3.7910   -1.4323    0.0000 H   0  0  0  0  0  0  0  0  0  0  0  0
  1  2  1  0  0  0  0
  1 29  1  0  0  0  0
  1 30  1  0  0  0  0
  1 31  1  0  0  0  0
  2  3  1  0  0  0  0
  3  4  2  0  0  0  0
  3 10  1  0  0  0  0
  4  5  1  0  0  0  0
  4  7  1  0  0  0  0
  5  6  1  0  0  0  0
  6 32  1  0  0  0  0
  6 33  1  0  0  0  0
  6 34  1  0  0  0  0
  7  8  2  0  0  0  0
  7 35  1  0  0  0  0
  8  9  1  0  0  0  0
  8 23  1  0  0  0  0
  9 10  2  0  0  0  0
  9 13  1  0  0  0  0
 10 11  1  0  0  0  0
 11 12  1  0  0  0  0
 12 36  1  0  0  0  0
 12 37  1  0  0  0  0
 12 38  1  0  0  0  0
 13 14  2  0  0  0  0
 13 20  1  0  0  0  0
 14 15  1  0  0  0  0
 14 39  1  0  0  0  0
 15 16  2  0  0  0  0
 15 40  1  0  0  0  0
 16 17  1  0  0  0  0
 16 28  1  0  0  0  0
 17 18  2  0  0  0  0
 17 19  1  0  0  0  0
 19 20  2  0  0  0  0
 19 41  1  0  0  0  0
 20 21  1  0  0  0  0
 21 22  1  0  0  0  0
 21 24  1  0  0  0  0
 21 42  1  0  0  0  0
 22 23  1  0  0  0  0
 22 43  1  0  0  0  0
 22 44  1  0  0  0  0
 23 45  1  0  0  0  0
 23 46  1  0  0  0  0
 24 25  1  0  0  0  0
 24 47  1  0  0  0  0
 25 26  2  0  0  0  0
 25 27  1  0  0  0  0
 27 48  1  0  0  0  0
 27 49  1  0  0  0  0
 27 50  1  0  0  0  0
 28 51  1  0  0  0  0
M  END
>  <DRUGBANK_ID>
DB15534

>  <COMMON_NAME>
Colchiceine

>  <CAS_NUMBER>
477-27-0

>  <UNII>
HJ30158L57

>  <SYNONYMS>
10-O-demethylcolchicine; O-Demethylcolchicine; O10-Demethylcolchicine

$$$$
