
 OpenBabel10282417072D

 53 55  0  0  0  0  0  0  0  0999 V2000
    6.4302   -0.4125    0.0000 C   0  0  0  0  0  0  0  0  0  0  0  0
    6.4302   -1.2375    0.0000 C   0  0  0  0  0  0  0  0  0  0  0  0
    7.1447   -1.6500    0.0000 C   0  0  0  0  0  0  0  0  0  0  0  0
    7.1447   -2.4750    0.0000 C   0  0  0  0  0  0  0  0  0  0  0  0
    6.4302   -2.8875    0.0000 C   0  0  0  0  0  0  0  0  0  0  0  0
    5.7158   -2.4750    0.0000 C   0  0  0  0  0  0  0  0  0  0  0  0
    5.7158   -1.6500    0.0000 N   0  0  0  0  0  0  0  0  0  0  0  0
    6.4302   -3.7125    0.0000 N   0  0  0  0  0  0  0  0  0  0  0  0
    7.1447   -4.1250    0.0000 C   0  0  0  0  0  0  0  0  0  0  0  0
    7.8592   -3.7125    0.0000 O   0  0  0  0  0  0  0  0  0  0  0  0
    7.1447   -4.9500    0.0000 N   0  0  0  0  0  0  0  0  0  0  0  0
    7.8592   -5.3625    0.0000 C   0  0  0  0  0  0  0  0  0  0  0  0
    8.5737   -4.9500    0.0000 C   0  0  0  0  0  0  0  0  0  0  0  0
    9.2881   -5.3625    0.0000 C   0  0  0  0  0  0  0  0  0  0  0  0
    9.2881   -6.1875    0.0000 C   0  0  0  0  0  0  0  0  0  0  0  0
    8.5737   -6.6000    0.0000 C   0  0  0  0  0  0  0  0  0  0  0  0
    7.8592   -6.1875    0.0000 C   0  0  0  0  0  0  0  0  0  0  0  0
    7.1447   -6.6000    0.0000 F   0  0  0  0  0  0  0  0  0  0  0  0
    8.5737   -7.4250    0.0000 C   0  0  0  0  0  0  0  0  0  0  0  0
    7.8592   -7.8375    0.0000 N   0  0  0  0  0  0  0  0  0  0  0  0
    7.8592   -8.6625    0.0000 C   0  0  0  0  0  0  0  0  0  0  0  0
    7.1447   -9.0750    0.0000 C   0  0  0  0  0  0  0  0  0  0  0  0
    6.4302   -8.6625    0.0000 N   0  0  0  0  0  0  0  0  0  0  0  0
    6.4302   -7.8375    0.0000 C   0  0  0  0  0  0  0  0  0  0  0  0
    7.1447   -7.4250    0.0000 C   0  0  0  0  0  0  0  0  0  0  0  0
    5.7158   -9.0750    0.0000 C   0  0  0  0  0  0  0  0  0  0  0  0
    5.0013   -8.6625    0.0000 O   0  0  0  0  0  0  0  0  0  0  0  0
    5.7158   -9.9000    0.0000 O   0  0  0  0  0  0  0  0  0  0  0  0
    6.4302  -10.3125    0.0000 C   0  0  0  0  0  0  0  0  0  0  0  0
    7.3568    0.1225    0.0000 H   0  0  0  0  0  0  0  0  0  0  0  0
    5.5036    0.1225    0.0000 H   0  0  0  0  0  0  0  0  0  0  0  0
    6.4302    0.6575    0.0000 H   0  0  0  0  0  0  0  0  0  0  0  0
    8.0384   -1.1340    0.0000 H   0  0  0  0  0  0  0  0  0  0  0  0
    8.0384   -2.9910    0.0000 H   0  0  0  0  0  0  0  0  0  0  0  0
    4.8221   -2.9910    0.0000 H   0  0  0  0  0  0  0  0  0  0  0  0
    5.5776   -4.2048    0.0000 H   0  0  0  0  0  0  0  0  0  0  0  0
    6.2921   -5.4423    0.0000 H   0  0  0  0  0  0  0  0  0  0  0  0
    8.5737   -3.9180    0.0000 H   0  0  0  0  0  0  0  0  0  0  0  0
   10.1818   -4.8465    0.0000 H   0  0  0  0  0  0  0  0  0  0  0  0
   10.1818   -6.7035    0.0000 H   0  0  0  0  0  0  0  0  0  0  0  0
    9.5003   -7.9600    0.0000 H   0  0  0  0  0  0  0  0  0  0  0  0
    8.5737   -8.4950    0.0000 H   0  0  0  0  0  0  0  0  0  0  0  0
    8.7858   -9.1975    0.0000 H   0  0  0  0  0  0  0  0  0  0  0  0
    7.8592   -9.7325    0.0000 H   0  0  0  0  0  0  0  0  0  0  0  0
    7.1447  -10.1450    0.0000 H   0  0  0  0  0  0  0  0  0  0  0  0
    6.2181   -9.6100    0.0000 H   0  0  0  0  0  0  0  0  0  0  0  0
    5.5036   -7.3025    0.0000 H   0  0  0  0  0  0  0  0  0  0  0  0
    6.4302   -6.7675    0.0000 H   0  0  0  0  0  0  0  0  0  0  0  0
    7.1447   -6.3550    0.0000 H   0  0  0  0  0  0  0  0  0  0  0  0
    8.0713   -6.8900    0.0000 H   0  0  0  0  0  0  0  0  0  0  0  0
    6.4302  -11.3825    0.0000 H   0  0  0  0  0  0  0  0  0  0  0  0
    7.3569   -9.7775    0.0000 H   0  0  0  0  0  0  0  0  0  0  0  0
    7.3568  -10.8475    0.0000 H   0  0  0  0  0  0  0  0  0  0  0  0
  1  2  1  0  0  0  0
  1 30  1  0  0  0  0
  1 31  1  0  0  0  0
  1 32  1  0  0  0  0
  2  3  2  0  0  0  0
  2  7  1  0  0  0  0
  3  4  1  0  0  0  0
  3 33  1  0  0  0  0
  4  5  2  0  0  0  0
  4 34  1  0  0  0  0
  5  6  1  0  0  0  0
  5  8  1  0  0  0  0
  6  7  2  0  0  0  0
  6 35  1  0  0  0  0
  8  9  1  0  0  0  0
  8 36  1  0  0  0  0
  9 10  2  0  0  0  0
  9 11  1  0  0  0  0
 11 12  1  0  0  0  0
 11 37  1  0  0  0  0
 12 13  2  0  0  0  0
 12 17  1  0  0  0  0
 13 14  1  0  0  0  0
 13 38  1  0  0  0  0
 14 15  2  0  0  0  0
 14 39  1  0  0  0  0
 15 16  1  0  0  0  0
 15 40  1  0  0  0  0
 16 17  2  0  0  0  0
 16 19  1  0  0  0  0
 17 18  1  0  0  0  0
 19 20  1  0  0  0  0
 19 41  1  0  0  0  0
 19 42  1  0  0  0  0
 20 21  1  0  0  0  0
 20 25  1  0  0  0  0
 21 22  1  0  0  0  0
 21 43  1  0  0  0  0
 21 44  1  0  0  0  0
 22 23  1  0  0  0  0
 22 45  1  0  0  0  0
 22 46  1  0  0  0  0
 23 24  1  0  0  0  0
 23 26  1  0  0  0  0
 24 25  1  0  0  0  0
 24 47  1  0  0  0  0
 24 48  1  0  0  0  0
 25 49  1  0  0  0  0
 25 50  1  0  0  0  0
 26 27  2  0  0  0  0
 26 28  1  0  0  0  0
 28 29  1  0  0  0  0
 29 51  1  0  0  0  0
 29 52  1  0  0  0  0
 29 53  1  0  0  0  0
M  END
>  <DRUGBANK_ID>
DB11816

>  <SECONDARY_ACCESSION_NUMBERS>
DB05634

>  <COMMON_NAME>
Omecamtiv Mecarbil

>  <CAS_NUMBER>
873697-71-3

>  <UNII>
2M19539ERK

>  <SYNONYMS>
Omecamtiv Mecarbil

$$$$
