
 OpenBabel10282417072D

 70 73  0  0  0  0  0  0  0  0999 V2000
   -1.0447   -1.8006    0.0000 C   0  0  2  0  0  0  0  0  0  0  0  0
   -0.3345   -1.3837    0.0000 C   0  0  2  0  0  0  0  0  0  0  0  0
    1.0721   -0.5498    0.0000 C   0  0  1  0  0  0  0  0  0  0  0  0
   -1.0309   -2.6255    0.0000 C   0  0  0  0  0  0  0  0  0  0  0  0
    1.0859   -1.3837    0.0000 C   0  0  2  0  0  0  0  0  0  0  0  0
    0.3848   -1.8006    0.0000 C   0  0  2  0  0  0  0  0  0  0  0  0
   -0.3345   -0.5498    0.0000 C   0  0  2  0  0  0  0  0  0  0  0  0
    1.8556   -0.2978    0.0000 C   0  0  2  0  0  0  0  0  0  0  0  0
   -1.7503   -1.3837    0.0000 C   0  0  0  0  0  0  0  0  0  0  0  0
    0.3710   -0.1375    0.0000 C   0  0  0  0  0  0  0  0  0  0  0  0
    1.8694   -1.6357    0.0000 C   0  0  0  0  0  0  0  0  0  0  0  0
    2.3458   -0.9622    0.0000 C   0  0  1  0  0  0  0  0  0  0  0  0
    0.3848   -2.6255    0.0000 C   0  0  0  0  0  0  0  0  0  0  0  0
   -0.3298   -3.0469    0.0000 C   0  0  2  0  0  0  0  0  0  0  0  0
   -1.7457   -3.0469    0.0000 C   0  0  0  0  0  0  0  0  0  0  0  0
    1.7457    2.2543    0.0000 C   0  0  0  0  0  0  0  0  0  0  0  0
   -2.4742   -1.8006    0.0000 C   0  0  0  0  0  0  0  0  0  0  0  0
    1.8419    0.5911    0.0000 C   0  0  0  0  0  0  0  0  0  0  0  0
   -2.4650   -2.6255    0.0000 C   0  0  0  0  0  0  0  0  0  0  0  0
    1.6998    3.0699    0.0000 C   0  0  0  0  0  0  0  0  0  0  0  0
    2.4833    1.8832    0.0000 O   0  0  0  0  0  0  0  0  0  0  0  0
   -0.3298   -2.0893    0.0000 F   0  0  0  0  0  0  0  0  0  0  0  0
    1.0721    1.7915    0.0000 O   0  0  0  0  0  0  0  0  0  0  0  0
    2.5292    1.0584    0.0000 C   0  0  0  0  0  0  0  0  0  0  0  0
    1.1271    0.9942    0.0000 O   0  0  0  0  0  0  0  0  0  0  0  0
   -3.1753   -3.0469    0.0000 O   0  0  0  0  0  0  0  0  0  0  0  0
   -1.0905   -0.8110    0.0000 C   0  0  0  0  0  0  0  0  0  0  0  0
    1.0401    0.3024    0.0000 C   0  0  0  0  0  0  0  0  0  0  0  0
   -1.0447   -0.1375    0.0000 O   0  0  0  0  0  0  0  0  0  0  0  0
   -0.3298   -3.8762    0.0000 F   0  0  0  0  0  0  0  0  0  0  0  0
    3.1753   -0.9622    0.0000 C   0  0  0  0  0  0  0  0  0  0  0  0
    1.6769    3.8762    0.0000 C   0  0  0  0  0  0  0  0  0  0  0  0
    0.8660    3.0515    0.0000 C   0  0  0  0  0  0  0  0  0  0  0  0
    2.5017    3.0927    0.0000 C   0  0  0  0  0  0  0  0  0  0  0  0
    0.3574   -0.8476    0.0000 H   0  0  0  0  0  0  0  0  0  0  0  0
    1.1271   -2.1672    0.0000 H   0  0  0  0  0  0  0  0  0  0  0  0
   -1.2618   -1.0837    0.0000 H   0  0  0  0  0  0  0  0  0  0  0  0
    0.9861    0.3257    0.0000 H   0  0  0  0  0  0  0  0  0  0  0  0
   -1.7445   -0.3517    0.0000 H   0  0  0  0  0  0  0  0  0  0  0  0
    0.3725    0.9325    0.0000 H   0  0  0  0  0  0  0  0  0  0  0  0
   -0.5567    0.3957    0.0000 H   0  0  0  0  0  0  0  0  0  0  0  0
    2.2080   -2.6507    0.0000 H   0  0  0  0  0  0  0  0  0  0  0  0
    2.9279   -1.7922    0.0000 H   0  0  0  0  0  0  0  0  0  0  0  0
    2.8376   -1.9125    0.0000 H   0  0  0  0  0  0  0  0  0  0  0  0
    1.3139   -3.1562    0.0000 H   0  0  0  0  0  0  0  0  0  0  0  0
    1.3102   -2.0884    0.0000 H   0  0  0  0  0  0  0  0  0  0  0  0
    0.5993   -3.5776    0.0000 H   0  0  0  0  0  0  0  0  0  0  0  0
   -1.7443   -4.0789    0.0000 H   0  0  0  0  0  0  0  0  0  0  0  0
   -3.3705   -1.2891    0.0000 H   0  0  0  0  0  0  0  0  0  0  0  0
    3.4884    0.5843    0.0000 H   0  0  0  0  0  0  0  0  0  0  0  0
    2.6030   -0.0091    0.0000 H   0  0  0  0  0  0  0  0  0  0  0  0
   -0.1896   -0.2337    0.0000 H   0  0  0  0  0  0  0  0  0  0  0  0
   -2.0409   -0.3194    0.0000 H   0  0  0  0  0  0  0  0  0  0  0  0
   -1.1400    0.2579    0.0000 H   0  0  0  0  0  0  0  0  0  0  0  0
    1.9460    0.8718    0.0000 H   0  0  0  0  0  0  0  0  0  0  0  0
    0.0940    0.8023    0.0000 H   0  0  0  0  0  0  0  0  0  0  0  0
    0.9999    1.3716    0.0000 H   0  0  0  0  0  0  0  0  0  0  0  0
   -1.0424    0.8325    0.0000 H   0  0  0  0  0  0  0  0  0  0  0  0
    3.7103   -1.8888    0.0000 H   0  0  0  0  0  0  0  0  0  0  0  0
    3.7103   -0.0356    0.0000 H   0  0  0  0  0  0  0  0  0  0  0  0
    4.2453   -0.9622    0.0000 H   0  0  0  0  0  0  0  0  0  0  0  0
    2.5880    4.4373    0.0000 H   0  0  0  0  0  0  0  0  0  0  0  0
    0.7354    4.3847    0.0000 H   0  0  0  0  0  0  0  0  0  0  0  0
    1.6465    4.9458    0.0000 H   0  0  0  0  0  0  0  0  0  0  0  0
    0.3107    3.9661    0.0000 H   0  0  0  0  0  0  0  0  0  0  0  0
    0.3516    2.1133    0.0000 H   0  0  0  0  0  0  0  0  0  0  0  0
   -0.2037    3.0279    0.0000 H   0  0  0  0  0  0  0  0  0  0  0  0
    3.0628    2.1816    0.0000 H   0  0  0  0  0  0  0  0  0  0  0  0
    3.0101    4.0342    0.0000 H   0  0  0  0  0  0  0  0  0  0  0  0
    3.5713    3.1231    0.0000 H   0  0  0  0  0  0  0  0  0  0  0  0
  1 27  1  1  0  0  0
  2  1  1  0  0  0  0
  2 22  1  6  0  0  0
  3 10  1  0  0  0  0
  3 28  1  1  0  0  0
  4  1  1  0  0  0  0
  5  6  1  0  0  0  0
  5 36  1  6  0  0  0
  5  3  1  0  0  0  0
  6  2  1  0  0  0  0
  6 35  1  1  0  0  0
  6 13  1  0  0  0  0
  7  2  1  0  0  0  0
  7 29  1  0  0  0  0
  7 37  1  6  0  0  0
  8  3  1  0  0  0  0
  8 18  1  0  0  0  0
  8 12  1  0  0  0  0
  8 38  1  6  0  0  0
  9  1  1  0  0  0  0
  9 39  1  0  0  0  0
 10  7  1  0  0  0  0
 10 40  1  0  0  0  0
 10 41  1  0  0  0  0
 11  5  1  0  0  0  0
 11 42  1  0  0  0  0
 11 43  1  0  0  0  0
 12 11  1  0  0  0  0
 12 31  1  0  0  0  0
 12 44  1  1  0  0  0
 13 14  1  0  0  0  0
 13 45  1  0  0  0  0
 13 46  1  0  0  0  0
 14  4  1  0  0  0  0
 14 30  1  0  0  0  0
 14 47  1  1  0  0  0
 15  4  2  0  0  0  0
 15 19  1  0  0  0  0
 15 48  1  0  0  0  0
 16 21  1  0  0  0  0
 17  9  2  0  0  0  0
 17 49  1  0  0  0  0
 19 17  1  0  0  0  0
 20 16  1  0  0  0  0
 21 24  1  0  0  0  0
 23 16  2  0  0  0  0
 24 18  1  0  0  0  0
 24 50  1  0  0  0  0
 24 51  1  0  0  0  0
 25 18  2  0  0  0  0
 26 19  2  0  0  0  0
 27 52  1  0  0  0  0
 27 53  1  0  0  0  0
 27 54  1  0  0  0  0
 28 55  1  0  0  0  0
 28 56  1  0  0  0  0
 28 57  1  0  0  0  0
 29 58  1  0  0  0  0
 31 59  1  0  0  0  0
 31 60  1  0  0  0  0
 31 61  1  0  0  0  0
 32 20  1  0  0  0  0
 32 62  1  0  0  0  0
 32 63  1  0  0  0  0
 32 64  1  0  0  0  0
 33 20  1  0  0  0  0
 33 65  1  0  0  0  0
 33 66  1  0  0  0  0
 33 67  1  0  0  0  0
 34 20  1  0  0  0  0
 34 68  1  0  0  0  0
 34 69  1  0  0  0  0
 34 70  1  0  0  0  0
M  END
>  <DRUGBANK_ID>
DB14664

>  <SECONDARY_ACCESSION_NUMBERS>
DBSALT001924

>  <COMMON_NAME>
Difluocortolone pivalate

>  <CAS_NUMBER>
15845-96-2

>  <UNII>
ZR05N78276

>  <SYNONYMS>
Diflucortolone pivalate

$$$$
