
 OpenBabel10282417072D

 24 24  0  0  0  0  0  0  0  0999 V2000
   -1.4297    0.0000    0.0000 C   0  0  0  0  0  0  0  0  0  0  0  0
   -1.4297    0.8250    0.0000 C   0  0  0  0  0  0  0  0  0  0  0  0
   -0.7151   -0.4124    0.0000 C   0  0  0  0  0  0  0  0  0  0  0  0
   -2.1442   -0.4124    0.0000 O   0  0  0  0  0  0  0  0  0  0  0  0
   -0.7151    1.2376    0.0000 C   0  0  0  0  0  0  0  0  0  0  0  0
   -2.1442    1.2376    0.0000 O   0  0  0  0  0  0  0  0  0  0  0  0
   -0.0007    0.0000    0.0000 C   0  0  0  0  0  0  0  0  0  0  0  0
   -2.1442   -1.2376    0.0000 C   0  0  0  0  0  0  0  0  0  0  0  0
   -0.0007    0.8250    0.0000 C   0  0  0  0  0  0  0  0  0  0  0  0
    0.7138   -0.4124    0.0000 C   0  0  0  0  0  0  0  0  0  0  0  0
    1.4290    0.0000    0.0000 C   0  0  0  0  0  0  0  0  0  0  0  0
    2.1443   -0.4124    0.0000 C   0  0  0  0  0  0  0  0  0  0  0  0
   -0.7150   -1.4444    0.0000 H   0  0  0  0  0  0  0  0  0  0  0  0
   -0.7150    2.2696    0.0000 H   0  0  0  0  0  0  0  0  0  0  0  0
   -2.1441    2.1746    0.0000 H   0  0  0  0  0  0  0  0  0  0  0  0
   -3.0708   -1.7726    0.0000 H   0  0  0  0  0  0  0  0  0  0  0  0
   -1.2176   -1.7726    0.0000 H   0  0  0  0  0  0  0  0  0  0  0  0
   -2.1442   -2.3076    0.0000 H   0  0  0  0  0  0  0  0  0  0  0  0
    0.8931    1.3409    0.0000 H   0  0  0  0  0  0  0  0  0  0  0  0
    0.7136   -1.4444    0.0000 H   0  0  0  0  0  0  0  0  0  0  0  0
    1.4290    1.0320    0.0000 H   0  0  0  0  0  0  0  0  0  0  0  0
    2.1449   -1.4824    0.0000 H   0  0  0  0  0  0  0  0  0  0  0  0
    3.0706    0.1232    0.0000 H   0  0  0  0  0  0  0  0  0  0  0  0
    3.0713   -0.9468    0.0000 H   0  0  0  0  0  0  0  0  0  0  0  0
  1  2  1  0  0  0  0
  1  3  2  0  0  0  0
  1  4  1  0  0  0  0
  2  5  2  0  0  0  0
  2  6  1  0  0  0  0
  3  7  1  0  0  0  0
  3 13  1  0  0  0  0
  4  8  1  0  0  0  0
  5  9  1  0  0  0  0
  5 14  1  0  0  0  0
  6 15  1  0  0  0  0
  7  9  2  0  0  0  0
  7 10  1  0  0  0  0
  8 16  1  0  0  0  0
  8 17  1  0  0  0  0
  8 18  1  0  0  0  0
  9 19  1  0  0  0  0
 10 11  2  3  0  0  0
 10 20  1  0  0  0  0
 11 12  1  0  0  0  0
 11 21  1  0  0  0  0
 12 22  1  0  0  0  0
 12 23  1  0  0  0  0
 12 24  1  0  0  0  0
M  END
>  <DRUGBANK_ID>
DB14188

>  <COMMON_NAME>
Isoeugenol

>  <CAS_NUMBER>
97-54-1

>  <UNII>
5M0MWY797U

>  <SYNONYMS>
1-Hydroxy-2-methoxy-4-propen-1-ylbenzene; 2-methoxy-4-(prop-1-en-1-yl)phenol; 2-Methoxy-4-propenylphenol; 3-Methoxy-4-hydroxypropenylbenzene; 4-Propenylguaiacol; Propenylguaiacol

$$$$
