Untitled Document-2
 OpenBabel10282417072D

 46 49  0  0  0  0  0  0  0  0999 V2000
   -2.0637   -0.5198    0.0000 C   0  0  0  0  0  0  0  0  0  0  0  0
   -2.0637   -1.3448    0.0000 C   0  0  0  0  0  0  0  0  0  0  0  0
   -1.3492   -1.7573    0.0000 C   0  0  0  0  0  0  0  0  0  0  0  0
   -0.6348   -1.3448    0.0000 C   0  0  0  0  0  0  0  0  0  0  0  0
   -0.6348   -0.5198    0.0000 C   0  0  2  0  0  0  0  0  0  0  0  0
   -1.3492   -0.1073    0.0000 C   0  0  0  0  0  0  0  0  0  0  0  0
    0.0797   -1.7573    0.0000 C   0  0  0  0  0  0  0  0  0  0  0  0
    0.7942   -1.3448    0.0000 C   0  0  0  0  0  0  0  0  0  0  0  0
    0.7942   -0.5198    0.0000 C   0  0  2  0  0  0  0  0  0  0  0  0
    0.0797   -0.1073    0.0000 C   0  0  2  0  0  0  0  0  0  0  0  0
    1.5086   -0.1073    0.0000 C   0  0  1  0  0  0  0  0  0  0  0  0
    1.5086    0.7177    0.0000 C   0  0  2  0  0  0  0  0  0  0  0  0
    0.7942    1.1302    0.0000 C   0  0  0  0  0  0  0  0  0  0  0  0
    0.0797    0.7177    0.0000 C   0  0  0  0  0  0  0  0  0  0  0  0
    2.2933   -0.3622    0.0000 C   0  0  0  0  0  0  0  0  0  0  0  0
    2.7782    0.3052    0.0000 C   0  0  0  0  0  0  0  0  0  0  0  0
    2.2933    0.9727    0.0000 C   0  0  2  0  0  0  0  0  0  0  0  0
   -2.7782   -1.7573    0.0000 O   0  0  0  0  0  0  0  0  0  0  0  0
   -0.6348    0.3052    0.0000 H   0  0  0  0  0  0  0  0  0  0  0  0
    0.7942    0.3052    0.0000 H   0  0  0  0  0  0  0  0  0  0  0  0
    1.5086    1.5427    0.0000 C   0  0  0  0  0  0  0  0  0  0  0  0
    2.5482    1.7573    0.0000 O   0  0  0  0  0  0  0  0  0  0  0  0
    0.0797   -0.9323    0.0000 H   0  0  0  0  0  0  0  0  0  0  0  0
    1.5086   -0.9323    0.0000 H   0  0  0  0  0  0  0  0  0  0  0  0
   -2.9903    0.0152    0.0000 H   0  0  0  0  0  0  0  0  0  0  0  0
   -2.0637    0.5502    0.0000 H   0  0  0  0  0  0  0  0  0  0  0  0
   -1.3492   -2.7893    0.0000 H   0  0  0  0  0  0  0  0  0  0  0  0
   -1.3492    0.9627    0.0000 H   0  0  0  0  0  0  0  0  0  0  0  0
   -2.2758    0.4277    0.0000 H   0  0  0  0  0  0  0  0  0  0  0  0
    0.0797   -2.8273    0.0000 H   0  0  0  0  0  0  0  0  0  0  0  0
    1.0063   -2.2923    0.0000 H   0  0  0  0  0  0  0  0  0  0  0  0
    1.7208   -1.8798    0.0000 H   0  0  0  0  0  0  0  0  0  0  0  0
    1.7208   -0.8098    0.0000 H   0  0  0  0  0  0  0  0  0  0  0  0
    0.7942    2.2002    0.0000 H   0  0  0  0  0  0  0  0  0  0  0  0
   -0.1324    1.6652    0.0000 H   0  0  0  0  0  0  0  0  0  0  0  0
   -0.8469    1.2527    0.0000 H   0  0  0  0  0  0  0  0  0  0  0  0
   -0.8469    0.1827    0.0000 H   0  0  0  0  0  0  0  0  0  0  0  0
    2.6240   -1.3798    0.0000 H   0  0  0  0  0  0  0  0  0  0  0  0
    3.3501   -0.5296    0.0000 H   0  0  0  0  0  0  0  0  0  0  0  0
    3.8482    0.3052    0.0000 H   0  0  0  0  0  0  0  0  0  0  0  0
    3.2640    1.2586    0.0000 H   0  0  0  0  0  0  0  0  0  0  0  0
    3.3501    1.1401    0.0000 H   0  0  0  0  0  0  0  0  0  0  0  0
    2.4352    2.0777    0.0000 H   0  0  0  0  0  0  0  0  0  0  0  0
    0.5820    2.0777    0.0000 H   0  0  0  0  0  0  0  0  0  0  0  0
    1.5086    2.6127    0.0000 H   0  0  0  0  0  0  0  0  0  0  0  0
    3.4970    1.9590    0.0000 H   0  0  0  0  0  0  0  0  0  0  0  0
  1  2  1  0  0  0  0
  1 25  1  0  0  0  0
  1 26  1  0  0  0  0
  2  3  1  0  0  0  0
  2 18  2  0  0  0  0
  3  4  2  0  0  0  0
  3 27  1  0  0  0  0
  4  5  1  0  0  0  0
  4  7  1  0  0  0  0
  5  6  1  0  0  0  0
  5 19  1  1  0  0  0
  6  1  1  0  0  0  0
  6 28  1  0  0  0  0
  6 29  1  0  0  0  0
  7  8  1  0  0  0  0
  7 30  1  0  0  0  0
  7 31  1  0  0  0  0
  8  9  1  0  0  0  0
  8 32  1  0  0  0  0
  8 33  1  0  0  0  0
  9 10  1  0  0  0  0
  9 11  1  0  0  0  0
  9 20  1  1  0  0  0
 10  5  1  0  0  0  0
 10 23  1  6  0  0  0
 11 12  1  0  0  0  0
 11 15  1  0  0  0  0
 11 24  1  6  0  0  0
 12 13  1  0  0  0  0
 12 21  1  1  0  0  0
 13 14  1  0  0  0  0
 13 34  1  0  0  0  0
 13 35  1  0  0  0  0
 14 10  1  0  0  0  0
 14 36  1  0  0  0  0
 14 37  1  0  0  0  0
 15 16  1  0  0  0  0
 15 38  1  0  0  0  0
 15 39  1  0  0  0  0
 16 17  1  0  0  0  0
 16 40  1  0  0  0  0
 16 41  1  0  0  0  0
 17 12  1  0  0  0  0
 17 22  1  0  0  0  0
 17 42  1  6  0  0  0
 21 43  1  0  0  0  0
 21 44  1  0  0  0  0
 21 45  1  0  0  0  0
 22 46  1  0  0  0  0
M  END
>  <DRUGBANK_ID>
DB13169

>  <COMMON_NAME>
Nandrolone

>  <CAS_NUMBER>
434-22-0

>  <UNII>
6PG9VR430D

>  <SYNONYMS>
(17Î²)-17-hydroxyestr-4-en-3-one; 19-norandrostenolone; 19-nortestosterone; Nandrolona; Nandrolone; Nandrolonum

$$$$
