252
 OpenBabel10282417072D

 40 39  0  0  0  0  0  0  0  0999 V2000
   -2.6565    1.0060    0.0000 C   0  0  0  0  0  0  0  0  0  0  0  0
   -2.0610    0.4350    0.0000 C   0  0  0  0  0  0  0  0  0  0  0  0
   -1.2688    0.6652    0.0000 C   0  0  0  0  0  0  0  0  0  0  0  0
   -0.6733    0.0942    0.0000 C   0  0  0  0  0  0  0  0  0  0  0  0
    0.1189    0.3244    0.0000 C   0  0  0  0  0  0  0  0  0  0  0  0
    0.7144   -0.2466    0.0000 C   0  0  0  0  0  0  0  0  0  0  0  0
    1.5066   -0.0164    0.0000 C   0  0  0  0  0  0  0  0  0  0  0  0
    2.1021   -0.5874    0.0000 C   0  0  0  0  0  0  0  0  0  0  0  0
    2.8943   -0.3572    0.0000 C   0  0  0  0  0  0  0  0  0  0  0  0
    3.1245   -1.1495    0.0000 P   0  0  0  0  0  0  0  0  0  0  0  0
    3.9168   -0.9193    0.0000 O   0  0  0  0  0  0  0  0  0  0  0  0
    2.3323   -1.3797    0.0000 O   0  0  0  0  0  0  0  0  0  0  0  0
    3.3547   -1.9417    0.0000 O   0  0  0  0  0  0  0  0  0  0  0  0
    2.6641    0.4350    0.0000 P   0  0  0  0  0  0  0  0  0  0  0  0
    2.4339    1.2272    0.0000 O   0  0  0  0  0  0  0  0  0  0  0  0
    3.4564    0.6652    0.0000 O   0  0  0  0  0  0  0  0  0  0  0  0
    1.8719    0.2048    0.0000 O   0  0  0  0  0  0  0  0  0  0  0  0
    3.6866   -0.1270    0.0000 O   0  0  0  0  0  0  0  0  0  0  0  0
   -2.4013    2.0451    0.0000 H   0  0  0  0  0  0  0  0  0  0  0  0
   -3.6840    0.7074    0.0000 H   0  0  0  0  0  0  0  0  0  0  0  0
   -3.4288    1.7465    0.0000 H   0  0  0  0  0  0  0  0  0  0  0  0
   -2.3162   -0.6041    0.0000 H   0  0  0  0  0  0  0  0  0  0  0  0
   -1.2887   -0.3056    0.0000 H   0  0  0  0  0  0  0  0  0  0  0  0
   -1.0136    1.7043    0.0000 H   0  0  0  0  0  0  0  0  0  0  0  0
   -0.2413    0.9638    0.0000 H   0  0  0  0  0  0  0  0  0  0  0  0
   -0.9285   -0.9449    0.0000 H   0  0  0  0  0  0  0  0  0  0  0  0
    0.0990   -0.6464    0.0000 H   0  0  0  0  0  0  0  0  0  0  0  0
    0.3741    1.3635    0.0000 H   0  0  0  0  0  0  0  0  0  0  0  0
    1.1464    0.6230    0.0000 H   0  0  0  0  0  0  0  0  0  0  0  0
    0.4592   -1.2857    0.0000 H   0  0  0  0  0  0  0  0  0  0  0  0
    1.4867   -0.9872    0.0000 H   0  0  0  0  0  0  0  0  0  0  0  0
    1.7618    1.0227    0.0000 H   0  0  0  0  0  0  0  0  0  0  0  0
    2.5341    0.2822    0.0000 H   0  0  0  0  0  0  0  0  0  0  0  0
    1.8469   -1.6265    0.0000 H   0  0  0  0  0  0  0  0  0  0  0  0
    2.8744   -1.3280    0.0000 H   0  0  0  0  0  0  0  0  0  0  0  0
    4.6169   -1.5907    0.0000 H   0  0  0  0  0  0  0  0  0  0  0  0
    1.6322   -0.7084    0.0000 H   0  0  0  0  0  0  0  0  0  0  0  0
    3.1052    1.9273    0.0000 H   0  0  0  0  0  0  0  0  0  0  0  0
    1.1718    0.8761    0.0000 H   0  0  0  0  0  0  0  0  0  0  0  0
    4.3867   -0.7984    0.0000 H   0  0  0  0  0  0  0  0  0  0  0  0
  1  2  1  0  0  0  0
  1 19  1  0  0  0  0
  1 20  1  0  0  0  0
  1 21  1  0  0  0  0
  2  3  1  0  0  0  0
  2 22  1  0  0  0  0
  2 23  1  0  0  0  0
  3  4  1  0  0  0  0
  3 24  1  0  0  0  0
  3 25  1  0  0  0  0
  4  5  1  0  0  0  0
  4 26  1  0  0  0  0
  4 27  1  0  0  0  0
  5  6  1  0  0  0  0
  5 28  1  0  0  0  0
  5 29  1  0  0  0  0
  6  7  1  0  0  0  0
  6 30  1  0  0  0  0
  6 31  1  0  0  0  0
  7  8  1  0  0  0  0
  7 32  1  0  0  0  0
  7 33  1  0  0  0  0
  8  9  1  0  0  0  0
  8 34  1  0  0  0  0
  8 35  1  0  0  0  0
  9 10  1  0  0  0  0
  9 18  1  0  0  0  0
  9 14  1  0  0  0  0
 10 13  2  0  0  0  0
 10 11  1  0  0  0  0
 10 12  1  0  0  0  0
 11 36  1  0  0  0  0
 12 37  1  0  0  0  0
 14 16  2  0  0  0  0
 14 17  1  0  0  0  0
 14 15  1  0  0  0  0
 15 38  1  0  0  0  0
 17 39  1  0  0  0  0
 18 40  1  0  0  0  0
M  END
>  <DRUGBANK_ID>
DB06931

>  <COMMON_NAME>
(1-HYDROXYNONANE-1,1-DIYL)BIS(PHOSPHONIC ACID)

$$$$
