
 OpenBabel10282417072D

 22 22  0  0  0  0  0  0  0  0999 V2000
    0.7145   -0.4125    0.0000 C   0  0  0  0  0  0  0  0  0  0  0  0
   -0.0000    0.0000    0.0000 C   0  0  0  0  0  0  0  0  0  0  0  0
    0.0000    0.8250    0.0000 C   0  0  0  0  0  0  0  0  0  0  0  0
    0.7145    1.2375    0.0000 C   0  0  0  0  0  0  0  0  0  0  0  0
    1.4289    0.8250    0.0000 N   0  0  0  0  0  0  0  0  0  0  0  0
    1.4289   -0.0000    0.0000 C   0  0  0  0  0  0  0  0  0  0  0  0
    0.7145    2.0625    0.0000 C   0  0  0  0  0  0  0  0  0  0  0  0
    1.4289    2.4750    0.0000 N   0  0  0  0  0  0  0  0  0  0  0  0
    1.4289    3.3000    0.0000 N   0  0  0  0  0  0  0  0  0  0  0  0
    2.1434    3.7125    0.0000 C   0  0  0  0  0  0  0  0  0  0  0  0
    2.1434    4.5375    0.0000 S   0  0  0  0  0  0  0  0  0  0  0  0
    2.8579    3.3000    0.0000 N   0  0  0  0  0  0  0  0  0  0  0  0
   -0.7145    1.2375    0.0000 N   0  0  0  0  0  0  0  0  0  0  0  0
    0.7145   -1.4445    0.0000 H   0  0  0  0  0  0  0  0  0  0  0  0
   -0.8937   -0.5160    0.0000 H   0  0  0  0  0  0  0  0  0  0  0  0
    2.3226   -0.5160    0.0000 H   0  0  0  0  0  0  0  0  0  0  0  0
   -0.1792    2.5785    0.0000 H   0  0  0  0  0  0  0  0  0  0  0  0
    0.5763    3.7923    0.0000 H   0  0  0  0  0  0  0  0  0  0  0  0
    2.8579    2.3155    0.0000 H   0  0  0  0  0  0  0  0  0  0  0  0
    3.7105    3.7923    0.0000 H   0  0  0  0  0  0  0  0  0  0  0  0
   -0.7145    2.2220    0.0000 H   0  0  0  0  0  0  0  0  0  0  0  0
   -1.5671    0.7452    0.0000 H   0  0  0  0  0  0  0  0  0  0  0  0
  1  2  2  0  0  0  0
  1  6  1  0  0  0  0
  1 14  1  0  0  0  0
  2  3  1  0  0  0  0
  2 15  1  0  0  0  0
  3  4  2  0  0  0  0
  3 13  1  0  0  0  0
  4  5  1  0  0  0  0
  4  7  1  0  0  0  0
  5  6  2  0  0  0  0
  6 16  1  0  0  0  0
  7  8  2  0  0  0  0
  7 17  1  0  0  0  0
  8  9  1  0  0  0  0
  9 10  1  0  0  0  0
  9 18  1  0  0  0  0
 10 11  2  0  0  0  0
 10 12  1  0  0  0  0
 12 19  1  0  0  0  0
 12 20  1  0  0  0  0
 13 21  1  0  0  0  0
 13 22  1  0  0  0  0
M  END
>  <DRUGBANK_ID>
DB11940

>  <COMMON_NAME>
Triapine

>  <CAS_NUMBER>
143621-35-6

>  <UNII>
U4XIL4091C

>  <SYNONYMS>
3-Aminopyridine-2-carboxaldehyde thiosemicarbazone

$$$$
