
 OpenBabel10282417072D

 45 46  0  0  1  0  0  0  0  0999 V2000
    0.7116    0.4159    0.0000 C   0  0  1  0  0  0  0  0  0  0  0  0
    0.0000    0.0000    0.0000 O   0  0  0  0  0  0  0  0  0  0  0  0
    1.4300    0.0000    0.0000 O   0  0  0  0  0  0  0  0  0  0  0  0
    0.7116    1.2409    0.0000 C   0  0  1  0  0  0  0  0  0  0  0  0
   -0.7116   -0.4159    0.0000 C   0  0  1  0  0  0  0  0  0  0  0  0
    2.1416    0.4159    0.0000 C   0  0  1  0  0  0  0  0  0  0  0  0
    1.4300    1.6500    0.0000 C   0  0  2  0  0  0  0  0  0  0  0  0
    0.0000    1.6500    0.0000 O   0  0  0  0  0  0  0  0  0  0  0  0
   -1.4300    0.0000    0.0000 O   0  0  0  0  0  0  0  0  0  0  0  0
   -0.7116   -1.2409    0.0000 C   0  0  1  0  0  0  0  0  0  0  0  0
    2.1416    1.2409    0.0000 C   0  0  2  0  0  0  0  0  0  0  0  0
    2.8565    0.0000    0.0000 C   0  0  0  0  0  0  0  0  0  0  0  0
    1.4300    2.4750    0.0000 O   0  0  0  0  0  0  0  0  0  0  0  0
   -2.1416   -0.4159    0.0000 C   0  0  1  0  0  0  0  0  0  0  0  0
   -1.4300   -1.6500    0.0000 C   0  0  2  0  0  0  0  0  0  0  0  0
    0.0000   -1.6500    0.0000 O   0  0  0  0  0  0  0  0  0  0  0  0
    2.8565    1.6500    0.0000 O   0  0  0  0  0  0  0  0  0  0  0  0
    3.4821    0.5362    0.0000 O   0  0  0  0  0  0  0  0  0  0  0  0
   -2.1416   -1.2409    0.0000 C   0  0  2  0  0  0  0  0  0  0  0  0
   -2.8565    0.0000    0.0000 C   0  0  0  0  0  0  0  0  0  0  0  0
   -1.4300   -2.4750    0.0000 O   0  0  0  0  0  0  0  0  0  0  0  0
   -2.8565   -1.6500    0.0000 O   0  0  0  0  0  0  0  0  0  0  0  0
   -3.4821   -0.5397    0.0000 O   0  0  0  0  0  0  0  0  0  0  0  0
    0.7138   -0.6541    0.0000 H   0  0  0  0  0  0  0  0  0  0  0  0
   -0.2146    0.7050    0.0000 H   0  0  0  0  0  0  0  0  0  0  0  0
   -0.7138    0.6541    0.0000 H   0  0  0  0  0  0  0  0  0  0  0  0
    2.1427   -0.6541    0.0000 H   0  0  0  0  0  0  0  0  0  0  0  0
    0.5049    2.1877    0.0000 H   0  0  0  0  0  0  0  0  0  0  0  0
   -0.0018    2.6200    0.0000 H   0  0  0  0  0  0  0  0  0  0  0  0
    0.2146   -0.7050    0.0000 H   0  0  0  0  0  0  0  0  0  0  0  0
    3.0672    0.7041    0.0000 H   0  0  0  0  0  0  0  0  0  0  0  0
    2.9536   -1.0656    0.0000 H   0  0  0  0  0  0  0  0  0  0  0  0
    3.8479   -0.4025    0.0000 H   0  0  0  0  0  0  0  0  0  0  0  0
    2.2700    2.9600    0.0000 H   0  0  0  0  0  0  0  0  0  0  0  0
   -2.1427    0.6541    0.0000 H   0  0  0  0  0  0  0  0  0  0  0  0
   -0.5049   -2.1877    0.0000 H   0  0  0  0  0  0  0  0  0  0  0  0
    0.0018   -2.6200    0.0000 H   0  0  0  0  0  0  0  0  0  0  0  0
    3.6947    1.1618    0.0000 H   0  0  0  0  0  0  0  0  0  0  0  0
    4.3970    0.2140    0.0000 H   0  0  0  0  0  0  0  0  0  0  0  0
   -3.0672   -0.7041    0.0000 H   0  0  0  0  0  0  0  0  0  0  0  0
   -2.9553    1.0654    0.0000 H   0  0  0  0  0  0  0  0  0  0  0  0
   -3.8489    0.4001    0.0000 H   0  0  0  0  0  0  0  0  0  0  0  0
   -2.2700   -2.9600    0.0000 H   0  0  0  0  0  0  0  0  0  0  0  0
   -3.6947   -1.1618    0.0000 H   0  0  0  0  0  0  0  0  0  0  0  0
   -4.3981   -0.2204    0.0000 H   0  0  0  0  0  0  0  0  0  0  0  0
  1  2  1  0  0  0  0
  1  3  1  0  0  0  0
  1  4  1  0  0  0  0
  1 24  1  1  0  0  0
  3  6  1  0  0  0  0
  4  7  1  0  0  0  0
  4  8  1  0  0  0  0
  4 25  1  1  0  0  0
  5  2  1  0  0  0  0
  5  9  1  0  0  0  0
  5 10  1  0  0  0  0
  5 26  1  1  0  0  0
  6 11  1  0  0  0  0
  6 12  1  0  0  0  0
  6 27  1  6  0  0  0
  7 13  1  0  0  0  0
  7 11  1  0  0  0  0
  7 28  1  6  0  0  0
  8 29  1  0  0  0  0
  9 14  1  0  0  0  0
 10 15  1  0  0  0  0
 10 16  1  0  0  0  0
 10 30  1  1  0  0  0
 11 17  1  0  0  0  0
 11 31  1  1  0  0  0
 12 18  1  0  0  0  0
 12 32  1  0  0  0  0
 12 33  1  0  0  0  0
 13 34  1  0  0  0  0
 14 19  1  0  0  0  0
 14 20  1  0  0  0  0
 14 35  1  6  0  0  0
 15 21  1  0  0  0  0
 15 19  1  0  0  0  0
 15 36  1  6  0  0  0
 16 37  1  0  0  0  0
 17 38  1  0  0  0  0
 18 39  1  0  0  0  0
 19 22  1  0  0  0  0
 19 40  1  1  0  0  0
 20 23  1  0  0  0  0
 20 41  1  0  0  0  0
 20 42  1  0  0  0  0
 21 43  1  0  0  0  0
 22 44  1  0  0  0  0
 23 45  1  0  0  0  0
M  END
>  <DRUGBANK_ID>
DB12310

>  <COMMON_NAME>
Trehalose

>  <CAS_NUMBER>
99-20-7

>  <UNII>
B8WCK70T7I

>  <SYNONYMS>
Cabaletta

$$$$
