
 OpenBabel10282417072D

  8  6  0  0  0  0  0  0  0  0999 V2000
   -0.7005   -1.0305    0.0000 K   0  3  0  0  0  0  0  0  0  0  0  0
   -0.7005   -0.2055    0.0000 O   0  5  0  0  0  0  0  0  0  0  0  0
    0.0405    0.2055    0.0000 C   0  0  0  0  0  0  0  0  0  0  0  0
    0.0405    1.0305    0.0000 C   0  0  0  0  0  0  0  0  0  0  0  0
    0.7005   -0.2055    0.0000 O   0  0  0  0  0  0  0  0  0  0  0  0
    0.9671    1.5655    0.0000 H   0  0  0  0  0  0  0  0  0  0  0  0
   -0.8861    1.5655    0.0000 H   0  0  0  0  0  0  0  0  0  0  0  0
    0.0405    2.1005    0.0000 H   0  0  0  0  0  0  0  0  0  0  0  0
  2  3  1  0  0  0  0
  3  4  1  0  0  0  0
  3  5  2  0  0  0  0
  4  6  1  0  0  0  0
  4  7  1  0  0  0  0
  4  8  1  0  0  0  0
M  CHG  2   1   1   2  -1
M  END
>  <DRUGBANK_ID>
DB14498

>  <SECONDARY_ACCESSION_NUMBERS>
DBSALT001427

>  <COMMON_NAME>
Potassium acetate

>  <CAS_NUMBER>
127-08-2

>  <UNII>
M911911U02

>  <SYNONYMS>
Potassium acetate

$$$$
