
 OpenBabel10282417072D

 17 17  0  0  0  0  0  0  0  0999 V2000
   -0.7088    0.4167    0.0000 C   0  0  0  0  0  0  0  0  0  0  0  0
    0.0035    0.0000    0.0000 C   0  0  0  0  0  0  0  0  0  0  0  0
    0.7191    0.4082    0.0000 C   0  0  0  0  0  0  0  0  0  0  0  0
    1.4312   -0.0084    0.0000 C   0  0  0  0  0  0  0  0  0  0  0  0
    1.4278   -0.8334    0.0000 C   0  0  0  0  0  0  0  0  0  0  0  0
    0.7125   -1.2417    0.0000 N   0  0  0  0  0  0  0  0  0  0  0  0
    0.0002   -0.8250    0.0000 C   0  0  0  0  0  0  0  0  0  0  0  0
   -0.7055    1.2417    0.0000 O   0  0  0  0  0  0  0  0  0  0  0  0
   -1.4242    0.0084    0.0000 O   0  0  0  0  0  0  0  0  0  0  0  0
   -1.4312   -0.8164    0.0000 C   0  0  0  0  0  0  0  0  0  0  0  0
    0.7247    1.4402    0.0000 H   0  0  0  0  0  0  0  0  0  0  0  0
    2.3275    0.5032    0.0000 H   0  0  0  0  0  0  0  0  0  0  0  0
    2.3192   -1.3534    0.0000 H   0  0  0  0  0  0  0  0  0  0  0  0
   -0.8960   -1.3366    0.0000 H   0  0  0  0  0  0  0  0  0  0  0  0
   -2.3624   -1.3435    0.0000 H   0  0  0  0  0  0  0  0  0  0  0  0
   -0.5091   -1.3592    0.0000 H   0  0  0  0  0  0  0  0  0  0  0  0
   -1.4403   -1.8864    0.0000 H   0  0  0  0  0  0  0  0  0  0  0  0
  1  2  1  0  0  0  0
  1  8  2  0  0  0  0
  1  9  1  0  0  0  0
  2  3  1  0  0  0  0
  2  7  2  0  0  0  0
  3  4  2  0  0  0  0
  3 11  1  0  0  0  0
  4  5  1  0  0  0  0
  4 12  1  0  0  0  0
  5  6  2  0  0  0  0
  5 13  1  0  0  0  0
  6  7  1  0  0  0  0
  7 14  1  0  0  0  0
  9 10  1  0  0  0  0
 10 15  1  0  0  0  0
 10 16  1  0  0  0  0
 10 17  1  0  0  0  0
M  END
>  <DRUGBANK_ID>
DB13882

>  <COMMON_NAME>
Methyl nicotinate

>  <CAS_NUMBER>
93-60-7

>  <UNII>
7B1AVU9DJN

>  <SYNONYMS>
3-(Carbomethoxy)pyridine; 3-(Methoxycarbonyl)pyridine; 3-pyridinecarboxylic acid methyl ester; Heat spray; Methyl 3-pyridinecarboxylate; Methyl nicotinate; Methyl-nicotinate; Methylnicotinate; Nicotinic acid, methyl ester

$$$$
