
 OpenBabel10282417072D

 18 18  0  0  1  0  0  0  0  0999 V2000
   -0.7145   -0.4125    0.0000 C   0  0  2  0  0  0  0  0  0  0  0  0
    0.0000   -0.8250    0.0000 C   0  0  2  0  0  0  0  0  0  0  0  0
    0.7145   -0.4125    0.0000 C   0  0  1  0  0  0  0  0  0  0  0  0
   -0.7145    0.4125    0.0000 C   0  0  2  0  0  0  0  0  0  0  0  0
    0.7145    0.4125    0.0000 C   0  0  1  0  0  0  0  0  0  0  0  0
    0.0000    0.8250    0.0000 C   0  0  1  0  0  0  0  0  0  0  0  0
    1.4289   -0.8250    0.0000 Cl  0  0  0  0  0  0  0  0  0  0  0  0
    0.0000    1.6500    0.0000 Cl  0  0  0  0  0  0  0  0  0  0  0  0
   -1.4289   -0.8250    0.0000 Cl  0  0  0  0  0  0  0  0  0  0  0  0
    0.0000   -1.6500    0.0000 Cl  0  0  0  0  0  0  0  0  0  0  0  0
   -1.4289    0.8250    0.0000 Cl  0  0  0  0  0  0  0  0  0  0  0  0
    1.4289    0.8250    0.0000 Cl  0  0  0  0  0  0  0  0  0  0  0  0
   -0.7145   -1.4825    0.0000 H   0  0  0  0  0  0  0  0  0  0  0  0
   -0.9266   -1.3600    0.0000 H   0  0  0  0  0  0  0  0  0  0  0  0
    0.7145   -1.4825    0.0000 H   0  0  0  0  0  0  0  0  0  0  0  0
   -1.6412   -0.1225    0.0000 H   0  0  0  0  0  0  0  0  0  0  0  0
    1.6412   -0.1225    0.0000 H   0  0  0  0  0  0  0  0  0  0  0  0
   -0.9266    1.3600    0.0000 H   0  0  0  0  0  0  0  0  0  0  0  0
  1  9  1  0  0  0  0
  1 13  1  6  0  0  0
  2  1  1  0  0  0  0
  2 10  1  0  0  0  0
  2 14  1  1  0  0  0
  3  2  1  0  0  0  0
  3  7  1  0  0  0  0
  3 15  1  6  0  0  0
  4  1  1  0  0  0  0
  4 11  1  0  0  0  0
  4 16  1  6  0  0  0
  5  3  1  0  0  0  0
  5  6  1  0  0  0  0
  5 12  1  0  0  0  0
  5 17  1  6  0  0  0
  6  4  1  0  0  0  0
  6  8  1  0  0  0  0
  6 18  1  1  0  0  0
M  END
>  <DRUGBANK_ID>
DB00431

>  <SECONDARY_ACCESSION_NUMBERS>
APRD01072

>  <COMMON_NAME>
Lindane

>  <CAS_NUMBER>
58-89-9

>  <UNII>
59NEE7PCAB

>  <SYNONYMS>
(1r,2c,3t,4c,5c,6t)-1,2,3,4,5,6-hexachlorocyclohexane; (1α,2α,3β,4α,5α,6β)-1,2,3,4,5,6-hexachlorocyclohexane; 1,2,3,4,5,6-hexachlorocyclohexane; Benzene hexachloride; gamma-1,2,3,4,5,6-hexachlorocyclohexane; gamma-benzene hexachloride; gamma-BHC; gamma-HCH; gamma-Hexachlorocyclohexane; gamma-Lindane; Gammallin; Gammaxene; Lindan; Lindane; Lindano; Lindanum; γ-hexachlorocyclohexane; γ-Hexachlorzyklohexan; γ-lindane

$$$$
