CQP
 OpenBabel10282417072D

 51 54  0  0  0  0  0  0  0  0999 V2000
    1.7224   -5.3556    0.0000 Cl  0  0  0  0  0  0  0  0  0  0  0  0
    1.2375   -4.6882    0.0000 C   0  0  0  0  0  0  0  0  0  0  0  0
    0.4170   -4.7744    0.0000 C   0  0  0  0  0  0  0  0  0  0  0  0
   -0.0679   -4.1070    0.0000 C   0  0  0  0  0  0  0  0  0  0  0  0
    0.2677   -3.3533    0.0000 C   0  0  0  0  0  0  0  0  0  0  0  0
   -0.2173   -2.6859    0.0000 C   0  0  0  0  0  0  0  0  0  0  0  0
    0.1183   -1.9322    0.0000 O   0  0  0  0  0  0  0  0  0  0  0  0
   -0.3666   -1.2648    0.0000 C   0  0  1  0  0  0  0  0  0  0  0  0
   -1.1916   -1.2648    0.0000 C   0  0  0  0  0  0  0  0  0  0  0  0
   -1.4466   -0.4801    0.0000 N   0  0  0  0  0  0  0  0  0  0  0  0
   -0.7791    0.0048    0.0000 C   0  0  2  0  0  0  0  0  0  0  0  0
   -0.7791    0.8298    0.0000 C   0  0  0  0  0  0  0  0  0  0  0  0
   -0.0647    1.2423    0.0000 N   0  0  0  0  0  0  0  0  0  0  0  0
   -0.0647    2.0673    0.0000 S   0  0  0  0  0  0  0  0  0  0  0  0
    0.7603    2.0673    0.0000 O   0  0  0  0  0  0  0  0  0  0  0  0
   -0.8897    2.0673    0.0000 O   0  0  0  0  0  0  0  0  0  0  0  0
   -0.0647    2.8923    0.0000 C   0  0  0  0  0  0  0  0  0  0  0  0
   -0.7791    3.3048    0.0000 C   0  0  0  0  0  0  0  0  0  0  0  0
   -0.7791    4.1298    0.0000 C   0  0  0  0  0  0  0  0  0  0  0  0
   -0.0647    4.5423    0.0000 C   0  0  0  0  0  0  0  0  0  0  0  0
    0.6498    4.1298    0.0000 C   0  0  0  0  0  0  0  0  0  0  0  0
    1.3643    4.5423    0.0000 C   0  0  0  0  0  0  0  0  0  0  0  0
    2.0788    4.1298    0.0000 N   0  0  0  0  0  0  0  0  0  0  0  0
    2.0788    3.3048    0.0000 C   0  0  0  0  0  0  0  0  0  0  0  0
    1.3643    2.8923    0.0000 C   0  0  0  0  0  0  0  0  0  0  0  0
    0.6498    3.3048    0.0000 C   0  0  0  0  0  0  0  0  0  0  0  0
    1.0881   -3.2671    0.0000 C   0  0  0  0  0  0  0  0  0  0  0  0
   -0.1117   -0.4801    0.0000 C   0  0  0  0  0  0  0  0  0  0  0  0
    1.5731   -3.9345    0.0000 C   0  0  0  0  0  0  0  0  0  0  0  0
   -0.6317   -1.7851    0.0000 H   0  0  0  0  0  0  0  0  0  0  0  0
   -1.2994    0.2699    0.0000 H   0  0  0  0  0  0  0  0  0  0  0  0
   -0.0028   -5.7172    0.0000 H   0  0  0  0  0  0  0  0  0  0  0  0
   -1.0942   -4.2149    0.0000 H   0  0  0  0  0  0  0  0  0  0  0  0
   -1.2814   -2.7978    0.0000 H   0  0  0  0  0  0  0  0  0  0  0  0
   -0.8462   -1.8203    0.0000 H   0  0  0  0  0  0  0  0  0  0  0  0
   -1.8205   -2.1305    0.0000 H   0  0  0  0  0  0  0  0  0  0  0  0
   -2.2484   -1.0974    0.0000 H   0  0  0  0  0  0  0  0  0  0  0  0
   -2.4167   -0.1649    0.0000 H   0  0  0  0  0  0  0  0  0  0  0  0
   -1.7058    1.3648    0.0000 H   0  0  0  0  0  0  0  0  0  0  0  0
   -0.7791    1.8998    0.0000 H   0  0  0  0  0  0  0  0  0  0  0  0
    0.8187    0.7323    0.0000 H   0  0  0  0  0  0  0  0  0  0  0  0
   -1.6728    2.7888    0.0000 H   0  0  0  0  0  0  0  0  0  0  0  0
   -1.6728    4.6458    0.0000 H   0  0  0  0  0  0  0  0  0  0  0  0
   -0.0647    5.5743    0.0000 H   0  0  0  0  0  0  0  0  0  0  0  0
    1.3643    5.5743    0.0000 H   0  0  0  0  0  0  0  0  0  0  0  0
    2.9725    2.7888    0.0000 H   0  0  0  0  0  0  0  0  0  0  0  0
    1.3643    1.8603    0.0000 H   0  0  0  0  0  0  0  0  0  0  0  0
    1.5078   -2.3243    0.0000 H   0  0  0  0  0  0  0  0  0  0  0  0
    0.9059   -0.1494    0.0000 H   0  0  0  0  0  0  0  0  0  0  0  0
    0.0557    0.5767    0.0000 H   0  0  0  0  0  0  0  0  0  0  0  0
    2.5994   -3.8266    0.0000 H   0  0  0  0  0  0  0  0  0  0  0  0
  1  2  1  0  0  0  0
  2  3  2  0  0  0  0
  2 29  1  0  0  0  0
  3  4  1  0  0  0  0
  3 32  1  0  0  0  0
  4  5  2  0  0  0  0
  4 33  1  0  0  0  0
  5  6  1  0  0  0  0
  5 27  1  0  0  0  0
  6  7  1  0  0  0  0
  6 34  1  0  0  0  0
  6 35  1  0  0  0  0
  8  7  1  0  0  0  0
  8  9  1  0  0  0  0
  8 28  1  0  0  0  0
  8 30  1  6  0  0  0
  9 10  1  0  0  0  0
  9 36  1  0  0  0  0
  9 37  1  0  0  0  0
 10 11  1  0  0  0  0
 10 38  1  0  0  0  0
 11 12  1  0  0  0  0
 11 28  1  0  0  0  0
 11 31  1  1  0  0  0
 12 13  1  0  0  0  0
 12 39  1  0  0  0  0
 12 40  1  0  0  0  0
 13 14  1  0  0  0  0
 13 41  1  0  0  0  0
 14 15  2  0  0  0  0
 14 16  2  0  0  0  0
 14 17  1  0  0  0  0
 17 18  2  0  0  0  0
 17 26  1  0  0  0  0
 18 19  1  0  0  0  0
 18 42  1  0  0  0  0
 19 20  2  0  0  0  0
 19 43  1  0  0  0  0
 20 21  1  0  0  0  0
 20 44  1  0  0  0  0
 21 22  2  0  0  0  0
 21 26  1  0  0  0  0
 22 23  1  0  0  0  0
 22 45  1  0  0  0  0
 23 24  2  0  0  0  0
 24 25  1  0  0  0  0
 24 46  1  0  0  0  0
 25 26  2  0  0  0  0
 25 47  1  0  0  0  0
 27 29  2  0  0  0  0
 27 48  1  0  0  0  0
 28 49  1  0  0  0  0
 28 50  1  0  0  0  0
 29 51  1  0  0  0  0
M  END
>  <DRUGBANK_ID>
DB07583

>  <COMMON_NAME>
(4R,2S)-5'-(4-(4-CHLOROBENZYLOXY)PYRROLIDIN-2-YLMETHANESULFONYL)ISOQUINOLINE

$$$$
