
 OpenBabel10282417072D

 23 23  0  0  0  0  0  0  0  0999 V2000
   -1.6672    0.3781    0.0000 C   0  0  0  0  0  0  0  0  0  0  0  0
   -1.2394   -0.3287    0.0000 N   0  0  0  0  0  0  0  0  0  0  0  0
   -0.4160   -0.3287    0.0000 C   0  0  0  0  0  0  0  0  0  0  0  0
   -0.0087   -1.0853    0.0000 C   0  0  0  0  0  0  0  0  0  0  0  0
    0.8146   -1.0766    0.0000 C   0  0  0  0  0  0  0  0  0  0  0  0
    1.2394   -0.3608    0.0000 C   0  0  0  0  0  0  0  0  0  0  0  0
    0.8322    0.3434    0.0000 C   0  0  0  0  0  0  0  0  0  0  0  0
    0.0000    0.3434    0.0000 C   0  0  0  0  0  0  0  0  0  0  0  0
    2.0629   -0.3608    0.0000 O   0  0  0  0  0  0  0  0  0  0  0  0
    2.4907    0.3434    0.0000 C   0  0  0  0  0  0  0  0  0  0  0  0
   -2.4907    0.3781    0.0000 O   0  0  0  0  0  0  0  0  0  0  0  0
   -1.2423    1.0853    0.0000 C   0  0  0  0  0  0  0  0  0  0  0  0
   -1.7228   -1.1863    0.0000 H   0  0  0  0  0  0  0  0  0  0  0  0
   -0.5333   -1.9740    0.0000 H   0  0  0  0  0  0  0  0  0  0  0  0
    1.3300   -1.9707    0.0000 H   0  0  0  0  0  0  0  0  0  0  0  0
    1.3479    1.2373    0.0000 H   0  0  0  0  0  0  0  0  0  0  0  0
   -0.5022    1.2449    0.0000 H   0  0  0  0  0  0  0  0  0  0  0  0
    3.5604    0.3195    0.0000 H   0  0  0  0  0  0  0  0  0  0  0  0
    1.9765    1.2818    0.0000 H   0  0  0  0  0  0  0  0  0  0  0  0
    3.0462    1.2579    0.0000 H   0  0  0  0  0  0  0  0  0  0  0  0
   -0.1725    1.0667    0.0000 H   0  0  0  0  0  0  0  0  0  0  0  0
   -1.7611    2.0211    0.0000 H   0  0  0  0  0  0  0  0  0  0  0  0
   -0.6912    2.0025    0.0000 H   0  0  0  0  0  0  0  0  0  0  0  0
  2  1  1  0  0  0  0
  2 13  1  0  0  0  0
  3  2  1  0  0  0  0
  4  3  2  0  0  0  0
  4 14  1  0  0  0  0
  5  4  1  0  0  0  0
  5  6  2  0  0  0  0
  5 15  1  0  0  0  0
  6  7  1  0  0  0  0
  7  8  2  0  0  0  0
  7 16  1  0  0  0  0
  8  3  1  0  0  0  0
  8 17  1  0  0  0  0
  9  6  1  0  0  0  0
 10  9  1  0  0  0  0
 10 18  1  0  0  0  0
 10 19  1  0  0  0  0
 10 20  1  0  0  0  0
 11  1  2  0  0  0  0
 12  1  1  0  0  0  0
 12 21  1  0  0  0  0
 12 22  1  0  0  0  0
 12 23  1  0  0  0  0
M  ISO  1  10  13
M  END
>  <DRUGBANK_ID>
DB15885

>  <COMMON_NAME>
Methacetin methoxy-C-13

>  <CAS_NUMBER>
72156-70-8

>  <UNII>
6RR3G0X81D

>  <SYNONYMS>
Methacetin C-13; Methacetin methoxy-C-13; Methacetin, C-13; p-Acetanisidine C-13

$$$$
