925
 OpenBabel10282417072D

 43 44  0  0  1  0  0  0  0  0999 V2000
    5.2218   -0.8249    0.0000 Cl  0  0  0  0  0  0  0  0  0  0  0  0
    3.7930    1.6498    0.0000 O   0  0  0  0  0  0  0  0  0  0  0  0
    3.0787   -0.4125    0.0000 N   0  0  0  0  0  0  0  0  0  0  0  0
    3.0787    0.4125    0.0000 C   0  0  3  0  0  0  0  0  0  0  0  0
    2.3642   -0.8249    0.0000 C   0  0  0  0  0  0  0  0  0  0  0  0
    3.7930   -0.8249    0.0000 C   0  0  0  0  0  0  0  0  0  0  0  0
    3.7930    0.8249    0.0000 C   0  0  0  0  0  0  0  0  0  0  0  0
    2.3642    0.8249    0.0000 C   0  0  0  0  0  0  0  0  0  0  0  0
    2.3642   -1.6498    0.0000 C   0  0  0  0  0  0  0  0  0  0  0  0
    4.5075   -0.4125    0.0000 C   0  0  0  0  0  0  0  0  0  0  0  0
    3.0787   -2.0623    0.0000 C   0  0  0  0  0  0  0  0  0  0  0  0
    1.6498   -2.0623    0.0000 C   0  0  0  0  0  0  0  0  0  0  0  0
    4.5075    2.0623    0.0000 C   0  0  0  0  0  0  0  0  0  0  0  0
    3.0787   -2.8873    0.0000 C   0  0  0  0  0  0  0  0  0  0  0  0
    1.6498   -2.8873    0.0000 C   0  0  0  0  0  0  0  0  0  0  0  0
    2.3642   -3.2997    0.0000 C   0  0  0  0  0  0  0  0  0  0  0  0
    4.5075    2.8873    0.0000 C   0  0  0  0  0  0  0  0  0  0  0  0
    5.2218    1.6498    0.0000 C   0  0  0  0  0  0  0  0  0  0  0  0
    5.2218    3.2997    0.0000 C   0  0  0  0  0  0  0  0  0  0  0  0
    5.9363    2.0623    0.0000 C   0  0  0  0  0  0  0  0  0  0  0  0
    5.9363    2.8873    0.0000 C   0  0  0  0  0  0  0  0  0  0  0  0
    4.0053   -0.1225    0.0000 H   0  0  0  0  0  0  0  0  0  0  0  0
    1.4376   -0.2898    0.0000 H   0  0  0  0  0  0  0  0  0  0  0  0
    1.4375   -1.3599    0.0000 H   0  0  0  0  0  0  0  0  0  0  0  0
    3.7929   -1.8949    0.0000 H   0  0  0  0  0  0  0  0  0  0  0  0
    4.7196   -1.3600    0.0000 H   0  0  0  0  0  0  0  0  0  0  0  0
    4.7196    0.2899    0.0000 H   0  0  0  0  0  0  0  0  0  0  0  0
    3.7930   -0.2451    0.0000 H   0  0  0  0  0  0  0  0  0  0  0  0
    2.3641    1.8949    0.0000 H   0  0  0  0  0  0  0  0  0  0  0  0
    1.4376    0.2898    0.0000 H   0  0  0  0  0  0  0  0  0  0  0  0
    1.4375    1.3598    0.0000 H   0  0  0  0  0  0  0  0  0  0  0  0
    4.5076    0.6575    0.0000 H   0  0  0  0  0  0  0  0  0  0  0  0
    3.5809    0.1226    0.0000 H   0  0  0  0  0  0  0  0  0  0  0  0
    3.9724   -1.5463    0.0000 H   0  0  0  0  0  0  0  0  0  0  0  0
    0.7561   -1.5463    0.0000 H   0  0  0  0  0  0  0  0  0  0  0  0
    3.9724   -3.4034    0.0000 H   0  0  0  0  0  0  0  0  0  0  0  0
    0.7561   -3.4033    0.0000 H   0  0  0  0  0  0  0  0  0  0  0  0
    2.3642   -4.3317    0.0000 H   0  0  0  0  0  0  0  0  0  0  0  0
    3.6138    3.4033    0.0000 H   0  0  0  0  0  0  0  0  0  0  0  0
    5.2217    0.6178    0.0000 H   0  0  0  0  0  0  0  0  0  0  0  0
    5.2217    4.3317    0.0000 H   0  0  0  0  0  0  0  0  0  0  0  0
    6.8300    1.5463    0.0000 H   0  0  0  0  0  0  0  0  0  0  0  0
    6.8300    3.4034    0.0000 H   0  0  0  0  0  0  0  0  0  0  0  0
  1 10  1  0  0  0  0
  2  7  1  0  0  0  0
  2 13  1  0  0  0  0
  3  4  1  0  0  0  0
  3  5  1  0  0  0  0
  3  6  1  0  0  0  0
  4  7  1  0  0  0  0
  4  8  1  0  0  0  0
  4 22  1  0  0  0  0
  5  9  1  0  0  0  0
  5 23  1  0  0  0  0
  5 24  1  0  0  0  0
  6 10  1  0  0  0  0
  6 25  1  0  0  0  0
  6 26  1  0  0  0  0
  7 27  1  0  0  0  0
  7 28  1  0  0  0  0
  8 29  1  0  0  0  0
  8 30  1  0  0  0  0
  8 31  1  0  0  0  0
  9 11  2  0  0  0  0
  9 12  1  0  0  0  0
 10 32  1  0  0  0  0
 10 33  1  0  0  0  0
 11 14  1  0  0  0  0
 11 34  1  0  0  0  0
 12 15  2  0  0  0  0
 12 35  1  0  0  0  0
 13 17  2  0  0  0  0
 13 18  1  0  0  0  0
 14 16  2  0  0  0  0
 14 36  1  0  0  0  0
 15 16  1  0  0  0  0
 15 37  1  0  0  0  0
 16 38  1  0  0  0  0
 17 19  1  0  0  0  0
 17 39  1  0  0  0  0
 18 20  2  0  0  0  0
 18 40  1  0  0  0  0
 19 21  2  0  0  0  0
 19 41  1  0  0  0  0
 20 21  1  0  0  0  0
 20 42  1  0  0  0  0
 21 43  1  0  0  0  0
M  END
>  <DRUGBANK_ID>
DB00925

>  <SECONDARY_ACCESSION_NUMBERS>
APRD00651

>  <COMMON_NAME>
Phenoxybenzamine

>  <CAS_NUMBER>
59-96-1

>  <UNII>
0TTZ664R7Z

>  <SYNONYMS>
Fenossibenzamina; Fenoxibenzamina; Phenoxybenzamine; Phenoxybenzaminum; POB

$$$$
