MVB
 OpenBabel10282417072D

 48 50  0  0  0  0  0  0  0  0999 V2000
   -1.9420    3.0097    0.0000 O   0  0  0  0  0  0  0  0  0  0  0  0
    0.2014    2.5972    0.0000 C   0  0  0  0  0  0  0  0  0  0  0  0
    0.9159    3.0097    0.0000 O   0  0  0  0  0  0  0  0  0  0  0  0
    0.2014    1.7722    0.0000 O   0  0  0  0  0  0  0  0  0  0  0  0
    1.6303    0.1222    0.0000 O   0  0  0  0  0  0  0  0  0  0  0  0
   -0.5131    1.3597    0.0000 C   0  0  2  0  0  0  0  0  0  0  0  0
   -1.2275    1.7722    0.0000 C   0  0  0  0  0  0  0  0  0  0  0  0
   -1.2275    2.5972    0.0000 C   0  0  2  0  0  0  0  0  0  0  0  0
   -0.5131    3.0097    0.0000 C   0  0  0  0  0  0  0  0  0  0  0  0
   -1.2275   -0.7028    0.0000 C   0  0  0  0  0  0  0  0  0  0  0  0
   -0.5131    0.5347    0.0000 C   0  0  0  0  0  0  0  0  0  0  0  0
    0.2014    0.1222    0.0000 C   0  0  0  0  0  0  0  0  0  0  0  0
    0.2014   -0.7028    0.0000 C   0  0  1  0  0  0  0  0  0  0  0  0
   -0.5131   -1.1153    0.0000 C   0  0  2  0  0  0  0  0  0  0  0  0
   -0.5131   -1.9403    0.0000 C   0  0  0  0  0  0  0  0  0  0  0  0
    0.2014   -2.3528    0.0000 C   0  0  0  0  0  0  0  0  0  0  0  0
    0.9159   -1.9403    0.0000 C   0  0  0  0  0  0  0  0  0  0  0  0
    0.9159   -1.1153    0.0000 C   0  0  2  0  0  0  0  0  0  0  0  0
    1.6303   -0.7028    0.0000 C   0  0  2  0  0  0  0  0  0  0  0  0
    2.3448   -1.1153    0.0000 C   0  0  0  0  0  0  0  0  0  0  0  0
    2.3448   -1.9403    0.0000 C   0  0  0  0  0  0  0  0  0  0  0  0
    1.6303   -2.3528    0.0000 C   0  0  0  0  0  0  0  0  0  0  0  0
   -0.0074    1.0677    0.0000 H   0  0  0  0  0  0  0  0  0  0  0  0
   -1.7332    2.3052    0.0000 H   0  0  0  0  0  0  0  0  0  0  0  0
   -0.3737   -0.6014    0.0000 H   0  0  0  0  0  0  0  0  0  0  0  0
   -0.7128   -0.5666    0.0000 H   0  0  0  0  0  0  0  0  0  0  0  0
    0.7162   -0.5666    0.0000 H   0  0  0  0  0  0  0  0  0  0  0  0
    1.2550   -0.2555    0.0000 H   0  0  0  0  0  0  0  0  0  0  0  0
   -1.9420    3.9797    0.0000 H   0  0  0  0  0  0  0  0  0  0  0  0
    2.4703    0.6072    0.0000 H   0  0  0  0  0  0  0  0  0  0  0  0
   -2.1542    1.2372    0.0000 H   0  0  0  0  0  0  0  0  0  0  0  0
   -2.1541    2.3072    0.0000 H   0  0  0  0  0  0  0  0  0  0  0  0
   -0.5131    4.0797    0.0000 H   0  0  0  0  0  0  0  0  0  0  0  0
   -1.4398    3.5447    0.0000 H   0  0  0  0  0  0  0  0  0  0  0  0
   -1.2275    0.3672    0.0000 H   0  0  0  0  0  0  0  0  0  0  0  0
   -2.1542   -1.2378    0.0000 H   0  0  0  0  0  0  0  0  0  0  0  0
   -2.1541   -0.1678    0.0000 H   0  0  0  0  0  0  0  0  0  0  0  0
   -1.4397   -0.0003    0.0000 H   0  0  0  0  0  0  0  0  0  0  0  0
   -0.5131   -0.5353    0.0000 H   0  0  0  0  0  0  0  0  0  0  0  0
    1.1280    0.6572    0.0000 H   0  0  0  0  0  0  0  0  0  0  0  0
    1.1280   -0.4128    0.0000 H   0  0  0  0  0  0  0  0  0  0  0  0
   -1.4068   -2.4563    0.0000 H   0  0  0  0  0  0  0  0  0  0  0  0
    0.2014   -3.3848    0.0000 H   0  0  0  0  0  0  0  0  0  0  0  0
    3.2714   -0.5803    0.0000 H   0  0  0  0  0  0  0  0  0  0  0  0
    3.2714   -1.6503    0.0000 H   0  0  0  0  0  0  0  0  0  0  0  0
    3.2714   -2.4753    0.0000 H   0  0  0  0  0  0  0  0  0  0  0  0
    2.3448   -3.0103    0.0000 H   0  0  0  0  0  0  0  0  0  0  0  0
    1.6303   -3.3848    0.0000 H   0  0  0  0  0  0  0  0  0  0  0  0
  1 29  1  0  0  0  0
  2  3  2  0  0  0  0
  2  4  1  0  0  0  0
  2  9  1  0  0  0  0
  4  6  1  0  0  0  0
  5 30  1  0  0  0  0
  6  7  1  0  0  0  0
  6 11  1  0  0  0  0
  6 23  1  6  0  0  0
  7  8  1  0  0  0  0
  7 31  1  0  0  0  0
  7 32  1  0  0  0  0
  8  1  1  0  0  0  0
  8  9  1  0  0  0  0
  8 24  1  6  0  0  0
  9 33  1  0  0  0  0
  9 34  1  0  0  0  0
 10 35  1  0  0  0  0
 10 36  1  0  0  0  0
 10 37  1  0  0  0  0
 11 12  1  0  0  0  0
 11 38  1  0  0  0  0
 11 39  1  0  0  0  0
 12 40  1  0  0  0  0
 12 41  1  0  0  0  0
 13 12  1  0  0  0  0
 13 14  1  0  0  0  0
 13 18  1  0  0  0  0
 13 25  1  1  0  0  0
 14 10  1  0  0  0  0
 14 15  1  0  0  0  0
 14 26  1  1  0  0  0
 15 16  2  0  0  0  0
 15 42  1  0  0  0  0
 16 17  1  0  0  0  0
 16 43  1  0  0  0  0
 17 18  1  0  0  0  0
 17 22  2  0  0  0  0
 18 19  1  0  0  0  0
 18 27  1  6  0  0  0
 19  5  1  0  0  0  0
 19 20  1  0  0  0  0
 19 28  1  6  0  0  0
 20 21  1  0  0  0  0
 20 44  1  0  0  0  0
 20 45  1  0  0  0  0
 21 22  1  0  0  0  0
 21 46  1  0  0  0  0
 21 47  1  0  0  0  0
 22 48  1  0  0  0  0
M  END
>  <DRUGBANK_ID>
DB08224

>  <COMMON_NAME>
(1S,7S,8S,8AR)-1,2,3,7,8,8A-HEXAHYDRO-7-METHYL-8-[2-[(2R,4R)-TETRAHYDRO-4-HY DROXY-6-OXO-2H-PYRAN-2-YL]ETHYL]-1-NAPHTHALENOL

$$$$
