DKA
 OpenBabel10282417072D

 32 31  0  0  0  0  0  0  0  0999 V2000
   -3.2374   -0.1687    0.0000 C   0  0  0  0  0  0  0  0  0  0  0  0
   -3.9520    0.2438    0.0000 O   0  0  0  0  0  0  0  0  0  0  0  0
   -2.5230    0.2438    0.0000 C   0  0  0  0  0  0  0  0  0  0  0  0
   -1.8084   -0.1687    0.0000 C   0  0  0  0  0  0  0  0  0  0  0  0
   -1.0939    0.2438    0.0000 C   0  0  0  0  0  0  0  0  0  0  0  0
   -0.3794   -0.1687    0.0000 C   0  0  0  0  0  0  0  0  0  0  0  0
    0.3351    0.2438    0.0000 C   0  0  0  0  0  0  0  0  0  0  0  0
    1.0497   -0.1687    0.0000 C   0  0  0  0  0  0  0  0  0  0  0  0
    1.7641    0.2438    0.0000 C   0  0  0  0  0  0  0  0  0  0  0  0
    2.4787   -0.1687    0.0000 C   0  0  0  0  0  0  0  0  0  0  0  0
    3.1932    0.2438    0.0000 C   0  0  0  0  0  0  0  0  0  0  0  0
   -3.2374   -0.9938    0.0000 O   0  0  0  0  0  0  0  0  0  0  0  0
   -2.5231    1.3138    0.0000 H   0  0  0  0  0  0  0  0  0  0  0  0
   -1.5964    0.7789    0.0000 H   0  0  0  0  0  0  0  0  0  0  0  0
   -1.8084   -1.2387    0.0000 H   0  0  0  0  0  0  0  0  0  0  0  0
   -0.8817   -0.7037    0.0000 H   0  0  0  0  0  0  0  0  0  0  0  0
   -1.0939    1.3138    0.0000 H   0  0  0  0  0  0  0  0  0  0  0  0
   -0.1673    0.7788    0.0000 H   0  0  0  0  0  0  0  0  0  0  0  0
   -0.3794   -1.2387    0.0000 H   0  0  0  0  0  0  0  0  0  0  0  0
    0.5472   -0.7037    0.0000 H   0  0  0  0  0  0  0  0  0  0  0  0
    0.3351    1.3138    0.0000 H   0  0  0  0  0  0  0  0  0  0  0  0
    1.2617    0.7789    0.0000 H   0  0  0  0  0  0  0  0  0  0  0  0
    1.0498   -1.2387    0.0000 H   0  0  0  0  0  0  0  0  0  0  0  0
    1.9764   -0.7037    0.0000 H   0  0  0  0  0  0  0  0  0  0  0  0
    1.7640    1.3138    0.0000 H   0  0  0  0  0  0  0  0  0  0  0  0
    2.6907    0.7789    0.0000 H   0  0  0  0  0  0  0  0  0  0  0  0
    2.4787   -1.2387    0.0000 H   0  0  0  0  0  0  0  0  0  0  0  0
    3.4054   -0.7037    0.0000 H   0  0  0  0  0  0  0  0  0  0  0  0
    4.1198   -0.2912    0.0000 H   0  0  0  0  0  0  0  0  0  0  0  0
    3.1932    1.3138    0.0000 H   0  0  0  0  0  0  0  0  0  0  0  0
    4.1199    0.7788    0.0000 H   0  0  0  0  0  0  0  0  0  0  0  0
   -4.0489   -1.4623    0.0000 H   0  0  0  0  0  0  0  0  0  0  0  0
  1  2  2  0  0  0  0
  1  3  1  0  0  0  0
  1 12  1  0  0  0  0
  3  4  1  0  0  0  0
  3 13  1  0  0  0  0
  3 14  1  0  0  0  0
  4  5  1  0  0  0  0
  4 15  1  0  0  0  0
  4 16  1  0  0  0  0
  5  6  1  0  0  0  0
  5 17  1  0  0  0  0
  5 18  1  0  0  0  0
  6  7  1  0  0  0  0
  6 19  1  0  0  0  0
  6 20  1  0  0  0  0
  7  8  1  0  0  0  0
  7 21  1  0  0  0  0
  7 22  1  0  0  0  0
  8  9  1  0  0  0  0
  8 23  1  0  0  0  0
  8 24  1  0  0  0  0
  9 10  1  0  0  0  0
  9 25  1  0  0  0  0
  9 26  1  0  0  0  0
 10 11  1  0  0  0  0
 10 27  1  0  0  0  0
 10 28  1  0  0  0  0
 11 29  1  0  0  0  0
 11 30  1  0  0  0  0
 11 31  1  0  0  0  0
 12 32  1  0  0  0  0
M  END
>  <DRUGBANK_ID>
DB03600

>  <SECONDARY_ACCESSION_NUMBERS>
EXPT01213; DB03838

>  <COMMON_NAME>
Capric acid

>  <CAS_NUMBER>
334-48-5

>  <UNII>
4G9EDB6V73

>  <SYNONYMS>
1-nonanecarboxylic acid; Capric acid; Decanoic acid; n-capric acid; n-decanoic acid; n-decylic acid

$$$$
