M08
 OpenBabel10282417072D

 38 40  0  0  0  0  0  0  0  0999 V2000
   -2.5098   -0.1174    0.0000 C   0  0  0  0  0  0  0  0  0  0  0  0
   -3.1772   -0.6024    0.0000 C   0  0  0  0  0  0  0  0  0  0  0  0
   -3.0910   -1.4229    0.0000 C   0  0  0  0  0  0  0  0  0  0  0  0
   -2.3373   -1.7584    0.0000 C   0  0  0  0  0  0  0  0  0  0  0  0
   -1.6699   -1.2735    0.0000 C   0  0  0  0  0  0  0  0  0  0  0  0
   -1.7561   -0.4530    0.0000 C   0  0  0  0  0  0  0  0  0  0  0  0
   -1.0887    0.0319    0.0000 C   0  0  0  0  0  0  0  0  0  0  0  0
   -0.3040   -0.2230    0.0000 C   0  0  0  0  0  0  0  0  0  0  0  0
   -1.0887    0.8569    0.0000 N   0  0  0  0  0  0  0  0  0  0  0  0
   -0.3040    1.1119    0.0000 O   0  0  0  0  0  0  0  0  0  0  0  0
    0.1809    0.4444    0.0000 C   0  0  2  0  0  0  0  0  0  0  0  0
    0.5934    1.1589    0.0000 O   0  0  0  0  0  0  0  0  0  0  0  0
    1.4184    1.1589    0.0000 C   0  0  2  0  0  0  0  0  0  0  0  0
    1.8309    1.8734    0.0000 C   0  0  0  0  0  0  0  0  0  0  0  0
    1.4184    2.5878    0.0000 O   0  0  0  0  0  0  0  0  0  0  0  0
    1.8309    0.4444    0.0000 C   0  0  1  0  0  0  0  0  0  0  0  0
    2.6559    0.4444    0.0000 O   0  0  0  0  0  0  0  0  0  0  0  0
    1.4184   -0.2701    0.0000 C   0  0  2  0  0  0  0  0  0  0  0  0
    1.8309   -0.9845    0.0000 O   0  0  0  0  0  0  0  0  0  0  0  0
    0.5934   -0.2701    0.0000 C   0  0  1  0  0  0  0  0  0  0  0  0
    0.1809   -0.9845    0.0000 O   0  0  0  0  0  0  0  0  0  0  0  0
    1.1264    1.6646    0.0000 H   0  0  0  0  0  0  0  0  0  0  0  0
    2.1228    0.9501    0.0000 H   0  0  0  0  0  0  0  0  0  0  0  0
    2.0023   -0.2701    0.0000 H   0  0  0  0  0  0  0  0  0  0  0  0
    0.8853   -0.7757    0.0000 H   0  0  0  0  0  0  0  0  0  0  0  0
   -2.6177    0.9089    0.0000 H   0  0  0  0  0  0  0  0  0  0  0  0
   -4.1200   -0.1827    0.0000 H   0  0  0  0  0  0  0  0  0  0  0  0
   -3.9259   -2.0295    0.0000 H   0  0  0  0  0  0  0  0  0  0  0  0
   -2.2294   -2.7847    0.0000 H   0  0  0  0  0  0  0  0  0  0  0  0
   -0.7271   -1.6933    0.0000 H   0  0  0  0  0  0  0  0  0  0  0  0
    0.0267   -1.2406    0.0000 H   0  0  0  0  0  0  0  0  0  0  0  0
    0.7528   -0.3904    0.0000 H   0  0  0  0  0  0  0  0  0  0  0  0
    2.9009    1.8734    0.0000 H   0  0  0  0  0  0  0  0  0  0  0  0
    2.3659    2.8001    0.0000 H   0  0  0  0  0  0  0  0  0  0  0  0
    1.9034    3.4279    0.0000 H   0  0  0  0  0  0  0  0  0  0  0  0
    3.1409   -0.3956    0.0000 H   0  0  0  0  0  0  0  0  0  0  0  0
    1.3459   -1.8246    0.0000 H   0  0  0  0  0  0  0  0  0  0  0  0
   -0.7891   -0.9845    0.0000 H   0  0  0  0  0  0  0  0  0  0  0  0
  1  6  2  0  0  0  0
  1  2  1  0  0  0  0
  1 26  1  0  0  0  0
  2  3  2  0  0  0  0
  2 27  1  0  0  0  0
  3  4  1  0  0  0  0
  3 28  1  0  0  0  0
  4 29  1  0  0  0  0
  5  4  2  0  0  0  0
  5 30  1  0  0  0  0
  6  5  1  0  0  0  0
  7  6  1  0  0  0  0
  8  7  1  0  0  0  0
  8 31  1  0  0  0  0
  8 32  1  0  0  0  0
  9  7  2  0  0  0  0
 10  9  1  0  0  0  0
 11 12  1  6  0  0  0
 11 10  1  0  0  0  0
 11  8  1  0  0  0  0
 13 14  1  0  0  0  0
 13 12  1  0  0  0  0
 13 22  1  1  0  0  0
 14 33  1  0  0  0  0
 14 34  1  0  0  0  0
 15 14  1  0  0  0  0
 15 35  1  0  0  0  0
 16 13  1  0  0  0  0
 16 23  1  6  0  0  0
 16 17  1  0  0  0  0
 17 36  1  0  0  0  0
 18 16  1  0  0  0  0
 18 20  1  0  0  0  0
 18 24  1  1  0  0  0
 18 19  1  0  0  0  0
 19 37  1  0  0  0  0
 20 11  1  0  0  0  0
 20 25  1  6  0  0  0
 20 21  1  0  0  0  0
 21 38  1  0  0  0  0
M  END
>  <DRUGBANK_ID>
DB08151

>  <COMMON_NAME>
(5R,7R,8S,9S,10R)-7-(hydroxymethyl)-3-phenyl-1,6-dioxa-2-azaspiro[4.5]dec-2-ene-8,9,10-triol

$$$$
