LGD
 OpenBabel10282417072D

 35 36  0  0  0  0  0  0  0  0999 V2000
   -0.2014    3.5938    0.0000 N   0  0  0  0  0  0  0  0  0  0  0  0
   -1.0264    3.5938    0.0000 C   0  0  0  0  0  0  0  0  0  0  0  0
   -1.4389    2.8793    0.0000 C   0  0  0  0  0  0  0  0  0  0  0  0
   -1.0264    2.1648    0.0000 C   0  0  0  0  0  0  0  0  0  0  0  0
   -1.8514    0.7359    0.0000 F   0  0  0  0  0  0  0  0  0  0  0  0
   -0.7244    1.0378    0.0000 F   0  0  0  0  0  0  0  0  0  0  0  0
   -2.1534    1.8628    0.0000 F   0  0  0  0  0  0  0  0  0  0  0  0
   -0.2014    2.1648    0.0000 C   0  0  0  0  0  0  0  0  0  0  0  0
    0.2111    1.4503    0.0000 C   0  0  0  0  0  0  0  0  0  0  0  0
    1.0361    1.4503    0.0000 C   0  0  0  0  0  0  0  0  0  0  0  0
    1.4486    2.1648    0.0000 C   0  0  0  0  0  0  0  0  0  0  0  0
    1.0361    2.8793    0.0000 C   0  0  0  0  0  0  0  0  0  0  0  0
    0.2111    2.8793    0.0000 C   0  0  0  0  0  0  0  0  0  0  0  0
   -1.4389    1.4503    0.0000 C   0  0  0  0  0  0  0  0  0  0  0  0
    2.2736    0.7359    0.0000 C   0  0  0  0  0  0  0  0  0  0  0  0
    1.4486    0.7359    0.0000 N   0  0  0  0  0  0  0  0  0  0  0  0
    1.0361    0.0214    0.0000 C   0  0  0  0  0  0  0  0  0  0  0  0
    3.0986   -0.6931    0.0000 F   0  0  0  0  0  0  0  0  0  0  0  0
    1.9716   -0.3911    0.0000 F   0  0  0  0  0  0  0  0  0  0  0  0
    3.4006    0.4339    0.0000 F   0  0  0  0  0  0  0  0  0  0  0  0
    2.6861    0.0214    0.0000 C   0  0  0  0  0  0  0  0  0  0  0  0
    0.2111    0.8464    0.0000 F   0  0  0  0  0  0  0  0  0  0  0  0
    0.2111   -0.8036    0.0000 F   0  0  0  0  0  0  0  0  0  0  0  0
   -0.6139    0.0214    0.0000 F   0  0  0  0  0  0  0  0  0  0  0  0
    0.2111    0.0214    0.0000 C   0  0  0  0  0  0  0  0  0  0  0  0
   -1.4389    4.3082    0.0000 O   0  0  0  0  0  0  0  0  0  0  0  0
    0.2909    4.4464    0.0000 H   0  0  0  0  0  0  0  0  0  0  0  0
   -2.4709    2.8793    0.0000 H   0  0  0  0  0  0  0  0  0  0  0  0
   -0.3049    0.5566    0.0000 H   0  0  0  0  0  0  0  0  0  0  0  0
    2.4806    2.1648    0.0000 H   0  0  0  0  0  0  0  0  0  0  0  0
    1.5521    3.7730    0.0000 H   0  0  0  0  0  0  0  0  0  0  0  0
    2.8086    1.6625    0.0000 H   0  0  0  0  0  0  0  0  0  0  0  0
    3.3436    0.7359    0.0000 H   0  0  0  0  0  0  0  0  0  0  0  0
    1.5711   -0.9052    0.0000 H   0  0  0  0  0  0  0  0  0  0  0  0
    0.5011   -0.9052    0.0000 H   0  0  0  0  0  0  0  0  0  0  0  0
  1  2  1  0  0  0  0
  1 13  1  0  0  0  0
  1 27  1  0  0  0  0
  2 26  2  0  0  0  0
  2  3  1  0  0  0  0
  3  4  2  0  0  0  0
  3 28  1  0  0  0  0
  4  8  1  0  0  0  0
  4 14  1  0  0  0  0
  5 14  1  0  0  0  0
  6 14  1  0  0  0  0
  7 14  1  0  0  0  0
  8 13  2  0  0  0  0
  8  9  1  0  0  0  0
  9 10  2  0  0  0  0
  9 29  1  0  0  0  0
 10 11  1  0  0  0  0
 10 16  1  0  0  0  0
 11 12  2  0  0  0  0
 11 30  1  0  0  0  0
 12 13  1  0  0  0  0
 12 31  1  0  0  0  0
 15 16  1  0  0  0  0
 15 21  1  0  0  0  0
 15 32  1  0  0  0  0
 15 33  1  0  0  0  0
 16 17  1  0  0  0  0
 17 25  1  0  0  0  0
 17 34  1  0  0  0  0
 17 35  1  0  0  0  0
 18 21  1  0  0  0  0
 19 21  1  0  0  0  0
 20 21  1  0  0  0  0
 22 25  1  0  0  0  0
 23 25  1  0  0  0  0
 24 25  1  0  0  0  0
M  END
>  <DRUGBANK_ID>
DB08089

>  <COMMON_NAME>
LGD-2226

>  <CAS_NUMBER>
328947-93-9

>  <UNII>
RI376RM5MT

>  <SYNONYMS>
6-(Bis-(2,2,2-trifluoroethyl)amino)-4-trifluoromethyl-1H-quinolin-2-one

$$$$
