B1L
 OpenBabel10282417072D

 49 51  0  0  0  0  0  0  0  0999 V2000
   -1.4414    3.4809    0.0000 O   0  0  0  0  0  0  0  0  0  0  0  0
   -1.4414    2.6559    0.0000 C   0  0  0  0  0  0  0  0  0  0  0  0
   -0.7269    2.2434    0.0000 C   0  0  0  0  0  0  0  0  0  0  0  0
   -0.7269    1.4184    0.0000 C   0  0  0  0  0  0  0  0  0  0  0  0
   -1.4414    1.0059    0.0000 C   0  0  0  0  0  0  0  0  0  0  0  0
   -2.1559    1.4184    0.0000 C   0  0  0  0  0  0  0  0  0  0  0  0
   -2.1559    2.2434    0.0000 C   0  0  0  0  0  0  0  0  0  0  0  0
   -1.4414    0.1809    0.0000 C   0  0  0  0  0  0  0  0  0  0  0  0
   -2.1559   -0.2316    0.0000 O   0  0  0  0  0  0  0  0  0  0  0  0
   -0.7269   -0.2316    0.0000 N   0  0  0  0  0  0  0  0  0  0  0  0
   -0.7269   -1.0566    0.0000 C   0  0  1  0  0  0  0  0  0  0  0  0
    0.0164   -1.4146    0.0000 C   0  0  1  0  0  0  0  0  0  0  0  0
    0.2000   -2.2189    0.0000 C   0  0  0  0  0  0  0  0  0  0  0  0
   -0.3144   -2.8639    0.0000 C   0  0  0  0  0  0  0  0  0  0  0  0
   -1.1394   -2.8639    0.0000 C   0  0  0  0  0  0  0  0  0  0  0  0
   -1.6538   -2.2189    0.0000 N   0  0  0  0  0  0  0  0  0  0  0  0
   -1.4702   -1.4146    0.0000 C   0  0  0  0  0  0  0  0  0  0  0  0
    0.6614   -0.9002    0.0000 O   0  0  0  0  0  0  0  0  0  0  0  0
    0.5384   -0.0844    0.0000 C   0  0  0  0  0  0  0  0  0  0  0  0
   -0.2295    0.2170    0.0000 O   0  0  0  0  0  0  0  0  0  0  0  0
    1.1834    0.4300    0.0000 C   0  0  0  0  0  0  0  0  0  0  0  0
    1.0605    1.2457    0.0000 C   0  0  0  0  0  0  0  0  0  0  0  0
    1.7055    1.7601    0.0000 C   0  0  0  0  0  0  0  0  0  0  0  0
    2.4735    1.4587    0.0000 C   0  0  0  0  0  0  0  0  0  0  0  0
    2.5964    0.6429    0.0000 C   0  0  0  0  0  0  0  0  0  0  0  0
    1.9514    0.1285    0.0000 C   0  0  0  0  0  0  0  0  0  0  0  0
    3.1185    1.9731    0.0000 O   0  0  0  0  0  0  0  0  0  0  0  0
   -0.3686   -0.5956    0.0000 H   0  0  0  0  0  0  0  0  0  0  0  0
    0.1534   -0.8470    0.0000 H   0  0  0  0  0  0  0  0  0  0  0  0
   -0.6299    3.9494    0.0000 H   0  0  0  0  0  0  0  0  0  0  0  0
    0.1668    2.7594    0.0000 H   0  0  0  0  0  0  0  0  0  0  0  0
    0.1668    0.9024    0.0000 H   0  0  0  0  0  0  0  0  0  0  0  0
   -3.0496    0.9024    0.0000 H   0  0  0  0  0  0  0  0  0  0  0  0
   -3.0496    2.7594    0.0000 H   0  0  0  0  0  0  0  0  0  0  0  0
    0.1257    0.2607    0.0000 H   0  0  0  0  0  0  0  0  0  0  0  0
    1.2432   -2.4570    0.0000 H   0  0  0  0  0  0  0  0  0  0  0  0
    0.5534   -3.2289    0.0000 H   0  0  0  0  0  0  0  0  0  0  0  0
    0.1498   -3.8279    0.0000 H   0  0  0  0  0  0  0  0  0  0  0  0
   -0.8837   -3.7699    0.0000 H   0  0  0  0  0  0  0  0  0  0  0  0
   -1.6036   -3.8279    0.0000 H   0  0  0  0  0  0  0  0  0  0  0  0
   -2.2027   -2.9837    0.0000 H   0  0  0  0  0  0  0  0  0  0  0  0
   -2.6482   -2.4459    0.0000 H   0  0  0  0  0  0  0  0  0  0  0  0
   -2.3068   -0.7475    0.0000 H   0  0  0  0  0  0  0  0  0  0  0  0
   -2.4802   -1.7680    0.0000 H   0  0  0  0  0  0  0  0  0  0  0  0
    0.0998    1.6227    0.0000 H   0  0  0  0  0  0  0  0  0  0  0  0
    1.5517    2.7806    0.0000 H   0  0  0  0  0  0  0  0  0  0  0  0
    3.5571    0.2658    0.0000 H   0  0  0  0  0  0  0  0  0  0  0  0
    2.1052   -0.8920    0.0000 H   0  0  0  0  0  0  0  0  0  0  0  0
    3.9907    1.6308    0.0000 H   0  0  0  0  0  0  0  0  0  0  0  0
  1  2  1  0  0  0  0
  1 30  1  0  0  0  0
  2  3  1  0  0  0  0
  2  7  2  0  0  0  0
  3  4  2  0  0  0  0
  3 31  1  0  0  0  0
  4  5  1  0  0  0  0
  4 32  1  0  0  0  0
  5  6  2  0  0  0  0
  5  8  1  0  0  0  0
  6  7  1  0  0  0  0
  6 33  1  0  0  0  0
  7 34  1  0  0  0  0
  8  9  2  0  0  0  0
  8 10  1  0  0  0  0
 10 35  1  0  0  0  0
 11 10  1  0  0  0  0
 11 12  1  0  0  0  0
 11 17  1  0  0  0  0
 11 28  1  6  0  0  0
 12 13  1  0  0  0  0
 12 18  1  0  0  0  0
 12 29  1  1  0  0  0
 13 14  1  0  0  0  0
 13 36  1  0  0  0  0
 13 37  1  0  0  0  0
 14 15  1  0  0  0  0
 14 38  1  0  0  0  0
 14 39  1  0  0  0  0
 15 16  1  0  0  0  0
 15 40  1  0  0  0  0
 15 41  1  0  0  0  0
 16 17  1  0  0  0  0
 16 42  1  0  0  0  0
 17 43  1  0  0  0  0
 17 44  1  0  0  0  0
 18 19  1  0  0  0  0
 19 20  2  0  0  0  0
 19 21  1  0  0  0  0
 21 22  1  0  0  0  0
 21 26  2  0  0  0  0
 22 23  2  0  0  0  0
 22 45  1  0  0  0  0
 23 24  1  0  0  0  0
 23 46  1  0  0  0  0
 24 25  2  0  0  0  0
 24 27  1  0  0  0  0
 25 26  1  0  0  0  0
 25 47  1  0  0  0  0
 26 48  1  0  0  0  0
 27 49  1  0  0  0  0
M  END
>  <DRUGBANK_ID>
DB02611

>  <SECONDARY_ACCESSION_NUMBERS>
EXPT00607

>  <COMMON_NAME>
Balanol Analog 1

$$$$
