
 OpenBabel10282417072D

 35 36  0  0  0  0  0  0  0  0999 V2000
    3.1354   -0.8250    0.0000 C   0  0  0  0  0  0  0  0  0  0  0  0
    2.4209    0.4125    0.0000 C   0  0  0  0  0  0  0  0  0  0  0  0
    0.9920    0.4125    0.0000 C   0  0  0  0  0  0  0  0  0  0  0  0
   -0.4369    0.4125    0.0000 C   0  0  0  0  0  0  0  0  0  0  0  0
   -1.1514    0.8250    0.0000 C   0  0  0  0  0  0  0  0  0  0  0  0
    0.2775   -0.8250    0.0000 C   0  0  0  0  0  0  0  0  0  0  0  0
   -1.1514   -0.8250    0.0000 C   0  0  0  0  0  0  0  0  0  0  0  0
   -3.1354    0.0000    0.0000 C   0  0  0  0  0  0  0  0  0  0  0  0
    2.4209   -0.4125    0.0000 C   0  0  0  0  0  0  0  0  0  0  0  0
    0.9920   -0.4125    0.0000 C   0  0  3  0  0  0  0  0  0  0  0  0
   -0.4369   -0.4125    0.0000 C   0  0  0  0  0  0  0  0  0  0  0  0
   -1.8658    0.4125    0.0000 C   0  0  0  0  0  0  0  0  0  0  0  0
   -1.8658   -0.4125    0.0000 C   0  0  0  0  0  0  0  0  0  0  0  0
    1.7064   -0.8250    0.0000 N   0  0  0  0  0  0  0  0  0  0  0  0
   -2.6504    0.6674    0.0000 O   0  0  0  0  0  0  0  0  0  0  0  0
   -2.6504   -0.6674    0.0000 O   0  0  0  0  0  0  0  0  0  0  0  0
    3.1354   -1.8950    0.0000 H   0  0  0  0  0  0  0  0  0  0  0  0
    4.0620   -0.2900    0.0000 H   0  0  0  0  0  0  0  0  0  0  0  0
    4.0621   -1.3600    0.0000 H   0  0  0  0  0  0  0  0  0  0  0  0
    3.3475    0.9475    0.0000 H   0  0  0  0  0  0  0  0  0  0  0  0
    1.4943    0.9475    0.0000 H   0  0  0  0  0  0  0  0  0  0  0  0
    2.4209    1.4825    0.0000 H   0  0  0  0  0  0  0  0  0  0  0  0
    1.9186    0.9475    0.0000 H   0  0  0  0  0  0  0  0  0  0  0  0
    0.0654    0.9475    0.0000 H   0  0  0  0  0  0  0  0  0  0  0  0
    0.9920    1.4825    0.0000 H   0  0  0  0  0  0  0  0  0  0  0  0
    0.4568    0.9285    0.0000 H   0  0  0  0  0  0  0  0  0  0  0  0
   -1.1514    1.8570    0.0000 H   0  0  0  0  0  0  0  0  0  0  0  0
    0.2775   -1.8950    0.0000 H   0  0  0  0  0  0  0  0  0  0  0  0
   -0.6492   -1.3600    0.0000 H   0  0  0  0  0  0  0  0  0  0  0  0
   -1.1514   -1.8570    0.0000 H   0  0  0  0  0  0  0  0  0  0  0  0
   -4.2054    0.0000    0.0000 H   0  0  0  0  0  0  0  0  0  0  0  0
   -3.6211   -0.9534    0.0000 H   0  0  0  0  0  0  0  0  0  0  0  0
    1.4943    0.1225    0.0000 H   0  0  0  0  0  0  0  0  0  0  0  0
    0.0654    0.1225    0.0000 H   0  0  0  0  0  0  0  0  0  0  0  0
    1.7064   -1.8450    0.0000 H   0  0  0  0  0  0  0  0  0  0  0  0
  1 17  1  0  0  0  0
  1 18  1  0  0  0  0
  1 19  1  0  0  0  0
  2 20  1  0  0  0  0
  2 21  1  0  0  0  0
  2 22  1  0  0  0  0
  3 23  1  0  0  0  0
  3 24  1  0  0  0  0
  3 25  1  0  0  0  0
  4 26  1  0  0  0  0
  5  4  2  0  0  0  0
  5 27  1  0  0  0  0
  6 28  1  0  0  0  0
  6 29  1  0  0  0  0
  7 30  1  0  0  0  0
  8 31  1  0  0  0  0
  8 32  1  0  0  0  0
  9  1  1  0  0  0  0
  9  2  1  0  0  0  0
  9 33  1  0  0  0  0
 10  3  1  0  0  0  0
 10  6  1  0  0  0  0
 10 34  1  0  0  0  0
 11  4  1  0  0  0  0
 11  6  1  0  0  0  0
 11  7  2  0  0  0  0
 12  5  1  0  0  0  0
 13  7  1  0  0  0  0
 13 12  2  0  0  0  0
 14  9  1  0  0  0  0
 14 10  1  0  0  0  0
 14 35  1  0  0  0  0
 15  8  1  0  0  0  0
 15 12  1  0  0  0  0
 16  8  1  0  0  0  0
 16 13  1  0  0  0  0
M  END
>  <DRUGBANK_ID>
DB06112

>  <COMMON_NAME>
3,4-Methylenedioxy-N-isopropylamphetamine

>  <CAS_NUMBER>
74698-37-6

>  <UNII>
307EH7224K

>  <SYNONYMS>
MDI-P; MDIP; MDIPA

$$$$
