
 OpenBabel10282417072D

 31 31  0  0  0  0  0  0  0  0999 V2000
   -1.0717   -2.6812    0.0000 Cl  0  0  0  0  0  0  0  0  0  0  0  0
   -0.3571    2.6812    0.0000 O   0  0  0  0  0  0  0  0  0  0  0  0
    0.4678    1.8562    0.0000 O   0  0  0  0  0  0  0  0  0  0  0  0
   -1.1821    1.8562    0.0000 O   0  0  0  0  0  0  0  0  0  0  0  0
    1.0717    1.8562    0.0000 O   0  0  0  0  0  0  0  0  0  0  0  0
    0.3572    0.6187    0.0000 N   0  0  0  0  0  0  0  0  0  0  0  0
   -0.3571    1.0312    0.0000 C   0  0  1  0  0  0  0  0  0  0  0  0
   -1.0717    0.6187    0.0000 C   0  0  0  0  0  0  0  0  0  0  0  0
   -1.0717   -0.2062    0.0000 C   0  0  0  0  0  0  0  0  0  0  0  0
   -0.3571   -0.6187    0.0000 C   0  0  0  0  0  0  0  0  0  0  0  0
   -1.7861   -0.6187    0.0000 C   0  0  0  0  0  0  0  0  0  0  0  0
    1.0717    1.0312    0.0000 C   0  0  0  0  0  0  0  0  0  0  0  0
   -0.3571   -1.4437    0.0000 C   0  0  0  0  0  0  0  0  0  0  0  0
   -1.7861   -1.4437    0.0000 C   0  0  0  0  0  0  0  0  0  0  0  0
   -1.0717   -1.8562    0.0000 C   0  0  0  0  0  0  0  0  0  0  0  0
    1.7861    0.6187    0.0000 C   0  0  0  0  0  0  0  0  0  0  0  0
   -0.3571    1.8562    0.0000 B   0  5  0  0  0  0  0  0  0  0  0  0
    0.3572    0.1072    0.0000 H   0  0  0  0  0  0  0  0  0  0  0  0
    0.4829    3.1662    0.0000 H   0  0  0  0  0  0  0  0  0  0  0  0
    0.9528    1.0162    0.0000 H   0  0  0  0  0  0  0  0  0  0  0  0
   -1.6671    2.6962    0.0000 H   0  0  0  0  0  0  0  0  0  0  0  0
   -0.3572   -0.0388    0.0000 H   0  0  0  0  0  0  0  0  0  0  0  0
   -1.9983    1.1537    0.0000 H   0  0  0  0  0  0  0  0  0  0  0  0
   -1.9984    0.0837    0.0000 H   0  0  0  0  0  0  0  0  0  0  0  0
    0.5366   -0.1027    0.0000 H   0  0  0  0  0  0  0  0  0  0  0  0
   -2.6798   -0.1027    0.0000 H   0  0  0  0  0  0  0  0  0  0  0  0
    0.5366   -1.9597    0.0000 H   0  0  0  0  0  0  0  0  0  0  0  0
   -2.6798   -1.9597    0.0000 H   0  0  0  0  0  0  0  0  0  0  0  0
    1.7861   -0.4513    0.0000 H   0  0  0  0  0  0  0  0  0  0  0  0
    2.7128    1.1537    0.0000 H   0  0  0  0  0  0  0  0  0  0  0  0
    2.7127    0.0837    0.0000 H   0  0  0  0  0  0  0  0  0  0  0  0
  1 15  1  0  0  0  0
  2 17  1  0  0  0  0
  2 19  1  0  0  0  0
  3 17  1  0  0  0  0
  3 20  1  0  0  0  0
  4 17  1  0  0  0  0
  4 21  1  0  0  0  0
  5 12  2  0  0  0  0
  6 12  1  0  0  0  0
  6 18  1  0  0  0  0
  7  6  1  0  0  0  0
  7  8  1  0  0  0  0
  7 17  1  0  0  0  0
  7 22  1  6  0  0  0
  8  9  1  0  0  0  0
  8 23  1  0  0  0  0
  8 24  1  0  0  0  0
  9 10  2  0  0  0  0
  9 11  1  0  0  0  0
 10 13  1  0  0  0  0
 10 25  1  0  0  0  0
 11 14  2  0  0  0  0
 11 26  1  0  0  0  0
 12 16  1  0  0  0  0
 13 15  2  0  0  0  0
 13 27  1  0  0  0  0
 14 15  1  0  0  0  0
 14 28  1  0  0  0  0
 16 29  1  0  0  0  0
 16 30  1  0  0  0  0
 16 31  1  0  0  0  0
M  CHG  1  17  -1
M  END
>  <DRUGBANK_ID>
DB08693

>  <COMMON_NAME>
L-1-(4-chlorophenyl)-2-(acetamido)ethane boronic acid

$$$$
