
 OpenBabel10282417072D

 43 46  0  0  0  0  0  0  0  0999 V2000
    3.9992    0.1853    0.0000 C   0  0  0  0  0  0  0  0  0  0  0  0
    2.5800    1.0270    0.0000 N   0  0  0  0  0  0  0  0  0  0  0  0
    3.2993    1.4312    0.0000 N   0  0  0  0  0  0  0  0  0  0  0  0
    4.0089    1.0104    0.0000 C   0  0  0  0  0  0  0  0  0  0  0  0
    4.7281    1.4144    0.0000 O   0  0  0  0  0  0  0  0  0  0  0  0
    2.5704    0.2020    0.0000 C   0  0  0  0  0  0  0  0  0  0  0  0
    1.8512   -0.2021    0.0000 C   0  0  0  0  0  0  0  0  0  0  0  0
    1.1223   -1.4312    0.0000 C   0  0  0  0  0  0  0  0  0  0  0  0
    1.8416   -1.0270    0.0000 C   0  0  0  0  0  0  0  0  0  0  0  0
    1.1416    0.2187    0.0000 C   0  0  0  0  0  0  0  0  0  0  0  0
    0.4223   -0.1854    0.0000 C   0  0  0  0  0  0  0  0  0  0  0  0
    0.4127   -1.0103    0.0000 C   0  0  0  0  0  0  0  0  0  0  0  0
   -0.3747   -1.2561    0.0000 N   0  0  0  0  0  0  0  0  0  0  0  0
   -0.3592    0.0786    0.0000 N   0  0  0  0  0  0  0  0  0  0  0  0
   -0.8518   -0.5830    0.0000 C   0  0  0  0  0  0  0  0  0  0  0  0
   -1.6768   -0.5734    0.0000 C   0  0  0  0  0  0  0  0  0  0  0  0
   -2.9225   -1.2734    0.0000 C   0  0  0  0  0  0  0  0  0  0  0  0
   -2.0976   -1.2830    0.0000 C   0  0  0  0  0  0  0  0  0  0  0  0
   -2.0809    0.1458    0.0000 C   0  0  0  0  0  0  0  0  0  0  0  0
   -2.9058    0.1554    0.0000 C   0  0  0  0  0  0  0  0  0  0  0  0
   -3.3266   -0.5542    0.0000 C   0  0  0  0  0  0  0  0  0  0  0  0
   -4.1516   -0.5445    0.0000 O   0  0  0  0  0  0  0  0  0  0  0  0
   -4.7281    0.0455    0.0000 C   0  0  0  0  0  0  0  0  0  0  0  0
    3.2800   -0.2187    0.0000 C   0  0  3  0  0  0  0  0  0  0  0  0
    3.2800   -1.0437    0.0000 C   0  0  0  0  0  0  0  0  0  0  0  0
    4.9195   -0.3606    0.0000 H   0  0  0  0  0  0  0  0  0  0  0  0
    4.9321    0.7094    0.0000 H   0  0  0  0  0  0  0  0  0  0  0  0
    3.3108    2.4156    0.0000 H   0  0  0  0  0  0  0  0  0  0  0  0
    1.1102   -2.4631    0.0000 H   0  0  0  0  0  0  0  0  0  0  0  0
    2.7293   -1.5534    0.0000 H   0  0  0  0  0  0  0  0  0  0  0  0
    1.1537    1.2506    0.0000 H   0  0  0  0  0  0  0  0  0  0  0  0
   -0.6898   -2.1888    0.0000 H   0  0  0  0  0  0  0  0  0  0  0  0
   -3.4489   -2.1611    0.0000 H   0  0  0  0  0  0  0  0  0  0  0  0
   -1.5920   -2.1827    0.0000 H   0  0  0  0  0  0  0  0  0  0  0  0
   -1.5545    1.0335    0.0000 H   0  0  0  0  0  0  0  0  0  0  0  0
   -3.4114    1.0551    0.0000 H   0  0  0  0  0  0  0  0  0  0  0  0
   -4.4392    1.0758    0.0000 H   0  0  0  0  0  0  0  0  0  0  0  0
   -5.7648   -0.2195    0.0000 H   0  0  0  0  0  0  0  0  0  0  0  0
   -5.4759    0.8108    0.0000 H   0  0  0  0  0  0  0  0  0  0  0  0
    3.2925    0.8512    0.0000 H   0  0  0  0  0  0  0  0  0  0  0  0
    2.3534   -1.5787    0.0000 H   0  0  0  0  0  0  0  0  0  0  0  0
    4.2066   -1.5787    0.0000 H   0  0  0  0  0  0  0  0  0  0  0  0
    3.2800   -2.1137    0.0000 H   0  0  0  0  0  0  0  0  0  0  0  0
  1  4  1  0  0  0  0
  1 26  1  0  0  0  0
  1 27  1  0  0  0  0
  2  6  2  0  0  0  0
  3  2  1  0  0  0  0
  3 28  1  0  0  0  0
  4  3  1  0  0  0  0
  4  5  2  0  0  0  0
  6  7  1  0  0  0  0
  7 10  1  0  0  0  0
  8  9  1  0  0  0  0
  8 12  2  0  0  0  0
  8 29  1  0  0  0  0
  9  7  2  0  0  0  0
  9 30  1  0  0  0  0
 10 11  2  0  0  0  0
 10 31  1  0  0  0  0
 11 14  1  0  0  0  0
 12 11  1  0  0  0  0
 13 12  1  0  0  0  0
 13 15  1  0  0  0  0
 13 32  1  0  0  0  0
 14 15  2  0  0  0  0
 15 16  1  0  0  0  0
 16 19  1  0  0  0  0
 17 18  1  0  0  0  0
 17 21  2  0  0  0  0
 17 33  1  0  0  0  0
 18 16  2  0  0  0  0
 18 34  1  0  0  0  0
 19 20  2  0  0  0  0
 19 35  1  0  0  0  0
 20 21  1  0  0  0  0
 20 36  1  0  0  0  0
 21 22  1  0  0  0  0
 22 23  1  0  0  0  0
 23 37  1  0  0  0  0
 23 38  1  0  0  0  0
 23 39  1  0  0  0  0
 24  1  1  0  0  0  0
 24  6  1  0  0  0  0
 24 25  1  0  0  0  0
 24 40  1  0  0  0  0
 25 41  1  0  0  0  0
 25 42  1  0  0  0  0
 25 43  1  0  0  0  0
M  END
>  <DRUGBANK_ID>
DB11450

>  <COMMON_NAME>
Pimobendan

>  <CAS_NUMBER>
74150-27-9

>  <UNII>
34AP3BBP9T

>  <SYNONYMS>
dl-Pimobendan; Pimobendan; Pimobendane; Pimobendanum

$$$$
