
 OpenBabel10282417072D

  7  6  0  0  0  0  0  0  0  0999 V2000
    0.0409    0.6186    0.0000 O   0  0  0  0  0  0  0  0  0  0  0  0
    0.7015   -0.6186    0.0000 O   0  0  0  0  0  0  0  0  0  0  0  0
    0.0409   -0.2064    0.0000 B   0  0  0  0  0  0  0  0  0  0  0  0
   -0.7015   -0.6186    0.0000 O   0  0  0  0  0  0  0  0  0  0  0  0
    0.8809    1.1036    0.0000 H   0  0  0  0  0  0  0  0  0  0  0  0
    0.6683   -1.5880    0.0000 H   0  0  0  0  0  0  0  0  0  0  0  0
   -1.5333   -0.1196    0.0000 H   0  0  0  0  0  0  0  0  0  0  0  0
  1  3  1  0  0  0  0
  1  5  1  0  0  0  0
  2  3  1  0  0  0  0
  2  6  1  0  0  0  0
  3  4  1  0  0  0  0
  4  7  1  0  0  0  0
M  END
>  <DRUGBANK_ID>
DB11326

>  <COMMON_NAME>
Boric acid

>  <CAS_NUMBER>
10043-35-3

>  <UNII>
R57ZHV85D4

>  <SYNONYMS>
ácido bórico; boracic acid; Boric acid; hydrogen borate; orthoboric acid

$$$$
