
 OpenBabel10282417072D

 41 44  0  0  0  0  0  0  0  0999 V2000
   -2.3755    5.5344    0.0000 C   0  0  0  0  0  0  0  0  0  0  0  0
    0.0000    0.0000    0.0000 C   0  0  0  0  0  0  0  0  0  0  0  0
    0.7145   -0.4125    0.0000 C   0  0  0  0  0  0  0  0  0  0  0  0
    0.0000    0.8250    0.0000 C   0  0  0  0  0  0  0  0  0  0  0  0
    1.4289    0.0000    0.0000 C   0  0  0  0  0  0  0  0  0  0  0  0
   -1.3395    3.8567    0.0000 C   0  0  0  0  0  0  0  0  0  0  0  0
   -1.8674    3.3586    0.0000 C   0  0  0  0  0  0  0  0  0  0  0  0
   -0.2690    4.8258    0.0000 C   0  0  0  0  0  0  0  0  0  0  0  0
   -0.5575    4.3667    0.0000 C   0  0  0  0  0  0  0  0  0  0  0  0
    1.7065    2.1307    0.0000 C   0  0  0  0  0  0  0  0  0  0  0  0
   -1.1741    4.6166    0.0000 C   0  0  1  0  0  0  0  0  0  0  0  0
   -1.5078    4.1637    0.0000 C   0  0  2  0  0  0  0  0  0  0  0  0
    0.0369    4.0553    0.0000 C   0  0  2  0  0  0  0  0  0  0  0  0
    0.7145    1.2375    0.0000 C   0  0  0  0  0  0  0  0  0  0  0  0
    0.8860    2.0445    0.0000 C   0  0  0  0  0  0  0  0  0  0  0  0
    1.4289    0.8250    0.0000 C   0  0  0  0  0  0  0  0  0  0  0  0
    0.3340    2.6576    0.0000 C   0  0  0  0  0  0  0  0  0  0  0  0
    2.0420    1.3770    0.0000 N   0  0  0  0  0  0  0  0  0  0  0  0
   -1.8142    4.9297    0.0000 N   0  0  0  0  0  0  0  0  0  0  0  0
   -0.4730    2.4860    0.0000 O   0  0  0  0  0  0  0  0  0  0  0  0
    0.5889    3.4422    0.0000 O   0  0  0  0  0  0  0  0  0  0  0  0
   -1.5275    5.3621    0.0000 H   0  0  0  0  0  0  0  0  0  0  0  0
   -2.2149    4.5887    0.0000 H   0  0  0  0  0  0  0  0  0  0  0  0
    0.7378    4.4903    0.0000 H   0  0  0  0  0  0  0  0  0  0  0  0
   -2.0603    6.5569    0.0000 H   0  0  0  0  0  0  0  0  0  0  0  0
   -3.4186    5.2961    0.0000 H   0  0  0  0  0  0  0  0  0  0  0  0
   -3.1034    6.3186    0.0000 H   0  0  0  0  0  0  0  0  0  0  0  0
   -0.8937   -0.5160    0.0000 H   0  0  0  0  0  0  0  0  0  0  0  0
    0.7145   -1.4445    0.0000 H   0  0  0  0  0  0  0  0  0  0  0  0
   -0.8937    1.3410    0.0000 H   0  0  0  0  0  0  0  0  0  0  0  0
    2.3226   -0.5160    0.0000 H   0  0  0  0  0  0  0  0  0  0  0  0
   -0.4080    3.3303    0.0000 H   0  0  0  0  0  0  0  0  0  0  0  0
   -0.3630    4.2940    0.0000 H   0  0  0  0  0  0  0  0  0  0  0  0
   -2.4867    2.4860    0.0000 H   0  0  0  0  0  0  0  0  0  0  0  0
   -2.7967    3.8890    0.0000 H   0  0  0  0  0  0  0  0  0  0  0  0
    0.2278    5.7735    0.0000 H   0  0  0  0  0  0  0  0  0  0  0  0
    0.7995    4.7697    0.0000 H   0  0  0  0  0  0  0  0  0  0  0  0
   -0.4124    5.4268    0.0000 H   0  0  0  0  0  0  0  0  0  0  0  0
    0.3935    4.8571    0.0000 H   0  0  0  0  0  0  0  0  0  0  0  0
    2.2226    3.0244    0.0000 H   0  0  0  0  0  0  0  0  0  0  0  0
    3.0050    1.1723    0.0000 H   0  0  0  0  0  0  0  0  0  0  0  0
  1 25  1  0  0  0  0
  1 26  1  0  0  0  0
  1 27  1  0  0  0  0
  2 28  1  0  0  0  0
  3  2  2  0  0  0  0
  3 29  1  0  0  0  0
  4  2  1  0  0  0  0
  4 30  1  0  0  0  0
  5  3  1  0  0  0  0
  5 31  1  0  0  0  0
  6 32  1  0  0  0  0
  6 33  1  0  0  0  0
  7  6  1  0  0  0  0
  7 34  1  0  0  0  0
  7 35  1  0  0  0  0
  8 36  1  0  0  0  0
  8 37  1  0  0  0  0
  9 38  1  0  0  0  0
  9 39  1  0  0  0  0
 10 40  1  0  0  0  0
 11  6  1  0  0  0  0
 11  8  1  0  0  0  0
 11 22  1  1  0  0  0
 12  7  1  0  0  0  0
 12  9  1  0  0  0  0
 12 23  1  6  0  0  0
 13  8  1  0  0  0  0
 13  9  1  0  0  0  0
 13 21  1  0  0  0  0
 13 24  1  6  0  0  0
 14  4  2  0  0  0  0
 15 10  2  0  0  0  0
 15 14  1  0  0  0  0
 16  5  2  0  0  0  0
 16 14  1  0  0  0  0
 17 15  1  0  0  0  0
 18 10  1  0  0  0  0
 18 16  1  0  0  0  0
 18 41  1  0  0  0  0
 19  1  1  0  0  0  0
 19 11  1  0  0  0  0
 19 12  1  0  0  0  0
 20 17  2  0  0  0  0
 21 17  1  0  0  0  0
M  END
>  <DRUGBANK_ID>
DB11699

>  <COMMON_NAME>
Tropisetron

>  <CAS_NUMBER>
89565-68-4

>  <UNII>
6I819NIK1W

>  <SYNONYMS>
Tropisetron

$$$$
