
 OpenBabel10282417072D

 70 74  0  0  0  0  0  0  0  0999 V2000
    5.9370    2.0792    0.0000 S   0  0  0  0  0  0  0  0  0  0  0  0
    3.7935    0.8417    0.0000 O   0  0  0  0  0  0  0  0  0  0  0  0
    6.3495    1.3647    0.0000 O   0  0  0  0  0  0  0  0  0  0  0  0
    5.5245    2.7937    0.0000 O   0  0  0  0  0  0  0  0  0  0  0  0
    3.7935   -0.8084    0.0000 O   0  0  0  0  0  0  0  0  0  0  0  0
    2.3645    1.6667    0.0000 O   0  0  0  0  0  0  0  0  0  0  0  0
    3.0791   -2.8709    0.0000 O   0  0  0  0  0  0  0  0  0  0  0  0
    5.2224    1.6667    0.0000 N   0  0  0  0  0  0  0  0  0  0  0  0
    7.3659    2.0792    0.0000 N   0  0  0  0  0  0  0  0  0  0  0  0
    5.9370    0.4292    0.0000 N   0  0  0  0  0  0  0  0  0  0  0  0
    5.2224   -0.8084    0.0000 N   0  0  0  0  0  0  0  0  0  0  0  0
    8.0804   -1.6334    0.0000 N   0  0  0  0  0  0  0  0  0  0  0  0
    8.0334   -3.3558    0.0000 N   0  0  0  0  0  0  0  0  0  0  0  0
    6.6985   -3.3558    0.0000 N   0  0  0  0  0  0  0  0  0  0  0  0
    7.7784   -4.1404    0.0000 N   0  0  0  0  0  0  0  0  0  0  0  0
    6.9534   -4.1404    0.0000 N   0  0  0  0  0  0  0  0  0  0  0  0
    8.7949    3.7292    0.0000 C   0  0  0  0  0  0  0  0  0  0  0  0
    8.0804    3.3167    0.0000 C   0  0  0  0  0  0  0  0  0  0  0  0
    8.7949    4.5543    0.0000 C   0  0  0  0  0  0  0  0  0  0  0  0
    9.5094    3.3167    0.0000 C   0  0  0  0  0  0  0  0  0  0  0  0
    6.6515    2.4917    0.0000 C   0  0  0  0  0  0  0  0  0  0  0  0
    7.3659    3.7292    0.0000 C   0  0  0  0  0  0  0  0  0  0  0  0
    8.0804    2.4917    0.0000 C   0  0  0  0  0  0  0  0  0  0  0  0
    6.6515    3.3167    0.0000 C   0  0  0  0  0  0  0  0  0  0  0  0
    5.2224    0.8417    0.0000 C   0  0  0  0  0  0  0  0  0  0  0  0
    4.5080    0.4292    0.0000 C   0  0  0  0  0  0  0  0  0  0  0  0
    4.5080   -0.3958    0.0000 C   0  0  0  0  0  0  0  0  0  0  0  0
    5.9370   -0.3958    0.0000 C   0  0  0  0  0  0  0  0  0  0  0  0
    6.6515   -0.8084    0.0000 C   0  0  0  0  0  0  0  0  0  0  0  0
    3.0791    0.4292    0.0000 C   0  0  0  0  0  0  0  0  0  0  0  0
    6.6515   -1.6334    0.0000 C   0  0  0  0  0  0  0  0  0  0  0  0
    7.3659   -0.3958    0.0000 C   0  0  0  0  0  0  0  0  0  0  0  0
    3.7935   -1.6334    0.0000 C   0  0  0  0  0  0  0  0  0  0  0  0
    2.3645    0.8417    0.0000 C   0  0  0  0  0  0  0  0  0  0  0  0
    7.3659   -2.0459    0.0000 C   0  0  0  0  0  0  0  0  0  0  0  0
    3.0791   -0.3958    0.0000 C   0  0  0  0  0  0  0  0  0  0  0  0
    8.0804   -0.8084    0.0000 C   0  0  0  0  0  0  0  0  0  0  0  0
    3.0791   -2.0459    0.0000 C   0  0  0  0  0  0  0  0  0  0  0  0
    1.6500    0.4292    0.0000 C   0  0  0  0  0  0  0  0  0  0  0  0
    2.3645   -0.8084    0.0000 C   0  0  0  0  0  0  0  0  0  0  0  0
    1.6500   -0.3958    0.0000 C   0  0  0  0  0  0  0  0  0  0  0  0
    7.3659   -2.8709    0.0000 C   0  0  0  0  0  0  0  0  0  0  0  0
    1.6500    2.0792    0.0000 C   0  0  0  0  0  0  0  0  0  0  0  0
    2.2391   -3.3559    0.0000 H   0  0  0  0  0  0  0  0  0  0  0  0
    4.3698    2.1590    0.0000 H   0  0  0  0  0  0  0  0  0  0  0  0
    8.3570   -4.9369    0.0000 H   0  0  0  0  0  0  0  0  0  0  0  0
    9.7215    4.2642    0.0000 H   0  0  0  0  0  0  0  0  0  0  0  0
    9.7215    5.0893    0.0000 H   0  0  0  0  0  0  0  0  0  0  0  0
    7.8683    5.0893    0.0000 H   0  0  0  0  0  0  0  0  0  0  0  0
    8.7949    5.6243    0.0000 H   0  0  0  0  0  0  0  0  0  0  0  0
    9.5094    2.2467    0.0000 H   0  0  0  0  0  0  0  0  0  0  0  0
   10.4360    3.8517    0.0000 H   0  0  0  0  0  0  0  0  0  0  0  0
   10.4361    2.7817    0.0000 H   0  0  0  0  0  0  0  0  0  0  0  0
    7.3659    4.7612    0.0000 H   0  0  0  0  0  0  0  0  0  0  0  0
    8.9741    1.9757    0.0000 H   0  0  0  0  0  0  0  0  0  0  0  0
    5.7578    3.8327    0.0000 H   0  0  0  0  0  0  0  0  0  0  0  0
    5.7578   -2.1494    0.0000 H   0  0  0  0  0  0  0  0  0  0  0  0
    7.3659    0.6362    0.0000 H   0  0  0  0  0  0  0  0  0  0  0  0
    4.7202   -2.1684    0.0000 H   0  0  0  0  0  0  0  0  0  0  0  0
    3.7935   -2.7034    0.0000 H   0  0  0  0  0  0  0  0  0  0  0  0
    3.9728   -0.9118    0.0000 H   0  0  0  0  0  0  0  0  0  0  0  0
    8.9742   -0.2924    0.0000 H   0  0  0  0  0  0  0  0  0  0  0  0
    2.1524   -1.5109    0.0000 H   0  0  0  0  0  0  0  0  0  0  0  0
    3.0791   -0.9759    0.0000 H   0  0  0  0  0  0  0  0  0  0  0  0
    0.7563    0.9452    0.0000 H   0  0  0  0  0  0  0  0  0  0  0  0
    2.3645   -1.8404    0.0000 H   0  0  0  0  0  0  0  0  0  0  0  0
    0.7562   -0.9118    0.0000 H   0  0  0  0  0  0  0  0  0  0  0  0
    1.6500    3.1492    0.0000 H   0  0  0  0  0  0  0  0  0  0  0  0
    0.7234    1.5442    0.0000 H   0  0  0  0  0  0  0  0  0  0  0  0
    0.7233    2.6142    0.0000 H   0  0  0  0  0  0  0  0  0  0  0  0
  1  3  2  0  0  0  0
  1  4  2  0  0  0  0
  1  8  1  0  0  0  0
  1 21  1  0  0  0  0
  2 26  1  0  0  0  0
  2 30  1  0  0  0  0
  5 27  1  0  0  0  0
  5 33  1  0  0  0  0
  6 34  1  0  0  0  0
  6 43  1  0  0  0  0
  7 38  1  0  0  0  0
  7 44  1  0  0  0  0
  8 25  1  0  0  0  0
  8 45  1  0  0  0  0
  9 21  2  0  0  0  0
  9 23  1  0  0  0  0
 10 25  1  0  0  0  0
 10 28  2  0  0  0  0
 11 27  2  0  0  0  0
 11 28  1  0  0  0  0
 12 35  2  0  0  0  0
 12 37  1  0  0  0  0
 13 15  1  0  0  0  0
 13 42  2  0  0  0  0
 14 16  2  0  0  0  0
 14 42  1  0  0  0  0
 15 16  1  0  0  0  0
 15 46  1  0  0  0  0
 17 18  1  0  0  0  0
 17 19  1  0  0  0  0
 17 20  1  0  0  0  0
 17 47  1  0  0  0  0
 18 22  1  0  0  0  0
 18 23  2  0  0  0  0
 19 48  1  0  0  0  0
 19 49  1  0  0  0  0
 19 50  1  0  0  0  0
 20 51  1  0  0  0  0
 20 52  1  0  0  0  0
 20 53  1  0  0  0  0
 21 24  1  0  0  0  0
 22 24  2  0  0  0  0
 22 54  1  0  0  0  0
 23 55  1  0  0  0  0
 24 56  1  0  0  0  0
 25 26  2  0  0  0  0
 26 27  1  0  0  0  0
 28 29  1  0  0  0  0
 29 31  2  0  0  0  0
 29 32  1  0  0  0  0
 30 34  1  0  0  0  0
 30 36  2  0  0  0  0
 31 35  1  0  0  0  0
 31 57  1  0  0  0  0
 32 37  2  0  0  0  0
 32 58  1  0  0  0  0
 33 38  1  0  0  0  0
 33 59  1  0  0  0  0
 33 60  1  0  0  0  0
 34 39  2  0  0  0  0
 35 42  1  0  0  0  0
 36 40  1  0  0  0  0
 36 61  1  0  0  0  0
 37 62  1  0  0  0  0
 38 63  1  0  0  0  0
 38 64  1  0  0  0  0
 39 41  1  0  0  0  0
 39 65  1  0  0  0  0
 40 41  2  0  0  0  0
 40 66  1  0  0  0  0
 41 67  1  0  0  0  0
 43 68  1  0  0  0  0
 43 69  1  0  0  0  0
 43 70  1  0  0  0  0
M  END
>  <DRUGBANK_ID>
DB06558

>  <COMMON_NAME>
Tezosentan

>  <CAS_NUMBER>
180384-57-0

>  <UNII>
64J9J55263

>  <SYNONYMS>
Tezosentan

$$$$
