
 OpenBabel10282417072D

 16 17  0  0  0  0  0  0  0  0999 V2000
    2.3369   -0.1567    0.0000 I   0  0  0  0  0  0  0  0  0  0  0  0
   -0.4648    1.4933    0.0000 O   0  0  0  0  0  0  0  0  0  0  0  0
   -0.4648   -0.9818    0.0000 N   0  0  0  0  0  0  0  0  0  0  0  0
    1.0303    0.5071    0.0000 N   0  0  0  0  0  0  0  0  0  0  0  0
    1.0303   -0.8207    0.0000 N   0  0  0  0  0  0  0  0  0  0  0  0
   -1.1793    0.2557    0.0000 N   0  0  0  0  0  0  0  0  0  0  0  0
   -1.8938   -0.9818    0.0000 N   0  0  0  0  0  0  0  0  0  0  0  0
    0.2496    0.2557    0.0000 C   0  0  0  0  0  0  0  0  0  0  0  0
    0.2496   -0.5692    0.0000 C   0  0  0  0  0  0  0  0  0  0  0  0
   -0.4648    0.6682    0.0000 C   0  0  0  0  0  0  0  0  0  0  0  0
   -1.1793   -0.5692    0.0000 C   0  0  0  0  0  0  0  0  0  0  0  0
    1.5118   -0.1567    0.0000 C   0  0  0  0  0  0  0  0  0  0  0  0
   -0.4648   -1.9663    0.0000 H   0  0  0  0  0  0  0  0  0  0  0  0
    1.3361    1.4429    0.0000 H   0  0  0  0  0  0  0  0  0  0  0  0
   -2.7464   -0.4896    0.0000 H   0  0  0  0  0  0  0  0  0  0  0  0
   -1.8937   -1.9663    0.0000 H   0  0  0  0  0  0  0  0  0  0  0  0
  1 12  1  0  0  0  0
  2 10  2  0  0  0  0
  3  9  1  0  0  0  0
  3 11  1  0  0  0  0
  3 13  1  0  0  0  0
  4  8  1  0  0  0  0
  4 12  1  0  0  0  0
  4 14  1  0  0  0  0
  5  9  1  0  0  0  0
  5 12  2  0  0  0  0
  6 10  1  0  0  0  0
  6 11  2  0  0  0  0
  7 11  1  0  0  0  0
  7 15  1  0  0  0  0
  7 16  1  0  0  0  0
  8  9  2  0  0  0  0
  8 10  1  0  0  0  0
M  END
>  <DRUGBANK_ID>
DB02985

>  <SECONDARY_ACCESSION_NUMBERS>
EXPT00334

>  <COMMON_NAME>
8-iodo-guanine

$$$$
