
 OpenBabel10282417072D

 37 34  0  0  1  0  0  0  0  0999 V2000
   -2.1434   -0.4875    0.0000 C   0  0  0  0  0  0  0  0  0  0  0  0
   -1.4289   -0.0750    0.0000 C   0  0  0  0  0  0  0  0  0  0  0  0
   -1.4289    0.7500    0.0000 O   0  0  0  0  0  0  0  0  0  0  0  0
   -0.7145   -0.4875    0.0000 N   0  0  0  0  0  0  0  0  0  0  0  0
    0.0000   -0.0750    0.0000 C   0  0  1  0  0  0  0  0  0  0  0  0
    0.0000    0.7500    0.0000 C   0  0  0  0  0  0  0  0  0  0  0  0
    0.7145    1.1625    0.0000 S   0  0  0  0  0  0  0  0  0  0  0  0
    0.7145   -0.4875    0.0000 C   0  0  0  0  0  0  0  0  0  0  0  0
    0.7145   -1.3125    0.0000 O   0  0  0  0  0  0  0  0  0  0  0  0
    1.4289   -0.0750    0.0000 O   0  5  0  0  0  0  0  0  0  0  0  0
    4.5006    1.1963    0.0000 C   0  0  0  0  0  0  0  0  0  0  0  0
    5.2150    0.7837    0.0000 C   0  0  0  0  0  0  0  0  0  0  0  0
    5.9295    1.1963    0.0000 O   0  0  0  0  0  0  0  0  0  0  0  0
    5.2150   -0.0413    0.0000 N   0  0  0  0  0  0  0  0  0  0  0  0
    5.9295   -0.4538    0.0000 C   0  0  1  0  0  0  0  0  0  0  0  0
    5.9295   -1.2788    0.0000 C   0  0  0  0  0  0  0  0  0  0  0  0
    6.6440   -1.6913    0.0000 S   0  0  0  0  0  0  0  0  0  0  0  0
    6.6440   -0.0412    0.0000 C   0  0  0  0  0  0  0  0  0  0  0  0
    6.6440    0.7838    0.0000 O   0  0  0  0  0  0  0  0  0  0  0  0
    7.3584   -0.4538    0.0000 O   0  5  0  0  0  0  0  0  0  0  0  0
    2.1434    0.3375    0.0000 Zn  0  2  0  0  0  0  0  0  0  0  0  0
   -3.0700    0.0475    0.0000 H   0  0  0  0  0  0  0  0  0  0  0  0
   -2.1434   -1.5575    0.0000 H   0  0  0  0  0  0  0  0  0  0  0  0
   -3.0701   -1.0225    0.0000 H   0  0  0  0  0  0  0  0  0  0  0  0
   -0.7145   -1.4720    0.0000 H   0  0  0  0  0  0  0  0  0  0  0  0
   -0.9266    0.4600    0.0000 H   0  0  0  0  0  0  0  0  0  0  0  0
   -0.9266    1.2850    0.0000 H   0  0  0  0  0  0  0  0  0  0  0  0
    0.0000    1.8200    0.0000 H   0  0  0  0  0  0  0  0  0  0  0  0
    1.8923    0.4825    0.0000 H   0  0  0  0  0  0  0  0  0  0  0  0
    4.5008    2.2663    0.0000 H   0  0  0  0  0  0  0  0  0  0  0  0
    3.5739    0.6614    0.0000 H   0  0  0  0  0  0  0  0  0  0  0  0
    3.5740    1.7314    0.0000 H   0  0  0  0  0  0  0  0  0  0  0  0
    4.3624   -0.5336    0.0000 H   0  0  0  0  0  0  0  0  0  0  0  0
    5.0029   -0.9888    0.0000 H   0  0  0  0  0  0  0  0  0  0  0  0
    5.0029   -1.8138    0.0000 H   0  0  0  0  0  0  0  0  0  0  0  0
    5.9295   -2.3488    0.0000 H   0  0  0  0  0  0  0  0  0  0  0  0
    6.6440   -3.0513    0.0000 H   0  0  0  0  0  0  0  0  0  0  0  0
  1  2  1  0  0  0  0
  1 22  1  0  0  0  0
  1 23  1  0  0  0  0
  1 24  1  0  0  0  0
  2  3  2  0  0  0  0
  2  4  1  0  0  0  0
  4 25  1  0  0  0  0
  5  4  1  0  0  0  0
  5  6  1  0  0  0  0
  5  8  1  0  0  0  0
  5 26  1  6  0  0  0
  6  7  1  0  0  0  0
  6 27  1  0  0  0  0
  6 28  1  0  0  0  0
  7 29  1  0  0  0  0
  8  9  2  0  0  0  0
  8 10  1  0  0  0  0
 11 12  1  0  0  0  0
 11 30  1  0  0  0  0
 11 31  1  0  0  0  0
 11 32  1  0  0  0  0
 12 13  2  0  0  0  0
 12 14  1  0  0  0  0
 14 33  1  0  0  0  0
 15 14  1  0  0  0  0
 15 16  1  0  0  0  0
 15 18  1  0  0  0  0
 15 34  1  1  0  0  0
 16 17  1  0  0  0  0
 16 35  1  0  0  0  0
 16 36  1  0  0  0  0
 17 37  1  0  0  0  0
 18 19  2  0  0  0  0
 18 20  1  0  0  0  0
M  CHG  3  10  -1  20  -1  21   2
M  END
>  <DRUGBANK_ID>
DB14479

>  <SECONDARY_ACCESSION_NUMBERS>
DBSALT001548

>  <COMMON_NAME>
Acetylcysteine zinc

>  <CAS_NUMBER>
49793-39-7

>  <UNII>
LP811J9FA1

>  <SYNONYMS>
N-acetyl-L-cysteine zinc salt; Zinc acetylcysteine

$$$$
