
 OpenBabel10282417072D

119118  0  0  0  0  0  0  0  0999 V2000
    7.7991   -0.4389    0.0000 O   0  0  0  0  0  0  0  0  0  0  0  0
    8.2228   -3.0549    0.0000 O   0  0  0  0  0  0  0  0  0  0  0  0
    7.8103   -3.7694    0.0000 Al  0  0  0  0  0  0  0  0  0  0  0  0
    8.2228   -4.4839    0.0000 O   0  0  0  0  0  0  0  0  0  0  0  0
    6.9853   -3.7694    0.0000 O   0  0  0  0  0  0  0  0  0  0  0  0
   -3.0578   -4.7876    0.0000 O   0  0  0  0  0  0  0  0  0  0  0  0
   -2.7223   -5.5412    0.0000 Al  0  0  0  0  0  0  0  0  0  0  0  0
   -3.2072   -6.2087    0.0000 O   0  0  0  0  0  0  0  0  0  0  0  0
   -1.9018   -5.6275    0.0000 O   0  0  0  0  0  0  0  0  0  0  0  0
   -1.4169   -4.9600    0.0000 S   0  0  0  0  0  0  0  0  0  0  0  0
   -0.7494   -5.4450    0.0000 O   0  0  0  0  0  0  0  0  0  0  0  0
   -2.0843   -4.4751    0.0000 O   0  0  0  0  0  0  0  0  0  0  0  0
   -0.9320   -4.2925    0.0000 O   0  0  0  0  0  0  0  0  0  0  0  0
   -0.1115   -4.3788    0.0000 C   0  0  0  0  0  0  0  0  0  0  0  0
    0.3733   -3.7114    0.0000 C   0  0  1  0  0  0  0  0  0  0  0  0
    0.1184   -2.9268    0.0000 O   0  0  0  0  0  0  0  0  0  0  0  0
    0.7858   -2.4418    0.0000 C   0  0  1  0  0  0  0  0  0  0  0  0
    0.2338   -1.8287    0.0000 C   0  0  0  0  0  0  0  0  0  0  0  0
   -0.5731   -2.0003    0.0000 O   0  0  0  0  0  0  0  0  0  0  0  0
   -1.1251   -1.3872    0.0000 S   0  0  0  0  0  0  0  0  0  0  0  0
   -0.5120   -0.8351    0.0000 O   0  0  0  0  0  0  0  0  0  0  0  0
   -1.6771   -0.7741    0.0000 O   0  0  0  0  0  0  0  0  0  0  0  0
   -1.7382   -1.9392    0.0000 O   0  0  0  0  0  0  0  0  0  0  0  0
   -1.5667   -2.7462    0.0000 Al  0  0  0  0  0  0  0  0  0  0  0  0
   -0.7820   -3.0011    0.0000 O   0  0  0  0  0  0  0  0  0  0  0  0
   -2.1798   -3.2982    0.0000 O   0  0  0  0  0  0  0  0  0  0  0  0
    1.3378   -1.8287    0.0000 O   0  0  0  0  0  0  0  0  0  0  0  0
    1.0829   -1.0441    0.0000 C   0  0  1  0  0  0  0  0  0  0  0  0
    0.2760   -0.8726    0.0000 O   0  0  0  0  0  0  0  0  0  0  0  0
    0.0210   -0.0880    0.0000 C   0  0  2  0  0  0  0  0  0  0  0  0
   -0.7858    0.0835    0.0000 C   0  0  0  0  0  0  0  0  0  0  0  0
   -1.3378   -0.5295    0.0000 O   0  0  0  0  0  0  0  0  0  0  0  0
   -2.1448   -0.3580    0.0000 S   0  0  0  0  0  0  0  0  0  0  0  0
   -1.9733    0.4489    0.0000 O   0  0  0  0  0  0  0  0  0  0  0  0
   -2.3163   -1.1649    0.0000 O   0  0  0  0  0  0  0  0  0  0  0  0
   -2.9518   -0.1865    0.0000 O   0  0  0  0  0  0  0  0  0  0  0  0
   -3.5039   -0.7996    0.0000 Al  0  0  0  0  0  0  0  0  0  0  0  0
   -3.2489   -1.5842    0.0000 O   0  0  0  0  0  0  0  0  0  0  0  0
   -4.3108   -0.6281    0.0000 O   0  0  0  0  0  0  0  0  0  0  0  0
    0.5731    0.5250    0.0000 C   0  0  1  0  0  0  0  0  0  0  0  0
    0.3181    1.3096    0.0000 O   0  0  0  0  0  0  0  0  0  0  0  0
   -0.4888    1.4812    0.0000 S   0  0  0  0  0  0  0  0  0  0  0  0
   -1.2957    1.6527    0.0000 O   0  0  0  0  0  0  0  0  0  0  0  0
   -0.6603    0.6742    0.0000 O   0  0  0  0  0  0  0  0  0  0  0  0
   -0.3172    2.2881    0.0000 O   0  0  0  0  0  0  0  0  0  0  0  0
   -0.9303    2.8402    0.0000 Al  0  0  0  0  0  0  0  0  0  0  0  0
   -1.7149    2.5852    0.0000 O   0  0  0  0  0  0  0  0  0  0  0  0
   -0.7588    3.6471    0.0000 O   0  0  0  0  0  0  0  0  0  0  0  0
    1.3799    0.3535    0.0000 C   0  0  2  0  0  0  0  0  0  0  0  0
    1.9321    0.9666    0.0000 O   0  0  0  0  0  0  0  0  0  0  0  0
    2.7390    0.7951    0.0000 S   0  0  0  0  0  0  0  0  0  0  0  0
    2.5675   -0.0117    0.0000 O   0  0  0  0  0  0  0  0  0  0  0  0
    3.5460    0.6235    0.0000 O   0  0  0  0  0  0  0  0  0  0  0  0
    2.9106    1.6020    0.0000 O   0  0  0  0  0  0  0  0  0  0  0  0
    3.6952    1.8570    0.0000 Al  0  0  0  0  0  0  0  0  0  0  0  0
    3.8667    2.6639    0.0000 O   0  0  0  0  0  0  0  0  0  0  0  0
    4.3083    1.3049    0.0000 O   0  0  0  0  0  0  0  0  0  0  0  0
    1.6350   -0.4310    0.0000 C   0  0  1  0  0  0  0  0  0  0  0  0
    2.4419   -0.6026    0.0000 O   0  0  0  0  0  0  0  0  0  0  0  0
    2.6969   -1.3872    0.0000 S   0  0  0  0  0  0  0  0  0  0  0  0
    3.4815   -1.1322    0.0000 O   0  0  0  0  0  0  0  0  0  0  0  0
    1.9123   -1.6421    0.0000 O   0  0  0  0  0  0  0  0  0  0  0  0
    2.9518   -2.1718    0.0000 O   0  0  0  0  0  0  0  0  0  0  0  0
    3.7588   -2.3433    0.0000 Al  0  0  0  0  0  0  0  0  0  0  0  0
    4.3108   -1.7302    0.0000 O   0  0  0  0  0  0  0  0  0  0  0  0
    4.0137   -3.1279    0.0000 O   0  0  0  0  0  0  0  0  0  0  0  0
    1.4533   -2.9268    0.0000 C   0  0  1  0  0  0  0  0  0  0  0  0
    2.2378   -2.6718    0.0000 O   0  0  0  0  0  0  0  0  0  0  0  0
    2.8510   -3.2239    0.0000 S   0  0  0  0  0  0  0  0  0  0  0  0
    3.4030   -2.6107    0.0000 O   0  0  0  0  0  0  0  0  0  0  0  0
    2.2990   -3.8370    0.0000 O   0  0  0  0  0  0  0  0  0  0  0  0
    3.4641   -3.7759    0.0000 O   0  0  0  0  0  0  0  0  0  0  0  0
    3.2926   -4.5829    0.0000 Al  0  0  0  0  0  0  0  0  0  0  0  0
    3.9057   -5.1349    0.0000 O   0  0  0  0  0  0  0  0  0  0  0  0
    2.5078   -4.8378    0.0000 O   0  0  0  0  0  0  0  0  0  0  0  0
    1.1983   -3.7114    0.0000 C   0  0  2  0  0  0  0  0  0  0  0  0
    1.6832   -4.3788    0.0000 O   0  0  0  0  0  0  0  0  0  0  0  0
    1.3476   -5.1325    0.0000 S   0  0  0  0  0  0  0  0  0  0  0  0
    2.1014   -5.4681    0.0000 O   0  0  0  0  0  0  0  0  0  0  0  0
    0.5940   -4.7969    0.0000 O   0  0  0  0  0  0  0  0  0  0  0  0
    1.0122   -5.8862    0.0000 O   0  0  0  0  0  0  0  0  0  0  0  0
    0.1917   -5.9724    0.0000 Al  0  0  0  0  0  0  0  0  0  0  0  0
   -0.1438   -6.7261    0.0000 O   0  0  0  0  0  0  0  0  0  0  0  0
   -0.2932   -5.3050    0.0000 O   0  0  0  0  0  0  0  0  0  0  0  0
    8.7691   -0.4389    0.0000 H   0  0  0  0  0  0  0  0  0  0  0  0
    7.3141    0.4011    0.0000 H   0  0  0  0  0  0  0  0  0  0  0  0
    9.1928   -3.0549    0.0000 H   0  0  0  0  0  0  0  0  0  0  0  0
    7.7378   -5.3239    0.0000 H   0  0  0  0  0  0  0  0  0  0  0  0
    6.5003   -2.9294    0.0000 H   0  0  0  0  0  0  0  0  0  0  0  0
   -2.4876   -4.0029    0.0000 H   0  0  0  0  0  0  0  0  0  0  0  0
   -4.1719   -6.1074    0.0000 H   0  0  0  0  0  0  0  0  0  0  0  0
    0.3237   -5.3563    0.0000 H   0  0  0  0  0  0  0  0  0  0  0  0
    0.9526   -4.4906    0.0000 H   0  0  0  0  0  0  0  0  0  0  0  0
   -0.6835   -3.5440    0.0000 H   0  0  0  0  0  0  0  0  0  0  0  0
    0.5644   -0.8111    0.0000 H   0  0  0  0  0  0  0  0  0  0  0  0
   -0.4822   -1.0336    0.0000 H   0  0  0  0  0  0  0  0  0  0  0  0
   -0.5803   -3.9499    0.0000 H   0  0  0  0  0  0  0  0  0  0  0  0
   -3.1023   -2.9984    0.0000 H   0  0  0  0  0  0  0  0  0  0  0  0
    0.3669   -1.8393    0.0000 H   0  0  0  0  0  0  0  0  0  0  0  0
   -0.6949   -0.8832    0.0000 H   0  0  0  0  0  0  0  0  0  0  0  0
   -1.1164    1.1011    0.0000 H   0  0  0  0  0  0  0  0  0  0  0  0
   -1.8324    0.3060    0.0000 H   0  0  0  0  0  0  0  0  0  0  0  0
   -3.8979   -2.3051    0.0000 H   0  0  0  0  0  0  0  0  0  0  0  0
   -4.6106    0.2944    0.0000 H   0  0  0  0  0  0  0  0  0  0  0  0
   -0.4735    0.7475    0.0000 H   0  0  0  0  0  0  0  0  0  0  0  0
   -2.4358    3.2342    0.0000 H   0  0  0  0  0  0  0  0  0  0  0  0
    0.1637    3.9469    0.0000 H   0  0  0  0  0  0  0  0  0  0  0  0
    1.0493    1.3712    0.0000 H   0  0  0  0  0  0  0  0  0  0  0  0
    4.7892    2.9637    0.0000 H   0  0  0  0  0  0  0  0  0  0  0  0
    4.1066    0.3561    0.0000 H   0  0  0  0  0  0  0  0  0  0  0  0
    2.3509    0.3642    0.0000 H   0  0  0  0  0  0  0  0  0  0  0  0
    5.2596   -1.9318    0.0000 H   0  0  0  0  0  0  0  0  0  0  0  0
    3.3646   -3.8487    0.0000 H   0  0  0  0  0  0  0  0  0  0  0  0
    1.6206   -1.8700    0.0000 H   0  0  0  0  0  0  0  0  0  0  0  0
    3.7041   -6.0837    0.0000 H   0  0  0  0  0  0  0  0  0  0  0  0
    1.7870   -4.1887    0.0000 H   0  0  0  0  0  0  0  0  0  0  0  0
    2.2551   -3.5441    0.0000 H   0  0  0  0  0  0  0  0  0  0  0  0
   -1.1085   -6.8276    0.0000 H   0  0  0  0  0  0  0  0  0  0  0  0
    0.1013   -4.4189    0.0000 H   0  0  0  0  0  0  0  0  0  0  0  0
  1 85  1  0  0  0  0
  1 86  1  0  0  0  0
  2  3  1  0  0  0  0
  2 87  1  0  0  0  0
  3  4  1  0  0  0  0
  3  5  1  0  0  0  0
  4 88  1  0  0  0  0
  5 89  1  0  0  0  0
  6  7  1  0  0  0  0
  6 90  1  0  0  0  0
  7  8  1  0  0  0  0
  7  9  1  0  0  0  0
  8 91  1  0  0  0  0
  9 10  1  0  0  0  0
 10 11  2  0  0  0  0
 10 12  2  0  0  0  0
 10 13  1  0  0  0  0
 13 14  1  0  0  0  0
 14 92  1  0  0  0  0
 14 93  1  0  0  0  0
 15 14  1  0  0  0  0
 15 16  1  0  0  0  0
 15 94  1  6  0  0  0
 17 16  1  0  0  0  0
 17 18  1  0  0  0  0
 17 27  1  1  0  0  0
 18 19  1  0  0  0  0
 18 95  1  0  0  0  0
 18 96  1  0  0  0  0
 19 20  1  0  0  0  0
 20 21  2  0  0  0  0
 20 22  2  0  0  0  0
 20 23  1  0  0  0  0
 23 24  1  0  0  0  0
 24 25  1  0  0  0  0
 24 26  1  0  0  0  0
 25 97  1  0  0  0  0
 26 98  1  0  0  0  0
 28 27  1  0  0  0  0
 28 29  1  0  0  0  0
 28 99  1  6  0  0  0
 30 29  1  0  0  0  0
 30 31  1  0  0  0  0
 30100  1  1  0  0  0
 31 32  1  0  0  0  0
 31101  1  0  0  0  0
 31102  1  0  0  0  0
 32 33  1  0  0  0  0
 33 34  2  0  0  0  0
 33 35  2  0  0  0  0
 33 36  1  0  0  0  0
 36 37  1  0  0  0  0
 37 38  1  0  0  0  0
 37 39  1  0  0  0  0
 38103  1  0  0  0  0
 39104  1  0  0  0  0
 40 30  1  0  0  0  0
 40 41  1  0  0  0  0
 40 49  1  0  0  0  0
 40105  1  6  0  0  0
 41 42  1  0  0  0  0
 42 43  2  0  0  0  0
 42 44  2  0  0  0  0
 42 45  1  0  0  0  0
 45 46  1  0  0  0  0
 46 47  1  0  0  0  0
 46 48  1  0  0  0  0
 47106  1  0  0  0  0
 48107  1  0  0  0  0
 49 50  1  0  0  0  0
 49 58  1  0  0  0  0
 49108  1  1  0  0  0
 50 51  1  0  0  0  0
 51 52  2  0  0  0  0
 51 53  2  0  0  0  0
 51 54  1  0  0  0  0
 54 55  1  0  0  0  0
 55 56  1  0  0  0  0
 55 57  1  0  0  0  0
 56109  1  0  0  0  0
 57110  1  0  0  0  0
 58 28  1  0  0  0  0
 58 59  1  0  0  0  0
 58111  1  6  0  0  0
 59 60  1  0  0  0  0
 60 61  2  0  0  0  0
 60 62  2  0  0  0  0
 60 63  1  0  0  0  0
 63 64  1  0  0  0  0
 64 65  1  0  0  0  0
 64 66  1  0  0  0  0
 65112  1  0  0  0  0
 66113  1  0  0  0  0
 67 17  1  0  0  0  0
 67 68  1  0  0  0  0
 67 76  1  0  0  0  0
 67114  1  6  0  0  0
 68 69  1  0  0  0  0
 69 70  2  0  0  0  0
 69 71  2  0  0  0  0
 69 72  1  0  0  0  0
 72 73  1  0  0  0  0
 73 74  1  0  0  0  0
 73 75  1  0  0  0  0
 74115  1  0  0  0  0
 75116  1  0  0  0  0
 76 15  1  0  0  0  0
 76 77  1  0  0  0  0
 76117  1  1  0  0  0
 77 78  1  0  0  0  0
 78 79  2  0  0  0  0
 78 80  2  0  0  0  0
 78 81  1  0  0  0  0
 81 82  1  0  0  0  0
 82 83  1  0  0  0  0
 82 84  1  0  0  0  0
 83118  1  0  0  0  0
 84119  1  0  0  0  0
M  END
>  <DRUGBANK_ID>
DB00364

>  <SECONDARY_ACCESSION_NUMBERS>
APRD01238

>  <COMMON_NAME>
Sucralfate

>  <CAS_NUMBER>
54182-58-0

>  <UNII>
XX73205DH5

>  <SYNONYMS>
Hexadeca-μ-hydroxytetracosahydroxy[μ8-[1,3,4,6-tetra-O-sulfo-β-Dfructofuranosyl-α-D-glucopyranoside tetrakis(hydrogen sulfato)8-)]]hexadecaaluminum; Sucralfat; Sucralfate; Sucralfato; Sucralfatum

$$$$
