
 OpenBabel10282417072D

 32 31  0  0  0  0  0  0  0  0999 V2000
   -0.0017    0.8252    0.0000 C   0  0  0  0  0  0  0  0  0  0  0  0
   -0.7161    0.4124    0.0000 C   0  0  0  0  0  0  0  0  0  0  0  0
   -0.7158   -0.4125    0.0000 C   0  0  0  0  0  0  0  0  0  0  0  0
    0.7128   -0.4120    0.0000 C   0  0  0  0  0  0  0  0  0  0  0  0
   -0.0013   -0.8246    0.0000 C   0  0  0  0  0  0  0  0  0  0  0  0
   -1.4308    0.8245    0.0000 C   0  0  0  0  0  0  0  0  0  0  0  0
   -2.1450    0.4119    0.0000 C   0  0  0  0  0  0  0  0  0  0  0  0
   -1.4301   -0.8252    0.0000 C   0  0  0  0  0  0  0  0  0  0  0  0
   -2.1448   -0.4131    0.0000 C   0  0  0  0  0  0  0  0  0  0  0  0
    0.7128    0.4068    0.0000 O   0  0  0  0  0  0  0  0  0  0  0  0
    1.4275   -0.8242    0.0000 O   0  0  0  0  0  0  0  0  0  0  0  0
    2.1450   -0.4161    0.0000 C   0  0  0  0  0  0  0  0  0  0  0  0
    0.9251    0.2905    0.0000 H   0  0  0  0  0  0  0  0  0  0  0  0
   -0.0021    1.8952    0.0000 H   0  0  0  0  0  0  0  0  0  0  0  0
    0.9248    1.3605    0.0000 H   0  0  0  0  0  0  0  0  0  0  0  0
   -0.7156   -0.6576    0.0000 H   0  0  0  0  0  0  0  0  0  0  0  0
   -1.6425   -0.1231    0.0000 H   0  0  0  0  0  0  0  0  0  0  0  0
   -0.7162    0.6575    0.0000 H   0  0  0  0  0  0  0  0  0  0  0  0
   -1.6426    0.1222    0.0000 H   0  0  0  0  0  0  0  0  0  0  0  0
   -0.0009   -1.8946    0.0000 H   0  0  0  0  0  0  0  0  0  0  0  0
    0.9255   -1.3593    0.0000 H   0  0  0  0  0  0  0  0  0  0  0  0
   -1.4312    1.8945    0.0000 H   0  0  0  0  0  0  0  0  0  0  0  0
   -2.3576    1.3592    0.0000 H   0  0  0  0  0  0  0  0  0  0  0  0
   -3.0718    0.9467    0.0000 H   0  0  0  0  0  0  0  0  0  0  0  0
   -3.0715   -0.1233    0.0000 H   0  0  0  0  0  0  0  0  0  0  0  0
   -1.4296   -1.8952    0.0000 H   0  0  0  0  0  0  0  0  0  0  0  0
   -2.3565   -1.3607    0.0000 H   0  0  0  0  0  0  0  0  0  0  0  0
   -3.0712   -0.9485    0.0000 H   0  0  0  0  0  0  0  0  0  0  0  0
   -2.1443   -1.4831    0.0000 H   0  0  0  0  0  0  0  0  0  0  0  0
    3.0682   -0.9571    0.0000 H   0  0  0  0  0  0  0  0  0  0  0  0
    2.1519    0.6539    0.0000 H   0  0  0  0  0  0  0  0  0  0  0  0
    3.0751    0.1129    0.0000 H   0  0  0  0  0  0  0  0  0  0  0  0
  1 13  1  0  0  0  0
  1 14  1  0  0  0  0
  1 15  1  0  0  0  0
  2  1  1  0  0  0  0
  2 16  1  0  0  0  0
  2 17  1  0  0  0  0
  3 18  1  0  0  0  0
  3 19  1  0  0  0  0
  4 11  1  0  0  0  0
  5  3  1  0  0  0  0
  5  4  1  0  0  0  0
  5 20  1  0  0  0  0
  5 21  1  0  0  0  0
  6  2  1  0  0  0  0
  6 22  1  0  0  0  0
  6 23  1  0  0  0  0
  7  6  1  0  0  0  0
  7 24  1  0  0  0  0
  7 25  1  0  0  0  0
  8  3  1  0  0  0  0
  8 26  1  0  0  0  0
  8 27  1  0  0  0  0
  9  7  1  0  0  0  0
  9  8  1  0  0  0  0
  9 28  1  0  0  0  0
  9 29  1  0  0  0  0
 10  4  2  0  0  0  0
 11 12  1  0  0  0  0
 12 30  1  0  0  0  0
 12 31  1  0  0  0  0
 12 32  1  0  0  0  0
M  END
>  <DRUGBANK_ID>
DB01631

>  <SECONDARY_ACCESSION_NUMBERS>
EXPT02376

>  <COMMON_NAME>
Methyl nonanoate

>  <CAS_NUMBER>
1731-84-6

>  <UNII>
7XKD6QOH68

>  <SYNONYMS>
Methyl ester nonanoic acid; Methyl n-nonanoate; Methyl nonylate; Methyl pelargonate; Pelargonic acid methyl ester

$$$$
