
 OpenBabel10282417072D

 24 24  0  0  0  0  0  0  0  0999 V2000
    1.4288    1.2375    0.0000 C   0  0  0  0  0  0  0  0  0  0  0  0
    0.7145    0.8250    0.0000 C   0  0  0  0  0  0  0  0  0  0  0  0
    0.7145    0.0000    0.0000 C   0  0  0  0  0  0  0  0  0  0  0  0
    1.4288   -0.4125    0.0000 C   0  0  0  0  0  0  0  0  0  0  0  0
    2.1433    0.0000    0.0000 C   0  0  0  0  0  0  0  0  0  0  0  0
    2.1433    0.8250    0.0000 C   0  0  0  0  0  0  0  0  0  0  0  0
    0.0000   -0.4125    0.0000 C   0  0  1  0  0  0  0  0  0  0  0  0
   -0.7145    0.0000    0.0000 C   0  0  1  0  0  0  0  0  0  0  0  0
   -1.4288   -0.4125    0.0000 N   0  0  0  0  0  0  0  0  0  0  0  0
   -0.7145    0.8249    0.0000 C   0  0  0  0  0  0  0  0  0  0  0  0
    0.0000   -1.2375    0.0000 O   0  0  0  0  0  0  0  0  0  0  0  0
    1.4287    2.2695    0.0000 H   0  0  0  0  0  0  0  0  0  0  0  0
   -0.1793    1.3410    0.0000 H   0  0  0  0  0  0  0  0  0  0  0  0
    1.4287   -1.4445    0.0000 H   0  0  0  0  0  0  0  0  0  0  0  0
    3.0370   -0.5160    0.0000 H   0  0  0  0  0  0  0  0  0  0  0  0
    3.0370    1.3410    0.0000 H   0  0  0  0  0  0  0  0  0  0  0  0
    0.9266   -0.9475    0.0000 H   0  0  0  0  0  0  0  0  0  0  0  0
    0.2121    0.5350    0.0000 H   0  0  0  0  0  0  0  0  0  0  0  0
   -2.3122    0.0974    0.0000 H   0  0  0  0  0  0  0  0  0  0  0  0
   -1.4287   -1.4325    0.0000 H   0  0  0  0  0  0  0  0  0  0  0  0
    0.2121    1.3599    0.0000 H   0  0  0  0  0  0  0  0  0  0  0  0
   -1.6411    1.3599    0.0000 H   0  0  0  0  0  0  0  0  0  0  0  0
   -0.7145    1.8949    0.0000 H   0  0  0  0  0  0  0  0  0  0  0  0
   -0.8400   -1.7225    0.0000 H   0  0  0  0  0  0  0  0  0  0  0  0
  1  2  1  0  0  0  0
  1  6  2  0  0  0  0
  1 12  1  0  0  0  0
  2  3  2  0  0  0  0
  2 13  1  0  0  0  0
  3  4  1  0  0  0  0
  3  7  1  0  0  0  0
  4  5  2  0  0  0  0
  4 14  1  0  0  0  0
  5  6  1  0  0  0  0
  5 15  1  0  0  0  0
  6 16  1  0  0  0  0
  7  8  1  0  0  0  0
  7 11  1  0  0  0  0
  7 17  1  1  0  0  0
  8  9  1  0  0  0  0
  8 10  1  0  0  0  0
  8 18  1  6  0  0  0
  9 19  1  0  0  0  0
  9 20  1  0  0  0  0
 10 21  1  0  0  0  0
 10 22  1  0  0  0  0
 10 23  1  0  0  0  0
 11 24  1  0  0  0  0
M  END
>  <DRUGBANK_ID>
DB01486

>  <COMMON_NAME>
Cathine

>  <CAS_NUMBER>
492-39-7

>  <UNII>
E1L4ZW2F8O

>  <SYNONYMS>
(+)-Norpseudoephedrine; Cathina; Cathine; Cathinum; D-Cathine; d-Nor-psi-ephedrine; d-Norpseudoephedrine; Katine; Pseudonorephedrine; psi-Norephedrine

$$$$
