
 OpenBabel10282417072D

 52 56  0  0  0  0  0  0  0  0999 V2000
   -0.2752    0.1919    0.0000 O   0  0  0  0  0  0  0  0  0  0  0  0
   -4.0200    1.1802    0.0000 N   0  0  0  0  0  0  0  0  0  0  0  0
   -1.7042    1.0169    0.0000 N   0  0  0  0  0  0  0  0  0  0  0  0
    1.1537   -1.4580    0.0000 N   0  0  0  0  0  0  0  0  0  0  0  0
    5.4967    1.0341    0.0000 N   0  0  0  0  0  0  0  0  0  0  0  0
   -3.1332    0.1919    0.0000 C   0  0  3  0  0  0  0  0  0  0  0  0
   -2.4187   -0.2205    0.0000 C   0  0  0  0  0  0  0  0  0  0  0  0
   -1.7042    0.1919    0.0000 C   0  0  1  0  0  0  0  0  0  0  0  0
   -3.8821   -0.1422    0.0000 C   0  0  0  0  0  0  0  0  0  0  0  0
   -3.2182    1.0076    0.0000 C   0  0  0  0  0  0  0  0  0  0  0  0
   -0.9897   -0.2205    0.0000 C   0  0  0  0  0  0  0  0  0  0  0  0
   -4.4331    0.4718    0.0000 C   0  0  0  0  0  0  0  0  0  0  0  0
   -4.1384   -0.9264    0.0000 C   0  0  0  0  0  0  0  0  0  0  0  0
   -5.2403    0.3016    0.0000 C   0  0  0  0  0  0  0  0  0  0  0  0
   -4.9457   -1.0966    0.0000 C   0  0  0  0  0  0  0  0  0  0  0  0
   -5.4967   -0.4825    0.0000 C   0  0  0  0  0  0  0  0  0  0  0  0
    0.4391   -0.2205    0.0000 C   0  0  0  0  0  0  0  0  0  0  0  0
    1.8682   -0.2205    0.0000 C   0  0  0  0  0  0  0  0  0  0  0  0
    1.1537    0.1919    0.0000 C   0  0  0  0  0  0  0  0  0  0  0  0
    2.5826    0.1919    0.0000 C   0  0  0  0  0  0  0  0  0  0  0  0
    0.4391   -1.0455    0.0000 C   0  0  0  0  0  0  0  0  0  0  0  0
    4.0116    0.1919    0.0000 C   0  0  0  0  0  0  0  0  0  0  0  0
    3.2971   -0.2205    0.0000 C   0  0  0  0  0  0  0  0  0  0  0  0
    4.0116    1.0169    0.0000 C   0  0  0  0  0  0  0  0  0  0  0  0
    2.5826    1.0169    0.0000 C   0  0  0  0  0  0  0  0  0  0  0  0
    1.8682   -1.0455    0.0000 C   0  0  0  0  0  0  0  0  0  0  0  0
    3.2971    1.4295    0.0000 C   0  0  0  0  0  0  0  0  0  0  0  0
    4.7491   -0.2491    0.0000 C   0  0  0  0  0  0  0  0  0  0  0  0
    4.7491    1.4580    0.0000 C   0  0  0  0  0  0  0  0  0  0  0  0
    5.4967    0.1748    0.0000 C   0  0  0  0  0  0  0  0  0  0  0  0
   -2.1472    1.2727    0.0000 H   0  0  0  0  0  0  0  0  0  0  0  0
   -1.2612    1.2727    0.0000 H   0  0  0  0  0  0  0  0  0  0  0  0
   -3.1887   -0.8767    0.0000 H   0  0  0  0  0  0  0  0  0  0  0  0
   -2.4187   -1.2905    0.0000 H   0  0  0  0  0  0  0  0  0  0  0  0
   -1.4921   -0.7556    0.0000 H   0  0  0  0  0  0  0  0  0  0  0  0
   -2.6308    0.7270    0.0000 H   0  0  0  0  0  0  0  0  0  0  0  0
   -2.4501    1.6968    0.0000 H   0  0  0  0  0  0  0  0  0  0  0  0
   -0.9897   -1.2905    0.0000 H   0  0  0  0  0  0  0  0  0  0  0  0
   -1.9163   -0.7556    0.0000 H   0  0  0  0  0  0  0  0  0  0  0  0
   -3.4492   -1.6945    0.0000 H   0  0  0  0  0  0  0  0  0  0  0  0
   -5.9295    1.0697    0.0000 H   0  0  0  0  0  0  0  0  0  0  0  0
   -5.2663   -2.0775    0.0000 H   0  0  0  0  0  0  0  0  0  0  0  0
   -6.5065   -0.6952    0.0000 H   0  0  0  0  0  0  0  0  0  0  0  0
    1.1537    1.2239    0.0000 H   0  0  0  0  0  0  0  0  0  0  0  0
   -0.4546   -1.5615    0.0000 H   0  0  0  0  0  0  0  0  0  0  0  0
    3.2971   -1.2525    0.0000 H   0  0  0  0  0  0  0  0  0  0  0  0
    1.6888    1.5329    0.0000 H   0  0  0  0  0  0  0  0  0  0  0  0
    2.7619   -1.5615    0.0000 H   0  0  0  0  0  0  0  0  0  0  0  0
    3.2971    2.4615    0.0000 H   0  0  0  0  0  0  0  0  0  0  0  0
    4.7372   -1.2810    0.0000 H   0  0  0  0  0  0  0  0  0  0  0  0
    4.7371    2.4899    0.0000 H   0  0  0  0  0  0  0  0  0  0  0  0
    6.3884   -0.3447    0.0000 H   0  0  0  0  0  0  0  0  0  0  0  0
  1 11  1  0  0  0  0
  1 17  1  0  0  0  0
  2 10  2  0  0  0  0
  2 12  1  0  0  0  0
  3 31  1  0  0  0  0
  3 32  1  0  0  0  0
  4 21  1  0  0  0  0
  4 26  2  0  0  0  0
  5 29  2  0  0  0  0
  5 30  1  0  0  0  0
  6  7  1  0  0  0  0
  6  9  1  0  0  0  0
  6 10  1  0  0  0  0
  6 33  1  0  0  0  0
  7  8  1  0  0  0  0
  7 34  1  0  0  0  0
  7 35  1  0  0  0  0
  8  3  1  0  0  0  0
  8 11  1  0  0  0  0
  8 36  1  1  0  0  0
  9 12  1  0  0  0  0
  9 13  2  0  0  0  0
 10 37  1  0  0  0  0
 11 38  1  0  0  0  0
 11 39  1  0  0  0  0
 12 14  2  0  0  0  0
 13 15  1  0  0  0  0
 13 40  1  0  0  0  0
 14 16  1  0  0  0  0
 14 41  1  0  0  0  0
 15 16  2  0  0  0  0
 15 42  1  0  0  0  0
 16 43  1  0  0  0  0
 17 19  1  0  0  0  0
 17 21  2  0  0  0  0
 18 19  2  0  0  0  0
 18 20  1  0  0  0  0
 18 26  1  0  0  0  0
 19 44  1  0  0  0  0
 20 23  2  0  0  0  0
 20 25  1  0  0  0  0
 21 45  1  0  0  0  0
 22 23  1  0  0  0  0
 22 24  2  0  0  0  0
 22 28  1  0  0  0  0
 23 46  1  0  0  0  0
 24 27  1  0  0  0  0
 24 29  1  0  0  0  0
 25 27  2  0  0  0  0
 25 47  1  0  0  0  0
 26 48  1  0  0  0  0
 27 49  1  0  0  0  0
 28 30  2  0  0  0  0
 28 50  1  0  0  0  0
 29 51  1  0  0  0  0
 30 52  1  0  0  0  0
M  END
>  <DRUGBANK_ID>
DB06959

>  <COMMON_NAME>
(2S)-1-(3H-Indol-3-yl)-3-{[5-(6-isoquinolinyl)-3-pyridinyl]oxy}-2-propanamine

$$$$
