
 OpenBabel10282417072D

 50 54  0  0  1  0  0  0  0  0999 V2000
   -6.3681   -0.6872    0.0000 C   0  0  0  0  0  0  0  0  0  0  0  0
   -7.1077   -0.3216    0.0000 C   0  0  0  0  0  0  0  0  0  0  0  0
   -7.1609    0.5017    0.0000 C   0  0  0  0  0  0  0  0  0  0  0  0
   -6.4745    0.9594    0.0000 C   0  0  0  0  0  0  0  0  0  0  0  0
   -5.7349    0.5938    0.0000 C   0  0  0  0  0  0  0  0  0  0  0  0
   -5.6817   -0.2295    0.0000 C   0  0  0  0  0  0  0  0  0  0  0  0
   -4.9422   -0.5950    0.0000 F   0  0  0  0  0  0  0  0  0  0  0  0
   -5.0485    1.0515    0.0000 C   0  0  0  0  0  0  0  0  0  0  0  0
   -4.3090    0.6860    0.0000 N   0  0  0  0  0  0  0  0  0  0  0  0
   -3.6226    1.1437    0.0000 C   0  0  0  0  0  0  0  0  0  0  0  0
   -3.6758    1.9669    0.0000 O   0  0  0  0  0  0  0  0  0  0  0  0
   -2.8830    0.7781    0.0000 C   0  0  0  0  0  0  0  0  0  0  0  0
   -2.1966    1.2358    0.0000 C   0  0  0  0  0  0  0  0  0  0  0  0
   -1.4570    0.8702    0.0000 N   0  0  0  0  0  0  0  0  0  0  0  0
   -1.4038    0.0469    0.0000 C   0  0  0  0  0  0  0  0  0  0  0  0
   -2.0902   -0.4108    0.0000 C   0  0  0  0  0  0  0  0  0  0  0  0
   -2.8298   -0.0452    0.0000 C   0  0  0  0  0  0  0  0  0  0  0  0
   -3.5162   -0.5029    0.0000 O   0  0  0  0  0  0  0  0  0  0  0  0
   -2.0370   -1.2341    0.0000 O   0  0  0  0  0  0  0  0  0  0  0  0
   -0.6643   -0.3187    0.0000 C   0  0  0  0  0  0  0  0  0  0  0  0
   -0.6111   -1.1419    0.0000 O   0  0  0  0  0  0  0  0  0  0  0  0
    0.0221    0.1390    0.0000 N   0  0  0  0  0  0  0  0  0  0  0  0
    0.6990   -0.3327    0.0000 C   0  0  1  0  0  0  0  0  0  0  0  0
    1.4898   -0.0976    0.0000 C   0  0  0  0  0  0  0  0  0  0  0  0
    1.7991    0.6672    0.0000 C   0  0  0  0  0  0  0  0  0  0  0  0
    1.3939    1.3859    0.0000 C   0  0  2  0  0  0  0  0  0  0  0  0
    1.2613    0.4397    0.0000 C   0  0  0  0  0  0  0  0  0  0  0  0
    0.5795    1.5172    0.0000 O   0  0  0  0  0  0  0  0  0  0  0  0
   -0.0311    0.9623    0.0000 C   0  0  2  0  0  0  0  0  0  0  0  0
   -0.7706    1.3279    0.0000 C   0  0  0  0  0  0  0  0  0  0  0  0
   -6.5277    1.7827    0.0000 F   0  0  0  0  0  0  0  0  0  0  0  0
   -7.7941   -0.7793    0.0000 F   0  0  0  0  0  0  0  0  0  0  0  0
   -6.3016   -1.7171    0.0000 H   0  0  0  0  0  0  0  0  0  0  0  0
   -8.0860    0.9590    0.0000 H   0  0  0  0  0  0  0  0  0  0  0  0
   -5.1175    2.1193    0.0000 H   0  0  0  0  0  0  0  0  0  0  0  0
   -4.1583    1.6452    0.0000 H   0  0  0  0  0  0  0  0  0  0  0  0
   -4.2455   -0.2965    0.0000 H   0  0  0  0  0  0  0  0  0  0  0  0
   -2.2631    2.2657    0.0000 H   0  0  0  0  0  0  0  0  0  0  0  0
   -2.8166   -1.7540    0.0000 H   0  0  0  0  0  0  0  0  0  0  0  0
    0.5217    0.7225    0.0000 H   0  0  0  0  0  0  0  0  0  0  0  0
    2.2095   -0.8894    0.0000 H   0  0  0  0  0  0  0  0  0  0  0  0
    2.5431    0.0905    0.0000 H   0  0  0  0  0  0  0  0  0  0  0  0
    2.8669    0.7362    0.0000 H   0  0  0  0  0  0  0  0  0  0  0  0
    2.3087    1.6080    0.0000 H   0  0  0  0  0  0  0  0  0  0  0  0
    1.5929    0.3346    0.0000 H   0  0  0  0  0  0  0  0  0  0  0  0
    2.2533    0.0386    0.0000 H   0  0  0  0  0  0  0  0  0  0  0  0
    1.5556   -0.5890    0.0000 H   0  0  0  0  0  0  0  0  0  0  0  0
    0.9609    0.5611    0.0000 H   0  0  0  0  0  0  0  0  0  0  0  0
   -0.8395    2.3957    0.0000 H   0  0  0  0  0  0  0  0  0  0  0  0
   -1.7298    1.8021    0.0000 H   0  0  0  0  0  0  0  0  0  0  0  0
  1  2  2  0  0  0  0
  1  6  1  0  0  0  0
  1 33  1  0  0  0  0
  2  3  1  0  0  0  0
  2 32  1  0  0  0  0
  3  4  2  0  0  0  0
  3 34  1  0  0  0  0
  4  5  1  0  0  0  0
  4 31  1  0  0  0  0
  5  6  2  0  0  0  0
  5  8  1  0  0  0  0
  6  7  1  0  0  0  0
  8  9  1  0  0  0  0
  8 35  1  0  0  0  0
  8 36  1  0  0  0  0
  9 10  1  0  0  0  0
  9 37  1  0  0  0  0
 10 11  2  0  0  0  0
 10 12  1  0  0  0  0
 12 13  2  0  0  0  0
 12 17  1  0  0  0  0
 13 14  1  0  0  0  0
 13 38  1  0  0  0  0
 14 15  1  0  0  0  0
 14 30  1  0  0  0  0
 15 16  2  0  0  0  0
 15 20  1  0  0  0  0
 16 17  1  0  0  0  0
 16 19  1  0  0  0  0
 17 18  2  0  0  0  0
 19 39  1  0  0  0  0
 20 21  2  0  0  0  0
 20 22  1  0  0  0  0
 22 23  1  0  0  0  0
 23 24  1  0  0  0  0
 23 27  1  0  0  0  0
 23 40  1  1  0  0  0
 24 25  1  0  0  0  0
 24 41  1  0  0  0  0
 24 42  1  0  0  0  0
 25 26  1  0  0  0  0
 25 43  1  0  0  0  0
 25 44  1  0  0  0  0
 26 27  1  0  0  0  0
 26 28  1  0  0  0  0
 26 45  1  1  0  0  0
 27 46  1  0  0  0  0
 27 47  1  0  0  0  0
 28 29  1  0  0  0  0
 29 22  1  0  0  0  0
 29 30  1  0  0  0  0
 29 48  1  6  0  0  0
 30 49  1  0  0  0  0
 30 50  1  0  0  0  0
M  END
>  <DRUGBANK_ID>
DB11799

>  <COMMON_NAME>
Bictegravir

>  <CAS_NUMBER>
1611493-60-7

>  <UNII>
8GB79LOJ07

>  <SYNONYMS>
Bictegravir

$$$$
