
 OpenBabel10282417072D

 81 83  0  0  0  0  0  0  0  0999 V2000
   -2.8578    2.0625    0.0000 P   0  0  0  0  0  0  0  0  0  0  0  0
    3.5723    0.0000    0.0000 O   0  0  0  0  0  0  0  0  0  0  0  0
   -0.7144   -2.4750    0.0000 O   0  0  0  0  0  0  0  0  0  0  0  0
    1.4289    1.2375    0.0000 O   0  0  0  0  0  0  0  0  0  0  0  0
   -4.2868    1.2375    0.0000 O   0  0  0  0  0  0  0  0  0  0  0  0
   -2.8578    2.8875    0.0000 O   0  0  0  0  0  0  0  0  0  0  0  0
   -2.0328    2.0625    0.0000 O   0  0  0  0  0  0  0  0  0  0  0  0
   -1.4289   -2.8875    0.0000 O   0  0  0  0  0  0  0  0  0  0  0  0
   -3.6828    2.0625    0.0000 O   0  0  0  0  0  0  0  0  0  0  0  0
   -6.4302    0.8250    0.0000 O   0  0  0  0  0  0  0  0  0  0  0  0
   -5.7157    2.0625    0.0000 O   0  0  0  0  0  0  0  0  0  0  0  0
    0.0000   -1.2375    0.0000 N   0  0  0  0  0  0  0  0  0  0  0  0
   -2.1433   -1.6500    0.0000 N   0  0  0  0  0  0  0  0  0  0  0  0
    2.8579    1.2375    0.0000 N   0  0  0  0  0  0  0  0  0  0  0  0
    5.0012    0.0000    0.0000 C   0  0  0  0  0  0  0  0  0  0  0  0
    5.0012    0.8250    0.0000 C   0  0  0  0  0  0  0  0  0  0  0  0
    5.7158   -0.4125    0.0000 C   0  0  0  0  0  0  0  0  0  0  0  0
    5.7158    1.2375    0.0000 C   0  0  0  0  0  0  0  0  0  0  0  0
    6.4302    0.0000    0.0000 C   0  0  0  0  0  0  0  0  0  0  0  0
    6.4302    0.8250    0.0000 C   0  0  0  0  0  0  0  0  0  0  0  0
    4.2868   -0.4125    0.0000 C   0  0  0  0  0  0  0  0  0  0  0  0
    2.8579   -0.4125    0.0000 C   0  0  0  0  0  0  0  0  0  0  0  0
    2.1433    0.0000    0.0000 C   0  0  0  0  0  0  0  0  0  0  0  0
    2.8579   -1.2375    0.0000 C   0  0  0  0  0  0  0  0  0  0  0  0
    1.4289   -1.2375    0.0000 C   0  0  0  0  0  0  0  0  0  0  0  0
    0.7144   -1.6500    0.0000 C   0  0  2  0  0  0  0  0  0  0  0  0
    1.4289   -0.4125    0.0000 C   0  0  0  0  0  0  0  0  0  0  0  0
    2.1433   -1.6500    0.0000 C   0  0  0  0  0  0  0  0  0  0  0  0
   -1.4289   -1.2375    0.0000 C   0  0  1  0  0  0  0  0  0  0  0  0
   -1.4289   -0.4125    0.0000 C   0  0  0  0  0  0  0  0  0  0  0  0
   -0.7144   -1.6500    0.0000 C   0  0  0  0  0  0  0  0  0  0  0  0
    0.7144   -2.4750    0.0000 C   0  0  0  0  0  0  0  0  0  0  0  0
    2.1433    0.8250    0.0000 C   0  0  0  0  0  0  0  0  0  0  0  0
   -2.1433    0.0000    0.0000 C   0  0  0  0  0  0  0  0  0  0  0  0
   -2.1433    0.8250    0.0000 C   0  0  0  0  0  0  0  0  0  0  0  0
   -2.8578   -0.4125    0.0000 C   0  0  0  0  0  0  0  0  0  0  0  0
   -2.8578    1.2375    0.0000 C   0  0  0  0  0  0  0  0  0  0  0  0
   -3.5723    0.8250    0.0000 C   0  0  0  0  0  0  0  0  0  0  0  0
   -3.5723    0.0000    0.0000 C   0  0  0  0  0  0  0  0  0  0  0  0
   -2.1433   -2.4750    0.0000 C   0  0  0  0  0  0  0  0  0  0  0  0
   -2.8578   -2.8875    0.0000 C   0  0  0  0  0  0  0  0  0  0  0  0
   -5.0012    0.8250    0.0000 C   0  0  0  0  0  0  0  0  0  0  0  0
   -5.7157    1.2375    0.0000 C   0  0  0  0  0  0  0  0  0  0  0  0
    0.0000   -0.7260    0.0000 H   0  0  0  0  0  0  0  0  0  0  0  0
   -2.5863   -1.3942    0.0000 H   0  0  0  0  0  0  0  0  0  0  0  0
    3.3008    0.9817    0.0000 H   0  0  0  0  0  0  0  0  0  0  0  0
    2.8579    1.7490    0.0000 H   0  0  0  0  0  0  0  0  0  0  0  0
   -2.0178    3.3725    0.0000 H   0  0  0  0  0  0  0  0  0  0  0  0
   -1.5478    1.2225    0.0000 H   0  0  0  0  0  0  0  0  0  0  0  0
   -7.2417    1.2935    0.0000 H   0  0  0  0  0  0  0  0  0  0  0  0
    5.0013   -1.0700    0.0000 H   0  0  0  0  0  0  0  0  0  0  0  0
    4.0746    1.3600    0.0000 H   0  0  0  0  0  0  0  0  0  0  0  0
    5.0013    1.8950    0.0000 H   0  0  0  0  0  0  0  0  0  0  0  0
    5.7159   -1.4825    0.0000 H   0  0  0  0  0  0  0  0  0  0  0  0
    6.6425   -0.9475    0.0000 H   0  0  0  0  0  0  0  0  0  0  0  0
    5.7159    2.3075    0.0000 H   0  0  0  0  0  0  0  0  0  0  0  0
    6.6425    1.7725    0.0000 H   0  0  0  0  0  0  0  0  0  0  0  0
    7.3569   -0.5350    0.0000 H   0  0  0  0  0  0  0  0  0  0  0  0
    7.3568    0.5350    0.0000 H   0  0  0  0  0  0  0  0  0  0  0  0
    7.3569    1.3600    0.0000 H   0  0  0  0  0  0  0  0  0  0  0  0
    7.3568    0.2900    0.0000 H   0  0  0  0  0  0  0  0  0  0  0  0
    4.2868   -1.4825    0.0000 H   0  0  0  0  0  0  0  0  0  0  0  0
    5.2135   -0.9475    0.0000 H   0  0  0  0  0  0  0  0  0  0  0  0
    3.7516   -1.7535    0.0000 H   0  0  0  0  0  0  0  0  0  0  0  0
    0.7144   -0.5800    0.0000 H   0  0  0  0  0  0  0  0  0  0  0  0
    0.5352    0.1035    0.0000 H   0  0  0  0  0  0  0  0  0  0  0  0
    2.1432   -2.6820    0.0000 H   0  0  0  0  0  0  0  0  0  0  0  0
   -2.3556   -0.7025    0.0000 H   0  0  0  0  0  0  0  0  0  0  0  0
   -0.5022    0.1225    0.0000 H   0  0  0  0  0  0  0  0  0  0  0  0
   -1.4289    0.6575    0.0000 H   0  0  0  0  0  0  0  0  0  0  0  0
   -0.2122   -3.0100    0.0000 H   0  0  0  0  0  0  0  0  0  0  0  0
    1.6410   -3.0100    0.0000 H   0  0  0  0  0  0  0  0  0  0  0  0
    0.7144   -3.5450    0.0000 H   0  0  0  0  0  0  0  0  0  0  0  0
   -1.2496    1.3410    0.0000 H   0  0  0  0  0  0  0  0  0  0  0  0
   -2.8578   -1.4445    0.0000 H   0  0  0  0  0  0  0  0  0  0  0  0
   -4.4660   -0.5160    0.0000 H   0  0  0  0  0  0  0  0  0  0  0  0
   -3.7844   -2.3525    0.0000 H   0  0  0  0  0  0  0  0  0  0  0  0
   -2.8578   -3.9575    0.0000 H   0  0  0  0  0  0  0  0  0  0  0  0
   -3.7845   -3.4225    0.0000 H   0  0  0  0  0  0  0  0  0  0  0  0
   -5.0012   -0.2450    0.0000 H   0  0  0  0  0  0  0  0  0  0  0  0
   -5.9278    0.2900    0.0000 H   0  0  0  0  0  0  0  0  0  0  0  0
  1  6  1  0  0  0  0
  1  7  1  0  0  0  0
  1  9  2  0  0  0  0
  1 37  1  0  0  0  0
  2 21  1  0  0  0  0
  2 22  1  0  0  0  0
  3 31  2  0  0  0  0
  4 33  2  0  0  0  0
  5 38  1  0  0  0  0
  5 42  1  0  0  0  0
  6 48  1  0  0  0  0
  7 49  1  0  0  0  0
  8 40  2  0  0  0  0
 10 43  1  0  0  0  0
 10 50  1  0  0  0  0
 11 43  2  0  0  0  0
 12 31  1  0  0  0  0
 12 44  1  0  0  0  0
 13 40  1  0  0  0  0
 13 45  1  0  0  0  0
 14 33  1  0  0  0  0
 14 46  1  0  0  0  0
 14 47  1  0  0  0  0
 15 16  1  0  0  0  0
 15 17  1  0  0  0  0
 15 21  1  0  0  0  0
 15 51  1  0  0  0  0
 16 18  1  0  0  0  0
 16 52  1  0  0  0  0
 16 53  1  0  0  0  0
 17 19  1  0  0  0  0
 17 54  1  0  0  0  0
 17 55  1  0  0  0  0
 18 20  1  0  0  0  0
 18 56  1  0  0  0  0
 18 57  1  0  0  0  0
 19 20  1  0  0  0  0
 19 58  1  0  0  0  0
 19 59  1  0  0  0  0
 20 60  1  0  0  0  0
 20 61  1  0  0  0  0
 21 62  1  0  0  0  0
 21 63  1  0  0  0  0
 22 23  2  0  0  0  0
 22 24  1  0  0  0  0
 23 27  1  0  0  0  0
 23 33  1  0  0  0  0
 24 28  2  0  0  0  0
 24 64  1  0  0  0  0
 25 26  1  0  0  0  0
 25 27  2  0  0  0  0
 25 28  1  0  0  0  0
 26 12  1  0  0  0  0
 26 32  1  0  0  0  0
 26 65  1  1  0  0  0
 27 66  1  0  0  0  0
 28 67  1  0  0  0  0
 29 13  1  0  0  0  0
 29 30  1  0  0  0  0
 29 31  1  0  0  0  0
 29 68  1  6  0  0  0
 30 34  1  0  0  0  0
 30 69  1  0  0  0  0
 30 70  1  0  0  0  0
 32 71  1  0  0  0  0
 32 72  1  0  0  0  0
 32 73  1  0  0  0  0
 34 35  2  0  0  0  0
 34 36  1  0  0  0  0
 35 37  1  0  0  0  0
 35 74  1  0  0  0  0
 36 39  2  0  0  0  0
 36 75  1  0  0  0  0
 37 38  2  0  0  0  0
 38 39  1  0  0  0  0
 39 76  1  0  0  0  0
 40 41  1  0  0  0  0
 41 77  1  0  0  0  0
 41 78  1  0  0  0  0
 41 79  1  0  0  0  0
 42 43  1  0  0  0  0
 42 80  1  0  0  0  0
 42 81  1  0  0  0  0
M  END
>  <DRUGBANK_ID>
DB04003

>  <SECONDARY_ACCESSION_NUMBERS>
EXPT00855

>  <COMMON_NAME>
{4-[(2S)-2-Acetamido-3-({(1S)-1-[3-carbamoyl-4-(cyclohexylmethoxy)phenyl]ethyl}amino)-3-oxopropyl]-2-phosphonophenoxy}acetic acid

$$$$
