
 OpenBabel10282417072D

 45 47  0  0  0  0  0  0  0  0999 V2000
   -0.8497   -0.3346    0.0000 C   0  0  3  0  0  0  0  0  0  0  0  0
   -1.2505    0.3578    0.0000 C   0  0  0  0  0  0  0  0  0  0  0  0
   -0.0480   -0.3346    0.0000 N   0  0  0  0  0  0  0  0  0  0  0  0
   -1.2638   -1.0568    0.0000 C   0  0  0  0  0  0  0  0  0  0  0  0
   -0.8630    1.0766    0.0000 C   0  0  0  0  0  0  0  0  0  0  0  0
   -2.0888    0.3578    0.0000 C   0  0  0  0  0  0  0  0  0  0  0  0
    0.3130    0.4040    0.0000 C   0  0  0  0  0  0  0  0  0  0  0  0
    0.3229   -1.0735    0.0000 C   0  0  0  0  0  0  0  0  0  0  0  0
   -2.0888   -1.0568    0.0000 C   0  0  0  0  0  0  0  0  0  0  0  0
   -0.8497   -1.7758    0.0000 C   0  0  0  0  0  0  0  0  0  0  0  0
   -1.2638    1.7790    0.0000 C   0  0  0  0  0  0  0  0  0  0  0  0
   -2.4996    1.0700    0.0000 C   0  0  0  0  0  0  0  0  0  0  0  0
    1.1181    0.5764    0.0000 C   0  0  0  0  0  0  0  0  0  0  0  0
    1.1181   -1.2656    0.0000 C   0  0  0  0  0  0  0  0  0  0  0  0
   -2.4996   -1.7758    0.0000 C   0  0  0  0  0  0  0  0  0  0  0  0
   -1.2638   -2.4848    0.0000 C   0  0  0  0  0  0  0  0  0  0  0  0
   -2.0888    1.7790    0.0000 C   0  0  0  0  0  0  0  0  0  0  0  0
    1.7641    0.0595    0.0000 N   0  0  0  0  0  0  0  0  0  0  0  0
    1.7641   -0.7488    0.0000 C   0  0  0  0  0  0  0  0  0  0  0  0
   -2.0888   -2.4980    0.0000 C   0  0  0  0  0  0  0  0  0  0  0  0
   -2.4996    2.4980    0.0000 Cl  0  0  0  0  0  0  0  0  0  0  0  0
    2.4996    0.4339    0.0000 C   0  0  0  0  0  0  0  0  0  0  0  0
   -0.3152    0.5923    0.0000 H   0  0  0  0  0  0  0  0  0  0  0  0
    0.1689    1.0890    0.0000 H   0  0  0  0  0  0  0  0  0  0  0  0
   -2.6050   -0.5358    0.0000 H   0  0  0  0  0  0  0  0  0  0  0  0
   -0.3460    1.2469    0.0000 H   0  0  0  0  0  0  0  0  0  0  0  0
    0.6780    1.4098    0.0000 H   0  0  0  0  0  0  0  0  0  0  0  0
   -0.3427   -1.9113    0.0000 H   0  0  0  0  0  0  0  0  0  0  0  0
    0.6709   -2.0853    0.0000 H   0  0  0  0  0  0  0  0  0  0  0  0
   -2.6068   -0.1642    0.0000 H   0  0  0  0  0  0  0  0  0  0  0  0
    0.1823   -1.7789    0.0000 H   0  0  0  0  0  0  0  0  0  0  0  0
   -0.7455    2.6714    0.0000 H   0  0  0  0  0  0  0  0  0  0  0  0
   -3.5316    1.0710    0.0000 H   0  0  0  0  0  0  0  0  0  0  0  0
    1.3641    1.6177    0.0000 H   0  0  0  0  0  0  0  0  0  0  0  0
    2.1297    0.9252    0.0000 H   0  0  0  0  0  0  0  0  0  0  0  0
    1.3504   -2.3101    0.0000 H   0  0  0  0  0  0  0  0  0  0  0  0
    2.1273   -1.6210    0.0000 H   0  0  0  0  0  0  0  0  0  0  0  0
   -3.5316   -1.7748    0.0000 H   0  0  0  0  0  0  0  0  0  0  0  0
   -0.7429   -3.3757    0.0000 H   0  0  0  0  0  0  0  0  0  0  0  0
    2.7285   -1.2123    0.0000 H   0  0  0  0  0  0  0  0  0  0  0  0
    2.6699   -0.1792    0.0000 H   0  0  0  0  0  0  0  0  0  0  0  0
   -2.6005   -3.3942    0.0000 H   0  0  0  0  0  0  0  0  0  0  0  0
    3.3968   -0.1492    0.0000 H   0  0  0  0  0  0  0  0  0  0  0  0
    2.5560    1.5024    0.0000 H   0  0  0  0  0  0  0  0  0  0  0  0
    3.4532    0.9193    0.0000 H   0  0  0  0  0  0  0  0  0  0  0  0
  1  2  1  0  0  0  0
  1  3  1  0  0  0  0
  1  4  1  0  0  0  0
  1 23  1  0  0  0  0
  2  5  2  0  0  0  0
  2  6  1  0  0  0  0
  3  7  1  0  0  0  0
  3  8  1  0  0  0  0
  4  9  2  0  0  0  0
  4 10  1  0  0  0  0
  5 11  1  0  0  0  0
  5 24  1  0  0  0  0
  6 12  2  0  0  0  0
  6 25  1  0  0  0  0
  7 13  1  0  0  0  0
  7 26  1  0  0  0  0
  7 27  1  0  0  0  0
  8 14  1  0  0  0  0
  8 28  1  0  0  0  0
  8 29  1  0  0  0  0
  9 15  1  0  0  0  0
  9 30  1  0  0  0  0
 10 16  2  0  0  0  0
 10 31  1  0  0  0  0
 11 17  2  0  0  0  0
 11 32  1  0  0  0  0
 12 17  1  0  0  0  0
 12 33  1  0  0  0  0
 13 18  1  0  0  0  0
 13 34  1  0  0  0  0
 13 35  1  0  0  0  0
 14 19  1  0  0  0  0
 14 36  1  0  0  0  0
 14 37  1  0  0  0  0
 15 20  2  0  0  0  0
 15 38  1  0  0  0  0
 16 20  1  0  0  0  0
 16 39  1  0  0  0  0
 17 21  1  0  0  0  0
 18 22  1  0  0  0  0
 18 19  1  0  0  0  0
 19 40  1  0  0  0  0
 19 41  1  0  0  0  0
 20 42  1  0  0  0  0
 22 43  1  0  0  0  0
 22 44  1  0  0  0  0
 22 45  1  0  0  0  0
M  END
>  <DRUGBANK_ID>
DB15979

>  <COMMON_NAME>
Homochlorcyclizine

>  <CAS_NUMBER>
848-53-3

>  <UNII>
N5MVC31W2N

>  <SYNONYMS>
Homochlorcyclizine; Homochlorcyclizinum; Homoclorociclizina

$$$$
