
 OpenBabel10282417072D

 30 31  0  0  0  0  0  0  0  0999 V2000
    1.4289   -1.6500    0.0000 N   0  0  0  0  0  0  0  0  0  0  0  0
    1.4289   -2.4750    0.0000 C   0  0  0  0  0  0  0  0  0  0  0  0
    2.1434   -2.8875    0.0000 C   0  0  0  0  0  0  0  0  0  0  0  0
    2.1434   -3.7125    0.0000 C   0  0  0  0  0  0  0  0  0  0  0  0
    1.4289   -4.1250    0.0000 C   0  0  0  0  0  0  0  0  0  0  0  0
    0.7145   -3.7125    0.0000 C   0  0  0  0  0  0  0  0  0  0  0  0
    0.7145   -2.8875    0.0000 C   0  0  0  0  0  0  0  0  0  0  0  0
    1.4289   -4.9500    0.0000 C   0  0  0  0  0  0  0  0  0  0  0  0
    0.7145   -5.3625    0.0000 O   0  0  0  0  0  0  0  0  0  0  0  0
    2.1434   -5.3625    0.0000 N   0  0  0  0  0  0  0  0  0  0  0  0
    2.1434   -6.1875    0.0000 C   0  0  0  0  0  0  0  0  0  0  0  0
    2.8579   -6.6000    0.0000 C   0  0  0  0  0  0  0  0  0  0  0  0
    2.8579   -7.4250    0.0000 C   0  0  0  0  0  0  0  0  0  0  0  0
    2.1434   -7.8375    0.0000 C   0  0  0  0  0  0  0  0  0  0  0  0
    1.4289   -7.4250    0.0000 C   0  0  0  0  0  0  0  0  0  0  0  0
    1.4289   -6.6000    0.0000 C   0  0  0  0  0  0  0  0  0  0  0  0
    0.7145   -6.1875    0.0000 N   0  0  0  0  0  0  0  0  0  0  0  0
    2.2815   -1.1577    0.0000 H   0  0  0  0  0  0  0  0  0  0  0  0
    0.5763   -1.1577    0.0000 H   0  0  0  0  0  0  0  0  0  0  0  0
    3.0371   -2.3715    0.0000 H   0  0  0  0  0  0  0  0  0  0  0  0
    3.0371   -4.2285    0.0000 H   0  0  0  0  0  0  0  0  0  0  0  0
   -0.1792   -4.2285    0.0000 H   0  0  0  0  0  0  0  0  0  0  0  0
   -0.1792   -2.3715    0.0000 H   0  0  0  0  0  0  0  0  0  0  0  0
    2.9960   -4.8702    0.0000 H   0  0  0  0  0  0  0  0  0  0  0  0
    3.7516   -6.0840    0.0000 H   0  0  0  0  0  0  0  0  0  0  0  0
    3.7516   -7.9410    0.0000 H   0  0  0  0  0  0  0  0  0  0  0  0
    2.1434   -8.8695    0.0000 H   0  0  0  0  0  0  0  0  0  0  0  0
    0.5352   -7.9410    0.0000 H   0  0  0  0  0  0  0  0  0  0  0  0
    0.7145   -5.2030    0.0000 H   0  0  0  0  0  0  0  0  0  0  0  0
   -0.1381   -6.6797    0.0000 H   0  0  0  0  0  0  0  0  0  0  0  0
  1  2  1  0  0  0  0
  1 18  1  0  0  0  0
  1 19  1  0  0  0  0
  2  3  2  0  0  0  0
  2  7  1  0  0  0  0
  3  4  1  0  0  0  0
  3 20  1  0  0  0  0
  4  5  2  0  0  0  0
  4 21  1  0  0  0  0
  5  6  1  0  0  0  0
  5  8  1  0  0  0  0
  6  7  2  0  0  0  0
  6 22  1  0  0  0  0
  7 23  1  0  0  0  0
  8  9  2  0  0  0  0
  8 10  1  0  0  0  0
 10 11  1  0  0  0  0
 10 24  1  0  0  0  0
 11 12  2  0  0  0  0
 11 16  1  0  0  0  0
 12 13  1  0  0  0  0
 12 25  1  0  0  0  0
 13 14  2  0  0  0  0
 13 26  1  0  0  0  0
 14 15  1  0  0  0  0
 14 27  1  0  0  0  0
 15 16  2  0  0  0  0
 15 28  1  0  0  0  0
 16 17  1  0  0  0  0
 17 29  1  0  0  0  0
 17 30  1  0  0  0  0
M  END
>  <DRUGBANK_ID>
DB16142

>  <COMMON_NAME>
Acetyldinaline

>  <CAS_NUMBER>
58338-59-3

>  <UNII>
RG9G4Z82PY

>  <SYNONYMS>
Dinalin; Dinaline

$$$$
