
 OpenBabel10282417072D

 44 43  0  0  0  0  0  0  0  0999 V2000
   -2.1433   -1.6522    0.0000 N   0  0  0  0  0  0  0  0  0  0  0  0
   -1.4290   -1.2397    0.0000 C   0  0  2  0  0  0  0  0  0  0  0  0
   -0.7145   -1.6522    0.0000 C   0  0  0  0  0  0  0  0  0  0  0  0
   -1.4290   -0.4147    0.0000 C   0  0  0  0  0  0  0  0  0  0  0  0
   -0.7145   -0.0023    0.0000 C   0  0  0  0  0  0  0  0  0  0  0  0
   -0.7145    0.8227    0.0000 C   0  0  0  0  0  0  0  0  0  0  0  0
    0.0000    1.2352    0.0000 N   0  0  0  0  0  0  0  0  0  0  0  0
    0.0000    2.0602    0.0000 C   0  0  0  0  0  0  0  0  0  0  0  0
    0.7144    2.4727    0.0000 N   0  0  0  0  0  0  0  0  0  0  0  0
   -0.7145    2.4727    0.0000 N   0  0  0  0  0  0  0  0  0  0  0  0
   -0.7145    3.2977    0.0000 N   0  3  0  0  0  0  0  0  0  0  0  0
   -0.0044    3.7148    0.0000 O   0  5  0  0  0  0  0  0  0  0  0  0
   -1.4333    3.7148    0.0000 O   0  0  0  0  0  0  0  0  0  0  0  0
   -0.7145   -2.4773    0.0000 O   0  0  0  0  0  0  0  0  0  0  0  0
    0.0000   -1.2397    0.0000 N   0  0  0  0  0  0  0  0  0  0  0  0
    0.7145   -1.6522    0.0000 C   0  0  2  0  0  0  0  0  0  0  0  0
    1.4288   -1.2397    0.0000 C   0  0  0  0  0  0  0  0  0  0  0  0
    2.1433   -1.6522    0.0000 N   0  0  0  0  0  0  0  0  0  0  0  0
    1.4288   -0.4147    0.0000 O   0  0  0  0  0  0  0  0  0  0  0  0
    0.7145   -2.4773    0.0000 C   0  0  0  0  0  0  0  0  0  0  0  0
    1.4288   -2.8897    0.0000 C   0  0  0  0  0  0  0  0  0  0  0  0
    1.4288   -3.7147    0.0000 N   0  0  0  0  0  0  0  0  0  0  0  0
   -3.0267   -1.1423    0.0000 H   0  0  0  0  0  0  0  0  0  0  0  0
   -2.1432   -2.6722    0.0000 H   0  0  0  0  0  0  0  0  0  0  0  0
   -2.3557   -0.7047    0.0000 H   0  0  0  0  0  0  0  0  0  0  0  0
   -2.3556    0.1204    0.0000 H   0  0  0  0  0  0  0  0  0  0  0  0
   -1.4289    0.6553    0.0000 H   0  0  0  0  0  0  0  0  0  0  0  0
    0.2121   -0.5374    0.0000 H   0  0  0  0  0  0  0  0  0  0  0  0
    0.2122    0.5327    0.0000 H   0  0  0  0  0  0  0  0  0  0  0  0
   -1.6411    1.3577    0.0000 H   0  0  0  0  0  0  0  0  0  0  0  0
   -1.6411    0.2877    0.0000 H   0  0  0  0  0  0  0  0  0  0  0  0
    0.8526    0.7429    0.0000 H   0  0  0  0  0  0  0  0  0  0  0  0
    1.5670    1.9805    0.0000 H   0  0  0  0  0  0  0  0  0  0  0  0
   -1.5671    1.9804    0.0000 H   0  0  0  0  0  0  0  0  0  0  0  0
    0.0000   -0.2552    0.0000 H   0  0  0  0  0  0  0  0  0  0  0  0
   -0.2121   -2.1872    0.0000 H   0  0  0  0  0  0  0  0  0  0  0  0
    2.1433   -2.6367    0.0000 H   0  0  0  0  0  0  0  0  0  0  0  0
    2.9959   -1.1599    0.0000 H   0  0  0  0  0  0  0  0  0  0  0  0
   -0.2121   -3.0123    0.0000 H   0  0  0  0  0  0  0  0  0  0  0  0
    0.7145   -3.5473    0.0000 H   0  0  0  0  0  0  0  0  0  0  0  0
    2.3554   -2.3547    0.0000 H   0  0  0  0  0  0  0  0  0  0  0  0
    2.3554   -3.4247    0.0000 H   0  0  0  0  0  0  0  0  0  0  0  0
    0.5455   -4.2247    0.0000 H   0  0  0  0  0  0  0  0  0  0  0  0
    2.3121   -4.2247    0.0000 H   0  0  0  0  0  0  0  0  0  0  0  0
  1  2  1  0  0  0  0
  1 23  1  0  0  0  0
  1 24  1  0  0  0  0
  2  4  1  0  0  0  0
  2  3  1  0  0  0  0
  2 25  1  6  0  0  0
  3 15  1  0  0  0  0
  3 14  2  0  0  0  0
  4  5  1  0  0  0  0
  4 26  1  0  0  0  0
  4 27  1  0  0  0  0
  5  6  1  0  0  0  0
  5 28  1  0  0  0  0
  5 29  1  0  0  0  0
  6  7  1  0  0  0  0
  6 30  1  0  0  0  0
  6 31  1  0  0  0  0
  7  8  1  0  0  0  0
  7 32  1  0  0  0  0
  8  9  2  0  0  0  0
  8 10  1  0  0  0  0
  9 33  1  0  0  0  0
 10 11  1  0  0  0  0
 10 34  1  0  0  0  0
 11 12  1  0  0  0  0
 11 13  2  0  0  0  0
 15 16  1  0  0  0  0
 15 35  1  0  0  0  0
 16 17  1  0  0  0  0
 16 20  1  0  0  0  0
 16 36  1  1  0  0  0
 17 18  1  0  0  0  0
 17 19  2  0  0  0  0
 18 37  1  0  0  0  0
 18 38  1  0  0  0  0
 20 21  1  0  0  0  0
 20 39  1  0  0  0  0
 20 40  1  0  0  0  0
 21 22  1  0  0  0  0
 21 41  1  0  0  0  0
 21 42  1  0  0  0  0
 22 43  1  0  0  0  0
 22 44  1  0  0  0  0
M  CHG  2  11   1  12  -1
M  END
>  <DRUGBANK_ID>
DB01821

>  <SECONDARY_ACCESSION_NUMBERS>
EXPT01252

>  <COMMON_NAME>
L-N(omega)-Nitroarginine-2,4-L-diaminobutyric amide

$$$$
