
 OpenBabel10282417072D

116121  0  0  1  0  0  0  0  0999 V2000
   -5.7158    2.4750    0.0000 C   0  0  0  0  0  0  0  0  0  0  0  0
   -6.4302    2.0625    0.0000 C   0  0  0  0  0  0  0  0  0  0  0  0
   -5.7158    3.3000    0.0000 C   0  0  0  0  0  0  0  0  0  0  0  0
   -6.4302    1.2375    0.0000 C   0  0  0  0  0  0  0  0  0  0  0  0
   -7.8592    6.1875    0.0000 C   0  0  0  0  0  0  0  0  0  0  0  0
   -5.0013   -2.8875    0.0000 C   0  0  0  0  0  0  0  0  0  0  0  0
   -5.0013    3.7125    0.0000 C   0  0  0  0  0  0  0  0  0  0  0  0
   -7.1447    0.8250    0.0000 C   0  0  0  0  0  0  0  0  0  0  0  0
   -7.8592    7.0125    0.0000 C   0  0  0  0  0  0  0  0  0  0  0  0
   -4.2868   -2.4750    0.0000 C   0  0  0  0  0  0  0  0  0  0  0  0
   -7.1447    5.7750    0.0000 C   0  0  0  0  0  0  0  0  0  0  0  0
   -5.7158   -2.4750    0.0000 C   0  0  0  0  0  0  0  0  0  0  0  0
   -4.2868    4.9500    0.0000 C   0  0  0  0  0  0  0  0  0  0  0  0
   -7.8592   -0.4125    0.0000 C   0  0  0  0  0  0  0  0  0  0  0  0
   -4.2868    5.7750    0.0000 C   0  0  0  0  0  0  0  0  0  0  0  0
   -7.8592   -1.2375    0.0000 C   0  0  0  0  0  0  0  0  0  0  0  0
   -6.4302    7.0125    0.0000 C   0  0  0  0  0  0  0  0  0  0  0  0
   -5.0013   -1.2375    0.0000 C   0  0  0  0  0  0  0  0  0  0  0  0
   -5.7158    4.9500    0.0000 C   0  0  0  0  0  0  0  0  0  0  0  0
   -6.4302   -0.4125    0.0000 C   0  0  0  0  0  0  0  0  0  0  0  0
   -7.1447    8.2500    0.0000 C   0  0  0  0  0  0  0  0  0  0  0  0
   -3.5724   -1.2375    0.0000 C   0  0  0  0  0  0  0  0  0  0  0  0
   -2.1434    7.0125    0.0000 C   0  0  0  0  0  0  0  0  0  0  0  0
  -10.0026   -2.4750    0.0000 C   0  0  0  0  0  0  0  0  0  0  0  0
   -5.0013    4.5375    0.0000 C   0  0  0  0  0  0  0  0  0  0  0  0
   -7.1447    0.0000    0.0000 C   0  0  0  0  0  0  0  0  0  0  0  0
   -7.1447    7.4250    0.0000 C   0  0  0  0  0  0  0  0  0  0  0  0
   -4.2868   -1.6500    0.0000 C   0  0  0  0  0  0  0  0  0  0  0  0
   -6.4302    6.1875    0.0000 C   0  0  0  0  0  0  0  0  0  0  0  0
   -5.7158   -1.6500    0.0000 C   0  0  0  0  0  0  0  0  0  0  0  0
   -5.7158    5.7750    0.0000 C   0  0  0  0  0  0  0  0  0  0  0  0
   -6.4302   -1.2375    0.0000 C   0  0  0  0  0  0  0  0  0  0  0  0
   -5.0013    6.1875    0.0000 C   0  0  0  0  0  0  0  0  0  0  0  0
   -7.1447   -1.6500    0.0000 C   0  0  0  0  0  0  0  0  0  0  0  0
   -2.8579    7.4250    0.0000 C   0  0  2  0  0  0  0  0  0  0  0  0
   -9.2881   -2.8875    0.0000 C   0  0  2  0  0  0  0  0  0  0  0  0
   -6.4302    8.6625    0.0000 C   0  0  0  0  0  0  0  0  0  0  0  0
   -2.8579   -1.6500    0.0000 C   0  0  0  0  0  0  0  0  0  0  0  0
   -2.8579    8.2500    0.0000 C   0  0  2  0  0  0  0  0  0  0  0  0
   -9.2881   -3.7125    0.0000 C   0  0  2  0  0  0  0  0  0  0  0  0
   -3.5724    8.6625    0.0000 C   0  0  1  0  0  0  0  0  0  0  0  0
   -8.5737   -4.1250    0.0000 C   0  0  1  0  0  0  0  0  0  0  0  0
   -4.2868    8.2500    0.0000 C   0  0  1  0  0  0  0  0  0  0  0  0
   -7.8592   -3.7125    0.0000 C   0  0  1  0  0  0  0  0  0  0  0  0
   -4.2868    7.4250    0.0000 C   0  0  1  0  0  0  0  0  0  0  0  0
   -7.8592   -2.8875    0.0000 C   0  0  1  0  0  0  0  0  0  0  0  0
   -1.4289    7.4250    0.0000 O   0  0  0  0  0  0  0  0  0  0  0  0
  -10.7171   -2.8875    0.0000 O   0  0  0  0  0  0  0  0  0  0  0  0
   -5.7158    8.2500    0.0000 O   0  0  0  0  0  0  0  0  0  0  0  0
   -6.4302    9.4875    0.0000 O   0  0  0  0  0  0  0  0  0  0  0  0
   -2.1434   -1.2375    0.0000 O   0  0  0  0  0  0  0  0  0  0  0  0
   -2.8579   -2.4750    0.0000 O   0  0  0  0  0  0  0  0  0  0  0  0
   -2.1434    8.6625    0.0000 O   0  0  0  0  0  0  0  0  0  0  0  0
  -10.0026   -4.1250    0.0000 O   0  0  0  0  0  0  0  0  0  0  0  0
   -3.5724    9.4875    0.0000 O   0  0  0  0  0  0  0  0  0  0  0  0
   -8.5737   -4.9500    0.0000 O   0  0  0  0  0  0  0  0  0  0  0  0
   -5.0013    8.6625    0.0000 O   0  0  0  0  0  0  0  0  0  0  0  0
   -7.1447   -4.1250    0.0000 O   0  0  0  0  0  0  0  0  0  0  0  0
   -5.0013    7.0125    0.0000 O   0  0  0  0  0  0  0  0  0  0  0  0
   -7.1447   -2.4750    0.0000 O   0  0  0  0  0  0  0  0  0  0  0  0
   -3.5724    7.0125    0.0000 O   0  0  0  0  0  0  0  0  0  0  0  0
   -8.5737   -2.4750    0.0000 O   0  0  0  0  0  0  0  0  0  0  0  0
   -2.1434    7.8375    0.0000 H   0  0  0  0  0  0  0  0  0  0  0  0
  -10.0026   -3.3000    0.0000 H   0  0  0  0  0  0  0  0  0  0  0  0
   -2.8579    9.0750    0.0000 H   0  0  0  0  0  0  0  0  0  0  0  0
   -9.2881   -4.5375    0.0000 H   0  0  0  0  0  0  0  0  0  0  0  0
   -3.5724    7.8375    0.0000 H   0  0  0  0  0  0  0  0  0  0  0  0
   -8.5737   -3.3000    0.0000 H   0  0  0  0  0  0  0  0  0  0  0  0
   -4.2868    9.0750    0.0000 H   0  0  0  0  0  0  0  0  0  0  0  0
   -7.8592   -4.5375    0.0000 H   0  0  0  0  0  0  0  0  0  0  0  0
   -5.0013    7.8375    0.0000 H   0  0  0  0  0  0  0  0  0  0  0  0
   -7.1447   -3.3000    0.0000 H   0  0  0  0  0  0  0  0  0  0  0  0
   -4.7891    1.9400    0.0000 H   0  0  0  0  0  0  0  0  0  0  0  0
   -4.7892    3.0100    0.0000 H   0  0  0  0  0  0  0  0  0  0  0  0
   -7.3569    2.5975    0.0000 H   0  0  0  0  0  0  0  0  0  0  0  0
   -7.3568    1.5275    0.0000 H   0  0  0  0  0  0  0  0  0  0  0  0
   -6.6424    3.8350    0.0000 H   0  0  0  0  0  0  0  0  0  0  0  0
   -5.7158    4.3700    0.0000 H   0  0  0  0  0  0  0  0  0  0  0  0
   -5.5036    0.7025    0.0000 H   0  0  0  0  0  0  0  0  0  0  0  0
   -6.4302    0.1675    0.0000 H   0  0  0  0  0  0  0  0  0  0  0  0
   -8.7529    5.6715    0.0000 H   0  0  0  0  0  0  0  0  0  0  0  0
   -5.0013   -3.9195    0.0000 H   0  0  0  0  0  0  0  0  0  0  0  0
   -4.0747    3.1775    0.0000 H   0  0  0  0  0  0  0  0  0  0  0  0
   -4.0747    4.2475    0.0000 H   0  0  0  0  0  0  0  0  0  0  0  0
   -8.0713    1.3600    0.0000 H   0  0  0  0  0  0  0  0  0  0  0  0
   -8.0713    0.2900    0.0000 H   0  0  0  0  0  0  0  0  0  0  0  0
   -8.7529    7.5285    0.0000 H   0  0  0  0  0  0  0  0  0  0  0  0
   -3.3931   -2.9910    0.0000 H   0  0  0  0  0  0  0  0  0  0  0  0
   -7.1447    4.7430    0.0000 H   0  0  0  0  0  0  0  0  0  0  0  0
   -6.6095   -2.9910    0.0000 H   0  0  0  0  0  0  0  0  0  0  0  0
   -3.3931    4.4340    0.0000 H   0  0  0  0  0  0  0  0  0  0  0  0
   -8.7529    0.1035    0.0000 H   0  0  0  0  0  0  0  0  0  0  0  0
   -3.3931    6.2910    0.0000 H   0  0  0  0  0  0  0  0  0  0  0  0
   -8.7529   -1.7535    0.0000 H   0  0  0  0  0  0  0  0  0  0  0  0
   -5.5365    7.5285    0.0000 H   0  0  0  0  0  0  0  0  0  0  0  0
   -5.0013   -0.2055    0.0000 H   0  0  0  0  0  0  0  0  0  0  0  0
   -6.6095    4.4340    0.0000 H   0  0  0  0  0  0  0  0  0  0  0  0
   -5.5365    0.1035    0.0000 H   0  0  0  0  0  0  0  0  0  0  0  0
   -8.0713    8.7850    0.0000 H   0  0  0  0  0  0  0  0  0  0  0  0
   -7.1447    9.3200    0.0000 H   0  0  0  0  0  0  0  0  0  0  0  0
   -3.5724   -0.1675    0.0000 H   0  0  0  0  0  0  0  0  0  0  0  0
   -2.6458   -0.7025    0.0000 H   0  0  0  0  0  0  0  0  0  0  0  0
   -2.1434    5.9425    0.0000 H   0  0  0  0  0  0  0  0  0  0  0  0
   -1.2168    6.4775    0.0000 H   0  0  0  0  0  0  0  0  0  0  0  0
  -10.0026   -1.4050    0.0000 H   0  0  0  0  0  0  0  0  0  0  0  0
  -10.9292   -1.9400    0.0000 H   0  0  0  0  0  0  0  0  0  0  0  0
   -0.5889    6.9400    0.0000 H   0  0  0  0  0  0  0  0  0  0  0  0
  -11.5571   -2.4025    0.0000 H   0  0  0  0  0  0  0  0  0  0  0  0
   -5.6187    9.9560    0.0000 H   0  0  0  0  0  0  0  0  0  0  0  0
   -3.6694   -2.9435    0.0000 H   0  0  0  0  0  0  0  0  0  0  0  0
   -1.3034    8.1775    0.0000 H   0  0  0  0  0  0  0  0  0  0  0  0
  -10.8426   -3.6400    0.0000 H   0  0  0  0  0  0  0  0  0  0  0  0
   -2.7324    9.9725    0.0000 H   0  0  0  0  0  0  0  0  0  0  0  0
   -9.4137   -5.4350    0.0000 H   0  0  0  0  0  0  0  0  0  0  0  0
   -5.0013    9.6325    0.0000 H   0  0  0  0  0  0  0  0  0  0  0  0
   -7.1447   -5.0950    0.0000 H   0  0  0  0  0  0  0  0  0  0  0  0
  1 73  1  0  0  0  0
  1 74  1  0  0  0  0
  2  1  1  0  0  0  0
  2 75  1  0  0  0  0
  2 76  1  0  0  0  0
  3  1  1  0  0  0  0
  3 77  1  0  0  0  0
  3 78  1  0  0  0  0
  4  2  1  0  0  0  0
  4 79  1  0  0  0  0
  4 80  1  0  0  0  0
  5 81  1  0  0  0  0
  6 82  1  0  0  0  0
  7  3  1  0  0  0  0
  7 83  1  0  0  0  0
  7 84  1  0  0  0  0
  8  4  1  0  0  0  0
  8 85  1  0  0  0  0
  8 86  1  0  0  0  0
  9  5  2  0  0  0  0
  9 87  1  0  0  0  0
 10  6  2  0  0  0  0
 10 88  1  0  0  0  0
 11  5  1  0  0  0  0
 11 89  1  0  0  0  0
 12  6  1  0  0  0  0
 12 90  1  0  0  0  0
 13 91  1  0  0  0  0
 14 92  1  0  0  0  0
 15 13  2  0  0  0  0
 15 93  1  0  0  0  0
 16 14  2  0  0  0  0
 16 94  1  0  0  0  0
 17 95  1  0  0  0  0
 18 96  1  0  0  0  0
 19 97  1  0  0  0  0
 20 98  1  0  0  0  0
 21 99  1  0  0  0  0
 21100  1  0  0  0  0
 22101  1  0  0  0  0
 22102  1  0  0  0  0
 23103  1  0  0  0  0
 23104  1  0  0  0  0
 24105  1  0  0  0  0
 24106  1  0  0  0  0
 25  7  1  0  0  0  0
 25 13  1  0  0  0  0
 25 19  2  0  0  0  0
 26  8  1  0  0  0  0
 26 14  1  0  0  0  0
 26 20  2  0  0  0  0
 27  9  1  0  0  0  0
 27 17  2  0  0  0  0
 27 21  1  0  0  0  0
 28 10  1  0  0  0  0
 28 18  2  0  0  0  0
 28 22  1  0  0  0  0
 29 11  2  0  0  0  0
 29 17  1  0  0  0  0
 30 12  2  0  0  0  0
 30 18  1  0  0  0  0
 31 19  1  0  0  0  0
 31 29  1  0  0  0  0
 32 20  1  0  0  0  0
 32 30  1  0  0  0  0
 33 15  1  0  0  0  0
 33 31  2  0  0  0  0
 34 16  1  0  0  0  0
 34 32  2  0  0  0  0
 35 23  1  0  0  0  0
 35 63  1  6  0  0  0
 36 24  1  0  0  0  0
 36 64  1  6  0  0  0
 37 21  1  0  0  0  0
 38 22  1  0  0  0  0
 39 35  1  0  0  0  0
 39 53  1  0  0  0  0
 39 65  1  1  0  0  0
 40 36  1  0  0  0  0
 40 54  1  0  0  0  0
 40 66  1  1  0  0  0
 41 39  1  0  0  0  0
 41 55  1  0  0  0  0
 41 67  1  6  0  0  0
 42 40  1  0  0  0  0
 42 56  1  0  0  0  0
 42 68  1  6  0  0  0
 43 41  1  0  0  0  0
 43 57  1  0  0  0  0
 43 69  1  6  0  0  0
 44 42  1  0  0  0  0
 44 58  1  0  0  0  0
 44 70  1  6  0  0  0
 45 43  1  0  0  0  0
 45 59  1  0  0  0  0
 45 71  1  1  0  0  0
 46 44  1  0  0  0  0
 46 60  1  0  0  0  0
 46 72  1  1  0  0  0
 47 23  1  0  0  0  0
 47107  1  0  0  0  0
 48 24  1  0  0  0  0
 48108  1  0  0  0  0
 49 37  2  0  0  0  0
 50 37  1  0  0  0  0
 50109  1  0  0  0  0
 51 38  2  0  0  0  0
 52 38  1  0  0  0  0
 52110  1  0  0  0  0
 53111  1  0  0  0  0
 54112  1  0  0  0  0
 55113  1  0  0  0  0
 56114  1  0  0  0  0
 57115  1  0  0  0  0
 58116  1  0  0  0  0
 59 33  1  0  0  0  0
 60 34  1  0  0  0  0
 61 35  1  0  0  0  0
 61 45  1  0  0  0  0
 62 36  1  0  0  0  0
 62 46  1  0  0  0  0
M  END
>  <DRUGBANK_ID>
DB06197

>  <COMMON_NAME>
Bimosiamose

>  <CAS_NUMBER>
187269-40-5

>  <UNII>
97B5KCW80W

>  <SYNONYMS>
Bimosiamose

$$$$
