
 OpenBabel10282417072D

 53 52  0  0  0  0  0  0  0  0999 V2000
   -4.6440   -0.2062    0.0000 C   0  0  0  0  0  0  0  0  0  0  0  0
   -3.9296   -0.6187    0.0000 C   0  0  0  0  0  0  0  0  0  0  0  0
   -3.2151   -0.2062    0.0000 C   0  0  0  0  0  0  0  0  0  0  0  0
   -2.5006   -0.6187    0.0000 C   0  0  0  0  0  0  0  0  0  0  0  0
   -1.7861   -0.2062    0.0000 C   0  0  0  0  0  0  0  0  0  0  0  0
   -0.3572   -0.2062    0.0000 C   0  0  0  0  0  0  0  0  0  0  0  0
    0.3572   -0.6187    0.0000 C   0  0  0  0  0  0  0  0  0  0  0  0
    1.0716   -0.2062    0.0000 C   0  0  0  0  0  0  0  0  0  0  0  0
    1.7861   -0.6187    0.0000 C   0  0  0  0  0  0  0  0  0  0  0  0
    2.5006   -0.2062    0.0000 C   0  0  0  0  0  0  0  0  0  0  0  0
    3.2151   -0.6187    0.0000 C   0  0  0  0  0  0  0  0  0  0  0  0
   -5.3585   -0.6187    0.0000 C   0  0  0  0  0  0  0  0  0  0  0  0
    3.9295   -0.2062    0.0000 C   0  0  0  0  0  0  0  0  0  0  0  0
   -6.0730   -0.2062    0.0000 C   0  0  0  0  0  0  0  0  0  0  0  0
    4.6440   -0.6187    0.0000 C   0  0  0  0  0  0  0  0  0  0  0  0
   -1.0717   -0.6187    0.0000 C   0  0  0  0  0  0  0  0  0  0  0  0
    5.3585    0.6187    0.0000 O   0  0  0  0  0  0  0  0  0  0  0  0
    6.0729   -0.6187    0.0000 O   0  0  0  0  0  0  0  0  0  0  0  0
    5.3585   -0.2062    0.0000 S   0  0  0  0  0  0  0  0  0  0  0  0
    6.0730    0.2062    0.0000 F   0  0  0  0  0  0  0  0  0  0  0  0
   -4.6440    0.8638    0.0000 H   0  0  0  0  0  0  0  0  0  0  0  0
   -5.5706    0.3288    0.0000 H   0  0  0  0  0  0  0  0  0  0  0  0
   -3.9296   -1.6887    0.0000 H   0  0  0  0  0  0  0  0  0  0  0  0
   -3.0030   -1.1537    0.0000 H   0  0  0  0  0  0  0  0  0  0  0  0
   -3.2151    0.8638    0.0000 H   0  0  0  0  0  0  0  0  0  0  0  0
   -2.2885    0.3288    0.0000 H   0  0  0  0  0  0  0  0  0  0  0  0
   -2.5006   -1.6887    0.0000 H   0  0  0  0  0  0  0  0  0  0  0  0
   -1.5740   -1.1537    0.0000 H   0  0  0  0  0  0  0  0  0  0  0  0
   -1.7861    0.8638    0.0000 H   0  0  0  0  0  0  0  0  0  0  0  0
   -0.8594    0.3288    0.0000 H   0  0  0  0  0  0  0  0  0  0  0  0
   -0.3572    0.8638    0.0000 H   0  0  0  0  0  0  0  0  0  0  0  0
    0.5695    0.3288    0.0000 H   0  0  0  0  0  0  0  0  0  0  0  0
    0.3572   -1.6887    0.0000 H   0  0  0  0  0  0  0  0  0  0  0  0
    1.2839   -1.1537    0.0000 H   0  0  0  0  0  0  0  0  0  0  0  0
    1.0716    0.8638    0.0000 H   0  0  0  0  0  0  0  0  0  0  0  0
    1.9982    0.3288    0.0000 H   0  0  0  0  0  0  0  0  0  0  0  0
    1.7861   -1.6887    0.0000 H   0  0  0  0  0  0  0  0  0  0  0  0
    2.7127   -1.1537    0.0000 H   0  0  0  0  0  0  0  0  0  0  0  0
    2.5006    0.8638    0.0000 H   0  0  0  0  0  0  0  0  0  0  0  0
    3.4272    0.3288    0.0000 H   0  0  0  0  0  0  0  0  0  0  0  0
    3.2151   -1.6887    0.0000 H   0  0  0  0  0  0  0  0  0  0  0  0
    4.1418   -1.1537    0.0000 H   0  0  0  0  0  0  0  0  0  0  0  0
   -5.3585   -1.6887    0.0000 H   0  0  0  0  0  0  0  0  0  0  0  0
   -6.2851   -1.1537    0.0000 H   0  0  0  0  0  0  0  0  0  0  0  0
    3.9295    0.8638    0.0000 H   0  0  0  0  0  0  0  0  0  0  0  0
    4.8561    0.3288    0.0000 H   0  0  0  0  0  0  0  0  0  0  0  0
   -6.0730    0.8638    0.0000 H   0  0  0  0  0  0  0  0  0  0  0  0
   -6.9996   -0.7412    0.0000 H   0  0  0  0  0  0  0  0  0  0  0  0
   -6.9997    0.3288    0.0000 H   0  0  0  0  0  0  0  0  0  0  0  0
    4.6440   -1.6887    0.0000 H   0  0  0  0  0  0  0  0  0  0  0  0
    5.5706   -1.1537    0.0000 H   0  0  0  0  0  0  0  0  0  0  0  0
   -1.0717   -1.6887    0.0000 H   0  0  0  0  0  0  0  0  0  0  0  0
   -0.1451   -1.1537    0.0000 H   0  0  0  0  0  0  0  0  0  0  0  0
  1 21  1  0  0  0  0
  1 22  1  0  0  0  0
  2  1  1  0  0  0  0
  2 23  1  0  0  0  0
  2 24  1  0  0  0  0
  3  2  1  0  0  0  0
  3 25  1  0  0  0  0
  3 26  1  0  0  0  0
  4  3  1  0  0  0  0
  4 27  1  0  0  0  0
  4 28  1  0  0  0  0
  5  4  1  0  0  0  0
  5 29  1  0  0  0  0
  5 30  1  0  0  0  0
  6 16  1  0  0  0  0
  6 31  1  0  0  0  0
  6 32  1  0  0  0  0
  7  6  1  0  0  0  0
  7 33  1  0  0  0  0
  7 34  1  0  0  0  0
  8  7  1  0  0  0  0
  8 35  1  0  0  0  0
  8 36  1  0  0  0  0
  9  8  1  0  0  0  0
  9 37  1  0  0  0  0
  9 38  1  0  0  0  0
 10  9  1  0  0  0  0
 10 39  1  0  0  0  0
 10 40  1  0  0  0  0
 11 10  1  0  0  0  0
 11 41  1  0  0  0  0
 11 42  1  0  0  0  0
 12  1  1  0  0  0  0
 12 43  1  0  0  0  0
 12 44  1  0  0  0  0
 13 11  1  0  0  0  0
 13 45  1  0  0  0  0
 13 46  1  0  0  0  0
 14 12  1  0  0  0  0
 14 47  1  0  0  0  0
 14 48  1  0  0  0  0
 14 49  1  0  0  0  0
 15 13  1  0  0  0  0
 15 50  1  0  0  0  0
 15 51  1  0  0  0  0
 16  5  1  0  0  0  0
 16 52  1  0  0  0  0
 16 53  1  0  0  0  0
 19 15  1  0  0  0  0
 19 17  2  0  0  0  0
 19 18  2  0  0  0  0
 19 20  1  0  0  0  0
M  END
>  <DRUGBANK_ID>
DB02035

>  <SECONDARY_ACCESSION_NUMBERS>
EXPT01783

>  <COMMON_NAME>
Hexadecanesulfonyl fluoride

>  <CAS_NUMBER>
86855-26-7

>  <UNII>
ANCAJYD3FV

>  <SYNONYMS>
1-Hexadecanesulfonyl fluoride; Hexadecane-1-sulfonyl fluoride

$$$$
