
 OpenBabel10282417072D

 45 46  0  0  1  0  0  0  0  0999 V2000
    2.0728    0.1685    0.0000 C   0  0  2  0  0  0  0  0  0  0  0  0
    2.8634    0.4296    0.0000 N   0  0  0  0  0  0  0  0  0  0  0  0
    1.4300    0.6428    0.0000 O   0  0  0  0  0  0  0  0  0  0  0  0
    1.8321   -0.6394    0.0000 C   0  0  1  0  0  0  0  0  0  0  0  0
    3.4821   -0.1203    0.0000 C   0  0  0  0  0  0  0  0  0  0  0  0
    3.0352    1.2340    0.0000 C   0  0  0  0  0  0  0  0  0  0  0  0
    0.7597    0.1478    0.0000 C   0  0  1  0  0  0  0  0  0  0  0  0
    1.0071   -0.6394    0.0000 C   0  0  1  0  0  0  0  0  0  0  0  0
    2.3168   -1.3028    0.0000 O   0  0  0  0  0  0  0  0  0  0  0  0
    4.2693    0.1375    0.0000 N   0  0  0  0  0  0  0  0  0  0  0  0
    3.3171   -0.9281    0.0000 O   0  0  0  0  0  0  0  0  0  0  0  0
    3.8156    1.4988    0.0000 C   0  0  0  0  0  0  0  0  0  0  0  0
   -0.0275    0.4021    0.0000 C   0  0  0  0  0  0  0  0  0  0  0  0
    0.5156   -1.2994    0.0000 O   0  0  0  0  0  0  0  0  0  0  0  0
    4.4377    0.9487    0.0000 C   0  0  0  0  0  0  0  0  0  0  0  0
   -0.6359   -0.1478    0.0000 O   0  0  0  0  0  0  0  0  0  0  0  0
    5.2214    1.2031    0.0000 N   0  0  0  0  0  0  0  0  0  0  0  0
   -1.4575   -0.1478    0.0000 P   0  0  3  0  0  0  0  0  0  0  0  0
   -2.2790   -0.1478    0.0000 O   0  0  0  0  0  0  0  0  0  0  0  0
   -1.4609   -0.9728    0.0000 O   0  0  0  0  0  0  0  0  0  0  0  0
   -1.4609    0.6738    0.0000 O   0  0  0  0  0  0  0  0  0  0  0  0
   -3.1040   -0.1443    0.0000 P   0  0  3  0  0  0  0  0  0  0  0  0
   -3.9255   -0.1443    0.0000 O   0  0  0  0  0  0  0  0  0  0  0  0
   -3.1074   -0.9660    0.0000 O   0  0  0  0  0  0  0  0  0  0  0  0
   -3.1074    0.6772    0.0000 O   0  0  0  0  0  0  0  0  0  0  0  0
   -4.7471   -0.1410    0.0000 P   0  0  0  0  0  0  0  0  0  0  0  0
   -4.7505   -0.9625    0.0000 O   0  0  0  0  0  0  0  0  0  0  0  0
   -5.5687   -0.1375    0.0000 O   0  0  0  0  0  0  0  0  0  0  0  0
   -4.7505    0.6807    0.0000 O   0  0  0  0  0  0  0  0  0  0  0  0
    2.2415    1.2251    0.0000 H   0  0  0  0  0  0  0  0  0  0  0  0
    2.8865   -0.4576    0.0000 H   0  0  0  0  0  0  0  0  0  0  0  0
    2.2641    1.9199    0.0000 H   0  0  0  0  0  0  0  0  0  0  0  0
    0.5873    1.2038    0.0000 H   0  0  0  0  0  0  0  0  0  0  0  0
    1.4872   -1.5956    0.0000 H   0  0  0  0  0  0  0  0  0  0  0  0
    1.9246   -2.1900    0.0000 H   0  0  0  0  0  0  0  0  0  0  0  0
    4.0191    2.5105    0.0000 H   0  0  0  0  0  0  0  0  0  0  0  0
   -0.2518    1.4483    0.0000 H   0  0  0  0  0  0  0  0  0  0  0  0
   -1.0457    0.7309    0.0000 H   0  0  0  0  0  0  0  0  0  0  0  0
   -0.4478   -1.1867    0.0000 H   0  0  0  0  0  0  0  0  0  0  0  0
    5.9528    0.5441    0.0000 H   0  0  0  0  0  0  0  0  0  0  0  0
    5.4264    2.1660    0.0000 H   0  0  0  0  0  0  0  0  0  0  0  0
   -2.3029   -1.4543    0.0000 H   0  0  0  0  0  0  0  0  0  0  0  0
   -3.9494   -1.4475    0.0000 H   0  0  0  0  0  0  0  0  0  0  0  0
   -5.5925   -1.4440    0.0000 H   0  0  0  0  0  0  0  0  0  0  0  0
   -6.0501    0.7046    0.0000 H   0  0  0  0  0  0  0  0  0  0  0  0
  1  2  1  0  0  0  0
  1  3  1  0  0  0  0
  1  4  1  0  0  0  0
  1 30  1  6  0  0  0
  2  5  1  0  0  0  0
  2  6  1  0  0  0  0
  3  7  1  0  0  0  0
  4  8  1  0  0  0  0
  4  9  1  0  0  0  0
  4 31  1  1  0  0  0
  5 10  1  0  0  0  0
  5 11  2  0  0  0  0
  6 12  2  0  0  0  0
  6 32  1  0  0  0  0
  7 13  1  0  0  0  0
  7  8  1  0  0  0  0
  7 33  1  6  0  0  0
  8 14  1  0  0  0  0
  8 34  1  1  0  0  0
  9 35  1  0  0  0  0
 10 15  2  0  0  0  0
 12 15  1  0  0  0  0
 12 36  1  0  0  0  0
 13 16  1  0  0  0  0
 13 37  1  0  0  0  0
 13 38  1  0  0  0  0
 14 39  1  0  0  0  0
 15 17  1  0  0  0  0
 16 18  1  0  0  0  0
 17 40  1  0  0  0  0
 17 41  1  0  0  0  0
 18 19  1  0  0  0  0
 18 20  1  0  0  0  0
 18 21  2  0  0  0  0
 19 22  1  0  0  0  0
 20 42  1  0  0  0  0
 22 23  1  0  0  0  0
 22 24  1  0  0  0  0
 22 25  2  0  0  0  0
 23 26  1  0  0  0  0
 24 43  1  0  0  0  0
 26 27  1  0  0  0  0
 26 28  1  0  0  0  0
 26 29  2  0  0  0  0
 27 44  1  0  0  0  0
 28 45  1  0  0  0  0
M  END
>  <DRUGBANK_ID>
DB02431

>  <SECONDARY_ACCESSION_NUMBERS>
EXPT01053

>  <COMMON_NAME>
Cytidine-5'-Triphosphate

>  <CAS_NUMBER>
65-47-4

>  <UNII>
K0118UX80T

$$$$
