
 OpenBabel10282417072D

 25 25  0  0  0  0  0  0  0  0999 V2000
   -0.7535    0.3964    0.0000 N   0  0  0  0  0  0  0  0  0  0  0  0
   -0.0860    0.8813    0.0000 C   0  0  0  0  0  0  0  0  0  0  0  0
   -1.4209    0.8813    0.0000 C   0  0  0  0  0  0  0  0  0  0  0  0
   -0.7535   -0.4285    0.0000 C   0  0  0  0  0  0  0  0  0  0  0  0
   -0.3410    1.6659    0.0000 C   0  0  0  0  0  0  0  0  0  0  0  0
   -1.1660    1.6659    0.0000 N   0  0  0  0  0  0  0  0  0  0  0  0
   -0.0391   -0.8410    0.0000 C   0  0  0  0  0  0  0  0  0  0  0  0
    0.6753   -0.4285    0.0000 N   0  0  0  0  0  0  0  0  0  0  0  0
    1.3897   -0.8410    0.0000 C   0  0  0  0  0  0  0  0  0  0  0  0
   -0.0391   -1.6659    0.0000 O   0  0  0  0  0  0  0  0  0  0  0  0
    2.1042   -0.4285    0.0000 C   0  0  0  0  0  0  0  0  0  0  0  0
    2.8186   -0.8410    0.0000 O   0  0  0  0  0  0  0  0  0  0  0  0
   -2.2055    0.6264    0.0000 N   0  3  0  0  0  0  0  0  0  0  0  0
   -2.3770   -0.1805    0.0000 O   0  5  0  0  0  0  0  0  0  0  0  0
   -2.8186    1.1784    0.0000 O   0  0  0  0  0  0  0  0  0  0  0  0
    0.8955    0.5624    0.0000 H   0  0  0  0  0  0  0  0  0  0  0  0
   -1.6802   -0.9635    0.0000 H   0  0  0  0  0  0  0  0  0  0  0  0
   -1.6801    0.1065    0.0000 H   0  0  0  0  0  0  0  0  0  0  0  0
    0.2656    2.5008    0.0000 H   0  0  0  0  0  0  0  0  0  0  0  0
    0.6753    0.5560    0.0000 H   0  0  0  0  0  0  0  0  0  0  0  0
    1.3897   -1.9110    0.0000 H   0  0  0  0  0  0  0  0  0  0  0  0
    2.3163   -1.3760    0.0000 H   0  0  0  0  0  0  0  0  0  0  0  0
    2.1042    0.6415    0.0000 H   0  0  0  0  0  0  0  0  0  0  0  0
    3.0309    0.1065    0.0000 H   0  0  0  0  0  0  0  0  0  0  0  0
    2.8186   -1.8110    0.0000 H   0  0  0  0  0  0  0  0  0  0  0  0
  1  2  1  0  0  0  0
  1  3  1  0  0  0  0
  1  4  1  0  0  0  0
  2  5  2  0  0  0  0
  2 16  1  0  0  0  0
  3  6  2  0  0  0  0
  3 13  1  0  0  0  0
  4  7  1  0  0  0  0
  4 17  1  0  0  0  0
  4 18  1  0  0  0  0
  5  6  1  0  0  0  0
  5 19  1  0  0  0  0
  7  8  1  0  0  0  0
  7 10  2  0  0  0  0
  8  9  1  0  0  0  0
  8 20  1  0  0  0  0
  9 11  1  0  0  0  0
  9 21  1  0  0  0  0
  9 22  1  0  0  0  0
 11 12  1  0  0  0  0
 11 23  1  0  0  0  0
 11 24  1  0  0  0  0
 12 25  1  0  0  0  0
 14 13  1  0  0  0  0
 15 13  2  0  0  0  0
M  CHG  2  13   1  14  -1
M  END
>  <DRUGBANK_ID>
DB12736

>  <COMMON_NAME>
Etanidazole

>  <CAS_NUMBER>
22668-01-5

>  <UNII>
30DKA3Q1HL

>  <SYNONYMS>
Etanidazol; Etanidazole; Etanidazolum

$$$$
