177
 OpenBabel10282417072D

 68 70  0  0  0  0  0  0  0  0999 V2000
   -2.0300    1.2610    0.0000 C   0  0  0  0  0  0  0  0  0  0  0  0
   -2.2015    0.4540    0.0000 C   0  0  0  0  0  0  0  0  0  0  0  0
   -2.6431    1.8130    0.0000 C   0  0  0  0  0  0  0  0  0  0  0  0
   -2.9862    0.1991    0.0000 C   0  0  0  0  0  0  0  0  0  0  0  0
   -3.4277    1.5581    0.0000 C   0  0  0  0  0  0  0  0  0  0  0  0
   -3.5993    0.7511    0.0000 C   0  0  0  0  0  0  0  0  0  0  0  0
   -0.6323    0.9639    0.0000 C   0  0  0  0  0  0  0  0  0  0  0  0
   -0.8038    0.1569    0.0000 O   0  0  0  0  0  0  0  0  0  0  0  0
   -1.0739    2.3229    0.0000 N   0  0  0  0  0  0  0  0  0  0  0  0
   -1.2454    1.5159    0.0000 C   0  0  2  0  0  0  0  0  0  0  0  0
    0.1523    1.2188    0.0000 N   0  0  0  0  0  0  0  0  0  0  0  0
    0.4073    2.0034    0.0000 C   0  0  0  0  0  0  0  0  0  0  0  0
    0.8198    0.7339    0.0000 C   0  0  1  0  0  0  0  0  0  0  0  0
    1.4872    1.2188    0.0000 C   0  0  0  0  0  0  0  0  0  0  0  0
    1.2323    2.0034    0.0000 C   0  0  0  0  0  0  0  0  0  0  0  0
    0.8198   -0.0911    0.0000 C   0  0  0  0  0  0  0  0  0  0  0  0
    1.5342   -0.5036    0.0000 O   0  0  0  0  0  0  0  0  0  0  0  0
    0.1053   -0.5036    0.0000 N   0  0  0  0  0  0  0  0  0  0  0  0
    0.1053   -1.3286    0.0000 C   0  0  0  0  0  0  0  0  0  0  0  0
   -0.6092   -1.7411    0.0000 C   0  0  0  0  0  0  0  0  0  0  0  0
   -0.6092   -2.5661    0.0000 C   0  0  0  0  0  0  0  0  0  0  0  0
   -1.3237   -2.9786    0.0000 C   0  0  0  0  0  0  0  0  0  0  0  0
   -2.0381   -2.5661    0.0000 C   0  0  0  0  0  0  0  0  0  0  0  0
   -2.0381   -1.7411    0.0000 C   0  0  0  0  0  0  0  0  0  0  0  0
   -1.3237   -1.3286    0.0000 C   0  0  0  0  0  0  0  0  0  0  0  0
   -2.7526   -1.3286    0.0000 Cl  0  0  0  0  0  0  0  0  0  0  0  0
    0.1053   -2.9786    0.0000 O   0  0  0  0  0  0  0  0  0  0  0  0
    0.8198   -2.5661    0.0000 C   0  0  0  0  0  0  0  0  0  0  0  0
    1.5342   -2.9786    0.0000 C   0  0  0  0  0  0  0  0  0  0  0  0
    1.5342   -3.8036    0.0000 O   0  0  0  0  0  0  0  0  0  0  0  0
    2.2487   -2.5661    0.0000 N   0  0  0  0  0  0  0  0  0  0  0  0
    2.9632   -2.9786    0.0000 C   0  0  0  0  0  0  0  0  0  0  0  0
    3.6776   -2.5661    0.0000 C   0  0  0  0  0  0  0  0  0  0  0  0
   -1.1641    0.9377    0.0000 H   0  0  0  0  0  0  0  0  0  0  0  0
    0.2995    0.4688    0.0000 H   0  0  0  0  0  0  0  0  0  0  0  0
   -1.8075    2.3076    0.0000 H   0  0  0  0  0  0  0  0  0  0  0  0
   -1.4063   -0.2620    0.0000 H   0  0  0  0  0  0  0  0  0  0  0  0
   -2.4240   -0.5926    0.0000 H   0  0  0  0  0  0  0  0  0  0  0  0
   -2.4206    2.8596    0.0000 H   0  0  0  0  0  0  0  0  0  0  0  0
   -3.4383    2.5290    0.0000 H   0  0  0  0  0  0  0  0  0  0  0  0
   -3.2087   -0.8475    0.0000 H   0  0  0  0  0  0  0  0  0  0  0  0
   -4.0038   -0.1316    0.0000 H   0  0  0  0  0  0  0  0  0  0  0  0
   -4.2228    2.2741    0.0000 H   0  0  0  0  0  0  0  0  0  0  0  0
   -4.4454    1.2275    0.0000 H   0  0  0  0  0  0  0  0  0  0  0  0
   -4.6169    0.4205    0.0000 H   0  0  0  0  0  0  0  0  0  0  0  0
   -4.3944    1.4671    0.0000 H   0  0  0  0  0  0  0  0  0  0  0  0
   -0.1038    2.6381    0.0000 H   0  0  0  0  0  0  0  0  0  0  0  0
   -1.8319    3.0054    0.0000 H   0  0  0  0  0  0  0  0  0  0  0  0
   -0.2216    2.8691    0.0000 H   0  0  0  0  0  0  0  0  0  0  0  0
    0.8931    2.9568    0.0000 H   0  0  0  0  0  0  0  0  0  0  0  0
    2.5048    0.8881    0.0000 H   0  0  0  0  0  0  0  0  0  0  0  0
    2.2438    1.9754    0.0000 H   0  0  0  0  0  0  0  0  0  0  0  0
    1.8612    2.8690    0.0000 H   0  0  0  0  0  0  0  0  0  0  0  0
    2.2891    1.8360    0.0000 H   0  0  0  0  0  0  0  0  0  0  0  0
   -0.7473   -0.0113    0.0000 H   0  0  0  0  0  0  0  0  0  0  0  0
    1.0319   -1.8636    0.0000 H   0  0  0  0  0  0  0  0  0  0  0  0
    0.1053   -2.3986    0.0000 H   0  0  0  0  0  0  0  0  0  0  0  0
   -1.3237   -4.0106    0.0000 H   0  0  0  0  0  0  0  0  0  0  0  0
   -2.9318   -3.0821    0.0000 H   0  0  0  0  0  0  0  0  0  0  0  0
   -1.3237   -0.2966    0.0000 H   0  0  0  0  0  0  0  0  0  0  0  0
    0.8198   -1.4961    0.0000 H   0  0  0  0  0  0  0  0  0  0  0  0
    1.7465   -2.0311    0.0000 H   0  0  0  0  0  0  0  0  0  0  0  0
    2.2487   -1.5816    0.0000 H   0  0  0  0  0  0  0  0  0  0  0  0
    2.9632   -4.0486    0.0000 H   0  0  0  0  0  0  0  0  0  0  0  0
    3.8899   -3.5136    0.0000 H   0  0  0  0  0  0  0  0  0  0  0  0
    4.6043   -3.1011    0.0000 H   0  0  0  0  0  0  0  0  0  0  0  0
    3.6776   -1.4961    0.0000 H   0  0  0  0  0  0  0  0  0  0  0  0
    4.6042   -2.0311    0.0000 H   0  0  0  0  0  0  0  0  0  0  0  0
  1  2  1  0  0  0  0
  1  3  1  0  0  0  0
  1 10  1  0  0  0  0
  1 36  1  0  0  0  0
  2  4  1  0  0  0  0
  2 37  1  0  0  0  0
  2 38  1  0  0  0  0
  3  5  1  0  0  0  0
  3 39  1  0  0  0  0
  3 40  1  0  0  0  0
  4  6  1  0  0  0  0
  4 41  1  0  0  0  0
  4 42  1  0  0  0  0
  5  6  1  0  0  0  0
  5 43  1  0  0  0  0
  5 44  1  0  0  0  0
  6 45  1  0  0  0  0
  6 46  1  0  0  0  0
  7  8  2  0  0  0  0
  7 10  1  0  0  0  0
  7 11  1  0  0  0  0
  9 47  1  0  0  0  0
  9 48  1  0  0  0  0
 10  9  1  0  0  0  0
 10 34  1  6  0  0  0
 11 12  1  0  0  0  0
 11 13  1  0  0  0  0
 12 15  1  0  0  0  0
 12 49  1  0  0  0  0
 12 50  1  0  0  0  0
 13 14  1  0  0  0  0
 13 16  1  0  0  0  0
 13 35  1  6  0  0  0
 14 15  1  0  0  0  0
 14 51  1  0  0  0  0
 14 52  1  0  0  0  0
 15 53  1  0  0  0  0
 15 54  1  0  0  0  0
 16 17  2  0  0  0  0
 16 18  1  0  0  0  0
 18 19  1  0  0  0  0
 18 55  1  0  0  0  0
 19 20  1  0  0  0  0
 19 56  1  0  0  0  0
 19 57  1  0  0  0  0
 20 21  2  0  0  0  0
 20 25  1  0  0  0  0
 21 22  1  0  0  0  0
 21 27  1  0  0  0  0
 22 23  2  0  0  0  0
 22 58  1  0  0  0  0
 23 24  1  0  0  0  0
 23 59  1  0  0  0  0
 24 25  2  0  0  0  0
 24 26  1  0  0  0  0
 25 60  1  0  0  0  0
 27 28  1  0  0  0  0
 28 29  1  0  0  0  0
 28 61  1  0  0  0  0
 28 62  1  0  0  0  0
 29 30  2  0  0  0  0
 29 31  1  0  0  0  0
 31 32  1  0  0  0  0
 31 63  1  0  0  0  0
 32 33  1  0  0  0  0
 32 64  1  0  0  0  0
 32 65  1  0  0  0  0
 33 66  1  0  0  0  0
 33 67  1  0  0  0  0
 33 68  1  0  0  0  0
M  END
>  <DRUGBANK_ID>
DB06869

>  <COMMON_NAME>
1-[2-AMINO-2-CYCLOHEXYL-ACETYL]-PYRROLIDINE-3-CARBOXYLIC ACID 5-CHLORO-2-(2-ETHYLCARBAMOYL-ETHOXY)-BENZYLAMIDE

$$$$
