662
 OpenBabel10282417072D

 56 57  0  0  0  0  0  0  0  0999 V2000
    7.3659    2.0625    0.0000 O   0  0  0  0  0  0  0  0  0  0  0  0
    2.3645   -3.3001    0.0000 O   0  0  0  0  0  0  0  0  0  0  0  0
    5.2224   -3.3001    0.0000 O   0  0  0  0  0  0  0  0  0  0  0  0
    3.7935   -4.1251    0.0000 O   0  0  0  0  0  0  0  0  0  0  0  0
    3.0791   -0.4125    0.0000 O   0  0  0  0  0  0  0  0  0  0  0  0
    8.0804    4.1251    0.0000 N   0  0  0  0  0  0  0  0  0  0  0  0
    4.5080   -0.4125    0.0000 N   0  0  0  0  0  0  0  0  0  0  0  0
    8.0804    3.3001    0.0000 C   0  0  0  0  0  0  0  0  0  0  0  0
    5.2224    0.8250    0.0000 C   0  0  0  0  0  0  0  0  0  0  0  0
    4.5080    0.4125    0.0000 C   0  0  0  0  0  0  0  0  0  0  0  0
    7.3659    2.8876    0.0000 C   0  0  0  0  0  0  0  0  0  0  0  0
    6.6515    1.6500    0.0000 C   0  0  0  0  0  0  0  0  0  0  0  0
    3.7935   -1.6500    0.0000 C   0  0  0  0  0  0  0  0  0  0  0  0
    5.2224    1.6500    0.0000 C   0  0  0  0  0  0  0  0  0  0  0  0
    5.9370    0.4125    0.0000 C   0  0  0  0  0  0  0  0  0  0  0  0
    5.9370    2.0625    0.0000 C   0  0  0  0  0  0  0  0  0  0  0  0
    6.6515    0.8250    0.0000 C   0  0  0  0  0  0  0  0  0  0  0  0
    3.7935   -0.8250    0.0000 C   0  0  0  0  0  0  0  0  0  0  0  0
    4.5080   -2.0625    0.0000 C   0  0  0  0  0  0  0  0  0  0  0  0
    3.0791   -2.0625    0.0000 C   0  0  0  0  0  0  0  0  0  0  0  0
    3.0791   -2.8876    0.0000 C   0  0  0  0  0  0  0  0  0  0  0  0
    4.5080   -2.8876    0.0000 C   0  0  0  0  0  0  0  0  0  0  0  0
    3.7935   -3.3001    0.0000 C   0  0  0  0  0  0  0  0  0  0  0  0
    7.3659    4.5376    0.0000 C   0  0  0  0  0  0  0  0  0  0  0  0
    8.7949    4.5376    0.0000 C   0  0  0  0  0  0  0  0  0  0  0  0
    1.6500   -2.8876    0.0000 C   0  0  0  0  0  0  0  0  0  0  0  0
    5.9370   -2.8876    0.0000 C   0  0  0  0  0  0  0  0  0  0  0  0
    3.0791   -4.5376    0.0000 C   0  0  0  0  0  0  0  0  0  0  0  0
    5.3606   -0.9048    0.0000 H   0  0  0  0  0  0  0  0  0  0  0  0
    9.0070    2.7651    0.0000 H   0  0  0  0  0  0  0  0  0  0  0  0
    8.0804    2.2301    0.0000 H   0  0  0  0  0  0  0  0  0  0  0  0
    3.5813    0.9475    0.0000 H   0  0  0  0  0  0  0  0  0  0  0  0
    4.5080    1.4825    0.0000 H   0  0  0  0  0  0  0  0  0  0  0  0
    6.4393    3.4226    0.0000 H   0  0  0  0  0  0  0  0  0  0  0  0
    7.3659    3.9576    0.0000 H   0  0  0  0  0  0  0  0  0  0  0  0
    4.3287    2.1660    0.0000 H   0  0  0  0  0  0  0  0  0  0  0  0
    5.9370   -0.6195    0.0000 H   0  0  0  0  0  0  0  0  0  0  0  0
    5.9370    3.0945    0.0000 H   0  0  0  0  0  0  0  0  0  0  0  0
    7.5452    0.3090    0.0000 H   0  0  0  0  0  0  0  0  0  0  0  0
    5.4017   -1.5465    0.0000 H   0  0  0  0  0  0  0  0  0  0  0  0
    2.1854   -1.5465    0.0000 H   0  0  0  0  0  0  0  0  0  0  0  0
    7.3659    5.6076    0.0000 H   0  0  0  0  0  0  0  0  0  0  0  0
    6.4393    4.0026    0.0000 H   0  0  0  0  0  0  0  0  0  0  0  0
    6.4392    5.0726    0.0000 H   0  0  0  0  0  0  0  0  0  0  0  0
    9.7215    4.0026    0.0000 H   0  0  0  0  0  0  0  0  0  0  0  0
    8.7949    5.6076    0.0000 H   0  0  0  0  0  0  0  0  0  0  0  0
    9.7216    5.0726    0.0000 H   0  0  0  0  0  0  0  0  0  0  0  0
    1.6500   -1.8176    0.0000 H   0  0  0  0  0  0  0  0  0  0  0  0
    0.7234   -3.4226    0.0000 H   0  0  0  0  0  0  0  0  0  0  0  0
    0.7233   -2.3526    0.0000 H   0  0  0  0  0  0  0  0  0  0  0  0
    6.8636   -3.4227    0.0000 H   0  0  0  0  0  0  0  0  0  0  0  0
    5.9371   -1.8176    0.0000 H   0  0  0  0  0  0  0  0  0  0  0  0
    6.8637   -2.3527    0.0000 H   0  0  0  0  0  0  0  0  0  0  0  0
    2.1524   -4.0026    0.0000 H   0  0  0  0  0  0  0  0  0  0  0  0
    3.0791   -5.6076    0.0000 H   0  0  0  0  0  0  0  0  0  0  0  0
    2.1525   -5.0726    0.0000 H   0  0  0  0  0  0  0  0  0  0  0  0
  1 11  1  0  0  0  0
  1 12  1  0  0  0  0
  2 21  1  0  0  0  0
  2 26  1  0  0  0  0
  3 22  1  0  0  0  0
  3 27  1  0  0  0  0
  4 23  1  0  0  0  0
  4 28  1  0  0  0  0
  5 18  2  0  0  0  0
  6  8  1  0  0  0  0
  6 24  1  0  0  0  0
  6 25  1  0  0  0  0
  7 10  1  0  0  0  0
  7 18  1  0  0  0  0
  7 29  1  0  0  0  0
  8 11  1  0  0  0  0
  8 30  1  0  0  0  0
  8 31  1  0  0  0  0
  9 10  1  0  0  0  0
  9 14  2  0  0  0  0
  9 15  1  0  0  0  0
 10 32  1  0  0  0  0
 10 33  1  0  0  0  0
 11 34  1  0  0  0  0
 11 35  1  0  0  0  0
 12 16  2  0  0  0  0
 12 17  1  0  0  0  0
 13 18  1  0  0  0  0
 13 19  2  0  0  0  0
 13 20  1  0  0  0  0
 14 16  1  0  0  0  0
 14 36  1  0  0  0  0
 15 17  2  0  0  0  0
 15 37  1  0  0  0  0
 16 38  1  0  0  0  0
 17 39  1  0  0  0  0
 19 22  1  0  0  0  0
 19 40  1  0  0  0  0
 20 21  2  0  0  0  0
 20 41  1  0  0  0  0
 21 23  1  0  0  0  0
 22 23  2  0  0  0  0
 24 42  1  0  0  0  0
 24 43  1  0  0  0  0
 24 44  1  0  0  0  0
 25 45  1  0  0  0  0
 25 46  1  0  0  0  0
 25 47  1  0  0  0  0
 26 48  1  0  0  0  0
 26 49  1  0  0  0  0
 26 50  1  0  0  0  0
 27 51  1  0  0  0  0
 27 52  1  0  0  0  0
 27 53  1  0  0  0  0
 28 54  1  0  0  0  0
 28 55  1  0  0  0  0
 28 56  1  0  0  0  0
M  END
>  <DRUGBANK_ID>
DB00662

>  <SECONDARY_ACCESSION_NUMBERS>
APRD01277

>  <COMMON_NAME>
Trimethobenzamide

>  <CAS_NUMBER>
138-56-7

>  <UNII>
W2X096QY97

>  <SYNONYMS>
N-[[4-(2-dimethylaminoethoxy)phenyl]methyl]-3,4,5-trimethoxybenzamide; Trimethobenzamide; Trimethobenzamidum; Trimetobenzamida

$$$$
