
 OpenBabel10282417072D

 47 51  0  0  0  0  0  0  0  0999 V2000
   -1.4761   -0.4616    0.0000 C   0  0  1  0  0  0  0  0  0  0  0  0
   -2.1907   -0.0493    0.0000 C   0  0  2  0  0  0  0  0  0  0  0  0
   -2.1907    0.7660    0.0000 C   0  0  0  0  0  0  0  0  0  0  0  0
   -1.4761    1.1783    0.0000 C   0  0  0  0  0  0  0  0  0  0  0  0
    1.3640    1.1783    0.0000 C   0  0  0  0  0  0  0  0  0  0  0  0
    2.0786    0.7660    0.0000 C   0  0  0  0  0  0  0  0  0  0  0  0
    2.0786   -0.0493    0.0000 C   0  0  1  0  0  0  0  0  0  0  0  0
    1.9136   -0.8738    0.0000 C   0  0  0  0  0  0  0  0  0  0  0  0
    0.8142   -0.8738    0.0000 C   0  0  0  0  0  0  0  0  0  0  0  0
   -0.7707    0.7660    0.0000 C   0  0  2  0  0  0  0  0  0  0  0  0
    1.3640   -0.4616    0.0000 C   0  0  0  0  0  0  0  0  0  0  0  0
   -0.7707   -0.0493    0.0000 C   0  0  2  0  0  0  0  0  0  0  0  0
    0.6493    0.7660    0.0000 C   0  0  1  0  0  0  0  0  0  0  0  0
   -0.0560   -0.4616    0.0000 C   0  0  1  0  0  0  0  0  0  0  0  0
    0.6493   -0.0493    0.0000 C   0  0  2  0  0  0  0  0  0  0  0  0
   -0.7707   -0.9637    0.0000 H   0  0  0  0  0  0  0  0  0  0  0  0
   -2.8910   -0.4533    0.0000 O   0  0  0  0  0  0  0  0  0  0  0  0
   -1.4656   -1.2059    0.0000 C   0  0  0  0  0  0  0  0  0  0  0  0
   -0.0537   -1.3025    0.0000 C   0  0  0  0  0  0  0  0  0  0  0  0
    0.6757   -1.7208    0.0000 O   0  0  0  0  0  0  0  0  0  0  0  0
   -0.7808   -1.7250    0.0000 O   0  0  0  0  0  0  0  0  0  0  0  0
    2.5146   -1.4783    0.0000 C   0  0  0  0  0  0  0  0  0  0  0  0
    2.8910   -0.0528    0.0000 O   0  0  0  0  0  0  0  0  0  0  0  0
    0.6566    1.5968    0.0000 H   0  0  0  0  0  0  0  0  0  0  0  0
   -0.7688    1.7250    0.0000 O   0  0  0  0  0  0  0  0  0  0  0  0
   -1.7218    0.3715    0.0000 C   0  0  0  0  0  0  0  0  0  0  0  0
   -1.0651    0.2513    0.0000 O   0  0  0  0  0  0  0  0  0  0  0  0
   -2.1907   -1.1193    0.0000 H   0  0  0  0  0  0  0  0  0  0  0  0
   -3.0844    1.2821    0.0000 H   0  0  0  0  0  0  0  0  0  0  0  0
   -1.4732    2.2103    0.0000 H   0  0  0  0  0  0  0  0  0  0  0  0
    1.3640    2.2483    0.0000 H   0  0  0  0  0  0  0  0  0  0  0  0
    2.2906    1.7134    0.0000 H   0  0  0  0  0  0  0  0  0  0  0  0
    3.0052    1.3011    0.0000 H   0  0  0  0  0  0  0  0  0  0  0  0
    3.0053    0.2311    0.0000 H   0  0  0  0  0  0  0  0  0  0  0  0
    0.1358   -1.7013    0.0000 H   0  0  0  0  0  0  0  0  0  0  0  0
    1.2719   -1.8409    0.0000 H   0  0  0  0  0  0  0  0  0  0  0  0
    1.3640   -1.5316    0.0000 H   0  0  0  0  0  0  0  0  0  0  0  0
    2.2906   -0.9967    0.0000 H   0  0  0  0  0  0  0  0  0  0  0  0
   -0.9818   -0.9980    0.0000 H   0  0  0  0  0  0  0  0  0  0  0  0
   -3.7309    0.0320    0.0000 H   0  0  0  0  0  0  0  0  0  0  0  0
   -2.3846   -1.7539    0.0000 H   0  0  0  0  0  0  0  0  0  0  0  0
   -0.5315   -1.7278    0.0000 H   0  0  0  0  0  0  0  0  0  0  0  0
   -1.4505   -2.2758    0.0000 H   0  0  0  0  0  0  0  0  0  0  0  0
   -1.5936   -1.2588    0.0000 H   0  0  0  0  0  0  0  0  0  0  0  0
    2.2446   -2.4744    0.0000 H   0  0  0  0  0  0  0  0  0  0  0  0
    3.5122   -1.2141    0.0000 H   0  0  0  0  0  0  0  0  0  0  0  0
    3.3724   -0.8949    0.0000 H   0  0  0  0  0  0  0  0  0  0  0  0
  1 12  1  0  0  0  0
  1 18  1  6  0  0  0
  1 26  1  0  0  0  0
  2  1  1  0  0  0  0
  2  3  1  0  0  0  0
  2 17  1  0  0  0  0
  2 28  1  6  0  0  0
  3  4  2  0  0  0  0
  3 29  1  0  0  0  0
  4 10  1  0  0  0  0
  4 30  1  0  0  0  0
  5 13  1  0  0  0  0
  5 31  1  0  0  0  0
  5 32  1  0  0  0  0
  6  5  1  0  0  0  0
  6 33  1  0  0  0  0
  6 34  1  0  0  0  0
  7  6  1  0  0  0  0
  7 11  1  0  0  0  0
  7 23  1  6  0  0  0
  8  7  1  0  0  0  0
  8  9  1  0  0  0  0
  9 15  1  0  0  0  0
  9 35  1  0  0  0  0
  9 36  1  0  0  0  0
 10 25  1  6  0  0  0
 11 37  1  0  0  0  0
 11 38  1  0  0  0  0
 12 10  1  0  0  0  0
 12 16  1  1  0  0  0
 13 10  1  0  0  0  0
 13 24  1  1  0  0  0
 14 12  1  0  0  0  0
 14 19  1  0  0  0  0
 14 39  1  6  0  0  0
 15 13  1  0  0  0  0
 15 14  1  0  0  0  0
 15 11  1  6  0  0  0
 17 40  1  0  0  0  0
 18 41  1  0  0  0  0
 18 42  1  0  0  0  0
 18 43  1  0  0  0  0
 20 19  2  0  0  0  0
 21 19  1  0  0  0  0
 21 44  1  0  0  0  0
 22  8  2  0  0  0  0
 22 45  1  0  0  0  0
 22 46  1  0  0  0  0
 23 47  1  0  0  0  0
 25 26  1  0  0  0  0
 27 26  2  0  0  0  0
M  END
>  <DRUGBANK_ID>
DB07814

>  <COMMON_NAME>
Gibberellic acid

>  <CAS_NUMBER>
77-06-5

>  <UNII>
BU0A7MWB6L

>  <SYNONYMS>
(+)-gibberellic acid; GA3; Gibberellic acid GA3; Gibberellin; Gibberellin 3; Gibberellin A3

$$$$
