
 OpenBabel10282417072D

148154  0  0  0  0  0  0  0  0999 V2000
   -1.4386   -3.2261    0.0000 C   0  0  2  0  0  0  0  0  0  0  0  0
   -2.1503   -3.6373    0.0000 O   0  0  0  0  0  0  0  0  0  0  0  0
   -2.1503   -4.4588    0.0000 C   0  0  1  0  0  0  0  0  0  0  0  0
   -1.4366   -4.8733    0.0000 C   0  0  2  0  0  0  0  0  0  0  0  0
   -0.7213   -4.4604    0.0000 C   0  0  1  0  0  0  0  0  0  0  0  0
   -0.7197   -3.6326    0.0000 C   0  0  1  0  0  0  0  0  0  0  0  0
   -0.0068   -3.2176    0.0000 O   0  0  0  0  0  0  0  0  0  0  0  0
   -0.0073   -4.8734    0.0000 O   0  0  0  0  0  0  0  0  0  0  0  0
   -1.4377   -5.6984    0.0000 O   0  0  0  0  0  0  0  0  0  0  0  0
   -2.8653   -4.8702    0.0000 C   0  0  0  0  0  0  0  0  0  0  0  0
    0.7092   -3.6276    0.0000 C   0  0  2  0  0  0  0  0  0  0  0  0
    0.7100   -4.4529    0.0000 O   0  0  0  0  0  0  0  0  0  0  0  0
    1.4219   -4.8628    0.0000 C   0  0  2  0  0  0  0  0  0  0  0  0
    2.1373   -4.4513    0.0000 C   0  0  1  0  0  0  0  0  0  0  0  0
    2.1365   -3.6252    0.0000 C   0  0  2  0  0  0  0  0  0  0  0  0
    1.4200   -3.2109    0.0000 C   0  0  1  0  0  0  0  0  0  0  0  0
    2.8509   -3.2128    0.0000 O   0  0  0  0  0  0  0  0  0  0  0  0
    2.8517   -4.8639    0.0000 O   0  0  0  0  0  0  0  0  0  0  0  0
    1.4216   -5.6877    0.0000 C   0  0  0  0  0  0  0  0  0  0  0  0
    1.4176   -2.3858    0.0000 O   0  0  0  0  0  0  0  0  0  0  0  0
   -2.8664   -5.6953    0.0000 O   0  0  0  0  0  0  0  0  0  0  0  0
   -1.4425   -2.4012    0.0000 O   0  0  0  0  0  0  0  0  0  0  0  0
   -0.0376    0.0820    0.0000 C   0  0  1  0  0  0  0  0  0  0  0  0
   -0.7499   -0.3346    0.0000 C   0  0  1  0  0  0  0  0  0  0  0  0
   -2.1749   -0.3469    0.0000 C   0  0  2  0  0  0  0  0  0  0  0  0
   -1.4665    0.0736    0.0000 C   0  0  1  0  0  0  0  0  0  0  0  0
    0.0208    3.2151    0.0000 C   0  0  1  0  0  0  0  0  0  0  0  0
   -0.6916    3.6236    0.0000 C   0  0  1  0  0  0  0  0  0  0  0  0
   -0.0376    0.9070    0.0000 C   0  0  2  0  0  0  0  0  0  0  0  0
   -2.1665   -1.1720    0.0000 C   0  0  2  0  0  0  0  0  0  0  0  0
   -0.6957    4.4442    0.0000 C   0  0  2  0  0  0  0  0  0  0  0  0
    0.7374    3.6236    0.0000 O   0  0  0  0  0  0  0  0  0  0  0  0
   -2.8748   -1.5885    0.0000 C   0  0  0  0  0  0  0  0  0  0  0  0
    0.0124    4.8611    0.0000 C   0  0  1  0  0  0  0  0  0  0  0  0
    0.7291    4.4486    0.0000 C   0  0  1  0  0  0  0  0  0  0  0  0
   -0.7625    1.3194    0.0000 C   0  0  1  0  0  0  0  0  0  0  0  0
    0.7458    1.1612    0.0000 C   0  0  1  0  0  0  0  0  0  0  0  0
   -1.4790    0.9028    0.0000 C   0  0  0  0  0  0  0  0  0  0  0  0
    0.7374    1.9861    0.0000 C   0  0  1  0  0  0  0  0  0  0  0  0
    0.0165    2.3902    0.0000 O   0  0  0  0  0  0  0  0  0  0  0  0
   -4.3039   -1.6053    0.0000 O   0  0  0  0  0  0  0  0  0  0  0  0
   -3.5915   -1.1845    0.0000 C   0  0  1  0  0  0  0  0  0  0  0  0
    0.7458   -0.1762    0.0000 C   0  0  0  0  0  0  0  0  0  0  0  0
   -0.7416   -1.1596    0.0000 C   0  0  0  0  0  0  0  0  0  0  0  0
   -2.8874    0.0654    0.0000 C   0  0  0  0  0  0  0  0  0  0  0  0
   -1.4499   -1.5762    0.0000 C   0  0  2  0  0  0  0  0  0  0  0  0
    1.2291    0.4903    0.0000 C   0  0  0  0  0  0  0  0  0  0  0  0
    1.4332    5.6984    0.0000 O   0  0  0  0  0  0  0  0  0  0  0  0
    1.4415    4.8651    0.0000 C   0  0  0  0  0  0  0  0  0  0  0  0
   -3.5998   -0.3596    0.0000 C   0  0  0  0  0  0  0  0  0  0  0  0
    3.5956    2.0277    0.0000 C   0  0  0  0  0  0  0  0  0  0  0  0
    2.8748    2.4277    0.0000 C   0  0  0  0  0  0  0  0  0  0  0  0
   -1.4082    3.2069    0.0000 O   0  0  0  0  0  0  0  0  0  0  0  0
   -1.4124    4.8526    0.0000 O   0  0  0  0  0  0  0  0  0  0  0  0
    0.0083    5.6859    0.0000 O   0  0  0  0  0  0  0  0  0  0  0  0
   -0.0376   -0.7429    0.0000 C   0  0  0  0  0  0  0  0  0  0  0  0
   -0.7665    2.1444    0.0000 O   0  0  0  0  0  0  0  0  0  0  0  0
   -0.7584    0.4945    0.0000 C   0  0  0  0  0  0  0  0  0  0  0  0
   -2.1874    0.4819    0.0000 C   0  0  0  0  0  0  0  0  0  0  0  0
    1.4457    2.4111    0.0000 C   0  0  0  0  0  0  0  0  0  0  0  0
    2.1665    2.0069    0.0000 C   0  0  0  0  0  0  0  0  0  0  0  0
    0.7249    2.8111    0.0000 C   0  0  0  0  0  0  0  0  0  0  0  0
    3.6039    1.2028    0.0000 C   0  0  0  0  0  0  0  0  0  0  0  0
    4.3039    2.4486    0.0000 C   0  0  0  0  0  0  0  0  0  0  0  0
   -1.4665   -0.7511    0.0000 H   0  0  0  0  0  0  0  0  0  0  0  0
   -2.1624   -1.9928    0.0000 H   0  0  0  0  0  0  0  0  0  0  0  0
   -0.0541    1.7319    0.0000 H   0  0  0  0  0  0  0  0  0  0  0  0
    1.4582    1.5862    0.0000 H   0  0  0  0  0  0  0  0  0  0  0  0
   -2.8672   -2.4135    0.0000 C   0  0  0  0  0  0  0  0  0  0  0  0
   -3.5915   -1.9970    0.0000 C   0  0  0  0  0  0  0  0  0  0  0  0
   -2.3666   -2.6934    0.0000 H   0  0  0  0  0  0  0  0  0  0  0  0
   -3.0766   -3.9231    0.0000 H   0  0  0  0  0  0  0  0  0  0  0  0
   -2.3643   -5.4065    0.0000 H   0  0  0  0  0  0  0  0  0  0  0  0
   -0.7218   -5.5304    0.0000 H   0  0  0  0  0  0  0  0  0  0  0  0
   -0.7264   -2.5626    0.0000 H   0  0  0  0  0  0  0  0  0  0  0  0
   -0.0081   -5.8434    0.0000 H   0  0  0  0  0  0  0  0  0  0  0  0
   -2.2784   -6.1823    0.0000 H   0  0  0  0  0  0  0  0  0  0  0  0
   -3.7912   -4.3339    0.0000 H   0  0  0  0  0  0  0  0  0  0  0  0
   -3.7927   -5.4039    0.0000 H   0  0  0  0  0  0  0  0  0  0  0  0
   -0.2162   -4.1647    0.0000 H   0  0  0  0  0  0  0  0  0  0  0  0
    0.4955   -5.3982    0.0000 H   0  0  0  0  0  0  0  0  0  0  0  0
    2.1364   -5.5213    0.0000 H   0  0  0  0  0  0  0  0  0  0  0  0
    3.0634   -4.1598    0.0000 H   0  0  0  0  0  0  0  0  0  0  0  0
    0.4908   -2.6803    0.0000 H   0  0  0  0  0  0  0  0  0  0  0  0
    3.6909   -3.6979    0.0000 H   0  0  0  0  0  0  0  0  0  0  0  0
    2.8516   -5.8339    0.0000 H   0  0  0  0  0  0  0  0  0  0  0  0
    0.4948   -6.2224    0.0000 H   0  0  0  0  0  0  0  0  0  0  0  0
    2.3481   -6.2230    0.0000 H   0  0  0  0  0  0  0  0  0  0  0  0
    1.4212   -6.7577    0.0000 H   0  0  0  0  0  0  0  0  0  0  0  0
    2.2562   -1.8984    0.0000 H   0  0  0  0  0  0  0  0  0  0  0  0
   -3.7071   -6.1792    0.0000 H   0  0  0  0  0  0  0  0  0  0  0  0
    0.9446    2.6751    0.0000 H   0  0  0  0  0  0  0  0  0  0  0  0
   -1.6204    4.1548    0.0000 H   0  0  0  0  0  0  0  0  0  0  0  0
   -1.6195    3.9043    0.0000 H   0  0  0  0  0  0  0  0  0  0  0  0
    0.9374    5.3990    0.0000 H   0  0  0  0  0  0  0  0  0  0  0  0
    0.7255    5.5186    0.0000 H   0  0  0  0  0  0  0  0  0  0  0  0
    0.1611    1.8596    0.0000 H   0  0  0  0  0  0  0  0  0  0  0  0
   -2.4105    1.4294    0.0000 H   0  0  0  0  0  0  0  0  0  0  0  0
   -2.3991    0.3567    0.0000 H   0  0  0  0  0  0  0  0  0  0  0  0
   -5.1487   -1.1287    0.0000 H   0  0  0  0  0  0  0  0  0  0  0  0
   -3.5807   -2.2544    0.0000 H   0  0  0  0  0  0  0  0  0  0  0  0
    1.0748   -1.1944    0.0000 H   0  0  0  0  0  0  0  0  0  0  0  0
    1.8026   -0.3440    0.0000 H   0  0  0  0  0  0  0  0  0  0  0  0
    0.1899   -1.6862    0.0000 H   0  0  0  0  0  0  0  0  0  0  0  0
   -0.7324   -2.2296    0.0000 H   0  0  0  0  0  0  0  0  0  0  0  0
   -2.8945    1.1354    0.0000 H   0  0  0  0  0  0  0  0  0  0  0  0
   -3.8196    0.5907    0.0000 H   0  0  0  0  0  0  0  0  0  0  0  0
   -0.5187   -2.1033    0.0000 H   0  0  0  0  0  0  0  0  0  0  0  0
    2.2991    0.4886    0.0000 H   0  0  0  0  0  0  0  0  0  0  0  0
    1.7175    1.4423    0.0000 H   0  0  0  0  0  0  0  0  0  0  0  0
    2.2684    6.1917    0.0000 H   0  0  0  0  0  0  0  0  0  0  0  0
    2.3722    4.3373    0.0000 H   0  0  0  0  0  0  0  0  0  0  0  0
    1.4485    3.7951    0.0000 H   0  0  0  0  0  0  0  0  0  0  0  0
   -4.5329    0.1641    0.0000 H   0  0  0  0  0  0  0  0  0  0  0  0
   -4.5204   -0.9049    0.0000 H   0  0  0  0  0  0  0  0  0  0  0  0
    2.8596    3.4596    0.0000 H   0  0  0  0  0  0  0  0  0  0  0  0
   -2.2497    3.6893    0.0000 H   0  0  0  0  0  0  0  0  0  0  0  0
   -1.4179    5.8226    0.0000 H   0  0  0  0  0  0  0  0  0  0  0  0
    0.8459    6.1751    0.0000 H   0  0  0  0  0  0  0  0  0  0  0  0
   -0.9642   -1.2779    0.0000 H   0  0  0  0  0  0  0  0  0  0  0  0
    0.8890   -1.2779    0.0000 H   0  0  0  0  0  0  0  0  0  0  0  0
   -0.0376   -1.8129    0.0000 H   0  0  0  0  0  0  0  0  0  0  0  0
    0.0712    2.6335    0.0000 H   0  0  0  0  0  0  0  0  0  0  0  0
    0.1627    1.0390    0.0000 H   0  0  0  0  0  0  0  0  0  0  0  0
   -1.6905    1.0200    0.0000 H   0  0  0  0  0  0  0  0  0  0  0  0
   -0.7694    1.5644    0.0000 H   0  0  0  0  0  0  0  0  0  0  0  0
   -1.2689    1.0308    0.0000 H   0  0  0  0  0  0  0  0  0  0  0  0
   -3.1220    1.0029    0.0000 H   0  0  0  0  0  0  0  0  0  0  0  0
   -2.2035    1.5518    0.0000 H   0  0  0  0  0  0  0  0  0  0  0  0
    1.4300    3.4810    0.0000 H   0  0  0  0  0  0  0  0  0  0  0  0
    2.3650    2.9587    0.0000 H   0  0  0  0  0  0  0  0  0  0  0  0
    2.1799    0.9370    0.0000 H   0  0  0  0  0  0  0  0  0  0  0  0
    1.2466    1.4603    0.0000 H   0  0  0  0  0  0  0  0  0  0  0  0
    1.6433    3.3601    0.0000 H   0  0  0  0  0  0  0  0  0  0  0  0
   -0.2097    3.3320    0.0000 H   0  0  0  0  0  0  0  0  0  0  0  0
    0.7087    3.8810    0.0000 H   0  0  0  0  0  0  0  0  0  0  0  0
    2.6827    0.6585    0.0000 H   0  0  0  0  0  0  0  0  0  0  0  0
    4.5359    0.6772    0.0000 H   0  0  0  0  0  0  0  0  0  0  0  0
    3.6147    0.1329    0.0000 H   0  0  0  0  0  0  0  0  0  0  0  0
    5.2372    1.9253    0.0000 H   0  0  0  0  0  0  0  0  0  0  0  0
    4.2904    3.5185    0.0000 H   0  0  0  0  0  0  0  0  0  0  0  0
    5.2237    2.9952    0.0000 H   0  0  0  0  0  0  0  0  0  0  0  0
   -3.7889   -2.9570    0.0000 H   0  0  0  0  0  0  0  0  0  0  0  0
   -1.9357   -2.9399    0.0000 H   0  0  0  0  0  0  0  0  0  0  0  0
   -2.8573   -3.4835    0.0000 H   0  0  0  0  0  0  0  0  0  0  0  0
   -4.5152   -1.4569    0.0000 H   0  0  0  0  0  0  0  0  0  0  0  0
   -3.5974   -3.0670    0.0000 H   0  0  0  0  0  0  0  0  0  0  0  0
   -4.5211   -2.5268    0.0000 H   0  0  0  0  0  0  0  0  0  0  0  0
  1  2  1  0  0  0  0
  1  6  1  0  0  0  0
  1 22  1  0  0  0  0
  1 71  1  6  0  0  0
  3  2  1  0  0  0  0
  3 10  1  0  0  0  0
  3 72  1  6  0  0  0
  4  3  1  0  0  0  0
  4  9  1  0  0  0  0
  4 73  1  1  0  0  0
  5  4  1  0  0  0  0
  5  8  1  0  0  0  0
  5 74  1  6  0  0  0
  6  5  1  0  0  0  0
  6  7  1  0  0  0  0
  6 75  1  1  0  0  0
  8 76  1  0  0  0  0
  9 77  1  0  0  0  0
 10 21  1  0  0  0  0
 10 78  1  0  0  0  0
 10 79  1  0  0  0  0
 11  7  1  0  0  0  0
 11 12  1  0  0  0  0
 11 16  1  0  0  0  0
 11 80  1  6  0  0  0
 13 12  1  0  0  0  0
 13 19  1  0  0  0  0
 13 81  1  1  0  0  0
 14 13  1  0  0  0  0
 14 18  1  0  0  0  0
 14 82  1  6  0  0  0
 15 14  1  0  0  0  0
 15 17  1  0  0  0  0
 15 83  1  1  0  0  0
 16 15  1  0  0  0  0
 16 20  1  0  0  0  0
 16 84  1  1  0  0  0
 17 85  1  0  0  0  0
 18 86  1  0  0  0  0
 19 87  1  0  0  0  0
 19 88  1  0  0  0  0
 19 89  1  0  0  0  0
 20 90  1  0  0  0  0
 21 91  1  0  0  0  0
 23 56  1  6  0  0  0
 24 58  1  1  0  0  0
 24 23  1  0  0  0  0
 25 59  1  1  0  0  0
 25 30  1  0  0  0  0
 25 26  1  0  0  0  0
 26 65  1  6  0  0  0
 26 38  1  0  0  0  0
 26 24  1  0  0  0  0
 27 40  1  0  0  0  0
 27 92  1  6  0  0  0
 28 53  1  0  0  0  0
 28 27  1  0  0  0  0
 28 93  1  1  0  0  0
 29 67  1  1  0  0  0
 29 23  1  0  0  0  0
 30 66  1  6  0  0  0
 30 46  1  0  0  0  0
 31 28  1  0  0  0  0
 31 54  1  0  0  0  0
 31 34  1  0  0  0  0
 31 94  1  6  0  0  0
 32 27  1  0  0  0  0
 33 30  1  0  0  0  0
 33 69  1  0  0  0  0
 33 70  1  0  0  0  0
 34 35  1  0  0  0  0
 34 55  1  0  0  0  0
 34 95  1  1  0  0  0
 35 32  1  0  0  0  0
 35 49  1  0  0  0  0
 35 96  1  6  0  0  0
 36 29  1  0  0  0  0
 36 57  1  0  0  0  0
 36 97  1  6  0  0  0
 37 29  1  0  0  0  0
 37 68  1  6  0  0  0
 37 47  1  0  0  0  0
 38 36  1  0  0  0  0
 38 98  1  0  0  0  0
 38 99  1  0  0  0  0
 39 37  1  0  0  0  0
 39 40  1  1  0  0  0
 41100  1  0  0  0  0
 42 41  1  0  0  0  0
 42 33  1  0  0  0  0
 42101  1  6  0  0  0
 43 23  1  0  0  0  0
 43102  1  0  0  0  0
 43103  1  0  0  0  0
 44 24  1  0  0  0  0
 44104  1  0  0  0  0
 44105  1  0  0  0  0
 45 25  1  0  0  0  0
 45106  1  0  0  0  0
 45107  1  0  0  0  0
 46 44  1  0  0  0  0
 46 22  1  0  0  0  0
 46108  1  1  0  0  0
 47 43  1  0  0  0  0
 47109  1  0  0  0  0
 47110  1  0  0  0  0
 48 49  1  0  0  0  0
 48111  1  0  0  0  0
 49112  1  0  0  0  0
 49113  1  0  0  0  0
 50 45  1  0  0  0  0
 50 42  1  0  0  0  0
 50114  1  0  0  0  0
 50115  1  0  0  0  0
 51 52  2  0  0  0  0
 52 61  1  0  0  0  0
 52116  1  0  0  0  0
 53117  1  0  0  0  0
 54118  1  0  0  0  0
 55119  1  0  0  0  0
 56120  1  0  0  0  0
 56121  1  0  0  0  0
 56122  1  0  0  0  0
 57123  1  0  0  0  0
 58124  1  0  0  0  0
 58125  1  0  0  0  0
 58126  1  0  0  0  0
 59127  1  0  0  0  0
 59128  1  0  0  0  0
 59129  1  0  0  0  0
 60 39  1  0  0  0  0
 60130  1  0  0  0  0
 60131  1  0  0  0  0
 61 60  1  0  0  0  0
 61132  1  0  0  0  0
 61133  1  0  0  0  0
 62 39  1  0  0  0  0
 62134  1  0  0  0  0
 62135  1  0  0  0  0
 62136  1  0  0  0  0
 63 51  1  0  0  0  0
 63137  1  0  0  0  0
 63138  1  0  0  0  0
 63139  1  0  0  0  0
 64 51  1  0  0  0  0
 64140  1  0  0  0  0
 64141  1  0  0  0  0
 64142  1  0  0  0  0
 69143  1  0  0  0  0
 69144  1  0  0  0  0
 69145  1  0  0  0  0
 70146  1  0  0  0  0
 70147  1  0  0  0  0
 70148  1  0  0  0  0
M  END
>  <DRUGBANK_ID>
DB14815

>  <COMMON_NAME>
Ginsenoside B2

>  <CAS_NUMBER>
52286-59-6

>  <UNII>
46F3R0BL3I

>  <SYNONYMS>
Ginsenoside Re

$$$$
