
 OpenBabel10282417072D

 42 44  0  0  0  0  0  0  0  0999 V2000
    2.4762   -0.7191    0.0000 C   0  0  0  0  0  0  0  0  0  0  0  0
    1.7617   -1.1316    0.0000 O   0  0  0  0  0  0  0  0  0  0  0  0
    1.0472   -0.7191    0.0000 C   0  0  0  0  0  0  0  0  0  0  0  0
    0.3327   -1.1316    0.0000 C   0  0  0  0  0  0  0  0  0  0  0  0
   -0.3816   -0.7191    0.0000 C   0  0  0  0  0  0  0  0  0  0  0  0
   -0.3816    0.1058    0.0000 C   0  0  0  0  0  0  0  0  0  0  0  0
    0.3327    0.5184    0.0000 C   0  0  0  0  0  0  0  0  0  0  0  0
    1.0472    0.1058    0.0000 C   0  0  0  0  0  0  0  0  0  0  0  0
   -1.1663    0.3608    0.0000 N   0  0  0  0  0  0  0  0  0  0  0  0
   -1.6512   -0.3066    0.0000 C   0  0  0  0  0  0  0  0  0  0  0  0
   -1.1663   -0.9740    0.0000 C   0  0  0  0  0  0  0  0  0  0  0  0
   -1.4212   -1.7586    0.0000 C   0  0  0  0  0  0  0  0  0  0  0  0
   -0.8692   -2.3717    0.0000 C   0  0  0  0  0  0  0  0  0  0  0  0
   -0.0622   -2.2001    0.0000 O   0  0  0  0  0  0  0  0  0  0  0  0
   -1.1241   -3.1563    0.0000 O   0  0  0  0  0  0  0  0  0  0  0  0
   -2.4762   -0.3066    0.0000 C   0  0  0  0  0  0  0  0  0  0  0  0
   -1.4212    1.1455    0.0000 C   0  0  0  0  0  0  0  0  0  0  0  0
   -0.8692    1.7586    0.0000 C   0  0  0  0  0  0  0  0  0  0  0  0
   -1.1241    2.5432    0.0000 C   0  0  0  0  0  0  0  0  0  0  0  0
   -0.5721    3.1563    0.0000 C   0  0  0  0  0  0  0  0  0  0  0  0
    0.2348    2.9848    0.0000 C   0  0  0  0  0  0  0  0  0  0  0  0
    0.4897    2.2002    0.0000 C   0  0  0  0  0  0  0  0  0  0  0  0
   -0.0622    1.5871    0.0000 C   0  0  0  0  0  0  0  0  0  0  0  0
    3.4028   -1.2541    0.0000 H   0  0  0  0  0  0  0  0  0  0  0  0
    2.4762    0.3509    0.0000 H   0  0  0  0  0  0  0  0  0  0  0  0
    3.4029   -0.1841    0.0000 H   0  0  0  0  0  0  0  0  0  0  0  0
    0.3326   -2.1636    0.0000 H   0  0  0  0  0  0  0  0  0  0  0  0
    0.3326    1.5504    0.0000 H   0  0  0  0  0  0  0  0  0  0  0  0
    1.9410    0.6218    0.0000 H   0  0  0  0  0  0  0  0  0  0  0  0
   -2.4678   -1.9811    0.0000 H   0  0  0  0  0  0  0  0  0  0  0  0
   -1.7519   -2.7762    0.0000 H   0  0  0  0  0  0  0  0  0  0  0  0
    0.5648   -2.8964    0.0000 H   0  0  0  0  0  0  0  0  0  0  0  0
   -3.0112    0.6200    0.0000 H   0  0  0  0  0  0  0  0  0  0  0  0
   -3.0112   -1.2332    0.0000 H   0  0  0  0  0  0  0  0  0  0  0  0
   -3.5462   -0.3066    0.0000 H   0  0  0  0  0  0  0  0  0  0  0  0
   -2.4678    1.3680    0.0000 H   0  0  0  0  0  0  0  0  0  0  0  0
   -1.7519    2.1631    0.0000 H   0  0  0  0  0  0  0  0  0  0  0  0
   -2.1335    2.7578    0.0000 H   0  0  0  0  0  0  0  0  0  0  0  0
   -0.8910    4.1378    0.0000 H   0  0  0  0  0  0  0  0  0  0  0  0
    0.9254    3.7517    0.0000 H   0  0  0  0  0  0  0  0  0  0  0  0
    1.4992    1.9857    0.0000 H   0  0  0  0  0  0  0  0  0  0  0  0
    0.2568    0.6056    0.0000 H   0  0  0  0  0  0  0  0  0  0  0  0
  1  2  1  0  0  0  0
  1 24  1  0  0  0  0
  1 25  1  0  0  0  0
  1 26  1  0  0  0  0
  3  2  1  0  0  0  0
  3  4  2  0  0  0  0
  3  8  1  0  0  0  0
  4  5  1  0  0  0  0
  4 27  1  0  0  0  0
  5  6  2  0  0  0  0
  6  7  1  0  0  0  0
  6  9  1  0  0  0  0
  7  8  2  0  0  0  0
  7 28  1  0  0  0  0
  8 29  1  0  0  0  0
 10  9  1  0  0  0  0
 10 11  2  0  0  0  0
 10 16  1  0  0  0  0
 11  5  1  0  0  0  0
 11 12  1  0  0  0  0
 12 13  1  0  0  0  0
 12 30  1  0  0  0  0
 12 31  1  0  0  0  0
 13 14  1  0  0  0  0
 13 15  2  0  0  0  0
 14 32  1  0  0  0  0
 16 33  1  0  0  0  0
 16 34  1  0  0  0  0
 16 35  1  0  0  0  0
 17  9  1  0  0  0  0
 17 18  1  0  0  0  0
 17 36  1  0  0  0  0
 17 37  1  0  0  0  0
 18 19  2  0  0  0  0
 18 23  1  0  0  0  0
 19 20  1  0  0  0  0
 19 38  1  0  0  0  0
 20 21  2  0  0  0  0
 20 39  1  0  0  0  0
 21 22  1  0  0  0  0
 21 40  1  0  0  0  0
 22 23  2  0  0  0  0
 22 41  1  0  0  0  0
 23 42  1  0  0  0  0
M  END
>  <DRUGBANK_ID>
DB03121

>  <SECONDARY_ACCESSION_NUMBERS>
EXPT01810

>  <COMMON_NAME>
(1-Benzyl-5-methoxy-2-methyl-1H-indol-3-yl)acetic acid

>  <CAS_NUMBER>
59283-35-1

>  <UNII>
5JSR5TT2JJ

$$$$
