
 OpenBabel10282417072D

 36 35  0  0  0  0  0  0  0  0999 V2000
    1.7862    2.2687    0.0000 O   0  0  0  0  0  0  0  0  0  0  0  0
    1.7862    1.4437    0.0000 C   0  0  0  0  0  0  0  0  0  0  0  0
    2.5007    1.0312    0.0000 O   0  0  0  0  0  0  0  0  0  0  0  0
    1.0718    1.0312    0.0000 C   0  0  0  0  0  0  0  0  0  0  0  0
    1.0718    0.2062    0.0000 N   0  0  0  0  0  0  0  0  0  0  0  0
    1.7862   -0.2062    0.0000 C   0  0  0  0  0  0  0  0  0  0  0  0
    1.7862   -1.0312    0.0000 C   0  0  0  0  0  0  0  0  0  0  0  0
    2.5007   -1.4437    0.0000 O   0  0  0  0  0  0  0  0  0  0  0  0
    1.0718   -1.4437    0.0000 O   0  0  0  0  0  0  0  0  0  0  0  0
    0.3573   -0.2062    0.0000 C   0  0  0  0  0  0  0  0  0  0  0  0
   -0.3571    0.2062    0.0000 C   0  0  0  0  0  0  0  0  0  0  0  0
   -1.0716   -0.2062    0.0000 N   0  0  0  0  0  0  0  0  0  0  0  0
   -1.0716   -1.0312    0.0000 C   0  0  0  0  0  0  0  0  0  0  0  0
   -1.7860   -1.4437    0.0000 C   0  0  0  0  0  0  0  0  0  0  0  0
   -1.7860   -2.2687    0.0000 O   0  0  0  0  0  0  0  0  0  0  0  0
   -2.5007   -1.0312    0.0000 O   0  0  0  0  0  0  0  0  0  0  0  0
   -1.7860    0.2062    0.0000 C   0  0  0  0  0  0  0  0  0  0  0  0
   -1.7860    1.0312    0.0000 C   0  0  0  0  0  0  0  0  0  0  0  0
   -2.5007    1.4437    0.0000 O   0  0  0  0  0  0  0  0  0  0  0  0
   -1.0716    1.4437    0.0000 O   0  0  0  0  0  0  0  0  0  0  0  0
    2.5007    0.0942    0.0000 H   0  0  0  0  0  0  0  0  0  0  0  0
    0.1451    1.5662    0.0000 H   0  0  0  0  0  0  0  0  0  0  0  0
    0.1452    0.4962    0.0000 H   0  0  0  0  0  0  0  0  0  0  0  0
    2.7128    0.3288    0.0000 H   0  0  0  0  0  0  0  0  0  0  0  0
    2.7129   -0.7412    0.0000 H   0  0  0  0  0  0  0  0  0  0  0  0
    0.2603   -0.9752    0.0000 H   0  0  0  0  0  0  0  0  0  0  0  0
    0.3573   -1.2762    0.0000 H   0  0  0  0  0  0  0  0  0  0  0  0
   -0.5693   -0.7412    0.0000 H   0  0  0  0  0  0  0  0  0  0  0  0
   -0.3571    1.2762    0.0000 H   0  0  0  0  0  0  0  0  0  0  0  0
   -1.2837    0.7413    0.0000 H   0  0  0  0  0  0  0  0  0  0  0  0
   -0.1449   -1.5662    0.0000 H   0  0  0  0  0  0  0  0  0  0  0  0
   -1.0716   -2.1012    0.0000 H   0  0  0  0  0  0  0  0  0  0  0  0
   -2.5008   -0.0942    0.0000 H   0  0  0  0  0  0  0  0  0  0  0  0
   -2.7126   -0.3288    0.0000 H   0  0  0  0  0  0  0  0  0  0  0  0
   -2.7127    0.7412    0.0000 H   0  0  0  0  0  0  0  0  0  0  0  0
   -0.2601    0.9752    0.0000 H   0  0  0  0  0  0  0  0  0  0  0  0
  1  2  2  0  0  0  0
  2  3  1  0  0  0  0
  2  4  1  0  0  0  0
  3 21  1  0  0  0  0
  4  5  1  0  0  0  0
  4 22  1  0  0  0  0
  4 23  1  0  0  0  0
  5  6  1  0  0  0  0
  5 10  1  0  0  0  0
  6  7  1  0  0  0  0
  6 24  1  0  0  0  0
  6 25  1  0  0  0  0
  7  8  2  0  0  0  0
  7  9  1  0  0  0  0
  9 26  1  0  0  0  0
 10 11  1  0  0  0  0
 10 27  1  0  0  0  0
 10 28  1  0  0  0  0
 11 12  1  0  0  0  0
 11 29  1  0  0  0  0
 11 30  1  0  0  0  0
 12 13  1  0  0  0  0
 12 17  1  0  0  0  0
 13 14  1  0  0  0  0
 13 31  1  0  0  0  0
 13 32  1  0  0  0  0
 14 15  2  0  0  0  0
 14 16  1  0  0  0  0
 16 33  1  0  0  0  0
 17 18  1  0  0  0  0
 17 34  1  0  0  0  0
 17 35  1  0  0  0  0
 18 19  2  0  0  0  0
 18 20  1  0  0  0  0
 20 36  1  0  0  0  0
M  END
>  <DRUGBANK_ID>
DB00974

>  <SECONDARY_ACCESSION_NUMBERS>
APRD01327

>  <COMMON_NAME>
Edetic acid

>  <CAS_NUMBER>
60-00-4

>  <UNII>
9G34HU7RV0

>  <SYNONYMS>
(ethylenedinitrilo)tetraacetic acid, ion(4âˆ’); {[-(bis-carboxymethyl-amino)-ethyl]-carboxymethyl-amino}-acetic acid; 2,2',2'',2'''-(ethane-1,2-diyldinitrilo)tetraacetate; Acide edetique; Acide ethylenediaminetetracetique; Acido edetico; Acidum edeticum; Edetic acid; EDTA; EDTA, ion(4-); Ethylenediaminetetraacetate; Ethylenediaminetetraacetic acid; N,N'-1,2-Ethane diylbis-(N-(carboxymethyl)glycine)

$$$$
