A74
 OpenBabel10282417072D

 46 49  0  0  0  0  0  0  0  0999 V2000
   -4.2742    2.6363    0.0000 C   0  0  0  0  0  0  0  0  0  0  0  0
   -3.8617    3.3508    0.0000 C   0  0  0  0  0  0  0  0  0  0  0  0
   -3.0367    3.3508    0.0000 C   0  0  0  0  0  0  0  0  0  0  0  0
   -2.6242    2.6363    0.0000 C   0  0  0  0  0  0  0  0  0  0  0  0
   -3.0367    1.9219    0.0000 C   0  0  0  0  0  0  0  0  0  0  0  0
   -3.8617    1.9219    0.0000 C   0  0  0  0  0  0  0  0  0  0  0  0
   -2.6242    1.2074    0.0000 S   0  0  0  0  0  0  0  0  0  0  0  0
   -3.3387    0.7949    0.0000 O   0  0  0  0  0  0  0  0  0  0  0  0
   -1.9098    1.6199    0.0000 O   0  0  0  0  0  0  0  0  0  0  0  0
   -2.2117    0.4929    0.0000 N   0  0  0  0  0  0  0  0  0  0  0  0
   -1.3867    0.4929    0.0000 C   0  0  0  0  0  0  0  0  0  0  0  0
   -0.9018    1.1604    0.0000 N   0  0  0  0  0  0  0  0  0  0  0  0
   -0.1172    0.9054    0.0000 C   0  0  0  0  0  0  0  0  0  0  0  0
    0.5973    1.3179    0.0000 C   0  0  0  0  0  0  0  0  0  0  0  0
    1.3118    0.9054    0.0000 C   0  0  0  0  0  0  0  0  0  0  0  0
    1.3118    0.0804    0.0000 C   0  0  0  0  0  0  0  0  0  0  0  0
    0.5973   -0.3321    0.0000 C   0  0  0  0  0  0  0  0  0  0  0  0
   -0.1172    0.0804    0.0000 C   0  0  0  0  0  0  0  0  0  0  0  0
   -0.9018   -0.1745    0.0000 O   0  0  0  0  0  0  0  0  0  0  0  0
   -2.6242    4.0653    0.0000 Cl  0  0  0  0  0  0  0  0  0  0  0  0
   -4.2742    1.2074    0.0000 Cl  0  0  0  0  0  0  0  0  0  0  0  0
    2.0262    1.3179    0.0000 O   0  0  0  0  0  0  0  0  0  0  0  0
    2.7407    0.9054    0.0000 C   0  0  0  0  0  0  0  0  0  0  0  0
    1.3118   -2.3946    0.0000 C   0  0  0  0  0  0  0  0  0  0  0  0
    0.5973   -2.8071    0.0000 C   0  0  0  0  0  0  0  0  0  0  0  0
   -0.1172   -2.3946    0.0000 N   0  0  0  0  0  0  0  0  0  0  0  0
   -0.1172   -1.5696    0.0000 C   0  0  0  0  0  0  0  0  0  0  0  0
    0.5973   -1.1571    0.0000 C   0  0  0  0  0  0  0  0  0  0  0  0
    1.3118   -1.5696    0.0000 C   0  0  0  0  0  0  0  0  0  0  0  0
    0.5973   -3.6321    0.0000 O   0  0  0  0  0  0  0  0  0  0  0  0
    1.3118   -4.0446    0.0000 C   0  0  0  0  0  0  0  0  0  0  0  0
   -5.3062    2.6363    0.0000 H   0  0  0  0  0  0  0  0  0  0  0  0
   -4.3777    4.2445    0.0000 H   0  0  0  0  0  0  0  0  0  0  0  0
   -1.5922    2.6363    0.0000 H   0  0  0  0  0  0  0  0  0  0  0  0
   -2.7040   -0.3597    0.0000 H   0  0  0  0  0  0  0  0  0  0  0  0
    0.5973    2.3499    0.0000 H   0  0  0  0  0  0  0  0  0  0  0  0
    2.2055   -0.4356    0.0000 H   0  0  0  0  0  0  0  0  0  0  0  0
    2.7407   -0.1646    0.0000 H   0  0  0  0  0  0  0  0  0  0  0  0
    3.6673    1.4404    0.0000 H   0  0  0  0  0  0  0  0  0  0  0  0
    3.6674    0.3704    0.0000 H   0  0  0  0  0  0  0  0  0  0  0  0
    2.2055   -2.9106    0.0000 H   0  0  0  0  0  0  0  0  0  0  0  0
   -1.0109   -1.0536    0.0000 H   0  0  0  0  0  0  0  0  0  0  0  0
    2.2055   -1.0536    0.0000 H   0  0  0  0  0  0  0  0  0  0  0  0
    1.3118   -5.1146    0.0000 H   0  0  0  0  0  0  0  0  0  0  0  0
    2.2384   -3.5096    0.0000 H   0  0  0  0  0  0  0  0  0  0  0  0
    2.2385   -4.5796    0.0000 H   0  0  0  0  0  0  0  0  0  0  0  0
  1  2  1  0  0  0  0
  1  6  2  0  0  0  0
  1 32  1  0  0  0  0
  2  3  2  0  0  0  0
  2 33  1  0  0  0  0
  3  4  1  0  0  0  0
  3 20  1  0  0  0  0
  4  5  2  0  0  0  0
  4 34  1  0  0  0  0
  5  6  1  0  0  0  0
  5  7  1  0  0  0  0
  6 21  1  0  0  0  0
  7  8  2  0  0  0  0
  7  9  2  0  0  0  0
  7 10  1  0  0  0  0
 10 11  1  0  0  0  0
 10 35  1  0  0  0  0
 11 12  2  0  0  0  0
 11 19  1  0  0  0  0
 12 13  1  0  0  0  0
 13 14  1  0  0  0  0
 13 18  2  0  0  0  0
 14 15  2  0  0  0  0
 14 36  1  0  0  0  0
 15 16  1  0  0  0  0
 15 22  1  0  0  0  0
 16 17  2  0  0  0  0
 16 37  1  0  0  0  0
 17 18  1  0  0  0  0
 17 28  1  0  0  0  0
 18 19  1  0  0  0  0
 22 23  1  0  0  0  0
 23 38  1  0  0  0  0
 23 39  1  0  0  0  0
 23 40  1  0  0  0  0
 24 25  1  0  0  0  0
 24 29  2  0  0  0  0
 24 41  1  0  0  0  0
 25 26  2  0  0  0  0
 25 30  1  0  0  0  0
 26 27  1  0  0  0  0
 27 28  2  0  0  0  0
 27 42  1  0  0  0  0
 28 29  1  0  0  0  0
 29 43  1  0  0  0  0
 30 31  1  0  0  0  0
 31 44  1  0  0  0  0
 31 45  1  0  0  0  0
 31 46  1  0  0  0  0
M  END
>  <DRUGBANK_ID>
DB07321

>  <COMMON_NAME>
2,5-DICHLORO-N-[5-METHOXY-7-(6-METHOXYPYRIDIN-3-YL)-1,3-BENZOXAZOL-2-YL]BENZENESULFONAMIDE

$$$$
