1127
 OpenBabel10282417072D

 39 41  0  0  1  0  0  0  0  0999 V2000
    3.7934   -0.6188    0.0000 Cl  0  0  0  0  0  0  0  0  0  0  0  0
    5.2223   -3.0938    0.0000 Cl  0  0  0  0  0  0  0  0  0  0  0  0
    1.6500    3.0938    0.0000 Cl  0  0  0  0  0  0  0  0  0  0  0  0
    4.5079    0.6188    0.0000 O   0  0  0  0  0  0  0  0  0  0  0  0
    5.9369    1.4438    0.0000 N   0  0  0  0  0  0  0  0  0  0  0  0
    6.3494    2.7133    0.0000 N   0  0  0  0  0  0  0  0  0  0  0  0
    5.2223    0.2063    0.0000 C   0  0  3  0  0  0  0  0  0  0  0  0
    5.9369    0.6188    0.0000 C   0  0  0  0  0  0  0  0  0  0  0  0
    5.2223   -0.6188    0.0000 C   0  0  0  0  0  0  0  0  0  0  0  0
    4.5079    1.4438    0.0000 C   0  0  0  0  0  0  0  0  0  0  0  0
    4.5079   -1.0313    0.0000 C   0  0  0  0  0  0  0  0  0  0  0  0
    5.9369   -1.0313    0.0000 C   0  0  0  0  0  0  0  0  0  0  0  0
    3.7934    1.8563    0.0000 C   0  0  0  0  0  0  0  0  0  0  0  0
    5.2694    1.9287    0.0000 C   0  0  0  0  0  0  0  0  0  0  0  0
    6.6043    1.9287    0.0000 C   0  0  0  0  0  0  0  0  0  0  0  0
    4.5079   -1.8563    0.0000 C   0  0  0  0  0  0  0  0  0  0  0  0
    5.9369   -1.8563    0.0000 C   0  0  0  0  0  0  0  0  0  0  0  0
    5.2223   -2.2688    0.0000 C   0  0  0  0  0  0  0  0  0  0  0  0
    5.5244    2.7133    0.0000 C   0  0  0  0  0  0  0  0  0  0  0  0
    3.0790    1.4438    0.0000 C   0  0  0  0  0  0  0  0  0  0  0  0
    3.7934    2.6812    0.0000 C   0  0  0  0  0  0  0  0  0  0  0  0
    2.3644    1.8563    0.0000 C   0  0  0  0  0  0  0  0  0  0  0  0
    3.0790    3.0938    0.0000 C   0  0  0  0  0  0  0  0  0  0  0  0
    2.3644    2.6812    0.0000 C   0  0  0  0  0  0  0  0  0  0  0  0
    5.2224    1.2763    0.0000 H   0  0  0  0  0  0  0  0  0  0  0  0
    6.8635    0.0838    0.0000 H   0  0  0  0  0  0  0  0  0  0  0  0
    5.9368   -0.4512    0.0000 H   0  0  0  0  0  0  0  0  0  0  0  0
    5.4345    1.9788    0.0000 H   0  0  0  0  0  0  0  0  0  0  0  0
    4.5079    2.5138    0.0000 H   0  0  0  0  0  0  0  0  0  0  0  0
    6.8306   -0.5153    0.0000 H   0  0  0  0  0  0  0  0  0  0  0  0
    4.2879    1.6098    0.0000 H   0  0  0  0  0  0  0  0  0  0  0  0
    7.5858    1.6098    0.0000 H   0  0  0  0  0  0  0  0  0  0  0  0
    3.6142   -2.3723    0.0000 H   0  0  0  0  0  0  0  0  0  0  0  0
    6.8306   -2.3723    0.0000 H   0  0  0  0  0  0  0  0  0  0  0  0
    4.9178    3.5482    0.0000 H   0  0  0  0  0  0  0  0  0  0  0  0
    3.0791    0.4118    0.0000 H   0  0  0  0  0  0  0  0  0  0  0  0
    4.6872    3.1971    0.0000 H   0  0  0  0  0  0  0  0  0  0  0  0
    1.4707    1.3403    0.0000 H   0  0  0  0  0  0  0  0  0  0  0  0
    3.0791    4.1258    0.0000 H   0  0  0  0  0  0  0  0  0  0  0  0
  1 11  1  0  0  0  0
  2 18  1  0  0  0  0
  3 24  1  0  0  0  0
  4  7  1  0  0  0  0
  4 10  1  0  0  0  0
  5  8  1  0  0  0  0
  5 14  1  0  0  0  0
  5 15  1  0  0  0  0
  6 15  2  0  0  0  0
  6 19  1  0  0  0  0
  7  8  1  0  0  0  0
  7  9  1  0  0  0  0
  7 25  1  0  0  0  0
  8 26  1  0  0  0  0
  8 27  1  0  0  0  0
  9 11  2  0  0  0  0
  9 12  1  0  0  0  0
 10 13  1  0  0  0  0
 10 28  1  0  0  0  0
 10 29  1  0  0  0  0
 11 16  1  0  0  0  0
 12 17  2  0  0  0  0
 12 30  1  0  0  0  0
 13 20  2  0  0  0  0
 13 21  1  0  0  0  0
 14 19  2  0  0  0  0
 14 31  1  0  0  0  0
 15 32  1  0  0  0  0
 16 18  2  0  0  0  0
 16 33  1  0  0  0  0
 17 18  1  0  0  0  0
 17 34  1  0  0  0  0
 19 35  1  0  0  0  0
 20 22  1  0  0  0  0
 20 36  1  0  0  0  0
 21 23  2  0  0  0  0
 21 37  1  0  0  0  0
 22 24  2  0  0  0  0
 22 38  1  0  0  0  0
 23 24  1  0  0  0  0
 23 39  1  0  0  0  0
M  END
>  <DRUGBANK_ID>
DB01127

>  <SECONDARY_ACCESSION_NUMBERS>
APRD00943

>  <COMMON_NAME>
Econazole

>  <CAS_NUMBER>
27220-47-9

>  <UNII>
6Z1Y2V4A7M

>  <SYNONYMS>
(+-)-Econazole; Econazol; Econazole

$$$$
