1194
 OpenBabel10282417072D

 44 45  0  0  1  0  0  0  0  0999 V2000
    5.9370    1.4991    0.0000 S   0  0  0  0  0  0  0  0  0  0  0  0
    7.4321    1.3379    0.0000 S   0  0  0  0  0  0  0  0  0  0  0  0
    8.7386    0.6740    0.0000 S   0  0  0  0  0  0  0  0  0  0  0  0
    6.3495    2.2135    0.0000 O   0  0  0  0  0  0  0  0  0  0  0  0
    5.5245    2.2135    0.0000 O   0  0  0  0  0  0  0  0  0  0  0  0
    2.3645    1.0865    0.0000 O   0  0  0  0  0  0  0  0  0  0  0  0
    8.7386    1.4991    0.0000 O   0  0  0  0  0  0  0  0  0  0  0  0
    8.7386   -0.1510    0.0000 O   0  0  0  0  0  0  0  0  0  0  0  0
    5.2224    1.0865    0.0000 N   0  0  0  0  0  0  0  0  0  0  0  0
    5.9370   -0.9760    0.0000 N   0  0  0  0  0  0  0  0  0  0  0  0
    9.5636    0.6740    0.0000 N   0  0  0  0  0  0  0  0  0  0  0  0
    5.9370   -0.1510    0.0000 C   0  0  1  0  0  0  0  0  0  0  0  0
    5.2224    0.2615    0.0000 C   0  0  0  0  0  0  0  0  0  0  0  0
    6.6515    0.2615    0.0000 C   0  0  0  0  0  0  0  0  0  0  0  0
    6.6515    1.0865    0.0000 C   0  0  0  0  0  0  0  0  0  0  0  0
    4.5080    1.4991    0.0000 C   0  0  0  0  0  0  0  0  0  0  0  0
    7.4321    0.0101    0.0000 C   0  0  0  0  0  0  0  0  0  0  0  0
    3.7935    1.0865    0.0000 C   0  0  0  0  0  0  0  0  0  0  0  0
    7.9136    0.6740    0.0000 C   0  0  0  0  0  0  0  0  0  0  0  0
    5.2224   -1.3885    0.0000 C   0  0  0  0  0  0  0  0  0  0  0  0
    3.0791    1.4991    0.0000 C   0  0  0  0  0  0  0  0  0  0  0  0
    5.2224   -2.2135    0.0000 C   0  0  0  0  0  0  0  0  0  0  0  0
    1.6500    1.4991    0.0000 C   0  0  0  0  0  0  0  0  0  0  0  0
    6.8203   -1.4860    0.0000 H   0  0  0  0  0  0  0  0  0  0  0  0
   10.0736   -0.2093    0.0000 H   0  0  0  0  0  0  0  0  0  0  0  0
   10.0736    1.5573    0.0000 H   0  0  0  0  0  0  0  0  0  0  0  0
    5.0104   -0.6860    0.0000 H   0  0  0  0  0  0  0  0  0  0  0  0
    4.2958   -0.2735    0.0000 H   0  0  0  0  0  0  0  0  0  0  0  0
    5.2225   -0.8085    0.0000 H   0  0  0  0  0  0  0  0  0  0  0  0
    4.5080    2.5691    0.0000 H   0  0  0  0  0  0  0  0  0  0  0  0
    3.5813    2.0341    0.0000 H   0  0  0  0  0  0  0  0  0  0  0  0
    7.7527   -0.9708    0.0000 H   0  0  0  0  0  0  0  0  0  0  0  0
    3.7935    0.0165    0.0000 H   0  0  0  0  0  0  0  0  0  0  0  0
    2.8668    0.5516    0.0000 H   0  0  0  0  0  0  0  0  0  0  0  0
    4.2958   -0.8535    0.0000 H   0  0  0  0  0  0  0  0  0  0  0  0
    4.2957   -1.9235    0.0000 H   0  0  0  0  0  0  0  0  0  0  0  0
    3.0792    2.5691    0.0000 H   0  0  0  0  0  0  0  0  0  0  0  0
    4.0058    2.0340    0.0000 H   0  0  0  0  0  0  0  0  0  0  0  0
    4.2958   -2.7485    0.0000 H   0  0  0  0  0  0  0  0  0  0  0  0
    6.1490   -2.7485    0.0000 H   0  0  0  0  0  0  0  0  0  0  0  0
    5.2224   -3.2835    0.0000 H   0  0  0  0  0  0  0  0  0  0  0  0
    1.6501    2.5691    0.0000 H   0  0  0  0  0  0  0  0  0  0  0  0
    0.7233    0.9642    0.0000 H   0  0  0  0  0  0  0  0  0  0  0  0
    0.7234    2.0342    0.0000 H   0  0  0  0  0  0  0  0  0  0  0  0
  1  4  2  0  0  0  0
  1  5  2  0  0  0  0
  1  9  1  0  0  0  0
  1 15  1  0  0  0  0
  2 15  1  0  0  0  0
  2 19  1  0  0  0  0
  3  7  2  0  0  0  0
  3  8  2  0  0  0  0
  3 11  1  0  0  0  0
  3 19  1  0  0  0  0
  6 21  1  0  0  0  0
  6 23  1  0  0  0  0
  9 13  1  0  0  0  0
  9 16  1  0  0  0  0
 10 20  1  0  0  0  0
 10 24  1  0  0  0  0
 11 25  1  0  0  0  0
 11 26  1  0  0  0  0
 12 10  1  0  0  0  0
 12 13  1  0  0  0  0
 12 14  1  0  0  0  0
 12 27  1  6  0  0  0
 13 28  1  0  0  0  0
 13 29  1  0  0  0  0
 14 15  2  0  0  0  0
 14 17  1  0  0  0  0
 16 18  1  0  0  0  0
 16 30  1  0  0  0  0
 16 31  1  0  0  0  0
 17 19  2  0  0  0  0
 17 32  1  0  0  0  0
 18 21  1  0  0  0  0
 18 33  1  0  0  0  0
 18 34  1  0  0  0  0
 20 22  1  0  0  0  0
 20 35  1  0  0  0  0
 20 36  1  0  0  0  0
 21 37  1  0  0  0  0
 21 38  1  0  0  0  0
 22 39  1  0  0  0  0
 22 40  1  0  0  0  0
 22 41  1  0  0  0  0
 23 42  1  0  0  0  0
 23 43  1  0  0  0  0
 23 44  1  0  0  0  0
M  END
>  <DRUGBANK_ID>
DB01194

>  <SECONDARY_ACCESSION_NUMBERS>
APRD00475

>  <COMMON_NAME>
Brinzolamide

>  <CAS_NUMBER>
138890-62-7

>  <UNII>
9451Z89515

>  <SYNONYMS>
Brinzolamida; Brinzolamide

$$$$
