675
 OpenBabel10282417072D

 57 59  0  0  0  0  0  0  0  0999 V2000
    4.5080   -1.2375    0.0000 O   0  0  0  0  0  0  0  0  0  0  0  0
    3.0791   -2.8876    0.0000 N   0  0  0  0  0  0  0  0  0  0  0  0
    4.5080    2.0625    0.0000 C   0  0  0  0  0  0  0  0  0  0  0  0
    3.7935    2.4751    0.0000 C   0  0  0  0  0  0  0  0  0  0  0  0
    4.5080    1.2375    0.0000 C   0  0  0  0  0  0  0  0  0  0  0  0
    3.7935    3.3001    0.0000 C   0  0  0  0  0  0  0  0  0  0  0  0
    5.2224    2.4751    0.0000 C   0  0  0  0  0  0  0  0  0  0  0  0
    3.0791    2.0625    0.0000 C   0  0  0  0  0  0  0  0  0  0  0  0
    5.2224    0.8250    0.0000 C   0  0  0  0  0  0  0  0  0  0  0  0
    3.7935    0.8250    0.0000 C   0  0  0  0  0  0  0  0  0  0  0  0
    3.0791    3.7126    0.0000 C   0  0  0  0  0  0  0  0  0  0  0  0
    4.5080   -0.4125    0.0000 C   0  0  0  0  0  0  0  0  0  0  0  0
    5.2224    0.0000    0.0000 C   0  0  0  0  0  0  0  0  0  0  0  0
    3.7935    0.0000    0.0000 C   0  0  0  0  0  0  0  0  0  0  0  0
    5.2224    3.3001    0.0000 C   0  0  0  0  0  0  0  0  0  0  0  0
    5.9370    2.0625    0.0000 C   0  0  0  0  0  0  0  0  0  0  0  0
    3.0791    1.2375    0.0000 C   0  0  0  0  0  0  0  0  0  0  0  0
    2.3645    2.4751    0.0000 C   0  0  0  0  0  0  0  0  0  0  0  0
    3.7935   -2.4751    0.0000 C   0  0  0  0  0  0  0  0  0  0  0  0
    3.7935   -1.6500    0.0000 C   0  0  0  0  0  0  0  0  0  0  0  0
    5.9370    3.7126    0.0000 C   0  0  0  0  0  0  0  0  0  0  0  0
    6.6515    2.4751    0.0000 C   0  0  0  0  0  0  0  0  0  0  0  0
    2.3645    0.8250    0.0000 C   0  0  0  0  0  0  0  0  0  0  0  0
    1.6500    2.0625    0.0000 C   0  0  0  0  0  0  0  0  0  0  0  0
    6.6515    3.3001    0.0000 C   0  0  0  0  0  0  0  0  0  0  0  0
    1.6500    1.2375    0.0000 C   0  0  0  0  0  0  0  0  0  0  0  0
    3.0791   -3.7126    0.0000 C   0  0  0  0  0  0  0  0  0  0  0  0
    2.3645   -2.4751    0.0000 C   0  0  0  0  0  0  0  0  0  0  0  0
    4.7202    3.8351    0.0000 H   0  0  0  0  0  0  0  0  0  0  0  0
    3.7935    4.3701    0.0000 H   0  0  0  0  0  0  0  0  0  0  0  0
    6.1161    1.3410    0.0000 H   0  0  0  0  0  0  0  0  0  0  0  0
    2.8998    1.3410    0.0000 H   0  0  0  0  0  0  0  0  0  0  0  0
    3.0791    4.7826    0.0000 H   0  0  0  0  0  0  0  0  0  0  0  0
    2.1524    3.1776    0.0000 H   0  0  0  0  0  0  0  0  0  0  0  0
    2.1525    4.2476    0.0000 H   0  0  0  0  0  0  0  0  0  0  0  0
    6.1161   -0.5160    0.0000 H   0  0  0  0  0  0  0  0  0  0  0  0
    2.8998   -0.5160    0.0000 H   0  0  0  0  0  0  0  0  0  0  0  0
    4.3287    3.8161    0.0000 H   0  0  0  0  0  0  0  0  0  0  0  0
    5.9370    1.0305    0.0000 H   0  0  0  0  0  0  0  0  0  0  0  0
    3.9728    0.7215    0.0000 H   0  0  0  0  0  0  0  0  0  0  0  0
    2.3645    3.5071    0.0000 H   0  0  0  0  0  0  0  0  0  0  0  0
    4.7202   -3.0101    0.0000 H   0  0  0  0  0  0  0  0  0  0  0  0
    4.7201   -1.9401    0.0000 H   0  0  0  0  0  0  0  0  0  0  0  0
    2.8669   -1.1150    0.0000 H   0  0  0  0  0  0  0  0  0  0  0  0
    2.8669   -2.1850    0.0000 H   0  0  0  0  0  0  0  0  0  0  0  0
    5.9370    4.7446    0.0000 H   0  0  0  0  0  0  0  0  0  0  0  0
    7.5453    1.9591    0.0000 H   0  0  0  0  0  0  0  0  0  0  0  0
    2.3645   -0.2070    0.0000 H   0  0  0  0  0  0  0  0  0  0  0  0
    0.7562    2.5785    0.0000 H   0  0  0  0  0  0  0  0  0  0  0  0
    7.5452    3.8161    0.0000 H   0  0  0  0  0  0  0  0  0  0  0  0
    0.7563    0.7215    0.0000 H   0  0  0  0  0  0  0  0  0  0  0  0
    2.1525   -4.2476    0.0000 H   0  0  0  0  0  0  0  0  0  0  0  0
    4.0057   -4.2476    0.0000 H   0  0  0  0  0  0  0  0  0  0  0  0
    3.0791   -4.7826    0.0000 H   0  0  0  0  0  0  0  0  0  0  0  0
    2.3644   -1.4051    0.0000 H   0  0  0  0  0  0  0  0  0  0  0  0
    1.4379   -3.0102    0.0000 H   0  0  0  0  0  0  0  0  0  0  0  0
    1.4378   -1.9402    0.0000 H   0  0  0  0  0  0  0  0  0  0  0  0
  1 12  1  0  0  0  0
  1 20  1  0  0  0  0
  2 19  1  0  0  0  0
  2 27  1  0  0  0  0
  2 28  1  0  0  0  0
  3  4  2  0  0  0  0
  3  5  1  0  0  0  0
  3  7  1  0  0  0  0
  4  6  1  0  0  0  0
  4  8  1  0  0  0  0
  5  9  2  0  0  0  0
  5 10  1  0  0  0  0
  6 11  1  0  0  0  0
  6 29  1  0  0  0  0
  6 30  1  0  0  0  0
  7 15  2  0  0  0  0
  7 16  1  0  0  0  0
  8 17  2  0  0  0  0
  8 18  1  0  0  0  0
  9 13  1  0  0  0  0
  9 31  1  0  0  0  0
 10 14  2  0  0  0  0
 10 32  1  0  0  0  0
 11 33  1  0  0  0  0
 11 34  1  0  0  0  0
 11 35  1  0  0  0  0
 12 13  2  0  0  0  0
 12 14  1  0  0  0  0
 13 36  1  0  0  0  0
 14 37  1  0  0  0  0
 15 21  1  0  0  0  0
 15 38  1  0  0  0  0
 16 22  2  0  0  0  0
 16 39  1  0  0  0  0
 17 23  1  0  0  0  0
 17 40  1  0  0  0  0
 18 24  2  0  0  0  0
 18 41  1  0  0  0  0
 19 20  1  0  0  0  0
 19 42  1  0  0  0  0
 19 43  1  0  0  0  0
 20 44  1  0  0  0  0
 20 45  1  0  0  0  0
 21 25  2  0  0  0  0
 21 46  1  0  0  0  0
 22 25  1  0  0  0  0
 22 47  1  0  0  0  0
 23 26  2  0  0  0  0
 23 48  1  0  0  0  0
 24 26  1  0  0  0  0
 24 49  1  0  0  0  0
 25 50  1  0  0  0  0
 26 51  1  0  0  0  0
 27 52  1  0  0  0  0
 27 53  1  0  0  0  0
 27 54  1  0  0  0  0
 28 55  1  0  0  0  0
 28 56  1  0  0  0  0
 28 57  1  0  0  0  0
M  END
>  <DRUGBANK_ID>
DB00675

>  <SECONDARY_ACCESSION_NUMBERS>
APRD00123

>  <COMMON_NAME>
Tamoxifen

>  <CAS_NUMBER>
10540-29-1

>  <UNII>
094ZI81Y45

>  <SYNONYMS>
(Z)-2-(4-(1,2-Diphenyl-1-butenyl)phenoxy)-N,N-dimethylethanamine; (Z)-2-(para-(1,2-Diphenyl-1-butenyl)phenoxy)-N,N-dimethylamine; 1-p-beta-Dimethylaminoethoxyphenyl-trans-1,2-diphenylbut-1-ene; 1-para-beta-Dimethylaminoethoxyphenyl-trans-1,2-diphenylbut-1-ene; Tamoxifen; Tamoxif√®ne; Tamoxifene; Tamoxifeno; Tamoxifenum; trans-Tamoxifen

$$$$
