
 OpenBabel10282417072D

 81 83  0  0  0  0  0  0  0  0999 V2000
    1.2220   -0.2541    0.0000 P   0  0  2  0  0  0  0  0  0  0  0  0
    0.5076   -1.4916    0.0000 P   0  0  1  0  0  0  0  0  0  0  0  0
    4.7944    3.4584    0.0000 P   0  0  0  0  0  0  0  0  0  0  0  0
    2.6510    0.5709    0.0000 O   0  0  0  0  0  0  0  0  0  0  0  0
    2.6510    3.0459    0.0000 O   0  0  0  0  0  0  0  0  0  0  0  0
   -1.6749   -2.8060    0.0000 O   0  0  0  0  0  0  0  0  0  0  0  0
    1.2220    0.5709    0.0000 O   0  0  0  0  0  0  0  0  0  0  0  0
    4.0799    2.2209    0.0000 O   0  0  0  0  0  0  0  0  0  0  0  0
   -0.3944   -4.5141    0.0000 O   0  0  0  0  0  0  0  0  0  0  0  0
   -2.1500   -4.8873    0.0000 O   0  0  0  0  0  0  0  0  0  0  0  0
   -0.2068   -1.9041    0.0000 O   0  0  0  0  0  0  0  0  0  0  0  0
    4.0799   -0.2541    0.0000 O   0  0  0  0  0  0  0  0  0  0  0  0
    4.0799    3.8709    0.0000 O   0  0  0  0  0  0  0  0  0  0  0  0
    1.2220   -1.0791    0.0000 O   0  0  0  0  0  0  0  0  0  0  0  0
    0.3970   -0.2541    0.0000 O   0  0  0  0  0  0  0  0  0  0  0  0
    2.0470   -0.2541    0.0000 O   0  0  0  0  0  0  0  0  0  0  0  0
    0.5076    0.9834    0.0000 O   0  0  0  0  0  0  0  0  0  0  0  0
    2.1280    4.1728    0.0000 O   0  0  0  0  0  0  0  0  0  0  0  0
    0.9201   -2.2061    0.0000 O   0  0  0  0  0  0  0  0  0  0  0  0
   -2.8981   -1.9118    0.0000 O   0  0  0  0  0  0  0  0  0  0  0  0
    3.3655    4.8873    0.0000 O   0  0  0  0  0  0  0  0  0  0  0  0
    0.0951   -0.7771    0.0000 O   0  0  0  0  0  0  0  0  0  0  0  0
    5.5089    3.0459    0.0000 O   0  0  0  0  0  0  0  0  0  0  0  0
    5.2069    4.1728    0.0000 O   0  0  0  0  0  0  0  0  0  0  0  0
    4.3819    2.7438    0.0000 O   0  0  0  0  0  0  0  0  0  0  0  0
   -5.5089   -3.0741    0.0000 O   0  0  0  0  0  0  0  0  0  0  0  0
    1.2220    2.2209    0.0000 N   0  0  0  0  0  0  0  0  0  0  0  0
   -3.0474   -3.3329    0.0000 N   0  0  0  0  0  0  0  0  0  0  0  0
   -4.2035   -2.4929    0.0000 N   0  0  0  0  0  0  0  0  0  0  0  0
    2.6510    2.2209    0.0000 C   0  0  2  0  0  0  0  0  0  0  0  0
    1.9366    1.8084    0.0000 C   0  0  2  0  0  0  0  0  0  0  0  0
    3.3655    1.8084    0.0000 C   0  0  1  0  0  0  0  0  0  0  0  0
    3.3655    0.9834    0.0000 C   0  0  1  0  0  0  0  0  0  0  0  0
    1.9366    0.9834    0.0000 C   0  0  2  0  0  0  0  0  0  0  0  0
   -1.0075   -3.9621    0.0000 C   0  0  1  0  0  0  0  0  0  0  0  0
   -1.8145   -4.1336    0.0000 C   0  0  2  0  0  0  0  0  0  0  0  0
   -0.9212   -3.1416    0.0000 C   0  0  1  0  0  0  0  0  0  0  0  0
   -2.2270   -3.4191    0.0000 C   0  0  1  0  0  0  0  0  0  0  0  0
    4.0799    0.5709    0.0000 C   0  0  0  0  0  0  0  0  0  0  0  0
    3.3655    3.4584    0.0000 C   0  0  2  0  0  0  0  0  0  0  0  0
   -0.2068   -2.7291    0.0000 C   0  0  0  0  0  0  0  0  0  0  0  0
    0.5076    1.8084    0.0000 C   0  0  0  0  0  0  0  0  0  0  0  0
    3.7780    2.7438    0.0000 C   0  0  0  0  0  0  0  0  0  0  0  0
    2.9530    4.1728    0.0000 C   0  0  0  0  0  0  0  0  0  0  0  0
   -3.3830   -2.5792    0.0000 C   0  0  0  0  0  0  0  0  0  0  0  0
   -3.5324   -4.0003    0.0000 C   0  0  0  0  0  0  0  0  0  0  0  0
   -0.2068    2.2209    0.0000 C   0  0  0  0  0  0  0  0  0  0  0  0
   -4.3528   -3.9141    0.0000 C   0  0  0  0  0  0  0  0  0  0  0  0
   -4.6884   -3.1604    0.0000 C   0  0  0  0  0  0  0  0  0  0  0  0
    1.2220    2.7324    0.0000 H   0  0  0  0  0  0  0  0  0  0  0  0
   -4.4116   -2.0257    0.0000 H   0  0  0  0  0  0  0  0  0  0  0  0
    4.9200    1.7359    0.0000 H   0  0  0  0  0  0  0  0  0  0  0  0
   -0.5960   -5.4629    0.0000 H   0  0  0  0  0  0  0  0  0  0  0  0
   -3.1147   -4.9888    0.0000 H   0  0  0  0  0  0  0  0  0  0  0  0
    3.2399   -0.7391    0.0000 H   0  0  0  0  0  0  0  0  0  0  0  0
   -0.0880    0.5859    0.0000 H   0  0  0  0  0  0  0  0  0  0  0  0
    1.6595    4.9843    0.0000 H   0  0  0  0  0  0  0  0  0  0  0  0
    0.4351   -3.0461    0.0000 H   0  0  0  0  0  0  0  0  0  0  0  0
    5.5089    2.0759    0.0000 H   0  0  0  0  0  0  0  0  0  0  0  0
    6.1769    4.1728    0.0000 H   0  0  0  0  0  0  0  0  0  0  0  0
    1.7243    2.7559    0.0000 H   0  0  0  0  0  0  0  0  0  0  0  0
    1.9365    2.8784    0.0000 H   0  0  0  0  0  0  0  0  0  0  0  0
    3.3655    2.8784    0.0000 H   0  0  0  0  0  0  0  0  0  0  0  0
    3.3655   -0.0866    0.0000 H   0  0  0  0  0  0  0  0  0  0  0  0
    1.9365   -0.0866    0.0000 H   0  0  0  0  0  0  0  0  0  0  0  0
   -1.2844   -4.9956    0.0000 H   0  0  0  0  0  0  0  0  0  0  0  0
   -1.1411   -4.9651    0.0000 H   0  0  0  0  0  0  0  0  0  0  0  0
   -0.9772   -2.0731    0.0000 H   0  0  0  0  0  0  0  0  0  0  0  0
   -2.6104   -2.4202    0.0000 H   0  0  0  0  0  0  0  0  0  0  0  0
    5.0066    1.1059    0.0000 H   0  0  0  0  0  0  0  0  0  0  0  0
    4.0799    1.6409    0.0000 H   0  0  0  0  0  0  0  0  0  0  0  0
    0.7199   -3.2641    0.0000 H   0  0  0  0  0  0  0  0  0  0  0  0
   -0.2068   -3.7991    0.0000 H   0  0  0  0  0  0  0  0  0  0  0  0
    3.2429    1.8172    0.0000 H   0  0  0  0  0  0  0  0  0  0  0  0
    4.8480    2.7437    0.0000 H   0  0  0  0  0  0  0  0  0  0  0  0
    4.3129    1.8171    0.0000 H   0  0  0  0  0  0  0  0  0  0  0  0
   -3.1127   -4.9431    0.0000 H   0  0  0  0  0  0  0  0  0  0  0  0
   -0.2068    3.2909    0.0000 H   0  0  0  0  0  0  0  0  0  0  0  0
   -1.1335    1.6859    0.0000 H   0  0  0  0  0  0  0  0  0  0  0  0
   -1.1334    2.7559    0.0000 H   0  0  0  0  0  0  0  0  0  0  0  0
   -4.9594   -4.7490    0.0000 H   0  0  0  0  0  0  0  0  0  0  0  0
  1  7  1  0  0  0  0
  1 14  1  0  0  0  0
  1 15  1  0  0  0  0
  1 16  2  1  0  0  0
  2 11  1  0  0  0  0
  2 14  1  0  0  0  0
  2 19  1  0  0  0  0
  2 22  2  6  0  0  0
  3 13  1  0  0  0  0
  3 23  1  0  0  0  0
  3 24  1  0  0  0  0
  3 25  2  0  0  0  0
  4 33  1  0  0  0  0
  4 34  1  0  0  0  0
  6 37  1  0  0  0  0
  6 38  1  0  0  0  0
  8 52  1  0  0  0  0
  9 53  1  0  0  0  0
 10 54  1  0  0  0  0
 11 41  1  0  0  0  0
 12 39  1  0  0  0  0
 12 55  1  0  0  0  0
 13 40  1  0  0  0  0
 15 56  1  0  0  0  0
 17 42  2  0  0  0  0
 18 44  1  0  0  0  0
 18 57  1  0  0  0  0
 19 58  1  0  0  0  0
 20 45  2  0  0  0  0
 21 44  2  0  0  0  0
 23 59  1  0  0  0  0
 24 60  1  0  0  0  0
 26 49  2  0  0  0  0
 27 42  1  0  0  0  0
 27 50  1  0  0  0  0
 28 45  1  0  0  0  0
 28 46  1  0  0  0  0
 29 45  1  0  0  0  0
 29 49  1  0  0  0  0
 29 51  1  0  0  0  0
 30  5  1  0  0  0  0
 30 31  1  0  0  0  0
 30 32  1  0  0  0  0
 30 61  1  6  0  0  0
 31 27  1  0  0  0  0
 31 34  1  0  0  0  0
 31 62  1  1  0  0  0
 32  8  1  0  0  0  0
 32 33  1  0  0  0  0
 32 63  1  1  0  0  0
 33 39  1  0  0  0  0
 33 64  1  6  0  0  0
 34  7  1  0  0  0  0
 34 65  1  1  0  0  0
 35  9  1  0  0  0  0
 35 36  1  0  0  0  0
 35 37  1  0  0  0  0
 35 66  1  6  0  0  0
 36 10  1  0  0  0  0
 36 38  1  0  0  0  0
 36 67  1  6  0  0  0
 37 41  1  0  0  0  0
 37 68  1  1  0  0  0
 38 28  1  0  0  0  0
 38 69  1  1  0  0  0
 39 70  1  0  0  0  0
 39 71  1  0  0  0  0
 40  5  1  6  0  0  0
 40 43  1  0  0  0  0
 40 44  1  0  0  0  0
 41 72  1  0  0  0  0
 41 73  1  0  0  0  0
 42 47  1  0  0  0  0
 43 74  1  0  0  0  0
 43 75  1  0  0  0  0
 43 76  1  0  0  0  0
 46 48  2  0  0  0  0
 46 77  1  0  0  0  0
 47 78  1  0  0  0  0
 47 79  1  0  0  0  0
 47 80  1  0  0  0  0
 48 49  1  0  0  0  0
 48 81  1  0  0  0  0
M  END
>  <DRUGBANK_ID>
DB04174

>  <SECONDARY_ACCESSION_NUMBERS>
EXPT03170

>  <COMMON_NAME>
3'-1-carboxy-1-phosphonooxy-ethoxy-uridine-diphosphate-N-acetylglucosamine

$$$$
