1525
 OpenBabel10282417072D

 28 29  0  0  1  0  0  0  0  0999 V2000
    2.0928   -0.8211    0.0000 O   0  0  0  0  0  0  0  0  0  0  0  0
    3.1194   -2.1030    0.0000 O   0  0  0  0  0  0  0  0  0  0  0  0
    4.5170   -1.8060    0.0000 O   0  0  0  0  0  0  0  0  0  0  0  0
    4.4332    1.8889    0.0000 N   0  0  0  0  0  0  0  0  0  0  0  0
    4.8273    0.2815    0.0000 C   0  0  1  0  0  0  0  0  0  0  0  0
    5.0408    1.0783    0.0000 C   0  0  1  0  0  0  0  0  0  0  0  0
    3.5609   -0.7441    0.0000 C   0  0  2  0  0  0  0  0  0  0  0  0
    6.3385   -0.3446    0.0000 C   0  0  0  0  0  0  0  0  0  0  0  0
    6.5520    0.4523    0.0000 C   0  0  0  0  0  0  0  0  0  0  0  0
    2.8935    0.4119    0.0000 C   0  0  0  0  0  0  0  0  0  0  0  0
    2.8073   -0.4086    0.0000 C   0  0  2  0  0  0  0  0  0  0  0  0
    4.0207    2.6033    0.0000 C   0  0  0  0  0  0  0  0  0  0  0  0
    3.7324   -1.5510    0.0000 C   0  0  0  0  0  0  0  0  0  0  0  0
    4.6565   -0.3560    0.0000 H   0  0  0  0  0  0  0  0  0  0  0  0
    5.2116    1.7157    0.0000 H   0  0  0  0  0  0  0  0  0  0  0  0
    1.2528   -0.3361    0.0000 H   0  0  0  0  0  0  0  0  0  0  0  0
    2.2282   -1.8135    0.0000 H   0  0  0  0  0  0  0  0  0  0  0  0
    4.5695   -1.1013    0.0000 H   0  0  0  0  0  0  0  0  0  0  0  0
    6.8117   -1.3043    0.0000 H   0  0  0  0  0  0  0  0  0  0  0  0
    7.4033   -0.2397    0.0000 H   0  0  0  0  0  0  0  0  0  0  0  0
    7.5117    0.9256    0.0000 H   0  0  0  0  0  0  0  0  0  0  0  0
    7.3791   -0.2265    0.0000 H   0  0  0  0  0  0  0  0  0  0  0  0
    2.0664    1.0907    0.0000 H   0  0  0  0  0  0  0  0  0  0  0  0
    1.9036    0.0057    0.0000 H   0  0  0  0  0  0  0  0  0  0  0  0
    2.8633   -1.4771    0.0000 H   0  0  0  0  0  0  0  0  0  0  0  0
    4.5557    3.5300    0.0000 H   0  0  0  0  0  0  0  0  0  0  0  0
    2.9507    2.6033    0.0000 H   0  0  0  0  0  0  0  0  0  0  0  0
    3.4857    3.5299    0.0000 H   0  0  0  0  0  0  0  0  0  0  0  0
  1 16  1  0  0  0  0
  2 13  1  0  0  0  0
  2 17  1  0  0  0  0
  3 13  2  0  0  0  0
  4  5  1  0  0  0  0
  4  6  1  0  0  0  0
  4 12  1  0  0  0  0
  5  7  1  0  0  0  0
  5  8  1  0  0  0  0
  5 14  1  1  0  0  0
  6  9  1  0  0  0  0
  6 10  1  0  0  0  0
  6 15  1  6  0  0  0
  7 11  1  0  0  0  0
  7 13  1  0  0  0  0
  7 18  1  6  0  0  0
  8  9  1  0  0  0  0
  8 19  1  0  0  0  0
  8 20  1  0  0  0  0
  9 21  1  0  0  0  0
  9 22  1  0  0  0  0
 10 11  1  0  0  0  0
 10 23  1  0  0  0  0
 10 24  1  0  0  0  0
 11  1  1  0  0  0  0
 11 25  1  6  0  0  0
 12 26  1  0  0  0  0
 12 27  1  0  0  0  0
 12 28  1  0  0  0  0
M  END
>  <DRUGBANK_ID>
DB01525

>  <COMMON_NAME>
Ecgonine

>  <CAS_NUMBER>
481-37-8

>  <UNII>
DX2E9E17AV

$$$$
