1030
 OpenBabel10282417072D

 54 58  0  0  1  0  0  0  0  0999 V2000
    5.5924    3.9997    0.0000 O   0  0  0  0  0  0  0  0  0  0  0  0
    6.7341    1.9917    0.0000 O   0  0  0  0  0  0  0  0  0  0  0  0
    3.4360    2.7051    0.0000 O   0  0  0  0  0  0  0  0  0  0  0  0
    7.0526    3.9798    0.0000 O   0  0  0  0  0  0  0  0  0  0  0  0
    3.8154   -3.5845    0.0000 O   0  0  0  0  0  0  0  0  0  0  0  0
    4.1504    1.4677    0.0000 N   0  0  0  0  0  0  0  0  0  0  0  0
    5.2044   -0.4301    0.0000 N   0  0  0  0  0  0  0  0  0  0  0  0
    2.4712   -2.9335    0.0000 N   0  0  0  0  0  0  0  0  0  0  0  0
    6.3300    2.7108    0.0000 C   0  0  2  0  0  0  0  0  0  0  0  0
    5.5793    2.2927    0.0000 C   0  0  0  0  0  0  0  0  0  0  0  0
    4.8648    1.0552    0.0000 C   0  0  0  0  0  0  0  0  0  0  0  0
    3.5424    0.9174    0.0000 C   0  0  0  0  0  0  0  0  0  0  0  0
    4.8648    2.7051    0.0000 C   0  0  0  0  0  0  0  0  0  0  0  0
    3.8767    0.1685    0.0000 C   0  0  0  0  0  0  0  0  0  0  0  0
    4.6922    0.2536    0.0000 C   0  0  0  0  0  0  0  0  0  0  0  0
    5.5793    1.4677    0.0000 C   0  0  0  0  0  0  0  0  0  0  0  0
    4.1504    2.2927    0.0000 C   0  0  0  0  0  0  0  0  0  0  0  0
    7.1549    2.7012    0.0000 C   0  0  0  0  0  0  0  0  0  0  0  0
    4.8516    3.5643    0.0000 C   0  0  0  0  0  0  0  0  0  0  0  0
    6.3366    3.5701    0.0000 C   0  0  0  0  0  0  0  0  0  0  0  0
    3.5165   -0.6060    0.0000 C   0  0  0  0  0  0  0  0  0  0  0  0
    4.0127   -1.3013    0.0000 C   0  0  0  0  0  0  0  0  0  0  0  0
    4.8622   -1.2128    0.0000 C   0  0  0  0  0  0  0  0  0  0  0  0
    3.6376   -2.1082    0.0000 C   0  0  0  0  0  0  0  0  0  0  0  0
    7.5589    1.9821    0.0000 C   0  0  0  0  0  0  0  0  0  0  0  0
    2.8161   -2.1842    0.0000 C   0  0  0  0  0  0  0  0  0  0  0  0
    5.3957   -1.9249    0.0000 C   0  0  0  0  0  0  0  0  0  0  0  0
    4.1543   -2.8325    0.0000 C   0  0  0  0  0  0  0  0  0  0  0  0
    5.0394   -2.7402    0.0000 C   0  0  0  0  0  0  0  0  0  0  0  0
    1.6499   -3.0096    0.0000 C   0  0  0  0  0  0  0  0  0  0  0  0
    2.9478   -3.6070    0.0000 C   0  0  0  0  0  0  0  0  0  0  0  0
    6.2394    1.1574    0.0000 H   0  0  0  0  0  0  0  0  0  0  0  0
    2.8831   -3.6782    0.0000 H   0  0  0  0  0  0  0  0  0  0  0  0
    2.4954    1.1380    0.0000 H   0  0  0  0  0  0  0  0  0  0  0  0
    2.8702    0.0849    0.0000 H   0  0  0  0  0  0  0  0  0  0  0  0
    6.4730    0.9517    0.0000 H   0  0  0  0  0  0  0  0  0  0  0  0
    7.7007    3.6215    0.0000 H   0  0  0  0  0  0  0  0  0  0  0  0
    8.2248    2.6887    0.0000 H   0  0  0  0  0  0  0  0  0  0  0  0
    3.9188    4.0886    0.0000 H   0  0  0  0  0  0  0  0  0  0  0  0
    3.9322    3.0169    0.0000 H   0  0  0  0  0  0  0  0  0  0  0  0
    2.4889   -0.7011    0.0000 H   0  0  0  0  0  0  0  0  0  0  0  0
    7.0131    1.0618    0.0000 H   0  0  0  0  0  0  0  0  0  0  0  0
    8.6288    1.9695    0.0000 H   0  0  0  0  0  0  0  0  0  0  0  0
    8.0830    1.0492    0.0000 H   0  0  0  0  0  0  0  0  0  0  0  0
    2.1980   -1.3108    0.0000 H   0  0  0  0  0  0  0  0  0  0  0  0
    3.2635   -1.2122    0.0000 H   0  0  0  0  0  0  0  0  0  0  0  0
    6.4208   -1.8060    0.0000 H   0  0  0  0  0  0  0  0  0  0  0  0
    5.6485   -3.5733    0.0000 H   0  0  0  0  0  0  0  0  0  0  0  0
    1.0317   -2.1363    0.0000 H   0  0  0  0  0  0  0  0  0  0  0  0
    1.2027   -3.9817    0.0000 H   0  0  0  0  0  0  0  0  0  0  0  0
    0.5845   -3.1083    0.0000 H   0  0  0  0  0  0  0  0  0  0  0  0
    2.5004   -4.5790    0.0000 H   0  0  0  0  0  0  0  0  0  0  0  0
    4.0133   -3.5084    0.0000 H   0  0  0  0  0  0  0  0  0  0  0  0
    3.5659   -4.4804    0.0000 H   0  0  0  0  0  0  0  0  0  0  0  0
  1 19  1  0  0  0  0
  1 20  1  0  0  0  0
  2 32  1  0  0  0  0
  3 17  2  0  0  0  0
  4 20  2  0  0  0  0
  5 28  1  0  0  0  0
  5 33  1  0  0  0  0
  6 11  1  0  0  0  0
  6 12  1  0  0  0  0
  6 17  1  0  0  0  0
  7 15  2  0  0  0  0
  7 23  1  0  0  0  0
  8 26  1  0  0  0  0
  8 30  1  0  0  0  0
  8 31  1  0  0  0  0
  9  2  1  1  0  0  0
  9 10  1  0  0  0  0
  9 18  1  0  0  0  0
  9 20  1  0  0  0  0
 10 13  2  0  0  0  0
 10 16  1  0  0  0  0
 11 15  1  0  0  0  0
 11 16  2  0  0  0  0
 12 14  1  0  0  0  0
 12 34  1  0  0  0  0
 12 35  1  0  0  0  0
 13 17  1  0  0  0  0
 13 19  1  0  0  0  0
 14 15  1  0  0  0  0
 14 21  2  0  0  0  0
 16 36  1  0  0  0  0
 18 25  1  0  0  0  0
 18 37  1  0  0  0  0
 18 38  1  0  0  0  0
 19 39  1  0  0  0  0
 19 40  1  0  0  0  0
 21 22  1  0  0  0  0
 21 41  1  0  0  0  0
 22 23  2  0  0  0  0
 22 24  1  0  0  0  0
 23 27  1  0  0  0  0
 24 26  1  0  0  0  0
 24 28  2  0  0  0  0
 25 42  1  0  0  0  0
 25 43  1  0  0  0  0
 25 44  1  0  0  0  0
 26 45  1  0  0  0  0
 26 46  1  0  0  0  0
 27 29  2  0  0  0  0
 27 47  1  0  0  0  0
 28 29  1  0  0  0  0
 29 48  1  0  0  0  0
 30 49  1  0  0  0  0
 30 50  1  0  0  0  0
 30 51  1  0  0  0  0
 31 52  1  0  0  0  0
 31 53  1  0  0  0  0
 31 54  1  0  0  0  0
M  END
>  <DRUGBANK_ID>
DB01030

>  <SECONDARY_ACCESSION_NUMBERS>
APRD00687

>  <COMMON_NAME>
Topotecan

>  <CAS_NUMBER>
123948-87-8

>  <UNII>
7M7YKX2N15

>  <SYNONYMS>
9-[(dimethylamino)methyl]-10-hydroxy-(4S)-camptothecin; Topotecan; Topotecane; Topotecanum

$$$$
