
 OpenBabel10282417072D

 56 58  0  0  0  0  0  0  0  0999 V2000
   -5.3585    2.4750    0.0000 C   0  0  0  0  0  0  0  0  0  0  0  0
   -4.6440    2.0625    0.0000 C   0  0  0  0  0  0  0  0  0  0  0  0
   -4.6440    1.2375    0.0000 C   0  0  0  0  0  0  0  0  0  0  0  0
   -5.3585    0.8250    0.0000 O   0  0  0  0  0  0  0  0  0  0  0  0
   -3.9295    0.8250    0.0000 N   0  0  0  0  0  0  0  0  0  0  0  0
   -3.9295    0.0000    0.0000 S   0  0  0  0  0  0  0  0  0  0  0  0
   -4.7545    0.0000    0.0000 O   0  0  0  0  0  0  0  0  0  0  0  0
   -3.1045    0.0000    0.0000 O   0  0  0  0  0  0  0  0  0  0  0  0
   -3.9295   -0.8250    0.0000 C   0  0  0  0  0  0  0  0  0  0  0  0
   -3.2151   -1.2375    0.0000 C   0  0  0  0  0  0  0  0  0  0  0  0
   -3.2151   -2.0625    0.0000 C   0  0  0  0  0  0  0  0  0  0  0  0
   -2.5006   -2.4750    0.0000 N   0  0  0  0  0  0  0  0  0  0  0  0
   -1.7861   -2.0625    0.0000 C   0  0  0  0  0  0  0  0  0  0  0  0
   -1.7861   -1.2375    0.0000 N   0  0  0  0  0  0  0  0  0  0  0  0
   -1.0717   -0.8250    0.0000 C   0  0  0  0  0  0  0  0  0  0  0  0
   -0.3572   -1.2375    0.0000 C   0  0  0  0  0  0  0  0  0  0  0  0
    0.3572   -0.8250    0.0000 F   0  0  0  0  0  0  0  0  0  0  0  0
   -0.3572   -2.0625    0.0000 C   0  0  0  0  0  0  0  0  0  0  0  0
    0.3572   -2.4750    0.0000 N   0  0  0  0  0  0  0  0  0  0  0  0
    1.0717   -2.0625    0.0000 C   0  0  0  0  0  0  0  0  0  0  0  0
    1.0717   -1.2375    0.0000 C   0  0  0  0  0  0  0  0  0  0  0  0
    1.7861   -0.8250    0.0000 C   0  0  0  0  0  0  0  0  0  0  0  0
    2.5006   -1.2375    0.0000 C   0  0  0  0  0  0  0  0  0  0  0  0
    3.2151   -0.8250    0.0000 O   0  0  0  0  0  0  0  0  0  0  0  0
    3.9295   -1.2375    0.0000 C   0  0  0  0  0  0  0  0  0  0  0  0
    4.6440   -0.8250    0.0000 C   0  0  0  0  0  0  0  0  0  0  0  0
    5.3585   -0.4125    0.0000 C   0  0  0  0  0  0  0  0  0  0  0  0
    2.5006   -2.0625    0.0000 C   0  0  0  0  0  0  0  0  0  0  0  0
    1.7861   -2.4750    0.0000 C   0  0  0  0  0  0  0  0  0  0  0  0
   -1.0717   -2.4750    0.0000 N   0  0  0  0  0  0  0  0  0  0  0  0
   -3.9295   -2.4750    0.0000 C   0  0  0  0  0  0  0  0  0  0  0  0
   -4.6440   -2.0625    0.0000 C   0  0  0  0  0  0  0  0  0  0  0  0
   -4.6440   -1.2375    0.0000 C   0  0  0  0  0  0  0  0  0  0  0  0
   -5.3585   -0.8250    0.0000 C   0  0  0  0  0  0  0  0  0  0  0  0
   -5.3585    3.5450    0.0000 H   0  0  0  0  0  0  0  0  0  0  0  0
   -6.2851    1.9400    0.0000 H   0  0  0  0  0  0  0  0  0  0  0  0
   -6.2852    3.0100    0.0000 H   0  0  0  0  0  0  0  0  0  0  0  0
   -3.7174    2.5975    0.0000 H   0  0  0  0  0  0  0  0  0  0  0  0
   -3.7174    1.5275    0.0000 H   0  0  0  0  0  0  0  0  0  0  0  0
   -3.0769    1.3173    0.0000 H   0  0  0  0  0  0  0  0  0  0  0  0
   -2.3214   -0.7215    0.0000 H   0  0  0  0  0  0  0  0  0  0  0  0
   -2.5006   -3.4595    0.0000 H   0  0  0  0  0  0  0  0  0  0  0  0
   -1.0717    0.2070    0.0000 H   0  0  0  0  0  0  0  0  0  0  0  0
    0.3572   -3.4595    0.0000 H   0  0  0  0  0  0  0  0  0  0  0  0
    0.1780   -0.7215    0.0000 H   0  0  0  0  0  0  0  0  0  0  0  0
    1.7861    0.2070    0.0000 H   0  0  0  0  0  0  0  0  0  0  0  0
    3.9295   -2.3075    0.0000 H   0  0  0  0  0  0  0  0  0  0  0  0
    4.8561   -1.7725    0.0000 H   0  0  0  0  0  0  0  0  0  0  0  0
    6.2193    0.0845    0.0000 H   0  0  0  0  0  0  0  0  0  0  0  0
    3.3943   -2.5785    0.0000 H   0  0  0  0  0  0  0  0  0  0  0  0
    1.7861   -3.5070    0.0000 H   0  0  0  0  0  0  0  0  0  0  0  0
   -3.9295   -3.5070    0.0000 H   0  0  0  0  0  0  0  0  0  0  0  0
   -5.5377   -2.5785    0.0000 H   0  0  0  0  0  0  0  0  0  0  0  0
   -5.3585    0.2450    0.0000 H   0  0  0  0  0  0  0  0  0  0  0  0
   -6.2851   -1.3600    0.0000 H   0  0  0  0  0  0  0  0  0  0  0  0
   -6.2852   -0.2900    0.0000 H   0  0  0  0  0  0  0  0  0  0  0  0
  1  2  1  0  0  0  0
  1 35  1  0  0  0  0
  1 36  1  0  0  0  0
  1 37  1  0  0  0  0
  2  3  1  0  0  0  0
  2 38  1  0  0  0  0
  2 39  1  0  0  0  0
  3  4  2  0  0  0  0
  3  5  1  0  0  0  0
  5  6  1  0  0  0  0
  5 40  1  0  0  0  0
  6  7  2  0  0  0  0
  6  8  2  0  0  0  0
  6  9  1  0  0  0  0
  9 10  2  0  0  0  0
  9 33  1  0  0  0  0
 10 11  1  0  0  0  0
 10 41  1  0  0  0  0
 11 12  1  0  0  0  0
 11 31  2  0  0  0  0
 12 13  1  0  0  0  0
 12 42  1  0  0  0  0
 13 14  2  0  0  0  0
 13 30  1  0  0  0  0
 14 15  1  0  0  0  0
 15 16  2  0  0  0  0
 15 43  1  0  0  0  0
 16 17  1  0  0  0  0
 16 18  1  0  0  0  0
 18 19  1  0  0  0  0
 18 30  2  0  0  0  0
 19 20  1  0  0  0  0
 19 44  1  0  0  0  0
 20 21  2  0  0  0  0
 20 29  1  0  0  0  0
 21 22  1  0  0  0  0
 21 45  1  0  0  0  0
 22 23  2  0  0  0  0
 22 46  1  0  0  0  0
 23 24  1  0  0  0  0
 23 28  1  0  0  0  0
 24 25  1  0  0  0  0
 25 26  1  0  0  0  0
 25 47  1  0  0  0  0
 25 48  1  0  0  0  0
 26 27  3  0  0  0  0
 27 49  1  0  0  0  0
 28 29  2  0  0  0  0
 28 50  1  0  0  0  0
 29 51  1  0  0  0  0
 31 32  1  0  0  0  0
 31 52  1  0  0  0  0
 32 33  2  0  0  0  0
 32 53  1  0  0  0  0
 33 34  1  0  0  0  0
 34 54  1  0  0  0  0
 34 55  1  0  0  0  0
 34 56  1  0  0  0  0
M  END
>  <DRUGBANK_ID>
DB06321

>  <COMMON_NAME>
R-348

>  <CAS_NUMBER>
916742-11-5

>  <UNII>
3J396119JY

>  <SYNONYMS>
5-Fluoro-N-(4-methyl-3-propionylaminosulfonylphenyl)-N'-(4-(prop-2-ynyloxy)phenyl)-2,4-pyrimidinediamine

$$$$
