
 OpenBabel10282417072D

  4  3  0  0  0  0  0  0  0  0999 V2000
   -1.4702    1.7659    0.0000 O   0  0  0  0  0  0  0  0  0  0  0  0
   -0.8789    1.1905    0.0000 O   0  0  0  0  0  0  0  0  0  0  0  0
   -1.2319    2.7062    0.0000 H   0  0  0  0  0  0  0  0  0  0  0  0
   -1.1172    0.2502    0.0000 H   0  0  0  0  0  0  0  0  0  0  0  0
  1  2  1  0  0  0  0
  1  3  1  0  0  0  0
  2  4  1  0  0  0  0
M  END
>  <DRUGBANK_ID>
DB11091

>  <COMMON_NAME>
Hydrogen peroxide

>  <CAS_NUMBER>
7722-84-1

>  <UNII>
BBX060AN9V

>  <SYNONYMS>
Hydrogen peroxide

$$$$
