
 OpenBabel10282417072D

 49 51  0  0  0  0  0  0  0  0999 V2000
    0.2034    3.2296    0.0000 N   0  0  0  0  0  0  0  0  0  0  0  0
    0.2034    2.4046    0.0000 C   0  0  0  0  0  0  0  0  0  0  0  0
   -0.5110    1.9921    0.0000 N   0  0  0  0  0  0  0  0  0  0  0  0
   -0.5111    1.1671    0.0000 C   0  0  0  0  0  0  0  0  0  0  0  0
    0.2033    0.7546    0.0000 N   0  0  0  0  0  0  0  0  0  0  0  0
    0.9178    1.1671    0.0000 C   0  0  0  0  0  0  0  0  0  0  0  0
    0.9178    1.9921    0.0000 C   0  0  0  0  0  0  0  0  0  0  0  0
    1.7024    2.2470    0.0000 N   0  0  0  0  0  0  0  0  0  0  0  0
    2.1874    1.5795    0.0000 C   0  0  0  0  0  0  0  0  0  0  0  0
    1.7024    0.9121    0.0000 N   0  0  0  0  0  0  0  0  0  0  0  0
    1.9574    0.1273    0.0000 C   0  0  2  0  0  0  0  0  0  0  0  0
    1.4724   -0.5399    0.0000 O   0  0  0  0  0  0  0  0  0  0  0  0
    1.9573   -1.2075    0.0000 C   0  0  1  0  0  0  0  0  0  0  0  0
    2.7419   -0.9525    0.0000 C   0  0  1  0  0  0  0  0  0  0  0  0
    3.4094   -1.4375    0.0000 O   0  0  0  0  0  0  0  0  0  0  0  0
    2.7420   -0.1275    0.0000 C   0  0  1  0  0  0  0  0  0  0  0  0
    3.4094    0.3573    0.0000 O   0  0  0  0  0  0  0  0  0  0  0  0
    0.8773   -1.9921    0.0000 O   0  0  0  0  0  0  0  0  0  0  0  0
    0.1628   -3.2296    0.0000 O   0  0  0  0  0  0  0  0  0  0  0  0
    0.1628   -2.4046    0.0000 P   0  0  3  0  0  0  0  0  0  0  0  0
    0.1628   -1.5796    0.0000 O   0  0  0  0  0  0  0  0  0  0  0  0
   -1.2660   -3.2296    0.0000 O   0  0  0  0  0  0  0  0  0  0  0  0
   -1.2660   -2.4046    0.0000 P   0  0  3  0  0  0  0  0  0  0  0  0
   -1.2660   -1.5599    0.0000 O   0  0  0  0  0  0  0  0  0  0  0  0
   -2.6949   -3.2296    0.0000 O   0  0  0  0  0  0  0  0  0  0  0  0
   -3.4094   -1.9921    0.0000 O   0  0  0  0  0  0  0  0  0  0  0  0
   -2.6949   -2.4046    0.0000 P   0  0  0  0  0  0  0  0  0  0  0  0
   -2.6949   -1.5796    0.0000 O   0  0  0  0  0  0  0  0  0  0  0  0
    1.7023   -1.9921    0.0000 C   0  0  0  0  0  0  0  0  0  0  0  0
   -1.9805   -1.9921    0.0000 O   0  0  0  0  0  0  0  0  0  0  0  0
   -0.5515   -1.9921    0.0000 C   0  0  0  0  0  0  0  0  0  0  0  0
    1.0560    3.7218    0.0000 H   0  0  0  0  0  0  0  0  0  0  0  0
   -0.6492    3.7218    0.0000 H   0  0  0  0  0  0  0  0  0  0  0  0
   -1.4049    0.6512    0.0000 H   0  0  0  0  0  0  0  0  0  0  0  0
    3.2194    1.5795    0.0000 H   0  0  0  0  0  0  0  0  0  0  0  0
    0.9006    0.2948    0.0000 H   0  0  0  0  0  0  0  0  0  0  0  0
    0.9005   -1.3748    0.0000 H   0  0  0  0  0  0  0  0  0  0  0  0
    2.5745   -2.0093    0.0000 H   0  0  0  0  0  0  0  0  0  0  0  0
    3.3080   -2.4022    0.0000 H   0  0  0  0  0  0  0  0  0  0  0  0
    2.5746    0.9293    0.0000 H   0  0  0  0  0  0  0  0  0  0  0  0
    4.2955   -0.0373    0.0000 H   0  0  0  0  0  0  0  0  0  0  0  0
    1.0028   -1.0946    0.0000 H   0  0  0  0  0  0  0  0  0  0  0  0
   -0.4260   -1.0749    0.0000 H   0  0  0  0  0  0  0  0  0  0  0  0
   -3.4094   -1.0221    0.0000 H   0  0  0  0  0  0  0  0  0  0  0  0
   -1.8549   -1.0946    0.0000 H   0  0  0  0  0  0  0  0  0  0  0  0
    2.3312   -2.8578    0.0000 H   0  0  0  0  0  0  0  0  0  0  0  0
    1.2165   -2.9455    0.0000 H   0  0  0  0  0  0  0  0  0  0  0  0
   -0.5514   -0.9221    0.0000 H   0  0  0  0  0  0  0  0  0  0  0  0
   -1.4781   -1.4571    0.0000 H   0  0  0  0  0  0  0  0  0  0  0  0
  1  2  1  0  0  0  0
  1 32  1  0  0  0  0
  1 33  1  0  0  0  0
  2  3  2  0  0  0  0
  2  7  1  0  0  0  0
  3  4  1  0  0  0  0
  4  5  2  0  0  0  0
  4 34  1  0  0  0  0
  5  6  1  0  0  0  0
  6  7  2  0  0  0  0
  6 10  1  0  0  0  0
  7  8  1  0  0  0  0
  8  9  2  0  0  0  0
  9 10  1  0  0  0  0
  9 35  1  0  0  0  0
 11 10  1  0  0  0  0
 11 12  1  0  0  0  0
 11 16  1  0  0  0  0
 11 36  1  6  0  0  0
 12 13  1  0  0  0  0
 13 29  1  0  0  0  0
 13 14  1  0  0  0  0
 13 37  1  6  0  0  0
 14 15  1  0  0  0  0
 14 16  1  0  0  0  0
 14 38  1  1  0  0  0
 15 39  1  0  0  0  0
 16 17  1  0  0  0  0
 16 40  1  1  0  0  0
 17 41  1  0  0  0  0
 18 20  1  0  0  0  0
 20 19  2  0  0  0  0
 20 31  1  0  0  0  0
 20 21  1  0  0  0  0
 21 42  1  0  0  0  0
 23 22  2  0  0  0  0
 23 30  1  0  0  0  0
 23 24  1  0  0  0  0
 24 43  1  0  0  0  0
 26 44  1  0  0  0  0
 27 25  2  0  0  0  0
 27 26  1  0  0  0  0
 27 28  1  0  0  0  0
 28 45  1  0  0  0  0
 29 18  1  0  0  0  0
 29 46  1  0  0  0  0
 29 47  1  0  0  0  0
 30 27  1  0  0  0  0
 31 23  1  0  0  0  0
 31 48  1  0  0  0  0
 31 49  1  0  0  0  0
M  END
>  <DRUGBANK_ID>
DB02596

>  <SECONDARY_ACCESSION_NUMBERS>
EXPT00539

>  <COMMON_NAME>
alpha,beta-Methyleneadenosine 5'-triphosphate

>  <CAS_NUMBER>
7292-42-4

>  <UNII>
NYX13NT29D

>  <SYNONYMS>
adenosine 5'-[alpha,beta-methylene]triphosphate; adenosine 5'-[α,β-methylene]triphosphate; alpha,beta-MeATP; alpha,beta-Methylene ATP

$$$$
