
 OpenBabel10282417072D

 79 82  0  0  1  0  0  0  0  0999 V2000
    2.2580   -2.3340    0.0000 H   0  0  0  0  0  0  0  0  0  0  0  0
    3.0683   -2.4895    0.0000 C   0  0  1  0  0  0  0  0  0  0  0  0
    2.8390   -1.6970    0.0000 C   0  0  0  0  0  0  0  0  0  0  0  0
    3.5218   -1.2340    0.0000 C   0  0  0  0  0  0  0  0  0  0  0  0
    4.1731   -1.7404    0.0000 C   0  0  1  0  0  0  0  0  0  0  0  0
    4.7050   -2.3711    0.0000 H   0  0  0  0  0  0  0  0  0  0  0  0
    4.9853   -1.5952    0.0000 C   0  0  2  0  0  0  0  0  0  0  0  0
    4.4534   -0.9645    0.0000 H   0  0  0  0  0  0  0  0  0  0  0  0
    5.2655   -0.8192    0.0000 C   0  0  0  0  0  0  0  0  0  0  0  0
    6.0777   -0.6740    0.0000 C   0  0  0  0  0  0  0  0  0  0  0  0
    6.6095   -1.3047    0.0000 C   0  0  0  0  0  0  0  0  0  0  0  0
    7.4216   -1.1595    0.0000 C   0  0  0  0  0  0  0  0  0  0  0  0
    7.9534   -1.7902    0.0000 C   0  0  2  0  0  0  0  0  0  0  0  0
    7.6731   -2.5662    0.0000 C   0  0  0  0  0  0  0  0  0  0  0  0
    6.8610   -2.7114    0.0000 C   0  0  0  0  0  0  0  0  0  0  0  0
    6.3292   -2.0807    0.0000 C   0  0  1  0  0  0  0  0  0  0  0  0
    6.0489   -2.8566    0.0000 C   0  0  0  0  0  0  0  0  0  0  0  0
    5.5171   -2.2259    0.0000 C   0  0  1  0  0  0  0  0  0  0  0  0
    5.7974   -1.4499    0.0000 H   0  0  0  0  0  0  0  0  0  0  0  0
    5.2368   -3.0018    0.0000 C   0  0  0  0  0  0  0  0  0  0  0  0
    4.4247   -3.1470    0.0000 C   0  0  0  0  0  0  0  0  0  0  0  0
    3.8928   -2.5163    0.0000 C   0  0  2  0  0  0  0  0  0  0  0  0
    3.5330   -3.2587    0.0000 C   0  0  0  0  0  0  0  0  0  0  0  0
    8.7655   -1.6450    0.0000 O   0  0  0  0  0  0  0  0  0  0  0  0
    9.2974   -2.2757    0.0000 S   0  0  0  0  0  0  0  0  0  0  0  0
    9.8292   -2.9064    0.0000 O   0  0  0  0  0  0  0  0  0  0  0  0
    9.9281   -1.7439    0.0000 O   0  0  0  0  0  0  0  0  0  0  0  0
    8.6667   -2.8075    0.0000 O   0  0  0  0  0  0  0  0  0  0  0  0
    2.5619   -3.1408    0.0000 C   0  0  2  0  0  0  0  0  0  0  0  0
    2.8728   -3.9050    0.0000 C   0  0  0  0  0  0  0  0  0  0  0  0
    1.7447   -3.0280    0.0000 C   0  0  0  0  0  0  0  0  0  0  0  0
    1.2383   -3.6793    0.0000 C   0  0  0  0  0  0  0  0  0  0  0  0
    0.4211   -3.5665    0.0000 C   0  0  0  0  0  0  0  0  0  0  0  0
   -0.0853   -4.2178    0.0000 C   0  0  0  0  0  0  0  0  0  0  0  0
   -0.5916   -4.8691    0.0000 C   0  0  0  0  0  0  0  0  0  0  0  0
   -0.7366   -3.7114    0.0000 C   0  0  0  0  0  0  0  0  0  0  0  0
    0.5660   -4.7241    0.0000 O   0  0  0  0  0  0  0  0  0  0  0  0
    1.8326   -1.3335    0.0000 H   0  0  0  0  0  0  0  0  0  0  0  0
    2.7060   -0.6353    0.0000 H   0  0  0  0  0  0  0  0  0  0  0  0
    3.5566   -0.1646    0.0000 H   0  0  0  0  0  0  0  0  0  0  0  0
    4.4905   -0.7795    0.0000 H   0  0  0  0  0  0  0  0  0  0  0  0
    4.5757   -0.0012    0.0000 H   0  0  0  0  0  0  0  0  0  0  0  0
    5.6290    0.1872    0.0000 H   0  0  0  0  0  0  0  0  0  0  0  0
    6.4284    0.2966    0.0000 H   0  0  0  0  0  0  0  0  0  0  0  0
    7.7852   -0.1532    0.0000 H   0  0  0  0  0  0  0  0  0  0  0  0
    8.4749   -0.9712    0.0000 H   0  0  0  0  0  0  0  0  0  0  0  0
    8.3170   -0.7839    0.0000 H   0  0  0  0  0  0  0  0  0  0  0  0
    8.3629   -3.3842    0.0000 H   0  0  0  0  0  0  0  0  0  0  0  0
    7.3096   -3.5725    0.0000 H   0  0  0  0  0  0  0  0  0  0  0  0
    6.4974   -3.7177    0.0000 H   0  0  0  0  0  0  0  0  0  0  0  0
    5.8077   -2.8997    0.0000 H   0  0  0  0  0  0  0  0  0  0  0  0
    4.9956   -3.0449    0.0000 H   0  0  0  0  0  0  0  0  0  0  0  0
    6.7386   -3.6746    0.0000 H   0  0  0  0  0  0  0  0  0  0  0  0
    5.6853   -3.8629    0.0000 H   0  0  0  0  0  0  0  0  0  0  0  0
    5.9265   -3.8198    0.0000 H   0  0  0  0  0  0  0  0  0  0  0  0
    4.8732   -4.0081    0.0000 H   0  0  0  0  0  0  0  0  0  0  0  0
    4.0612   -4.1534    0.0000 H   0  0  0  0  0  0  0  0  0  0  0  0
    3.3714   -3.3354    0.0000 H   0  0  0  0  0  0  0  0  0  0  0  0
    2.4658   -3.3360    0.0000 H   0  0  0  0  0  0  0  0  0  0  0  0
    4.1336   -4.1443    0.0000 H   0  0  0  0  0  0  0  0  0  0  0  0
    3.0663   -4.2216    0.0000 H   0  0  0  0  0  0  0  0  0  0  0  0
    9.4996   -3.8187    0.0000 H   0  0  0  0  0  0  0  0  0  0  0  0
    1.9052   -3.9856    0.0000 H   0  0  0  0  0  0  0  0  0  0  0  0
    2.2161   -4.7498    0.0000 H   0  0  0  0  0  0  0  0  0  0  0  0
    3.9327   -4.0514    0.0000 H   0  0  0  0  0  0  0  0  0  0  0  0
    3.2760   -4.8961    0.0000 H   0  0  0  0  0  0  0  0  0  0  0  0
    1.3415   -2.0369    0.0000 H   0  0  0  0  0  0  0  0  0  0  0  0
    0.6848   -2.8816    0.0000 H   0  0  0  0  0  0  0  0  0  0  0  0
    1.6415   -4.6704    0.0000 H   0  0  0  0  0  0  0  0  0  0  0  0
    0.5816   -4.5241    0.0000 H   0  0  0  0  0  0  0  0  0  0  0  0
    0.0179   -2.5754    0.0000 H   0  0  0  0  0  0  0  0  0  0  0  0
   -0.6388   -3.4201    0.0000 H   0  0  0  0  0  0  0  0  0  0  0  0
   -1.6515   -4.7228    0.0000 H   0  0  0  0  0  0  0  0  0  0  0  0
   -0.1884   -5.8602    0.0000 H   0  0  0  0  0  0  0  0  0  0  0  0
   -1.2483   -5.7139    0.0000 H   0  0  0  0  0  0  0  0  0  0  0  0
   -0.5902   -2.6515    0.0000 H   0  0  0  0  0  0  0  0  0  0  0  0
   -1.7277   -4.1146    0.0000 H   0  0  0  0  0  0  0  0  0  0  0  0
   -1.5813   -3.0546    0.0000 H   0  0  0  0  0  0  0  0  0  0  0  0
    0.4333   -5.6850    0.0000 H   0  0  0  0  0  0  0  0  0  0  0  0
  2  1  1  6  0  0  0
  2  3  1  0  0  0  0
  2 22  1  0  0  0  0
  2 29  1  0  0  0  0
  3  4  1  0  0  0  0
  3 38  1  0  0  0  0
  3 39  1  0  0  0  0
  4 40  1  0  0  0  0
  4 41  1  0  0  0  0
  5  4  1  0  0  0  0
  5  6  1  6  0  0  0
  5  7  1  0  0  0  0
  7  8  1  1  0  0  0
  7  9  1  0  0  0  0
  7 18  1  0  0  0  0
  9 10  1  0  0  0  0
  9 42  1  0  0  0  0
  9 43  1  0  0  0  0
 10 11  2  0  0  0  0
 10 44  1  0  0  0  0
 11 12  1  0  0  0  0
 12 45  1  0  0  0  0
 12 46  1  0  0  0  0
 13 12  1  0  0  0  0
 13 14  1  0  0  0  0
 13 24  1  0  0  0  0
 13 47  1  6  0  0  0
 14 15  1  0  0  0  0
 14 48  1  0  0  0  0
 14 49  1  0  0  0  0
 15 50  1  0  0  0  0
 15 51  1  0  0  0  0
 16 15  1  0  0  0  0
 16 11  1  0  0  0  0
 16 17  1  1  0  0  0
 17 52  1  0  0  0  0
 17 53  1  0  0  0  0
 17 54  1  0  0  0  0
 18 16  1  0  0  0  0
 18 19  1  6  0  0  0
 18 20  1  0  0  0  0
 20 21  1  0  0  0  0
 20 55  1  0  0  0  0
 20 56  1  0  0  0  0
 21 57  1  0  0  0  0
 21 58  1  0  0  0  0
 22 21  1  0  0  0  0
 22  5  1  0  0  0  0
 22 23  1  1  0  0  0
 23 59  1  0  0  0  0
 23 60  1  0  0  0  0
 23 61  1  0  0  0  0
 24 25  1  0  0  0  0
 25 26  1  0  0  0  0
 25 27  2  0  0  0  0
 25 28  2  0  0  0  0
 26 62  1  0  0  0  0
 29 30  1  0  0  0  0
 29 31  1  0  0  0  0
 29 63  1  1  0  0  0
 30 64  1  0  0  0  0
 30 65  1  0  0  0  0
 30 66  1  0  0  0  0
 31 32  1  0  0  0  0
 31 67  1  0  0  0  0
 31 68  1  0  0  0  0
 32 33  1  0  0  0  0
 32 69  1  0  0  0  0
 32 70  1  0  0  0  0
 33 34  1  0  0  0  0
 33 71  1  0  0  0  0
 33 72  1  0  0  0  0
 34 35  1  0  0  0  0
 34 36  1  0  0  0  0
 34 37  1  0  0  0  0
 35 73  1  0  0  0  0
 35 74  1  0  0  0  0
 35 75  1  0  0  0  0
 36 76  1  0  0  0  0
 36 77  1  0  0  0  0
 36 78  1  0  0  0  0
 37 79  1  0  0  0  0
M  END
>  <DRUGBANK_ID>
DB18079

>  <COMMON_NAME>
Larsucosterol

>  <CAS_NUMBER>
884905-07-1

>  <UNII>
UGX2V7MGMZ

>  <SYNONYMS>
25-hydroxycholest-5-en-3.beta.-yl hydrogen sulfate; 5-cholesten-3.beta.-25-diol-3-sulfate; 5-cholesten-3.beta., 25-diol 3-sulfate; Cholest-5-ene-3,25-diol, 3-(hydrogen sulfate), (3.beta.)-

$$$$
