
 OpenBabel10282417072D

 42 43  0  0  0  0  0  0  0  0999 V2000
   -2.0265   -4.0304    0.0000 O   0  0  0  0  0  0  0  0  0  0  0  0
   -1.5484   -4.7022    0.0000 C   0  0  0  0  0  0  0  0  0  0  0  0
   -2.8008   -4.2752    0.0000 C   0  0  0  0  0  0  0  0  0  0  0  0
   -2.0265   -5.3511    0.0000 C   0  0  0  0  0  0  0  0  0  0  0  0
   -2.8008   -5.1063    0.0000 C   0  0  0  0  0  0  0  0  0  0  0  0
   -0.7286   -4.7022    0.0000 C   0  0  3  0  0  0  0  0  0  0  0  0
   -0.7286   -3.2790    0.0000 N   0  0  0  0  0  0  0  0  0  0  0  0
   -3.5123   -3.8653    0.0000 C   0  0  0  0  0  0  0  0  0  0  0  0
   -0.3187   -3.9962    0.0000 C   0  0  0  0  0  0  0  0  0  0  0  0
   -0.3187   -2.5674    0.0000 C   0  0  0  0  0  0  0  0  0  0  0  0
   -0.3187   -5.4194    0.0000 O   0  0  0  0  0  0  0  0  0  0  0  0
   -3.5123   -5.5162    0.0000 C   0  0  0  0  0  0  0  0  0  0  0  0
   -4.2296   -5.1063    0.0000 C   0  0  0  0  0  0  0  0  0  0  0  0
   -4.2296   -4.2752    0.0000 C   0  0  0  0  0  0  0  0  0  0  0  0
   -3.5123   -3.0456    0.0000 C   0  0  0  0  0  0  0  0  0  0  0  0
   -1.0247   -2.1405    0.0000 C   0  0  0  0  0  0  0  0  0  0  0  0
    0.1082   -1.8502    0.0000 C   0  0  0  0  0  0  0  0  0  0  0  0
    0.4099   -2.9773    0.0000 C   0  0  0  0  0  0  0  0  0  0  0  0
   -4.2296   -2.6300    0.0000 C   0  0  0  0  0  0  0  0  0  0  0  0
   -1.7070   -6.3324    0.0000 H   0  0  0  0  0  0  0  0  0  0  0  0
   -1.2625   -3.7749    0.0000 H   0  0  0  0  0  0  0  0  0  0  0  0
   -1.7486   -3.2773    0.0000 H   0  0  0  0  0  0  0  0  0  0  0  0
    0.7513   -3.9998    0.0000 H   0  0  0  0  0  0  0  0  0  0  0  0
    0.2136   -4.9244    0.0000 H   0  0  0  0  0  0  0  0  0  0  0  0
   -0.8074   -6.2573    0.0000 H   0  0  0  0  0  0  0  0  0  0  0  0
   -3.5105   -6.5482    0.0000 H   0  0  0  0  0  0  0  0  0  0  0  0
   -5.1222   -5.6243    0.0000 H   0  0  0  0  0  0  0  0  0  0  0  0
   -5.1222   -3.7572    0.0000 H   0  0  0  0  0  0  0  0  0  0  0  0
   -2.5852   -2.5113    0.0000 H   0  0  0  0  0  0  0  0  0  0  0  0
   -3.5111   -1.9756    0.0000 H   0  0  0  0  0  0  0  0  0  0  0  0
   -1.0030   -1.0707    0.0000 H   0  0  0  0  0  0  0  0  0  0  0  0
   -1.9620   -2.6566    0.0000 H   0  0  0  0  0  0  0  0  0  0  0  0
   -1.9403   -1.5868    0.0000 H   0  0  0  0  0  0  0  0  0  0  0  0
    1.1781   -1.8644    0.0000 H   0  0  0  0  0  0  0  0  0  0  0  0
   -0.4144   -0.9165    0.0000 H   0  0  0  0  0  0  0  0  0  0  0  0
    0.6555   -0.9308    0.0000 H   0  0  0  0  0  0  0  0  0  0  0  0
    0.4218   -4.0472    0.0000 H   0  0  0  0  0  0  0  0  0  0  0  0
    1.3305   -2.4320    0.0000 H   0  0  0  0  0  0  0  0  0  0  0  0
    1.3425   -3.5019    0.0000 H   0  0  0  0  0  0  0  0  0  0  0  0
   -4.2280   -1.5600    0.0000 H   0  0  0  0  0  0  0  0  0  0  0  0
   -5.1571   -3.1636    0.0000 H   0  0  0  0  0  0  0  0  0  0  0  0
   -5.1554   -2.0936    0.0000 H   0  0  0  0  0  0  0  0  0  0  0  0
  2  1  1  0  0  0  0
  3  1  1  0  0  0  0
  4  2  2  0  0  0  0
  4  5  1  0  0  0  0
  4 20  1  0  0  0  0
  5  3  2  0  0  0  0
  6  2  1  0  0  0  0
  6 21  1  0  0  0  0
  7  9  1  0  0  0  0
  7 22  1  0  0  0  0
  8  3  1  0  0  0  0
  9  6  1  0  0  0  0
  9 23  1  0  0  0  0
  9 24  1  0  0  0  0
 10  7  1  0  0  0  0
 11  6  1  0  0  0  0
 11 25  1  0  0  0  0
 12  5  1  0  0  0  0
 12 13  2  0  0  0  0
 12 26  1  0  0  0  0
 13 14  1  0  0  0  0
 13 27  1  0  0  0  0
 14  8  2  0  0  0  0
 14 28  1  0  0  0  0
 15  8  1  0  0  0  0
 15 29  1  0  0  0  0
 15 30  1  0  0  0  0
 16 10  1  0  0  0  0
 16 31  1  0  0  0  0
 16 32  1  0  0  0  0
 16 33  1  0  0  0  0
 17 10  1  0  0  0  0
 17 34  1  0  0  0  0
 17 35  1  0  0  0  0
 17 36  1  0  0  0  0
 18 10  1  0  0  0  0
 18 37  1  0  0  0  0
 18 38  1  0  0  0  0
 18 39  1  0  0  0  0
 19 15  1  0  0  0  0
 19 40  1  0  0  0  0
 19 41  1  0  0  0  0
 19 42  1  0  0  0  0
M  END
>  <DRUGBANK_ID>
DB06726

>  <COMMON_NAME>
Bufuralol

>  <CAS_NUMBER>
54340-62-4

>  <UNII>
891H89GFT4

>  <SYNONYMS>
Bufuralol; Bufuralolum

$$$$
