
 OpenBabel10282417072D

 86 87  0  0  0  0  0  0  0  0999 V2000
   -3.4021    0.4141    0.0000 C   0  0  0  0  0  0  0  0  0  0  0  0
   -3.4021   -0.4232    0.0000 C   0  0  0  0  0  0  0  0  0  0  0  0
   -4.1075   -0.8243    0.0000 C   0  0  0  0  0  0  0  0  0  0  0  0
   -4.1075   -1.6438    0.0000 C   0  0  0  0  0  0  0  0  0  0  0  0
   -4.8390   -0.4232    0.0000 C   0  0  0  0  0  0  0  0  0  0  0  0
   -4.8390    0.4141    0.0000 C   0  0  0  0  0  0  0  0  0  0  0  0
   -4.1075    0.8197    0.0000 C   0  0  0  0  0  0  0  0  0  0  0  0
   -4.1075    1.6438    0.0000 C   0  0  0  0  0  0  0  0  0  0  0  0
   -5.5574    0.8197    0.0000 C   0  0  0  0  0  0  0  0  0  0  0  0
   -5.5663   -0.8243    0.0000 O   0  0  0  0  0  0  0  0  0  0  0  0
   -6.5805   -0.5669    0.0000 C   0  0  0  0  0  0  0  0  0  0  0  0
   -6.7184    0.2381    0.0000 O   0  0  0  0  0  0  0  0  0  0  0  0
   -7.3559   -1.0838    0.0000 C   0  0  0  0  0  0  0  0  0  0  0  0
   -2.6881   -0.8243    0.0000 C   0  0  0  0  0  0  0  0  0  0  0  0
   -1.9787   -0.4232    0.0000 C   0  0  0  0  0  0  0  0  0  0  0  0
   -1.9787    0.4141    0.0000 C   0  0  3  0  0  0  0  0  0  0  0  0
   -2.6881    0.8197    0.0000 O   0  0  0  0  0  0  0  0  0  0  0  0
   -1.2648    0.8286    0.0000 C   0  0  0  0  0  0  0  0  0  0  0  0
   -0.5285    0.4361    0.0000 C   0  0  0  0  0  0  0  0  0  0  0  0
    0.1851    0.8461    0.0000 C   0  0  0  0  0  0  0  0  0  0  0  0
    0.9036    0.4360    0.0000 C   0  0  3  0  0  0  0  0  0  0  0  0
    1.6088    0.8637    0.0000 C   0  0  0  0  0  0  0  0  0  0  0  0
    2.3272    0.4715    0.0000 C   0  0  0  0  0  0  0  0  0  0  0  0
    3.0500    0.8815    0.0000 C   0  0  0  0  0  0  0  0  0  0  0  0
    3.7684    0.4757    0.0000 C   0  0  3  0  0  0  0  0  0  0  0  0
    4.4781    0.8990    0.0000 C   0  0  0  0  0  0  0  0  0  0  0  0
    5.2054    0.4980    0.0000 C   0  0  0  0  0  0  0  0  0  0  0  0
    5.9149    0.9122    0.0000 C   0  0  0  0  0  0  0  0  0  0  0  0
    6.6376    0.5154    0.0000 C   0  0  0  0  0  0  0  0  0  0  0  0
    7.3559    0.9341    0.0000 C   0  0  0  0  0  0  0  0  0  0  0  0
    6.6376   -0.3085    0.0000 C   0  0  0  0  0  0  0  0  0  0  0  0
    3.7684   -0.3439    0.0000 C   0  0  0  0  0  0  0  0  0  0  0  0
    0.9036   -0.3835    0.0000 C   0  0  0  0  0  0  0  0  0  0  0  0
   -1.2427    0.0352    0.0000 C   0  0  0  0  0  0  0  0  0  0  0  0
   -5.0341   -2.1788    0.0000 H   0  0  0  0  0  0  0  0  0  0  0  0
   -3.1809   -2.1788    0.0000 H   0  0  0  0  0  0  0  0  0  0  0  0
   -4.1075   -2.7138    0.0000 H   0  0  0  0  0  0  0  0  0  0  0  0
   -3.1809    2.1788    0.0000 H   0  0  0  0  0  0  0  0  0  0  0  0
   -5.0341    2.1788    0.0000 H   0  0  0  0  0  0  0  0  0  0  0  0
   -4.1075    2.7138    0.0000 H   0  0  0  0  0  0  0  0  0  0  0  0
   -5.5677    1.8897    0.0000 H   0  0  0  0  0  0  0  0  0  0  0  0
   -6.4789    0.2758    0.0000 H   0  0  0  0  0  0  0  0  0  0  0  0
   -6.4892    1.3458    0.0000 H   0  0  0  0  0  0  0  0  0  0  0  0
   -8.3150   -0.6095    0.0000 H   0  0  0  0  0  0  0  0  0  0  0  0
   -7.2871   -2.1516    0.0000 H   0  0  0  0  0  0  0  0  0  0  0  0
   -8.2462   -1.6773    0.0000 H   0  0  0  0  0  0  0  0  0  0  0  0
   -2.6866   -1.8943    0.0000 H   0  0  0  0  0  0  0  0  0  0  0  0
   -1.7635   -1.3628    0.0000 H   0  0  0  0  0  0  0  0  0  0  0  0
   -1.0545   -0.9624    0.0000 H   0  0  0  0  0  0  0  0  0  0  0  0
   -1.0509    0.1097    0.0000 H   0  0  0  0  0  0  0  0  0  0  0  0
   -1.2842    1.8984    0.0000 H   0  0  0  0  0  0  0  0  0  0  0  0
   -0.3524    1.3875    0.0000 H   0  0  0  0  0  0  0  0  0  0  0  0
   -0.5115   -0.6338    0.0000 H   0  0  0  0  0  0  0  0  0  0  0  0
    0.4018   -0.0925    0.0000 H   0  0  0  0  0  0  0  0  0  0  0  0
    0.1836    1.9161    0.0000 H   0  0  0  0  0  0  0  0  0  0  0  0
    1.1100    1.3840    0.0000 H   0  0  0  0  0  0  0  0  0  0  0  0
    0.8894    1.5059    0.0000 H   0  0  0  0  0  0  0  0  0  0  0  0
    1.5845    1.9334    0.0000 H   0  0  0  0  0  0  0  0  0  0  0  0
    2.5227    1.4201    0.0000 H   0  0  0  0  0  0  0  0  0  0  0  0
    2.3359   -0.5985    0.0000 H   0  0  0  0  0  0  0  0  0  0  0  0
    3.2540   -0.0633    0.0000 H   0  0  0  0  0  0  0  0  0  0  0  0
    3.0490    1.9515    0.0000 H   0  0  0  0  0  0  0  0  0  0  0  0
    3.9739    1.4213    0.0000 H   0  0  0  0  0  0  0  0  0  0  0  0
    3.7558    1.5456    0.0000 H   0  0  0  0  0  0  0  0  0  0  0  0
    4.4600    1.9688    0.0000 H   0  0  0  0  0  0  0  0  0  0  0  0
    5.3948    1.4509    0.0000 H   0  0  0  0  0  0  0  0  0  0  0  0
    5.2185   -0.5719    0.0000 H   0  0  0  0  0  0  0  0  0  0  0  0
    6.1366   -0.0291    0.0000 H   0  0  0  0  0  0  0  0  0  0  0  0
    5.9008    1.9821    0.0000 H   0  0  0  0  0  0  0  0  0  0  0  0
    6.8321    1.4632    0.0000 H   0  0  0  0  0  0  0  0  0  0  0  0
    7.5654   -0.0177    0.0000 H   0  0  0  0  0  0  0  0  0  0  0  0
    8.2848    0.4030    0.0000 H   0  0  0  0  0  0  0  0  0  0  0  0
    7.3515    2.0041    0.0000 H   0  0  0  0  0  0  0  0  0  0  0  0
    8.2803    1.4729    0.0000 H   0  0  0  0  0  0  0  0  0  0  0  0
    5.7110   -0.8435    0.0000 H   0  0  0  0  0  0  0  0  0  0  0  0
    7.5642   -0.8435    0.0000 H   0  0  0  0  0  0  0  0  0  0  0  0
    6.6376   -1.3785    0.0000 H   0  0  0  0  0  0  0  0  0  0  0  0
    2.8418   -0.8789    0.0000 H   0  0  0  0  0  0  0  0  0  0  0  0
    4.6950   -0.8789    0.0000 H   0  0  0  0  0  0  0  0  0  0  0  0
    3.7684   -1.4139    0.0000 H   0  0  0  0  0  0  0  0  0  0  0  0
   -0.0230   -0.9185    0.0000 H   0  0  0  0  0  0  0  0  0  0  0  0
    1.8302   -0.9185    0.0000 H   0  0  0  0  0  0  0  0  0  0  0  0
    0.9036   -1.4535    0.0000 H   0  0  0  0  0  0  0  0  0  0  0  0
   -1.1912   -1.0336    0.0000 H   0  0  0  0  0  0  0  0  0  0  0  0
   -0.3429    0.6142    0.0000 H   0  0  0  0  0  0  0  0  0  0  0  0
   -0.2914   -0.4546    0.0000 H   0  0  0  0  0  0  0  0  0  0  0  0
  2  1  2  0  0  0  0
  3  2  1  0  0  0  0
  4  3  1  0  0  0  0
  4 35  1  0  0  0  0
  4 36  1  0  0  0  0
  4 37  1  0  0  0  0
  5  3  2  0  0  0  0
  5  6  1  0  0  0  0
  6  7  2  0  0  0  0
  7  1  1  0  0  0  0
  8  7  1  0  0  0  0
  8 38  1  0  0  0  0
  8 39  1  0  0  0  0
  8 40  1  0  0  0  0
  9  6  1  0  0  0  0
  9 41  1  0  0  0  0
  9 42  1  0  0  0  0
  9 43  1  0  0  0  0
 10  5  1  0  0  0  0
 10 11  1  0  0  0  0
 11 12  2  0  0  0  0
 11 13  1  0  0  0  0
 13 44  1  0  0  0  0
 13 45  1  0  0  0  0
 13 46  1  0  0  0  0
 14  2  1  0  0  0  0
 14 15  1  0  0  0  0
 14 47  1  0  0  0  0
 14 48  1  0  0  0  0
 15 16  1  0  0  0  0
 15 49  1  0  0  0  0
 15 50  1  0  0  0  0
 16 17  1  0  0  0  0
 16 18  1  0  0  0  0
 16 34  1  0  0  0  0
 17  1  1  0  0  0  0
 18 51  1  0  0  0  0
 18 52  1  0  0  0  0
 19 18  1  0  0  0  0
 19 53  1  0  0  0  0
 19 54  1  0  0  0  0
 20 19  1  0  0  0  0
 20 55  1  0  0  0  0
 20 56  1  0  0  0  0
 21 20  1  0  0  0  0
 21 33  1  0  0  0  0
 21 57  1  0  0  0  0
 22 21  1  0  0  0  0
 22 58  1  0  0  0  0
 22 59  1  0  0  0  0
 23 22  1  0  0  0  0
 23 60  1  0  0  0  0
 23 61  1  0  0  0  0
 24 23  1  0  0  0  0
 24 62  1  0  0  0  0
 24 63  1  0  0  0  0
 25 24  1  0  0  0  0
 25 32  1  0  0  0  0
 25 64  1  0  0  0  0
 26 25  1  0  0  0  0
 26 65  1  0  0  0  0
 26 66  1  0  0  0  0
 27 26  1  0  0  0  0
 27 67  1  0  0  0  0
 27 68  1  0  0  0  0
 28 27  1  0  0  0  0
 28 69  1  0  0  0  0
 28 70  1  0  0  0  0
 29 28  1  0  0  0  0
 29 71  1  0  0  0  0
 30 29  1  0  0  0  0
 30 72  1  0  0  0  0
 30 73  1  0  0  0  0
 30 74  1  0  0  0  0
 31 29  1  0  0  0  0
 31 75  1  0  0  0  0
 31 76  1  0  0  0  0
 31 77  1  0  0  0  0
 32 78  1  0  0  0  0
 32 79  1  0  0  0  0
 32 80  1  0  0  0  0
 33 81  1  0  0  0  0
 33 82  1  0  0  0  0
 33 83  1  0  0  0  0
 34 84  1  0  0  0  0
 34 85  1  0  0  0  0
 34 86  1  0  0  0  0
M  END
>  <DRUGBANK_ID>
DB14477

>  <COMMON_NAME>
DL-alpha tocopheryl acetate

>  <CAS_NUMBER>
52225-20-4

>  <UNII>
WR1WPI7EW8

>  <SYNONYMS>
all-rac-alfa-tocopheryl acetate; all-rac-alpha-tocopheryl acetate; DL-alpha-tocopheryl acetate

$$$$
