MGM
 OpenBabel10282417072D

 66 65  0  0  0  0  0  0  0  0999 V2000
   -4.2052    4.4847    0.0000 C   0  0  0  0  0  0  0  0  0  0  0  0
   -2.7763    4.4847    0.0000 C   0  0  0  0  0  0  0  0  0  0  0  0
   -3.4908    4.0722    0.0000 C   0  0  0  0  0  0  0  0  0  0  0  0
   -3.4908    3.2472    0.0000 C   0  0  0  0  0  0  0  0  0  0  0  0
   -2.7763    2.8347    0.0000 C   0  0  0  0  0  0  0  0  0  0  0  0
   -1.3474    2.0097    0.0000 C   0  0  0  0  0  0  0  0  0  0  0  0
   -2.0618    1.5972    0.0000 C   0  0  0  0  0  0  0  0  0  0  0  0
   -2.7763    2.0097    0.0000 C   0  0  0  0  0  0  0  0  0  0  0  0
   -2.0618    0.7722    0.0000 C   0  0  0  0  0  0  0  0  0  0  0  0
   -1.3474    0.3597    0.0000 C   0  0  0  0  0  0  0  0  0  0  0  0
   -1.3474   -0.4653    0.0000 C   0  0  0  0  0  0  0  0  0  0  0  0
   -0.6329   -0.8778    0.0000 C   0  0  0  0  0  0  0  0  0  0  0  0
    0.0816   -0.4653    0.0000 C   0  0  0  0  0  0  0  0  0  0  0  0
   -0.6329   -1.7028    0.0000 C   0  0  0  0  0  0  0  0  0  0  0  0
    0.0816   -2.1153    0.0000 C   0  0  0  0  0  0  0  0  0  0  0  0
    0.7960   -1.7028    0.0000 C   0  0  0  0  0  0  0  0  0  0  0  0
    1.5105   -2.1153    0.0000 N   0  0  0  0  0  0  0  0  0  0  0  0
    1.5105   -2.9403    0.0000 C   0  0  0  0  0  0  0  0  0  0  0  0
    2.2250   -1.7028    0.0000 C   0  0  0  0  0  0  0  0  0  0  0  0
    2.9395   -2.1153    0.0000 C   0  0  0  0  0  0  0  0  0  0  0  0
    3.6539   -1.7028    0.0000 O   0  0  0  0  0  0  0  0  0  0  0  0
    4.3684   -2.1153    0.0000 P   0  0  2  0  0  0  0  0  0  0  0  0
    3.9559   -2.8298    0.0000 O   0  0  0  0  0  0  0  0  0  0  0  0
    5.0829   -2.5278    0.0000 O   0  0  0  0  0  0  0  0  0  0  0  0
    4.7809   -1.4008    0.0000 O   0  0  0  0  0  0  0  0  0  0  0  0
    5.7973   -2.1153    0.0000 P   0  0  0  0  0  0  0  0  0  0  0  0
    6.5118   -1.7028    0.0000 O   0  0  0  0  0  0  0  0  0  0  0  0
    6.2098   -2.8298    0.0000 O   0  0  0  0  0  0  0  0  0  0  0  0
    5.3848   -1.4008    0.0000 O   0  0  0  0  0  0  0  0  0  0  0  0
   -4.2052    5.5547    0.0000 H   0  0  0  0  0  0  0  0  0  0  0  0
   -5.1319    3.9497    0.0000 H   0  0  0  0  0  0  0  0  0  0  0  0
   -5.1318    5.0197    0.0000 H   0  0  0  0  0  0  0  0  0  0  0  0
   -1.8497    3.9497    0.0000 H   0  0  0  0  0  0  0  0  0  0  0  0
   -2.7763    5.5547    0.0000 H   0  0  0  0  0  0  0  0  0  0  0  0
   -1.8496    5.0197    0.0000 H   0  0  0  0  0  0  0  0  0  0  0  0
   -4.3845    2.7312    0.0000 H   0  0  0  0  0  0  0  0  0  0  0  0
   -1.8497    3.3697    0.0000 H   0  0  0  0  0  0  0  0  0  0  0  0
   -1.8497    2.2997    0.0000 H   0  0  0  0  0  0  0  0  0  0  0  0
   -0.4207    1.4747    0.0000 H   0  0  0  0  0  0  0  0  0  0  0  0
   -1.3474    3.0797    0.0000 H   0  0  0  0  0  0  0  0  0  0  0  0
   -0.4208    2.5447    0.0000 H   0  0  0  0  0  0  0  0  0  0  0  0
   -3.7029    1.4747    0.0000 H   0  0  0  0  0  0  0  0  0  0  0  0
   -2.7763    0.9397    0.0000 H   0  0  0  0  0  0  0  0  0  0  0  0
   -2.9555    0.2562    0.0000 H   0  0  0  0  0  0  0  0  0  0  0  0
   -0.4207    0.8947    0.0000 H   0  0  0  0  0  0  0  0  0  0  0  0
   -0.4208   -0.1753    0.0000 H   0  0  0  0  0  0  0  0  0  0  0  0
   -2.2740   -1.0003    0.0000 H   0  0  0  0  0  0  0  0  0  0  0  0
   -1.3474   -1.5353    0.0000 H   0  0  0  0  0  0  0  0  0  0  0  0
    1.0082   -1.0003    0.0000 H   0  0  0  0  0  0  0  0  0  0  0  0
    0.0816    0.6047    0.0000 H   0  0  0  0  0  0  0  0  0  0  0  0
    1.0083    0.0697    0.0000 H   0  0  0  0  0  0  0  0  0  0  0  0
   -1.5266   -2.2188    0.0000 H   0  0  0  0  0  0  0  0  0  0  0  0
    0.0816   -3.1853    0.0000 H   0  0  0  0  0  0  0  0  0  0  0  0
    1.0083   -2.6503    0.0000 H   0  0  0  0  0  0  0  0  0  0  0  0
    0.7960   -0.6328    0.0000 H   0  0  0  0  0  0  0  0  0  0  0  0
    1.7226   -1.1678    0.0000 H   0  0  0  0  0  0  0  0  0  0  0  0
    0.5839   -3.4753    0.0000 H   0  0  0  0  0  0  0  0  0  0  0  0
    2.4371   -3.4753    0.0000 H   0  0  0  0  0  0  0  0  0  0  0  0
    1.5105   -4.0103    0.0000 H   0  0  0  0  0  0  0  0  0  0  0  0
    2.2250   -0.6328    0.0000 H   0  0  0  0  0  0  0  0  0  0  0  0
    3.1516   -1.1678    0.0000 H   0  0  0  0  0  0  0  0  0  0  0  0
    2.9395   -3.1853    0.0000 H   0  0  0  0  0  0  0  0  0  0  0  0
    3.8662   -2.6503    0.0000 H   0  0  0  0  0  0  0  0  0  0  0  0
    2.9859   -2.8298    0.0000 H   0  0  0  0  0  0  0  0  0  0  0  0
    7.3518   -2.1878    0.0000 H   0  0  0  0  0  0  0  0  0  0  0  0
    5.7248   -3.6698    0.0000 H   0  0  0  0  0  0  0  0  0  0  0  0
  1  3  1  0  0  0  0
  1 30  1  0  0  0  0
  1 31  1  0  0  0  0
  1 32  1  0  0  0  0
  2  3  1  0  0  0  0
  2 33  1  0  0  0  0
  2 34  1  0  0  0  0
  2 35  1  0  0  0  0
  3  4  2  0  0  0  0
  4  5  1  0  0  0  0
  4 36  1  0  0  0  0
  5  8  1  0  0  0  0
  5 37  1  0  0  0  0
  5 38  1  0  0  0  0
  6  7  1  0  0  0  0
  6 39  1  0  0  0  0
  6 40  1  0  0  0  0
  6 41  1  0  0  0  0
  7  8  1  0  0  0  0
  7  9  2  0  0  0  0
  8 42  1  0  0  0  0
  8 43  1  0  0  0  0
  9 10  1  0  0  0  0
  9 44  1  0  0  0  0
 10 11  1  0  0  0  0
 10 45  1  0  0  0  0
 10 46  1  0  0  0  0
 11 12  1  0  0  0  0
 11 47  1  0  0  0  0
 11 48  1  0  0  0  0
 12 13  1  0  0  0  0
 12 14  2  0  0  0  0
 13 49  1  0  0  0  0
 13 50  1  0  0  0  0
 13 51  1  0  0  0  0
 14 15  1  0  0  0  0
 14 52  1  0  0  0  0
 15 16  1  0  0  0  0
 15 53  1  0  0  0  0
 15 54  1  0  0  0  0
 16 17  1  0  0  0  0
 16 55  1  0  0  0  0
 16 56  1  0  0  0  0
 17 18  1  0  0  0  0
 17 19  1  0  0  0  0
 18 57  1  0  0  0  0
 18 58  1  0  0  0  0
 18 59  1  0  0  0  0
 19 20  1  0  0  0  0
 19 60  1  0  0  0  0
 19 61  1  0  0  0  0
 20 21  1  0  0  0  0
 20 62  1  0  0  0  0
 20 63  1  0  0  0  0
 22 21  1  0  0  0  0
 22 23  1  0  0  0  0
 22 24  1  0  0  0  0
 22 25  2  6  0  0  0
 23 64  1  0  0  0  0
 24 26  1  0  0  0  0
 26 27  1  0  0  0  0
 26 28  1  0  0  0  0
 26 29  2  0  0  0  0
 27 65  1  0  0  0  0
 28 66  1  0  0  0  0
M  END
>  <DRUGBANK_ID>
DB08180

>  <COMMON_NAME>
2-[METHYL-(5-GERANYL-4-METHYL-PENT-3-ENYL)-AMINO]-ETHYL-DIPHOSPHATE

$$$$
