
 OpenBabel10282417072D

 60 60  0  0  0  0  0  0  0  0999 V2000
    1.7861   -0.2846    0.0000 S   0  0  0  0  0  0  0  0  0  0  0  0
    3.2151    1.3653    0.0000 O   0  0  0  0  0  0  0  0  0  0  0  0
    3.2151   -1.1096    0.0000 O   0  0  0  0  0  0  0  0  0  0  0  0
   -0.3572   -2.3471    0.0000 O   0  0  0  0  0  0  0  0  0  0  0  0
    0.3572   -2.7596    0.0000 O   0  0  0  0  0  0  0  0  0  0  0  0
   -3.9296   -1.1096    0.0000 O   0  0  0  0  0  0  0  0  0  0  0  0
   -3.2151   -2.3471    0.0000 O   0  0  0  0  0  0  0  0  0  0  0  0
    2.5006   -4.8221    0.0000 O   0  0  0  0  0  0  0  0  0  0  0  0
    3.2151   -3.5846    0.0000 O   0  0  0  0  0  0  0  0  0  0  0  0
    3.9295    5.0778    0.0000 O   0  5  0  0  0  0  0  0  0  0  0  0
    2.5006    5.0778    0.0000 O   0  0  0  0  0  0  0  0  0  0  0  0
    0.3572   -1.1096    0.0000 N   0  0  0  0  0  0  0  0  0  0  0  0
    1.7861   -2.7596    0.0000 N   0  0  0  0  0  0  0  0  0  0  0  0
   -2.5006   -0.2846    0.0000 N   0  0  0  0  0  0  0  0  0  0  0  0
    3.2151    4.6653    0.0000 N   0  3  0  0  0  0  0  0  0  0  0  0
    1.0716   -1.5221    0.0000 C   0  0  1  0  0  0  0  0  0  0  0  0
    1.7861   -1.1096    0.0000 C   0  0  0  0  0  0  0  0  0  0  0  0
    2.5006    0.1278    0.0000 C   0  0  2  0  0  0  0  0  0  0  0  0
   -1.0717   -1.1096    0.0000 C   0  0  0  0  0  0  0  0  0  0  0  0
   -1.7862   -1.5221    0.0000 C   0  0  0  0  0  0  0  0  0  0  0  0
   -0.3572   -1.5221    0.0000 C   0  0  0  0  0  0  0  0  0  0  0  0
    2.5006    0.9528    0.0000 C   0  0  0  0  0  0  0  0  0  0  0  0
    1.0716   -2.3471    0.0000 C   0  0  0  0  0  0  0  0  0  0  0  0
   -2.5006   -1.1096    0.0000 C   0  0  1  0  0  0  0  0  0  0  0  0
    3.2151   -0.2846    0.0000 C   0  0  0  0  0  0  0  0  0  0  0  0
   -3.2151   -1.5221    0.0000 C   0  0  0  0  0  0  0  0  0  0  0  0
    1.7861   -3.5846    0.0000 C   0  0  0  0  0  0  0  0  0  0  0  0
    3.2151    2.1903    0.0000 C   0  0  0  0  0  0  0  0  0  0  0  0
    3.9295    2.6028    0.0000 C   0  0  0  0  0  0  0  0  0  0  0  0
    2.5006    2.6028    0.0000 C   0  0  0  0  0  0  0  0  0  0  0  0
    2.5006   -3.9971    0.0000 C   0  0  0  0  0  0  0  0  0  0  0  0
    3.9295    3.4278    0.0000 C   0  0  0  0  0  0  0  0  0  0  0  0
    2.5006    3.4278    0.0000 C   0  0  0  0  0  0  0  0  0  0  0  0
    3.2151    3.8403    0.0000 C   0  0  0  0  0  0  0  0  0  0  0  0
    2.3751   -1.5946    0.0000 H   0  0  0  0  0  0  0  0  0  0  0  0
   -3.9296   -0.1726    0.0000 H   0  0  0  0  0  0  0  0  0  0  0  0
    1.6891   -5.2906    0.0000 H   0  0  0  0  0  0  0  0  0  0  0  0
    0.3572   -0.1251    0.0000 H   0  0  0  0  0  0  0  0  0  0  0  0
    2.6387   -2.2673    0.0000 H   0  0  0  0  0  0  0  0  0  0  0  0
   -1.6173    0.2254    0.0000 H   0  0  0  0  0  0  0  0  0  0  0  0
   -3.3839    0.2254    0.0000 H   0  0  0  0  0  0  0  0  0  0  0  0
    1.0716   -0.4521    0.0000 H   0  0  0  0  0  0  0  0  0  0  0  0
    2.7127   -1.6446    0.0000 H   0  0  0  0  0  0  0  0  0  0  0  0
    1.7861   -2.1796    0.0000 H   0  0  0  0  0  0  0  0  0  0  0  0
    2.5006   -0.9422    0.0000 H   0  0  0  0  0  0  0  0  0  0  0  0
   -1.0717   -0.0396    0.0000 H   0  0  0  0  0  0  0  0  0  0  0  0
   -0.1451   -0.5746    0.0000 H   0  0  0  0  0  0  0  0  0  0  0  0
   -1.7862   -2.5921    0.0000 H   0  0  0  0  0  0  0  0  0  0  0  0
   -2.7129   -2.0571    0.0000 H   0  0  0  0  0  0  0  0  0  0  0  0
    1.5740    1.4878    0.0000 H   0  0  0  0  0  0  0  0  0  0  0  0
    1.5740    0.4178    0.0000 H   0  0  0  0  0  0  0  0  0  0  0  0
   -1.5739   -0.5746    0.0000 H   0  0  0  0  0  0  0  0  0  0  0  0
    4.1417    0.2505    0.0000 H   0  0  0  0  0  0  0  0  0  0  0  0
    3.2150    0.7854    0.0000 H   0  0  0  0  0  0  0  0  0  0  0  0
    0.8595   -4.1196    0.0000 H   0  0  0  0  0  0  0  0  0  0  0  0
    1.7861   -4.6546    0.0000 H   0  0  0  0  0  0  0  0  0  0  0  0
    4.8232    2.0868    0.0000 H   0  0  0  0  0  0  0  0  0  0  0  0
    1.6069    2.0868    0.0000 H   0  0  0  0  0  0  0  0  0  0  0  0
    4.8232    3.9438    0.0000 H   0  0  0  0  0  0  0  0  0  0  0  0
    1.6069    3.9438    0.0000 H   0  0  0  0  0  0  0  0  0  0  0  0
  1 17  1  0  0  0  0
  1 18  1  0  0  0  0
  2 22  1  0  0  0  0
  2 28  1  0  0  0  0
  3 25  1  0  0  0  0
  3 35  1  0  0  0  0
  4 21  2  0  0  0  0
  5 23  2  0  0  0  0
  6 26  1  0  0  0  0
  6 36  1  0  0  0  0
  7 26  2  0  0  0  0
  8 31  1  0  0  0  0
  8 37  1  0  0  0  0
  9 31  2  0  0  0  0
 10 15  1  0  0  0  0
 11 15  2  0  0  0  0
 12 21  1  0  0  0  0
 12 38  1  0  0  0  0
 13 23  1  0  0  0  0
 13 27  1  0  0  0  0
 13 39  1  0  0  0  0
 14 40  1  0  0  0  0
 14 41  1  0  0  0  0
 15 34  1  0  0  0  0
 16 12  1  0  0  0  0
 16 17  1  0  0  0  0
 16 23  1  0  0  0  0
 16 42  1  6  0  0  0
 17 43  1  0  0  0  0
 17 44  1  0  0  0  0
 18 22  1  0  0  0  0
 18 25  1  0  0  0  0
 18 45  1  1  0  0  0
 19 20  1  0  0  0  0
 19 21  1  0  0  0  0
 19 46  1  0  0  0  0
 19 47  1  0  0  0  0
 20 24  1  0  0  0  0
 20 48  1  0  0  0  0
 20 49  1  0  0  0  0
 22 50  1  0  0  0  0
 22 51  1  0  0  0  0
 24 14  1  0  0  0  0
 24 26  1  0  0  0  0
 24 52  1  6  0  0  0
 25 53  1  0  0  0  0
 25 54  1  0  0  0  0
 27 31  1  0  0  0  0
 27 55  1  0  0  0  0
 27 56  1  0  0  0  0
 28 29  2  0  0  0  0
 28 30  1  0  0  0  0
 29 32  1  0  0  0  0
 29 57  1  0  0  0  0
 30 33  2  0  0  0  0
 30 58  1  0  0  0  0
 32 34  2  0  0  0  0
 32 59  1  0  0  0  0
 33 34  1  0  0  0  0
 33 60  1  0  0  0  0
M  CHG  2  10  -1  15   1
M  END
>  <DRUGBANK_ID>
DB03706

>  <SECONDARY_ACCESSION_NUMBERS>
EXPT01354

>  <COMMON_NAME>
1-Hydroxy-2-S-glutathionyl-3-para-nitrophenoxy-propane

$$$$
