BPY
 OpenBabel10282417072D

 24 25  0  0  0  0  0  0  0  0999 V2000
   -1.1069    0.3918    0.0000 C   0  0  0  0  0  0  0  0  0  0  0  0
   -0.3924   -0.0207    0.0000 C   0  0  0  0  0  0  0  0  0  0  0  0
   -0.3924   -0.8457    0.0000 C   0  0  0  0  0  0  0  0  0  0  0  0
   -1.1069   -1.2582    0.0000 C   0  0  0  0  0  0  0  0  0  0  0  0
   -1.8213   -0.8457    0.0000 C   0  0  0  0  0  0  0  0  0  0  0  0
   -1.8213   -0.0207    0.0000 C   0  0  0  0  0  0  0  0  0  0  0  0
    0.3221    0.3918    0.0000 C   0  0  0  0  0  0  0  0  0  0  0  0
    0.3221    1.2168    0.0000 C   0  0  0  0  0  0  0  0  0  0  0  0
    1.0366    1.6293    0.0000 C   0  0  0  0  0  0  0  0  0  0  0  0
    1.7510    1.2168    0.0000 C   0  0  0  0  0  0  0  0  0  0  0  0
    1.7510    0.3918    0.0000 C   0  0  0  0  0  0  0  0  0  0  0  0
    1.0366   -0.0207    0.0000 C   0  0  0  0  0  0  0  0  0  0  0  0
   -1.1069   -2.0832    0.0000 O   0  0  0  0  0  0  0  0  0  0  0  0
    0.3221   -1.2582    0.0000 O   0  0  0  0  0  0  0  0  0  0  0  0
   -1.1069    1.4238    0.0000 H   0  0  0  0  0  0  0  0  0  0  0  0
   -2.7150   -1.3617    0.0000 H   0  0  0  0  0  0  0  0  0  0  0  0
   -2.7150    0.4953    0.0000 H   0  0  0  0  0  0  0  0  0  0  0  0
   -0.5716    1.7328    0.0000 H   0  0  0  0  0  0  0  0  0  0  0  0
    1.0366    2.6613    0.0000 H   0  0  0  0  0  0  0  0  0  0  0  0
    2.6447    1.7328    0.0000 H   0  0  0  0  0  0  0  0  0  0  0  0
    2.6447   -0.1242    0.0000 H   0  0  0  0  0  0  0  0  0  0  0  0
    1.0366   -1.0527    0.0000 H   0  0  0  0  0  0  0  0  0  0  0  0
   -1.9184   -2.5517    0.0000 H   0  0  0  0  0  0  0  0  0  0  0  0
    0.3221   -2.1952    0.0000 H   0  0  0  0  0  0  0  0  0  0  0  0
  1  2  2  0  0  0  0
  1  6  1  0  0  0  0
  1 15  1  0  0  0  0
  2  3  1  0  0  0  0
  2  7  1  0  0  0  0
  3  4  2  0  0  0  0
  3 14  1  0  0  0  0
  4  5  1  0  0  0  0
  4 13  1  0  0  0  0
  5  6  2  0  0  0  0
  5 16  1  0  0  0  0
  6 17  1  0  0  0  0
  7  8  2  0  0  0  0
  7 12  1  0  0  0  0
  8  9  1  0  0  0  0
  8 18  1  0  0  0  0
  9 10  2  0  0  0  0
  9 19  1  0  0  0  0
 10 11  1  0  0  0  0
 10 20  1  0  0  0  0
 11 12  2  0  0  0  0
 11 21  1  0  0  0  0
 12 22  1  0  0  0  0
 13 23  1  0  0  0  0
 14 24  1  0  0  0  0
M  END
>  <DRUGBANK_ID>
DB02923

>  <SECONDARY_ACCESSION_NUMBERS>
EXPT00746

>  <COMMON_NAME>
Biphenyl-2,3-Diol

>  <CAS_NUMBER>
1133-63-7

>  <UNII>
XQT8N5388Z

$$$$
