
 OpenBabel10282417072D

 53 57  0  0  1  0  0  0  0  0999 V2000
    0.0128   -2.4169    0.0000 O   0  0  0  0  0  0  0  0  0  0  0  0
   -0.4049   -1.6782    0.0000 C   0  0  0  0  0  0  0  0  0  0  0  0
   -1.2142   -1.6782    0.0000 C   0  0  0  0  0  0  0  0  0  0  0  0
   -1.6328   -0.9801    0.0000 C   0  0  0  0  0  0  0  0  0  0  0  0
   -1.2142   -0.2540    0.0000 C   0  0  0  0  0  0  0  0  0  0  0  0
   -0.4049   -0.2540    0.0000 C   0  0  0  0  0  0  0  0  0  0  0  0
    0.0146    0.4440    0.0000 C   0  0  0  0  0  0  0  0  0  0  0  0
    0.8240    0.4440    0.0000 C   0  0  1  0  0  0  0  0  0  0  0  0
    1.2156    1.1422    0.0000 N   0  0  0  0  0  0  0  0  0  0  0  0
    1.3721    1.9760    0.0000 C   0  0  0  0  0  0  0  0  0  0  0  0
    0.6419    2.4085    0.0000 C   0  0  0  0  0  0  0  0  0  0  0  0
    0.2258    3.1481    0.0000 C   0  0  0  0  0  0  0  0  0  0  0  0
   -0.2065    2.4178    0.0000 C   0  0  0  0  0  0  0  0  0  0  0  0
    0.4053    1.1700    0.0000 C   0  0  0  0  0  0  0  0  0  0  0  0
    0.4053   -0.3660    0.0000 C   0  0  0  0  0  0  0  0  0  0  0  0
    0.8240   -0.9801    0.0000 C   0  0  2  0  0  0  0  0  0  0  0  0
    1.2156   -1.6782    0.0000 C   0  0  0  0  0  0  0  0  0  0  0  0
    2.0521   -1.6782    0.0000 C   0  0  0  0  0  0  0  0  0  0  0  0
    2.4809   -2.4104    0.0000 O   0  0  0  0  0  0  0  0  0  0  0  0
    2.4437   -0.9801    0.0000 C   0  0  0  0  0  0  0  0  0  0  0  0
    2.0521   -0.2540    0.0000 C   0  0  0  0  0  0  0  0  0  0  0  0
    1.2156   -0.2540    0.0000 C   0  0  1  0  0  0  0  0  0  0  0  0
    1.6444    0.4781    0.0000 O   0  0  0  0  0  0  0  0  0  0  0  0
    0.0146   -0.9801    0.0000 C   0  0  0  0  0  0  0  0  0  0  0  0
   -1.6324   -2.4167    0.0000 C   0  0  0  0  0  0  0  0  0  0  0  0
   -2.4809   -2.4237    0.0000 N   0  0  0  0  0  0  0  0  0  0  0  0
   -1.2020   -3.1481    0.0000 O   0  0  0  0  0  0  0  0  0  0  0  0
   -0.4630   -3.2241    0.0000 H   0  0  0  0  0  0  0  0  0  0  0  0
   -2.6648   -0.9890    0.0000 H   0  0  0  0  0  0  0  0  0  0  0  0
   -1.7305    0.6396    0.0000 H   0  0  0  0  0  0  0  0  0  0  0  0
   -0.5122    1.3753    0.0000 H   0  0  0  0  0  0  0  0  0  0  0  0
    0.5537    1.3683    0.0000 H   0  0  0  0  0  0  0  0  0  0  0  0
    0.2832    1.3673    0.0000 H   0  0  0  0  0  0  0  0  0  0  0  0
    2.3468    2.4174    0.0000 H   0  0  0  0  0  0  0  0  0  0  0  0
    1.4306    3.0444    0.0000 H   0  0  0  0  0  0  0  0  0  0  0  0
   -0.2788    2.9537    0.0000 H   0  0  0  0  0  0  0  0  0  0  0  0
    0.2376    4.2180    0.0000 H   0  0  0  0  0  0  0  0  0  0  0  0
   -0.8046    3.4363    0.0000 H   0  0  0  0  0  0  0  0  0  0  0  0
   -1.1389    1.8930    0.0000 H   0  0  0  0  0  0  0  0  0  0  0  0
    0.0591    1.3813    0.0000 H   0  0  0  0  0  0  0  0  0  0  0  0
   -0.3382    1.9395    0.0000 H   0  0  0  0  0  0  0  0  0  0  0  0
   -0.5867    0.7690    0.0000 H   0  0  0  0  0  0  0  0  0  0  0  0
   -0.6172   -0.6814    0.0000 H   0  0  0  0  0  0  0  0  0  0  0  0
    0.0519   -1.3760    0.0000 H   0  0  0  0  0  0  0  0  0  0  0  0
    0.6749   -2.6015    0.0000 H   0  0  0  0  0  0  0  0  0  0  0  0
    1.7477   -2.6065    0.0000 H   0  0  0  0  0  0  0  0  0  0  0  0
    3.5137   -0.9890    0.0000 H   0  0  0  0  0  0  0  0  0  0  0  0
    2.9959   -0.0636    0.0000 H   0  0  0  0  0  0  0  0  0  0  0  0
    2.6005    0.6648    0.0000 H   0  0  0  0  0  0  0  0  0  0  0  0
    1.5238    0.6765    0.0000 H   0  0  0  0  0  0  0  0  0  0  0  0
    2.6144    0.4720    0.0000 H   0  0  0  0  0  0  0  0  0  0  0  0
   -2.9802   -1.5752    0.0000 H   0  0  0  0  0  0  0  0  0  0  0  0
   -2.9661   -3.2803    0.0000 H   0  0  0  0  0  0  0  0  0  0  0  0
  1  2  1  0  0  0  0
  1 28  1  0  0  0  0
  2 24  2  0  0  0  0
  3  2  1  0  0  0  0
  3  4  2  0  0  0  0
  4  5  1  0  0  0  0
  4 29  1  0  0  0  0
  5  6  2  0  0  0  0
  5 30  1  0  0  0  0
  6 24  1  0  0  0  0
  7  6  1  0  0  0  0
  7  8  1  0  0  0  0
  7 31  1  0  0  0  0
  7 32  1  0  0  0  0
  8  9  1  0  0  0  0
  8 22  1  0  0  0  0
  8 33  1  6  0  0  0
  9 14  1  0  0  0  0
 10  9  1  0  0  0  0
 10 11  1  0  0  0  0
 10 34  1  0  0  0  0
 10 35  1  0  0  0  0
 11 12  1  0  0  0  0
 11 13  1  0  0  0  0
 11 36  1  0  0  0  0
 12 37  1  0  0  0  0
 12 38  1  0  0  0  0
 13 12  1  0  0  0  0
 13 39  1  0  0  0  0
 13 40  1  0  0  0  0
 14 15  1  0  0  0  0
 14 41  1  0  0  0  0
 14 42  1  0  0  0  0
 15 43  1  0  0  0  0
 15 44  1  0  0  0  0
 16 15  1  0  0  0  0
 16 24  1  6  0  0  0
 17 16  1  0  0  0  0
 17 45  1  0  0  0  0
 17 46  1  0  0  0  0
 18 17  1  0  0  0  0
 18 19  2  0  0  0  0
 20 18  1  0  0  0  0
 20 47  1  0  0  0  0
 20 48  1  0  0  0  0
 21 20  1  0  0  0  0
 21 22  1  0  0  0  0
 21 49  1  0  0  0  0
 21 50  1  0  0  0  0
 22 23  1  1  0  0  0
 22 16  1  0  0  0  0
 23 51  1  0  0  0  0
 25  3  1  0  0  0  0
 25 26  1  0  0  0  0
 25 27  2  0  0  0  0
 26 52  1  0  0  0  0
 26 53  1  0  0  0  0
M  END
>  <DRUGBANK_ID>
DB12543

>  <COMMON_NAME>
Samidorphan

>  <CAS_NUMBER>
852626-89-2

>  <UNII>
7W2581Z5L8

>  <SYNONYMS>
Samidorphan

$$$$
