M1S
 OpenBabel10282417072D

 45 46  0  0  0  0  0  0  0  0999 V2000
   -1.0989   -1.0241    0.0000 C   0  0  0  0  0  0  0  0  0  0  0  0
   -1.7866   -0.5685    0.0000 C   0  0  0  0  0  0  0  0  0  0  0  0
   -2.5251   -0.9363    0.0000 C   0  0  0  0  0  0  0  0  0  0  0  0
   -3.2129   -0.4806    0.0000 C   0  0  0  0  0  0  0  0  0  0  0  0
   -3.1622    0.3428    0.0000 C   0  0  0  0  0  0  0  0  0  0  0  0
   -2.4237    0.7106    0.0000 C   0  0  0  0  0  0  0  0  0  0  0  0
   -1.7359    0.2550    0.0000 C   0  0  0  0  0  0  0  0  0  0  0  0
   -0.9975    0.6228    0.0000 C   0  0  0  0  0  0  0  0  0  0  0  0
   -0.9468    1.4462    0.0000 C   0  0  0  0  0  0  0  0  0  0  0  0
   -0.2083    1.8140    0.0000 C   0  0  0  0  0  0  0  0  0  0  0  0
    0.5653    1.3486    0.0000 C   0  0  0  0  0  0  0  0  0  0  0  0
    1.3813    1.4702    0.0000 C   0  0  0  0  0  0  0  0  0  0  0  0
    1.7491    0.7317    0.0000 C   0  0  0  0  0  0  0  0  0  0  0  0
    1.1604    0.1537    0.0000 C   0  0  0  0  0  0  0  0  0  0  0  0
    1.0658   -0.7441    0.0000 C   0  0  0  0  0  0  0  0  0  0  0  0
    0.3274   -1.1119    0.0000 C   0  0  0  0  0  0  0  0  0  0  0  0
    0.2767   -1.9354    0.0000 C   0  0  0  0  0  0  0  0  0  0  0  0
   -0.4618   -2.3032    0.0000 C   0  0  0  0  0  0  0  0  0  0  0  0
   -0.3604   -0.6563    0.0000 O   0  0  0  0  0  0  0  0  0  0  0  0
   -2.5758   -1.7597    0.0000 O   0  0  0  0  0  0  0  0  0  0  0  0
   -3.8499    0.7984    0.0000 O   0  0  0  0  0  0  0  0  0  0  0  0
   -2.3730    1.5340    0.0000 Cl  0  0  0  0  0  0  0  0  0  0  0  0
   -1.6345    1.9019    0.0000 O   0  0  0  0  0  0  0  0  0  0  0  0
   -1.1496   -1.8475    0.0000 O   0  0  0  0  0  0  0  0  0  0  0  0
   -4.1367   -0.9407    0.0000 H   0  0  0  0  0  0  0  0  0  0  0  0
   -0.1055    0.0319    0.0000 H   0  0  0  0  0  0  0  0  0  0  0  0
   -0.0397    1.0998    0.0000 H   0  0  0  0  0  0  0  0  0  0  0  0
   -0.1658    2.8832    0.0000 H   0  0  0  0  0  0  0  0  0  0  0  0
    0.7334    2.3220    0.0000 H   0  0  0  0  0  0  0  0  0  0  0  0
    0.3560    0.2993    0.0000 H   0  0  0  0  0  0  0  0  0  0  0  0
    1.3032    0.5737    0.0000 H   0  0  0  0  0  0  0  0  0  0  0  0
    1.8758    2.4191    0.0000 H   0  0  0  0  0  0  0  0  0  0  0  0
    2.4513    1.4604    0.0000 H   0  0  0  0  0  0  0  0  0  0  0  0
    2.8043    0.5546    0.0000 H   0  0  0  0  0  0  0  0  0  0  0  0
    2.0704   -0.2889    0.0000 H   0  0  0  0  0  0  0  0  0  0  0  0
    0.1968    0.6189    0.0000 H   0  0  0  0  0  0  0  0  0  0  0  0
    0.2255   -0.3668    0.0000 H   0  0  0  0  0  0  0  0  0  0  0  0
    1.9136   -1.3326    0.0000 H   0  0  0  0  0  0  0  0  0  0  0  0
   -0.5329   -0.5420    0.0000 H   0  0  0  0  0  0  0  0  0  0  0  0
    1.1687   -2.5263    0.0000 H   0  0  0  0  0  0  0  0  0  0  0  0
    0.2109   -3.0034    0.0000 H   0  0  0  0  0  0  0  0  0  0  0  0
   -0.5276   -3.3712    0.0000 H   0  0  0  0  0  0  0  0  0  0  0  0
   -1.4196   -2.7802    0.0000 H   0  0  0  0  0  0  0  0  0  0  0  0
   -3.4145   -2.1774    0.0000 H   0  0  0  0  0  0  0  0  0  0  0  0
   -3.7923    1.7336    0.0000 H   0  0  0  0  0  0  0  0  0  0  0  0
  1  2  1  0  0  0  0
  1 19  2  0  0  0  0
  1 24  1  0  0  0  0
  2  3  2  0  0  0  0
  2  7  1  0  0  0  0
  3  4  1  0  0  0  0
  3 20  1  0  0  0  0
  4  5  2  0  0  0  0
  4 25  1  0  0  0  0
  5  6  1  0  0  0  0
  5 21  1  0  0  0  0
  6  7  2  0  0  0  0
  6 22  1  0  0  0  0
  7  8  1  0  0  0  0
  8  9  1  0  0  0  0
  8 26  1  0  0  0  0
  8 27  1  0  0  0  0
  9 10  1  0  0  0  0
  9 23  2  0  0  0  0
 10 11  1  0  0  0  0
 10 28  1  0  0  0  0
 10 29  1  0  0  0  0
 11 12  1  0  0  0  0
 11 30  1  0  0  0  0
 11 31  1  0  0  0  0
 12 13  1  0  0  0  0
 12 32  1  0  0  0  0
 12 33  1  0  0  0  0
 13 14  1  0  0  0  0
 13 34  1  0  0  0  0
 13 35  1  0  0  0  0
 14 15  1  0  0  0  0
 14 36  1  0  0  0  0
 14 37  1  0  0  0  0
 15 16  2  0  0  0  0
 15 38  1  0  0  0  0
 16 17  1  0  0  0  0
 16 39  1  0  0  0  0
 17 18  1  0  0  0  0
 17 40  1  0  0  0  0
 17 41  1  0  0  0  0
 18 24  1  0  0  0  0
 18 42  1  0  0  0  0
 18 43  1  0  0  0  0
 20 44  1  0  0  0  0
 21 45  1  0  0  0  0
M  END
>  <DRUGBANK_ID>
DB08153

>  <COMMON_NAME>
(5E)-14-CHLORO-15,17-DIHYDROXY-4,7,8,9,10,11-HEXAHYDRO-2-BENZOXACYCLOPENTADECINE-1,12(3H,13H)-DIONE

$$$$
