
 OpenBabel10282417072D

  5  4  0  0  0  0  0  0  0  0999 V2000
   -0.8250    0.0000    0.0000 O   0  0  0  0  0  0  0  0  0  0  0  0
    0.0000    0.0000    0.0000 Mo  0  0  0  0  0  0  0  0  0  0  0  0
    0.0000    0.8250    0.0000 O   0  5  0  0  0  0  0  0  0  0  0  0
    0.8250    0.0000    0.0000 O   0  0  0  0  0  0  0  0  0  0  0  0
    0.0000   -0.8250    0.0000 O   0  5  0  0  0  0  0  0  0  0  0  0
  1  2  2  0  0  0  0
  2  3  1  0  0  0  0
  2  5  1  0  0  0  0
  2  4  2  0  0  0  0
M  CHG  2   3  -1   5  -1
M  END
>  <DRUGBANK_ID>
DB15878

>  <COMMON_NAME>
Molybdate

>  <CAS_NUMBER>
14259-85-9

>  <UNII>
O0L10E6352

>  <SYNONYMS>
Molybdate; Molybdate ion

$$$$
