
 OpenBabel10282417072D

 22 20  0  0  0  0  0  0  0  0999 V2000
   -0.7251   -0.1949    0.0000 N   0  3  0  0  0  0  0  0  0  0  0  0
    1.4395   -0.4941    0.0000 O   0  0  0  0  0  0  0  0  0  0  0  0
    0.0103   -0.5689    0.0000 C   0  0  0  0  0  0  0  0  0  0  0  0
    0.7083   -0.1201    0.0000 C   0  0  0  0  0  0  0  0  0  0  0  0
    0.6129    0.6448    0.0000 Cl  0  5  0  0  0  0  0  0  0  0  0  0
   -1.4166   -0.6448    0.0000 C   0  0  0  0  0  0  0  0  0  0  0  0
   -0.7689    0.6288    0.0000 C   0  0  0  0  0  0  0  0  0  0  0  0
   -1.4395    0.2175    0.0000 C   0  0  0  0  0  0  0  0  0  0  0  0
    1.4888   -1.4628    0.0000 H   0  0  0  0  0  0  0  0  0  0  0  0
    0.0643   -1.6375    0.0000 H   0  0  0  0  0  0  0  0  0  0  0  0
    0.9621   -1.0577    0.0000 H   0  0  0  0  0  0  0  0  0  0  0  0
    0.6556    0.9486    0.0000 H   0  0  0  0  0  0  0  0  0  0  0  0
   -0.2432    0.3693    0.0000 H   0  0  0  0  0  0  0  0  0  0  0  0
   -2.3704   -0.1598    0.0000 H   0  0  0  0  0  0  0  0  0  0  0  0
   -1.3597   -1.7133    0.0000 H   0  0  0  0  0  0  0  0  0  0  0  0
   -2.3135   -1.2283    0.0000 H   0  0  0  0  0  0  0  0  0  0  0  0
    0.1280    1.2122    0.0000 H   0  0  0  0  0  0  0  0  0  0  0  0
   -1.7226    1.1138    0.0000 H   0  0  0  0  0  0  0  0  0  0  0  0
   -0.8257    1.6973    0.0000 H   0  0  0  0  0  0  0  0  0  0  0  0
   -1.4396    1.2875    0.0000 H   0  0  0  0  0  0  0  0  0  0  0  0
   -2.3661   -0.3176    0.0000 H   0  0  0  0  0  0  0  0  0  0  0  0
   -2.3662    0.7524    0.0000 H   0  0  0  0  0  0  0  0  0  0  0  0
  1  6  1  0  0  0  0
  1  7  1  0  0  0  0
  1  8  1  0  0  0  0
  2  4  1  0  0  0  0
  2  9  1  0  0  0  0
  3  1  1  0  0  0  0
  3 10  1  0  0  0  0
  3 11  1  0  0  0  0
  4  3  1  0  0  0  0
  4 12  1  0  0  0  0
  4 13  1  0  0  0  0
  6 14  1  0  0  0  0
  6 15  1  0  0  0  0
  6 16  1  0  0  0  0
  7 17  1  0  0  0  0
  7 18  1  0  0  0  0
  7 19  1  0  0  0  0
  8 20  1  0  0  0  0
  8 21  1  0  0  0  0
  8 22  1  0  0  0  0
M  ISO  1   8  11
M  CHG  2   1   1   5  -1
M  END
>  <DRUGBANK_ID>
DB09277

>  <COMMON_NAME>
Choline C 11

>  <CAS_NUMBER>
87591-54-6

>  <UNII>
381E0BTR5Q

>  <SYNONYMS>
11C-choline; 11C-choline chloride

$$$$
