
 OpenBabel10282417072D

 85 91  0  0  0  0  0  0  0  0999 V2000
    1.4884   -2.0517    0.0000 C   0  0  0  0  0  0  0  0  0  0  0  0
    1.4853   -2.8767    0.0000 C   0  0  0  0  0  0  0  0  0  0  0  0
    2.2028   -3.2910    0.0000 C   0  0  0  0  0  0  0  0  0  0  0  0
    2.9156   -2.8801    0.0000 C   0  0  0  0  0  0  0  0  0  0  0  0
    3.7455   -3.0415    0.0000 N   0  0  0  0  0  0  0  0  0  0  0  0
    4.1817   -2.2824    0.0000 C   0  0  0  0  0  0  0  0  0  0  0  0
    3.6257   -1.6527    0.0000 C   0  0  0  0  0  0  0  0  0  0  0  0
    2.2030   -1.6426    0.0000 C   0  0  0  0  0  0  0  0  0  0  0  0
    2.9156   -2.0587    0.0000 C   0  0  0  0  0  0  0  0  0  0  0  0
    3.6345   -0.8271    0.0000 C   0  0  0  0  0  0  0  0  0  0  0  0
    2.2030   -0.8195    0.0000 C   0  0  2  0  0  0  0  0  0  0  0  0
    2.9177   -0.4083    0.0000 C   0  0  2  0  0  0  0  0  0  0  0  0
    2.9187    0.4118    0.0000 N   0  0  0  0  0  0  0  0  0  0  0  0
    2.2067    0.8267    0.0000 C   0  0  0  0  0  0  0  0  0  0  0  0
    1.4922    0.4154    0.0000 C   0  0  1  0  0  0  0  0  0  0  0  0
    1.4894   -0.4107    0.0000 C   0  0  0  0  0  0  0  0  0  0  0  0
    0.7767    0.8307    0.0000 C   0  0  0  0  0  0  0  0  0  0  0  0
    0.0594    0.4190    0.0000 N   0  0  0  0  0  0  0  0  0  0  0  0
    3.6362    0.8235    0.0000 C   0  0  0  0  0  0  0  0  0  0  0  0
    3.6324    0.0026    0.0000 H   0  0  0  0  0  0  0  0  0  0  0  0
    0.7788    1.6579    0.0000 O   0  0  0  0  0  0  0  0  0  0  0  0
   -0.7616    0.4221    0.0000 C   0  0  1  0  0  0  0  0  0  0  0  0
   -1.2572    1.0885    0.0000 C   0  0  0  0  0  0  0  0  0  0  0  0
   -1.2446   -0.2497    0.0000 O   0  0  0  0  0  0  0  0  0  0  0  0
   -2.0336   -0.0016    0.0000 C   0  0  2  0  0  0  0  0  0  0  0  0
   -2.0372    0.8212    0.0000 N   0  0  0  0  0  0  0  0  0  0  0  0
   -2.7473    1.2271    0.0000 C   0  0  2  0  0  0  0  0  0  0  0  0
   -3.4589    0.8150    0.0000 C   0  0  0  0  0  0  0  0  0  0  0  0
   -2.7403   -0.4183    0.0000 C   0  0  1  0  0  0  0  0  0  0  0  0
   -3.4569   -0.0094    0.0000 N   0  0  0  0  0  0  0  0  0  0  0  0
   -4.0671   -0.5645    0.0000 C   0  0  0  0  0  0  0  0  0  0  0  0
   -3.7277   -1.3163    0.0000 C   0  0  0  0  0  0  0  0  0  0  0  0
   -2.9079   -1.2259    0.0000 C   0  0  0  0  0  0  0  0  0  0  0  0
   -2.0288   -0.8325    0.0000 O   0  0  0  0  0  0  0  0  0  0  0  0
   -2.7514    0.4051    0.0000 H   0  0  0  0  0  0  0  0  0  0  0  0
   -1.0121    1.8786    0.0000 O   0  0  0  0  0  0  0  0  0  0  0  0
   -4.1759    1.2273    0.0000 O   0  0  0  0  0  0  0  0  0  0  0  0
   -2.7496    2.0544    0.0000 C   0  0  0  0  0  0  0  0  0  0  0  0
   -3.4672    2.4659    0.0000 C   0  0  0  0  0  0  0  0  0  0  0  0
   -0.3442   -0.2934    0.0000 C   0  0  0  0  0  0  0  0  0  0  0  0
   -0.7535   -1.0098    0.0000 C   0  0  0  0  0  0  0  0  0  0  0  0
    0.4806   -0.2898    0.0000 C   0  0  0  0  0  0  0  0  0  0  0  0
   -3.4672    3.2910    0.0000 C   0  0  0  0  0  0  0  0  0  0  0  0
   -4.1817    2.0534    0.0000 C   0  0  0  0  0  0  0  0  0  0  0  0
    1.4846   -1.2329    0.0000 H   0  0  0  0  0  0  0  0  0  0  0  0
    0.5966   -1.5324    0.0000 H   0  0  0  0  0  0  0  0  0  0  0  0
    0.5906   -3.3910    0.0000 H   0  0  0  0  0  0  0  0  0  0  0  0
    2.2024   -4.3230    0.0000 H   0  0  0  0  0  0  0  0  0  0  0  0
    4.1546   -3.9370    0.0000 H   0  0  0  0  0  0  0  0  0  0  0  0
    5.2085   -2.1785    0.0000 H   0  0  0  0  0  0  0  0  0  0  0  0
    4.5654   -0.2995    0.0000 H   0  0  0  0  0  0  0  0  0  0  0  0
    3.6415    0.2429    0.0000 H   0  0  0  0  0  0  0  0  0  0  0  0
    2.2095    1.8967    0.0000 H   0  0  0  0  0  0  0  0  0  0  0  0
    1.2811    1.3635    0.0000 H   0  0  0  0  0  0  0  0  0  0  0  0
    1.4941    1.4854    0.0000 H   0  0  0  0  0  0  0  0  0  0  0  0
    0.5627   -0.9457    0.0000 H   0  0  0  0  0  0  0  0  0  0  0  0
    0.5637    0.1259    0.0000 H   0  0  0  0  0  0  0  0  0  0  0  0
    0.3112   -0.5328    0.0000 H   0  0  0  0  0  0  0  0  0  0  0  0
    4.5614    0.2860    0.0000 H   0  0  0  0  0  0  0  0  0  0  0  0
    3.6391    1.8935    0.0000 H   0  0  0  0  0  0  0  0  0  0  0  0
    4.5643    1.3560    0.0000 H   0  0  0  0  0  0  0  0  0  0  0  0
   -1.8226    1.7654    0.0000 H   0  0  0  0  0  0  0  0  0  0  0  0
   -5.1148   -0.3474    0.0000 H   0  0  0  0  0  0  0  0  0  0  0  0
   -4.7362   -1.3995    0.0000 H   0  0  0  0  0  0  0  0  0  0  0  0
   -4.2579   -2.2457    0.0000 H   0  0  0  0  0  0  0  0  0  0  0  0
   -3.1403   -2.2107    0.0000 H   0  0  0  0  0  0  0  0  0  0  0  0
   -2.1880   -2.0175    0.0000 H   0  0  0  0  0  0  0  0  0  0  0  0
   -1.8757   -0.9439    0.0000 H   0  0  0  0  0  0  0  0  0  0  0  0
   -2.8660   -1.3223    0.0000 H   0  0  0  0  0  0  0  0  0  0  0  0
   -1.8245    2.5920    0.0000 H   0  0  0  0  0  0  0  0  0  0  0  0
   -2.7527    3.1244    0.0000 H   0  0  0  0  0  0  0  0  0  0  0  0
   -4.3938    3.0009    0.0000 H   0  0  0  0  0  0  0  0  0  0  0  0
    0.1949   -1.2177    0.0000 H   0  0  0  0  0  0  0  0  0  0  0  0
   -1.8235   -1.0146    0.0000 H   0  0  0  0  0  0  0  0  0  0  0  0
   -0.2143   -1.9340    0.0000 H   0  0  0  0  0  0  0  0  0  0  0  0
   -1.2843   -1.9389    0.0000 H   0  0  0  0  0  0  0  0  0  0  0  0
    1.0196   -1.2141    0.0000 H   0  0  0  0  0  0  0  0  0  0  0  0
    1.0116    0.6392    0.0000 H   0  0  0  0  0  0  0  0  0  0  0  0
    1.5506   -0.2851    0.0000 H   0  0  0  0  0  0  0  0  0  0  0  0
   -2.5406    3.8260    0.0000 H   0  0  0  0  0  0  0  0  0  0  0  0
   -4.3938    3.8260    0.0000 H   0  0  0  0  0  0  0  0  0  0  0  0
   -3.4672    4.3610    0.0000 H   0  0  0  0  0  0  0  0  0  0  0  0
   -5.1083    2.5884    0.0000 H   0  0  0  0  0  0  0  0  0  0  0  0
   -4.1817    0.9834    0.0000 H   0  0  0  0  0  0  0  0  0  0  0  0
   -5.1084    1.5184    0.0000 H   0  0  0  0  0  0  0  0  0  0  0  0
  1  2  2  0  0  0  0
  1 46  1  0  0  0  0
  2  3  1  0  0  0  0
  2 47  1  0  0  0  0
  3  4  2  0  0  0  0
  3 48  1  0  0  0  0
  4  5  1  0  0  0  0
  5  6  1  0  0  0  0
  5 49  1  0  0  0  0
  6  7  2  0  0  0  0
  6 50  1  0  0  0  0
  7 10  1  0  0  0  0
  7  9  1  0  0  0  0
  8  1  1  0  0  0  0
  8  9  2  0  0  0  0
  8 11  1  0  0  0  0
  9  4  1  0  0  0  0
 10 12  1  0  0  0  0
 10 51  1  0  0  0  0
 10 52  1  0  0  0  0
 11 12  1  0  0  0  0
 11 16  1  0  0  0  0
 11 45  1  6  0  0  0
 12 13  1  0  0  0  0
 12 20  1  1  0  0  0
 13 14  1  0  0  0  0
 13 19  1  0  0  0  0
 14 15  1  0  0  0  0
 14 53  1  0  0  0  0
 14 54  1  0  0  0  0
 15 16  1  0  0  0  0
 15 17  1  0  0  0  0
 15 55  1  6  0  0  0
 16 56  1  0  0  0  0
 16 57  1  0  0  0  0
 17 18  1  0  0  0  0
 17 21  2  0  0  0  0
 18 58  1  0  0  0  0
 19 59  1  0  0  0  0
 19 60  1  0  0  0  0
 19 61  1  0  0  0  0
 22 18  1  6  0  0  0
 22 23  1  0  0  0  0
 22 40  1  0  0  0  0
 23 26  1  0  0  0  0
 23 36  2  0  0  0  0
 24 22  1  0  0  0  0
 25 24  1  0  0  0  0
 25 26  1  0  0  0  0
 25 29  1  0  0  0  0
 25 34  1  6  0  0  0
 26 27  1  0  0  0  0
 27 28  1  0  0  0  0
 27 38  1  0  0  0  0
 27 62  1  1  0  0  0
 28 30  1  0  0  0  0
 28 37  2  0  0  0  0
 29 30  1  0  0  0  0
 29 35  1  1  0  0  0
 30 31  1  0  0  0  0
 31 32  1  0  0  0  0
 31 63  1  0  0  0  0
 31 64  1  0  0  0  0
 32 33  1  0  0  0  0
 32 65  1  0  0  0  0
 32 66  1  0  0  0  0
 33 29  1  0  0  0  0
 33 67  1  0  0  0  0
 33 68  1  0  0  0  0
 34 69  1  0  0  0  0
 38 39  1  0  0  0  0
 38 70  1  0  0  0  0
 38 71  1  0  0  0  0
 39 43  1  0  0  0  0
 39 72  1  0  0  0  0
 40 41  1  0  0  0  0
 40 42  1  0  0  0  0
 40 73  1  0  0  0  0
 41 74  1  0  0  0  0
 41 75  1  0  0  0  0
 41 76  1  0  0  0  0
 42 77  1  0  0  0  0
 42 78  1  0  0  0  0
 42 79  1  0  0  0  0
 43 80  1  0  0  0  0
 43 81  1  0  0  0  0
 43 82  1  0  0  0  0
 44 39  1  0  0  0  0
 44 83  1  0  0  0  0
 44 84  1  0  0  0  0
 44 85  1  0  0  0  0
M  END
>  <DRUGBANK_ID>
DB11274

>  <COMMON_NAME>
Dihydro-alpha-ergocryptine

>  <CAS_NUMBER>
25447-66-9

>  <UNII>
202229IR8Y

>  <SYNONYMS>
9,10-dihydro-α-ergocryptine; alpha-Dihydroergocriptine; dihydro-α-ergocryptine; α-dihydroergocryptine

$$$$
