
 OpenBabel10282417072D

 97103  0  0  0  0  0  0  0  0999 V2000
    0.0006    4.0954    0.0000 C   0  0  0  0  0  0  0  0  0  0  0  0
    0.7144    2.8578    0.0000 C   0  0  0  0  0  0  0  0  0  0  0  0
   -0.7139    2.8586    0.0000 C   0  0  0  0  0  0  0  0  0  0  0  0
    0.7147    3.6828    0.0000 N   0  0  0  0  0  0  0  0  0  0  0  0
   -0.7139    3.6832    0.0000 N   0  0  0  0  0  0  0  0  0  0  0  0
    1.4288    2.4451    0.0000 N   0  0  0  0  0  0  0  0  0  0  0  0
   -1.4287    2.4463    0.0000 N   0  0  0  0  0  0  0  0  0  0  0  0
    0.0002    2.4460    0.0000 N   0  0  0  0  0  0  0  0  0  0  0  0
   -5.1402   -3.9837    0.0000 C   0  0  0  0  0  0  0  0  0  0  0  0
   -1.8408    0.3028    0.0000 C   0  0  0  0  0  0  0  0  0  0  0  0
   -1.4284    1.0174    0.0000 C   0  0  0  0  0  0  0  0  0  0  0  0
   -4.3152   -3.9837    0.0000 C   0  0  0  0  0  0  0  0  0  0  0  0
   -5.1404   -2.5549    0.0000 C   0  0  0  0  0  0  0  0  0  0  0  0
   -3.9035    1.0173    0.0000 C   0  0  0  0  0  0  0  0  0  0  0  0
   -5.5528   -3.2693    0.0000 C   0  0  0  0  0  0  0  0  0  0  0  0
   -2.6658    0.3028    0.0000 C   0  0  0  0  0  0  0  0  0  0  0  0
   -3.0783    1.0173    0.0000 C   0  0  0  0  0  0  0  0  0  0  0  0
   -1.8410    1.7317    0.0000 C   0  0  0  0  0  0  0  0  0  0  0  0
   -4.3154   -2.5548    0.0000 C   0  0  0  0  0  0  0  0  0  0  0  0
   -3.9028   -3.2693    0.0000 C   0  0  0  0  0  0  0  0  0  0  0  0
   -4.3159    0.3028    0.0000 C   0  0  0  0  0  0  0  0  0  0  0  0
   -3.9032   -0.4114    0.0000 C   0  0  0  0  0  0  0  0  0  0  0  0
   -3.0781   -0.4114    0.0000 C   0  0  0  0  0  0  0  0  0  0  0  0
   -2.6659    1.7317    0.0000 C   0  0  0  0  0  0  0  0  0  0  0  0
   -3.9030   -1.8403    0.0000 N   0  0  0  0  0  0  0  0  0  0  0  0
   -4.3157   -1.1260    0.0000 N   0  0  0  0  0  0  0  0  0  0  0  0
   -3.0782   -3.2690    0.0000 O   0  0  0  0  0  0  0  0  0  0  0  0
   -2.6655   -1.1259    0.0000 O   0  0  0  0  0  0  0  0  0  0  0  0
   -6.3779   -2.4443    0.0000 O   0  0  0  0  0  0  0  0  0  0  0  0
   -6.3778   -4.0943    0.0000 O   0  0  0  0  0  0  0  0  0  0  0  0
   -7.2030   -3.2693    0.0000 O   0  0  0  0  0  0  0  0  0  0  0  0
   -5.1409    1.1279    0.0000 O   0  0  0  0  0  0  0  0  0  0  0  0
   -5.1409   -0.5221    0.0000 O   0  0  0  0  0  0  0  0  0  0  0  0
   -5.9659    0.3028    0.0000 O   0  0  0  0  0  0  0  0  0  0  0  0
   -2.3643    2.8589    0.0000 O   0  0  0  0  0  0  0  0  0  0  0  0
   -3.7931    2.0336    0.0000 O   0  0  0  0  0  0  0  0  0  0  0  0
   -3.4913    3.1606    0.0000 O   0  0  0  0  0  0  0  0  0  0  0  0
   -6.3779   -3.2693    0.0000 S   0  0  0  0  0  0  0  0  0  0  0  0
   -5.1409    0.3028    0.0000 S   0  0  0  0  0  0  0  0  0  0  0  0
   -3.0786    2.4462    0.0000 S   0  0  0  0  0  0  0  0  0  0  0  0
    5.1403   -3.9848    0.0000 C   0  0  0  0  0  0  0  0  0  0  0  0
    1.8409    0.3017    0.0000 C   0  0  0  0  0  0  0  0  0  0  0  0
    1.4285    1.0163    0.0000 C   0  0  0  0  0  0  0  0  0  0  0  0
    4.3153   -3.9848    0.0000 C   0  0  0  0  0  0  0  0  0  0  0  0
    5.1405   -2.5560    0.0000 C   0  0  0  0  0  0  0  0  0  0  0  0
    3.9036    1.0162    0.0000 C   0  0  0  0  0  0  0  0  0  0  0  0
    5.5529   -3.2704    0.0000 C   0  0  0  0  0  0  0  0  0  0  0  0
    2.6658    0.3017    0.0000 C   0  0  0  0  0  0  0  0  0  0  0  0
    3.0785    1.0162    0.0000 C   0  0  0  0  0  0  0  0  0  0  0  0
    1.8412    1.7306    0.0000 C   0  0  0  0  0  0  0  0  0  0  0  0
    4.3155   -2.5560    0.0000 C   0  0  0  0  0  0  0  0  0  0  0  0
    3.9029   -3.2704    0.0000 C   0  0  0  0  0  0  0  0  0  0  0  0
    4.3160    0.3016    0.0000 C   0  0  0  0  0  0  0  0  0  0  0  0
    3.9033   -0.4126    0.0000 C   0  0  0  0  0  0  0  0  0  0  0  0
    3.0782   -0.4126    0.0000 C   0  0  0  0  0  0  0  0  0  0  0  0
    2.6660    1.7306    0.0000 C   0  0  0  0  0  0  0  0  0  0  0  0
    3.9031   -1.8415    0.0000 N   0  0  0  0  0  0  0  0  0  0  0  0
    4.3158   -1.1272    0.0000 N   0  0  0  0  0  0  0  0  0  0  0  0
    3.0783   -3.2701    0.0000 O   0  0  0  0  0  0  0  0  0  0  0  0
    2.6656   -1.1271    0.0000 O   0  0  0  0  0  0  0  0  0  0  0  0
    6.3779   -2.4454    0.0000 O   0  0  0  0  0  0  0  0  0  0  0  0
    6.3779   -4.0954    0.0000 O   0  0  0  0  0  0  0  0  0  0  0  0
    7.2030   -3.2705    0.0000 O   0  0  0  0  0  0  0  0  0  0  0  0
    5.1410    1.1267    0.0000 O   0  0  0  0  0  0  0  0  0  0  0  0
    5.1410   -0.5233    0.0000 O   0  0  0  0  0  0  0  0  0  0  0  0
    5.9661    0.3016    0.0000 O   0  0  0  0  0  0  0  0  0  0  0  0
    2.3644    2.8577    0.0000 O   0  0  0  0  0  0  0  0  0  0  0  0
    3.7932    2.0324    0.0000 O   0  0  0  0  0  0  0  0  0  0  0  0
    3.4914    3.1595    0.0000 O   0  0  0  0  0  0  0  0  0  0  0  0
    6.3779   -3.2704    0.0000 S   0  0  0  0  0  0  0  0  0  0  0  0
    5.1410    0.3016    0.0000 S   0  0  0  0  0  0  0  0  0  0  0  0
    3.0787    2.4451    0.0000 S   0  0  0  0  0  0  0  0  0  0  0  0
    0.0009    5.1274    0.0000 H   0  0  0  0  0  0  0  0  0  0  0  0
    2.1251    3.1411    0.0000 H   0  0  0  0  0  0  0  0  0  0  0  0
   -2.1248    3.1425    0.0000 H   0  0  0  0  0  0  0  0  0  0  0  0
   -5.6561   -4.8775    0.0000 H   0  0  0  0  0  0  0  0  0  0  0  0
   -1.3247   -0.5909    0.0000 H   0  0  0  0  0  0  0  0  0  0  0  0
   -0.3964    1.0176    0.0000 H   0  0  0  0  0  0  0  0  0  0  0  0
   -3.7992   -4.8774    0.0000 H   0  0  0  0  0  0  0  0  0  0  0  0
   -5.6565   -1.6612    0.0000 H   0  0  0  0  0  0  0  0  0  0  0  0
   -4.4196    1.9110    0.0000 H   0  0  0  0  0  0  0  0  0  0  0  0
   -2.6094   -4.0803    0.0000 H   0  0  0  0  0  0  0  0  0  0  0  0
   -3.1339   -1.9374    0.0000 H   0  0  0  0  0  0  0  0  0  0  0  0
   -5.5379   -1.9593    0.0000 H   0  0  0  0  0  0  0  0  0  0  0  0
   -4.3009    1.6129    0.0000 H   0  0  0  0  0  0  0  0  0  0  0  0
   -1.5241    2.3742    0.0000 H   0  0  0  0  0  0  0  0  0  0  0  0
    5.6562   -4.8786    0.0000 H   0  0  0  0  0  0  0  0  0  0  0  0
    1.3248   -0.5920    0.0000 H   0  0  0  0  0  0  0  0  0  0  0  0
    0.3965    1.0166    0.0000 H   0  0  0  0  0  0  0  0  0  0  0  0
    3.7993   -4.8785    0.0000 H   0  0  0  0  0  0  0  0  0  0  0  0
    5.6565   -1.6623    0.0000 H   0  0  0  0  0  0  0  0  0  0  0  0
    4.4197    1.9099    0.0000 H   0  0  0  0  0  0  0  0  0  0  0  0
    2.6101   -2.4585    0.0000 H   0  0  0  0  0  0  0  0  0  0  0  0
    1.7286   -1.1270    0.0000 H   0  0  0  0  0  0  0  0  0  0  0  0
    7.2179   -1.9604    0.0000 H   0  0  0  0  0  0  0  0  0  0  0  0
    5.9810    1.6117    0.0000 H   0  0  0  0  0  0  0  0  0  0  0  0
    2.3646    3.8277    0.0000 H   0  0  0  0  0  0  0  0  0  0  0  0
  1  4  2  0  0  0  0
  1  5  1  0  0  0  0
  1 73  1  0  0  0  0
  2  4  1  0  0  0  0
  2  6  1  0  0  0  0
  2  8  2  0  0  0  0
  3  5  2  0  0  0  0
  3  7  1  0  0  0  0
  3  8  1  0  0  0  0
  6 74  1  0  0  0  0
  7 75  1  0  0  0  0
  9 12  2  0  0  0  0
  9 15  1  0  0  0  0
  9 76  1  0  0  0  0
 10 11  2  0  0  0  0
 10 16  1  0  0  0  0
 10 77  1  0  0  0  0
 11 18  1  0  0  0  0
 11 78  1  0  0  0  0
 12 20  1  0  0  0  0
 12 79  1  0  0  0  0
 13 15  2  0  0  0  0
 13 19  1  0  0  0  0
 13 80  1  0  0  0  0
 14 17  2  0  0  0  0
 14 21  1  0  0  0  0
 14 81  1  0  0  0  0
 15 38  1  0  0  0  0
 16 17  1  0  0  0  0
 16 23  2  0  0  0  0
 17 24  1  0  0  0  0
 18 24  2  0  0  0  0
 18  7  1  0  0  0  0
 19 20  2  0  0  0  0
 19 25  1  0  0  0  0
 20 27  1  0  0  0  0
 21 22  2  0  0  0  0
 21 39  1  0  0  0  0
 22 23  1  0  0  0  0
 22 26  1  0  0  0  0
 23 28  1  0  0  0  0
 24 40  1  0  0  0  0
 25 26  2  0  0  0  0
 27 82  1  0  0  0  0
 28 83  1  0  0  0  0
 29 38  1  0  0  0  0
 29 84  1  0  0  0  0
 30 38  2  0  0  0  0
 31 38  2  0  0  0  0
 32 39  1  0  0  0  0
 32 85  1  0  0  0  0
 33 39  2  0  0  0  0
 34 39  2  0  0  0  0
 35 40  1  0  0  0  0
 35 86  1  0  0  0  0
 36 40  2  0  0  0  0
 37 40  2  0  0  0  0
 41 44  2  0  0  0  0
 41 47  1  0  0  0  0
 41 87  1  0  0  0  0
 42 43  2  0  0  0  0
 42 48  1  0  0  0  0
 42 88  1  0  0  0  0
 43 50  1  0  0  0  0
 43 89  1  0  0  0  0
 44 52  1  0  0  0  0
 44 90  1  0  0  0  0
 45 47  2  0  0  0  0
 45 51  1  0  0  0  0
 45 91  1  0  0  0  0
 46 49  2  0  0  0  0
 46 53  1  0  0  0  0
 46 92  1  0  0  0  0
 47 70  1  0  0  0  0
 48 49  1  0  0  0  0
 48 55  2  0  0  0  0
 49 56  1  0  0  0  0
 50 56  2  0  0  0  0
 50  6  1  0  0  0  0
 51 52  2  0  0  0  0
 51 57  1  0  0  0  0
 52 59  1  0  0  0  0
 53 54  2  0  0  0  0
 53 71  1  0  0  0  0
 54 55  1  0  0  0  0
 54 58  1  0  0  0  0
 55 60  1  0  0  0  0
 56 72  1  0  0  0  0
 57 58  2  0  0  0  0
 59 93  1  0  0  0  0
 60 94  1  0  0  0  0
 61 70  1  0  0  0  0
 61 95  1  0  0  0  0
 62 70  2  0  0  0  0
 63 70  2  0  0  0  0
 64 71  1  0  0  0  0
 64 96  1  0  0  0  0
 65 71  2  0  0  0  0
 66 71  2  0  0  0  0
 67 72  1  0  0  0  0
 67 97  1  0  0  0  0
 68 72  2  0  0  0  0
 69 72  2  0  0  0  0
M  END
>  <DRUGBANK_ID>
DB03853

>  <SECONDARY_ACCESSION_NUMBERS>
EXPT02816

>  <COMMON_NAME>
Reactive Red 6 hapten

>  <SYNONYMS>
azo-dye hapten; RR6 azo-dye hapten

$$$$
