GC7
 OpenBabel10282417072D

 34 33  0  0  0  0  0  0  0  0999 V2000
   -3.6934    0.3043    0.0000 N   0  0  0  0  0  0  0  0  0  0  0  0
   -2.9788   -0.1082    0.0000 C   0  0  0  0  0  0  0  0  0  0  0  0
   -2.2643    0.3043    0.0000 C   0  0  0  0  0  0  0  0  0  0  0  0
   -1.5497   -0.1082    0.0000 C   0  0  0  0  0  0  0  0  0  0  0  0
   -0.8353    0.3043    0.0000 C   0  0  0  0  0  0  0  0  0  0  0  0
   -0.1207   -0.1082    0.0000 C   0  0  0  0  0  0  0  0  0  0  0  0
    0.5938    0.3043    0.0000 C   0  0  0  0  0  0  0  0  0  0  0  0
    1.3083   -0.1082    0.0000 C   0  0  0  0  0  0  0  0  0  0  0  0
    2.0229    0.3043    0.0000 N   0  0  0  0  0  0  0  0  0  0  0  0
    2.7374   -0.1082    0.0000 C   0  0  0  0  0  0  0  0  0  0  0  0
    3.4520    0.3043    0.0000 N   0  0  0  0  0  0  0  0  0  0  0  0
    2.7374   -0.9333    0.0000 N   0  0  0  0  0  0  0  0  0  0  0  0
   -3.6935    1.3243    0.0000 H   0  0  0  0  0  0  0  0  0  0  0  0
   -4.5767   -0.2058    0.0000 H   0  0  0  0  0  0  0  0  0  0  0  0
   -2.9788   -1.1782    0.0000 H   0  0  0  0  0  0  0  0  0  0  0  0
   -2.0521   -0.6432    0.0000 H   0  0  0  0  0  0  0  0  0  0  0  0
   -2.2643    1.3743    0.0000 H   0  0  0  0  0  0  0  0  0  0  0  0
   -1.3377    0.8394    0.0000 H   0  0  0  0  0  0  0  0  0  0  0  0
   -1.5496   -1.1782    0.0000 H   0  0  0  0  0  0  0  0  0  0  0  0
   -0.6230   -0.6432    0.0000 H   0  0  0  0  0  0  0  0  0  0  0  0
   -0.8354    1.3743    0.0000 H   0  0  0  0  0  0  0  0  0  0  0  0
    0.0913    0.8394    0.0000 H   0  0  0  0  0  0  0  0  0  0  0  0
   -0.1207   -1.1782    0.0000 H   0  0  0  0  0  0  0  0  0  0  0  0
    0.8060   -0.6432    0.0000 H   0  0  0  0  0  0  0  0  0  0  0  0
    0.5938    1.3743    0.0000 H   0  0  0  0  0  0  0  0  0  0  0  0
    1.5204    0.8393    0.0000 H   0  0  0  0  0  0  0  0  0  0  0  0
    1.3083   -1.1782    0.0000 H   0  0  0  0  0  0  0  0  0  0  0  0
    2.2349   -0.6433    0.0000 H   0  0  0  0  0  0  0  0  0  0  0  0
    2.0229    1.3243    0.0000 H   0  0  0  0  0  0  0  0  0  0  0  0
    3.6640   -0.6432    0.0000 H   0  0  0  0  0  0  0  0  0  0  0  0
    4.3353   -0.2058    0.0000 H   0  0  0  0  0  0  0  0  0  0  0  0
    3.4521    1.3243    0.0000 H   0  0  0  0  0  0  0  0  0  0  0  0
    1.8541   -1.4433    0.0000 H   0  0  0  0  0  0  0  0  0  0  0  0
    3.6207   -1.4433    0.0000 H   0  0  0  0  0  0  0  0  0  0  0  0
  1  2  1  0  0  0  0
  1 13  1  0  0  0  0
  1 14  1  0  0  0  0
  2  3  1  0  0  0  0
  2 15  1  0  0  0  0
  2 16  1  0  0  0  0
  3  4  1  0  0  0  0
  3 17  1  0  0  0  0
  3 18  1  0  0  0  0
  4  5  1  0  0  0  0
  4 19  1  0  0  0  0
  4 20  1  0  0  0  0
  5  6  1  0  0  0  0
  5 21  1  0  0  0  0
  5 22  1  0  0  0  0
  6  7  1  0  0  0  0
  6 23  1  0  0  0  0
  6 24  1  0  0  0  0
  7  8  1  0  0  0  0
  7 25  1  0  0  0  0
  7 26  1  0  0  0  0
  8  9  1  0  0  0  0
  8 27  1  0  0  0  0
  8 28  1  0  0  0  0
  9 10  1  0  0  0  0
  9 29  1  0  0  0  0
 10 11  1  0  0  0  0
 10 12  1  0  0  0  0
 10 30  1  0  0  0  0
 11 31  1  0  0  0  0
 11 32  1  0  0  0  0
 12 33  1  0  0  0  0
 12 34  1  0  0  0  0
M  END
>  <DRUGBANK_ID>
DB03639

>  <SECONDARY_ACCESSION_NUMBERS>
EXPT01555

>  <COMMON_NAME>
1-Guanidinium-7-Aminoheptane

$$$$
