
 OpenBabel10282417072D

 36 37  0  0  0  0  0  0  0  0999 V2000
   -0.7496    0.8283    0.0000 C   0  0  1  0  0  0  0  0  0  0  0  0
   -0.7496    0.0032    0.0000 C   0  0  1  0  0  0  0  0  0  0  0  0
   -1.4746   -0.4091    0.0000 C   0  0  2  0  0  0  0  0  0  0  0  0
    2.8246   -0.4023    0.0000 N   0  3  0  0  0  0  0  0  0  0  0  0
   -1.4746    1.2408    0.0000 O   0  0  0  0  0  0  0  0  0  0  0  0
   -2.1913    0.0032    0.0000 C   0  0  2  0  0  0  0  0  0  0  0  0
   -2.1913    0.8283    0.0000 C   0  0  1  0  0  0  0  0  0  0  0  0
   -0.0371    1.2408    0.0000 O   0  0  0  0  0  0  0  0  0  0  0  0
    2.1092    0.0084    0.0000 C   0  0  0  0  0  0  0  0  0  0  0  0
    3.5371    0.0101    0.0000 O   0  5  0  0  0  0  0  0  0  0  0  0
    2.8276   -1.2255    0.0000 O   0  0  0  0  0  0  0  0  0  0  0  0
   -0.0371   -0.4091    0.0000 O   0  0  0  0  0  0  0  0  0  0  0  0
    1.3874   -0.4035    0.0000 C   0  0  0  0  0  0  0  0  0  0  0  0
    2.1062    0.8317    0.0000 C   0  0  0  0  0  0  0  0  0  0  0  0
   -1.4746   -1.2425    0.0000 O   0  0  0  0  0  0  0  0  0  0  0  0
    0.6783    0.8300    0.0000 C   0  0  0  0  0  0  0  0  0  0  0  0
   -2.9038   -0.4091    0.0000 O   0  0  0  0  0  0  0  0  0  0  0  0
    0.6812    0.0067    0.0000 C   0  0  0  0  0  0  0  0  0  0  0  0
    1.3908    1.2425    0.0000 C   0  0  0  0  0  0  0  0  0  0  0  0
   -2.9038    1.2408    0.0000 C   0  0  0  0  0  0  0  0  0  0  0  0
   -3.5371    0.7158    0.0000 O   0  0  0  0  0  0  0  0  0  0  0  0
    0.1774    0.2939    0.0000 H   0  0  0  0  0  0  0  0  0  0  0  0
    0.1773    0.5377    0.0000 H   0  0  0  0  0  0  0  0  0  0  0  0
   -0.5497   -0.9471    0.0000 H   0  0  0  0  0  0  0  0  0  0  0  0
   -3.1182    0.5377    0.0000 H   0  0  0  0  0  0  0  0  0  0  0  0
   -3.1183    0.2939    0.0000 H   0  0  0  0  0  0  0  0  0  0  0  0
   -0.0381   -1.3791    0.0000 H   0  0  0  0  0  0  0  0  0  0  0  0
    1.3834   -1.4355    0.0000 H   0  0  0  0  0  0  0  0  0  0  0  0
    2.9984    1.3504    0.0000 H   0  0  0  0  0  0  0  0  0  0  0  0
   -2.3146   -1.7275    0.0000 H   0  0  0  0  0  0  0  0  0  0  0  0
   -3.7443    0.0751    0.0000 H   0  0  0  0  0  0  0  0  0  0  0  0
   -0.2123   -0.5097    0.0000 H   0  0  0  0  0  0  0  0  0  0  0  0
    1.3890    2.2745    0.0000 H   0  0  0  0  0  0  0  0  0  0  0  0
   -2.9932    2.3071    0.0000 H   0  0  0  0  0  0  0  0  0  0  0  0
   -3.8904    1.6550    0.0000 H   0  0  0  0  0  0  0  0  0  0  0  0
   -4.4466    1.0530    0.0000 H   0  0  0  0  0  0  0  0  0  0  0  0
  1  8  1  0  0  0  0
  1 22  1  6  0  0  0
  2  1  1  0  0  0  0
  2 12  1  0  0  0  0
  2 23  1  1  0  0  0
  3  2  1  0  0  0  0
  3 15  1  0  0  0  0
  3 24  1  6  0  0  0
  4  9  1  0  0  0  0
  5  1  1  0  0  0  0
  6  7  1  0  0  0  0
  6 17  1  0  0  0  0
  6  3  1  0  0  0  0
  6 25  1  6  0  0  0
  7  5  1  0  0  0  0
  7 20  1  0  0  0  0
  7 26  1  6  0  0  0
  9 14  2  0  0  0  0
  9 13  1  0  0  0  0
 10  4  1  0  0  0  0
 11  4  2  0  0  0  0
 12 27  1  0  0  0  0
 13 18  2  0  0  0  0
 13 28  1  0  0  0  0
 14 19  1  0  0  0  0
 14 29  1  0  0  0  0
 15 30  1  0  0  0  0
 16  8  1  0  0  0  0
 17 31  1  0  0  0  0
 18 16  1  0  0  0  0
 18 32  1  0  0  0  0
 19 16  2  0  0  0  0
 19 33  1  0  0  0  0
 20 34  1  0  0  0  0
 20 35  1  0  0  0  0
 21 20  1  0  0  0  0
 21 36  1  0  0  0  0
M  CHG  2   4   1  10  -1
M  END
>  <DRUGBANK_ID>
DB02632

>  <SECONDARY_ACCESSION_NUMBERS>
EXPT00033

>  <COMMON_NAME>
4-nitrophenyl-beta-D-galactoside

>  <CAS_NUMBER>
3150-24-1

>  <SYNONYMS>
1-O-(4-nitrophenyl)-β-D-galactopyranose; 1-O-(4-nitrophenyl)-β-D-galactose; 1-O-(p-nitrophenyl)-β-D-galactopyranose; 1-O-(p-nitrophenyl)-β-D-galactose; 1-O-[p-nitrophenyl]-beta-D-galactopyranose; 4-Nitrophenyl-beta-D-galactopyranoside; 4-nitrophenyl-β-D-galactopyranoside; 4-nitrophenyl-β-D-galactoside; 4-Nitrophenylgalactoside; p-Nitrophenyl beta-D-galactopyranoside; p-Nitrophenyl-beta-D-galactoside

$$$$
