BTP
 OpenBabel10282417072D

 25 25  0  0  0  0  0  0  0  0999 V2000
    1.3879    1.1685    0.0000 C   0  0  0  0  0  0  0  0  0  0  0  0
    1.3879    1.9935    0.0000 O   0  0  0  0  0  0  0  0  0  0  0  0
    2.1024    0.7560    0.0000 O   0  0  0  0  0  0  0  0  0  0  0  0
    0.6735    0.7560    0.0000 C   0  0  2  0  0  0  0  0  0  0  0  0
    0.6735   -0.0690    0.0000 C   0  0  0  0  0  0  0  0  0  0  0  0
   -0.0410   -0.4815    0.0000 C   0  0  0  0  0  0  0  0  0  0  0  0
   -0.0410   -1.3065    0.0000 C   0  0  0  0  0  0  0  0  0  0  0  0
   -0.7555   -1.7190    0.0000 C   0  0  0  0  0  0  0  0  0  0  0  0
   -1.4699   -1.3065    0.0000 C   0  0  0  0  0  0  0  0  0  0  0  0
   -1.4699   -0.4815    0.0000 C   0  0  0  0  0  0  0  0  0  0  0  0
   -0.7555   -0.0690    0.0000 C   0  0  0  0  0  0  0  0  0  0  0  0
   -0.0410    1.1685    0.0000 C   0  0  0  0  0  0  0  0  0  0  0  0
   -0.7555    0.7560    0.0000 S   0  0  0  0  0  0  0  0  0  0  0  0
    1.1792    0.4640    0.0000 H   0  0  0  0  0  0  0  0  0  0  0  0
    2.1024   -0.1810    0.0000 H   0  0  0  0  0  0  0  0  0  0  0  0
    1.6001   -0.6040    0.0000 H   0  0  0  0  0  0  0  0  0  0  0  0
    0.6735   -1.1390    0.0000 H   0  0  0  0  0  0  0  0  0  0  0  0
    0.8527   -1.8225    0.0000 H   0  0  0  0  0  0  0  0  0  0  0  0
   -0.7555   -2.7510    0.0000 H   0  0  0  0  0  0  0  0  0  0  0  0
   -2.3636   -1.8225    0.0000 H   0  0  0  0  0  0  0  0  0  0  0  0
   -2.3636    0.0345    0.0000 H   0  0  0  0  0  0  0  0  0  0  0  0
   -0.7555    0.9630    0.0000 H   0  0  0  0  0  0  0  0  0  0  0  0
   -0.0410    2.2385    0.0000 H   0  0  0  0  0  0  0  0  0  0  0  0
   -0.9676    1.7035    0.0000 H   0  0  0  0  0  0  0  0  0  0  0  0
   -1.9333    1.4360    0.0000 H   0  0  0  0  0  0  0  0  0  0  0  0
  1  2  2  0  0  0  0
  1  3  1  0  0  0  0
  1  4  1  0  0  0  0
  3 15  1  0  0  0  0
  4  5  1  0  0  0  0
  4 12  1  0  0  0  0
  4 14  1  1  0  0  0
  5  6  1  0  0  0  0
  5 16  1  0  0  0  0
  5 17  1  0  0  0  0
  6  7  2  0  0  0  0
  6 11  1  0  0  0  0
  7  8  1  0  0  0  0
  7 18  1  0  0  0  0
  8  9  2  0  0  0  0
  8 19  1  0  0  0  0
  9 10  1  0  0  0  0
  9 20  1  0  0  0  0
 10 11  2  0  0  0  0
 10 21  1  0  0  0  0
 11 22  1  0  0  0  0
 12 13  1  0  0  0  0
 12 23  1  0  0  0  0
 12 24  1  0  0  0  0
 13 25  1  0  0  0  0
M  END
>  <DRUGBANK_ID>
DB02953

>  <SECONDARY_ACCESSION_NUMBERS>
EXPT00769

>  <COMMON_NAME>
2-Thiomethyl-3-Phenylpropanoic Acid

$$$$
