
 OpenBabel10282417072D

 60 62  0  0  1  0  0  0  0  0999 V2000
   17.2520   -9.2686    0.0000 C   0  0  2  0  0  0  0  0  0  0  0  0
   18.2116   -9.0395    0.0000 N   0  0  0  0  0  0  0  0  0  0  0  0
   16.6110   -8.7937    0.0000 O   0  0  0  0  0  0  0  0  0  0  0  0
   17.0094  -10.0763    0.0000 C   0  0  1  0  0  0  0  0  0  0  0  0
   18.9312   -9.4423    0.0000 C   0  0  0  0  0  0  0  0  0  0  0  0
   18.2049   -8.2142    0.0000 C   0  0  0  0  0  0  0  0  0  0  0  0
   15.9349   -9.2858    0.0000 C   0  0  1  0  0  0  0  0  0  0  0  0
   16.1844  -10.0763    0.0000 C   0  0  1  0  0  0  0  0  0  0  0  0
   17.4946  -10.7414    0.0000 O   0  0  0  0  0  0  0  0  0  0  0  0
   19.6513   -9.0190    0.0000 N   0  0  0  0  0  0  0  0  0  0  0  0
   18.9448  -10.2663    0.0000 O   0  0  0  0  0  0  0  0  0  0  0  0
   18.9133   -7.7855    0.0000 C   0  0  0  0  0  0  0  0  0  0  0  0
   15.1478   -9.0328    0.0000 C   0  0  0  0  0  0  0  0  0  0  0  0
   15.6923  -10.7380    0.0000 O   0  0  0  0  0  0  0  0  0  0  0  0
   19.6404   -8.1909    0.0000 C   0  0  0  0  0  0  0  0  0  0  0  0
   14.5620   -9.6084    0.0000 O   0  0  0  0  0  0  0  0  0  0  0  0
   20.3546   -7.7724    0.0000 O   0  0  0  0  0  0  0  0  0  0  0  0
   13.7370   -9.6084    0.0000 P   0  0  3  0  0  0  0  0  0  0  0  0
   12.9120   -9.6084    0.0000 O   0  0  0  0  0  0  0  0  0  0  0  0
   13.7335  -10.4333    0.0000 O   0  0  0  0  0  0  0  0  0  0  0  0
   13.7335   -8.7833    0.0000 O   0  0  0  0  0  0  0  0  0  0  0  0
   12.0904   -9.6049    0.0000 P   0  0  3  0  0  0  0  0  0  0  0  0
   11.2620   -9.6049    0.0000 O   0  0  0  0  0  0  0  0  0  0  0  0
   12.0835  -10.4264    0.0000 O   0  0  0  0  0  0  0  0  0  0  0  0
   12.0835   -8.7799    0.0000 O   0  0  0  0  0  0  0  0  0  0  0  0
   10.5478  -10.0137    0.0000 C   0  0  1  0  0  0  0  0  0  0  0  0
    9.8373   -9.6049    0.0000 O   0  0  0  0  0  0  0  0  0  0  0  0
   10.5478  -10.8385    0.0000 C   0  0  1  0  0  0  0  0  0  0  0  0
    9.1233  -10.0137    0.0000 C   0  0  1  0  0  0  0  0  0  0  0  0
    9.8373  -11.2515    0.0000 C   0  0  2  0  0  0  0  0  0  0  0  0
   11.2620  -11.2515    0.0000 O   0  0  0  0  0  0  0  0  0  0  0  0
    9.1233  -10.8385    0.0000 C   0  0  2  0  0  0  0  0  0  0  0  0
    8.4092   -9.6049    0.0000 C   0  0  0  0  0  0  0  0  0  0  0  0
    9.8373  -12.0765    0.0000 O   0  0  0  0  0  0  0  0  0  0  0  0
    8.4092  -11.2515    0.0000 O   0  0  0  0  0  0  0  0  0  0  0  0
    7.6995  -10.0137    0.0000 O   0  0  0  0  0  0  0  0  0  0  0  0
   17.4663   -8.2203    0.0000 H   0  0  0  0  0  0  0  0  0  0  0  0
   18.0641   -9.8961    0.0000 H   0  0  0  0  0  0  0  0  0  0  0  0
   17.3038   -7.7111    0.0000 H   0  0  0  0  0  0  0  0  0  0  0  0
   15.7654   -8.2293    0.0000 H   0  0  0  0  0  0  0  0  0  0  0  0
   16.6649  -11.0324    0.0000 H   0  0  0  0  0  0  0  0  0  0  0  0
   17.1018  -11.6283    0.0000 H   0  0  0  0  0  0  0  0  0  0  0  0
   20.5090   -9.5023    0.0000 H   0  0  0  0  0  0  0  0  0  0  0  0
   18.8949   -6.7537    0.0000 H   0  0  0  0  0  0  0  0  0  0  0  0
   14.9009   -7.9917    0.0000 H   0  0  0  0  0  0  0  0  0  0  0  0
   14.1197   -8.7364    0.0000 H   0  0  0  0  0  0  0  0  0  0  0  0
   14.7288  -10.6259    0.0000 H   0  0  0  0  0  0  0  0  0  0  0  0
   12.8914  -10.9147    0.0000 H   0  0  0  0  0  0  0  0  0  0  0  0
   11.2394  -10.9043    0.0000 H   0  0  0  0  0  0  0  0  0  0  0  0
   10.5490   -8.9437    0.0000 H   0  0  0  0  0  0  0  0  0  0  0  0
   11.4746  -10.3038    0.0000 H   0  0  0  0  0  0  0  0  0  0  0  0
    9.1233   -8.9437    0.0000 H   0  0  0  0  0  0  0  0  0  0  0  0
   10.7647  -11.7851    0.0000 H   0  0  0  0  0  0  0  0  0  0  0  0
   11.2613  -12.2215    0.0000 H   0  0  0  0  0  0  0  0  0  0  0  0
    8.1965  -10.3038    0.0000 H   0  0  0  0  0  0  0  0  0  0  0  0
    8.4078   -8.5349    0.0000 H   0  0  0  0  0  0  0  0  0  0  0  0
    7.4825   -9.0701    0.0000 H   0  0  0  0  0  0  0  0  0  0  0  0
    8.9973  -12.5615    0.0000 H   0  0  0  0  0  0  0  0  0  0  0  0
    7.5688  -10.7671    0.0000 H   0  0  0  0  0  0  0  0  0  0  0  0
    6.8599   -9.5279    0.0000 H   0  0  0  0  0  0  0  0  0  0  0  0
  1  2  1  0  0  0  0
  1  3  1  0  0  0  0
  1  4  1  0  0  0  0
  1 37  1  6  0  0  0
  2  5  1  0  0  0  0
  2  6  1  0  0  0  0
  3  7  1  0  0  0  0
  4  8  1  0  0  0  0
  4  9  1  0  0  0  0
  4 38  1  1  0  0  0
  5 10  1  0  0  0  0
  5 11  2  0  0  0  0
  6 12  2  0  0  0  0
  6 39  1  0  0  0  0
  7 13  1  0  0  0  0
  7  8  1  0  0  0  0
  7 40  1  6  0  0  0
  8 14  1  0  0  0  0
  8 41  1  1  0  0  0
  9 42  1  0  0  0  0
 10 15  1  0  0  0  0
 10 43  1  0  0  0  0
 12 15  1  0  0  0  0
 12 44  1  0  0  0  0
 13 16  1  0  0  0  0
 13 45  1  0  0  0  0
 13 46  1  0  0  0  0
 14 47  1  0  0  0  0
 15 17  2  0  0  0  0
 16 18  1  0  0  0  0
 18 19  1  0  0  0  0
 18 20  1  0  0  0  0
 18 21  2  0  0  0  0
 19 22  1  0  0  0  0
 20 48  1  0  0  0  0
 22 23  1  0  0  0  0
 22 24  1  0  0  0  0
 22 25  2  0  0  0  0
 24 49  1  0  0  0  0
 26 23  1  0  0  0  0
 26 27  1  0  0  0  0
 26 28  1  0  0  0  0
 26 50  1  1  0  0  0
 27 29  1  0  0  0  0
 28 30  1  0  0  0  0
 28 31  1  0  0  0  0
 28 51  1  1  0  0  0
 29 32  1  0  0  0  0
 29 33  1  0  0  0  0
 29 52  1  6  0  0  0
 30 34  1  0  0  0  0
 30 32  1  0  0  0  0
 30 53  1  6  0  0  0
 31 54  1  0  0  0  0
 32 35  1  0  0  0  0
 32 55  1  1  0  0  0
 33 36  1  0  0  0  0
 33 56  1  0  0  0  0
 33 57  1  0  0  0  0
 34 58  1  0  0  0  0
 35 59  1  0  0  0  0
 36 60  1  0  0  0  0
M  END
>  <DRUGBANK_ID>
DB01861

>  <SECONDARY_ACCESSION_NUMBERS>
EXPT01669; EXPT03198; DB04355

>  <COMMON_NAME>
Uridine diphosphate glucose

>  <CAS_NUMBER>
133-89-1

>  <UNII>
V50K1D7P4Y

>  <SYNONYMS>
5'-Diphosphoglucose; Co-galactoisomerase; Co-waldenase; Cogalactoisomerase; UDP-Glucose; UDPG; Uridine 5'-pyrophosphate glucose ester; Uridine-5'-Diphosphoglucose

$$$$
