
 OpenBabel10282417072D

 32 33  0  0  0  0  0  0  0  0999 V2000
    1.4289   -1.6500    0.0000 C   0  0  0  0  0  0  0  0  0  0  0  0
    1.4289   -2.4750    0.0000 N   0  0  0  0  0  0  0  0  0  0  0  0
    2.0964   -2.9599    0.0000 C   0  0  0  0  0  0  0  0  0  0  0  0
    1.8414   -3.7445    0.0000 C   0  0  0  0  0  0  0  0  0  0  0  0
    1.0164   -3.7445    0.0000 N   0  0  0  0  0  0  0  0  0  0  0  0
    0.7615   -2.9599    0.0000 C   0  0  0  0  0  0  0  0  0  0  0  0
   -0.0231   -2.7050    0.0000 C   0  0  0  0  0  0  0  0  0  0  0  0
   -0.6362   -3.2570    0.0000 O   0  0  0  0  0  0  0  0  0  0  0  0
   -1.4208   -3.0021    0.0000 C   0  0  0  0  0  0  0  0  0  0  0  0
   -2.0339   -3.5541    0.0000 C   0  0  0  0  0  0  0  0  0  0  0  0
   -2.8186   -3.2992    0.0000 C   0  0  0  0  0  0  0  0  0  0  0  0
   -2.9901   -2.4922    0.0000 C   0  0  0  0  0  0  0  0  0  0  0  0
   -2.3770   -1.9402    0.0000 C   0  0  0  0  0  0  0  0  0  0  0  0
   -1.5924   -2.1951    0.0000 C   0  0  0  0  0  0  0  0  0  0  0  0
   -3.7747   -2.2373    0.0000 S   0  0  0  0  0  0  0  0  0  0  0  0
   -3.9462   -1.4303    0.0000 C   0  0  0  0  0  0  0  0  0  0  0  0
    2.8810   -2.7050    0.0000 N   0  3  0  0  0  0  0  0  0  0  0  0
    3.0525   -1.8980    0.0000 O   0  0  0  0  0  0  0  0  0  0  0  0
    3.4941   -3.2570    0.0000 O   0  5  0  0  0  0  0  0  0  0  0  0
    2.3555   -1.1150    0.0000 H   0  0  0  0  0  0  0  0  0  0  0  0
    0.5023   -1.1150    0.0000 H   0  0  0  0  0  0  0  0  0  0  0  0
    1.4289   -0.5800    0.0000 H   0  0  0  0  0  0  0  0  0  0  0  0
    2.4480   -4.5794    0.0000 H   0  0  0  0  0  0  0  0  0  0  0  0
   -0.2456   -1.6584    0.0000 H   0  0  0  0  0  0  0  0  0  0  0  0
   -1.0407   -2.3743    0.0000 H   0  0  0  0  0  0  0  0  0  0  0  0
   -1.8193   -4.5635    0.0000 H   0  0  0  0  0  0  0  0  0  0  0  0
   -3.5855   -3.9898    0.0000 H   0  0  0  0  0  0  0  0  0  0  0  0
   -2.5916   -0.9308    0.0000 H   0  0  0  0  0  0  0  0  0  0  0  0
   -0.8255   -1.5045    0.0000 H   0  0  0  0  0  0  0  0  0  0  0  0
   -3.1510   -0.7144    0.0000 H   0  0  0  0  0  0  0  0  0  0  0  0
   -4.9638   -1.0996    0.0000 H   0  0  0  0  0  0  0  0  0  0  0  0
   -4.1686   -0.3837    0.0000 H   0  0  0  0  0  0  0  0  0  0  0  0
  1  2  1  0  0  0  0
  1 20  1  0  0  0  0
  1 21  1  0  0  0  0
  1 22  1  0  0  0  0
  2  3  1  0  0  0  0
  2  6  1  0  0  0  0
  3  4  2  0  0  0  0
  3 17  1  0  0  0  0
  4  5  1  0  0  0  0
  4 23  1  0  0  0  0
  5  6  2  0  0  0  0
  6  7  1  0  0  0  0
  7  8  1  0  0  0  0
  7 24  1  0  0  0  0
  7 25  1  0  0  0  0
  8  9  1  0  0  0  0
  9 10  2  0  0  0  0
  9 14  1  0  0  0  0
 10 11  1  0  0  0  0
 10 26  1  0  0  0  0
 11 12  2  0  0  0  0
 11 27  1  0  0  0  0
 12 13  1  0  0  0  0
 12 15  1  0  0  0  0
 13 14  2  0  0  0  0
 13 28  1  0  0  0  0
 14 29  1  0  0  0  0
 15 16  1  0  0  0  0
 16 30  1  0  0  0  0
 16 31  1  0  0  0  0
 16 32  1  0  0  0  0
 17 18  2  0  0  0  0
 17 19  1  0  0  0  0
M  CHG  2  17   1  19  -1
M  END
>  <DRUGBANK_ID>
DB12265

>  <COMMON_NAME>
Fexinidazole

>  <CAS_NUMBER>
59729-37-2

>  <UNII>
306ERL82IR

>  <SYNONYMS>
Fexinidazole

$$$$
