
 OpenBabel10282417072D

 56 58  0  0  0  0  0  0  0  0999 V2000
    5.0239    0.8259    0.0000 C   0  0  0  0  0  0  0  0  0  0  0  0
    5.0239    1.6510    0.0000 C   0  0  0  0  0  0  0  0  0  0  0  0
    3.5950    1.6510    0.0000 N   0  0  0  0  0  0  0  0  0  0  0  0
    4.3095    0.4134    0.0000 N   0  0  0  0  0  0  0  0  0  0  0  0
    4.3095    2.0635    0.0000 C   0  0  0  0  0  0  0  0  0  0  0  0
    4.3095    2.8885    0.0000 O   0  0  0  0  0  0  0  0  0  0  0  0
    3.5950    0.8259    0.0000 C   0  0  0  0  0  0  0  0  0  0  0  0
    2.8805    0.4134    0.0000 O   0  0  0  0  0  0  0  0  0  0  0  0
    4.0081   -0.8259    0.0000 C   0  0  1  0  0  0  0  0  0  0  0  0
    3.7532   -1.6104    0.0000 C   0  0  2  0  0  0  0  0  0  0  0  0
    4.1658   -2.3249    0.0000 O   0  0  0  0  0  0  0  0  0  0  0  0
    2.9282   -1.6104    0.0000 C   0  0  2  0  0  0  0  0  0  0  0  0
    2.5157   -2.3249    0.0000 O   0  0  0  0  0  0  0  0  0  0  0  0
    2.6733   -0.8259    0.0000 C   0  0  1  0  0  0  0  0  0  0  0  0
    1.9588   -0.4134    0.0000 C   0  0  0  0  0  0  0  0  0  0  0  0
    1.1338   -0.4134    0.0000 O   0  0  0  0  0  0  0  0  0  0  0  0
   -0.5161   -0.4134    0.0000 O   0  0  0  0  0  0  0  0  0  0  0  0
    0.3088    0.4115    0.0000 O   0  0  0  0  0  0  0  0  0  0  0  0
    0.3088   -0.4134    0.0000 P   0  0  3  0  0  0  0  0  0  0  0  0
    0.3088   -1.2385    0.0000 O   0  0  0  0  0  0  0  0  0  0  0  0
   -1.3411    0.4115    0.0000 O   0  0  0  0  0  0  0  0  0  0  0  0
   -1.3411   -1.2385    0.0000 O   0  0  0  0  0  0  0  0  0  0  0  0
   -1.3411   -0.4134    0.0000 P   0  0  3  0  0  0  0  0  0  0  0  0
   -2.1661   -0.4134    0.0000 O   0  0  0  0  0  0  0  0  0  0  0  0
    3.3407   -0.3409    0.0000 O   0  0  0  0  0  0  0  0  0  0  0  0
   -2.8806   -0.8259    0.0000 C   0  0  2  0  0  0  0  0  0  0  0  0
   -4.3095   -0.8259    0.0000 C   0  0  0  0  0  0  0  0  0  0  0  0
   -2.8806   -1.6510    0.0000 C   0  0  2  0  0  0  0  0  0  0  0  0
   -2.1661   -2.0635    0.0000 O   0  0  0  0  0  0  0  0  0  0  0  0
   -4.3095   -1.6510    0.0000 C   0  0  1  0  0  0  0  0  0  0  0  0
   -5.0240   -2.0635    0.0000 O   0  0  0  0  0  0  0  0  0  0  0  0
   -3.5950   -2.0635    0.0000 C   0  0  2  0  0  0  0  0  0  0  0  0
   -3.5950   -2.8885    0.0000 O   0  0  0  0  0  0  0  0  0  0  0  0
   -3.5950   -0.4134    0.0000 O   0  0  0  0  0  0  0  0  0  0  0  0
    5.9176    0.3099    0.0000 H   0  0  0  0  0  0  0  0  0  0  0  0
    5.9176    2.1670    0.0000 H   0  0  0  0  0  0  0  0  0  0  0  0
    2.7424    2.1433    0.0000 H   0  0  0  0  0  0  0  0  0  0  0  0
    3.6393    0.1785    0.0000 H   0  0  0  0  0  0  0  0  0  0  0  0
    3.2182   -2.5371    0.0000 H   0  0  0  0  0  0  0  0  0  0  0  0
    3.6809   -3.1650    0.0000 H   0  0  0  0  0  0  0  0  0  0  0  0
    1.8641   -1.4986    0.0000 H   0  0  0  0  0  0  0  0  0  0  0  0
    1.5457   -2.3249    0.0000 H   0  0  0  0  0  0  0  0  0  0  0  0
    2.6172    0.2426    0.0000 H   0  0  0  0  0  0  0  0  0  0  0  0
    2.2357    0.6201    0.0000 H   0  0  0  0  0  0  0  0  0  0  0  0
    1.3074    0.4355    0.0000 H   0  0  0  0  0  0  0  0  0  0  0  0
   -0.5312   -1.7235    0.0000 H   0  0  0  0  0  0  0  0  0  0  0  0
   -2.1811   -1.7235    0.0000 H   0  0  0  0  0  0  0  0  0  0  0  0
   -1.9540   -1.3609    0.0000 H   0  0  0  0  0  0  0  0  0  0  0  0
   -5.2361   -0.2909    0.0000 H   0  0  0  0  0  0  0  0  0  0  0  0
   -5.2361   -1.3609    0.0000 H   0  0  0  0  0  0  0  0  0  0  0  0
   -1.9540   -1.1160    0.0000 H   0  0  0  0  0  0  0  0  0  0  0  0
   -2.1661   -3.0335    0.0000 H   0  0  0  0  0  0  0  0  0  0  0  0
   -5.2361   -1.1160    0.0000 H   0  0  0  0  0  0  0  0  0  0  0  0
   -5.8640   -1.5785    0.0000 H   0  0  0  0  0  0  0  0  0  0  0  0
   -4.5216   -2.5985    0.0000 H   0  0  0  0  0  0  0  0  0  0  0  0
   -4.4350   -3.3735    0.0000 H   0  0  0  0  0  0  0  0  0  0  0  0
  1  2  2  0  0  0  0
  1 35  1  0  0  0  0
  2 36  1  0  0  0  0
  3  7  1  0  0  0  0
  3 37  1  0  0  0  0
  4  1  1  0  0  0  0
  5  3  1  0  0  0  0
  5  2  1  0  0  0  0
  5  6  2  0  0  0  0
  7  4  1  0  0  0  0
  7  8  2  0  0  0  0
  9  4  1  0  0  0  0
  9 38  1  6  0  0  0
 10  9  1  0  0  0  0
 10 11  1  0  0  0  0
 10 39  1  1  0  0  0
 11 40  1  0  0  0  0
 12 10  1  0  0  0  0
 12 13  1  0  0  0  0
 12 41  1  1  0  0  0
 13 42  1  0  0  0  0
 14 12  1  0  0  0  0
 14 15  1  0  0  0  0
 14 43  1  6  0  0  0
 15 16  1  0  0  0  0
 15 44  1  0  0  0  0
 15 45  1  0  0  0  0
 16 19  1  0  0  0  0
 17 23  1  0  0  0  0
 19 17  1  0  0  0  0
 19 18  2  0  0  0  0
 19 20  1  0  0  0  0
 20 46  1  0  0  0  0
 22 47  1  0  0  0  0
 23 21  2  0  0  0  0
 23 22  1  0  0  0  0
 23 24  1  0  0  0  0
 25 14  1  0  0  0  0
 25  9  1  0  0  0  0
 26 24  1  0  0  0  0
 26 48  1  1  0  0  0
 27 30  1  0  0  0  0
 27 49  1  0  0  0  0
 27 50  1  0  0  0  0
 28 26  1  0  0  0  0
 28 29  1  0  0  0  0
 28 51  1  1  0  0  0
 29 52  1  0  0  0  0
 30 32  1  0  0  0  0
 30 31  1  0  0  0  0
 30 53  1  1  0  0  0
 31 54  1  0  0  0  0
 32 28  1  0  0  0  0
 32 33  1  0  0  0  0
 32 55  1  6  0  0  0
 33 56  1  0  0  0  0
 34 26  1  0  0  0  0
 34 27  1  0  0  0  0
M  END
>  <DRUGBANK_ID>
DB01713

>  <SECONDARY_ACCESSION_NUMBERS>
EXPT03173

>  <COMMON_NAME>
UDP-alpha-D-xylose

>  <CAS_NUMBER>
3616-06-6

>  <UNII>
I839TB018F

>  <SYNONYMS>
UDP-xylose; Uridine-5'-diphosphate-xylopyranose

$$$$
