
 OpenBabel10282417072D

 47 50  0  0  1  0  0  0  0  0999 V2000
   25.2305  -14.5000    0.0000 O   0  0  0  0  0  0  0  0  0  0  0  0
   20.2542  -18.0546    0.0000 O   0  0  0  0  0  0  0  0  0  0  0  0
   24.7035  -15.5364    0.0000 C   0  0  2  0  0  0  0  0  0  0  0  0
   24.7035  -16.3614    0.0000 C   0  0  2  0  0  0  0  0  0  0  0  0
   23.9891  -16.7739    0.0000 C   0  0  1  0  0  0  0  0  0  0  0  0
   25.4841  -15.2850    0.0000 C   0  0  2  0  0  0  0  0  0  0  0  0
   25.4841  -16.6129    0.0000 C   0  0  0  0  0  0  0  0  0  0  0  0
   25.9656  -15.9489    0.0000 C   0  0  0  0  0  0  0  0  0  0  0  0
   24.7035  -14.7114    0.0000 C   0  0  0  0  0  0  0  0  0  0  0  0
   23.2745  -16.3614    0.0000 C   0  0  0  0  0  0  0  0  0  0  0  0
   23.9891  -15.1239    0.0000 C   0  0  0  0  0  0  0  0  0  0  0  0
   24.0023  -17.6332    0.0000 C   0  0  0  0  0  0  0  0  0  0  0  0
   23.2745  -15.5364    0.0000 C   0  0  0  0  0  0  0  0  0  0  0  0
   22.5238  -16.7796    0.0000 C   0  0  0  0  0  0  0  0  0  0  0  0
   23.2614  -18.0686    0.0000 C   0  0  0  0  0  0  0  0  0  0  0  0
   22.5172  -17.6389    0.0000 C   0  0  0  0  0  0  0  0  0  0  0  0
   26.1524  -14.8012    0.0000 C   0  0  0  0  0  0  0  0  0  0  0  0
   23.9891  -14.2989    0.0000 C   0  0  0  0  0  0  0  0  0  0  0  0
   21.7592  -16.3142    0.0000 C   0  0  0  0  0  0  0  0  0  0  0  0
   21.7455  -18.0924    0.0000 C   0  0  0  0  0  0  0  0  0  0  0  0
   20.9771  -16.7498    0.0000 C   0  0  0  0  0  0  0  0  0  0  0  0
   20.9702  -17.6449    0.0000 C   0  0  0  0  0  0  0  0  0  0  0  0
   26.8207  -14.3175    0.0000 C   0  0  0  0  0  0  0  0  0  0  0  0
   24.7733  -17.0178    0.0000 H   0  0  0  0  0  0  0  0  0  0  0  0
   24.5631  -17.0995    0.0000 H   0  0  0  0  0  0  0  0  0  0  0  0
   25.8808  -13.7802    0.0000 H   0  0  0  0  0  0  0  0  0  0  0  0
   25.8165  -17.6300    0.0000 H   0  0  0  0  0  0  0  0  0  0  0  0
   26.5411  -16.7789    0.0000 H   0  0  0  0  0  0  0  0  0  0  0  0
   27.0356  -15.9489    0.0000 H   0  0  0  0  0  0  0  0  0  0  0  0
   26.4518  -16.9020    0.0000 H   0  0  0  0  0  0  0  0  0  0  0  0
   25.6302  -14.1764    0.0000 H   0  0  0  0  0  0  0  0  0  0  0  0
   24.7035  -13.6414    0.0000 H   0  0  0  0  0  0  0  0  0  0  0  0
   23.9892  -14.0919    0.0000 H   0  0  0  0  0  0  0  0  0  0  0  0
   24.9351  -18.1575    0.0000 H   0  0  0  0  0  0  0  0  0  0  0  0
   24.0126  -18.7032    0.0000 H   0  0  0  0  0  0  0  0  0  0  0  0
   22.3808  -15.0204    0.0000 H   0  0  0  0  0  0  0  0  0  0  0  0
   23.2655  -19.1386    0.0000 H   0  0  0  0  0  0  0  0  0  0  0  0
   22.3358  -18.6054    0.0000 H   0  0  0  0  0  0  0  0  0  0  0  0
   23.9891  -13.2289    0.0000 H   0  0  0  0  0  0  0  0  0  0  0  0
   23.0624  -14.8339    0.0000 H   0  0  0  0  0  0  0  0  0  0  0  0
   23.0625  -13.7639    0.0000 H   0  0  0  0  0  0  0  0  0  0  0  0
   21.7799  -15.2444    0.0000 H   0  0  0  0  0  0  0  0  0  0  0  0
   20.8420  -15.7632    0.0000 H   0  0  0  0  0  0  0  0  0  0  0  0
   21.7495  -19.1244    0.0000 H   0  0  0  0  0  0  0  0  0  0  0  0
   20.0567  -16.2041    0.0000 H   0  0  0  0  0  0  0  0  0  0  0  0
   20.0453  -17.2758    0.0000 H   0  0  0  0  0  0  0  0  0  0  0  0
   27.6259  -13.7347    0.0000 H   0  0  0  0  0  0  0  0  0  0  0  0
  1 26  1  0  0  0  0
  2 22  2  0  0  0  0
  3  4  1  0  0  0  0
  3  6  1  0  0  0  0
  3  9  1  1  0  0  0
  3 11  1  0  0  0  0
  4  5  1  0  0  0  0
  4  7  1  0  0  0  0
  4 24  1  6  0  0  0
  5 10  1  0  0  0  0
  5 12  1  0  0  0  0
  5 25  1  1  0  0  0
  6  1  1  0  0  0  0
  6  8  1  0  0  0  0
  6 17  1  6  0  0  0
  7  8  1  0  0  0  0
  7 27  1  0  0  0  0
  7 28  1  0  0  0  0
  8 29  1  0  0  0  0
  8 30  1  0  0  0  0
  9 18  1  0  0  0  0
  9 31  1  0  0  0  0
  9 32  1  0  0  0  0
 10 13  1  0  0  0  0
 10 14  2  0  0  0  0
 11 13  2  0  0  0  0
 11 33  1  0  0  0  0
 12 15  1  0  0  0  0
 12 34  1  0  0  0  0
 12 35  1  0  0  0  0
 13 36  1  0  0  0  0
 14 16  1  0  0  0  0
 14 19  1  0  0  0  0
 15 16  1  0  0  0  0
 15 37  1  0  0  0  0
 15 38  1  0  0  0  0
 16 20  2  0  0  0  0
 17 23  3  0  0  0  0
 18 39  1  0  0  0  0
 18 40  1  0  0  0  0
 18 41  1  0  0  0  0
 19 21  1  0  0  0  0
 19 42  1  0  0  0  0
 19 43  1  0  0  0  0
 20 22  1  0  0  0  0
 20 44  1  0  0  0  0
 21 22  1  0  0  0  0
 21 45  1  0  0  0  0
 21 46  1  0  0  0  0
 23 47  1  0  0  0  0
M  END
>  <DRUGBANK_ID>
DB11619

>  <COMMON_NAME>
Gestrinone

>  <CAS_NUMBER>
16320-04-0

>  <UNII>
1421533RCM

>  <SYNONYMS>
Ethylnorgestrienone; Gestrinona; Gestrinone; Gestrinonum

$$$$
