
 OpenBabel10282417072D

 14 13  0  0  0  0  0  0  0  0999 V2000
   -0.6039   -2.4750    0.0000 C   0  0  0  0  0  0  0  0  0  0  0  0
    0.1105   -2.0625    0.0000 C   0  0  0  0  0  0  0  0  0  0  0  0
    0.8250   -2.4750    0.0000 O   0  0  0  0  0  0  0  0  0  0  0  0
    0.1105   -1.2375    0.0000 O   0  0  0  0  0  0  0  0  0  0  0  0
    0.8250   -0.8250    0.0000 C   0  0  0  0  0  0  0  0  0  0  0  0
    0.8250    0.0000    0.0000 C   0  0  0  0  0  0  0  0  0  0  0  0
    0.8250    0.8250    0.0000 F   0  0  0  0  0  0  0  0  0  0  0  0
    1.6500    0.0000    0.0000 F   0  0  0  0  0  0  0  0  0  0  0  0
    0.0000    0.0000    0.0000 F   0  0  0  0  0  0  0  0  0  0  0  0
   -1.5306   -1.9400    0.0000 H   0  0  0  0  0  0  0  0  0  0  0  0
   -0.6039   -3.5450    0.0000 H   0  0  0  0  0  0  0  0  0  0  0  0
   -1.5305   -3.0100    0.0000 H   0  0  0  0  0  0  0  0  0  0  0  0
    1.7516   -1.3600    0.0000 H   0  0  0  0  0  0  0  0  0  0  0  0
    1.7516   -0.2900    0.0000 H   0  0  0  0  0  0  0  0  0  0  0  0
  1  2  1  0  0  0  0
  1 10  1  0  0  0  0
  1 11  1  0  0  0  0
  1 12  1  0  0  0  0
  2  3  2  0  0  0  0
  2  4  1  0  0  0  0
  4  5  1  0  0  0  0
  5  6  1  0  0  0  0
  5 13  1  0  0  0  0
  5 14  1  0  0  0  0
  6  7  1  0  0  0  0
  6  8  1  0  0  0  0
  6  9  1  0  0  0  0
M  END
>  <DRUGBANK_ID>
DB14629

>  <SECONDARY_ACCESSION_NUMBERS>
DBSALT002296

>  <COMMON_NAME>
Trifluoroethyl acetate

>  <CAS_NUMBER>
406-95-1

>  <UNII>
EN07RVL78U

>  <SYNONYMS>
2,2,2-trifluoroethanol acetate; 2,2,2-trifluoroethyl acetate

$$$$
