
 OpenBabel10282417072D

140148  0  0  1  0  0  0  0  0999 V2000
   11.7501  -10.4231    0.0000 C   0  0  1  0  0  0  0  0  0  0  0  0
   11.7535   -9.5952    0.0000 C   0  0  0  0  0  0  0  0  0  0  0  0
   11.0394   -9.1789    0.0000 C   0  0  1  0  0  0  0  0  0  0  0  0
   10.3219   -9.5893    0.0000 C   0  0  1  0  0  0  0  0  0  0  0  0
   10.3185  -10.4171    0.0000 C   0  0  2  0  0  0  0  0  0  0  0  0
   11.0325  -10.8334    0.0000 O   0  0  0  0  0  0  0  0  0  0  0  0
   11.0428   -8.3556    0.0000 O   0  0  0  0  0  0  0  0  0  0  0  0
    9.6072   -9.1727    0.0000 O   0  0  0  0  0  0  0  0  0  0  0  0
    9.5984  -10.8289    0.0000 C   0  0  0  0  0  0  0  0  0  0  0  0
   14.6157   -9.5952    0.0000 C   0  0  2  0  0  0  0  0  0  0  0  0
   13.9131   -9.1818    0.0000 O   0  0  0  0  0  0  0  0  0  0  0  0
   13.1692   -9.5952    0.0000 C   0  0  1  0  0  0  0  0  0  0  0  0
   13.1692  -10.4218    0.0000 C   0  0  2  0  0  0  0  0  0  0  0  0
   13.8718  -10.8350    0.0000 C   0  0  2  0  0  0  0  0  0  0  0  0
   14.6157  -10.4218    0.0000 C   0  0  0  0  0  0  0  0  0  0  0  0
   22.3855   -9.2231    0.0000 C   0  0  2  0  0  0  0  0  0  0  0  0
   21.6829   -9.6365    0.0000 C   0  0  1  0  0  0  0  0  0  0  0  0
   22.3855   -8.3967    0.0000 C   0  0  1  0  0  0  0  0  0  0  0  0
   20.9803   -9.2231    0.0000 C   0  0  1  0  0  0  0  0  0  0  0  0
   21.6829  -10.4218    0.0000 C   0  0  0  0  0  0  0  0  0  0  0  0
   21.6829   -8.0246    0.0000 C   0  0  1  0  0  0  0  0  0  0  0  0
   22.3442   -7.6940    0.0000 C   0  0  0  0  0  0  0  0  0  0  0  0
   20.2778   -9.5952    0.0000 C   0  0  2  0  0  0  0  0  0  0  0  0
   20.9803   -8.3967    0.0000 C   0  0  0  0  0  0  0  0  0  0  0  0
   20.9803  -10.8350    0.0000 C   0  0  0  0  0  0  0  0  0  0  0  0
   20.2778  -10.4218    0.0000 C   0  0  2  0  0  0  0  0  0  0  0  0
   19.5751   -9.2231    0.0000 C   0  0  0  0  0  0  0  0  0  0  0  0
   20.2778   -8.8512    0.0000 C   0  0  0  0  0  0  0  0  0  0  0  0
   19.5751  -10.8350    0.0000 C   0  0  0  0  0  0  0  0  0  0  0  0
   18.8725   -9.5952    0.0000 C   0  0  0  0  0  0  0  0  0  0  0  0
   18.8725  -10.4218    0.0000 C   0  0  2  0  0  0  0  0  0  0  0  0
   21.6829   -7.1980    0.0000 O   0  0  0  0  0  0  0  0  0  0  0  0
   23.1294   -9.4712    0.0000 C   0  0  0  0  0  0  0  0  0  0  0  0
   23.6252   -8.8512    0.0000 C   0  0  0  0  0  0  0  0  0  0  0  0
   23.1708   -8.1899    0.0000 C   0  0  2  0  0  0  0  0  0  0  0  0
   23.4186   -7.4048    0.0000 C   0  0  0  0  0  0  0  0  0  0  0  0
   24.2039   -7.1567    0.0000 C   0  0  0  0  0  0  0  0  0  0  0  0
   24.2039   -6.3302    0.0000 C   0  0  0  0  0  0  0  0  0  0  0  0
   23.4186   -6.0409    0.0000 O   0  0  0  0  0  0  0  0  0  0  0  0
   22.9227   -6.7435    0.0000 C   0  0  0  0  0  0  0  0  0  0  0  0
   24.8652   -5.8342    0.0000 O   0  0  0  0  0  0  0  0  0  0  0  0
   18.1700  -10.8350    0.0000 O   0  0  0  0  0  0  0  0  0  0  0  0
   17.4674  -10.4218    0.0000 C   0  0  1  0  0  0  0  0  0  0  0  0
   17.4674   -9.5952    0.0000 C   0  0  0  0  0  0  0  0  0  0  0  0
   16.7234   -9.1818    0.0000 C   0  0  1  0  0  0  0  0  0  0  0  0
   16.0209   -9.5952    0.0000 C   0  0  1  0  0  0  0  0  0  0  0  0
   16.0209  -10.4218    0.0000 C   0  0  2  0  0  0  0  0  0  0  0  0
   16.7234  -10.8350    0.0000 O   0  0  0  0  0  0  0  0  0  0  0  0
   16.7234   -8.3553    0.0000 O   0  0  0  0  0  0  0  0  0  0  0  0
   15.3183   -9.1818    0.0000 O   0  0  0  0  0  0  0  0  0  0  0  0
   15.3183  -10.8350    0.0000 C   0  0  0  0  0  0  0  0  0  0  0  0
   12.4568   -9.1759    0.0000 C   0  0  0  0  0  0  0  0  0  0  0  0
   12.4518  -10.8321    0.0000 O   0  0  0  0  0  0  0  0  0  0  0  0
   13.8617  -11.6615    0.0000 O   0  0  0  0  0  0  0  0  0  0  0  0
    9.6072   -8.3462    0.0000 C   0  0  2  0  0  0  0  0  0  0  0  0
   10.3248   -7.9317    0.0000 O   0  0  0  0  0  0  0  0  0  0  0  0
   10.3248   -7.1052    0.0000 C   0  0  1  0  0  0  0  0  0  0  0  0
    9.6089   -6.6919    0.0000 C   0  0  2  0  0  0  0  0  0  0  0  0
    8.8914   -7.1063    0.0000 C   0  0  1  0  0  0  0  0  0  0  0  0
    8.8914   -7.9328    0.0000 C   0  0  1  0  0  0  0  0  0  0  0  0
    8.1647   -6.6865    0.0000 O   0  0  0  0  0  0  0  0  0  0  0  0
   11.0308   -6.6977    0.0000 C   0  0  0  0  0  0  0  0  0  0  0  0
    8.1565   -8.3572    0.0000 O   0  0  0  0  0  0  0  0  0  0  0  0
    9.6090   -5.8756    0.0000 O   0  0  0  0  0  0  0  0  0  0  0  0
   11.7405   -7.1075    0.0000 O   0  0  0  0  0  0  0  0  0  0  0  0
   22.3855  -10.0497    0.0000 O   0  0  0  0  0  0  0  0  0  0  0  0
   12.6789   -9.8919    0.0000 H   0  0  0  0  0  0  0  0  0  0  0  0
   12.6824   -9.0641    0.0000 H   0  0  0  0  0  0  0  0  0  0  0  0
   11.7580   -8.5252    0.0000 H   0  0  0  0  0  0  0  0  0  0  0  0
   11.9683   -8.6478    0.0000 H   0  0  0  0  0  0  0  0  0  0  0  0
   10.3263   -8.5193    0.0000 H   0  0  0  0  0  0  0  0  0  0  0  0
    9.3941   -9.8783    0.0000 H   0  0  0  0  0  0  0  0  0  0  0  0
   11.8848   -7.8741    0.0000 H   0  0  0  0  0  0  0  0  0  0  0  0
    8.6740  -10.2901    0.0000 H   0  0  0  0  0  0  0  0  0  0  0  0
    9.5940  -11.8989    0.0000 H   0  0  0  0  0  0  0  0  0  0  0  0
    8.6696  -11.3601    0.0000 H   0  0  0  0  0  0  0  0  0  0  0  0
   14.6157   -8.5252    0.0000 H   0  0  0  0  0  0  0  0  0  0  0  0
   13.1824   -8.5253    0.0000 H   0  0  0  0  0  0  0  0  0  0  0  0
   12.2436   -9.8849    0.0000 H   0  0  0  0  0  0  0  0  0  0  0  0
   12.9398  -11.3606    0.0000 H   0  0  0  0  0  0  0  0  0  0  0  0
   15.5379  -10.9645    0.0000 H   0  0  0  0  0  0  0  0  0  0  0  0
   15.5446   -9.8906    0.0000 H   0  0  0  0  0  0  0  0  0  0  0  0
   22.6117  -10.1677    0.0000 H   0  0  0  0  0  0  0  0  0  0  0  0
   21.9091   -8.6919    0.0000 H   0  0  0  0  0  0  0  0  0  0  0  0
   22.6117  -10.9531    0.0000 H   0  0  0  0  0  0  0  0  0  0  0  0
   21.6893  -11.4918    0.0000 H   0  0  0  0  0  0  0  0  0  0  0  0
   22.5996   -7.4728    0.0000 H   0  0  0  0  0  0  0  0  0  0  0  0
   23.2379   -7.1056    0.0000 H   0  0  0  0  0  0  0  0  0  0  0  0
   21.3878   -7.2143    0.0000 H   0  0  0  0  0  0  0  0  0  0  0  0
   22.2814   -6.6258    0.0000 H   0  0  0  0  0  0  0  0  0  0  0  0
   20.0636   -7.8449    0.0000 H   0  0  0  0  0  0  0  0  0  0  0  0
   21.0096   -7.3271    0.0000 H   0  0  0  0  0  0  0  0  0  0  0  0
   20.9803  -11.9050    0.0000 H   0  0  0  0  0  0  0  0  0  0  0  0
   20.0515  -11.3662    0.0000 H   0  0  0  0  0  0  0  0  0  0  0  0
   19.3490   -9.8905    0.0000 H   0  0  0  0  0  0  0  0  0  0  0  0
   19.5751   -8.1531    0.0000 H   0  0  0  0  0  0  0  0  0  0  0  0
   18.6584   -8.6713    0.0000 H   0  0  0  0  0  0  0  0  0  0  0  0
   21.2044   -8.3162    0.0000 H   0  0  0  0  0  0  0  0  0  0  0  0
   19.3512   -8.3162    0.0000 H   0  0  0  0  0  0  0  0  0  0  0  0
   20.2778   -7.7812    0.0000 H   0  0  0  0  0  0  0  0  0  0  0  0
   19.5751  -11.9050    0.0000 H   0  0  0  0  0  0  0  0  0  0  0  0
   18.6463  -11.3663    0.0000 H   0  0  0  0  0  0  0  0  0  0  0  0
   17.9558   -9.0434    0.0000 H   0  0  0  0  0  0  0  0  0  0  0  0
   17.9410  -10.1217    0.0000 H   0  0  0  0  0  0  0  0  0  0  0  0
   18.8725  -11.4918    0.0000 H   0  0  0  0  0  0  0  0  0  0  0  0
   22.5229   -6.7130    0.0000 H   0  0  0  0  0  0  0  0  0  0  0  0
   23.4325  -10.4974    0.0000 H   0  0  0  0  0  0  0  0  0  0  0  0
   24.1794   -9.6772    0.0000 H   0  0  0  0  0  0  0  0  0  0  0  0
   24.6945   -8.8900    0.0000 H   0  0  0  0  0  0  0  0  0  0  0  0
   24.1405   -7.9135    0.0000 H   0  0  0  0  0  0  0  0  0  0  0  0
   24.2291   -8.0320    0.0000 H   0  0  0  0  0  0  0  0  0  0  0  0
   25.0363   -7.7667    0.0000 H   0  0  0  0  0  0  0  0  0  0  0  0
   21.8528   -6.7589    0.0000 H   0  0  0  0  0  0  0  0  0  0  0  0
   22.4511   -7.7039    0.0000 H   0  0  0  0  0  0  0  0  0  0  0  0
   18.3962   -9.8905    0.0000 H   0  0  0  0  0  0  0  0  0  0  0  0
   18.3896   -9.0526    0.0000 H   0  0  0  0  0  0  0  0  0  0  0  0
   17.4542   -8.5253    0.0000 H   0  0  0  0  0  0  0  0  0  0  0  0
   17.6456   -8.6392    0.0000 H   0  0  0  0  0  0  0  0  0  0  0  0
   16.0209   -8.5252    0.0000 H   0  0  0  0  0  0  0  0  0  0  0  0
   15.0921   -9.8905    0.0000 H   0  0  0  0  0  0  0  0  0  0  0  0
   17.5634   -7.8703    0.0000 H   0  0  0  0  0  0  0  0  0  0  0  0
   14.3874  -10.3075    0.0000 H   0  0  0  0  0  0  0  0  0  0  0  0
   15.3269  -11.9050    0.0000 H   0  0  0  0  0  0  0  0  0  0  0  0
   14.3960  -11.3774    0.0000 H   0  0  0  0  0  0  0  0  0  0  0  0
   12.4658   -8.1059    0.0000 H   0  0  0  0  0  0  0  0  0  0  0  0
   11.5257   -9.7031    0.0000 H   0  0  0  0  0  0  0  0  0  0  0  0
   11.5347   -8.6332    0.0000 H   0  0  0  0  0  0  0  0  0  0  0  0
   13.0158  -12.1362    0.0000 H   0  0  0  0  0  0  0  0  0  0  0  0
   10.5339   -8.8811    0.0000 H   0  0  0  0  0  0  0  0  0  0  0  0
   11.2514   -7.6403    0.0000 H   0  0  0  0  0  0  0  0  0  0  0  0
   10.5356   -6.1569    0.0000 H   0  0  0  0  0  0  0  0  0  0  0  0
    8.8914   -6.0363    0.0000 H   0  0  0  0  0  0  0  0  0  0  0  0
    7.9647   -7.3978    0.0000 H   0  0  0  0  0  0  0  0  0  0  0  0
    8.1649   -5.7165    0.0000 H   0  0  0  0  0  0  0  0  0  0  0  0
   11.0309   -5.6277    0.0000 H   0  0  0  0  0  0  0  0  0  0  0  0
   11.9575   -6.1628    0.0000 H   0  0  0  0  0  0  0  0  0  0  0  0
    7.3164   -7.8723    0.0000 H   0  0  0  0  0  0  0  0  0  0  0  0
   10.4491   -5.3907    0.0000 H   0  0  0  0  0  0  0  0  0  0  0  0
   11.7404   -8.0775    0.0000 H   0  0  0  0  0  0  0  0  0  0  0  0
   21.5455  -10.5347    0.0000 H   0  0  0  0  0  0  0  0  0  0  0  0
  1  2  1  0  0  0  0
  1  6  1  0  0  0  0
  1 53  1  0  0  0  0
  1 67  1  1  0  0  0
  2  3  1  0  0  0  0
  2 68  1  0  0  0  0
  2 69  1  0  0  0  0
  3  4  1  0  0  0  0
  3  7  1  0  0  0  0
  3 70  1  6  0  0  0
  4  5  1  0  0  0  0
  4  8  1  0  0  0  0
  4 71  1  6  0  0  0
  5  6  1  0  0  0  0
  5  9  1  0  0  0  0
  5 72  1  1  0  0  0
  7 73  1  0  0  0  0
  9 74  1  0  0  0  0
  9 75  1  0  0  0  0
  9 76  1  0  0  0  0
 10 11  1  0  0  0  0
 10 15  1  0  0  0  0
 10 50  1  0  0  0  0
 10 77  1  6  0  0  0
 11 12  1  0  0  0  0
 12 13  1  0  0  0  0
 12 52  1  0  0  0  0
 12 78  1  6  0  0  0
 13 14  1  0  0  0  0
 13 53  1  0  0  0  0
 13 79  1  1  0  0  0
 14 15  1  0  0  0  0
 14 54  1  0  0  0  0
 14 80  1  1  0  0  0
 15 81  1  0  0  0  0
 15 82  1  0  0  0  0
 16 17  1  0  0  0  0
 16 18  1  0  0  0  0
 16 33  1  0  0  0  0
 16 66  1  1  0  0  0
 17 19  1  0  0  0  0
 17 20  1  0  0  0  0
 17 83  1  1  0  0  0
 18 21  1  0  0  0  0
 18 22  1  1  0  0  0
 18 35  1  0  0  0  0
 19 23  1  0  0  0  0
 19 24  1  0  0  0  0
 19 84  1  6  0  0  0
 20 25  1  0  0  0  0
 20 85  1  0  0  0  0
 20 86  1  0  0  0  0
 21 24  1  0  0  0  0
 21 32  1  0  0  0  0
 21 87  1  6  0  0  0
 22 88  1  0  0  0  0
 22 89  1  0  0  0  0
 22 90  1  0  0  0  0
 23 26  1  0  0  0  0
 23 27  1  0  0  0  0
 23 28  1  1  0  0  0
 24 91  1  0  0  0  0
 24 92  1  0  0  0  0
 25 26  1  0  0  0  0
 25 93  1  0  0  0  0
 25 94  1  0  0  0  0
 26 29  1  0  0  0  0
 26 95  1  1  0  0  0
 27 30  1  0  0  0  0
 27 96  1  0  0  0  0
 27 97  1  0  0  0  0
 28 98  1  0  0  0  0
 28 99  1  0  0  0  0
 28100  1  0  0  0  0
 29 31  1  0  0  0  0
 29101  1  0  0  0  0
 29102  1  0  0  0  0
 30 31  1  0  0  0  0
 30103  1  0  0  0  0
 30104  1  0  0  0  0
 31 42  1  0  0  0  0
 31105  1  6  0  0  0
 32106  1  0  0  0  0
 33 34  1  0  0  0  0
 33107  1  0  0  0  0
 33108  1  0  0  0  0
 34 35  1  0  0  0  0
 34109  1  0  0  0  0
 34110  1  0  0  0  0
 35 36  1  0  0  0  0
 35111  1  6  0  0  0
 36 37  2  0  0  0  0
 36 40  1  0  0  0  0
 37 38  1  0  0  0  0
 37112  1  0  0  0  0
 38 39  1  0  0  0  0
 38 41  2  0  0  0  0
 39 40  1  0  0  0  0
 40113  1  0  0  0  0
 40114  1  0  0  0  0
 43 42  1  0  0  0  0
 43 44  1  0  0  0  0
 43 48  1  0  0  0  0
 43115  1  1  0  0  0
 44 45  1  0  0  0  0
 44116  1  0  0  0  0
 44117  1  0  0  0  0
 45 46  1  0  0  0  0
 45 49  1  0  0  0  0
 45118  1  6  0  0  0
 46 47  1  0  0  0  0
 46 50  1  0  0  0  0
 46119  1  6  0  0  0
 47 48  1  0  0  0  0
 47 51  1  0  0  0  0
 47120  1  1  0  0  0
 49121  1  0  0  0  0
 51122  1  0  0  0  0
 51123  1  0  0  0  0
 51124  1  0  0  0  0
 52125  1  0  0  0  0
 52126  1  0  0  0  0
 52127  1  0  0  0  0
 54128  1  0  0  0  0
 55  8  1  0  0  0  0
 55 56  1  0  0  0  0
 55 60  1  0  0  0  0
 55129  1  6  0  0  0
 56 57  1  0  0  0  0
 57 58  1  0  0  0  0
 57 62  1  0  0  0  0
 57130  1  6  0  0  0
 58 59  1  0  0  0  0
 58 64  1  0  0  0  0
 58131  1  1  0  0  0
 59 60  1  0  0  0  0
 59 61  1  0  0  0  0
 59132  1  6  0  0  0
 60 63  1  0  0  0  0
 60133  1  1  0  0  0
 61134  1  0  0  0  0
 62 65  1  0  0  0  0
 62135  1  0  0  0  0
 62136  1  0  0  0  0
 63137  1  0  0  0  0
 64138  1  0  0  0  0
 65139  1  0  0  0  0
 66140  1  0  0  0  0
M  END
>  <DRUGBANK_ID>
DB01078

>  <SECONDARY_ACCESSION_NUMBERS>
APRD00909

>  <COMMON_NAME>
Deslanoside

>  <CAS_NUMBER>
17598-65-1

>  <UNII>
YGY317RK75

>  <SYNONYMS>
(3β,5β,12β)-3-{[β-D-glucopyranosyl-(1→4)-2,6-dideoxy-β-D-ribo-hexopyranosyl-(1→4)-2,6-dideoxy-β-D-ribo-hexopyranosyl-(1→4)-2,6-dideoxy-β-D-ribo-hexopyranosyl]oxy}-12,14-dihydroxycard-20(22)-enolide; 3-[(O-β-D-glucopyranosyl-(1→4)-O-2,6-dideoxy-β-D-ribo-hexopyranosyl-(1→4)-O-2,6-dideoxy-β-D-ribo-hexopyranosyl-(1→4)-O-2,6-dideoxy-β-D-ribo-hexopyranosyl)oxy]-12,14-dihydroxy-3β,5β,12β-card-20(22)-enolide; Deacetyllanatoside C; Desacetyllanatoside C; Deslanoside; Deslanosido; Deslanosidum; Glucodigoxin

$$$$
