
 OpenBabel10282417072D

 62 63  0  0  0  0  0  0  0  0999 V2000
   -3.2294   -0.2171    0.0000 C   0  0  0  0  0  0  0  0  0  0  0  0
   -3.2294    0.5825    0.0000 C   0  0  0  0  0  0  0  0  0  0  0  0
   -3.9358   -0.6434    0.0000 C   0  0  0  0  0  0  0  0  0  0  0  0
   -2.5027   -0.6272    0.0000 N   0  0  0  0  0  0  0  0  0  0  0  0
   -3.9358    0.9966    0.0000 C   0  0  0  0  0  0  0  0  0  0  0  0
   -2.5027    0.9966    0.0000 I   0  0  0  0  0  0  0  0  0  0  0  0
   -4.6786   -0.2293    0.0000 C   0  0  0  0  0  0  0  0  0  0  0  0
   -3.9195   -1.4756    0.0000 I   0  0  0  0  0  0  0  0  0  0  0  0
   -1.7800   -0.2009    0.0000 C   0  0  0  0  0  0  0  0  0  0  0  0
   -4.6786    0.5500    0.0000 C   0  0  0  0  0  0  0  0  0  0  0  0
   -3.9437    1.8288    0.0000 C   0  0  0  0  0  0  0  0  0  0  0  0
   -5.3727   -0.6515    0.0000 C   0  0  0  0  0  0  0  0  0  0  0  0
   -1.0493   -0.6151    0.0000 C   0  0  0  0  0  0  0  0  0  0  0  0
   -1.7963    0.5825    0.0000 O   0  0  0  0  0  0  0  0  0  0  0  0
   -5.3850    0.9600    0.0000 I   0  0  0  0  0  0  0  0  0  0  0  0
   -3.2374    2.2551    0.0000 N   0  0  0  0  0  0  0  0  0  0  0  0
   -4.6786    2.2185    0.0000 O   0  0  0  0  0  0  0  0  0  0  0  0
   -6.1075   -0.2171    0.0000 O   0  0  0  0  0  0  0  0  0  0  0  0
   -5.3565   -1.4918    0.0000 O   0  0  0  0  0  0  0  0  0  0  0  0
   -0.3430   -0.1969    0.0000 C   0  0  0  0  0  0  0  0  0  0  0  0
   -3.2374    3.0792    0.0000 C   0  0  0  0  0  0  0  0  0  0  0  0
    0.3390   -0.6151    0.0000 C   0  0  0  0  0  0  0  0  0  0  0  0
    1.0454   -0.1969    0.0000 C   0  0  0  0  0  0  0  0  0  0  0  0
    1.7516   -0.6069    0.0000 C   0  0  0  0  0  0  0  0  0  0  0  0
    2.4824   -0.1806    0.0000 N   0  0  0  0  0  0  0  0  0  0  0  0
    1.7516   -1.4391    0.0000 O   0  0  0  0  0  0  0  0  0  0  0  0
    3.2090   -0.5946    0.0000 C   0  0  0  0  0  0  0  0  0  0  0  0
    3.9276   -0.1563    0.0000 C   0  0  0  0  0  0  0  0  0  0  0  0
    3.2213   -1.4066    0.0000 C   0  0  0  0  0  0  0  0  0  0  0  0
    4.6744   -0.5946    0.0000 C   0  0  0  0  0  0  0  0  0  0  0  0
    3.9276    0.6272    0.0000 I   0  0  0  0  0  0  0  0  0  0  0  0
    3.9276   -1.8288    0.0000 C   0  0  0  0  0  0  0  0  0  0  0  0
    2.5027   -1.8490    0.0000 I   0  0  0  0  0  0  0  0  0  0  0  0
    4.6582   -1.4310    0.0000 C   0  0  0  0  0  0  0  0  0  0  0  0
    5.3646   -0.1563    0.0000 C   0  0  0  0  0  0  0  0  0  0  0  0
    3.9438   -2.6691    0.0000 C   0  0  0  0  0  0  0  0  0  0  0  0
    5.3808   -1.8206    0.0000 I   0  0  0  0  0  0  0  0  0  0  0  0
    5.3566    0.6069    0.0000 N   0  0  0  0  0  0  0  0  0  0  0  0
    6.1075   -0.5825    0.0000 O   0  0  0  0  0  0  0  0  0  0  0  0
    3.2375   -3.0792    0.0000 O   0  0  0  0  0  0  0  0  0  0  0  0
    4.6744   -3.0792    0.0000 O   0  0  0  0  0  0  0  0  0  0  0  0
    6.0872    1.0412    0.0000 C   0  0  0  0  0  0  0  0  0  0  0  0
   -2.4933   -1.6117    0.0000 H   0  0  0  0  0  0  0  0  0  0  0  0
   -1.0392   -1.6851    0.0000 H   0  0  0  0  0  0  0  0  0  0  0  0
   -0.1172   -1.1406    0.0000 H   0  0  0  0  0  0  0  0  0  0  0  0
   -2.3801    1.7712    0.0000 H   0  0  0  0  0  0  0  0  0  0  0  0
   -6.0978    0.7199    0.0000 H   0  0  0  0  0  0  0  0  0  0  0  0
   -0.3347    0.8731    0.0000 H   0  0  0  0  0  0  0  0  0  0  0  0
    0.5927    0.3222    0.0000 H   0  0  0  0  0  0  0  0  0  0  0  0
   -2.3108    3.6142    0.0000 H   0  0  0  0  0  0  0  0  0  0  0  0
   -4.1640    3.6142    0.0000 H   0  0  0  0  0  0  0  0  0  0  0  0
   -3.2374    4.1492    0.0000 H   0  0  0  0  0  0  0  0  0  0  0  0
    0.3307   -1.6851    0.0000 H   0  0  0  0  0  0  0  0  0  0  0  0
    1.2665   -1.1486    0.0000 H   0  0  0  0  0  0  0  0  0  0  0  0
    1.0408    0.8731    0.0000 H   0  0  0  0  0  0  0  0  0  0  0  0
    1.9716    0.3390    0.0000 H   0  0  0  0  0  0  0  0  0  0  0  0
    2.4774    0.8039    0.0000 H   0  0  0  0  0  0  0  0  0  0  0  0
    4.4983    1.0892    0.0000 H   0  0  0  0  0  0  0  0  0  0  0  0
    2.4249   -2.6127    0.0000 H   0  0  0  0  0  0  0  0  0  0  0  0
    7.0206    0.5180    0.0000 H   0  0  0  0  0  0  0  0  0  0  0  0
    6.0736    2.1111    0.0000 H   0  0  0  0  0  0  0  0  0  0  0  0
    7.0070    1.5879    0.0000 H   0  0  0  0  0  0  0  0  0  0  0  0
  1  2  2  0  0  0  0
  1  3  1  0  0  0  0
  1  4  1  0  0  0  0
  2  5  1  0  0  0  0
  2  6  1  0  0  0  0
  3  7  2  0  0  0  0
  3  8  1  0  0  0  0
  4  9  1  0  0  0  0
  4 43  1  0  0  0  0
  5 10  2  0  0  0  0
  5 11  1  0  0  0  0
  7 12  1  0  0  0  0
  7 10  1  0  0  0  0
  9 13  1  0  0  0  0
  9 14  2  0  0  0  0
 10 15  1  0  0  0  0
 11 16  1  0  0  0  0
 11 17  2  0  0  0  0
 12 18  1  0  0  0  0
 12 19  2  0  0  0  0
 13 20  1  0  0  0  0
 13 44  1  0  0  0  0
 13 45  1  0  0  0  0
 16 21  1  0  0  0  0
 16 46  1  0  0  0  0
 18 47  1  0  0  0  0
 20 22  1  0  0  0  0
 20 48  1  0  0  0  0
 20 49  1  0  0  0  0
 21 50  1  0  0  0  0
 21 51  1  0  0  0  0
 21 52  1  0  0  0  0
 22 23  1  0  0  0  0
 22 53  1  0  0  0  0
 22 54  1  0  0  0  0
 23 24  1  0  0  0  0
 23 55  1  0  0  0  0
 23 56  1  0  0  0  0
 24 25  1  0  0  0  0
 24 26  2  0  0  0  0
 25 27  1  0  0  0  0
 25 57  1  0  0  0  0
 27 28  1  0  0  0  0
 27 29  2  0  0  0  0
 28 30  2  0  0  0  0
 28 31  1  0  0  0  0
 29 32  1  0  0  0  0
 29 33  1  0  0  0  0
 30 34  1  0  0  0  0
 30 35  1  0  0  0  0
 32 36  1  0  0  0  0
 32 34  2  0  0  0  0
 34 37  1  0  0  0  0
 35 38  1  0  0  0  0
 35 39  2  0  0  0  0
 36 40  1  0  0  0  0
 36 41  2  0  0  0  0
 38 42  1  0  0  0  0
 38 58  1  0  0  0  0
 40 59  1  0  0  0  0
 42 60  1  0  0  0  0
 42 61  1  0  0  0  0
 42 62  1  0  0  0  0
M  END
>  <DRUGBANK_ID>
DB13755

>  <COMMON_NAME>
Iocarmic acid

>  <CAS_NUMBER>
10397-75-8

>  <UNII>
82PB24K6TZ

>  <SYNONYMS>
Acido iocarmico; Acidum iocarmicum; Iocarmic acid

$$$$
