
 OpenBabel10282417072D

 38 40  0  0  0  0  0  0  0  0999 V2000
   -0.8250    2.9676    0.0000 O   0  0  0  0  0  0  0  0  0  0  0  0
   -0.8250    2.1426    0.0000 C   0  0  0  0  0  0  0  0  0  0  0  0
   -1.5372    1.7271    0.0000 N   0  0  0  0  0  0  0  0  0  0  0  0
   -1.5372    0.9021    0.0000 C   0  0  0  0  0  0  0  0  0  0  0  0
   -0.8250    0.4926    0.0000 C   0  0  0  0  0  0  0  0  0  0  0  0
   -0.1068    0.9021    0.0000 C   0  0  0  0  0  0  0  0  0  0  0  0
   -0.1068    1.7271    0.0000 C   0  0  0  0  0  0  0  0  0  0  0  0
    0.6053    2.1426    0.0000 C   0  0  0  0  0  0  0  0  0  0  0  0
    1.3235    1.7271    0.0000 C   0  0  0  0  0  0  0  0  0  0  0  0
    1.3235    0.9021    0.0000 C   0  0  0  0  0  0  0  0  0  0  0  0
    0.6053    0.4926    0.0000 C   0  0  0  0  0  0  0  0  0  0  0  0
    0.6053   -0.3324    0.0000 S   0  0  0  0  0  0  0  0  0  0  0  0
   -0.2196   -0.3324    0.0000 O   0  0  0  0  0  0  0  0  0  0  0  0
    1.4303   -0.3324    0.0000 O   0  0  0  0  0  0  0  0  0  0  0  0
    0.6053   -1.1574    0.0000 N   0  0  0  0  0  0  0  0  0  0  0  0
   -0.1365   -1.5194    0.0000 C   0  0  0  0  0  0  0  0  0  0  0  0
   -0.3204   -2.3207    0.0000 C   0  0  0  0  0  0  0  0  0  0  0  0
    0.1958   -2.9676    0.0000 N   0  0  0  0  0  0  0  0  0  0  0  0
    1.0208   -2.9676    0.0000 C   0  0  0  0  0  0  0  0  0  0  0  0
    1.5372   -2.3207    0.0000 C   0  0  0  0  0  0  0  0  0  0  0  0
    1.3532   -1.5194    0.0000 C   0  0  0  0  0  0  0  0  0  0  0  0
   -2.3909    2.2174    0.0000 H   0  0  0  0  0  0  0  0  0  0  0  0
   -2.4305    0.3853    0.0000 H   0  0  0  0  0  0  0  0  0  0  0  0
   -0.8269   -0.5394    0.0000 H   0  0  0  0  0  0  0  0  0  0  0  0
    0.6034    3.1746    0.0000 H   0  0  0  0  0  0  0  0  0  0  0  0
    2.2175    2.2427    0.0000 H   0  0  0  0  0  0  0  0  0  0  0  0
    2.2158    0.3837    0.0000 H   0  0  0  0  0  0  0  0  0  0  0  0
   -0.9744   -0.8539    0.0000 H   0  0  0  0  0  0  0  0  0  0  0  0
   -1.1463   -1.8732    0.0000 H   0  0  0  0  0  0  0  0  0  0  0  0
   -1.3637   -2.5583    0.0000 H   0  0  0  0  0  0  0  0  0  0  0  0
   -0.6739   -3.3306    0.0000 H   0  0  0  0  0  0  0  0  0  0  0  0
   -0.2466   -3.8867    0.0000 H   0  0  0  0  0  0  0  0  0  0  0  0
    1.4848   -3.9317    0.0000 H   0  0  0  0  0  0  0  0  0  0  0  0
    2.0840   -3.0878    0.0000 H   0  0  0  0  0  0  0  0  0  0  0  0
    2.5805   -2.5584    0.0000 H   0  0  0  0  0  0  0  0  0  0  0  0
    2.2931   -1.5634    0.0000 H   0  0  0  0  0  0  0  0  0  0  0  0
    2.1900   -0.8525    0.0000 H   0  0  0  0  0  0  0  0  0  0  0  0
    2.3633   -1.8723    0.0000 H   0  0  0  0  0  0  0  0  0  0  0  0
  1  2  2  0  0  0  0
  2  3  1  0  0  0  0
  2  7  1  0  0  0  0
  3  4  1  0  0  0  0
  3 22  1  0  0  0  0
  4  5  2  0  0  0  0
  4 23  1  0  0  0  0
  5  6  1  0  0  0  0
  5 24  1  0  0  0  0
  6  7  1  0  0  0  0
  6 11  2  0  0  0  0
  7  8  2  0  0  0  0
  8  9  1  0  0  0  0
  8 25  1  0  0  0  0
  9 10  2  0  0  0  0
  9 26  1  0  0  0  0
 10 11  1  0  0  0  0
 10 27  1  0  0  0  0
 11 12  1  0  0  0  0
 12 13  2  0  0  0  0
 12 14  2  0  0  0  0
 12 15  1  0  0  0  0
 15 16  1  0  0  0  0
 15 21  1  0  0  0  0
 16 17  1  0  0  0  0
 16 28  1  0  0  0  0
 16 29  1  0  0  0  0
 17 18  1  0  0  0  0
 17 30  1  0  0  0  0
 17 31  1  0  0  0  0
 18 19  1  0  0  0  0
 18 32  1  0  0  0  0
 19 20  1  0  0  0  0
 19 33  1  0  0  0  0
 19 34  1  0  0  0  0
 20 21  1  0  0  0  0
 20 35  1  0  0  0  0
 20 36  1  0  0  0  0
 21 37  1  0  0  0  0
 21 38  1  0  0  0  0
M  END
>  <DRUGBANK_ID>
DB04707

>  <COMMON_NAME>
Hydroxyfasudil

>  <CAS_NUMBER>
105628-72-6

>  <UNII>
EYH4AU7P63

>  <SYNONYMS>
Hydroxy-fasudil

$$$$
