
 OpenBabel10282417072D

 48 49  0  0  0  0  0  0  0  0999 V2000
   -0.7144   -1.4437    0.0000 C   0  0  0  0  0  0  0  0  0  0  0  0
   -1.4289   -1.0312    0.0000 C   0  0  0  0  0  0  0  0  0  0  0  0
    0.0000   -0.2062    0.0000 C   0  0  0  0  0  0  0  0  0  0  0  0
   -0.7144    0.2062    0.0000 C   0  0  0  0  0  0  0  0  0  0  0  0
    0.0000   -1.0312    0.0000 C   0  0  0  0  0  0  0  0  0  0  0  0
   -1.4289   -0.2062    0.0000 C   0  0  0  0  0  0  0  0  0  0  0  0
    0.7144    0.2062    0.0000 O   0  0  0  0  0  0  0  0  0  0  0  0
   -2.1433   -1.4437    0.0000 O   0  0  0  0  0  0  0  0  0  0  0  0
   -2.8578   -1.0312    0.0000 C   0  0  0  0  0  0  0  0  0  0  0  0
   -3.5723   -1.4437    0.0000 C   0  0  0  0  0  0  0  0  0  0  0  0
   -4.2868   -1.0312    0.0000 C   0  0  0  0  0  0  0  0  0  0  0  0
   -5.0012   -1.4437    0.0000 C   0  0  0  0  0  0  0  0  0  0  0  0
    2.1434    0.2062    0.0000 C   0  0  0  0  0  0  0  0  0  0  0  0
    4.2868   -0.2062    0.0000 C   0  0  0  0  0  0  0  0  0  0  0  0
    5.0013    0.2062    0.0000 C   0  0  0  0  0  0  0  0  0  0  0  0
    4.2868    1.4437    0.0000 C   0  0  0  0  0  0  0  0  0  0  0  0
    3.5723    1.0312    0.0000 C   0  0  0  0  0  0  0  0  0  0  0  0
    5.0013    1.0312    0.0000 O   0  0  0  0  0  0  0  0  0  0  0  0
    3.5723    0.2062    0.0000 N   0  0  0  0  0  0  0  0  0  0  0  0
    1.4289   -0.2062    0.0000 C   0  0  0  0  0  0  0  0  0  0  0  0
    2.8579   -0.2062    0.0000 C   0  0  0  0  0  0  0  0  0  0  0  0
   -0.7144   -2.4757    0.0000 H   0  0  0  0  0  0  0  0  0  0  0  0
   -0.7144    1.2382    0.0000 H   0  0  0  0  0  0  0  0  0  0  0  0
    0.8937   -1.5472    0.0000 H   0  0  0  0  0  0  0  0  0  0  0  0
   -2.3226    0.3099    0.0000 H   0  0  0  0  0  0  0  0  0  0  0  0
   -2.8578    0.0388    0.0000 H   0  0  0  0  0  0  0  0  0  0  0  0
   -3.7844   -0.4962    0.0000 H   0  0  0  0  0  0  0  0  0  0  0  0
   -3.5723   -2.5137    0.0000 H   0  0  0  0  0  0  0  0  0  0  0  0
   -4.4989   -1.9787    0.0000 H   0  0  0  0  0  0  0  0  0  0  0  0
   -4.2868    0.0388    0.0000 H   0  0  0  0  0  0  0  0  0  0  0  0
   -5.2135   -0.4962    0.0000 H   0  0  0  0  0  0  0  0  0  0  0  0
   -5.9279   -0.9087    0.0000 H   0  0  0  0  0  0  0  0  0  0  0  0
   -5.0012   -2.5137    0.0000 H   0  0  0  0  0  0  0  0  0  0  0  0
   -5.9278   -1.9787    0.0000 H   0  0  0  0  0  0  0  0  0  0  0  0
    2.1434    1.2762    0.0000 H   0  0  0  0  0  0  0  0  0  0  0  0
    1.2168    0.7413    0.0000 H   0  0  0  0  0  0  0  0  0  0  0  0
    4.2868   -1.2762    0.0000 H   0  0  0  0  0  0  0  0  0  0  0  0
    5.2134   -0.7413    0.0000 H   0  0  0  0  0  0  0  0  0  0  0  0
    5.9279   -0.3289    0.0000 H   0  0  0  0  0  0  0  0  0  0  0  0
    5.9280    0.7412    0.0000 H   0  0  0  0  0  0  0  0  0  0  0  0
    4.2868    2.5137    0.0000 H   0  0  0  0  0  0  0  0  0  0  0  0
    3.3602    1.9787    0.0000 H   0  0  0  0  0  0  0  0  0  0  0  0
    2.6457    1.5662    0.0000 H   0  0  0  0  0  0  0  0  0  0  0  0
    2.6457    0.4962    0.0000 H   0  0  0  0  0  0  0  0  0  0  0  0
    1.4289   -1.2762    0.0000 H   0  0  0  0  0  0  0  0  0  0  0  0
    2.3555   -0.7413    0.0000 H   0  0  0  0  0  0  0  0  0  0  0  0
    2.8579   -1.2762    0.0000 H   0  0  0  0  0  0  0  0  0  0  0  0
    3.7845   -0.7412    0.0000 H   0  0  0  0  0  0  0  0  0  0  0  0
  1  2  1  0  0  0  0
  1  5  2  0  0  0  0
  1 22  1  0  0  0  0
  3  7  1  0  0  0  0
  3  4  2  0  0  0  0
  4  6  1  0  0  0  0
  4 23  1  0  0  0  0
  5  3  1  0  0  0  0
  5 24  1  0  0  0  0
  6  2  2  0  0  0  0
  6 25  1  0  0  0  0
  8  2  1  0  0  0  0
  9  8  1  0  0  0  0
  9 26  1  0  0  0  0
  9 27  1  0  0  0  0
 10  9  1  0  0  0  0
 10 28  1  0  0  0  0
 10 29  1  0  0  0  0
 11 10  1  0  0  0  0
 11 30  1  0  0  0  0
 11 31  1  0  0  0  0
 12 11  1  0  0  0  0
 12 32  1  0  0  0  0
 12 33  1  0  0  0  0
 12 34  1  0  0  0  0
 13 21  1  0  0  0  0
 13 35  1  0  0  0  0
 13 36  1  0  0  0  0
 14 19  1  0  0  0  0
 14 15  1  0  0  0  0
 14 37  1  0  0  0  0
 14 38  1  0  0  0  0
 15 18  1  0  0  0  0
 15 39  1  0  0  0  0
 15 40  1  0  0  0  0
 16 17  1  0  0  0  0
 16 41  1  0  0  0  0
 16 42  1  0  0  0  0
 17 19  1  0  0  0  0
 17 43  1  0  0  0  0
 17 44  1  0  0  0  0
 18 16  1  0  0  0  0
 20  7  1  0  0  0  0
 20 13  1  0  0  0  0
 20 45  1  0  0  0  0
 20 46  1  0  0  0  0
 21 19  1  0  0  0  0
 21 47  1  0  0  0  0
 21 48  1  0  0  0  0
M  END
>  <DRUGBANK_ID>
DB09345

>  <COMMON_NAME>
Pramocaine

>  <CAS_NUMBER>
140-65-8

>  <UNII>
068X84E056

>  <SYNONYMS>
Pramoca√≠na; Pramocaine; Pramoxine

$$$$
