
 OpenBabel10282417072D

 46 48  0  0  1  0  0  0  0  0999 V2000
    1.0921    1.6407    0.0000 H   0  0  0  0  0  0  0  0  0  0  0  0
    1.2757    0.8364    0.0000 C   0  0  1  0  0  0  0  0  0  0  0  0
    0.6307    0.3220    0.0000 C   0  0  0  0  0  0  0  0  0  0  0  0
    0.6307   -0.5030    0.0000 C   0  0  0  0  0  0  0  0  0  0  0  0
    1.2757   -1.0173    0.0000 C   0  0  2  0  0  0  0  0  0  0  0  0
    1.0921   -1.8217    0.0000 H   0  0  0  0  0  0  0  0  0  0  0  0
    2.0800   -0.8338    0.0000 C   0  0  2  0  0  0  0  0  0  0  0  0
    2.4380   -0.0905    0.0000 C   0  0  2  0  0  0  0  0  0  0  0  0
    2.0800    0.6528    0.0000 C   0  0  0  0  0  0  0  0  0  0  0  0
    3.2630   -0.0905    0.0000 C   0  0  0  0  0  0  0  0  0  0  0  0
    3.6755    0.6240    0.0000 C   0  0  0  0  0  0  0  0  0  0  0  0
    4.5005    0.6240    0.0000 C   0  0  0  0  0  0  0  0  0  0  0  0
    4.9130   -0.0905    0.0000 C   0  0  0  0  0  0  0  0  0  0  0  0
    5.7380   -0.0905    0.0000 I   0  0  0  0  0  0  0  0  0  0  0  0
    4.5005   -0.8049    0.0000 C   0  0  0  0  0  0  0  0  0  0  0  0
    3.6755   -0.8049    0.0000 C   0  0  0  0  0  0  0  0  0  0  0  0
    2.5944   -1.4788    0.0000 C   0  0  0  0  0  0  0  0  0  0  0  0
    3.4102   -1.3558    0.0000 O   0  0  0  0  0  0  0  0  0  0  0  0
    2.2930   -2.2467    0.0000 O   0  0  0  0  0  0  0  0  0  0  0  0
    1.4772   -2.3697    0.0000 C   0  0  0  0  0  0  0  0  0  0  0  0
    1.0440   -0.0905    0.0000 N   0  0  0  0  0  0  0  0  0  0  0  0
    0.2190   -0.0905    0.0000 C   0  0  0  0  0  0  0  0  0  0  0  0
   -0.1935    0.6240    0.0000 C   0  0  0  0  0  0  0  0  0  0  0  0
    0.2190    1.3385    0.0000 C   0  0  0  0  0  0  0  0  0  0  0  0
   -0.1935    2.0529    0.0000 F   0  0  0  0  0  0  0  0  0  0  0  0
   -0.3333    0.7862    0.0000 H   0  0  0  0  0  0  0  0  0  0  0  0
   -0.2753   -0.2473    0.0000 H   0  0  0  0  0  0  0  0  0  0  0  0
   -0.3333   -0.9673    0.0000 H   0  0  0  0  0  0  0  0  0  0  0  0
    0.5110   -1.5663    0.0000 H   0  0  0  0  0  0  0  0  0  0  0  0
    1.7266   -1.8437    0.0000 H   0  0  0  0  0  0  0  0  0  0  0  0
    3.0073   -0.9965    0.0000 H   0  0  0  0  0  0  0  0  0  0  0  0
    2.7471    1.4894    0.0000 H   0  0  0  0  0  0  0  0  0  0  0  0
    1.7266    1.6628    0.0000 H   0  0  0  0  0  0  0  0  0  0  0  0
    3.1595    1.5177    0.0000 H   0  0  0  0  0  0  0  0  0  0  0  0
    5.0165    1.5177    0.0000 H   0  0  0  0  0  0  0  0  0  0  0  0
    5.0165   -1.6986    0.0000 H   0  0  0  0  0  0  0  0  0  0  0  0
    3.1595   -1.6986    0.0000 H   0  0  0  0  0  0  0  0  0  0  0  0
    0.8100   -1.5332    0.0000 H   0  0  0  0  0  0  0  0  0  0  0  0
    1.0863   -3.3658    0.0000 H   0  0  0  0  0  0  0  0  0  0  0  0
    0.4192   -2.5292    0.0000 H   0  0  0  0  0  0  0  0  0  0  0  0
   -0.3160   -1.0171    0.0000 H   0  0  0  0  0  0  0  0  0  0  0  0
   -0.8510   -0.0905    0.0000 H   0  0  0  0  0  0  0  0  0  0  0  0
   -1.2635    0.6240    0.0000 H   0  0  0  0  0  0  0  0  0  0  0  0
   -0.7285    1.5506    0.0000 H   0  0  0  0  0  0  0  0  0  0  0  0
    1.2890    1.3385    0.0000 H   0  0  0  0  0  0  0  0  0  0  0  0
    0.7540    2.2652    0.0000 H   0  0  0  0  0  0  0  0  0  0  0  0
  2  1  1  6  0  0  0
  2  3  1  0  0  0  0
  2  9  1  0  0  0  0
  2 21  1  0  0  0  0
  3  4  1  0  0  0  0
  3 26  1  0  0  0  0
  3 27  1  0  0  0  0
  4 28  1  0  0  0  0
  4 29  1  0  0  0  0
  5  4  1  0  0  0  0
  5  6  1  6  0  0  0
  5 21  1  0  0  0  0
  7  5  1  0  0  0  0
  7  8  1  0  0  0  0
  7 17  1  0  0  0  0
  7 30  1  1  0  0  0
  8  9  1  0  0  0  0
  8 10  1  0  0  0  0
  8 31  1  1  0  0  0
  9 32  1  0  0  0  0
  9 33  1  0  0  0  0
 10 11  2  0  0  0  0
 10 16  1  0  0  0  0
 11 12  1  0  0  0  0
 11 34  1  0  0  0  0
 12 13  2  0  0  0  0
 12 35  1  0  0  0  0
 13 14  1  0  0  0  0
 13 15  1  0  0  0  0
 15 16  2  0  0  0  0
 15 36  1  0  0  0  0
 16 37  1  0  0  0  0
 17 18  2  0  0  0  0
 17 19  1  0  0  0  0
 19 20  1  0  0  0  0
 20 38  1  0  0  0  0
 20 39  1  0  0  0  0
 20 40  1  0  0  0  0
 21 22  1  0  0  0  0
 22 23  1  0  0  0  0
 22 41  1  0  0  0  0
 22 42  1  0  0  0  0
 23 24  1  0  0  0  0
 23 43  1  0  0  0  0
 23 44  1  0  0  0  0
 24 25  1  0  0  0  0
 24 45  1  0  0  0  0
 24 46  1  0  0  0  0
M  ISO  1  25  18
M  END
>  <DRUGBANK_ID>
DB16913

>  <COMMON_NAME>
Ioflupane F-18

>  <CAS_NUMBER>
186381-69-1

>  <UNII>
NT4P0L3OCX

>  <SYNONYMS>
(18f)fp-cit; 18f-beta-cit-fp; 18f-cit-fp; 18f-fp-.beta.-cit; 18f-fpcit; 18f-ioflupane; 18fluorine-n-3-fluoropropyl-2beta-carbomethoxy-3beta-(4-iodophenyl) nortropane; 8-azabicyclo(3.2.1)octane-2-carboxylic acid, 8-(3-(fluoro-18f)propyl)-3-(4-iodophenyl)-, methyl ester, (1r,2s,3s,5s)-; F-18-fpcit; Methyl (1s,3s,4s,5r)-8-(3-fluoranylpropyl)-3-(4-iodophenyl)-8-azabicyclo(3.2.1)octane-4-carboxylate

$$$$
