
 OpenBabel10282417072D

 47 50  0  0  1  0  0  0  0  0999 V2000
    1.6288    0.2334    0.0000 C   0  0  0  0  0  0  0  0  0  0  0  0
    1.9486    0.9939    0.0000 C   0  0  0  0  0  0  0  0  0  0  0  0
    2.7519    1.1821    0.0000 C   0  0  0  0  0  0  0  0  0  0  0  0
    2.8210    2.0042    0.0000 N   0  0  0  0  0  0  0  0  0  0  0  0
    2.0605    2.3241    0.0000 C   0  0  0  0  0  0  0  0  0  0  0  0
    1.5214    1.6996    0.0000 N   0  0  0  0  0  0  0  0  0  0  0  0
    0.6970    1.7318    0.0000 C   0  0  0  0  0  0  0  0  0  0  0  0
    0.3659    0.9762    0.0000 C   0  0  0  0  0  0  0  0  0  0  0  0
   -0.4541    0.8852    0.0000 C   0  0  0  0  0  0  0  0  0  0  0  0
   -0.9429    1.5498    0.0000 C   0  0  0  0  0  0  0  0  0  0  0  0
   -0.6118    2.3054    0.0000 C   0  0  0  0  0  0  0  0  0  0  0  0
    0.2082    2.3964    0.0000 C   0  0  0  0  0  0  0  0  0  0  0  0
    0.4230    3.1929    0.0000 C   0  0  0  0  0  0  0  0  0  0  0  0
    1.1797    3.5216    0.0000 N   0  0  0  0  0  0  0  0  0  0  0  0
    1.9085    3.1349    0.0000 C   0  0  1  0  0  0  0  0  0  0  0  0
    2.5731    3.6237    0.0000 C   0  0  0  0  0  0  0  0  0  0  0  0
    3.3287    3.2926    0.0000 C   0  0  0  0  0  0  0  0  0  0  0  0
    3.9933    3.7814    0.0000 C   0  0  0  0  0  0  0  0  0  0  0  0
    3.9023    4.6014    0.0000 O   0  0  0  0  0  0  0  0  0  0  0  0
    4.7489    3.4502    0.0000 O   0  0  0  0  0  0  0  0  0  0  0  0
    5.4135    3.9391    0.0000 C   0  0  0  0  0  0  0  0  0  0  0  0
   -0.2014    3.7321    0.0000 C   0  0  0  0  0  0  0  0  0  0  0  0
   -0.9806    3.4609    0.0000 C   0  0  0  0  0  0  0  0  0  0  0  0
   -1.6050    4.0001    0.0000 C   0  0  0  0  0  0  0  0  0  0  0  0
   -1.4503    4.8104    0.0000 C   0  0  0  0  0  0  0  0  0  0  0  0
   -0.6712    5.0816    0.0000 C   0  0  0  0  0  0  0  0  0  0  0  0
   -0.0467    4.5425    0.0000 N   0  0  0  0  0  0  0  0  0  0  0  0
   -1.7629    1.4587    0.0000 Br  0  0  0  0  0  0  0  0  0  0  0  0
    0.5672    0.0994    0.0000 H   0  0  0  0  0  0  0  0  0  0  0  0
    2.2756   -0.6190    0.0000 H   0  0  0  0  0  0  0  0  0  0  0  0
    1.2140   -0.7529    0.0000 H   0  0  0  0  0  0  0  0  0  0  0  0
    3.5330    0.5076    0.0000 H   0  0  0  0  0  0  0  0  0  0  0  0
    0.9774    0.1449    0.0000 H   0  0  0  0  0  0  0  0  0  0  0  0
   -0.8684   -0.0600    0.0000 H   0  0  0  0  0  0  0  0  0  0  0  0
   -1.2233    3.1367    0.0000 H   0  0  0  0  0  0  0  0  0  0  0  0
    1.8303    4.2020    0.0000 H   0  0  0  0  0  0  0  0  0  0  0  0
    2.4550    4.6872    0.0000 H   0  0  0  0  0  0  0  0  0  0  0  0
    3.4350    4.2577    0.0000 H   0  0  0  0  0  0  0  0  0  0  0  0
    3.4468    2.2291    0.0000 H   0  0  0  0  0  0  0  0  0  0  0  0
    4.3087    2.8631    0.0000 H   0  0  0  0  0  0  0  0  0  0  0  0
    6.3936    3.5097    0.0000 H   0  0  0  0  0  0  0  0  0  0  0  0
    5.2954    5.0026    0.0000 H   0  0  0  0  0  0  0  0  0  0  0  0
    6.2754    4.5731    0.0000 H   0  0  0  0  0  0  0  0  0  0  0  0
   -1.1742    2.4472    0.0000 H   0  0  0  0  0  0  0  0  0  0  0  0
   -2.5797    3.6609    0.0000 H   0  0  0  0  0  0  0  0  0  0  0  0
   -2.2314    5.4848    0.0000 H   0  0  0  0  0  0  0  0  0  0  0  0
   -0.4777    6.0953    0.0000 H   0  0  0  0  0  0  0  0  0  0  0  0
  1  2  1  0  0  0  0
  1 29  1  0  0  0  0
  1 30  1  0  0  0  0
  1 31  1  0  0  0  0
  2  3  2  0  0  0  0
  2  6  1  0  0  0  0
  3  4  1  0  0  0  0
  3 32  1  0  0  0  0
  4  5  2  0  0  0  0
  5  6  1  0  0  0  0
  5 15  1  0  0  0  0
  6  7  1  0  0  0  0
  7  8  2  0  0  0  0
  7 12  1  0  0  0  0
  8  9  1  0  0  0  0
  8 33  1  0  0  0  0
  9 10  2  0  0  0  0
  9 34  1  0  0  0  0
 10 11  1  0  0  0  0
 10 28  1  0  0  0  0
 11 12  2  0  0  0  0
 11 35  1  0  0  0  0
 12 13  1  0  0  0  0
 13 14  2  0  0  0  0
 13 22  1  0  0  0  0
 14 15  1  0  0  0  0
 15 16  1  0  0  0  0
 15 36  1  6  0  0  0
 16 17  1  0  0  0  0
 16 37  1  0  0  0  0
 16 38  1  0  0  0  0
 17 18  1  0  0  0  0
 17 39  1  0  0  0  0
 17 40  1  0  0  0  0
 18 19  2  0  0  0  0
 18 20  1  0  0  0  0
 20 21  1  0  0  0  0
 21 41  1  0  0  0  0
 21 42  1  0  0  0  0
 21 43  1  0  0  0  0
 22 23  2  0  0  0  0
 22 27  1  0  0  0  0
 23 24  1  0  0  0  0
 23 44  1  0  0  0  0
 24 25  2  0  0  0  0
 24 45  1  0  0  0  0
 25 26  1  0  0  0  0
 25 46  1  0  0  0  0
 26 27  2  0  0  0  0
 26 47  1  0  0  0  0
M  END
>  <DRUGBANK_ID>
DB12404

>  <COMMON_NAME>
Remimazolam

>  <CAS_NUMBER>
308242-62-8

>  <UNII>
7V4A8U16MB

>  <SYNONYMS>
Remimazolam

$$$$
