PXB
 OpenBabel10282417072D

 44 46  0  0  0  0  0  0  0  0999 V2000
   -3.7588    1.5067    0.0000 C   0  0  0  0  0  0  0  0  0  0  0  0
   -3.0443    1.9192    0.0000 C   0  0  0  0  0  0  0  0  0  0  0  0
   -2.3298    1.5067    0.0000 C   0  0  0  0  0  0  0  0  0  0  0  0
   -2.3298    0.6817    0.0000 O   0  0  0  0  0  0  0  0  0  0  0  0
   -1.6154    1.9192    0.0000 N   0  0  0  0  0  0  0  0  0  0  0  0
   -0.9009    1.5067    0.0000 S   0  0  0  0  0  0  0  0  0  0  0  0
   -1.3134    0.7923    0.0000 O   0  0  0  0  0  0  0  0  0  0  0  0
   -0.4884    2.2212    0.0000 O   0  0  0  0  0  0  0  0  0  0  0  0
   -0.1864    1.0942    0.0000 C   0  0  0  0  0  0  0  0  0  0  0  0
    0.5280    1.5067    0.0000 C   0  0  0  0  0  0  0  0  0  0  0  0
    1.2425    1.0942    0.0000 C   0  0  0  0  0  0  0  0  0  0  0  0
    1.2425    0.2692    0.0000 C   0  0  0  0  0  0  0  0  0  0  0  0
    0.5280   -0.1433    0.0000 C   0  0  0  0  0  0  0  0  0  0  0  0
   -0.1864    0.2692    0.0000 C   0  0  0  0  0  0  0  0  0  0  0  0
    1.9570   -0.1433    0.0000 C   0  0  0  0  0  0  0  0  0  0  0  0
    2.7107    0.1923    0.0000 C   0  0  0  0  0  0  0  0  0  0  0  0
    2.0432   -0.9637    0.0000 C   0  0  0  0  0  0  0  0  0  0  0  0
    3.2627   -0.4208    0.0000 O   0  0  0  0  0  0  0  0  0  0  0  0
    2.8502   -1.1353    0.0000 N   0  0  0  0  0  0  0  0  0  0  0  0
    1.4301   -1.5158    0.0000 C   0  0  0  0  0  0  0  0  0  0  0  0
    1.6016   -2.3227    0.0000 C   0  0  0  0  0  0  0  0  0  0  0  0
    0.9886   -2.8748    0.0000 C   0  0  0  0  0  0  0  0  0  0  0  0
    0.2039   -2.6198    0.0000 C   0  0  0  0  0  0  0  0  0  0  0  0
    0.0324   -1.8129    0.0000 C   0  0  0  0  0  0  0  0  0  0  0  0
    0.6455   -1.2608    0.0000 C   0  0  0  0  0  0  0  0  0  0  0  0
    2.8822    0.9993    0.0000 C   0  0  0  0  0  0  0  0  0  0  0  0
   -4.6854    2.0417    0.0000 H   0  0  0  0  0  0  0  0  0  0  0  0
   -3.7588    0.4367    0.0000 H   0  0  0  0  0  0  0  0  0  0  0  0
   -4.6855    0.9717    0.0000 H   0  0  0  0  0  0  0  0  0  0  0  0
   -3.0443    2.9892    0.0000 H   0  0  0  0  0  0  0  0  0  0  0  0
   -2.1177    2.4542    0.0000 H   0  0  0  0  0  0  0  0  0  0  0  0
   -1.6154    2.9037    0.0000 H   0  0  0  0  0  0  0  0  0  0  0  0
    0.5280    2.5387    0.0000 H   0  0  0  0  0  0  0  0  0  0  0  0
    2.1362    1.6102    0.0000 H   0  0  0  0  0  0  0  0  0  0  0  0
    0.5280   -1.1753    0.0000 H   0  0  0  0  0  0  0  0  0  0  0  0
   -1.0801   -0.2468    0.0000 H   0  0  0  0  0  0  0  0  0  0  0  0
    2.5831   -2.6415    0.0000 H   0  0  0  0  0  0  0  0  0  0  0  0
    1.2032   -3.8842    0.0000 H   0  0  0  0  0  0  0  0  0  0  0  0
   -0.5630   -3.3103    0.0000 H   0  0  0  0  0  0  0  0  0  0  0  0
   -0.9491   -1.4940    0.0000 H   0  0  0  0  0  0  0  0  0  0  0  0
    0.4309   -0.2513    0.0000 H   0  0  0  0  0  0  0  0  0  0  0  0
    3.8998    1.3300    0.0000 H   0  0  0  0  0  0  0  0  0  0  0  0
    2.0870    1.7152    0.0000 H   0  0  0  0  0  0  0  0  0  0  0  0
    3.1046    2.0459    0.0000 H   0  0  0  0  0  0  0  0  0  0  0  0
  1  2  1  0  0  0  0
  1 27  1  0  0  0  0
  1 28  1  0  0  0  0
  1 29  1  0  0  0  0
  2  3  1  0  0  0  0
  2 30  1  0  0  0  0
  2 31  1  0  0  0  0
  3  4  2  0  0  0  0
  3  5  1  0  0  0  0
  5  6  1  0  0  0  0
  5 32  1  0  0  0  0
  6  7  2  0  0  0  0
  6  8  2  0  0  0  0
  6  9  1  0  0  0  0
  9 10  2  0  0  0  0
  9 14  1  0  0  0  0
 10 11  1  0  0  0  0
 10 33  1  0  0  0  0
 11 12  2  0  0  0  0
 11 34  1  0  0  0  0
 12 13  1  0  0  0  0
 12 15  1  0  0  0  0
 13 14  2  0  0  0  0
 13 35  1  0  0  0  0
 14 36  1  0  0  0  0
 15 16  2  0  0  0  0
 15 17  1  0  0  0  0
 16 18  1  0  0  0  0
 16 26  1  0  0  0  0
 17 19  2  0  0  0  0
 17 20  1  0  0  0  0
 18 19  1  0  0  0  0
 20 21  2  0  0  0  0
 20 25  1  0  0  0  0
 21 22  1  0  0  0  0
 21 37  1  0  0  0  0
 22 23  2  0  0  0  0
 22 38  1  0  0  0  0
 23 24  1  0  0  0  0
 23 39  1  0  0  0  0
 24 25  2  0  0  0  0
 24 40  1  0  0  0  0
 25 41  1  0  0  0  0
 26 42  1  0  0  0  0
 26 43  1  0  0  0  0
 26 44  1  0  0  0  0
M  END
>  <DRUGBANK_ID>
DB08439

>  <COMMON_NAME>
Parecoxib

>  <CAS_NUMBER>
198470-84-7

>  <UNII>
9TUW81Y3CE

>  <SYNONYMS>
N-((p-(5-methyl-3-phenyl-4-isoxazolyl)phenyl)sulfonyl)propionamide; Parecoxib; Par√©coxib; Parecoxibum

$$$$
