477
 OpenBabel10282417072D

 40 42  0  0  0  0  0  0  0  0999 V2000
    6.4919   -0.7592    0.0000 Cl  0  0  0  0  0  0  0  0  0  0  0  0
    3.6957   -2.3625    0.0000 S   0  0  0  0  0  0  0  0  0  0  0  0
    3.6957   -0.7784    0.0000 N   0  0  0  0  0  0  0  0  0  0  0  0
    2.3239    1.5978    0.0000 N   0  0  0  0  0  0  0  0  0  0  0  0
    3.6957    0.0137    0.0000 C   0  0  0  0  0  0  0  0  0  0  0  0
    3.0098    0.4098    0.0000 C   0  0  0  0  0  0  0  0  0  0  0  0
    3.0098    1.2018    0.0000 C   0  0  0  0  0  0  0  0  0  0  0  0
    4.3817   -1.1744    0.0000 C   0  0  0  0  0  0  0  0  0  0  0  0
    3.0098   -1.1744    0.0000 C   0  0  0  0  0  0  0  0  0  0  0  0
    4.3817   -1.9664    0.0000 C   0  0  0  0  0  0  0  0  0  0  0  0
    3.0098   -1.9664    0.0000 C   0  0  0  0  0  0  0  0  0  0  0  0
    5.0898   -0.7509    0.0000 C   0  0  0  0  0  0  0  0  0  0  0  0
    2.3018   -0.7509    0.0000 C   0  0  0  0  0  0  0  0  0  0  0  0
    5.0898   -2.3899    0.0000 C   0  0  0  0  0  0  0  0  0  0  0  0
    2.3018   -2.3899    0.0000 C   0  0  0  0  0  0  0  0  0  0  0  0
    1.6380    1.2018    0.0000 C   0  0  0  0  0  0  0  0  0  0  0  0
    2.3239    2.3899    0.0000 C   0  0  0  0  0  0  0  0  0  0  0  0
    5.8075   -1.1579    0.0000 C   0  0  0  0  0  0  0  0  0  0  0  0
    1.5841   -1.1579    0.0000 C   0  0  0  0  0  0  0  0  0  0  0  0
    5.8075   -1.9830    0.0000 C   0  0  0  0  0  0  0  0  0  0  0  0
    1.5841   -1.9830    0.0000 C   0  0  0  0  0  0  0  0  0  0  0  0
    4.6224    0.5487    0.0000 H   0  0  0  0  0  0  0  0  0  0  0  0
    3.6958    1.0837    0.0000 H   0  0  0  0  0  0  0  0  0  0  0  0
    2.0831   -0.1252    0.0000 H   0  0  0  0  0  0  0  0  0  0  0  0
    2.0832    0.9448    0.0000 H   0  0  0  0  0  0  0  0  0  0  0  0
    3.9364    1.7368    0.0000 H   0  0  0  0  0  0  0  0  0  0  0  0
    3.9364    0.6668    0.0000 H   0  0  0  0  0  0  0  0  0  0  0  0
    5.0779    0.2810    0.0000 H   0  0  0  0  0  0  0  0  0  0  0  0
    2.3138    0.2810    0.0000 H   0  0  0  0  0  0  0  0  0  0  0  0
    5.0778   -3.4218    0.0000 H   0  0  0  0  0  0  0  0  0  0  0  0
    2.3138   -3.4218    0.0000 H   0  0  0  0  0  0  0  0  0  0  0  0
    0.7114    1.7368    0.0000 H   0  0  0  0  0  0  0  0  0  0  0  0
    1.6380    0.1318    0.0000 H   0  0  0  0  0  0  0  0  0  0  0  0
    0.7114    0.6668    0.0000 H   0  0  0  0  0  0  0  0  0  0  0  0
    3.2505    2.9249    0.0000 H   0  0  0  0  0  0  0  0  0  0  0  0
    1.3973    2.9249    0.0000 H   0  0  0  0  0  0  0  0  0  0  0  0
    2.3239    3.4599    0.0000 H   0  0  0  0  0  0  0  0  0  0  0  0
    0.6924   -0.6384    0.0000 H   0  0  0  0  0  0  0  0  0  0  0  0
    6.6992   -2.5025    0.0000 H   0  0  0  0  0  0  0  0  0  0  0  0
    0.6924   -2.5025    0.0000 H   0  0  0  0  0  0  0  0  0  0  0  0
  1 18  1  0  0  0  0
  2 10  1  0  0  0  0
  2 11  1  0  0  0  0
  3  5  1  0  0  0  0
  3  8  1  0  0  0  0
  3  9  1  0  0  0  0
  4  7  1  0  0  0  0
  4 16  1  0  0  0  0
  4 17  1  0  0  0  0
  5  6  1  0  0  0  0
  5 22  1  0  0  0  0
  5 23  1  0  0  0  0
  6  7  1  0  0  0  0
  6 24  1  0  0  0  0
  6 25  1  0  0  0  0
  7 26  1  0  0  0  0
  7 27  1  0  0  0  0
  8 10  2  0  0  0  0
  8 12  1  0  0  0  0
  9 11  1  0  0  0  0
  9 13  2  0  0  0  0
 10 14  1  0  0  0  0
 11 15  2  0  0  0  0
 12 18  2  0  0  0  0
 12 28  1  0  0  0  0
 13 19  1  0  0  0  0
 13 29  1  0  0  0  0
 14 20  2  0  0  0  0
 14 30  1  0  0  0  0
 15 21  1  0  0  0  0
 15 31  1  0  0  0  0
 16 32  1  0  0  0  0
 16 33  1  0  0  0  0
 16 34  1  0  0  0  0
 17 35  1  0  0  0  0
 17 36  1  0  0  0  0
 17 37  1  0  0  0  0
 18 20  1  0  0  0  0
 19 21  2  0  0  0  0
 19 38  1  0  0  0  0
 20 39  1  0  0  0  0
 21 40  1  0  0  0  0
M  END
>  <DRUGBANK_ID>
DB00477

>  <SECONDARY_ACCESSION_NUMBERS>
APRD00482

>  <COMMON_NAME>
Chlorpromazine

>  <CAS_NUMBER>
50-53-3

>  <UNII>
U42B7VYA4P

>  <SYNONYMS>
3-(2-chloro-10H-phenothiazin-10-yl)-N,N-dimethyl-1-propanamine; 3-(2-chlorophenothiazin-10-yl)-N,N-dimethyl-propan-1-amine; Chlorpromazine; Chlorpromazinum; Clorpromazina; CPZ; N-(3-dimethylaminopropyl)-3-chlorophenothiazine

$$$$
