
 OpenBabel10282417072D

 77 78  0  0  1  0  0  0  0  0999 V2000
    5.0013   -6.1875    0.0000 C   0  0  0  0  0  0  0  0  0  0  0  0
    4.2868   -6.6000    0.0000 C   0  0  0  0  0  0  0  0  0  0  0  0
    3.5724   -6.1875    0.0000 C   0  0  0  0  0  0  0  0  0  0  0  0
    2.8579   -6.6000    0.0000 N   0  0  0  0  0  0  0  0  0  0  0  0
    2.1434   -6.1875    0.0000 C   0  0  0  0  0  0  0  0  0  0  0  0
    1.4289   -6.6000    0.0000 N   0  0  0  0  0  0  0  0  0  0  0  0
    0.7145   -6.1875    0.0000 C   0  0  0  0  0  0  0  0  0  0  0  0
    0.0000   -6.6000    0.0000 N   0  0  0  0  0  0  0  0  0  0  0  0
   -0.7145   -6.1875    0.0000 C   0  0  0  0  0  0  0  0  0  0  0  0
   -1.4289   -6.6000    0.0000 C   0  0  0  0  0  0  0  0  0  0  0  0
   -2.1434   -6.1875    0.0000 C   0  0  0  0  0  0  0  0  0  0  0  0
   -2.1434   -5.3625    0.0000 C   0  0  0  0  0  0  0  0  0  0  0  0
   -1.4289   -4.9500    0.0000 C   0  0  0  0  0  0  0  0  0  0  0  0
   -0.7145   -5.3625    0.0000 C   0  0  0  0  0  0  0  0  0  0  0  0
   -2.8579   -4.9500    0.0000 C   0  0  0  0  0  0  0  0  0  0  0  0
   -3.5724   -4.5375    0.0000 N   0  0  0  0  0  0  0  0  0  0  0  0
    0.7145   -5.3625    0.0000 N   0  0  0  0  0  0  0  0  0  0  0  0
    1.4289   -4.9500    0.0000 C   0  0  0  0  0  0  0  0  0  0  0  0
    2.1434   -5.3625    0.0000 C   0  0  0  0  0  0  0  0  0  0  0  0
    2.8579   -4.9500    0.0000 C   0  0  0  0  0  0  0  0  0  0  0  0
    3.5724   -4.5375    0.0000 C   0  0  0  0  0  0  0  0  0  0  0  0
    4.2868   -4.1250    0.0000 C   0  0  0  0  0  0  0  0  0  0  0  0
    5.0013   -4.5375    0.0000 C   0  0  0  0  0  0  0  0  0  0  0  0
    5.7158   -4.1250    0.0000 C   0  0  0  0  0  0  0  0  0  0  0  0
    6.4302   -4.5375    0.0000 N   0  0  0  0  0  0  0  0  0  0  0  0
    7.1447   -4.1250    0.0000 C   0  0  0  0  0  0  0  0  0  0  0  0
    7.1447   -3.3000    0.0000 O   0  0  0  0  0  0  0  0  0  0  0  0
    7.8592   -4.5375    0.0000 C   0  0  2  0  0  0  0  0  0  0  0  0
    7.8592   -5.3625    0.0000 C   0  0  0  0  0  0  0  0  0  0  0  0
    8.5737   -4.1250    0.0000 N   0  0  0  0  0  0  0  0  0  0  0  0
    8.5737   -3.3000    0.0000 C   0  0  0  0  0  0  0  0  0  0  0  0
    9.2881   -4.5375    0.0000 C   0  0  0  0  0  0  0  0  0  0  0  0
    9.2881   -5.3625    0.0000 O   0  0  0  0  0  0  0  0  0  0  0  0
   10.0026   -4.1250    0.0000 C   0  0  0  0  0  0  0  0  0  0  0  0
   10.7171   -4.5375    0.0000 C   0  0  0  0  0  0  0  0  0  0  0  0
   11.4315   -4.1250    0.0000 C   0  0  0  0  0  0  0  0  0  0  0  0
   12.1460   -4.5375    0.0000 N   0  0  0  0  0  0  0  0  0  0  0  0
   12.8605   -4.1250    0.0000 C   0  0  0  0  0  0  0  0  0  0  0  0
   12.1460   -5.3625    0.0000 C   0  0  0  0  0  0  0  0  0  0  0  0
    5.9279   -6.7225    0.0000 H   0  0  0  0  0  0  0  0  0  0  0  0
    5.0013   -5.1175    0.0000 H   0  0  0  0  0  0  0  0  0  0  0  0
    5.9280   -5.6525    0.0000 H   0  0  0  0  0  0  0  0  0  0  0  0
    4.2868   -7.6700    0.0000 H   0  0  0  0  0  0  0  0  0  0  0  0
    3.3601   -7.1350    0.0000 H   0  0  0  0  0  0  0  0  0  0  0  0
    3.5724   -5.1175    0.0000 H   0  0  0  0  0  0  0  0  0  0  0  0
    2.6458   -5.6525    0.0000 H   0  0  0  0  0  0  0  0  0  0  0  0
    2.8579   -7.5845    0.0000 H   0  0  0  0  0  0  0  0  0  0  0  0
    0.0000   -7.5845    0.0000 H   0  0  0  0  0  0  0  0  0  0  0  0
   -1.4289   -7.6320    0.0000 H   0  0  0  0  0  0  0  0  0  0  0  0
   -3.0371   -6.7035    0.0000 H   0  0  0  0  0  0  0  0  0  0  0  0
   -1.4289   -3.9180    0.0000 H   0  0  0  0  0  0  0  0  0  0  0  0
    0.1792   -4.8465    0.0000 H   0  0  0  0  0  0  0  0  0  0  0  0
    1.4289   -3.9180    0.0000 H   0  0  0  0  0  0  0  0  0  0  0  0
    4.2868   -3.0550    0.0000 H   0  0  0  0  0  0  0  0  0  0  0  0
    5.2134   -3.5900    0.0000 H   0  0  0  0  0  0  0  0  0  0  0  0
    5.0013   -5.6075    0.0000 H   0  0  0  0  0  0  0  0  0  0  0  0
    5.9279   -5.0725    0.0000 H   0  0  0  0  0  0  0  0  0  0  0  0
    5.7158   -3.0550    0.0000 H   0  0  0  0  0  0  0  0  0  0  0  0
    6.6425   -3.5900    0.0000 H   0  0  0  0  0  0  0  0  0  0  0  0
    6.4302   -5.5220    0.0000 H   0  0  0  0  0  0  0  0  0  0  0  0
    6.9326   -5.0725    0.0000 H   0  0  0  0  0  0  0  0  0  0  0  0
    6.9326   -5.8975    0.0000 H   0  0  0  0  0  0  0  0  0  0  0  0
    8.7858   -5.8975    0.0000 H   0  0  0  0  0  0  0  0  0  0  0  0
    7.8592   -6.4325    0.0000 H   0  0  0  0  0  0  0  0  0  0  0  0
    9.5003   -2.7650    0.0000 H   0  0  0  0  0  0  0  0  0  0  0  0
    7.6471   -2.7650    0.0000 H   0  0  0  0  0  0  0  0  0  0  0  0
    8.5737   -2.2300    0.0000 H   0  0  0  0  0  0  0  0  0  0  0  0
   10.0026   -3.0930    0.0000 H   0  0  0  0  0  0  0  0  0  0  0  0
   10.7171   -5.5695    0.0000 H   0  0  0  0  0  0  0  0  0  0  0  0
   11.4315   -3.0550    0.0000 H   0  0  0  0  0  0  0  0  0  0  0  0
   12.3581   -3.5900    0.0000 H   0  0  0  0  0  0  0  0  0  0  0  0
   13.7871   -4.6600    0.0000 H   0  0  0  0  0  0  0  0  0  0  0  0
   12.8605   -3.0550    0.0000 H   0  0  0  0  0  0  0  0  0  0  0  0
   13.7872   -3.5900    0.0000 H   0  0  0  0  0  0  0  0  0  0  0  0
   11.2194   -5.8975    0.0000 H   0  0  0  0  0  0  0  0  0  0  0  0
   13.0726   -5.8975    0.0000 H   0  0  0  0  0  0  0  0  0  0  0  0
   12.1460   -6.4325    0.0000 H   0  0  0  0  0  0  0  0  0  0  0  0
  1  2  1  0  0  0  0
  1 40  1  0  0  0  0
  1 41  1  0  0  0  0
  1 42  1  0  0  0  0
  2  3  1  0  0  0  0
  2 43  1  0  0  0  0
  2 44  1  0  0  0  0
  3  4  1  0  0  0  0
  3 45  1  0  0  0  0
  3 46  1  0  0  0  0
  4  5  1  0  0  0  0
  4 47  1  0  0  0  0
  5  6  2  0  0  0  0
  5 19  1  0  0  0  0
  6  7  1  0  0  0  0
  7  8  1  0  0  0  0
  7 17  2  0  0  0  0
  8  9  1  0  0  0  0
  8 48  1  0  0  0  0
  9 10  2  0  0  0  0
  9 14  1  0  0  0  0
 10 11  1  0  0  0  0
 10 49  1  0  0  0  0
 11 12  2  0  0  0  0
 11 50  1  0  0  0  0
 12 13  1  0  0  0  0
 12 15  1  0  0  0  0
 13 14  2  0  0  0  0
 13 51  1  0  0  0  0
 14 52  1  0  0  0  0
 15 16  3  0  0  0  0
 17 18  1  0  0  0  0
 18 19  2  0  0  0  0
 18 53  1  0  0  0  0
 19 20  1  0  0  0  0
 20 21  3  0  0  0  0
 21 22  1  0  0  0  0
 22 23  1  0  0  0  0
 22 54  1  0  0  0  0
 22 55  1  0  0  0  0
 23 24  1  0  0  0  0
 23 56  1  0  0  0  0
 23 57  1  0  0  0  0
 24 25  1  0  0  0  0
 24 58  1  0  0  0  0
 24 59  1  0  0  0  0
 25 26  1  0  0  0  0
 25 60  1  0  0  0  0
 26 27  2  0  0  0  0
 28 26  1  0  0  0  0
 28 29  1  0  0  0  0
 28 30  1  0  0  0  0
 28 61  1  6  0  0  0
 29 62  1  0  0  0  0
 29 63  1  0  0  0  0
 29 64  1  0  0  0  0
 30 31  1  0  0  0  0
 30 32  1  0  0  0  0
 31 65  1  0  0  0  0
 31 66  1  0  0  0  0
 31 67  1  0  0  0  0
 32 33  2  0  0  0  0
 32 34  1  0  0  0  0
 34 35  2  0  0  0  0
 34 68  1  0  0  0  0
 35 36  1  0  0  0  0
 35 69  1  0  0  0  0
 36 37  1  0  0  0  0
 36 70  1  0  0  0  0
 36 71  1  0  0  0  0
 37 38  1  0  0  0  0
 37 39  1  0  0  0  0
 38 72  1  0  0  0  0
 38 73  1  0  0  0  0
 38 74  1  0  0  0  0
 39 75  1  0  0  0  0
 39 76  1  0  0  0  0
 39 77  1  0  0  0  0
M  END
>  <DRUGBANK_ID>
DB16050

>  <COMMON_NAME>
FF-10101-01

>  <CAS_NUMBER>
1472797-69-5

>  <UNII>
7V7IHI0SYG

$$$$
