
 OpenBabel10282417072D

 39 39  0  0  0  0  0  0  0  0999 V2000
   -0.3546   -0.4150    0.0000 C   0  0  0  0  0  0  0  0  0  0  0  0
   -1.0735   -0.0047    0.0000 N   0  0  0  0  0  0  0  0  0  0  0  0
    0.3546    0.0047    0.0000 O   0  0  0  0  0  0  0  0  0  0  0  0
   -0.3642   -1.2401    0.0000 O   0  0  0  0  0  0  0  0  0  0  0  0
   -1.0735    0.8203    0.0000 C   0  0  3  0  0  0  0  0  0  0  0  0
   -1.7828   -0.4100    0.0000 C   0  0  0  0  0  0  0  0  0  0  0  0
   -0.3546    1.2352    0.0000 C   0  0  0  0  0  0  0  0  0  0  0  0
    1.0688   -0.4150    0.0000 C   0  0  3  0  0  0  0  0  0  0  0  0
    1.0688    1.2352    0.0000 O   0  0  0  0  0  0  0  0  0  0  0  0
    0.3546    0.8203    0.0000 C   0  0  0  0  0  0  0  0  0  0  0  0
   -1.7828    1.2401    0.0000 C   0  0  0  0  0  0  0  0  0  0  0  0
    1.7781   -0.0047    0.0000 C   0  0  0  0  0  0  0  0  0  0  0  0
    1.0688   -1.2401    0.0000 C   0  0  0  0  0  0  0  0  0  0  0  0
   -2.4970   -0.0047    0.0000 C   0  0  0  0  0  0  0  0  0  0  0  0
    2.4970   -0.4150    0.0000 C   0  0  0  0  0  0  0  0  0  0  0  0
   -2.4970    0.8203    0.0000 C   0  0  0  0  0  0  0  0  0  0  0  0
   -0.1469    0.2852    0.0000 H   0  0  0  0  0  0  0  0  0  0  0  0
   -1.7812   -1.4800    0.0000 H   0  0  0  0  0  0  0  0  0  0  0  0
   -2.7071   -0.9491    0.0000 H   0  0  0  0  0  0  0  0  0  0  0  0
   -0.3514    2.3052    0.0000 H   0  0  0  0  0  0  0  0  0  0  0  0
    0.5744    1.7662    0.0000 H   0  0  0  0  0  0  0  0  0  0  0  0
    1.0725    0.6550    0.0000 H   0  0  0  0  0  0  0  0  0  0  0  0
    1.9101    0.7525    0.0000 H   0  0  0  0  0  0  0  0  0  0  0  0
    0.3530   -0.2497    0.0000 H   0  0  0  0  0  0  0  0  0  0  0  0
   -0.5740    0.2887    0.0000 H   0  0  0  0  0  0  0  0  0  0  0  0
   -1.7812    2.3101    0.0000 H   0  0  0  0  0  0  0  0  0  0  0  0
   -2.7111    1.7722    0.0000 H   0  0  0  0  0  0  0  0  0  0  0  0
    1.7750    1.0653    0.0000 H   0  0  0  0  0  0  0  0  0  0  0  0
    2.7026    0.5339    0.0000 H   0  0  0  0  0  0  0  0  0  0  0  0
    0.1422   -1.7751    0.0000 H   0  0  0  0  0  0  0  0  0  0  0  0
    1.9954   -1.7751    0.0000 H   0  0  0  0  0  0  0  0  0  0  0  0
    1.0688   -2.3101    0.0000 H   0  0  0  0  0  0  0  0  0  0  0  0
   -3.4217   -0.5431    0.0000 H   0  0  0  0  0  0  0  0  0  0  0  0
   -3.4246    0.5286    0.0000 H   0  0  0  0  0  0  0  0  0  0  0  0
    2.5023   -1.4850    0.0000 H   0  0  0  0  0  0  0  0  0  0  0  0
    3.4210    0.1246    0.0000 H   0  0  0  0  0  0  0  0  0  0  0  0
    3.4263   -0.9454    0.0000 H   0  0  0  0  0  0  0  0  0  0  0  0
   -3.4257    1.3517    0.0000 H   0  0  0  0  0  0  0  0  0  0  0  0
   -2.5033    1.8903    0.0000 H   0  0  0  0  0  0  0  0  0  0  0  0
  2  1  1  0  0  0  0
  3  1  1  0  0  0  0
  4  1  2  0  0  0  0
  5  2  1  0  0  0  0
  5 17  1  0  0  0  0
  6  2  1  0  0  0  0
  6 18  1  0  0  0  0
  6 19  1  0  0  0  0
  7  5  1  0  0  0  0
  7 20  1  0  0  0  0
  7 21  1  0  0  0  0
  8  3  1  0  0  0  0
  8 22  1  0  0  0  0
  9 10  1  0  0  0  0
  9 23  1  0  0  0  0
 10  7  1  0  0  0  0
 10 24  1  0  0  0  0
 10 25  1  0  0  0  0
 11  5  1  0  0  0  0
 11 26  1  0  0  0  0
 11 27  1  0  0  0  0
 12  8  1  0  0  0  0
 12 28  1  0  0  0  0
 12 29  1  0  0  0  0
 13  8  1  0  0  0  0
 13 30  1  0  0  0  0
 13 31  1  0  0  0  0
 13 32  1  0  0  0  0
 14  6  1  0  0  0  0
 14 33  1  0  0  0  0
 14 34  1  0  0  0  0
 15 12  1  0  0  0  0
 15 35  1  0  0  0  0
 15 36  1  0  0  0  0
 15 37  1  0  0  0  0
 16 14  1  0  0  0  0
 16 11  1  0  0  0  0
 16 38  1  0  0  0  0
 16 39  1  0  0  0  0
M  END
>  <DRUGBANK_ID>
DB14074

>  <COMMON_NAME>
Icaridin

>  <CAS_NUMBER>
119515-38-7

>  <UNII>
N51GQX0837

>  <SYNONYMS>
Icaridin; Icaridina; Icaridinum; Picaridin; Pikaridin; Propidine

$$$$
