231
 OpenBabel10282417072D

 34 36  0  0  1  0  0  0  0  0999 V2000
    2.8172   -2.3783    0.0000 Cl  0  0  0  0  0  0  0  0  0  0  0  0
    4.1516    2.3401    0.0000 O   0  0  0  0  0  0  0  0  0  0  0  0
    2.6107    2.3401    0.0000 O   0  0  0  0  0  0  0  0  0  0  0  0
    2.4543    0.9518    0.0000 N   0  0  0  0  0  0  0  0  0  0  0  0
    4.3080    0.9518    0.0000 N   0  0  0  0  0  0  0  0  0  0  0  0
    2.6378    0.1475    0.0000 C   0  0  0  0  0  0  0  0  0  0  0  0
    3.3811   -0.2105    0.0000 C   0  0  0  0  0  0  0  0  0  0  0  0
    4.1245    0.1475    0.0000 C   0  0  0  0  0  0  0  0  0  0  0  0
    3.7936    1.5968    0.0000 C   0  0  3  0  0  0  0  0  0  0  0  0
    2.9687    1.5968    0.0000 C   0  0  0  0  0  0  0  0  0  0  0  0
    4.7694   -0.3669    0.0000 C   0  0  0  0  0  0  0  0  0  0  0  0
    3.4586   -1.0663    0.0000 C   0  0  0  0  0  0  0  0  0  0  0  0
    1.9205   -0.3256    0.0000 C   0  0  0  0  0  0  0  0  0  0  0  0
    1.6500    1.1354    0.0000 C   0  0  0  0  0  0  0  0  0  0  0  0
    2.7523   -1.5559    0.0000 C   0  0  0  0  0  0  0  0  0  0  0  0
    1.9781   -1.1830    0.0000 C   0  0  0  0  0  0  0  0  0  0  0  0
    5.5374   -0.0655    0.0000 C   0  0  0  0  0  0  0  0  0  0  0  0
    4.6465   -1.1827    0.0000 C   0  0  0  0  0  0  0  0  0  0  0  0
    6.1824   -0.5799    0.0000 C   0  0  0  0  0  0  0  0  0  0  0  0
    5.2915   -1.6971    0.0000 C   0  0  0  0  0  0  0  0  0  0  0  0
    6.0595   -1.3956    0.0000 C   0  0  0  0  0  0  0  0  0  0  0  0
    5.1189    2.4125    0.0000 H   0  0  0  0  0  0  0  0  0  0  0  0
    4.8569    1.7166    0.0000 H   0  0  0  0  0  0  0  0  0  0  0  0
    4.3935   -1.5032    0.0000 H   0  0  0  0  0  0  0  0  0  0  0  0
    0.9959    0.1329    0.0000 H   0  0  0  0  0  0  0  0  0  0  0  0
    1.3346    2.1579    0.0000 H   0  0  0  0  0  0  0  0  0  0  0  0
    0.9222    0.3511    0.0000 H   0  0  0  0  0  0  0  0  0  0  0  0
    0.6068    1.3735    0.0000 H   0  0  0  0  0  0  0  0  0  0  0  0
    1.1232   -1.7610    0.0000 H   0  0  0  0  0  0  0  0  0  0  0  0
    5.6912    0.9550    0.0000 H   0  0  0  0  0  0  0  0  0  0  0  0
    3.6858   -1.5598    0.0000 H   0  0  0  0  0  0  0  0  0  0  0  0
    7.1431   -0.2029    0.0000 H   0  0  0  0  0  0  0  0  0  0  0  0
    5.1377   -2.7176    0.0000 H   0  0  0  0  0  0  0  0  0  0  0  0
    6.8664   -2.0390    0.0000 H   0  0  0  0  0  0  0  0  0  0  0  0
  1 15  1  0  0  0  0
  2  9  1  0  0  0  0
  2 22  1  0  0  0  0
  3 10  2  0  0  0  0
  4  6  1  0  0  0  0
  4 10  1  0  0  0  0
  4 14  1  0  0  0  0
  5  8  2  0  0  0  0
  5  9  1  0  0  0  0
  6  7  2  0  0  0  0
  6 13  1  0  0  0  0
  7  8  1  0  0  0  0
  7 12  1  0  0  0  0
  8 11  1  0  0  0  0
  9 10  1  0  0  0  0
  9 23  1  0  0  0  0
 11 17  2  0  0  0  0
 11 18  1  0  0  0  0
 12 15  2  0  0  0  0
 12 24  1  0  0  0  0
 13 16  2  0  0  0  0
 13 25  1  0  0  0  0
 14 26  1  0  0  0  0
 14 27  1  0  0  0  0
 14 28  1  0  0  0  0
 15 16  1  0  0  0  0
 16 29  1  0  0  0  0
 17 19  1  0  0  0  0
 17 30  1  0  0  0  0
 18 20  2  0  0  0  0
 18 31  1  0  0  0  0
 19 21  2  0  0  0  0
 19 32  1  0  0  0  0
 20 21  1  0  0  0  0
 20 33  1  0  0  0  0
 21 34  1  0  0  0  0
M  END
>  <DRUGBANK_ID>
DB00231

>  <SECONDARY_ACCESSION_NUMBERS>
APRD00676

>  <COMMON_NAME>
Temazepam

>  <CAS_NUMBER>
846-50-4

>  <UNII>
CHB1QD2QSS

>  <SYNONYMS>
Temazepam

$$$$
