
 OpenBabel10282417072D

 37 38  0  0  1  0  0  0  0  0999 V2000
   -1.1456    1.1178    0.0000 S   0  0  0  0  0  0  0  0  0  0  0  0
    1.7587    1.1178    0.0000 O   0  0  0  0  0  0  0  0  0  0  0  0
   -0.5909    2.8249    0.0000 O   0  0  0  0  0  0  0  0  0  0  0  0
    1.2040    2.8249    0.0000 O   0  0  0  0  0  0  0  0  0  0  0  0
    0.3065    0.0627    0.0000 N   0  0  0  0  0  0  0  0  0  0  0  0
    0.3065    0.8878    0.0000 C   0  0  2  0  0  0  0  0  0  0  0  0
   -0.3609    1.3728    0.0000 C   0  0  2  0  0  0  0  0  0  0  0  0
    0.9739    1.3728    0.0000 C   0  0  2  0  0  0  0  0  0  0  0  0
   -0.1059    2.1574    0.0000 C   0  0  1  0  0  0  0  0  0  0  0  0
    0.7190    2.1574    0.0000 C   0  0  2  0  0  0  0  0  0  0  0  0
   -0.4079   -0.3497    0.0000 C   0  0  0  0  0  0  0  0  0  0  0  0
   -1.7587    1.6699    0.0000 C   0  0  0  0  0  0  0  0  0  0  0  0
   -0.4079   -1.1748    0.0000 C   0  0  0  0  0  0  0  0  0  0  0  0
    0.3065   -1.5873    0.0000 C   0  0  0  0  0  0  0  0  0  0  0  0
   -1.1224   -1.5873    0.0000 C   0  0  0  0  0  0  0  0  0  0  0  0
    0.3065   -2.4124    0.0000 C   0  0  0  0  0  0  0  0  0  0  0  0
   -1.1224   -2.4124    0.0000 C   0  0  0  0  0  0  0  0  0  0  0  0
   -0.4079   -2.8249    0.0000 C   0  0  0  0  0  0  0  0  0  0  0  0
   -0.8276    1.8395    0.0000 H   0  0  0  0  0  0  0  0  0  0  0  0
    0.7496   -0.1929    0.0000 H   0  0  0  0  0  0  0  0  0  0  0  0
    1.9604    0.1690    0.0000 H   0  0  0  0  0  0  0  0  0  0  0  0
   -0.1964    3.7111    0.0000 H   0  0  0  0  0  0  0  0  0  0  0  0
    2.1687    2.7235    0.0000 H   0  0  0  0  0  0  0  0  0  0  0  0
   -0.6469    0.4021    0.0000 H   0  0  0  0  0  0  0  0  0  0  0  0
    1.1413    0.3160    0.0000 H   0  0  0  0  0  0  0  0  0  0  0  0
   -1.1627    1.9900    0.0000 H   0  0  0  0  0  0  0  0  0  0  0  0
    1.7758    1.9900    0.0000 H   0  0  0  0  0  0  0  0  0  0  0  0
   -1.3345    0.1853    0.0000 H   0  0  0  0  0  0  0  0  0  0  0  0
   -1.3346   -0.8847    0.0000 H   0  0  0  0  0  0  0  0  0  0  0  0
   -1.5362    2.7165    0.0000 H   0  0  0  0  0  0  0  0  0  0  0  0
   -2.7763    1.3393    0.0000 H   0  0  0  0  0  0  0  0  0  0  0  0
   -2.5538    2.3859    0.0000 H   0  0  0  0  0  0  0  0  0  0  0  0
    1.2002   -1.0713    0.0000 H   0  0  0  0  0  0  0  0  0  0  0  0
   -2.0161   -1.0713    0.0000 H   0  0  0  0  0  0  0  0  0  0  0  0
    1.2002   -2.9284    0.0000 H   0  0  0  0  0  0  0  0  0  0  0  0
   -2.0161   -2.9284    0.0000 H   0  0  0  0  0  0  0  0  0  0  0  0
   -0.4079   -3.8569    0.0000 H   0  0  0  0  0  0  0  0  0  0  0  0
  1  7  1  0  0  0  0
  1 12  1  0  0  0  0
  2 21  1  0  0  0  0
  3 22  1  0  0  0  0
  4 23  1  0  0  0  0
  5 11  1  0  0  0  0
  5 20  1  0  0  0  0
  6  5  1  0  0  0  0
  6  7  1  0  0  0  0
  6  8  1  0  0  0  0
  6 24  1  1  0  0  0
  7  9  1  0  0  0  0
  7 19  1  6  0  0  0
  8  2  1  0  0  0  0
  8 10  1  0  0  0  0
  8 25  1  1  0  0  0
  9  3  1  0  0  0  0
  9 10  1  0  0  0  0
  9 26  1  1  0  0  0
 10  4  1  0  0  0  0
 10 27  1  1  0  0  0
 11 13  1  0  0  0  0
 11 28  1  0  0  0  0
 11 29  1  0  0  0  0
 12 30  1  0  0  0  0
 12 31  1  0  0  0  0
 12 32  1  0  0  0  0
 13 14  2  0  0  0  0
 13 15  1  0  0  0  0
 14 16  1  0  0  0  0
 14 33  1  0  0  0  0
 15 17  2  0  0  0  0
 15 34  1  0  0  0  0
 16 18  2  0  0  0  0
 16 35  1  0  0  0  0
 17 18  1  0  0  0  0
 17 36  1  0  0  0  0
 18 37  1  0  0  0  0
M  END
>  <DRUGBANK_ID>
DB06984

>  <COMMON_NAME>
(1R,2R,3R,4S,5R)-4-(Benzylamino)-5-(methylthio)cyclopentane-1,2,3-triol

>  <SYNONYMS>
Benzylation of mannostatin A, 1b

$$$$
