
 OpenBabel10282417072D

 74 73  0  0  0  0  0  0  0  0999 V2000
   -6.9020    3.9849    0.0000 C   0  0  0  0  0  0  0  0  0  0  0  0
    5.9585    3.9849    0.0000 C   0  0  0  0  0  0  0  0  0  0  0  0
   -3.3296   -1.3776    0.0000 C   0  0  0  0  0  0  0  0  0  0  0  0
   -6.1875    3.5724    0.0000 C   0  0  0  0  0  0  0  0  0  0  0  0
    5.2440    3.5724    0.0000 C   0  0  0  0  0  0  0  0  0  0  0  0
   -2.6151   -0.9651    0.0000 C   0  0  0  0  0  0  0  0  0  0  0  0
   -5.4730    3.9849    0.0000 C   0  0  0  0  0  0  0  0  0  0  0  0
    4.5296    3.9849    0.0000 C   0  0  0  0  0  0  0  0  0  0  0  0
   -2.6151   -0.1401    0.0000 C   0  0  0  0  0  0  0  0  0  0  0  0
   -4.7586    3.5724    0.0000 C   0  0  0  0  0  0  0  0  0  0  0  0
    3.8151    3.5724    0.0000 C   0  0  0  0  0  0  0  0  0  0  0  0
   -1.9007    0.2724    0.0000 C   0  0  0  0  0  0  0  0  0  0  0  0
   -4.0441    3.9849    0.0000 C   0  0  0  0  0  0  0  0  0  0  0  0
    3.1006    3.9849    0.0000 C   0  0  0  0  0  0  0  0  0  0  0  0
   -1.9007    1.0974    0.0000 C   0  0  0  0  0  0  0  0  0  0  0  0
   -3.3296    3.5724    0.0000 C   0  0  0  0  0  0  0  0  0  0  0  0
    2.3862    3.5724    0.0000 C   0  0  0  0  0  0  0  0  0  0  0  0
   -1.1862    1.5099    0.0000 C   0  0  0  0  0  0  0  0  0  0  0  0
   -1.1862    3.9849    0.0000 C   0  0  0  0  0  0  0  0  0  0  0  0
    0.2427    3.9849    0.0000 C   0  0  0  0  0  0  0  0  0  0  0  0
   -0.4717    3.5724    0.0000 C   0  0  0  0  0  0  0  0  0  0  0  0
   -2.6151    3.9849    0.0000 C   0  0  0  0  0  0  0  0  0  0  0  0
    1.6717    3.9849    0.0000 C   0  0  0  0  0  0  0  0  0  0  0  0
   -1.1862    2.3349    0.0000 C   0  0  0  0  0  0  0  0  0  0  0  0
   -2.6151    4.8099    0.0000 O   0  0  0  0  0  0  0  0  0  0  0  0
    1.6717    4.8099    0.0000 O   0  0  0  0  0  0  0  0  0  0  0  0
   -1.9007    2.7474    0.0000 O   0  0  0  0  0  0  0  0  0  0  0  0
   -1.9007    3.5724    0.0000 O   0  0  0  0  0  0  0  0  0  0  0  0
    0.9572    3.5724    0.0000 O   0  0  0  0  0  0  0  0  0  0  0  0
   -0.4717    2.7474    0.0000 O   0  0  0  0  0  0  0  0  0  0  0  0
   -6.9020    5.0549    0.0000 H   0  0  0  0  0  0  0  0  0  0  0  0
   -7.8286    3.4499    0.0000 H   0  0  0  0  0  0  0  0  0  0  0  0
   -7.8287    4.5199    0.0000 H   0  0  0  0  0  0  0  0  0  0  0  0
    6.8851    3.4499    0.0000 H   0  0  0  0  0  0  0  0  0  0  0  0
    5.9585    5.0549    0.0000 H   0  0  0  0  0  0  0  0  0  0  0  0
    6.8852    4.5199    0.0000 H   0  0  0  0  0  0  0  0  0  0  0  0
   -4.2562   -0.8426    0.0000 H   0  0  0  0  0  0  0  0  0  0  0  0
   -3.3296   -2.4476    0.0000 H   0  0  0  0  0  0  0  0  0  0  0  0
   -4.2563   -1.9126    0.0000 H   0  0  0  0  0  0  0  0  0  0  0  0
   -6.1875    2.5024    0.0000 H   0  0  0  0  0  0  0  0  0  0  0  0
   -5.2609    3.0374    0.0000 H   0  0  0  0  0  0  0  0  0  0  0  0
    5.2440    2.5024    0.0000 H   0  0  0  0  0  0  0  0  0  0  0  0
    4.3173    3.0374    0.0000 H   0  0  0  0  0  0  0  0  0  0  0  0
   -1.6885   -1.5001    0.0000 H   0  0  0  0  0  0  0  0  0  0  0  0
   -1.6885   -0.4301    0.0000 H   0  0  0  0  0  0  0  0  0  0  0  0
   -5.4730    5.0549    0.0000 H   0  0  0  0  0  0  0  0  0  0  0  0
   -4.5463    4.5199    0.0000 H   0  0  0  0  0  0  0  0  0  0  0  0
    4.5296    5.0549    0.0000 H   0  0  0  0  0  0  0  0  0  0  0  0
    3.6030    4.5199    0.0000 H   0  0  0  0  0  0  0  0  0  0  0  0
   -3.5418    0.3949    0.0000 H   0  0  0  0  0  0  0  0  0  0  0  0
   -2.6151    0.9299    0.0000 H   0  0  0  0  0  0  0  0  0  0  0  0
   -4.7586    2.5024    0.0000 H   0  0  0  0  0  0  0  0  0  0  0  0
   -3.8320    3.0374    0.0000 H   0  0  0  0  0  0  0  0  0  0  0  0
    3.8151    2.5024    0.0000 H   0  0  0  0  0  0  0  0  0  0  0  0
    2.8885    3.0374    0.0000 H   0  0  0  0  0  0  0  0  0  0  0  0
   -0.9740   -0.2626    0.0000 H   0  0  0  0  0  0  0  0  0  0  0  0
   -0.9741    0.8074    0.0000 H   0  0  0  0  0  0  0  0  0  0  0  0
   -4.0441    5.0549    0.0000 H   0  0  0  0  0  0  0  0  0  0  0  0
   -3.1175    4.5199    0.0000 H   0  0  0  0  0  0  0  0  0  0  0  0
    3.1006    5.0549    0.0000 H   0  0  0  0  0  0  0  0  0  0  0  0
    2.1739    4.5199    0.0000 H   0  0  0  0  0  0  0  0  0  0  0  0
   -2.8273    1.6324    0.0000 H   0  0  0  0  0  0  0  0  0  0  0  0
   -1.9007    2.1674    0.0000 H   0  0  0  0  0  0  0  0  0  0  0  0
   -3.3296    2.5024    0.0000 H   0  0  0  0  0  0  0  0  0  0  0  0
   -2.4030    3.0374    0.0000 H   0  0  0  0  0  0  0  0  0  0  0  0
    2.3862    2.5024    0.0000 H   0  0  0  0  0  0  0  0  0  0  0  0
    1.4596    3.0374    0.0000 H   0  0  0  0  0  0  0  0  0  0  0  0
   -0.2596    0.9749    0.0000 H   0  0  0  0  0  0  0  0  0  0  0  0
   -0.2596    2.0449    0.0000 H   0  0  0  0  0  0  0  0  0  0  0  0
   -1.1862    5.0549    0.0000 H   0  0  0  0  0  0  0  0  0  0  0  0
   -2.1128    4.5199    0.0000 H   0  0  0  0  0  0  0  0  0  0  0  0
    0.2427    5.0549    0.0000 H   0  0  0  0  0  0  0  0  0  0  0  0
    1.1693    4.5199    0.0000 H   0  0  0  0  0  0  0  0  0  0  0  0
    0.4550    3.0374    0.0000 H   0  0  0  0  0  0  0  0  0  0  0  0
  1 31  1  0  0  0  0
  1 32  1  0  0  0  0
  1 33  1  0  0  0  0
  2 34  1  0  0  0  0
  2 35  1  0  0  0  0
  2 36  1  0  0  0  0
  3 37  1  0  0  0  0
  3 38  1  0  0  0  0
  3 39  1  0  0  0  0
  4  1  1  0  0  0  0
  4 40  1  0  0  0  0
  4 41  1  0  0  0  0
  5  2  1  0  0  0  0
  5 42  1  0  0  0  0
  5 43  1  0  0  0  0
  6  3  1  0  0  0  0
  6 44  1  0  0  0  0
  6 45  1  0  0  0  0
  7  4  1  0  0  0  0
  7 46  1  0  0  0  0
  7 47  1  0  0  0  0
  8  5  1  0  0  0  0
  8 48  1  0  0  0  0
  8 49  1  0  0  0  0
  9  6  1  0  0  0  0
  9 50  1  0  0  0  0
  9 51  1  0  0  0  0
 10  7  1  0  0  0  0
 10 52  1  0  0  0  0
 10 53  1  0  0  0  0
 11  8  1  0  0  0  0
 11 54  1  0  0  0  0
 11 55  1  0  0  0  0
 12  9  1  0  0  0  0
 12 56  1  0  0  0  0
 12 57  1  0  0  0  0
 13 10  1  0  0  0  0
 13 58  1  0  0  0  0
 13 59  1  0  0  0  0
 14 11  1  0  0  0  0
 14 60  1  0  0  0  0
 14 61  1  0  0  0  0
 15 12  1  0  0  0  0
 15 62  1  0  0  0  0
 15 63  1  0  0  0  0
 16 13  1  0  0  0  0
 16 64  1  0  0  0  0
 16 65  1  0  0  0  0
 17 14  1  0  0  0  0
 17 66  1  0  0  0  0
 17 67  1  0  0  0  0
 18 15  1  0  0  0  0
 18 68  1  0  0  0  0
 18 69  1  0  0  0  0
 19 70  1  0  0  0  0
 19 71  1  0  0  0  0
 20 72  1  0  0  0  0
 20 73  1  0  0  0  0
 21 19  1  0  0  0  0
 21 20  1  0  0  0  0
 21 74  1  0  0  0  0
 22 16  1  0  0  0  0
 23 17  1  0  0  0  0
 24 18  1  0  0  0  0
 25 22  2  0  0  0  0
 26 23  2  0  0  0  0
 27 24  2  0  0  0  0
 28 19  1  0  0  0  0
 28 22  1  0  0  0  0
 29 20  1  0  0  0  0
 29 23  1  0  0  0  0
 30 21  1  0  0  0  0
 30 24  1  0  0  0  0
M  END
>  <DRUGBANK_ID>
DB11677

>  <COMMON_NAME>
Triheptanoin

>  <CAS_NUMBER>
620-67-7

>  <UNII>
2P6O7CFW5K

>  <SYNONYMS>
Glycerol triheptanoate; Glyceryl triheptanoate; Trienanthoin; Triheptanoic glyceride; Triheptanoin; Triheptylin; Trioenanthoin

$$$$
