
 OpenBabel10282417072D

 78 85  0  0  0  0  0  0  0  0999 V2000
    1.7977   -2.4582    0.0000 C   0  0  0  0  0  0  0  0  0  0  0  0
    1.7946   -3.2832    0.0000 C   0  0  0  0  0  0  0  0  0  0  0  0
    2.5120   -3.6974    0.0000 C   0  0  0  0  0  0  0  0  0  0  0  0
    3.2248   -3.2866    0.0000 C   0  0  0  0  0  0  0  0  0  0  0  0
    4.0548   -3.4480    0.0000 N   0  0  0  0  0  0  0  0  0  0  0  0
    4.4910   -2.6890    0.0000 C   0  0  0  0  0  0  0  0  0  0  0  0
    3.9351   -2.0593    0.0000 C   0  0  0  0  0  0  0  0  0  0  0  0
    2.5122   -2.0491    0.0000 C   0  0  0  0  0  0  0  0  0  0  0  0
    3.2249   -2.4652    0.0000 C   0  0  0  0  0  0  0  0  0  0  0  0
    3.9439   -1.2338    0.0000 C   0  0  0  0  0  0  0  0  0  0  0  0
    2.5122   -1.2262    0.0000 C   0  0  0  0  0  0  0  0  0  0  0  0
    3.2271   -0.8148    0.0000 C   0  0  2  0  0  0  0  0  0  0  0  0
    3.2281    0.0051    0.0000 N   0  0  0  0  0  0  0  0  0  0  0  0
    2.5160    0.4200    0.0000 C   0  0  0  0  0  0  0  0  0  0  0  0
    1.8015    0.0086    0.0000 C   0  0  1  0  0  0  0  0  0  0  0  0
    1.7987   -0.8174    0.0000 C   0  0  0  0  0  0  0  0  0  0  0  0
    1.0862    0.4239    0.0000 C   0  0  0  0  0  0  0  0  0  0  0  0
    0.3691    0.0122    0.0000 N   0  0  0  0  0  0  0  0  0  0  0  0
    3.9455    0.4166    0.0000 C   0  0  0  0  0  0  0  0  0  0  0  0
    3.9417   -0.4039    0.0000 H   0  0  0  0  0  0  0  0  0  0  0  0
    1.0883    1.2510    0.0000 O   0  0  0  0  0  0  0  0  0  0  0  0
   -0.3534    0.4166    0.0000 C   0  0  1  0  0  0  0  0  0  0  0  0
   -0.8487    1.0829    0.0000 C   0  0  0  0  0  0  0  0  0  0  0  0
   -0.8361   -0.2551    0.0000 O   0  0  0  0  0  0  0  0  0  0  0  0
   -1.6251   -0.0070    0.0000 C   0  0  2  0  0  0  0  0  0  0  0  0
   -1.6286    0.8156    0.0000 N   0  0  0  0  0  0  0  0  0  0  0  0
   -2.3389    1.2217    0.0000 C   0  0  2  0  0  0  0  0  0  0  0  0
   -3.0502    0.8096    0.0000 C   0  0  0  0  0  0  0  0  0  0  0  0
   -2.3319   -0.4237    0.0000 C   0  0  1  0  0  0  0  0  0  0  0  0
   -3.0483   -0.0147    0.0000 N   0  0  0  0  0  0  0  0  0  0  0  0
   -3.6584   -0.5698    0.0000 C   0  0  0  0  0  0  0  0  0  0  0  0
   -3.3191   -1.3218    0.0000 C   0  0  0  0  0  0  0  0  0  0  0  0
   -2.4992   -1.2313    0.0000 C   0  0  0  0  0  0  0  0  0  0  0  0
   -1.6203   -0.8379    0.0000 O   0  0  0  0  0  0  0  0  0  0  0  0
   -2.3429    0.3996    0.0000 H   0  0  0  0  0  0  0  0  0  0  0  0
   -0.6036    1.8730    0.0000 O   0  0  0  0  0  0  0  0  0  0  0  0
   -3.7672    1.2217    0.0000 O   0  0  0  0  0  0  0  0  0  0  0  0
   -2.3412    2.0487    0.0000 C   0  0  0  0  0  0  0  0  0  0  0  0
   -3.0586    2.4602    0.0000 C   0  0  0  0  0  0  0  0  0  0  0  0
   -3.0582    3.2859    0.0000 C   0  0  0  0  0  0  0  0  0  0  0  0
   -3.7749    3.6974    0.0000 C   0  0  0  0  0  0  0  0  0  0  0  0
   -4.4910    3.2817    0.0000 C   0  0  0  0  0  0  0  0  0  0  0  0
   -4.4860    2.4503    0.0000 C   0  0  0  0  0  0  0  0  0  0  0  0
   -3.7687    2.0426    0.0000 C   0  0  0  0  0  0  0  0  0  0  0  0
    0.1618    0.9269    0.0000 C   0  0  0  0  0  0  0  0  0  0  0  0
    0.9059   -1.9389    0.0000 H   0  0  0  0  0  0  0  0  0  0  0  0
    0.8999   -3.7975    0.0000 H   0  0  0  0  0  0  0  0  0  0  0  0
    2.5116   -4.7294    0.0000 H   0  0  0  0  0  0  0  0  0  0  0  0
    4.4639   -4.3435    0.0000 H   0  0  0  0  0  0  0  0  0  0  0  0
    5.5178   -2.5851    0.0000 H   0  0  0  0  0  0  0  0  0  0  0  0
    4.8748   -0.7062    0.0000 H   0  0  0  0  0  0  0  0  0  0  0  0
    3.9511   -0.1638    0.0000 H   0  0  0  0  0  0  0  0  0  0  0  0
    2.5187    1.4900    0.0000 H   0  0  0  0  0  0  0  0  0  0  0  0
    1.5904    0.9567    0.0000 H   0  0  0  0  0  0  0  0  0  0  0  0
    1.8034    1.0786    0.0000 H   0  0  0  0  0  0  0  0  0  0  0  0
    0.9049   -1.3334    0.0000 H   0  0  0  0  0  0  0  0  0  0  0  0
    0.3745   -0.9723    0.0000 H   0  0  0  0  0  0  0  0  0  0  0  0
    4.8706   -0.1210    0.0000 H   0  0  0  0  0  0  0  0  0  0  0  0
    3.9485    1.4866    0.0000 H   0  0  0  0  0  0  0  0  0  0  0  0
    4.8737    0.9490    0.0000 H   0  0  0  0  0  0  0  0  0  0  0  0
   -1.4141    1.7599    0.0000 H   0  0  0  0  0  0  0  0  0  0  0  0
   -4.7061   -0.3527    0.0000 H   0  0  0  0  0  0  0  0  0  0  0  0
   -4.3276   -1.4047    0.0000 H   0  0  0  0  0  0  0  0  0  0  0  0
   -3.8494   -2.2512    0.0000 H   0  0  0  0  0  0  0  0  0  0  0  0
   -2.7317   -2.2162    0.0000 H   0  0  0  0  0  0  0  0  0  0  0  0
   -1.7791   -2.0227    0.0000 H   0  0  0  0  0  0  0  0  0  0  0  0
   -1.4671   -0.9490    0.0000 H   0  0  0  0  0  0  0  0  0  0  0  0
   -2.4575   -1.3277    0.0000 H   0  0  0  0  0  0  0  0  0  0  0  0
   -1.4161    2.5863    0.0000 H   0  0  0  0  0  0  0  0  0  0  0  0
   -2.3442    3.1187    0.0000 H   0  0  0  0  0  0  0  0  0  0  0  0
   -2.1650    3.8028    0.0000 H   0  0  0  0  0  0  0  0  0  0  0  0
   -3.7774    4.7294    0.0000 H   0  0  0  0  0  0  0  0  0  0  0  0
   -5.3869    3.7940    0.0000 H   0  0  0  0  0  0  0  0  0  0  0  0
   -5.3764    1.9286    0.0000 H   0  0  0  0  0  0  0  0  0  0  0  0
   -3.7611    1.0106    0.0000 H   0  0  0  0  0  0  0  0  0  0  0  0
    1.1940    0.6450    0.0000 H   0  0  0  0  0  0  0  0  0  0  0  0
   -0.1102    1.9618    0.0000 H   0  0  0  0  0  0  0  0  0  0  0  0
    0.9220    1.6799    0.0000 H   0  0  0  0  0  0  0  0  0  0  0  0
  1  2  2  0  0  0  0
  1 46  1  0  0  0  0
  2  3  1  0  0  0  0
  2 47  1  0  0  0  0
  3  4  2  0  0  0  0
  3 48  1  0  0  0  0
  4  5  1  0  0  0  0
  5  6  1  0  0  0  0
  5 49  1  0  0  0  0
  6  7  2  0  0  0  0
  6 50  1  0  0  0  0
  7 10  1  0  0  0  0
  7  9  1  0  0  0  0
  8  1  1  0  0  0  0
  8  9  2  0  0  0  0
  8 11  1  0  0  0  0
  9  4  1  0  0  0  0
 10 12  1  0  0  0  0
 10 51  1  0  0  0  0
 10 52  1  0  0  0  0
 11 12  1  0  0  0  0
 11 16  2  0  0  0  0
 12 13  1  0  0  0  0
 12 20  1  1  0  0  0
 13 14  1  0  0  0  0
 13 19  1  0  0  0  0
 14 15  1  0  0  0  0
 14 53  1  0  0  0  0
 14 54  1  0  0  0  0
 15 16  1  0  0  0  0
 15 17  1  0  0  0  0
 15 55  1  6  0  0  0
 16 56  1  0  0  0  0
 17 18  1  0  0  0  0
 17 21  2  0  0  0  0
 18 57  1  0  0  0  0
 19 58  1  0  0  0  0
 19 59  1  0  0  0  0
 19 60  1  0  0  0  0
 22 23  1  0  0  0  0
 22 45  1  1  0  0  0
 22 18  1  0  0  0  0
 23 26  1  0  0  0  0
 23 36  2  0  0  0  0
 24 22  1  0  0  0  0
 25 24  1  0  0  0  0
 25 26  1  0  0  0  0
 25 29  1  0  0  0  0
 25 34  1  6  0  0  0
 26 27  1  0  0  0  0
 27 28  1  0  0  0  0
 27 38  1  0  0  0  0
 27 61  1  1  0  0  0
 28 30  1  0  0  0  0
 28 37  2  0  0  0  0
 29 30  1  0  0  0  0
 29 35  1  1  0  0  0
 30 31  1  0  0  0  0
 31 32  1  0  0  0  0
 31 62  1  0  0  0  0
 31 63  1  0  0  0  0
 32 33  1  0  0  0  0
 32 64  1  0  0  0  0
 32 65  1  0  0  0  0
 33 29  1  0  0  0  0
 33 66  1  0  0  0  0
 33 67  1  0  0  0  0
 34 68  1  0  0  0  0
 38 39  1  0  0  0  0
 38 69  1  0  0  0  0
 38 70  1  0  0  0  0
 39 40  2  0  0  0  0
 40 41  1  0  0  0  0
 40 71  1  0  0  0  0
 41 42  2  0  0  0  0
 41 72  1  0  0  0  0
 42 43  1  0  0  0  0
 42 73  1  0  0  0  0
 43 44  2  0  0  0  0
 43 74  1  0  0  0  0
 44 39  1  0  0  0  0
 44 75  1  0  0  0  0
 45 76  1  0  0  0  0
 45 77  1  0  0  0  0
 45 78  1  0  0  0  0
M  END
>  <DRUGBANK_ID>
DB00696

>  <SECONDARY_ACCESSION_NUMBERS>
APRD00677

>  <COMMON_NAME>
Ergotamine

>  <CAS_NUMBER>
113-15-5

>  <UNII>
PR834Q503T

>  <SYNONYMS>
(5'α)-12'-hydroxy-2'-methyl-5'-(phenylmethyl)ergotoman-3',6',18-trione; 12'-Hydroxy-2'-methyl-5'alpha-(phenylmethyl)ergotaman-3',6',18-trione; 12'-hydroxy-2'-methyl-5'α-(phenylmethyl)ergotaman-3',6',18-trione; Ergotamin; Ergotamina; Ergotamine; Ergotaminum

$$$$
