NNC
 OpenBabel10282417072D

 37 39  0  0  0  0  0  0  0  0999 V2000
    3.2894    7.5630    0.0000 C   0  0  0  0  0  0  0  0  0  0  0  0
    2.5750    7.1505    0.0000 C   0  0  0  0  0  0  0  0  0  0  0  0
    1.8605    7.5630    0.0000 C   0  0  0  0  0  0  0  0  0  0  0  0
    1.1460    7.1505    0.0000 Cl  0  0  0  0  0  0  0  0  0  0  0  0
    1.8605    8.3880    0.0000 C   0  0  0  0  0  0  0  0  0  0  0  0
    2.5750    8.8005    0.0000 C   0  0  0  0  0  0  0  0  0  0  0  0
    3.2894    8.3880    0.0000 C   0  0  0  0  0  0  0  0  0  0  0  0
    4.0039    8.8005    0.0000 N   0  0  0  0  0  0  0  0  0  0  0  0
    4.7184    8.3880    0.0000 C   0  0  0  0  0  0  0  0  0  0  0  0
    4.7184    7.5630    0.0000 S   0  0  0  0  0  0  0  0  0  0  0  0
    5.4329    8.8005    0.0000 O   0  0  0  0  0  0  0  0  0  0  0  0
    6.1473    8.3880    0.0000 C   0  0  0  0  0  0  0  0  0  0  0  0
    6.8618    8.8005    0.0000 C   0  0  0  0  0  0  0  0  0  0  0  0
    7.5763    8.3880    0.0000 N   0  0  0  0  0  0  0  0  0  0  0  0
    8.3299    8.7236    0.0000 C   0  0  0  0  0  0  0  0  0  0  0  0
    8.5015    9.5305    0.0000 O   0  0  0  0  0  0  0  0  0  0  0  0
    8.8820    8.1105    0.0000 C   0  0  0  0  0  0  0  0  0  0  0  0
    9.7070    8.1105    0.0000 C   0  0  0  0  0  0  0  0  0  0  0  0
   10.1195    7.3960    0.0000 C   0  0  0  0  0  0  0  0  0  0  0  0
    9.7070    6.6815    0.0000 C   0  0  0  0  0  0  0  0  0  0  0  0
    8.8820    6.6815    0.0000 C   0  0  0  0  0  0  0  0  0  0  0  0
    8.4695    7.3960    0.0000 C   0  0  0  0  0  0  0  0  0  0  0  0
    7.6625    7.5675    0.0000 C   0  0  0  0  0  0  0  0  0  0  0  0
    7.0494    7.0155    0.0000 O   0  0  0  0  0  0  0  0  0  0  0  0
    4.1831    7.0470    0.0000 H   0  0  0  0  0  0  0  0  0  0  0  0
    2.5750    6.1185    0.0000 H   0  0  0  0  0  0  0  0  0  0  0  0
    0.9668    8.9040    0.0000 H   0  0  0  0  0  0  0  0  0  0  0  0
    2.5750    9.8325    0.0000 H   0  0  0  0  0  0  0  0  0  0  0  0
    4.0039    9.7850    0.0000 H   0  0  0  0  0  0  0  0  0  0  0  0
    6.1473    7.3180    0.0000 H   0  0  0  0  0  0  0  0  0  0  0  0
    7.0739    7.8530    0.0000 H   0  0  0  0  0  0  0  0  0  0  0  0
    6.8618    9.8705    0.0000 H   0  0  0  0  0  0  0  0  0  0  0  0
    7.7884    9.3355    0.0000 H   0  0  0  0  0  0  0  0  0  0  0  0
   10.2230    9.0042    0.0000 H   0  0  0  0  0  0  0  0  0  0  0  0
   11.1515    7.3960    0.0000 H   0  0  0  0  0  0  0  0  0  0  0  0
   10.2230    5.7878    0.0000 H   0  0  0  0  0  0  0  0  0  0  0  0
    8.3660    5.7878    0.0000 H   0  0  0  0  0  0  0  0  0  0  0  0
  1  2  1  0  0  0  0
  1  7  2  0  0  0  0
  1 25  1  0  0  0  0
  2  3  2  0  0  0  0
  2 26  1  0  0  0  0
  3  4  1  0  0  0  0
  3  5  1  0  0  0  0
  5  6  2  0  0  0  0
  5 27  1  0  0  0  0
  6  7  1  0  0  0  0
  6 28  1  0  0  0  0
  7  8  1  0  0  0  0
  8  9  1  0  0  0  0
  8 29  1  0  0  0  0
  9 10  2  0  0  0  0
  9 11  1  0  0  0  0
 11 12  1  0  0  0  0
 12 13  1  0  0  0  0
 12 30  1  0  0  0  0
 12 31  1  0  0  0  0
 13 14  1  0  0  0  0
 13 32  1  0  0  0  0
 13 33  1  0  0  0  0
 14 15  1  0  0  0  0
 14 23  1  0  0  0  0
 15 16  2  0  0  0  0
 15 17  1  0  0  0  0
 17 18  1  0  0  0  0
 17 22  2  0  0  0  0
 18 19  2  0  0  0  0
 18 34  1  0  0  0  0
 19 20  1  0  0  0  0
 19 35  1  0  0  0  0
 20 21  2  0  0  0  0
 20 36  1  0  0  0  0
 21 22  1  0  0  0  0
 21 37  1  0  0  0  0
 22 23  1  0  0  0  0
 23 24  2  0  0  0  0
M  END
>  <DRUGBANK_ID>
DB08282

>  <COMMON_NAME>
O-[2-(1,3-dioxo-1,3-dihydro-2H-isoindol-2-yl)ethyl] (4-chlorophenyl)thiocarbamate

$$$$
