235
 OpenBabel10282417072D

 25 26  0  0  0  0  0  0  0  0999 V2000
    5.9370   -1.1880    0.0000 O   0  0  0  0  0  0  0  0  0  0  0  0
    4.5080   -1.1880    0.0000 N   0  0  0  0  0  0  0  0  0  0  0  0
    1.6500    1.2870    0.0000 N   0  0  0  0  0  0  0  0  0  0  0  0
    6.6515    0.8745    0.0000 N   0  0  0  0  0  0  0  0  0  0  0  0
    3.7935    0.0495    0.0000 C   0  0  0  0  0  0  0  0  0  0  0  0
    3.7935   -0.7755    0.0000 C   0  0  0  0  0  0  0  0  0  0  0  0
    3.0791    0.4620    0.0000 C   0  0  0  0  0  0  0  0  0  0  0  0
    4.5080    0.4620    0.0000 C   0  0  0  0  0  0  0  0  0  0  0  0
    5.2224    0.0495    0.0000 C   0  0  0  0  0  0  0  0  0  0  0  0
    3.0791   -1.1880    0.0000 C   0  0  0  0  0  0  0  0  0  0  0  0
    5.2224   -0.7755    0.0000 C   0  0  0  0  0  0  0  0  0  0  0  0
    2.3645    0.0495    0.0000 C   0  0  0  0  0  0  0  0  0  0  0  0
    3.0791    1.2870    0.0000 C   0  0  0  0  0  0  0  0  0  0  0  0
    1.6500    0.4620    0.0000 C   0  0  0  0  0  0  0  0  0  0  0  0
    2.3645    1.6995    0.0000 C   0  0  0  0  0  0  0  0  0  0  0  0
    5.9370    0.4620    0.0000 C   0  0  0  0  0  0  0  0  0  0  0  0
    4.5080   -2.1725    0.0000 H   0  0  0  0  0  0  0  0  0  0  0  0
    4.5080    1.4940    0.0000 H   0  0  0  0  0  0  0  0  0  0  0  0
    2.1524   -0.6530    0.0000 H   0  0  0  0  0  0  0  0  0  0  0  0
    3.0791   -2.2580    0.0000 H   0  0  0  0  0  0  0  0  0  0  0  0
    2.1525   -1.7230    0.0000 H   0  0  0  0  0  0  0  0  0  0  0  0
    2.3645   -0.9825    0.0000 H   0  0  0  0  0  0  0  0  0  0  0  0
    3.9728    1.8030    0.0000 H   0  0  0  0  0  0  0  0  0  0  0  0
    0.7563   -0.0540    0.0000 H   0  0  0  0  0  0  0  0  0  0  0  0
    2.3645    2.7315    0.0000 H   0  0  0  0  0  0  0  0  0  0  0  0
  1 11  2  0  0  0  0
  2  6  1  0  0  0  0
  2 11  1  0  0  0  0
  2 17  1  0  0  0  0
  3 14  2  0  0  0  0
  3 15  1  0  0  0  0
  4 16  3  0  0  0  0
  5  6  2  0  0  0  0
  5  7  1  0  0  0  0
  5  8  1  0  0  0  0
  6 10  1  0  0  0  0
  7 12  2  0  0  0  0
  7 13  1  0  0  0  0
  8  9  2  0  0  0  0
  8 18  1  0  0  0  0
  9 11  1  0  0  0  0
  9 16  1  0  0  0  0
 10 19  1  0  0  0  0
 10 20  1  0  0  0  0
 10 21  1  0  0  0  0
 12 14  1  0  0  0  0
 12 22  1  0  0  0  0
 13 15  2  0  0  0  0
 13 23  1  0  0  0  0
 14 24  1  0  0  0  0
 15 25  1  0  0  0  0
M  END
>  <DRUGBANK_ID>
DB00235

>  <SECONDARY_ACCESSION_NUMBERS>
APRD00010

>  <COMMON_NAME>
Milrinone

>  <CAS_NUMBER>
78415-72-2

>  <UNII>
JU9YAX04C7

>  <SYNONYMS>
1,6-Dihydro-2-methyl-6-oxo(3,4'-bipyridine)-5-carbonitrile; Milrinona; Milrinone; Milrinonum

$$$$
