1074
 OpenBabel10282417072D

 55 57  0  0  1  0  0  0  0  0999 V2000
    5.9370   -0.8250    0.0000 N   0  0  0  0  0  0  0  0  0  0  0  0
    3.7935   -0.4125    0.0000 C   0  0  0  0  0  0  0  0  0  0  0  0
    3.0791   -0.8250    0.0000 C   0  0  0  0  0  0  0  0  0  0  0  0
    3.7935    0.4125    0.0000 C   0  0  0  0  0  0  0  0  0  0  0  0
    4.5080   -0.8250    0.0000 C   0  0  0  0  0  0  0  0  0  0  0  0
    3.0791   -1.6500    0.0000 C   0  0  0  0  0  0  0  0  0  0  0  0
    2.3645   -0.4125    0.0000 C   0  0  0  0  0  0  0  0  0  0  0  0
    4.5080    0.8250    0.0000 C   0  0  0  0  0  0  0  0  0  0  0  0
    3.0791    0.8250    0.0000 C   0  0  0  0  0  0  0  0  0  0  0  0
    5.2224   -0.4125    0.0000 C   0  0  3  0  0  0  0  0  0  0  0  0
    2.3645   -2.0625    0.0000 C   0  0  0  0  0  0  0  0  0  0  0  0
    1.6500   -0.8250    0.0000 C   0  0  0  0  0  0  0  0  0  0  0  0
    4.5080    1.6500    0.0000 C   0  0  0  0  0  0  0  0  0  0  0  0
    3.0791    1.6500    0.0000 C   0  0  0  0  0  0  0  0  0  0  0  0
    1.6500   -1.6500    0.0000 C   0  0  0  0  0  0  0  0  0  0  0  0
    3.7935    2.0625    0.0000 C   0  0  0  0  0  0  0  0  0  0  0  0
    5.2224    0.4125    0.0000 C   0  0  0  0  0  0  0  0  0  0  0  0
    5.9370    0.8250    0.0000 C   0  0  0  0  0  0  0  0  0  0  0  0
    6.6515   -0.4125    0.0000 C   0  0  0  0  0  0  0  0  0  0  0  0
    6.6515    0.4125    0.0000 C   0  0  0  0  0  0  0  0  0  0  0  0
    5.9370   -1.8450    0.0000 H   0  0  0  0  0  0  0  0  0  0  0  0
    4.7201    0.1225    0.0000 H   0  0  0  0  0  0  0  0  0  0  0  0
    2.1525   -1.3600    0.0000 H   0  0  0  0  0  0  0  0  0  0  0  0
    3.7935    1.4825    0.0000 H   0  0  0  0  0  0  0  0  0  0  0  0
    4.5080   -1.8950    0.0000 H   0  0  0  0  0  0  0  0  0  0  0  0
    5.4347   -1.3600    0.0000 H   0  0  0  0  0  0  0  0  0  0  0  0
    4.0057   -2.1850    0.0000 H   0  0  0  0  0  0  0  0  0  0  0  0
    3.0790   -2.7200    0.0000 H   0  0  0  0  0  0  0  0  0  0  0  0
    2.3645    0.6575    0.0000 H   0  0  0  0  0  0  0  0  0  0  0  0
    1.4378    0.1225    0.0000 H   0  0  0  0  0  0  0  0  0  0  0  0
    5.4346    0.2900    0.0000 H   0  0  0  0  0  0  0  0  0  0  0  0
    5.4346    1.3600    0.0000 H   0  0  0  0  0  0  0  0  0  0  0  0
    2.1524    0.2900    0.0000 H   0  0  0  0  0  0  0  0  0  0  0  0
    2.1525    1.3600    0.0000 H   0  0  0  0  0  0  0  0  0  0  0  0
    5.2225   -1.4825    0.0000 H   0  0  0  0  0  0  0  0  0  0  0  0
    2.3645   -3.1325    0.0000 H   0  0  0  0  0  0  0  0  0  0  0  0
    1.4378   -2.5975    0.0000 H   0  0  0  0  0  0  0  0  0  0  0  0
    0.7234   -0.2900    0.0000 H   0  0  0  0  0  0  0  0  0  0  0  0
    0.7234   -1.3600    0.0000 H   0  0  0  0  0  0  0  0  0  0  0  0
    5.4346    2.1850    0.0000 H   0  0  0  0  0  0  0  0  0  0  0  0
    4.5080    2.7200    0.0000 H   0  0  0  0  0  0  0  0  0  0  0  0
    2.1524    2.1850    0.0000 H   0  0  0  0  0  0  0  0  0  0  0  0
    3.0791    2.7200    0.0000 H   0  0  0  0  0  0  0  0  0  0  0  0
    0.7234   -2.1850    0.0000 H   0  0  0  0  0  0  0  0  0  0  0  0
    0.7234   -1.1150    0.0000 H   0  0  0  0  0  0  0  0  0  0  0  0
    3.7935    3.1325    0.0000 H   0  0  0  0  0  0  0  0  0  0  0  0
    2.8668    2.5975    0.0000 H   0  0  0  0  0  0  0  0  0  0  0  0
    4.2958    0.9475    0.0000 H   0  0  0  0  0  0  0  0  0  0  0  0
    5.2225    1.4825    0.0000 H   0  0  0  0  0  0  0  0  0  0  0  0
    5.9370    1.8950    0.0000 H   0  0  0  0  0  0  0  0  0  0  0  0
    6.8637    1.3600    0.0000 H   0  0  0  0  0  0  0  0  0  0  0  0
    7.5781   -0.9475    0.0000 H   0  0  0  0  0  0  0  0  0  0  0  0
    7.5781    0.1225    0.0000 H   0  0  0  0  0  0  0  0  0  0  0  0
    7.5781    0.9475    0.0000 H   0  0  0  0  0  0  0  0  0  0  0  0
    7.5781   -0.1225    0.0000 H   0  0  0  0  0  0  0  0  0  0  0  0
  1 10  1  0  0  0  0
  1 19  1  0  0  0  0
  1 21  1  0  0  0  0
  2  3  1  0  0  0  0
  2  4  1  0  0  0  0
  2  5  1  0  0  0  0
  2 22  1  0  0  0  0
  3  6  1  0  0  0  0
  3  7  1  0  0  0  0
  3 23  1  0  0  0  0
  4  8  1  0  0  0  0
  4  9  1  0  0  0  0
  4 24  1  0  0  0  0
  5 10  1  0  0  0  0
  5 25  1  0  0  0  0
  5 26  1  0  0  0  0
  6 11  1  0  0  0  0
  6 27  1  0  0  0  0
  6 28  1  0  0  0  0
  7 12  1  0  0  0  0
  7 29  1  0  0  0  0
  7 30  1  0  0  0  0
  8 13  1  0  0  0  0
  8 31  1  0  0  0  0
  8 32  1  0  0  0  0
  9 14  1  0  0  0  0
  9 33  1  0  0  0  0
  9 34  1  0  0  0  0
 10 17  1  0  0  0  0
 10 35  1  0  0  0  0
 11 15  1  0  0  0  0
 11 36  1  0  0  0  0
 11 37  1  0  0  0  0
 12 15  1  0  0  0  0
 12 38  1  0  0  0  0
 12 39  1  0  0  0  0
 13 16  1  0  0  0  0
 13 40  1  0  0  0  0
 13 41  1  0  0  0  0
 14 16  1  0  0  0  0
 14 42  1  0  0  0  0
 14 43  1  0  0  0  0
 15 44  1  0  0  0  0
 15 45  1  0  0  0  0
 16 46  1  0  0  0  0
 16 47  1  0  0  0  0
 17 18  1  0  0  0  0
 17 48  1  0  0  0  0
 17 49  1  0  0  0  0
 18 20  1  0  0  0  0
 18 50  1  0  0  0  0
 18 51  1  0  0  0  0
 19 20  1  0  0  0  0
 19 52  1  0  0  0  0
 19 53  1  0  0  0  0
 20 54  1  0  0  0  0
 20 55  1  0  0  0  0
M  END
>  <DRUGBANK_ID>
DB01074

>  <SECONDARY_ACCESSION_NUMBERS>
APRD00107

>  <COMMON_NAME>
Perhexiline

>  <CAS_NUMBER>
6621-47-2

>  <UNII>
KU65374X44

>  <SYNONYMS>
Perhexilene; Perhexilina; Perhexiline; Perhexilinum

$$$$
