483
 OpenBabel10282417072D

 99 96  0  0  0  0  0  0  0  0999 V2000
    6.6515   -0.2063    0.0000 O   0  0  0  0  0  0  0  0  0  0  0  0
    8.0804   -1.0313    0.0000 O   0  0  0  0  0  0  0  0  0  0  0  0
    5.2224   -1.0313    0.0000 O   0  0  0  0  0  0  0  0  0  0  0  0
    8.0804    1.4438    0.0000 N   0  3  0  0  0  0  0  0  0  0  0  0
   10.2239   -1.4438    0.0000 N   0  3  0  0  0  0  0  0  0  0  0  0
    3.0791   -1.4438    0.0000 N   0  3  0  0  0  0  0  0  0  0  0  0
    7.3659    1.0313    0.0000 C   0  0  0  0  0  0  0  0  0  0  0  0
    9.5094   -1.0313    0.0000 C   0  0  0  0  0  0  0  0  0  0  0  0
    3.7935   -1.0313    0.0000 C   0  0  0  0  0  0  0  0  0  0  0  0
    7.3659    0.2063    0.0000 C   0  0  0  0  0  0  0  0  0  0  0  0
    8.0804    2.2688    0.0000 C   0  0  0  0  0  0  0  0  0  0  0  0
    8.7949    1.0313    0.0000 C   0  0  0  0  0  0  0  0  0  0  0  0
    8.7949   -1.4438    0.0000 C   0  0  0  0  0  0  0  0  0  0  0  0
    4.5080   -1.4438    0.0000 C   0  0  0  0  0  0  0  0  0  0  0  0
   10.9383   -1.0313    0.0000 C   0  0  0  0  0  0  0  0  0  0  0  0
   10.2239   -2.2688    0.0000 C   0  0  0  0  0  0  0  0  0  0  0  0
    2.3645   -1.0313    0.0000 C   0  0  0  0  0  0  0  0  0  0  0  0
    3.0791   -2.2688    0.0000 C   0  0  0  0  0  0  0  0  0  0  0  0
    6.6515   -1.0313    0.0000 C   0  0  0  0  0  0  0  0  0  0  0  0
    7.3659   -1.4438    0.0000 C   0  0  0  0  0  0  0  0  0  0  0  0
    5.9370   -1.4438    0.0000 C   0  0  0  0  0  0  0  0  0  0  0  0
    8.7949    2.6813    0.0000 C   0  0  0  0  0  0  0  0  0  0  0  0
    9.5094    1.4438    0.0000 C   0  0  0  0  0  0  0  0  0  0  0  0
   11.6529   -1.4438    0.0000 C   0  0  0  0  0  0  0  0  0  0  0  0
   10.9383   -2.6813    0.0000 C   0  0  0  0  0  0  0  0  0  0  0  0
    1.6500   -1.4438    0.0000 C   0  0  0  0  0  0  0  0  0  0  0  0
    2.3645   -2.6813    0.0000 C   0  0  0  0  0  0  0  0  0  0  0  0
    7.3659   -2.2688    0.0000 C   0  0  0  0  0  0  0  0  0  0  0  0
    5.9370   -2.2688    0.0000 C   0  0  0  0  0  0  0  0  0  0  0  0
    6.6515   -2.6813    0.0000 C   0  0  0  0  0  0  0  0  0  0  0  0
    3.0791   -0.6188    0.0000 C   0  0  0  0  0  0  0  0  0  0  0  0
    2.3646   -0.2063    0.0000 C   0  0  0  0  0  0  0  0  0  0  0  0
    7.3659    1.8563    0.0000 C   0  0  0  0  0  0  0  0  0  0  0  0
    7.3659    2.6813    0.0000 C   0  0  0  0  0  0  0  0  0  0  0  0
   10.2239   -0.6188    0.0000 C   0  0  0  0  0  0  0  0  0  0  0  0
   10.9384   -0.2063    0.0000 C   0  0  0  0  0  0  0  0  0  0  0  0
    3.4767    0.7103    0.0000 I   0  5  0  0  0  0  0  0  0  0  0  0
   10.3552    2.1682    0.0000 I   0  5  0  0  0  0  0  0  0  0  0  0
    9.6449   -2.7290    0.0000 I   0  5  0  0  0  0  0  0  0  0  0  0
    6.4393    1.5663    0.0000 H   0  0  0  0  0  0  0  0  0  0  0  0
    6.4393    0.4963    0.0000 H   0  0  0  0  0  0  0  0  0  0  0  0
    9.5094    0.0387    0.0000 H   0  0  0  0  0  0  0  0  0  0  0  0
    8.5828   -0.4963    0.0000 H   0  0  0  0  0  0  0  0  0  0  0  0
    3.7935    0.0387    0.0000 H   0  0  0  0  0  0  0  0  0  0  0  0
    4.7201   -0.4963    0.0000 H   0  0  0  0  0  0  0  0  0  0  0  0
    8.2926   -0.3286    0.0000 H   0  0  0  0  0  0  0  0  0  0  0  0
    8.2925    0.7413    0.0000 H   0  0  0  0  0  0  0  0  0  0  0  0
    7.1538    2.8038    0.0000 H   0  0  0  0  0  0  0  0  0  0  0  0
    8.0804    3.3388    0.0000 H   0  0  0  0  0  0  0  0  0  0  0  0
    8.7949   -0.0387    0.0000 H   0  0  0  0  0  0  0  0  0  0  0  0
    9.7215    0.4963    0.0000 H   0  0  0  0  0  0  0  0  0  0  0  0
    8.7949   -2.5138    0.0000 H   0  0  0  0  0  0  0  0  0  0  0  0
    9.7215   -1.9788    0.0000 H   0  0  0  0  0  0  0  0  0  0  0  0
    4.5080   -2.5138    0.0000 H   0  0  0  0  0  0  0  0  0  0  0  0
    3.5814   -1.9788    0.0000 H   0  0  0  0  0  0  0  0  0  0  0  0
   10.9382    0.0387    0.0000 H   0  0  0  0  0  0  0  0  0  0  0  0
   11.8649   -0.4962    0.0000 H   0  0  0  0  0  0  0  0  0  0  0  0
    9.2972   -2.8038    0.0000 H   0  0  0  0  0  0  0  0  0  0  0  0
   10.2239   -3.3388    0.0000 H   0  0  0  0  0  0  0  0  0  0  0  0
    2.3645    0.0387    0.0000 H   0  0  0  0  0  0  0  0  0  0  0  0
    1.4378   -0.4963    0.0000 H   0  0  0  0  0  0  0  0  0  0  0  0
    4.0057   -2.8038    0.0000 H   0  0  0  0  0  0  0  0  0  0  0  0
    3.0790   -3.3388    0.0000 H   0  0  0  0  0  0  0  0  0  0  0  0
    9.7215    2.1463    0.0000 H   0  0  0  0  0  0  0  0  0  0  0  0
    8.7949    3.7513    0.0000 H   0  0  0  0  0  0  0  0  0  0  0  0
    9.7216    3.2163    0.0000 H   0  0  0  0  0  0  0  0  0  0  0  0
   10.4360    0.9088    0.0000 H   0  0  0  0  0  0  0  0  0  0  0  0
    9.5094    2.5138    0.0000 H   0  0  0  0  0  0  0  0  0  0  0  0
   10.4361    1.9788    0.0000 H   0  0  0  0  0  0  0  0  0  0  0  0
   11.6530   -2.5138    0.0000 H   0  0  0  0  0  0  0  0  0  0  0  0
   12.5795   -0.9087    0.0000 H   0  0  0  0  0  0  0  0  0  0  0  0
   12.5796   -1.9787    0.0000 H   0  0  0  0  0  0  0  0  0  0  0  0
   10.9383   -3.7513    0.0000 H   0  0  0  0  0  0  0  0  0  0  0  0
   11.8650   -2.1463    0.0000 H   0  0  0  0  0  0  0  0  0  0  0  0
   11.8649   -3.2163    0.0000 H   0  0  0  0  0  0  0  0  0  0  0  0
    0.7234   -0.9088    0.0000 H   0  0  0  0  0  0  0  0  0  0  0  0
    1.6500   -2.5138    0.0000 H   0  0  0  0  0  0  0  0  0  0  0  0
    0.7233   -1.9788    0.0000 H   0  0  0  0  0  0  0  0  0  0  0  0
    1.4379   -2.1462    0.0000 H   0  0  0  0  0  0  0  0  0  0  0  0
    2.3644   -3.7513    0.0000 H   0  0  0  0  0  0  0  0  0  0  0  0
    1.4378   -3.2162    0.0000 H   0  0  0  0  0  0  0  0  0  0  0  0
    8.2596   -2.7848    0.0000 H   0  0  0  0  0  0  0  0  0  0  0  0
    5.0433   -2.7848    0.0000 H   0  0  0  0  0  0  0  0  0  0  0  0
    6.6515   -3.7133    0.0000 H   0  0  0  0  0  0  0  0  0  0  0  0
    4.0057   -0.0838    0.0000 H   0  0  0  0  0  0  0  0  0  0  0  0
    3.0791    0.4512    0.0000 H   0  0  0  0  0  0  0  0  0  0  0  0
    2.3646    0.8637    0.0000 H   0  0  0  0  0  0  0  0  0  0  0  0
    1.4380   -0.7413    0.0000 H   0  0  0  0  0  0  0  0  0  0  0  0
    1.4379    0.3287    0.0000 H   0  0  0  0  0  0  0  0  0  0  0  0
    6.4393    1.3213    0.0000 H   0  0  0  0  0  0  0  0  0  0  0  0
    6.4393    2.3913    0.0000 H   0  0  0  0  0  0  0  0  0  0  0  0
    8.2925    3.2163    0.0000 H   0  0  0  0  0  0  0  0  0  0  0  0
    6.4393    3.2163    0.0000 H   0  0  0  0  0  0  0  0  0  0  0  0
    7.3659    3.7513    0.0000 H   0  0  0  0  0  0  0  0  0  0  0  0
    9.2973   -0.0838    0.0000 H   0  0  0  0  0  0  0  0  0  0  0  0
   10.2239    0.4512    0.0000 H   0  0  0  0  0  0  0  0  0  0  0  0
   11.8650   -0.7413    0.0000 H   0  0  0  0  0  0  0  0  0  0  0  0
   10.9384    0.8637    0.0000 H   0  0  0  0  0  0  0  0  0  0  0  0
   11.8651    0.3287    0.0000 H   0  0  0  0  0  0  0  0  0  0  0  0
  1 10  1  0  0  0  0
  1 19  1  0  0  0  0
  2 13  1  0  0  0  0
  2 20  1  0  0  0  0
  3 14  1  0  0  0  0
  3 21  1  0  0  0  0
  4  7  1  0  0  0  0
  4 11  1  0  0  0  0
  4 12  1  0  0  0  0
  4 33  1  0  0  0  0
  5  8  1  0  0  0  0
  5 15  1  0  0  0  0
  5 16  1  0  0  0  0
  5 35  1  0  0  0  0
  6  9  1  0  0  0  0
  6 17  1  0  0  0  0
  6 18  1  0  0  0  0
  6 31  1  0  0  0  0
  7 10  1  0  0  0  0
  7 40  1  0  0  0  0
  7 41  1  0  0  0  0
  8 13  1  0  0  0  0
  8 42  1  0  0  0  0
  8 43  1  0  0  0  0
  9 14  1  0  0  0  0
  9 44  1  0  0  0  0
  9 45  1  0  0  0  0
 10 46  1  0  0  0  0
 10 47  1  0  0  0  0
 11 22  1  0  0  0  0
 11 48  1  0  0  0  0
 11 49  1  0  0  0  0
 12 23  1  0  0  0  0
 12 50  1  0  0  0  0
 12 51  1  0  0  0  0
 13 52  1  0  0  0  0
 13 53  1  0  0  0  0
 14 54  1  0  0  0  0
 14 55  1  0  0  0  0
 15 24  1  0  0  0  0
 15 56  1  0  0  0  0
 15 57  1  0  0  0  0
 16 25  1  0  0  0  0
 16 58  1  0  0  0  0
 16 59  1  0  0  0  0
 17 26  1  0  0  0  0
 17 60  1  0  0  0  0
 17 61  1  0  0  0  0
 18 27  1  0  0  0  0
 18 62  1  0  0  0  0
 18 63  1  0  0  0  0
 19 20  2  0  0  0  0
 19 21  1  0  0  0  0
 20 28  1  0  0  0  0
 21 29  2  0  0  0  0
 22 64  1  0  0  0  0
 22 65  1  0  0  0  0
 22 66  1  0  0  0  0
 23 67  1  0  0  0  0
 23 68  1  0  0  0  0
 23 69  1  0  0  0  0
 24 70  1  0  0  0  0
 24 71  1  0  0  0  0
 24 72  1  0  0  0  0
 25 73  1  0  0  0  0
 25 74  1  0  0  0  0
 25 75  1  0  0  0  0
 26 76  1  0  0  0  0
 26 77  1  0  0  0  0
 26 78  1  0  0  0  0
 27 79  1  0  0  0  0
 27 80  1  0  0  0  0
 27 81  1  0  0  0  0
 28 30  2  0  0  0  0
 28 82  1  0  0  0  0
 29 30  1  0  0  0  0
 29 83  1  0  0  0  0
 30 84  1  0  0  0  0
 31 32  1  0  0  0  0
 31 85  1  0  0  0  0
 31 86  1  0  0  0  0
 32 87  1  0  0  0  0
 32 88  1  0  0  0  0
 32 89  1  0  0  0  0
 33 34  1  0  0  0  0
 33 90  1  0  0  0  0
 33 91  1  0  0  0  0
 34 92  1  0  0  0  0
 34 93  1  0  0  0  0
 34 94  1  0  0  0  0
 35 36  1  0  0  0  0
 35 95  1  0  0  0  0
 35 96  1  0  0  0  0
 36 97  1  0  0  0  0
 36 98  1  0  0  0  0
 36 99  1  0  0  0  0
M  CHG  6   4   1   5   1   6   1  37  -1  38  -1  39  -1
M  END
>  <DRUGBANK_ID>
DB00483

>  <SECONDARY_ACCESSION_NUMBERS>
APRD00712

>  <COMMON_NAME>
Gallamine triethiodide

>  <CAS_NUMBER>
65-29-2

>  <UNII>
Q3254X40X2

>  <SYNONYMS>
Gallamin triethiodid; Gallamine triethiodide; Gallamini Triethiodidum; Tri√©thiodure de Gallamine; Trietioduro de galamina

$$$$
