ATX
 OpenBabel10282417072D

 29 29  0  0  0  0  0  0  0  0999 V2000
    0.6543   -2.7287    0.0000 N   0  0  0  0  0  0  0  0  0  0  0  0
    0.1694   -2.0612    0.0000 C   0  0  2  0  0  0  0  0  0  0  0  0
    0.5050   -1.3076    0.0000 C   0  0  0  0  0  0  0  0  0  0  0  0
    1.3255   -1.2213    0.0000 O   0  0  0  0  0  0  0  0  0  0  0  0
   -0.6511   -2.1475    0.0000 C   0  0  0  0  0  0  0  0  0  0  0  0
    0.0201   -0.6401    0.0000 C   0  0  0  0  0  0  0  0  0  0  0  0
   -0.8049   -0.6401    0.0000 N   0  0  0  0  0  0  0  0  0  0  0  0
   -1.0599    0.1445    0.0000 N   0  0  0  0  0  0  0  0  0  0  0  0
   -0.3924    0.6294    0.0000 C   0  0  0  0  0  0  0  0  0  0  0  0
    0.2750    0.1445    0.0000 O   0  0  0  0  0  0  0  0  0  0  0  0
   -0.3924    1.4544    0.0000 C   0  0  0  0  0  0  0  0  0  0  0  0
   -0.3924    2.2794    0.0000 C   0  0  0  0  0  0  0  0  0  0  0  0
    0.4326    1.4544    0.0000 C   0  0  0  0  0  0  0  0  0  0  0  0
   -1.2174    1.4544    0.0000 C   0  0  0  0  0  0  0  0  0  0  0  0
    0.7502   -2.0002    0.0000 H   0  0  0  0  0  0  0  0  0  0  0  0
    0.2394   -3.6605    0.0000 H   0  0  0  0  0  0  0  0  0  0  0  0
    1.6687   -2.6221    0.0000 H   0  0  0  0  0  0  0  0  0  0  0  0
   -1.2801   -1.2819    0.0000 H   0  0  0  0  0  0  0  0  0  0  0  0
   -1.0862   -3.1250    0.0000 H   0  0  0  0  0  0  0  0  0  0  0  0
   -1.7152   -2.2594    0.0000 H   0  0  0  0  0  0  0  0  0  0  0  0
    0.5342    2.8144    0.0000 H   0  0  0  0  0  0  0  0  0  0  0  0
   -1.3190    2.8144    0.0000 H   0  0  0  0  0  0  0  0  0  0  0  0
   -0.3924    3.3494    0.0000 H   0  0  0  0  0  0  0  0  0  0  0  0
    0.9676    0.5278    0.0000 H   0  0  0  0  0  0  0  0  0  0  0  0
    0.9676    2.3810    0.0000 H   0  0  0  0  0  0  0  0  0  0  0  0
    1.5026    1.4544    0.0000 H   0  0  0  0  0  0  0  0  0  0  0  0
   -1.7524    2.3810    0.0000 H   0  0  0  0  0  0  0  0  0  0  0  0
   -1.7524    0.5278    0.0000 H   0  0  0  0  0  0  0  0  0  0  0  0
   -2.2874    1.4544    0.0000 H   0  0  0  0  0  0  0  0  0  0  0  0
  1 16  1  0  0  0  0
  1 17  1  0  0  0  0
  2  1  1  0  0  0  0
  2  3  1  0  0  0  0
  2  5  1  0  0  0  0
  2 15  1  6  0  0  0
  3  4  2  0  0  0  0
  3  6  1  0  0  0  0
  5 18  1  0  0  0  0
  5 19  1  0  0  0  0
  5 20  1  0  0  0  0
  6  7  2  0  0  0  0
  6 10  1  0  0  0  0
  7  8  1  0  0  0  0
  8  9  2  0  0  0  0
  9 10  1  0  0  0  0
  9 11  1  0  0  0  0
 11 12  1  0  0  0  0
 11 13  1  0  0  0  0
 11 14  1  0  0  0  0
 12 21  1  0  0  0  0
 12 22  1  0  0  0  0
 12 23  1  0  0  0  0
 13 24  1  0  0  0  0
 13 25  1  0  0  0  0
 13 26  1  0  0  0  0
 14 27  1  0  0  0  0
 14 28  1  0  0  0  0
 14 29  1  0  0  0  0
M  END
>  <DRUGBANK_ID>
DB07391

>  <COMMON_NAME>
(2S)-2-AMINO-1-(5-TERT-BUTYL-1,3,4-OXADIAZOL-2-YL)PROPAN-1-ONE

$$$$
