BIT
 OpenBabel10282417072D

 38 41  0  0  0  0  0  0  0  0999 V2000
    0.3399    2.1503    0.0000 O   0  0  0  0  0  0  0  0  0  0  0  0
    0.3399    1.3253    0.0000 C   0  0  0  0  0  0  0  0  0  0  0  0
    1.0544    0.9128    0.0000 C   0  0  0  0  0  0  0  0  0  0  0  0
    1.7689    1.3253    0.0000 C   0  0  0  0  0  0  0  0  0  0  0  0
    2.4833    0.9128    0.0000 C   0  0  0  0  0  0  0  0  0  0  0  0
    3.1978    1.3253    0.0000 C   0  0  0  0  0  0  0  0  0  0  0  0
    2.4833    0.0878    0.0000 C   0  0  0  0  0  0  0  0  0  0  0  0
    1.0544    0.0878    0.0000 C   0  0  0  0  0  0  0  0  0  0  0  0
    1.7689   -0.3247    0.0000 C   0  0  0  0  0  0  0  0  0  0  0  0
   -0.3745    0.9128    0.0000 C   0  0  2  0  0  0  0  0  0  0  0  0
   -0.3745    0.0878    0.0000 C   0  0  0  0  0  0  0  0  0  0  0  0
    0.3399   -0.3247    0.0000 N   0  0  0  0  0  0  0  0  0  0  0  0
   -0.4608    1.7333    0.0000 O   0  0  0  0  0  0  0  0  0  0  0  0
   -1.1592    1.1678    0.0000 C   0  0  0  0  0  0  0  0  0  0  0  0
   -1.6441    0.5003    0.0000 C   0  0  0  0  0  0  0  0  0  0  0  0
   -1.1592   -0.1671    0.0000 N   0  0  0  0  0  0  0  0  0  0  0  0
   -1.4141   -0.9517    0.0000 C   0  0  0  0  0  0  0  0  0  0  0  0
   -0.8621   -1.5648    0.0000 C   0  0  0  0  0  0  0  0  0  0  0  0
   -1.1170   -2.3494    0.0000 C   0  0  0  0  0  0  0  0  0  0  0  0
   -1.9240   -2.5210    0.0000 C   0  0  0  0  0  0  0  0  0  0  0  0
   -2.4760   -1.9079    0.0000 C   0  0  0  0  0  0  0  0  0  0  0  0
   -2.2211   -1.1232    0.0000 C   0  0  0  0  0  0  0  0  0  0  0  0
    1.7689    2.3573    0.0000 H   0  0  0  0  0  0  0  0  0  0  0  0
    4.1244    0.7903    0.0000 H   0  0  0  0  0  0  0  0  0  0  0  0
    3.1978    2.3953    0.0000 H   0  0  0  0  0  0  0  0  0  0  0  0
    4.1245    1.8603    0.0000 H   0  0  0  0  0  0  0  0  0  0  0  0
    3.3770   -0.4282    0.0000 H   0  0  0  0  0  0  0  0  0  0  0  0
    1.7689   -1.3567    0.0000 H   0  0  0  0  0  0  0  0  0  0  0  0
    0.3239    2.3035    0.0000 H   0  0  0  0  0  0  0  0  0  0  0  0
   -1.4899    2.1854    0.0000 H   0  0  0  0  0  0  0  0  0  0  0  0
   -2.2160    1.3351    0.0000 H   0  0  0  0  0  0  0  0  0  0  0  0
   -2.7141    0.5003    0.0000 H   0  0  0  0  0  0  0  0  0  0  0  0
   -2.1299   -0.4531    0.0000 H   0  0  0  0  0  0  0  0  0  0  0  0
    0.1473   -1.3502    0.0000 H   0  0  0  0  0  0  0  0  0  0  0  0
   -0.4264   -3.1163    0.0000 H   0  0  0  0  0  0  0  0  0  0  0  0
   -2.2429   -3.5025    0.0000 H   0  0  0  0  0  0  0  0  0  0  0  0
   -3.4854   -2.1225    0.0000 H   0  0  0  0  0  0  0  0  0  0  0  0
   -2.9117   -0.3563    0.0000 H   0  0  0  0  0  0  0  0  0  0  0  0
  1  2  2  0  0  0  0
  2  3  1  0  0  0  0
  2 10  1  0  0  0  0
  3  4  2  0  0  0  0
  3  8  1  0  0  0  0
  4  5  1  0  0  0  0
  4 23  1  0  0  0  0
  5  6  1  0  0  0  0
  5  7  2  0  0  0  0
  6 24  1  0  0  0  0
  6 25  1  0  0  0  0
  6 26  1  0  0  0  0
  7  9  1  0  0  0  0
  7 27  1  0  0  0  0
  8  9  2  0  0  0  0
  8 12  1  0  0  0  0
  9 28  1  0  0  0  0
 10 11  1  0  0  0  0
 10 13  1  6  0  0  0
 10 14  1  0  0  0  0
 11 12  2  0  0  0  0
 11 16  1  0  0  0  0
 13 29  1  0  0  0  0
 14 15  1  0  0  0  0
 14 30  1  0  0  0  0
 14 31  1  0  0  0  0
 15 16  1  0  0  0  0
 15 32  1  0  0  0  0
 15 33  1  0  0  0  0
 16 17  1  0  0  0  0
 17 18  2  0  0  0  0
 17 22  1  0  0  0  0
 18 19  1  0  0  0  0
 18 34  1  0  0  0  0
 19 20  2  0  0  0  0
 19 35  1  0  0  0  0
 20 21  1  0  0  0  0
 20 36  1  0  0  0  0
 21 22  2  0  0  0  0
 21 37  1  0  0  0  0
 22 38  1  0  0  0  0
M  END
>  <DRUGBANK_ID>
DB01944

>  <SECONDARY_ACCESSION_NUMBERS>
EXPT00711

>  <COMMON_NAME>
(S)-blebbistatin

>  <UNII>
8WII7624I5

$$$$
