
 OpenBabel10282417072D

 16 15  0  0  0  0  0  0  0  0999 V2000
   -1.0724   -0.2052    0.0000 C   0  0  0  0  0  0  0  0  0  0  0  0
   -0.3602    0.2051    0.0000 C   0  0  3  0  0  0  0  0  0  0  0  0
    0.3560   -0.2052    0.0000 C   0  0  3  0  0  0  0  0  0  0  0  0
    1.0724    0.2051    0.0000 C   0  0  0  0  0  0  0  0  0  0  0  0
   -1.0724   -1.0301    0.0000 O   0  0  0  0  0  0  0  0  0  0  0  0
   -1.7846    0.2051    0.0000 O   0  0  0  0  0  0  0  0  0  0  0  0
    1.0724    1.0301    0.0000 O   0  0  0  0  0  0  0  0  0  0  0  0
    1.7846   -0.2052    0.0000 O   0  0  0  0  0  0  0  0  0  0  0  0
    0.3560   -1.0301    0.0000 S   0  0  0  0  0  0  0  0  0  0  0  0
   -0.3602    1.0301    0.0000 S   0  0  0  0  0  0  0  0  0  0  0  0
   -0.3589   -0.8649    0.0000 H   0  0  0  0  0  0  0  0  0  0  0  0
    0.3561    0.8648    0.0000 H   0  0  0  0  0  0  0  0  0  0  0  0
   -1.7855    1.1421    0.0000 H   0  0  0  0  0  0  0  0  0  0  0  0
    1.7855   -1.1422    0.0000 H   0  0  0  0  0  0  0  0  0  0  0  0
   -0.8218   -1.7101    0.0000 H   0  0  0  0  0  0  0  0  0  0  0  0
    0.8176    1.7101    0.0000 H   0  0  0  0  0  0  0  0  0  0  0  0
  1  2  1  0  0  0  0
  1  5  2  0  0  0  0
  1  6  1  0  0  0  0
  2  3  1  0  0  0  0
  2 10  1  0  0  0  0
  2 11  1  0  0  0  0
  3  4  1  0  0  0  0
  3  9  1  0  0  0  0
  3 12  1  0  0  0  0
  4  7  2  0  0  0  0
  4  8  1  0  0  0  0
  6 13  1  0  0  0  0
  8 14  1  0  0  0  0
  9 15  1  0  0  0  0
 10 16  1  0  0  0  0
M  END
>  <DRUGBANK_ID>
DB14089

>  <COMMON_NAME>
Dimercaptosuccinic acid

>  <CAS_NUMBER>
2418-14-6

>  <UNII>
4S9JU7XF01

>  <SYNONYMS>
2,3-Dimercaptobutanedioic acid; 2,3-Dimercaptosuccinic acid

$$$$
