
 OpenBabel10282417072D

129131  0  0  0  0  0  0  0  0999 V2000
   -4.7057    3.2415    0.0000 O   0  0  0  0  0  0  0  0  0  0  0  0
   -3.6321    5.4211    0.0000 O   0  0  0  0  0  0  0  0  0  0  0  0
   -4.5882    4.3591    0.0000 O   0  0  0  0  0  0  0  0  0  0  0  0
   -3.9913    0.3540    0.0000 O   0  0  0  0  0  0  0  0  0  0  0  0
   -1.1333   -0.4710    0.0000 O   0  0  0  0  0  0  0  0  0  0  0  0
   -0.4188   -0.8835    0.0000 O   0  0  0  0  0  0  0  0  0  0  0  0
    1.7245   -2.9460    0.0000 O   0  0  0  0  0  0  0  0  0  0  0  0
    3.8680   -0.8835    0.0000 O   0  0  0  0  0  0  0  0  0  0  0  0
   -2.5623   -5.4211    0.0000 O   0  0  0  0  0  0  0  0  0  0  0  0
    6.7260   -1.7085    0.0000 O   0  0  0  0  0  0  0  0  0  0  0  0
    6.0115   -2.9460    0.0000 O   0  0  0  0  0  0  0  0  0  0  0  0
   -3.2767    3.2415    0.0000 N   0  0  0  0  0  0  0  0  0  0  0  0
   -3.2767    1.5915    0.0000 N   0  0  0  0  0  0  0  0  0  0  0  0
   -2.5623   -0.4710    0.0000 N   0  0  0  0  0  0  0  0  0  0  0  0
   -6.1739    1.6684    0.0000 N   0  0  0  0  0  0  0  0  0  0  0  0
   -1.1333   -2.1210    0.0000 N   0  0  0  0  0  0  0  0  0  0  0  0
    1.0101   -1.7085    0.0000 N   0  0  0  0  0  0  0  0  0  0  0  0
   -6.3134    2.9960    0.0000 N   0  0  0  0  0  0  0  0  0  0  0  0
    3.1535   -2.1210    0.0000 N   0  0  0  0  0  0  0  0  0  0  0  0
    3.8680    0.7665    0.0000 N   0  0  0  0  0  0  0  0  0  0  0  0
    4.5825   -2.9460    0.0000 N   0  0  0  0  0  0  0  0  0  0  0  0
    3.1535    2.0040    0.0000 N   0  0  0  0  0  0  0  0  0  0  0  0
    4.5825    2.0040    0.0000 N   0  0  0  0  0  0  0  0  0  0  0  0
   -3.1905    4.0620    0.0000 C   0  0  1  0  0  0  0  0  0  0  0  0
   -2.3836    4.2335    0.0000 C   0  0  0  0  0  0  0  0  0  0  0  0
   -1.9710    3.5191    0.0000 C   0  0  0  0  0  0  0  0  0  0  0  0
   -2.5231    2.9059    0.0000 C   0  0  0  0  0  0  0  0  0  0  0  0
   -3.9913    2.8290    0.0000 C   0  0  0  0  0  0  0  0  0  0  0  0
   -3.9913    2.0040    0.0000 C   0  0  2  0  0  0  0  0  0  0  0  0
   -3.8037    4.6140    0.0000 C   0  0  0  0  0  0  0  0  0  0  0  0
   -2.5623    0.3540    0.0000 C   0  0  1  0  0  0  0  0  0  0  0  0
   -4.7057    1.5915    0.0000 C   0  0  0  0  0  0  0  0  0  0  0  0
   -1.8478    0.7665    0.0000 C   0  0  2  0  0  0  0  0  0  0  0  0
   -3.2767    0.7665    0.0000 C   0  0  0  0  0  0  0  0  0  0  0  0
   -1.8478    1.5915    0.0000 C   0  0  0  0  0  0  0  0  0  0  0  0
   -5.4202    2.0040    0.0000 C   0  0  0  0  0  0  0  0  0  0  0  0
   -1.1333    0.3540    0.0000 C   0  0  0  0  0  0  0  0  0  0  0  0
   -1.8478   -1.7085    0.0000 C   0  0  2  0  0  0  0  0  0  0  0  0
   -1.8478   -0.8835    0.0000 C   0  0  0  0  0  0  0  0  0  0  0  0
   -1.1333    2.0040    0.0000 C   0  0  0  0  0  0  0  0  0  0  0  0
   -2.5623   -2.1210    0.0000 C   0  0  0  0  0  0  0  0  0  0  0  0
    0.2956   -2.1210    0.0000 C   0  0  1  0  0  0  0  0  0  0  0  0
   -5.5065    2.8245    0.0000 C   0  0  0  0  0  0  0  0  0  0  0  0
    0.2956   -2.9460    0.0000 C   0  0  0  0  0  0  0  0  0  0  0  0
   -0.4188   -1.7085    0.0000 C   0  0  0  0  0  0  0  0  0  0  0  0
    1.0101   -3.3585    0.0000 C   0  0  0  0  0  0  0  0  0  0  0  0
   -2.5623   -2.9460    0.0000 C   0  0  0  0  0  0  0  0  0  0  0  0
    2.4391   -1.7085    0.0000 C   0  0  2  0  0  0  0  0  0  0  0  0
   -6.7260    2.2815    0.0000 C   0  0  0  0  0  0  0  0  0  0  0  0
    1.7245   -2.1210    0.0000 C   0  0  0  0  0  0  0  0  0  0  0  0
    2.4391   -0.8835    0.0000 C   0  0  0  0  0  0  0  0  0  0  0  0
    1.0101   -4.1835    0.0000 C   0  0  0  0  0  0  0  0  0  0  0  0
    3.1535   -0.4710    0.0000 C   0  0  0  0  0  0  0  0  0  0  0  0
   -1.8478   -3.3585    0.0000 C   0  0  0  0  0  0  0  0  0  0  0  0
   -3.2767   -3.3585    0.0000 C   0  0  0  0  0  0  0  0  0  0  0  0
    1.7245   -4.5960    0.0000 C   0  0  0  0  0  0  0  0  0  0  0  0
    3.1535    0.3540    0.0000 C   0  0  0  0  0  0  0  0  0  0  0  0
    3.8680   -1.7085    0.0000 C   0  0  0  0  0  0  0  0  0  0  0  0
   -1.8478   -4.1835    0.0000 C   0  0  0  0  0  0  0  0  0  0  0  0
   -3.2767   -4.1835    0.0000 C   0  0  0  0  0  0  0  0  0  0  0  0
    4.5825   -2.1210    0.0000 C   0  0  2  0  0  0  0  0  0  0  0  0
   -2.5623   -4.5960    0.0000 C   0  0  0  0  0  0  0  0  0  0  0  0
    5.2970   -1.7085    0.0000 C   0  0  0  0  0  0  0  0  0  0  0  0
    6.0115   -2.1210    0.0000 C   0  0  0  0  0  0  0  0  0  0  0  0
    3.8680    1.5915    0.0000 C   0  0  0  0  0  0  0  0  0  0  0  0
   -3.0053   -0.7267    0.0000 H   0  0  0  0  0  0  0  0  0  0  0  0
   -2.7409    5.7106    0.0000 H   0  0  0  0  0  0  0  0  0  0  0  0
   -3.3738   -5.8896    0.0000 H   0  0  0  0  0  0  0  0  0  0  0  0
    7.5375   -2.1770    0.0000 H   0  0  0  0  0  0  0  0  0  0  0  0
   -2.4241    2.0838    0.0000 H   0  0  0  0  0  0  0  0  0  0  0  0
   -6.3785    0.7054    0.0000 H   0  0  0  0  0  0  0  0  0  0  0  0
   -1.1333   -3.1055    0.0000 H   0  0  0  0  0  0  0  0  0  0  0  0
    1.0101   -0.7240    0.0000 H   0  0  0  0  0  0  0  0  0  0  0  0
    3.1535   -3.1055    0.0000 H   0  0  0  0  0  0  0  0  0  0  0  0
    3.6992   -3.4560    0.0000 H   0  0  0  0  0  0  0  0  0  0  0  0
    5.4658   -3.4560    0.0000 H   0  0  0  0  0  0  0  0  0  0  0  0
    3.1535    2.9885    0.0000 H   0  0  0  0  0  0  0  0  0  0  0  0
    2.3009    1.5117    0.0000 H   0  0  0  0  0  0  0  0  0  0  0  0
    5.4351    1.5117    0.0000 H   0  0  0  0  0  0  0  0  0  0  0  0
    4.5825    2.9885    0.0000 H   0  0  0  0  0  0  0  0  0  0  0  0
   -4.1894    3.6785    0.0000 H   0  0  0  0  0  0  0  0  0  0  0  0
   -1.9485    5.2110    0.0000 H   0  0  0  0  0  0  0  0  0  0  0  0
   -1.3151    4.2896    0.0000 H   0  0  0  0  0  0  0  0  0  0  0  0
   -0.9069    3.4073    0.0000 H   0  0  0  0  0  0  0  0  0  0  0  0
   -1.5875    2.5202    0.0000 H   0  0  0  0  0  0  0  0  0  0  0  0
   -2.3007    1.8593    0.0000 H   0  0  0  0  0  0  0  0  0  0  0  0
   -1.4896    2.6290    0.0000 H   0  0  0  0  0  0  0  0  0  0  0  0
   -3.0647    2.5390    0.0000 H   0  0  0  0  0  0  0  0  0  0  0  0
   -1.6357   -0.1810    0.0000 H   0  0  0  0  0  0  0  0  0  0  0  0
   -4.7057    0.5215    0.0000 H   0  0  0  0  0  0  0  0  0  0  0  0
   -5.6323    1.0565    0.0000 H   0  0  0  0  0  0  0  0  0  0  0  0
   -1.8478   -0.3035    0.0000 H   0  0  0  0  0  0  0  0  0  0  0  0
   -2.7744    2.1265    0.0000 H   0  0  0  0  0  0  0  0  0  0  0  0
   -1.8478    2.6615    0.0000 H   0  0  0  0  0  0  0  0  0  0  0  0
   -1.1333   -0.7160    0.0000 H   0  0  0  0  0  0  0  0  0  0  0  0
   -0.2067    0.8890    0.0000 H   0  0  0  0  0  0  0  0  0  0  0  0
   -0.2066   -0.1810    0.0000 H   0  0  0  0  0  0  0  0  0  0  0  0
   -0.9212   -1.1735    0.0000 H   0  0  0  0  0  0  0  0  0  0  0  0
   -0.2067    1.4690    0.0000 H   0  0  0  0  0  0  0  0  0  0  0  0
   -1.1333    3.0740    0.0000 H   0  0  0  0  0  0  0  0  0  0  0  0
   -0.2066    2.5390    0.0000 H   0  0  0  0  0  0  0  0  0  0  0  0
   -3.4889   -1.5860    0.0000 H   0  0  0  0  0  0  0  0  0  0  0  0
   -3.4889   -2.6560    0.0000 H   0  0  0  0  0  0  0  0  0  0  0  0
    1.2222   -2.6560    0.0000 H   0  0  0  0  0  0  0  0  0  0  0  0
   -4.7396    3.5151    0.0000 H   0  0  0  0  0  0  0  0  0  0  0  0
   -0.6310   -3.4810    0.0000 H   0  0  0  0  0  0  0  0  0  0  0  0
    0.2956   -4.0160    0.0000 H   0  0  0  0  0  0  0  0  0  0  0  0
    1.9367   -2.8235    0.0000 H   0  0  0  0  0  0  0  0  0  0  0  0
    1.9367   -3.8935    0.0000 H   0  0  0  0  0  0  0  0  0  0  0  0
    2.4390   -2.7785    0.0000 H   0  0  0  0  0  0  0  0  0  0  0  0
   -7.7523    2.1736    0.0000 H   0  0  0  0  0  0  0  0  0  0  0  0
    1.5124   -0.3485    0.0000 H   0  0  0  0  0  0  0  0  0  0  0  0
    2.4391    0.1865    0.0000 H   0  0  0  0  0  0  0  0  0  0  0  0
    0.0834   -4.7185    0.0000 H   0  0  0  0  0  0  0  0  0  0  0  0
    1.0101   -5.2535    0.0000 H   0  0  0  0  0  0  0  0  0  0  0  0
    4.0802   -1.0060    0.0000 H   0  0  0  0  0  0  0  0  0  0  0  0
    4.0801    0.0640    0.0000 H   0  0  0  0  0  0  0  0  0  0  0  0
   -0.9541   -2.8425    0.0000 H   0  0  0  0  0  0  0  0  0  0  0  0
   -4.1704   -2.8425    0.0000 H   0  0  0  0  0  0  0  0  0  0  0  0
    1.7245   -5.6660    0.0000 H   0  0  0  0  0  0  0  0  0  0  0  0
    2.6512   -4.0610    0.0000 H   0  0  0  0  0  0  0  0  0  0  0  0
    2.6511   -5.1310    0.0000 H   0  0  0  0  0  0  0  0  0  0  0  0
    2.2269    0.8890    0.0000 H   0  0  0  0  0  0  0  0  0  0  0  0
    2.2269   -0.1810    0.0000 H   0  0  0  0  0  0  0  0  0  0  0  0
   -0.9541   -4.6995    0.0000 H   0  0  0  0  0  0  0  0  0  0  0  0
   -4.1704   -4.6995    0.0000 H   0  0  0  0  0  0  0  0  0  0  0  0
    3.6559   -2.6560    0.0000 H   0  0  0  0  0  0  0  0  0  0  0  0
    5.2970   -0.6385    0.0000 H   0  0  0  0  0  0  0  0  0  0  0  0
    6.2236   -1.1735    0.0000 H   0  0  0  0  0  0  0  0  0  0  0  0
  1 28  2  0  0  0  0
  2 30  1  0  0  0  0
  2 67  1  0  0  0  0
  3 30  2  0  0  0  0
  4 34  2  0  0  0  0
  5 39  2  0  0  0  0
  6 45  2  0  0  0  0
  7 50  2  0  0  0  0
  8 58  2  0  0  0  0
  9 62  1  0  0  0  0
  9 68  1  0  0  0  0
 10 64  1  0  0  0  0
 10 69  1  0  0  0  0
 11 64  2  0  0  0  0
 12 24  1  0  0  0  0
 12 27  1  0  0  0  0
 12 28  1  0  0  0  0
 13 34  1  0  0  0  0
 13 70  1  0  0  0  0
 14 39  1  0  0  0  0
 14 66  1  0  0  0  0
 15 36  1  0  0  0  0
 15 49  1  0  0  0  0
 15 71  1  0  0  0  0
 16 45  1  0  0  0  0
 16 72  1  0  0  0  0
 17 50  1  0  0  0  0
 17 73  1  0  0  0  0
 18 43  1  0  0  0  0
 18 49  2  0  0  0  0
 19 58  1  0  0  0  0
 19 74  1  0  0  0  0
 20 57  1  0  0  0  0
 20 65  2  0  0  0  0
 21 75  1  0  0  0  0
 21 76  1  0  0  0  0
 22 65  1  0  0  0  0
 22 77  1  0  0  0  0
 22 78  1  0  0  0  0
 23 65  1  0  0  0  0
 23 79  1  0  0  0  0
 23 80  1  0  0  0  0
 24 25  1  0  0  0  0
 24 30  1  0  0  0  0
 24 81  1  1  0  0  0
 25 26  1  0  0  0  0
 25 82  1  0  0  0  0
 25 83  1  0  0  0  0
 26 27  1  0  0  0  0
 26 84  1  0  0  0  0
 26 85  1  0  0  0  0
 27 86  1  0  0  0  0
 27 87  1  0  0  0  0
 28 29  1  0  0  0  0
 29 13  1  0  0  0  0
 29 32  1  0  0  0  0
 29 88  1  6  0  0  0
 31 14  1  0  0  0  0
 31 33  1  0  0  0  0
 31 34  1  0  0  0  0
 31 89  1  1  0  0  0
 32 36  1  0  0  0  0
 32 90  1  0  0  0  0
 32 91  1  0  0  0  0
 33 35  1  0  0  0  0
 33 37  1  0  0  0  0
 33 92  1  1  0  0  0
 35 40  1  0  0  0  0
 35 93  1  0  0  0  0
 35 94  1  0  0  0  0
 36 43  2  0  0  0  0
 37 95  1  0  0  0  0
 37 96  1  0  0  0  0
 37 97  1  0  0  0  0
 38 16  1  0  0  0  0
 38 39  1  0  0  0  0
 38 41  1  0  0  0  0
 38 98  1  6  0  0  0
 40 99  1  0  0  0  0
 40100  1  0  0  0  0
 40101  1  0  0  0  0
 41 47  1  0  0  0  0
 41102  1  0  0  0  0
 41103  1  0  0  0  0
 42 17  1  0  0  0  0
 42 44  1  0  0  0  0
 42 45  1  0  0  0  0
 42104  1  6  0  0  0
 43105  1  0  0  0  0
 44 46  1  0  0  0  0
 44106  1  0  0  0  0
 44107  1  0  0  0  0
 46 52  1  0  0  0  0
 46108  1  0  0  0  0
 46109  1  0  0  0  0
 47 54  2  0  0  0  0
 47 55  1  0  0  0  0
 48 19  1  0  0  0  0
 48 50  1  0  0  0  0
 48 51  1  0  0  0  0
 48110  1  1  0  0  0
 49111  1  0  0  0  0
 51 53  1  0  0  0  0
 51112  1  0  0  0  0
 51113  1  0  0  0  0
 52 56  1  0  0  0  0
 52114  1  0  0  0  0
 52115  1  0  0  0  0
 53 57  1  0  0  0  0
 53116  1  0  0  0  0
 53117  1  0  0  0  0
 54 59  1  0  0  0  0
 54118  1  0  0  0  0
 55 60  2  0  0  0  0
 55119  1  0  0  0  0
 56120  1  0  0  0  0
 56121  1  0  0  0  0
 56122  1  0  0  0  0
 57123  1  0  0  0  0
 57124  1  0  0  0  0
 58 61  1  0  0  0  0
 59 62  2  0  0  0  0
 59125  1  0  0  0  0
 60 62  1  0  0  0  0
 60126  1  0  0  0  0
 61 21  1  0  0  0  0
 61 63  1  0  0  0  0
 61127  1  1  0  0  0
 63 64  1  0  0  0  0
 63128  1  0  0  0  0
 63129  1  0  0  0  0
M  END
>  <DRUGBANK_ID>
DB12631

>  <COMMON_NAME>
Aclerastide

>  <CAS_NUMBER>
227803-63-6

>  <UNII>
YYD6UT8T47

>  <SYNONYMS>
1-7-ANGIOTENSIN II, 3-L-NORLEUCINE-5-L-ISOLEUCINE; Aclerastide; ASP-ARG-NLE-TYR-ILE-HIS-PRO; NorLeu3-A(1-7); NORLEU3-ANGIOTENSIN(1-7); NorLeu3-Angiotensin(1-7) [NorLeu3-A(1-7)]

$$$$
