
 OpenBabel10282417072D

 19 18  0  0  0  0  0  0  0  0999 V2000
    0.7145   -0.2062    0.0000 O   0  0  0  0  0  0  0  0  0  0  0  0
    0.0000    0.2062    0.0000 C   0  0  0  0  0  0  0  0  0  0  0  0
   -2.1436   -0.2062    0.0000 O   0  0  0  0  0  0  0  0  0  0  0  0
   -1.4291    0.2062    0.0000 C   0  0  0  0  0  0  0  0  0  0  0  0
   -0.7145   -0.2062    0.0000 C   0  0  1  0  0  0  0  0  0  0  0  0
    1.4291    1.0313    0.0000 O   0  0  0  0  0  0  0  0  0  0  0  0
    2.1436   -0.2062    0.0000 O   0  0  0  0  0  0  0  0  0  0  0  0
   -0.7145   -1.0313    0.0000 O   0  0  0  0  0  0  0  0  0  0  0  0
    1.4291    0.2062    0.0000 P   0  0  0  0  0  0  0  0  0  0  0  0
    1.4291   -0.6188    0.0000 O   0  0  0  0  0  0  0  0  0  0  0  0
    0.0000    1.2762    0.0000 H   0  0  0  0  0  0  0  0  0  0  0  0
   -0.9266    0.7413    0.0000 H   0  0  0  0  0  0  0  0  0  0  0  0
   -2.9836    0.2789    0.0000 H   0  0  0  0  0  0  0  0  0  0  0  0
   -1.4291    1.2762    0.0000 H   0  0  0  0  0  0  0  0  0  0  0  0
   -0.5025    0.7413    0.0000 H   0  0  0  0  0  0  0  0  0  0  0  0
   -1.6411   -0.7413    0.0000 H   0  0  0  0  0  0  0  0  0  0  0  0
    2.1437   -1.1762    0.0000 H   0  0  0  0  0  0  0  0  0  0  0  0
   -1.5545   -1.5163    0.0000 H   0  0  0  0  0  0  0  0  0  0  0  0
    0.5891   -1.1038    0.0000 H   0  0  0  0  0  0  0  0  0  0  0  0
  1  9  1  0  0  0  0
  1  2  1  0  0  0  0
  2  5  1  0  0  0  0
  2 11  1  0  0  0  0
  2 12  1  0  0  0  0
  3 13  1  0  0  0  0
  4  3  1  0  0  0  0
  4 14  1  0  0  0  0
  4 15  1  0  0  0  0
  5  4  1  0  0  0  0
  5  8  1  0  0  0  0
  5 16  1  1  0  0  0
  6  9  2  0  0  0  0
  7  9  1  0  0  0  0
  7 17  1  0  0  0  0
  8 18  1  0  0  0  0
  9 10  1  0  0  0  0
 10 19  1  0  0  0  0
M  END
>  <DRUGBANK_ID>
DB02515

>  <SECONDARY_ACCESSION_NUMBERS>
EXPT01531

>  <COMMON_NAME>
sn-glycerol 3-phosphate

>  <CAS_NUMBER>
17989-41-2

>  <UNII>
370V52HE4B

>  <SYNONYMS>
(R)-glycerol 1-phosphate; D-(glycerol 1-phosphate); D-Glycerol 1-phosphate; Glycerol-3-phosphate; Glycerophosphoric acid; L-(glycerol 3-phosphate); Phosphoric acid mono-((R)-2,3-dihydroxy-propyl) ester; Phosphors√§ure-mono-((R)-2,3-dihydroxy-propylester); sn-Glycerol 3-phosphate

$$$$
