
 OpenBabel10282417072D

 25 26  0  0  0  0  0  0  0  0999 V2000
    0.0773    0.5912    0.0000 C   0  0  0  0  0  0  0  0  0  0  0  0
    0.7400   -1.2658    0.0000 C   0  0  0  0  0  0  0  0  0  0  0  0
    0.1197   -1.6427    0.0000 C   0  0  0  0  0  0  0  0  0  0  0  0
    1.9893   -0.5417    0.0000 C   0  0  0  0  0  0  0  0  0  0  0  0
    1.6113   -0.9304    0.0000 C   0  0  0  0  0  0  0  0  0  0  0  0
    1.0605   -0.5572    0.0000 C   0  0  1  0  0  0  0  0  0  0  0  0
    0.6396   -0.9304    0.0000 C   0  0  2  0  0  0  0  0  0  0  0  0
    2.1275   -1.3591    0.0000 C   0  0  1  0  0  0  0  0  0  0  0  0
    0.4999   -0.1173    0.0000 N   0  0  0  0  0  0  0  0  0  0  0  0
    2.5393   -2.0740    0.0000 O   0  0  0  0  0  0  0  0  0  0  0  0
    0.8706    0.2456    0.0000 H   0  0  0  0  0  0  0  0  0  0  0  0
    0.0368   -0.3671    0.0000 H   0  0  0  0  0  0  0  0  0  0  0  0
    2.9039   -1.0800    0.0000 H   0  0  0  0  0  0  0  0  0  0  0  0
    0.5991    1.5254    0.0000 H   0  0  0  0  0  0  0  0  0  0  0  0
   -0.9926    0.5760    0.0000 H   0  0  0  0  0  0  0  0  0  0  0  0
   -0.4708    1.5101    0.0000 H   0  0  0  0  0  0  0  0  0  0  0  0
    1.5410   -1.9752    0.0000 H   0  0  0  0  0  0  0  0  0  0  0  0
    1.7864   -1.0421    0.0000 H   0  0  0  0  0  0  0  0  0  0  0  0
   -0.6682   -2.3667    0.0000 H   0  0  0  0  0  0  0  0  0  0  0  0
   -0.6783   -0.9299    0.0000 H   0  0  0  0  0  0  0  0  0  0  0  0
    2.6731    0.2813    0.0000 H   0  0  0  0  0  0  0  0  0  0  0  0
    3.0225   -0.8198    0.0000 H   0  0  0  0  0  0  0  0  0  0  0  0
    1.9747    0.0760    0.0000 H   0  0  0  0  0  0  0  0  0  0  0  0
    2.6438   -0.6495    0.0000 H   0  0  0  0  0  0  0  0  0  0  0  0
    2.0535   -2.9136    0.0000 H   0  0  0  0  0  0  0  0  0  0  0  0
  1 14  1  0  0  0  0
  1 15  1  0  0  0  0
  1 16  1  0  0  0  0
  2 17  1  0  0  0  0
  2 18  1  0  0  0  0
  3  2  1  0  0  0  0
  3 19  1  0  0  0  0
  3 20  1  0  0  0  0
  4 21  1  0  0  0  0
  4 22  1  0  0  0  0
  5 23  1  0  0  0  0
  5 24  1  0  0  0  0
  6  2  1  0  0  0  0
  6  4  1  0  0  0  0
  6 11  1  1  0  0  0
  7  3  1  0  0  0  0
  7  5  1  0  0  0  0
  7 12  1  6  0  0  0
  8  4  1  0  0  0  0
  8  5  1  0  0  0  0
  8 10  1  0  0  0  0
  8 13  1  1  0  0  0
  9  1  1  0  0  0  0
  9  6  1  0  0  0  0
  9  7  1  0  0  0  0
 10 25  1  0  0  0  0
M  END
>  <DRUGBANK_ID>
DB04026

>  <SECONDARY_ACCESSION_NUMBERS>
EXPT02685

>  <COMMON_NAME>
Pseudotropine

>  <CAS_NUMBER>
135-97-7

>  <UNII>
L9Q7Z9D09L

>  <SYNONYMS>
(3-exo)-8-methyl-8-azabicyclo[3.2.1]octan-3-ol; 1αH,5αH-tropan-3β-ol; 3-pseudotropanol; 3β-tropanol; exo-8-methyl-8-azabicyclo[3.2.1]octan-3-ol; pseudotropanol; ψ-tropine

$$$$
