
 OpenBabel10282417072D

 66 66  0  0  0  0  0  0  0  0999 V2000
   -2.5715    0.4053    0.0000 C   0  0  2  0  0  0  0  0  0  0  0  0
   -2.5715   -0.4192    0.0000 C   0  0  2  0  0  0  0  0  0  0  0  0
   -3.3686    0.6527    0.0000 C   0  0  0  0  0  0  0  0  0  0  0  0
   -1.8568    1.0233    0.0000 C   0  0  0  0  0  0  0  0  0  0  0  0
   -3.3686   -0.6940    0.0000 C   0  0  1  0  0  0  0  0  0  0  0  0
   -1.8568   -1.0373    0.0000 C   0  0  0  0  0  0  0  0  0  0  0  0
   -3.8358   -0.0344    0.0000 C   0  0  0  0  0  0  0  0  0  0  0  0
   -3.6161    1.4224    0.0000 O   0  0  0  0  0  0  0  0  0  0  0  0
   -3.6161   -1.4638    0.0000 O   0  0  0  0  0  0  0  0  0  0  0  0
   -1.1420   -0.6249    0.0000 C   0  0  0  0  0  0  0  0  0  0  0  0
   -0.4274   -1.0373    0.0000 C   0  0  2  0  0  0  0  0  0  0  0  0
    0.2872   -0.6249    0.0000 C   0  0  0  0  0  0  0  0  0  0  0  0
    1.0019   -1.0373    0.0000 C   0  0  0  0  0  0  0  0  0  0  0  0
    1.7165   -0.6249    0.0000 C   0  0  0  0  0  0  0  0  0  0  0  0
    2.4313   -1.0373    0.0000 C   0  0  0  0  0  0  0  0  0  0  0  0
    3.1459   -0.6249    0.0000 C   0  0  0  0  0  0  0  0  0  0  0  0
   -1.1552    0.6220    0.0000 C   0  0  0  0  0  0  0  0  0  0  0  0
   -0.4416    1.0341    0.0000 C   0  0  0  0  0  0  0  0  0  0  0  0
    0.2721    0.6220    0.0000 C   0  0  0  0  0  0  0  0  0  0  0  0
    0.9857    1.0341    0.0000 C   0  0  0  0  0  0  0  0  0  0  0  0
    1.6994    0.6220    0.0000 C   0  0  0  0  0  0  0  0  0  0  0  0
    2.4131    1.0341    0.0000 C   0  0  0  0  0  0  0  0  0  0  0  0
    3.1267    0.6220    0.0000 O   0  0  0  0  0  0  0  0  0  0  0  0
   -0.4275   -1.8660    0.0000 O   0  0  0  0  0  0  0  0  0  0  0  0
    0.8659   -0.0547    0.0000 C   0  0  0  0  0  0  0  0  0  0  0  0
   -0.2868   -0.0547    0.0000 C   0  0  0  0  0  0  0  0  0  0  0  0
    2.4132    1.8660    0.0000 O   0  0  0  0  0  0  0  0  0  0  0  0
    3.8358    1.0315    0.0000 C   0  0  0  0  0  0  0  0  0  0  0  0
   -1.5984   -0.0397    0.0000 H   0  0  0  0  0  0  0  0  0  0  0  0
   -1.5984    0.0258    0.0000 H   0  0  0  0  0  0  0  0  0  0  0  0
   -1.9601    2.0883    0.0000 H   0  0  0  0  0  0  0  0  0  0  0  0
   -0.9583    1.6043    0.0000 H   0  0  0  0  0  0  0  0  0  0  0  0
   -2.6041   -1.4427    0.0000 H   0  0  0  0  0  0  0  0  0  0  0  0
   -1.9546   -2.0647    0.0000 H   0  0  0  0  0  0  0  0  0  0  0  0
   -4.9058   -0.0446    0.0000 H   0  0  0  0  0  0  0  0  0  0  0  0
   -4.3227   -0.9872    0.0000 H   0  0  0  0  0  0  0  0  0  0  0  0
   -4.5643   -1.6684    0.0000 H   0  0  0  0  0  0  0  0  0  0  0  0
   -1.1419    0.4071    0.0000 H   0  0  0  0  0  0  0  0  0  0  0  0
   -1.3540   -1.5723    0.0000 H   0  0  0  0  0  0  0  0  0  0  0  0
    1.0019   -2.1073    0.0000 H   0  0  0  0  0  0  0  0  0  0  0  0
    1.9285   -1.5724    0.0000 H   0  0  0  0  0  0  0  0  0  0  0  0
    1.7164    0.4451    0.0000 H   0  0  0  0  0  0  0  0  0  0  0  0
    2.6430   -0.0897    0.0000 H   0  0  0  0  0  0  0  0  0  0  0  0
    2.4314   -2.1073    0.0000 H   0  0  0  0  0  0  0  0  0  0  0  0
    3.3579   -1.5724    0.0000 H   0  0  0  0  0  0  0  0  0  0  0  0
    4.0724   -1.1601    0.0000 H   0  0  0  0  0  0  0  0  0  0  0  0
    3.1461    0.4451    0.0000 H   0  0  0  0  0  0  0  0  0  0  0  0
    4.0726   -0.0901    0.0000 H   0  0  0  0  0  0  0  0  0  0  0  0
   -1.1530   -0.4480    0.0000 H   0  0  0  0  0  0  0  0  0  0  0  0
   -0.2280    0.0880    0.0000 H   0  0  0  0  0  0  0  0  0  0  0  0
   -0.4416    2.1041    0.0000 H   0  0  0  0  0  0  0  0  0  0  0  0
    0.4851    1.5691    0.0000 H   0  0  0  0  0  0  0  0  0  0  0  0
    0.2721   -0.4480    0.0000 H   0  0  0  0  0  0  0  0  0  0  0  0
    1.1988    0.0871    0.0000 H   0  0  0  0  0  0  0  0  0  0  0  0
    0.9857    2.0661    0.0000 H   0  0  0  0  0  0  0  0  0  0  0  0
    1.6994   -0.4100    0.0000 H   0  0  0  0  0  0  0  0  0  0  0  0
   -1.2676   -2.3509    0.0000 H   0  0  0  0  0  0  0  0  0  0  0  0
    1.8974   -0.3393    0.0000 H   0  0  0  0  0  0  0  0  0  0  0  0
    0.5966    0.9809    0.0000 H   0  0  0  0  0  0  0  0  0  0  0  0
    1.6281    0.6963    0.0000 H   0  0  0  0  0  0  0  0  0  0  0  0
   -0.0133    0.9798    0.0000 H   0  0  0  0  0  0  0  0  0  0  0  0
   -1.3194   -0.3351    0.0000 H   0  0  0  0  0  0  0  0  0  0  0  0
   -1.0459    0.6994    0.0000 H   0  0  0  0  0  0  0  0  0  0  0  0
    4.7625    0.4966    0.0000 H   0  0  0  0  0  0  0  0  0  0  0  0
    3.8357    2.1015    0.0000 H   0  0  0  0  0  0  0  0  0  0  0  0
    4.7624    1.5666    0.0000 H   0  0  0  0  0  0  0  0  0  0  0  0
  1  2  1  0  0  0  0
  1  3  1  0  0  0  0
  1  4  1  0  0  0  0
  1 29  1  1  0  0  0
  2  5  1  0  0  0  0
  2  6  1  0  0  0  0
  2 30  1  6  0  0  0
  3  7  1  0  0  0  0
  3  8  2  0  0  0  0
  4 17  1  0  0  0  0
  4 31  1  0  0  0  0
  4 32  1  0  0  0  0
  5  9  1  0  0  0  0
  5  7  1  0  0  0  0
  5 33  1  1  0  0  0
  6 10  2  0  0  0  0
  6 34  1  0  0  0  0
  7 35  1  0  0  0  0
  7 36  1  0  0  0  0
  9 37  1  0  0  0  0
 10 11  1  0  0  0  0
 10 38  1  0  0  0  0
 11 12  1  0  0  0  0
 11 24  1  0  0  0  0
 11 39  1  1  0  0  0
 12 13  1  0  0  0  0
 12 25  1  0  0  0  0
 12 26  1  0  0  0  0
 13 14  1  0  0  0  0
 13 40  1  0  0  0  0
 13 41  1  0  0  0  0
 14 15  1  0  0  0  0
 14 42  1  0  0  0  0
 14 43  1  0  0  0  0
 15 16  1  0  0  0  0
 15 44  1  0  0  0  0
 15 45  1  0  0  0  0
 16 46  1  0  0  0  0
 16 47  1  0  0  0  0
 16 48  1  0  0  0  0
 17 18  1  0  0  0  0
 17 49  1  0  0  0  0
 17 50  1  0  0  0  0
 18 19  1  0  0  0  0
 18 51  1  0  0  0  0
 18 52  1  0  0  0  0
 19 20  1  0  0  0  0
 19 53  1  0  0  0  0
 19 54  1  0  0  0  0
 20 21  2  0  0  0  0
 20 55  1  0  0  0  0
 21 22  1  0  0  0  0
 21 56  1  0  0  0  0
 22 23  1  0  0  0  0
 22 27  2  0  0  0  0
 23 28  1  0  0  0  0
 24 57  1  0  0  0  0
 25 58  1  0  0  0  0
 25 59  1  0  0  0  0
 25 60  1  0  0  0  0
 26 61  1  0  0  0  0
 26 62  1  0  0  0  0
 26 63  1  0  0  0  0
 28 64  1  0  0  0  0
 28 65  1  0  0  0  0
 28 66  1  0  0  0  0
M  END
>  <DRUGBANK_ID>
DB08964

>  <COMMON_NAME>
Gemeprost

>  <CAS_NUMBER>
64318-79-2

>  <UNII>
45KZB1FOLS

>  <SYNONYMS>
16,16-Dimethyl-trans-delta-2-PGE1 methyl ester; 16,16-Dimethyl-trans-delta(sup 2)-prostaglandin E1 methyl ester; Gemeprost; SC-37681

$$$$
