1319
 OpenBabel10282417072D

 75 77  0  0  1  0  0  0  0  0999 V2000
    3.7935   -1.1931    0.0000 S   0  0  0  0  0  0  0  0  0  0  0  0
    3.3810    1.9964    0.0000 P   0  0  0  0  0  0  0  0  0  0  0  0
    3.7935    1.2819    0.0000 O   0  0  0  0  0  0  0  0  0  0  0  0
    5.9370    3.3445    0.0000 O   0  0  0  0  0  0  0  0  0  0  0  0
    7.5447    4.7490    0.0000 O   0  0  0  0  0  0  0  0  0  0  0  0
    4.6185   -1.1931    0.0000 O   0  0  0  0  0  0  0  0  0  0  0  0
    2.9685   -1.1931    0.0000 O   0  0  0  0  0  0  0  0  0  0  0  0
    2.9685    2.7108    0.0000 O   0  0  0  0  0  0  0  0  0  0  0  0
    2.6665    1.5839    0.0000 O   0  0  0  0  0  0  0  0  0  0  0  0
    6.6515    2.1069    0.0000 O   0  0  0  0  0  0  0  0  0  0  0  0
    4.0955    2.4089    0.0000 O   0  0  0  0  0  0  0  0  0  0  0  0
    3.7935   -0.3681    0.0000 N   0  0  0  0  0  0  0  0  0  0  0  0
    5.2224    2.1069    0.0000 N   0  0  0  0  0  0  0  0  0  0  0  0
    3.7935   -4.4932    0.0000 N   0  0  0  0  0  0  0  0  0  0  0  0
    4.5080    0.8694    0.0000 C   0  0  1  0  0  0  0  0  0  0  0  0
    5.2224    1.2819    0.0000 C   0  0  2  0  0  0  0  0  0  0  0  0
    4.5080    0.0444    0.0000 C   0  0  0  0  0  0  0  0  0  0  0  0
    3.0791    0.0444    0.0000 C   0  0  0  0  0  0  0  0  0  0  0  0
    5.9370    0.8694    0.0000 C   0  0  0  0  0  0  0  0  0  0  0  0
    2.3645   -0.3681    0.0000 C   0  0  0  0  0  0  0  0  0  0  0  0
    5.9370    0.0444    0.0000 C   0  0  0  0  0  0  0  0  0  0  0  0
    6.6515    3.7570    0.0000 C   0  0  1  0  0  0  0  0  0  0  0  0
    3.7935   -2.0182    0.0000 C   0  0  0  0  0  0  0  0  0  0  0  0
    1.6500    0.0444    0.0000 C   0  0  0  0  0  0  0  0  0  0  0  0
    2.3645   -1.1931    0.0000 C   0  0  0  0  0  0  0  0  0  0  0  0
    7.4051    3.4214    0.0000 C   0  0  0  0  0  0  0  0  0  0  0  0
    5.9370    2.5194    0.0000 C   0  0  0  0  0  0  0  0  0  0  0  0
    6.7377    4.5774    0.0000 C   0  0  0  0  0  0  0  0  0  0  0  0
    7.9572    4.0345    0.0000 C   0  0  0  0  0  0  0  0  0  0  0  0
    5.2224   -0.3681    0.0000 C   0  0  0  0  0  0  0  0  0  0  0  0
    6.6515   -0.3681    0.0000 C   0  0  0  0  0  0  0  0  0  0  0  0
    3.0791   -2.4307    0.0000 C   0  0  0  0  0  0  0  0  0  0  0  0
    4.5080   -2.4307    0.0000 C   0  0  0  0  0  0  0  0  0  0  0  0
    5.2224   -1.1931    0.0000 C   0  0  0  0  0  0  0  0  0  0  0  0
    6.6515   -1.1931    0.0000 C   0  0  0  0  0  0  0  0  0  0  0  0
    3.0791   -3.2557    0.0000 C   0  0  0  0  0  0  0  0  0  0  0  0
    4.5080   -3.2557    0.0000 C   0  0  0  0  0  0  0  0  0  0  0  0
    5.9370   -1.6057    0.0000 C   0  0  0  0  0  0  0  0  0  0  0  0
    3.7935   -3.6682    0.0000 C   0  0  0  0  0  0  0  0  0  0  0  0
    3.4535    3.5509    0.0000 H   0  0  0  0  0  0  0  0  0  0  0  0
    1.8265    2.0689    0.0000 H   0  0  0  0  0  0  0  0  0  0  0  0
    4.3698    2.5992    0.0000 H   0  0  0  0  0  0  0  0  0  0  0  0
    2.9409   -4.9855    0.0000 H   0  0  0  0  0  0  0  0  0  0  0  0
    4.6461   -4.9855    0.0000 H   0  0  0  0  0  0  0  0  0  0  0  0
    4.5080    1.9394    0.0000 H   0  0  0  0  0  0  0  0  0  0  0  0
    4.2957    1.8169    0.0000 H   0  0  0  0  0  0  0  0  0  0  0  0
    5.4346   -0.4906    0.0000 H   0  0  0  0  0  0  0  0  0  0  0  0
    5.4346    0.5794    0.0000 H   0  0  0  0  0  0  0  0  0  0  0  0
    3.0792    1.1144    0.0000 H   0  0  0  0  0  0  0  0  0  0  0  0
    2.1525    0.5795    0.0000 H   0  0  0  0  0  0  0  0  0  0  0  0
    6.8636    1.4044    0.0000 H   0  0  0  0  0  0  0  0  0  0  0  0
    6.8637    0.3344    0.0000 H   0  0  0  0  0  0  0  0  0  0  0  0
    1.4379   -0.9031    0.0000 H   0  0  0  0  0  0  0  0  0  0  0  0
    6.7074    2.6885    0.0000 H   0  0  0  0  0  0  0  0  0  0  0  0
    1.6500    1.1144    0.0000 H   0  0  0  0  0  0  0  0  0  0  0  0
    0.7234   -0.4906    0.0000 H   0  0  0  0  0  0  0  0  0  0  0  0
    0.7233    0.5794    0.0000 H   0  0  0  0  0  0  0  0  0  0  0  0
    1.4379   -1.7281    0.0000 H   0  0  0  0  0  0  0  0  0  0  0  0
    3.2911   -1.7281    0.0000 H   0  0  0  0  0  0  0  0  0  0  0  0
    2.3645   -2.2631    0.0000 H   0  0  0  0  0  0  0  0  0  0  0  0
    7.6275    2.3748    0.0000 H   0  0  0  0  0  0  0  0  0  0  0  0
    8.4386    3.1444    0.0000 H   0  0  0  0  0  0  0  0  0  0  0  0
    5.9425    5.2933    0.0000 H   0  0  0  0  0  0  0  0  0  0  0  0
    5.7388    4.1939    0.0000 H   0  0  0  0  0  0  0  0  0  0  0  0
    9.0213    3.9226    0.0000 H   0  0  0  0  0  0  0  0  0  0  0  0
    8.3406    3.0356    0.0000 H   0  0  0  0  0  0  0  0  0  0  0  0
    4.3287    0.1479    0.0000 H   0  0  0  0  0  0  0  0  0  0  0  0
    7.5452    0.1479    0.0000 H   0  0  0  0  0  0  0  0  0  0  0  0
    2.1854   -1.9147    0.0000 H   0  0  0  0  0  0  0  0  0  0  0  0
    5.4017   -1.9147    0.0000 H   0  0  0  0  0  0  0  0  0  0  0  0
    4.3287   -1.7091    0.0000 H   0  0  0  0  0  0  0  0  0  0  0  0
    7.5453   -1.7091    0.0000 H   0  0  0  0  0  0  0  0  0  0  0  0
    2.1854   -3.7717    0.0000 H   0  0  0  0  0  0  0  0  0  0  0  0
    5.4017   -3.7717    0.0000 H   0  0  0  0  0  0  0  0  0  0  0  0
    5.9370   -2.6377    0.0000 H   0  0  0  0  0  0  0  0  0  0  0  0
  1  6  2  0  0  0  0
  1  7  2  0  0  0  0
  1 12  1  0  0  0  0
  1 23  1  0  0  0  0
  2  3  1  0  0  0  0
  2  8  1  0  0  0  0
  2  9  1  0  0  0  0
  2 11  2  0  0  0  0
  4 27  1  0  0  0  0
  5 28  1  0  0  0  0
  5 29  1  0  0  0  0
  8 40  1  0  0  0  0
  9 41  1  0  0  0  0
 10 27  2  0  0  0  0
 12 17  1  0  0  0  0
 12 18  1  0  0  0  0
 13 27  1  0  0  0  0
 13 42  1  0  0  0  0
 14 39  1  0  0  0  0
 14 43  1  0  0  0  0
 14 44  1  0  0  0  0
 15  3  1  0  0  0  0
 15 16  1  0  0  0  0
 15 17  1  0  0  0  0
 15 45  1  6  0  0  0
 16 13  1  0  0  0  0
 16 19  1  0  0  0  0
 16 46  1  6  0  0  0
 17 47  1  0  0  0  0
 17 48  1  0  0  0  0
 18 20  1  0  0  0  0
 18 49  1  0  0  0  0
 18 50  1  0  0  0  0
 19 21  1  0  0  0  0
 19 51  1  0  0  0  0
 19 52  1  0  0  0  0
 20 24  1  0  0  0  0
 20 25  1  0  0  0  0
 20 53  1  0  0  0  0
 21 30  2  0  0  0  0
 21 31  1  0  0  0  0
 22  4  1  0  0  0  0
 22 26  1  0  0  0  0
 22 28  1  0  0  0  0
 22 54  1  1  0  0  0
 23 32  2  0  0  0  0
 23 33  1  0  0  0  0
 24 55  1  0  0  0  0
 24 56  1  0  0  0  0
 24 57  1  0  0  0  0
 25 58  1  0  0  0  0
 25 59  1  0  0  0  0
 25 60  1  0  0  0  0
 26 29  1  0  0  0  0
 26 61  1  0  0  0  0
 26 62  1  0  0  0  0
 28 63  1  0  0  0  0
 28 64  1  0  0  0  0
 29 65  1  0  0  0  0
 29 66  1  0  0  0  0
 30 34  1  0  0  0  0
 30 67  1  0  0  0  0
 31 35  2  0  0  0  0
 31 68  1  0  0  0  0
 32 36  1  0  0  0  0
 32 69  1  0  0  0  0
 33 37  2  0  0  0  0
 33 70  1  0  0  0  0
 34 38  2  0  0  0  0
 34 71  1  0  0  0  0
 35 38  1  0  0  0  0
 35 72  1  0  0  0  0
 36 39  2  0  0  0  0
 36 73  1  0  0  0  0
 37 39  1  0  0  0  0
 37 74  1  0  0  0  0
 38 75  1  0  0  0  0
M  END
>  <DRUGBANK_ID>
DB01319

>  <COMMON_NAME>
Fosamprenavir

>  <CAS_NUMBER>
226700-79-4

>  <UNII>
WOU1621EEG

>  <SYNONYMS>
FOS-APV; Fosamprenavir

$$$$
