PU6
 OpenBabel10282417072D

 43 46  0  0  0  0  0  0  0  0999 V2000
    0.1768    2.5639    0.0000 C   0  0  0  0  0  0  0  0  0  0  0  0
    0.0053    1.7570    0.0000 C   0  0  0  0  0  0  0  0  0  0  0  0
    0.6184    1.2049    0.0000 C   0  0  0  0  0  0  0  0  0  0  0  0
    0.4469    0.3980    0.0000 C   0  0  0  0  0  0  0  0  0  0  0  0
    1.0600   -0.1541    0.0000 N   0  0  0  0  0  0  0  0  0  0  0  0
    1.8669    0.0175    0.0000 C   0  0  0  0  0  0  0  0  0  0  0  0
    2.2794    0.7319    0.0000 N   0  0  0  0  0  0  0  0  0  0  0  0
    3.1044    0.7319    0.0000 C   0  0  0  0  0  0  0  0  0  0  0  0
    3.5169    0.0175    0.0000 N   0  0  0  0  0  0  0  0  0  0  0  0
    2.2794   -0.6970    0.0000 C   0  0  0  0  0  0  0  0  0  0  0  0
    3.1044   -0.6970    0.0000 C   0  0  0  0  0  0  0  0  0  0  0  0
    3.5169   -1.4115    0.0000 N   0  0  0  0  0  0  0  0  0  0  0  0
    1.7274   -1.3101    0.0000 N   0  0  0  0  0  0  0  0  0  0  0  0
    0.9737   -0.9746    0.0000 C   0  0  0  0  0  0  0  0  0  0  0  0
    0.2593   -1.3871    0.0000 C   0  0  0  0  0  0  0  0  0  0  0  0
   -0.4552   -0.9746    0.0000 C   0  0  0  0  0  0  0  0  0  0  0  0
   -1.1697   -1.3871    0.0000 C   0  0  0  0  0  0  0  0  0  0  0  0
   -1.8841   -0.9746    0.0000 C   0  0  0  0  0  0  0  0  0  0  0  0
   -0.4552   -0.1496    0.0000 C   0  0  0  0  0  0  0  0  0  0  0  0
   -2.6688   -1.2295    0.0000 O   0  0  0  0  0  0  0  0  0  0  0  0
   -1.1697    0.2629    0.0000 C   0  0  0  0  0  0  0  0  0  0  0  0
   -1.8841   -0.1496    0.0000 C   0  0  0  0  0  0  0  0  0  0  0  0
   -2.6688    0.1054    0.0000 O   0  0  0  0  0  0  0  0  0  0  0  0
   -3.1537   -0.5621    0.0000 C   0  0  0  0  0  0  0  0  0  0  0  0
    1.1944    2.8946    0.0000 H   0  0  0  0  0  0  0  0  0  0  0  0
   -0.6184    3.2799    0.0000 H   0  0  0  0  0  0  0  0  0  0  0  0
    0.3993    3.6105    0.0000 H   0  0  0  0  0  0  0  0  0  0  0  0
   -1.0123    1.4264    0.0000 H   0  0  0  0  0  0  0  0  0  0  0  0
   -0.2172    0.7104    0.0000 H   0  0  0  0  0  0  0  0  0  0  0  0
    1.6360    1.5355    0.0000 H   0  0  0  0  0  0  0  0  0  0  0  0
    1.4136    0.4889    0.0000 H   0  0  0  0  0  0  0  0  0  0  0  0
   -0.5707    0.0674    0.0000 H   0  0  0  0  0  0  0  0  0  0  0  0
    0.2244   -0.6486    0.0000 H   0  0  0  0  0  0  0  0  0  0  0  0
    3.6204    1.6256    0.0000 H   0  0  0  0  0  0  0  0  0  0  0  0
    3.0246   -2.2641    0.0000 H   0  0  0  0  0  0  0  0  0  0  0  0
    4.5014   -1.4115    0.0000 H   0  0  0  0  0  0  0  0  0  0  0  0
    0.2593   -2.4571    0.0000 H   0  0  0  0  0  0  0  0  0  0  0  0
   -0.6673   -1.9221    0.0000 H   0  0  0  0  0  0  0  0  0  0  0  0
   -1.1697   -2.4191    0.0000 H   0  0  0  0  0  0  0  0  0  0  0  0
    0.4385    0.3664    0.0000 H   0  0  0  0  0  0  0  0  0  0  0  0
   -1.1697    1.2949    0.0000 H   0  0  0  0  0  0  0  0  0  0  0  0
   -4.2237   -0.5621    0.0000 H   0  0  0  0  0  0  0  0  0  0  0  0
   -3.6395    0.3913    0.0000 H   0  0  0  0  0  0  0  0  0  0  0  0
  1  2  1  0  0  0  0
  1 25  1  0  0  0  0
  1 26  1  0  0  0  0
  1 27  1  0  0  0  0
  2  3  1  0  0  0  0
  2 28  1  0  0  0  0
  2 29  1  0  0  0  0
  3  4  1  0  0  0  0
  3 30  1  0  0  0  0
  3 31  1  0  0  0  0
  4  5  1  0  0  0  0
  4 32  1  0  0  0  0
  4 33  1  0  0  0  0
  5  6  1  0  0  0  0
  5 14  1  0  0  0  0
  6  7  2  0  0  0  0
  6 10  1  0  0  0  0
  7  8  1  0  0  0  0
  8  9  2  0  0  0  0
  8 34  1  0  0  0  0
  9 11  1  0  0  0  0
 10 11  2  0  0  0  0
 10 13  1  0  0  0  0
 11 12  1  0  0  0  0
 12 35  1  0  0  0  0
 12 36  1  0  0  0  0
 13 14  2  0  0  0  0
 14 15  1  0  0  0  0
 15 16  1  0  0  0  0
 15 37  1  0  0  0  0
 15 38  1  0  0  0  0
 16 17  2  0  0  0  0
 16 19  1  0  0  0  0
 17 18  1  0  0  0  0
 17 39  1  0  0  0  0
 18 20  1  0  0  0  0
 18 22  2  0  0  0  0
 19 21  2  0  0  0  0
 19 40  1  0  0  0  0
 20 24  1  0  0  0  0
 21 22  1  0  0  0  0
 21 41  1  0  0  0  0
 22 23  1  0  0  0  0
 23 24  1  0  0  0  0
 24 42  1  0  0  0  0
 24 43  1  0  0  0  0
M  END
>  <DRUGBANK_ID>
DB08436

>  <COMMON_NAME>
8-BENZO[1,3]DIOXOL-,5-YLMETHYL-9-BUTYL-9H-

$$$$
