
 OpenBabel10282417072D

 54 53  0  0  0  0  0  0  0  0999 V2000
    5.3579    1.2373    0.0000 O   0  0  0  0  0  0  0  0  0  0  0  0
    4.6436    1.6498    0.0000 C   0  0  0  0  0  0  0  0  0  0  0  0
    3.9291    1.2373    0.0000 C   0  0  0  0  0  0  0  0  0  0  0  0
    3.2147    1.6498    0.0000 C   0  0  0  0  0  0  0  0  0  0  0  0
    2.5003    1.2373    0.0000 C   0  0  0  0  0  0  0  0  0  0  0  0
    1.7859    1.6498    0.0000 C   0  0  0  0  0  0  0  0  0  0  0  0
    1.0715    1.2373    0.0000 C   0  0  0  0  0  0  0  0  0  0  0  0
    0.3571    1.6498    0.0000 C   0  0  0  0  0  0  0  0  0  0  0  0
   -0.3572    1.2373    0.0000 C   0  0  0  0  0  0  0  0  0  0  0  0
   -1.0716    1.6498    0.0000 C   0  0  0  0  0  0  0  0  0  0  0  0
   -1.7860    1.2373    0.0000 C   0  0  0  0  0  0  0  0  0  0  0  0
   -2.5005    1.6498    0.0000 C   0  0  0  0  0  0  0  0  0  0  0  0
   -3.2148    1.2373    0.0000 C   0  0  0  0  0  0  0  0  0  0  0  0
    4.6436    2.4747    0.0000 O   0  0  0  0  0  0  0  0  0  0  0  0
   -3.2148    0.4125    0.0000 C   0  0  0  0  0  0  0  0  0  0  0  0
   -3.9292    0.0000    0.0000 C   0  0  0  0  0  0  0  0  0  0  0  0
   -3.9292   -0.8249    0.0000 C   0  0  0  0  0  0  0  0  0  0  0  0
   -4.6437   -1.2373    0.0000 C   0  0  0  0  0  0  0  0  0  0  0  0
   -4.6437   -2.0623    0.0000 C   0  0  0  0  0  0  0  0  0  0  0  0
   -5.3580   -2.4747    0.0000 C   0  0  0  0  0  0  0  0  0  0  0  0
    5.3578    0.3003    0.0000 H   0  0  0  0  0  0  0  0  0  0  0  0
    3.9291    0.1673    0.0000 H   0  0  0  0  0  0  0  0  0  0  0  0
    3.0024    0.7023    0.0000 H   0  0  0  0  0  0  0  0  0  0  0  0
    3.2147    2.7198    0.0000 H   0  0  0  0  0  0  0  0  0  0  0  0
    2.2880    2.1848    0.0000 H   0  0  0  0  0  0  0  0  0  0  0  0
    2.5003    0.1673    0.0000 H   0  0  0  0  0  0  0  0  0  0  0  0
    1.5736    0.7023    0.0000 H   0  0  0  0  0  0  0  0  0  0  0  0
    1.7859    2.7198    0.0000 H   0  0  0  0  0  0  0  0  0  0  0  0
    0.8592    2.1848    0.0000 H   0  0  0  0  0  0  0  0  0  0  0  0
    1.0715    0.1673    0.0000 H   0  0  0  0  0  0  0  0  0  0  0  0
    0.1448    0.7023    0.0000 H   0  0  0  0  0  0  0  0  0  0  0  0
    0.3571    2.7198    0.0000 H   0  0  0  0  0  0  0  0  0  0  0  0
   -0.5696    2.1847    0.0000 H   0  0  0  0  0  0  0  0  0  0  0  0
   -0.3572    0.1673    0.0000 H   0  0  0  0  0  0  0  0  0  0  0  0
   -1.2839    0.7023    0.0000 H   0  0  0  0  0  0  0  0  0  0  0  0
   -1.0716    2.7198    0.0000 H   0  0  0  0  0  0  0  0  0  0  0  0
   -1.9983    2.1848    0.0000 H   0  0  0  0  0  0  0  0  0  0  0  0
   -1.7860    0.1673    0.0000 H   0  0  0  0  0  0  0  0  0  0  0  0
   -2.7126    0.7023    0.0000 H   0  0  0  0  0  0  0  0  0  0  0  0
   -2.5006    2.6818    0.0000 H   0  0  0  0  0  0  0  0  0  0  0  0
   -4.1086    1.7533    0.0000 H   0  0  0  0  0  0  0  0  0  0  0  0
   -2.2881   -0.1225    0.0000 H   0  0  0  0  0  0  0  0  0  0  0  0
   -3.2148   -0.6575    0.0000 H   0  0  0  0  0  0  0  0  0  0  0  0
   -4.8559    0.5350    0.0000 H   0  0  0  0  0  0  0  0  0  0  0  0
   -4.8558   -0.5350    0.0000 H   0  0  0  0  0  0  0  0  0  0  0  0
   -3.0026   -1.3600    0.0000 H   0  0  0  0  0  0  0  0  0  0  0  0
   -3.9293   -1.8949    0.0000 H   0  0  0  0  0  0  0  0  0  0  0  0
   -5.5703   -0.7022    0.0000 H   0  0  0  0  0  0  0  0  0  0  0  0
   -5.5704   -1.7723    0.0000 H   0  0  0  0  0  0  0  0  0  0  0  0
   -3.7171   -2.5973    0.0000 H   0  0  0  0  0  0  0  0  0  0  0  0
   -4.6437   -3.1323    0.0000 H   0  0  0  0  0  0  0  0  0  0  0  0
   -6.2846   -1.9397    0.0000 H   0  0  0  0  0  0  0  0  0  0  0  0
   -5.3580   -3.5447    0.0000 H   0  0  0  0  0  0  0  0  0  0  0  0
   -6.2846   -3.0097    0.0000 H   0  0  0  0  0  0  0  0  0  0  0  0
  1 21  1  0  0  0  0
  2  1  1  0  0  0  0
  2 14  2  0  0  0  0
  2  3  1  0  0  0  0
  3  4  1  0  0  0  0
  3 22  1  0  0  0  0
  3 23  1  0  0  0  0
  4  5  1  0  0  0  0
  4 24  1  0  0  0  0
  4 25  1  0  0  0  0
  5  6  1  0  0  0  0
  5 26  1  0  0  0  0
  5 27  1  0  0  0  0
  6  7  1  0  0  0  0
  6 28  1  0  0  0  0
  6 29  1  0  0  0  0
  7  8  1  0  0  0  0
  7 30  1  0  0  0  0
  7 31  1  0  0  0  0
  8  9  1  0  0  0  0
  8 32  1  0  0  0  0
  8 33  1  0  0  0  0
  9 10  1  0  0  0  0
  9 34  1  0  0  0  0
  9 35  1  0  0  0  0
 10 11  1  0  0  0  0
 10 36  1  0  0  0  0
 10 37  1  0  0  0  0
 11 38  1  0  0  0  0
 11 39  1  0  0  0  0
 12 11  1  0  0  0  0
 12 40  1  0  0  0  0
 13 12  2  0  0  0  0
 13 41  1  0  0  0  0
 15 13  1  0  0  0  0
 15 42  1  0  0  0  0
 15 43  1  0  0  0  0
 16 15  1  0  0  0  0
 16 44  1  0  0  0  0
 16 45  1  0  0  0  0
 17 16  1  0  0  0  0
 17 46  1  0  0  0  0
 17 47  1  0  0  0  0
 18 17  1  0  0  0  0
 18 48  1  0  0  0  0
 18 49  1  0  0  0  0
 19 18  1  0  0  0  0
 19 50  1  0  0  0  0
 19 51  1  0  0  0  0
 20 19  1  0  0  0  0
 20 52  1  0  0  0  0
 20 53  1  0  0  0  0
 20 54  1  0  0  0  0
M  END
>  <DRUGBANK_ID>
DB04801

>  <COMMON_NAME>
cis-Vaccenic acid

>  <CAS_NUMBER>
506-17-2

>  <UNII>
400K7322UW

>  <SYNONYMS>
(Z)-11-octadecenoic acid; (Z)-octadec-11-enoic acid; Asclepic acid; cis-11-octadecenoic acid; cis-octadec-11-enoic acid; trans-11-Octadecens√§ure

$$$$
