OBA
 OpenBabel10282417072D

 22 22  0  0  0  0  0  0  0  0999 V2000
    0.7011    1.4502    0.0000 C   0  0  0  0  0  0  0  0  0  0  0  0
    0.7011    0.6252    0.0000 C   0  0  0  0  0  0  0  0  0  0  0  0
   -0.0134    0.2127    0.0000 C   0  0  0  0  0  0  0  0  0  0  0  0
   -0.7279    0.6252    0.0000 C   0  0  0  0  0  0  0  0  0  0  0  0
   -0.7279    1.4502    0.0000 C   0  0  0  0  0  0  0  0  0  0  0  0
   -0.0134    1.8627    0.0000 C   0  0  0  0  0  0  0  0  0  0  0  0
   -1.4423    0.2127    0.0000 C   0  0  0  0  0  0  0  0  0  0  0  0
   -2.1568    0.6252    0.0000 O   0  0  0  0  0  0  0  0  0  0  0  0
   -1.4423   -0.6123    0.0000 O   0  0  0  0  0  0  0  0  0  0  0  0
   -0.0134   -0.6123    0.0000 N   0  0  0  0  0  0  0  0  0  0  0  0
    0.7011   -1.0248    0.0000 C   0  0  0  0  0  0  0  0  0  0  0  0
    1.4155   -0.6123    0.0000 O   0  0  0  0  0  0  0  0  0  0  0  0
    0.7011   -1.8498    0.0000 C   0  0  0  0  0  0  0  0  0  0  0  0
    1.4155   -2.2623    0.0000 O   0  0  0  0  0  0  0  0  0  0  0  0
   -0.0134   -2.2623    0.0000 O   0  0  0  0  0  0  0  0  0  0  0  0
    1.5948    1.9662    0.0000 H   0  0  0  0  0  0  0  0  0  0  0  0
    1.5948    0.1092    0.0000 H   0  0  0  0  0  0  0  0  0  0  0  0
   -1.6216    1.9662    0.0000 H   0  0  0  0  0  0  0  0  0  0  0  0
   -0.0134    2.8947    0.0000 H   0  0  0  0  0  0  0  0  0  0  0  0
   -2.2538   -1.0808    0.0000 H   0  0  0  0  0  0  0  0  0  0  0  0
   -0.8660   -1.1046    0.0000 H   0  0  0  0  0  0  0  0  0  0  0  0
   -0.8249   -1.7938    0.0000 H   0  0  0  0  0  0  0  0  0  0  0  0
  1  2  2  0  0  0  0
  1  6  1  0  0  0  0
  1 16  1  0  0  0  0
  2  3  1  0  0  0  0
  2 17  1  0  0  0  0
  3  4  2  0  0  0  0
  3 10  1  0  0  0  0
  4  5  1  0  0  0  0
  4  7  1  0  0  0  0
  5  6  2  0  0  0  0
  5 18  1  0  0  0  0
  6 19  1  0  0  0  0
  7  8  2  0  0  0  0
  7  9  1  0  0  0  0
  9 20  1  0  0  0  0
 10 11  1  0  0  0  0
 10 21  1  0  0  0  0
 11 12  2  0  0  0  0
 11 13  1  0  0  0  0
 13 14  2  0  0  0  0
 13 15  1  0  0  0  0
 15 22  1  0  0  0  0
M  END
>  <DRUGBANK_ID>
DB02622

>  <SECONDARY_ACCESSION_NUMBERS>
EXPT02412

>  <COMMON_NAME>
2-(Oxalyl-Amino)-Benzoic Acid

$$$$
