1262
 OpenBabel10282417072D

 28 29  0  0  1  0  0  0  0  0999 V2000
    3.7464   -1.1305    0.0000 O   0  0  0  0  0  0  0  0  0  0  0  0
    2.1816   -2.5826    0.0000 O   0  0  0  0  0  0  0  0  0  0  0  0
    4.7969   -2.4964    0.0000 O   0  0  0  0  0  0  0  0  0  0  0  0
    1.6500    0.1794    0.0000 O   0  0  0  0  0  0  0  0  0  0  0  0
    3.0790    0.1794    0.0000 N   0  0  0  0  0  0  0  0  0  0  0  0
    2.3645    1.4169    0.0000 N   0  0  0  0  0  0  0  0  0  0  0  0
    3.7935    1.4169    0.0000 N   0  0  0  0  0  0  0  0  0  0  0  0
    3.0790    2.6545    0.0000 N   0  0  0  0  0  0  0  0  0  0  0  0
    2.6665   -1.9152    0.0000 C   0  0  1  0  0  0  0  0  0  0  0  0
    2.4115   -1.1305    0.0000 C   0  0  0  0  0  0  0  0  0  0  0  0
    3.4915   -1.9152    0.0000 C   0  0  1  0  0  0  0  0  0  0  0  0
    3.0790   -0.6456    0.0000 C   0  0  1  0  0  0  0  0  0  0  0  0
    3.9764   -2.5826    0.0000 C   0  0  0  0  0  0  0  0  0  0  0  0
    2.3645    0.5919    0.0000 C   0  0  0  0  0  0  0  0  0  0  0  0
    3.7935    0.5919    0.0000 C   0  0  0  0  0  0  0  0  0  0  0  0
    3.0790    1.8294    0.0000 C   0  0  0  0  0  0  0  0  0  0  0  0
    1.2169   -2.4812    0.0000 H   0  0  0  0  0  0  0  0  0  0  0  0
    5.3670   -3.2812    0.0000 H   0  0  0  0  0  0  0  0  0  0  0  0
    3.9316    3.1468    0.0000 H   0  0  0  0  0  0  0  0  0  0  0  0
    2.2264    3.1467    0.0000 H   0  0  0  0  0  0  0  0  0  0  0  0
    1.6097   -1.7478    0.0000 H   0  0  0  0  0  0  0  0  0  0  0  0
    1.3939   -0.7998    0.0000 H   0  0  0  0  0  0  0  0  0  0  0  0
    2.2442   -0.0737    0.0000 H   0  0  0  0  0  0  0  0  0  0  0  0
    4.5483   -1.7478    0.0000 H   0  0  0  0  0  0  0  0  0  0  0  0
    4.0324   -0.1598    0.0000 H   0  0  0  0  0  0  0  0  0  0  0  0
    3.5412   -3.5601    0.0000 H   0  0  0  0  0  0  0  0  0  0  0  0
    2.9123   -2.6944    0.0000 H   0  0  0  0  0  0  0  0  0  0  0  0
    4.6872    0.0759    0.0000 H   0  0  0  0  0  0  0  0  0  0  0  0
  1 11  1  0  0  0  0
  1 12  1  0  0  0  0
  2 17  1  0  0  0  0
  3 13  1  0  0  0  0
  3 18  1  0  0  0  0
  4 14  2  0  0  0  0
  5 14  1  0  0  0  0
  5 15  1  0  0  0  0
  6 14  1  0  0  0  0
  6 16  2  0  0  0  0
  7 15  2  0  0  0  0
  7 16  1  0  0  0  0
  8 16  1  0  0  0  0
  8 19  1  0  0  0  0
  8 20  1  0  0  0  0
  9  2  1  0  0  0  0
  9 10  1  0  0  0  0
  9 11  1  0  0  0  0
  9 21  1  6  0  0  0
 10 12  1  0  0  0  0
 10 22  1  0  0  0  0
 10 23  1  0  0  0  0
 11 13  1  0  0  0  0
 11 24  1  1  0  0  0
 12  5  1  0  0  0  0
 12 25  1  1  0  0  0
 13 26  1  0  0  0  0
 13 27  1  0  0  0  0
 15 28  1  0  0  0  0
M  END
>  <DRUGBANK_ID>
DB01262

>  <COMMON_NAME>
Decitabine

>  <CAS_NUMBER>
2353-33-5

>  <UNII>
776B62CQ27

>  <SYNONYMS>
4-amino-1-(2-deoxy-Î²-D-erythro-pentofuranosyl)-s-triazin-2(1H)-one; 5-aza-2'-deoxycytidine; 5-azadeoxycytidine; DAC; Decitabina; Decitabine

$$$$
