
 OpenBabel10282417072D

120122  0  0  0  0  0  0  0  0999 V2000
    2.3398   -0.3141    0.0000 C   0  0  2  0  0  0  0  0  0  0  0  0
    2.9898    0.1842    0.0000 O   0  0  0  0  0  0  0  0  0  0  0  0
    2.5782   -1.0940    0.0000 C   0  0  2  0  0  0  0  0  0  0  0  0
    3.6614   -0.3141    0.0000 C   0  0  1  0  0  0  0  0  0  0  0  0
    3.4014   -1.0940    0.0000 C   0  0  2  0  0  0  0  0  0  0  0  0
    4.4414   -0.0541    0.0000 H   0  0  0  0  0  0  0  0  0  0  0  0
    1.5382   -0.0541    0.0000 H   0  0  0  0  0  0  0  0  0  0  0  0
    2.1015   -1.7657    0.0000 O   0  0  0  0  0  0  0  0  0  0  0  0
    3.8998   -1.7657    0.0000 O   0  0  0  0  0  0  0  0  0  0  0  0
    5.8280   -0.7258    0.0000 C   0  0  0  0  0  0  0  0  0  0  0  0
    5.1130   -0.3141    0.0000 C   0  0  0  0  0  0  0  0  0  0  0  0
    4.3980   -0.7258    0.0000 C   0  0  0  0  0  0  0  0  0  0  0  0
    6.5430   -0.3141    0.0000 C   0  0  0  0  0  0  0  0  0  0  0  0
    7.2363   -0.7258    0.0000 C   0  0  0  0  0  0  0  0  0  0  0  0
    7.9513   -0.3141    0.0000 C   0  0  0  0  0  0  0  0  0  0  0  0
    8.6661   -0.7258    0.0000 C   0  0  0  0  0  0  0  0  0  0  0  0
    8.6661   -1.5490    0.0000 O   0  0  0  0  0  0  0  0  0  0  0  0
    9.4029   -0.3141    0.0000 C   0  0  0  0  0  0  0  0  0  0  0  0
   10.1179   -0.7258    0.0000 C   0  0  0  0  0  0  0  0  0  0  0  0
   10.1179   -1.5490    0.0000 O   0  0  0  0  0  0  0  0  0  0  0  0
    7.9513    0.5091    0.0000 C   0  0  0  0  0  0  0  0  0  0  0  0
    8.6879    0.9208    0.0000 O   0  0  0  0  0  0  0  0  0  0  0  0
    9.4029    0.5091    0.0000 C   0  0  0  0  0  0  0  0  0  0  0  0
   10.1179    0.9208    0.0000 N   0  0  0  0  0  0  0  0  0  0  0  0
   10.8329   -0.3141    0.0000 C   0  0  0  0  0  0  0  0  0  0  0  0
   10.8329    0.5091    0.0000 C   0  0  0  0  0  0  0  0  0  0  0  0
   10.1179    1.7657    0.0000 C   0  0  0  0  0  0  0  0  0  0  0  0
   -6.5430   -0.7041    0.0000 C   0  0  2  0  0  0  0  0  0  0  0  0
   -4.1164   -0.7258    0.0000 C   0  0  0  0  0  0  0  0  0  0  0  0
   -4.1164   -1.5490    0.0000 O   0  0  0  0  0  0  0  0  0  0  0  0
   -4.8314   -0.3141    0.0000 C   0  0  1  0  0  0  0  0  0  0  0  0
   -3.4014   -0.3141    0.0000 N   0  0  0  0  0  0  0  0  0  0  0  0
   -2.6865   -0.7258    0.0000 C   0  0  0  0  0  0  0  0  0  0  0  0
   -1.9715   -0.3141    0.0000 C   0  0  0  0  0  0  0  0  0  0  0  0
   -1.2566   -0.7258    0.0000 C   0  0  0  0  0  0  0  0  0  0  0  0
   -0.5417   -0.3141    0.0000 C   0  0  0  0  0  0  0  0  0  0  0  0
    0.1732   -0.7258    0.0000 C   0  0  0  0  0  0  0  0  0  0  0  0
    0.1732   -1.5490    0.0000 C   0  0  0  0  0  0  0  0  0  0  0  0
    0.8882   -0.3141    0.0000 C   0  0  2  0  0  0  0  0  0  0  0  0
    1.6032   -0.7258    0.0000 C   0  0  1  0  0  0  0  0  0  0  0  0
    1.6032   -1.5490    0.0000 C   0  0  0  0  0  0  0  0  0  0  0  0
    0.8882    0.5091    0.0000 O   0  0  0  0  0  0  0  0  0  0  0  0
   -4.8314    0.5091    0.0000 C   0  0  0  0  0  0  0  0  0  0  0  0
   -4.1164    0.9208    0.0000 C   0  0  0  0  0  0  0  0  0  0  0  0
    0.1732    0.9208    0.0000 C   0  0  0  0  0  0  0  0  0  0  0  0
   -6.5430    0.1191    0.0000 C   0  0  1  0  0  0  0  0  0  0  0  0
   -7.2363    0.5307    0.0000 C   0  0  1  0  0  0  0  0  0  0  0  0
   -7.2363   -1.1157    0.0000 O   0  0  0  0  0  0  0  0  0  0  0  0
   -7.9513    0.1191    0.0000 C   0  0  0  0  0  0  0  0  0  0  0  0
   -7.9513   -0.7041    0.0000 C   0  0  2  0  0  0  0  0  0  0  0  0
   -8.7963    0.1191    0.0000 C   0  0  0  0  0  0  0  0  0  0  0  0
   -8.3846    0.8341    0.0000 C   0  0  0  0  0  0  0  0  0  0  0  0
   -7.2363    1.3757    0.0000 O   0  0  0  0  0  0  0  0  0  0  0  0
   -5.8280    0.5307    0.0000 O   0  0  0  0  0  0  0  0  0  0  0  0
   -5.8280   -1.1157    0.0000 O   0  0  0  0  0  0  0  0  0  0  0  0
   -9.4029   -0.7041    0.0000 C   0  0  0  0  0  0  0  0  0  0  0  0
  -10.1179   -1.1157    0.0000 C   0  0  0  0  0  0  0  0  0  0  0  0
  -10.8329   -0.7041    0.0000 C   0  0  0  0  0  0  0  0  0  0  0  0
  -10.8329    0.1191    0.0000 C   0  0  0  0  0  0  0  0  0  0  0  0
   -8.6879   -1.1157    0.0000 C   0  0  0  0  0  0  0  0  0  0  0  0
    1.5219   -0.9232    0.0000 H   0  0  0  0  0  0  0  0  0  0  0  0
    2.9204   -2.0498    0.0000 H   0  0  0  0  0  0  0  0  0  0  0  0
    1.1357   -1.6750    0.0000 H   0  0  0  0  0  0  0  0  0  0  0  0
    3.5142   -2.6558    0.0000 H   0  0  0  0  0  0  0  0  0  0  0  0
    5.8280   -1.7578    0.0000 H   0  0  0  0  0  0  0  0  0  0  0  0
    5.1130    0.7179    0.0000 H   0  0  0  0  0  0  0  0  0  0  0  0
    4.4046   -1.7578    0.0000 H   0  0  0  0  0  0  0  0  0  0  0  0
    6.5499    0.7179    0.0000 H   0  0  0  0  0  0  0  0  0  0  0  0
    7.2294   -1.7578    0.0000 H   0  0  0  0  0  0  0  0  0  0  0  0
    9.3064   -2.0175    0.0000 H   0  0  0  0  0  0  0  0  0  0  0  0
    8.8779    1.0441    0.0000 H   0  0  0  0  0  0  0  0  0  0  0  0
    7.0247    1.0441    0.0000 H   0  0  0  0  0  0  0  0  0  0  0  0
    7.9513    1.5791    0.0000 H   0  0  0  0  0  0  0  0  0  0  0  0
   11.7263   -0.8306    0.0000 H   0  0  0  0  0  0  0  0  0  0  0  0
   11.7263    1.0256    0.0000 H   0  0  0  0  0  0  0  0  0  0  0  0
   11.0445    2.3007    0.0000 H   0  0  0  0  0  0  0  0  0  0  0  0
    9.1913    2.3007    0.0000 H   0  0  0  0  0  0  0  0  0  0  0  0
   10.1179    2.8357    0.0000 H   0  0  0  0  0  0  0  0  0  0  0  0
   -5.6678    0.3532    0.0000 H   0  0  0  0  0  0  0  0  0  0  0  0
   -3.4014    0.6704    0.0000 H   0  0  0  0  0  0  0  0  0  0  0  0
   -2.6865   -1.7958    0.0000 H   0  0  0  0  0  0  0  0  0  0  0  0
   -1.7602   -1.2614    0.0000 H   0  0  0  0  0  0  0  0  0  0  0  0
   -1.9715    0.7179    0.0000 H   0  0  0  0  0  0  0  0  0  0  0  0
   -1.2566   -1.7578    0.0000 H   0  0  0  0  0  0  0  0  0  0  0  0
   -0.5417    0.7179    0.0000 H   0  0  0  0  0  0  0  0  0  0  0  0
   -0.7534   -2.0840    0.0000 H   0  0  0  0  0  0  0  0  0  0  0  0
    1.0998   -2.0840    0.0000 H   0  0  0  0  0  0  0  0  0  0  0  0
    0.1732   -2.6190    0.0000 H   0  0  0  0  0  0  0  0  0  0  0  0
   -0.0381    0.2214    0.0000 H   0  0  0  0  0  0  0  0  0  0  0  0
    2.5261   -1.2672    0.0000 H   0  0  0  0  0  0  0  0  0  0  0  0
    0.6766   -2.0840    0.0000 H   0  0  0  0  0  0  0  0  0  0  0  0
    2.5298   -2.0840    0.0000 H   0  0  0  0  0  0  0  0  0  0  0  0
    1.6032   -2.6190    0.0000 H   0  0  0  0  0  0  0  0  0  0  0  0
   -5.7577    1.0446    0.0000 H   0  0  0  0  0  0  0  0  0  0  0  0
   -4.8305    1.5791    0.0000 H   0  0  0  0  0  0  0  0  0  0  0  0
   -3.1904    0.3847    0.0000 H   0  0  0  0  0  0  0  0  0  0  0  0
   -4.1152    1.9908    0.0000 H   0  0  0  0  0  0  0  0  0  0  0  0
   -3.1891    1.4547    0.0000 H   0  0  0  0  0  0  0  0  0  0  0  0
    0.1720    1.9908    0.0000 H   0  0  0  0  0  0  0  0  0  0  0  0
   -0.7528    0.3847    0.0000 H   0  0  0  0  0  0  0  0  0  0  0  0
   -0.7541    1.4547    0.0000 H   0  0  0  0  0  0  0  0  0  0  0  0
   -5.6167   -0.4165    0.0000 H   0  0  0  0  0  0  0  0  0  0  0  0
   -6.3064    1.0601    0.0000 H   0  0  0  0  0  0  0  0  0  0  0  0
   -7.9581   -1.7741    0.0000 H   0  0  0  0  0  0  0  0  0  0  0  0
   -9.3313    1.0457    0.0000 H   0  0  0  0  0  0  0  0  0  0  0  0
   -9.3313   -0.8075    0.0000 H   0  0  0  0  0  0  0  0  0  0  0  0
   -9.8663    0.1191    0.0000 H   0  0  0  0  0  0  0  0  0  0  0  0
   -7.8694    1.7719    0.0000 H   0  0  0  0  0  0  0  0  0  0  0  0
   -9.4544    0.8114    0.0000 H   0  0  0  0  0  0  0  0  0  0  0  0
   -8.9392    1.7492    0.0000 H   0  0  0  0  0  0  0  0  0  0  0  0
   -6.3963    1.8607    0.0000 H   0  0  0  0  0  0  0  0  0  0  0  0
   -4.9886    0.0446    0.0000 H   0  0  0  0  0  0  0  0  0  0  0  0
   -5.8268   -2.0857    0.0000 H   0  0  0  0  0  0  0  0  0  0  0  0
   -9.4029    0.3279    0.0000 H   0  0  0  0  0  0  0  0  0  0  0  0
  -10.1179   -2.1477    0.0000 H   0  0  0  0  0  0  0  0  0  0  0  0
  -11.7263   -1.2207    0.0000 H   0  0  0  0  0  0  0  0  0  0  0  0
   -9.9063    0.6541    0.0000 H   0  0  0  0  0  0  0  0  0  0  0  0
  -11.7595    0.6541    0.0000 H   0  0  0  0  0  0  0  0  0  0  0  0
  -10.8329    1.1891    0.0000 H   0  0  0  0  0  0  0  0  0  0  0  0
   -8.6945   -2.1477    0.0000 H   0  0  0  0  0  0  0  0  0  0  0  0
  1  2  1  0  0  0  0
  1  3  1  0  0  0  0
  1  7  1  1  0  0  0
  1 40  1  0  0  0  0
  2  4  1  0  0  0  0
  3  5  1  0  0  0  0
  3  8  1  0  0  0  0
  3 61  1  1  0  0  0
  4  5  1  0  0  0  0
  4  6  1  1  0  0  0
  4 12  1  0  0  0  0
  5  9  1  0  0  0  0
  5 62  1  1  0  0  0
  8 63  1  0  0  0  0
  9 64  1  0  0  0  0
 10 11  1  0  0  0  0
 10 13  2  0  0  0  0
 10 65  1  0  0  0  0
 11 12  2  0  0  0  0
 11 66  1  0  0  0  0
 12 67  1  0  0  0  0
 13 14  1  0  0  0  0
 13 68  1  0  0  0  0
 14 15  2  0  0  0  0
 14 69  1  0  0  0  0
 15 21  1  0  0  0  0
 15 16  1  0  0  0  0
 16 17  2  0  0  0  0
 16 18  1  0  0  0  0
 18 23  1  0  0  0  0
 18 19  2  0  0  0  0
 19 20  1  0  0  0  0
 19 25  1  0  0  0  0
 20 70  1  0  0  0  0
 21 71  1  0  0  0  0
 21 72  1  0  0  0  0
 21 73  1  0  0  0  0
 22 23  2  0  0  0  0
 23 24  1  0  0  0  0
 24 26  1  0  0  0  0
 24 27  1  0  0  0  0
 25 26  2  0  0  0  0
 25 74  1  0  0  0  0
 26 75  1  0  0  0  0
 27 76  1  0  0  0  0
 27 77  1  0  0  0  0
 27 78  1  0  0  0  0
 28 31  1  0  0  0  0
 28 46  1  0  0  0  0
 28 48  1  0  0  0  0
 28 55  1  6  0  0  0
 29 31  1  0  0  0  0
 29 32  1  0  0  0  0
 29 30  2  0  0  0  0
 31 43  1  0  0  0  0
 31 79  1  1  0  0  0
 32 33  1  0  0  0  0
 32 80  1  0  0  0  0
 33 34  1  0  0  0  0
 33 81  1  0  0  0  0
 33 82  1  0  0  0  0
 34 35  2  0  0  0  0
 34 83  1  0  0  0  0
 35 36  1  0  0  0  0
 35 84  1  0  0  0  0
 36 37  2  0  0  0  0
 36 85  1  0  0  0  0
 37 39  1  0  0  0  0
 37 38  1  0  0  0  0
 38 86  1  0  0  0  0
 38 87  1  0  0  0  0
 38 88  1  0  0  0  0
 39 40  1  0  0  0  0
 39 42  1  0  0  0  0
 39 89  1  6  0  0  0
 40 41  1  0  0  0  0
 40 90  1  1  0  0  0
 41 91  1  0  0  0  0
 41 92  1  0  0  0  0
 41 93  1  0  0  0  0
 42 45  1  0  0  0  0
 43 44  1  0  0  0  0
 43 94  1  0  0  0  0
 43 95  1  0  0  0  0
 44 96  1  0  0  0  0
 44 97  1  0  0  0  0
 44 98  1  0  0  0  0
 45 99  1  0  0  0  0
 45100  1  0  0  0  0
 45101  1  0  0  0  0
 46 47  1  0  0  0  0
 46 54  1  0  0  0  0
 46102  1  6  0  0  0
 47 49  1  0  0  0  0
 47 53  1  0  0  0  0
 47103  1  6  0  0  0
 48 50  1  0  0  0  0
 49 50  1  0  0  0  0
 49 51  1  0  0  0  0
 49 52  1  0  0  0  0
 50 60  1  0  0  0  0
 50104  1  6  0  0  0
 51105  1  0  0  0  0
 51106  1  0  0  0  0
 51107  1  0  0  0  0
 52108  1  0  0  0  0
 52109  1  0  0  0  0
 52110  1  0  0  0  0
 53111  1  0  0  0  0
 54112  1  0  0  0  0
 55113  1  0  0  0  0
 56 57  1  0  0  0  0
 56 60  2  0  0  0  0
 56114  1  0  0  0  0
 57 58  2  0  0  0  0
 57115  1  0  0  0  0
 58 59  1  0  0  0  0
 58116  1  0  0  0  0
 59117  1  0  0  0  0
 59118  1  0  0  0  0
 59119  1  0  0  0  0
 60120  1  0  0  0  0
M  END
>  <DRUGBANK_ID>
DB04124

>  <SECONDARY_ACCESSION_NUMBERS>
EXPT02115

>  <COMMON_NAME>
Aurodox

>  <CAS_NUMBER>
12704-90-4

>  <UNII>
PGP5RZH64G

>  <SYNONYMS>
1-methylmocimycin; Goldinodox; Goldinomycin

$$$$
