
 OpenBabel10282417072D

 49 52  0  0  1  0  0  0  0  0999 V2000
    3.3523    1.9354    0.0000 C   0  0  0  0  0  0  0  0  0  0  0  0
    3.3523    1.1104    0.0000 C   0  0  0  0  0  0  0  0  0  0  0  0
    2.6378    0.6979    0.0000 C   0  0  0  0  0  0  0  0  0  0  0  0
    1.9233    1.1104    0.0000 C   0  0  0  0  0  0  0  0  0  0  0  0
    1.9233    1.9354    0.0000 C   0  0  0  0  0  0  0  0  0  0  0  0
    2.6378    2.3479    0.0000 C   0  0  0  0  0  0  0  0  0  0  0  0
    1.1387    2.1904    0.0000 C   0  0  0  0  0  0  0  0  0  0  0  0
    0.6538    1.5229    0.0000 C   0  0  0  0  0  0  0  0  0  0  0  0
    1.1387    0.8555    0.0000 S   0  0  0  0  0  0  0  0  0  0  0  0
   -0.1712    1.5229    0.0000 C   0  0  0  0  0  0  0  0  0  0  0  0
   -0.5837    2.2374    0.0000 C   0  0  0  0  0  0  0  0  0  0  0  0
   -1.4087    2.2374    0.0000 C   0  0  0  0  0  0  0  0  0  0  0  0
   -1.8212    2.9519    0.0000 C   0  0  0  0  0  0  0  0  0  0  0  0
   -1.4087    3.6664    0.0000 C   0  0  0  0  0  0  0  0  0  0  0  0
   -0.5837    3.6664    0.0000 C   0  0  0  0  0  0  0  0  0  0  0  0
   -0.1712    2.9519    0.0000 C   0  0  0  0  0  0  0  0  0  0  0  0
    0.6538    2.9519    0.0000 F   0  0  0  0  0  0  0  0  0  0  0  0
   -2.6462    2.9519    0.0000 C   0  0  1  0  0  0  0  0  0  0  0  0
   -3.0587    2.2374    0.0000 C   0  0  1  0  0  0  0  0  0  0  0  0
   -3.8837    2.2374    0.0000 C   0  0  2  0  0  0  0  0  0  0  0  0
   -4.2962    2.9519    0.0000 C   0  0  1  0  0  0  0  0  0  0  0  0
   -3.8837    3.6664    0.0000 C   0  0  2  0  0  0  0  0  0  0  0  0
   -3.0587    3.6664    0.0000 O   0  0  0  0  0  0  0  0  0  0  0  0
   -4.2962    4.3808    0.0000 C   0  0  0  0  0  0  0  0  0  0  0  0
   -5.1212    4.3808    0.0000 O   0  0  0  0  0  0  0  0  0  0  0  0
   -5.1212    2.9519    0.0000 O   0  0  0  0  0  0  0  0  0  0  0  0
   -4.2962    1.5229    0.0000 O   0  0  0  0  0  0  0  0  0  0  0  0
   -2.6462    1.5229    0.0000 O   0  0  0  0  0  0  0  0  0  0  0  0
    4.2460    2.4514    0.0000 H   0  0  0  0  0  0  0  0  0  0  0  0
    4.2460    0.5944    0.0000 H   0  0  0  0  0  0  0  0  0  0  0  0
    2.6378   -0.3341    0.0000 H   0  0  0  0  0  0  0  0  0  0  0  0
    2.6378    3.3799    0.0000 H   0  0  0  0  0  0  0  0  0  0  0  0
    0.8198    3.1719    0.0000 H   0  0  0  0  0  0  0  0  0  0  0  0
   -0.7062    0.5963    0.0000 H   0  0  0  0  0  0  0  0  0  0  0  0
   -1.2412    1.5229    0.0000 H   0  0  0  0  0  0  0  0  0  0  0  0
   -1.9247    1.3437    0.0000 H   0  0  0  0  0  0  0  0  0  0  0  0
   -1.9247    4.5601    0.0000 H   0  0  0  0  0  0  0  0  0  0  0  0
   -0.0677    4.5601    0.0000 H   0  0  0  0  0  0  0  0  0  0  0  0
   -2.1112    2.0253    0.0000 H   0  0  0  0  0  0  0  0  0  0  0  0
   -1.9887    2.2374    0.0000 H   0  0  0  0  0  0  0  0  0  0  0  0
   -3.3487    1.3108    0.0000 H   0  0  0  0  0  0  0  0  0  0  0  0
   -4.8312    2.0253    0.0000 H   0  0  0  0  0  0  0  0  0  0  0  0
   -4.9537    3.6664    0.0000 H   0  0  0  0  0  0  0  0  0  0  0  0
   -3.7612    5.3075    0.0000 H   0  0  0  0  0  0  0  0  0  0  0  0
   -4.8312    5.3074    0.0000 H   0  0  0  0  0  0  0  0  0  0  0  0
   -5.6062    5.2208    0.0000 H   0  0  0  0  0  0  0  0  0  0  0  0
   -5.6062    3.7919    0.0000 H   0  0  0  0  0  0  0  0  0  0  0  0
   -5.2662    1.5229    0.0000 H   0  0  0  0  0  0  0  0  0  0  0  0
   -3.1312    0.6829    0.0000 H   0  0  0  0  0  0  0  0  0  0  0  0
  1  2  2  0  0  0  0
  1  6  1  0  0  0  0
  1 29  1  0  0  0  0
  2  3  1  0  0  0  0
  2 30  1  0  0  0  0
  3  4  2  0  0  0  0
  3 31  1  0  0  0  0
  4  5  1  0  0  0  0
  4  9  1  0  0  0  0
  5  6  2  0  0  0  0
  5  7  1  0  0  0  0
  6 32  1  0  0  0  0
  7  8  2  0  0  0  0
  7 33  1  0  0  0  0
  8  9  1  0  0  0  0
  8 10  1  0  0  0  0
 10 11  1  0  0  0  0
 10 34  1  0  0  0  0
 10 35  1  0  0  0  0
 11 12  2  0  0  0  0
 11 16  1  0  0  0  0
 12 13  1  0  0  0  0
 12 36  1  0  0  0  0
 13 14  2  0  0  0  0
 14 15  1  0  0  0  0
 14 37  1  0  0  0  0
 15 16  2  0  0  0  0
 15 38  1  0  0  0  0
 16 17  1  0  0  0  0
 18 13  1  0  0  0  0
 18 19  1  0  0  0  0
 18 23  1  0  0  0  0
 18 39  1  6  0  0  0
 19 20  1  0  0  0  0
 19 28  1  0  0  0  0
 19 40  1  1  0  0  0
 20 21  1  0  0  0  0
 20 27  1  0  0  0  0
 20 41  1  6  0  0  0
 21 22  1  0  0  0  0
 21 26  1  0  0  0  0
 21 42  1  1  0  0  0
 22 23  1  0  0  0  0
 22 24  1  0  0  0  0
 22 43  1  6  0  0  0
 24 25  1  0  0  0  0
 24 44  1  0  0  0  0
 24 45  1  0  0  0  0
 25 46  1  0  0  0  0
 26 47  1  0  0  0  0
 27 48  1  0  0  0  0
 28 49  1  0  0  0  0
M  END
>  <DRUGBANK_ID>
DB11698

>  <COMMON_NAME>
Ipragliflozin

>  <CAS_NUMBER>
761423-87-4

>  <UNII>
3N2N8OOR7X

>  <SYNONYMS>
Ipragliflozin

$$$$
