IAV
 OpenBabel10282417072D

 38 39  0  0  0  0  0  0  0  0999 V2000
   -0.8514    0.3602    0.0000 O   0  0  0  0  0  0  0  0  0  0  0  0
   -0.4389   -0.3543    0.0000 C   0  0  0  0  0  0  0  0  0  0  0  0
   -0.8514   -1.0688    0.0000 N   0  0  0  0  0  0  0  0  0  0  0  0
   -1.6764   -1.0688    0.0000 C   0  0  2  0  0  0  0  0  0  0  0  0
   -2.0889   -1.7832    0.0000 C   0  0  0  0  0  0  0  0  0  0  0  0
   -2.9139   -1.7832    0.0000 O   0  0  0  0  0  0  0  0  0  0  0  0
   -1.6764   -2.4977    0.0000 O   0  0  0  0  0  0  0  0  0  0  0  0
   -2.0889   -0.3543    0.0000 C   0  0  0  0  0  0  0  0  0  0  0  0
   -2.9139   -0.3543    0.0000 C   0  0  0  0  0  0  0  0  0  0  0  0
   -1.6764    0.3602    0.0000 C   0  0  0  0  0  0  0  0  0  0  0  0
    0.3861   -0.3543    0.0000 C   0  0  0  0  0  0  0  0  0  0  0  0
    0.7986    0.3602    0.0000 C   0  0  0  0  0  0  0  0  0  0  0  0
    0.4630    1.1139    0.0000 C   0  0  0  0  0  0  0  0  0  0  0  0
    1.0761    1.6659    0.0000 N   0  0  0  0  0  0  0  0  0  0  0  0
    1.7906    1.2534    0.0000 C   0  0  0  0  0  0  0  0  0  0  0  0
    2.5752    1.5083    0.0000 C   0  0  0  0  0  0  0  0  0  0  0  0
    1.6191    0.4464    0.0000 C   0  0  0  0  0  0  0  0  0  0  0  0
    2.2321   -0.1056    0.0000 C   0  0  0  0  0  0  0  0  0  0  0  0
    3.0168    0.1493    0.0000 C   0  0  0  0  0  0  0  0  0  0  0  0
    3.1883    0.9563    0.0000 C   0  0  0  0  0  0  0  0  0  0  0  0
   -1.3845   -1.5745    0.0000 H   0  0  0  0  0  0  0  0  0  0  0  0
   -0.3591   -1.9214    0.0000 H   0  0  0  0  0  0  0  0  0  0  0  0
   -2.1449   -3.3092    0.0000 H   0  0  0  0  0  0  0  0  0  0  0  0
   -2.6239    0.5723    0.0000 H   0  0  0  0  0  0  0  0  0  0  0  0
   -3.4489    0.5723    0.0000 H   0  0  0  0  0  0  0  0  0  0  0  0
   -3.4489   -1.2809    0.0000 H   0  0  0  0  0  0  0  0  0  0  0  0
   -3.9839   -0.3543    0.0000 H   0  0  0  0  0  0  0  0  0  0  0  0
   -0.6064    0.3602    0.0000 H   0  0  0  0  0  0  0  0  0  0  0  0
   -2.2114    1.2868    0.0000 H   0  0  0  0  0  0  0  0  0  0  0  0
   -1.1414    1.2869    0.0000 H   0  0  0  0  0  0  0  0  0  0  0  0
    0.9211   -1.2809    0.0000 H   0  0  0  0  0  0  0  0  0  0  0  0
    1.4561   -0.3543    0.0000 H   0  0  0  0  0  0  0  0  0  0  0  0
   -0.5464    1.3285    0.0000 H   0  0  0  0  0  0  0  0  0  0  0  0
    0.9732    2.6450    0.0000 H   0  0  0  0  0  0  0  0  0  0  0  0
    2.7898    2.5177    0.0000 H   0  0  0  0  0  0  0  0  0  0  0  0
    2.0175   -1.1150    0.0000 H   0  0  0  0  0  0  0  0  0  0  0  0
    3.7837   -0.5413    0.0000 H   0  0  0  0  0  0  0  0  0  0  0  0
    4.1698    1.2752    0.0000 H   0  0  0  0  0  0  0  0  0  0  0  0
  1  2  2  0  0  0  0
  2  3  1  0  0  0  0
  2 11  1  0  0  0  0
  3 22  1  0  0  0  0
  4  3  1  0  0  0  0
  4  5  1  0  0  0  0
  4  8  1  0  0  0  0
  4 21  1  1  0  0  0
  5  6  2  0  0  0  0
  5  7  1  0  0  0  0
  7 23  1  0  0  0  0
  8  9  1  0  0  0  0
  8 10  1  0  0  0  0
  8 24  1  0  0  0  0
  9 25  1  0  0  0  0
  9 26  1  0  0  0  0
  9 27  1  0  0  0  0
 10 28  1  0  0  0  0
 10 29  1  0  0  0  0
 10 30  1  0  0  0  0
 11 12  1  0  0  0  0
 11 31  1  0  0  0  0
 11 32  1  0  0  0  0
 12 13  2  0  0  0  0
 12 17  1  0  0  0  0
 13 14  1  0  0  0  0
 13 33  1  0  0  0  0
 14 15  1  0  0  0  0
 14 34  1  0  0  0  0
 15 16  2  0  0  0  0
 15 17  1  0  0  0  0
 16 20  1  0  0  0  0
 16 35  1  0  0  0  0
 17 18  2  0  0  0  0
 18 19  1  0  0  0  0
 18 36  1  0  0  0  0
 19 20  2  0  0  0  0
 19 37  1  0  0  0  0
 20 38  1  0  0  0  0
M  END
>  <DRUGBANK_ID>
DB07953

>  <COMMON_NAME>
N-[1H-INDOL-3-YL-ACETYL]VALINE ACID

$$$$
