130
 OpenBabel10282417072D

 41 44  0  0  0  0  0  0  0  0999 V2000
    2.8455   -0.2947    0.0000 C   0  0  0  0  0  0  0  0  0  0  0  0
    2.8455   -1.1197    0.0000 C   0  0  0  0  0  0  0  0  0  0  0  0
    2.1311   -1.5322    0.0000 C   0  0  0  0  0  0  0  0  0  0  0  0
    1.4166   -1.1197    0.0000 C   0  0  0  0  0  0  0  0  0  0  0  0
    1.4166   -0.2947    0.0000 C   0  0  0  0  0  0  0  0  0  0  0  0
    2.1311    0.1178    0.0000 C   0  0  0  0  0  0  0  0  0  0  0  0
    3.5600    0.1178    0.0000 C   0  0  0  0  0  0  0  0  0  0  0  0
    4.2745   -0.2947    0.0000 N   0  0  0  0  0  0  0  0  0  0  0  0
    3.5600    0.9428    0.0000 N   0  0  0  0  0  0  0  0  0  0  0  0
    0.6320   -1.3747    0.0000 N   0  0  0  0  0  0  0  0  0  0  0  0
    0.6320   -0.0398    0.0000 N   0  0  0  0  0  0  0  0  0  0  0  0
    0.1470   -0.7072    0.0000 C   0  0  0  0  0  0  0  0  0  0  0  0
   -0.6780   -0.7072    0.0000 C   0  0  0  0  0  0  0  0  0  0  0  0
   -1.0905   -1.4217    0.0000 C   0  0  0  0  0  0  0  0  0  0  0  0
   -1.9155   -1.4217    0.0000 C   0  0  0  0  0  0  0  0  0  0  0  0
   -2.3280   -0.7072    0.0000 C   0  0  0  0  0  0  0  0  0  0  0  0
   -1.9155    0.0072    0.0000 C   0  0  0  0  0  0  0  0  0  0  0  0
   -1.0905    0.0072    0.0000 C   0  0  0  0  0  0  0  0  0  0  0  0
   -0.6780    0.7217    0.0000 O   0  0  0  0  0  0  0  0  0  0  0  0
   -2.3280    0.7217    0.0000 C   0  0  0  0  0  0  0  0  0  0  0  0
   -3.1530    0.7217    0.0000 C   0  0  0  0  0  0  0  0  0  0  0  0
   -3.5655    1.4362    0.0000 C   0  0  0  0  0  0  0  0  0  0  0  0
   -3.1530    2.1506    0.0000 C   0  0  0  0  0  0  0  0  0  0  0  0
   -2.3280    2.1506    0.0000 C   0  0  0  0  0  0  0  0  0  0  0  0
   -1.9155    1.4362    0.0000 C   0  0  0  0  0  0  0  0  0  0  0  0
    3.7392   -1.6357    0.0000 H   0  0  0  0  0  0  0  0  0  0  0  0
    2.1311   -2.5642    0.0000 H   0  0  0  0  0  0  0  0  0  0  0  0
    2.1311    1.1498    0.0000 H   0  0  0  0  0  0  0  0  0  0  0  0
    4.2745   -1.2792    0.0000 H   0  0  0  0  0  0  0  0  0  0  0  0
    5.1271    0.1976    0.0000 H   0  0  0  0  0  0  0  0  0  0  0  0
    4.4126    1.4351    0.0000 H   0  0  0  0  0  0  0  0  0  0  0  0
    0.3278   -2.3110    0.0000 H   0  0  0  0  0  0  0  0  0  0  0  0
   -0.5745   -2.3154    0.0000 H   0  0  0  0  0  0  0  0  0  0  0  0
   -2.4315   -2.3154    0.0000 H   0  0  0  0  0  0  0  0  0  0  0  0
   -3.3600   -0.7072    0.0000 H   0  0  0  0  0  0  0  0  0  0  0  0
    0.2590    0.7217    0.0000 H   0  0  0  0  0  0  0  0  0  0  0  0
   -3.6690   -0.1720    0.0000 H   0  0  0  0  0  0  0  0  0  0  0  0
   -4.5975    1.4362    0.0000 H   0  0  0  0  0  0  0  0  0  0  0  0
   -3.6690    3.0443    0.0000 H   0  0  0  0  0  0  0  0  0  0  0  0
   -1.8120    3.0443    0.0000 H   0  0  0  0  0  0  0  0  0  0  0  0
   -0.8835    1.4362    0.0000 H   0  0  0  0  0  0  0  0  0  0  0  0
  1  2  1  0  0  0  0
  1  6  2  0  0  0  0
  1  7  1  0  0  0  0
  2  3  2  0  0  0  0
  2 26  1  0  0  0  0
  3  4  1  0  0  0  0
  3 27  1  0  0  0  0
  4  5  2  0  0  0  0
  4 10  1  0  0  0  0
  5  6  1  0  0  0  0
  5 11  1  0  0  0  0
  6 28  1  0  0  0  0
  7  8  1  0  0  0  0
  7  9  2  0  0  0  0
  8 29  1  0  0  0  0
  8 30  1  0  0  0  0
  9 31  1  0  0  0  0
 10 12  1  0  0  0  0
 10 32  1  0  0  0  0
 11 12  2  0  0  0  0
 12 13  1  0  0  0  0
 13 14  2  0  0  0  0
 13 18  1  0  0  0  0
 14 15  1  0  0  0  0
 14 33  1  0  0  0  0
 15 16  2  0  0  0  0
 15 34  1  0  0  0  0
 16 17  1  0  0  0  0
 16 35  1  0  0  0  0
 17 18  2  0  0  0  0
 17 20  1  0  0  0  0
 18 19  1  0  0  0  0
 19 36  1  0  0  0  0
 20 21  2  0  0  0  0
 20 25  1  0  0  0  0
 21 22  1  0  0  0  0
 21 37  1  0  0  0  0
 22 23  2  0  0  0  0
 22 38  1  0  0  0  0
 23 24  1  0  0  0  0
 23 39  1  0  0  0  0
 24 25  2  0  0  0  0
 24 40  1  0  0  0  0
 25 41  1  0  0  0  0
M  END
>  <DRUGBANK_ID>
DB01725

>  <SECONDARY_ACCESSION_NUMBERS>
EXPT00301; DB06854

>  <COMMON_NAME>
2-{2-hydroxy-[1,1'-biphenyl]-3-yl}-1H-1,3-benzodiazole-5-carboximidamide

>  <SYNONYMS>
2-(2-HYDROXY-BIPHENYL)-1H-BENZOIMIDAZOLE-5-CARBOXAMIDINE; 3-{5-[AMINO(IMINIO)METHYL]-1H-BENZIMIDAZOL-2-YL}-1,1'-BIPHENYL-2-OLATE

$$$$
