
 OpenBabel10282417072D

 50 52  0  0  0  0  0  0  0  0999 V2000
   -1.3890    2.8270    0.0000 C   0  0  0  0  0  0  0  0  0  0  0  0
   -2.0995    3.2463    0.0000 C   0  0  0  0  0  0  0  0  0  0  0  0
   -2.8179    2.8408    0.0000 C   0  0  0  0  0  0  0  0  0  0  0  0
   -2.8258    2.0158    0.0000 C   0  0  0  0  0  0  0  0  0  0  0  0
   -2.1154    1.5965    0.0000 C   0  0  0  0  0  0  0  0  0  0  0  0
   -1.3970    2.0021    0.0000 C   0  0  0  0  0  0  0  0  0  0  0  0
   -2.1234    0.7715    0.0000 C   0  0  0  0  0  0  0  0  0  0  0  0
   -1.4130    0.3522    0.0000 C   0  0  0  0  0  0  0  0  0  0  0  0
   -0.6945    0.7578    0.0000 N   0  0  0  0  0  0  0  0  0  0  0  0
   -1.4208   -0.4727    0.0000 O   0  0  0  0  0  0  0  0  0  0  0  0
    0.0167    0.3379    0.0000 C   0  0  1  0  0  0  0  0  0  0  0  0
    0.8417    0.3379    0.0000 C   0  0  2  0  0  0  0  0  0  0  0  0
    0.0166   -0.4869    0.0000 C   0  0  0  0  0  0  0  0  0  0  0  0
    0.8417   -0.4868    0.0000 N   0  0  0  0  0  0  0  0  0  0  0  0
   -0.5666   -1.0702    0.0000 O   0  0  0  0  0  0  0  0  0  0  0  0
    1.6263    0.5929    0.0000 S   0  0  0  0  0  0  0  0  0  0  0  0
    1.6264   -0.7419    0.0000 C   0  0  2  0  0  0  0  0  0  0  0  0
    2.1112   -0.0744    0.0000 C   0  0  0  0  0  0  0  0  0  0  0  0
    1.6337   -1.5672    0.0000 C   0  0  0  0  0  0  0  0  0  0  0  0
    0.9235   -1.9870    0.0000 O   0  0  0  0  0  0  0  0  0  0  0  0
    2.3525   -1.9724    0.0000 O   0  0  0  0  0  0  0  0  0  0  0  0
    0.9320   -2.8119    0.0000 C   0  0  0  0  0  0  0  0  0  0  0  0
    0.2217   -3.2317    0.0000 O   0  0  0  0  0  0  0  0  0  0  0  0
   -0.4968   -2.8265    0.0000 C   0  0  0  0  0  0  0  0  0  0  0  0
   -0.5053   -2.0016    0.0000 O   0  0  0  0  0  0  0  0  0  0  0  0
   -1.2071   -3.2463    0.0000 C   0  0  0  0  0  0  0  0  0  0  0  0
    2.8256    0.3380    0.0000 C   0  0  0  0  0  0  0  0  0  0  0  0
    2.8258   -0.4868    0.0000 C   0  0  0  0  0  0  0  0  0  0  0  0
    0.8394    1.1595    0.0000 H   0  0  0  0  0  0  0  0  0  0  0  0
    0.0144    1.1595    0.0000 H   0  0  0  0  0  0  0  0  0  0  0  0
    2.3403   -1.1464    0.0000 H   0  0  0  0  0  0  0  0  0  0  0  0
   -0.4903    3.3344    0.0000 H   0  0  0  0  0  0  0  0  0  0  0  0
   -2.0896    4.2783    0.0000 H   0  0  0  0  0  0  0  0  0  0  0  0
   -3.7066    3.3654    0.0000 H   0  0  0  0  0  0  0  0  0  0  0  0
   -3.7244    1.5084    0.0000 H   0  0  0  0  0  0  0  0  0  0  0  0
   -0.5083    1.4775    0.0000 H   0  0  0  0  0  0  0  0  0  0  0  0
   -3.0552    0.2455    0.0000 H   0  0  0  0  0  0  0  0  0  0  0  0
   -2.1337   -0.2985    0.0000 H   0  0  0  0  0  0  0  0  0  0  0  0
   -0.6849    1.7423    0.0000 H   0  0  0  0  0  0  0  0  0  0  0  0
    1.8641   -3.3374    0.0000 H   0  0  0  0  0  0  0  0  0  0  0  0
    0.9429   -3.8818    0.0000 H   0  0  0  0  0  0  0  0  0  0  0  0
   -2.1392   -2.7208    0.0000 H   0  0  0  0  0  0  0  0  0  0  0  0
   -1.1962   -4.3162    0.0000 H   0  0  0  0  0  0  0  0  0  0  0  0
   -2.1282   -3.7907    0.0000 H   0  0  0  0  0  0  0  0  0  0  0  0
    3.7522   -0.1971    0.0000 H   0  0  0  0  0  0  0  0  0  0  0  0
    2.8257    1.4080    0.0000 H   0  0  0  0  0  0  0  0  0  0  0  0
    3.7523    0.8729    0.0000 H   0  0  0  0  0  0  0  0  0  0  0  0
    2.8260   -1.5568    0.0000 H   0  0  0  0  0  0  0  0  0  0  0  0
    3.7523    0.0484    0.0000 H   0  0  0  0  0  0  0  0  0  0  0  0
    3.7525   -1.0216    0.0000 H   0  0  0  0  0  0  0  0  0  0  0  0
  1  2  1  0  0  0  0
  1 32  1  0  0  0  0
  2  3  2  0  0  0  0
  2 33  1  0  0  0  0
  3  4  1  0  0  0  0
  3 34  1  0  0  0  0
  4  5  2  0  0  0  0
  4 35  1  0  0  0  0
  5  6  1  0  0  0  0
  5  7  1  0  0  0  0
  6  1  2  0  0  0  0
  6 36  1  0  0  0  0
  7  8  1  0  0  0  0
  7 37  1  0  0  0  0
  7 38  1  0  0  0  0
  8  9  1  0  0  0  0
  8 10  2  0  0  0  0
  9 39  1  0  0  0  0
 11  9  1  0  0  0  0
 11 12  1  0  0  0  0
 11 13  1  0  0  0  0
 11 30  1  6  0  0  0
 12 16  1  0  0  0  0
 12 29  1  6  0  0  0
 13 14  1  0  0  0  0
 13 15  2  0  0  0  0
 14 12  1  0  0  0  0
 14 17  1  0  0  0  0
 16 18  1  0  0  0  0
 17 18  1  0  0  0  0
 17 19  1  0  0  0  0
 17 31  1  1  0  0  0
 19 20  1  0  0  0  0
 19 21  2  0  0  0  0
 20 22  1  0  0  0  0
 22 23  1  0  0  0  0
 22 40  1  0  0  0  0
 22 41  1  0  0  0  0
 23 24  1  0  0  0  0
 24 25  2  0  0  0  0
 24 26  1  0  0  0  0
 26 42  1  0  0  0  0
 26 43  1  0  0  0  0
 26 44  1  0  0  0  0
 27 18  1  0  0  0  0
 27 45  1  0  0  0  0
 27 46  1  0  0  0  0
 27 47  1  0  0  0  0
 28 18  1  0  0  0  0
 28 48  1  0  0  0  0
 28 49  1  0  0  0  0
 28 50  1  0  0  0  0
M  END
>  <DRUGBANK_ID>
DB13739

>  <COMMON_NAME>
Penamecillin

>  <CAS_NUMBER>
983-85-7

>  <UNII>
H0P1YE5581

>  <SYNONYMS>
Acetoxymethyl benzylpenicillanate; Benzylpenicillin acetoxymethyl ester; Penamecilina; Penamecillin; Pénamécilline; Penamecillinum

$$$$
