
 OpenBabel10282417072D

 89 92  0  0  1  0  0  0  0  0999 V2000
   -2.0858  -13.5651    0.0000 C   0  0  0  0  0  0  0  0  0  0  0  0
   -1.3713  -13.1526    0.0000 C   0  0  0  0  0  0  0  0  0  0  0  0
   -1.3713  -12.3276    0.0000 C   0  0  0  0  0  0  0  0  0  0  0  0
   -0.6569  -13.5651    0.0000 C   0  0  0  0  0  0  0  0  0  0  0  0
    0.0576  -13.1526    0.0000 C   0  0  1  0  0  0  0  0  0  0  0  0
    0.0576  -12.3276    0.0000 N   0  0  0  0  0  0  0  0  0  0  0  0
    0.7721  -11.9151    0.0000 C   0  0  0  0  0  0  0  0  0  0  0  0
    1.4865  -12.3276    0.0000 N   0  0  0  0  0  0  0  0  0  0  0  0
    0.7721  -11.0901    0.0000 N   0  0  0  0  0  0  0  0  0  0  0  0
    0.7721  -13.5651    0.0000 C   0  0  0  0  0  0  0  0  0  0  0  0
    0.7721  -14.3901    0.0000 O   0  0  0  0  0  0  0  0  0  0  0  0
    1.4865  -13.1526    0.0000 N   0  0  0  0  0  0  0  0  0  0  0  0
    2.2010  -13.5651    0.0000 C   0  0  0  0  0  0  0  0  0  0  0  0
    2.9155  -13.1526    0.0000 C   0  0  0  0  0  0  0  0  0  0  0  0
    2.9155  -12.3276    0.0000 O   0  0  0  0  0  0  0  0  0  0  0  0
    3.6300  -13.5651    0.0000 N   0  0  0  0  0  0  0  0  0  0  0  0
    4.3444  -13.1526    0.0000 C   0  0  0  0  0  0  0  0  0  0  0  0
    5.0589  -13.5651    0.0000 C   0  0  0  0  0  0  0  0  0  0  0  0
    5.0589  -14.3901    0.0000 C   0  0  3  0  0  0  0  0  0  0  0  0
    4.3444  -14.8026    0.0000 C   0  0  0  0  0  0  0  0  0  0  0  0
    3.6300  -14.3901    0.0000 C   0  0  0  0  0  0  0  0  0  0  0  0
    5.7734  -14.8026    0.0000 C   0  0  0  0  0  0  0  0  0  0  0  0
    6.5270  -14.4671    0.0000 C   0  0  0  0  0  0  0  0  0  0  0  0
    7.0791  -15.0802    0.0000 C   0  0  0  0  0  0  0  0  0  0  0  0
    6.6666  -15.7947    0.0000 N   0  0  0  0  0  0  0  0  0  0  0  0
    5.8596  -15.6231    0.0000 N   0  0  0  0  0  0  0  0  0  0  0  0
    5.2465  -16.1752    0.0000 C   0  0  0  0  0  0  0  0  0  0  0  0
    7.8996  -14.9939    0.0000 C   0  0  0  0  0  0  0  0  0  0  0  0
    8.2351  -14.2403    0.0000 C   0  0  0  0  0  0  0  0  0  0  0  0
    7.7502  -13.5728    0.0000 Cl  0  0  0  0  0  0  0  0  0  0  0  0
    9.0556  -14.1540    0.0000 C   0  0  0  0  0  0  0  0  0  0  0  0
    9.3911  -13.4004    0.0000 Cl  0  0  0  0  0  0  0  0  0  0  0  0
    9.5405  -14.8215    0.0000 C   0  0  0  0  0  0  0  0  0  0  0  0
   10.3610  -14.7352    0.0000 O   0  0  0  0  0  0  0  0  0  0  0  0
   10.6966  -13.9816    0.0000 C   0  0  0  0  0  0  0  0  0  0  0  0
   11.5170  -13.8953    0.0000 C   0  0  0  0  0  0  0  0  0  0  0  0
   11.8526  -13.1416    0.0000 C   0  0  0  0  0  0  0  0  0  0  0  0
   12.6731  -13.0554    0.0000 C   0  0  0  0  0  0  0  0  0  0  0  0
   13.1580  -13.7229    0.0000 C   0  0  0  0  0  0  0  0  0  0  0  0
   13.9785  -13.6366    0.0000 N   0  0  0  0  0  0  0  0  0  0  0  0
   14.4634  -14.3041    0.0000 C   0  0  0  0  0  0  0  0  0  0  0  0
   15.2839  -14.2178    0.0000 C   0  0  0  0  0  0  0  0  0  0  0  0
   14.1278  -15.0577    0.0000 O   0  0  0  0  0  0  0  0  0  0  0  0
   12.8224  -14.4765    0.0000 C   0  0  0  0  0  0  0  0  0  0  0  0
   12.0020  -14.5628    0.0000 C   0  0  0  0  0  0  0  0  0  0  0  0
    9.2050  -15.5751    0.0000 C   0  0  0  0  0  0  0  0  0  0  0  0
    8.3845  -15.6614    0.0000 C   0  0  0  0  0  0  0  0  0  0  0  0
   -3.0124  -13.0301    0.0000 H   0  0  0  0  0  0  0  0  0  0  0  0
   -2.0858  -14.6351    0.0000 H   0  0  0  0  0  0  0  0  0  0  0  0
   -3.0125  -14.1001    0.0000 H   0  0  0  0  0  0  0  0  0  0  0  0
   -0.4446  -12.6176    0.0000 H   0  0  0  0  0  0  0  0  0  0  0  0
   -0.4447  -11.7926    0.0000 H   0  0  0  0  0  0  0  0  0  0  0  0
   -2.2979  -11.7926    0.0000 H   0  0  0  0  0  0  0  0  0  0  0  0
   -1.3713  -11.2576    0.0000 H   0  0  0  0  0  0  0  0  0  0  0  0
   -0.6569  -14.6351    0.0000 H   0  0  0  0  0  0  0  0  0  0  0  0
    0.2697  -14.1001    0.0000 H   0  0  0  0  0  0  0  0  0  0  0  0
   -0.8690  -12.6176    0.0000 H   0  0  0  0  0  0  0  0  0  0  0  0
    1.4865  -13.3121    0.0000 H   0  0  0  0  0  0  0  0  0  0  0  0
    2.3391  -11.8354    0.0000 H   0  0  0  0  0  0  0  0  0  0  0  0
    1.6247  -10.5978    0.0000 H   0  0  0  0  0  0  0  0  0  0  0  0
   -0.0805  -10.5978    0.0000 H   0  0  0  0  0  0  0  0  0  0  0  0
    1.4865  -12.1681    0.0000 H   0  0  0  0  0  0  0  0  0  0  0  0
    2.2010  -14.6351    0.0000 H   0  0  0  0  0  0  0  0  0  0  0  0
    3.1276  -14.1001    0.0000 H   0  0  0  0  0  0  0  0  0  0  0  0
    4.3444  -12.0826    0.0000 H   0  0  0  0  0  0  0  0  0  0  0  0
    5.2710  -12.6176    0.0000 H   0  0  0  0  0  0  0  0  0  0  0  0
    5.9855  -13.0301    0.0000 H   0  0  0  0  0  0  0  0  0  0  0  0
    5.9855  -14.1001    0.0000 H   0  0  0  0  0  0  0  0  0  0  0  0
    4.1323  -13.8551    0.0000 H   0  0  0  0  0  0  0  0  0  0  0  0
    4.3444  -15.8726    0.0000 H   0  0  0  0  0  0  0  0  0  0  0  0
    3.4177  -15.3376    0.0000 H   0  0  0  0  0  0  0  0  0  0  0  0
    2.7033  -14.9251    0.0000 H   0  0  0  0  0  0  0  0  0  0  0  0
    2.7034  -13.8551    0.0000 H   0  0  0  0  0  0  0  0  0  0  0  0
    6.7416  -13.4576    0.0000 H   0  0  0  0  0  0  0  0  0  0  0  0
    4.2289  -15.8446    0.0000 H   0  0  0  0  0  0  0  0  0  0  0  0
    5.4690  -17.2218    0.0000 H   0  0  0  0  0  0  0  0  0  0  0  0
    4.4514  -16.8912    0.0000 H   0  0  0  0  0  0  0  0  0  0  0  0
   10.0677  -13.1160    0.0000 H   0  0  0  0  0  0  0  0  0  0  0  0
   11.1318  -13.0041    0.0000 H   0  0  0  0  0  0  0  0  0  0  0  0
   11.2460  -12.3067    0.0000 H   0  0  0  0  0  0  0  0  0  0  0  0
   13.0929  -12.1126    0.0000 H   0  0  0  0  0  0  0  0  0  0  0  0
   14.3789  -12.7372    0.0000 H   0  0  0  0  0  0  0  0  0  0  0  0
   15.9129  -15.0834    0.0000 H   0  0  0  0  0  0  0  0  0  0  0  0
   15.7190  -13.2403    0.0000 H   0  0  0  0  0  0  0  0  0  0  0  0
   16.3480  -14.1059    0.0000 H   0  0  0  0  0  0  0  0  0  0  0  0
   13.4290  -15.3114    0.0000 H   0  0  0  0  0  0  0  0  0  0  0  0
   11.5823  -15.5056    0.0000 H   0  0  0  0  0  0  0  0  0  0  0  0
    9.8116  -16.4100    0.0000 H   0  0  0  0  0  0  0  0  0  0  0  0
    7.9648  -16.6042    0.0000 H   0  0  0  0  0  0  0  0  0  0  0  0
  1  2  1  0  0  0  0
  1 48  1  0  0  0  0
  1 49  1  0  0  0  0
  1 50  1  0  0  0  0
  2  3  1  0  0  0  0
  2  4  1  0  0  0  0
  2 51  1  0  0  0  0
  3 52  1  0  0  0  0
  3 53  1  0  0  0  0
  3 54  1  0  0  0  0
  4  5  1  0  0  0  0
  4 55  1  0  0  0  0
  4 56  1  0  0  0  0
  5  6  1  0  0  0  0
  5 10  1  0  0  0  0
  5 57  1  6  0  0  0
  6  7  2  0  0  0  0
  7  8  1  0  0  0  0
  7  9  1  0  0  0  0
  8 58  1  0  0  0  0
  8 59  1  0  0  0  0
  9 60  1  0  0  0  0
  9 61  1  0  0  0  0
 10 11  2  0  0  0  0
 10 12  1  0  0  0  0
 12 13  1  0  0  0  0
 12 62  1  0  0  0  0
 13 14  1  0  0  0  0
 13 63  1  0  0  0  0
 13 64  1  0  0  0  0
 14 15  2  0  0  0  0
 14 16  1  0  0  0  0
 16 17  1  0  0  0  0
 16 21  1  0  0  0  0
 17 18  1  0  0  0  0
 17 65  1  0  0  0  0
 17 66  1  0  0  0  0
 18 19  1  0  0  0  0
 18 67  1  0  0  0  0
 18 68  1  0  0  0  0
 19 20  1  0  0  0  0
 19 22  1  0  0  0  0
 19 69  1  0  0  0  0
 20 21  1  0  0  0  0
 20 70  1  0  0  0  0
 20 71  1  0  0  0  0
 21 72  1  0  0  0  0
 21 73  1  0  0  0  0
 22 23  2  0  0  0  0
 22 26  1  0  0  0  0
 23 24  1  0  0  0  0
 23 74  1  0  0  0  0
 24 25  2  0  0  0  0
 24 28  1  0  0  0  0
 25 26  1  0  0  0  0
 26 27  1  0  0  0  0
 27 75  1  0  0  0  0
 27 76  1  0  0  0  0
 27 77  1  0  0  0  0
 28 29  2  0  0  0  0
 28 47  1  0  0  0  0
 29 30  1  0  0  0  0
 29 31  1  0  0  0  0
 31 32  1  0  0  0  0
 31 33  2  0  0  0  0
 33 34  1  0  0  0  0
 33 46  1  0  0  0  0
 34 35  1  0  0  0  0
 35 36  1  0  0  0  0
 35 78  1  0  0  0  0
 35 79  1  0  0  0  0
 36 37  2  0  0  0  0
 36 45  1  0  0  0  0
 37 38  1  0  0  0  0
 37 80  1  0  0  0  0
 38 39  2  0  0  0  0
 38 81  1  0  0  0  0
 39 40  1  0  0  0  0
 39 44  1  0  0  0  0
 40 41  1  0  0  0  0
 40 82  1  0  0  0  0
 41 42  1  0  0  0  0
 41 43  2  0  0  0  0
 42 83  1  0  0  0  0
 42 84  1  0  0  0  0
 42 85  1  0  0  0  0
 44 45  2  0  0  0  0
 44 86  1  0  0  0  0
 45 87  1  0  0  0  0
 46 47  2  0  0  0  0
 46 88  1  0  0  0  0
 47 89  1  0  0  0  0
M  END
>  <DRUGBANK_ID>
DB02555

>  <SECONDARY_ACCESSION_NUMBERS>
EXPT01492

>  <COMMON_NAME>
SP4160

$$$$
