BGL
 OpenBabel10282417072D

 48 48  0  0  0  0  0  0  0  0999 V2000
   -2.4337    0.6377    0.0000 C   0  0  1  0  0  0  0  0  0  0  0  0
   -2.4337    1.4628    0.0000 O   0  0  0  0  0  0  0  0  0  0  0  0
   -1.7192    0.2253    0.0000 C   0  0  2  0  0  0  0  0  0  0  0  0
   -1.0048    0.6377    0.0000 O   0  0  0  0  0  0  0  0  0  0  0  0
   -1.7192   -0.5996    0.0000 C   0  0  1  0  0  0  0  0  0  0  0  0
   -1.0048   -1.0122    0.0000 O   0  0  0  0  0  0  0  0  0  0  0  0
   -2.4337   -1.0122    0.0000 C   0  0  2  0  0  0  0  0  0  0  0  0
   -2.4337   -1.8371    0.0000 O   0  0  0  0  0  0  0  0  0  0  0  0
   -3.1481   -0.5996    0.0000 C   0  0  2  0  0  0  0  0  0  0  0  0
   -3.1481    0.2253    0.0000 O   0  0  0  0  0  0  0  0  0  0  0  0
   -3.8626   -1.0122    0.0000 C   0  0  0  0  0  0  0  0  0  0  0  0
   -4.5770   -0.5996    0.0000 O   0  0  0  0  0  0  0  0  0  0  0  0
   -0.2903    0.2253    0.0000 C   0  0  0  0  0  0  0  0  0  0  0  0
    0.4241    0.6377    0.0000 C   0  0  0  0  0  0  0  0  0  0  0  0
    1.1386    0.2253    0.0000 C   0  0  0  0  0  0  0  0  0  0  0  0
    1.8530    0.6377    0.0000 C   0  0  0  0  0  0  0  0  0  0  0  0
    2.5676    0.2253    0.0000 C   0  0  0  0  0  0  0  0  0  0  0  0
    3.2819    0.6377    0.0000 C   0  0  0  0  0  0  0  0  0  0  0  0
    3.9964    0.2253    0.0000 C   0  0  0  0  0  0  0  0  0  0  0  0
    4.7110    0.6377    0.0000 C   0  0  0  0  0  0  0  0  0  0  0  0
   -2.0584    1.0851    0.0000 H   0  0  0  0  0  0  0  0  0  0  0  0
   -1.5195    0.7740    0.0000 H   0  0  0  0  0  0  0  0  0  0  0  0
   -1.2136   -0.3077    0.0000 H   0  0  0  0  0  0  0  0  0  0  0  0
   -1.9279   -1.3042    0.0000 H   0  0  0  0  0  0  0  0  0  0  0  0
   -3.1481   -1.1836    0.0000 H   0  0  0  0  0  0  0  0  0  0  0  0
   -1.5937    1.9478    0.0000 H   0  0  0  0  0  0  0  0  0  0  0  0
   -1.0049   -1.9822    0.0000 H   0  0  0  0  0  0  0  0  0  0  0  0
   -3.2737   -2.3221    0.0000 H   0  0  0  0  0  0  0  0  0  0  0  0
   -3.8626   -2.0822    0.0000 H   0  0  0  0  0  0  0  0  0  0  0  0
   -4.7893   -1.5471    0.0000 H   0  0  0  0  0  0  0  0  0  0  0  0
   -4.5769    0.3704    0.0000 H   0  0  0  0  0  0  0  0  0  0  0  0
   -0.2903   -0.8447    0.0000 H   0  0  0  0  0  0  0  0  0  0  0  0
    0.6363   -0.3097    0.0000 H   0  0  0  0  0  0  0  0  0  0  0  0
    0.4241    1.7077    0.0000 H   0  0  0  0  0  0  0  0  0  0  0  0
    1.3507    1.1728    0.0000 H   0  0  0  0  0  0  0  0  0  0  0  0
    1.1386   -0.8447    0.0000 H   0  0  0  0  0  0  0  0  0  0  0  0
    2.0652   -0.3097    0.0000 H   0  0  0  0  0  0  0  0  0  0  0  0
    1.8529    1.7077    0.0000 H   0  0  0  0  0  0  0  0  0  0  0  0
    2.7796    1.1728    0.0000 H   0  0  0  0  0  0  0  0  0  0  0  0
    2.5677   -0.8447    0.0000 H   0  0  0  0  0  0  0  0  0  0  0  0
    3.4943   -0.3097    0.0000 H   0  0  0  0  0  0  0  0  0  0  0  0
    3.2818    1.7077    0.0000 H   0  0  0  0  0  0  0  0  0  0  0  0
    4.2085    1.1728    0.0000 H   0  0  0  0  0  0  0  0  0  0  0  0
    3.9964   -0.8447    0.0000 H   0  0  0  0  0  0  0  0  0  0  0  0
    4.9230   -0.3098    0.0000 H   0  0  0  0  0  0  0  0  0  0  0  0
    5.6375    0.1025    0.0000 H   0  0  0  0  0  0  0  0  0  0  0  0
    4.7112    1.7077    0.0000 H   0  0  0  0  0  0  0  0  0  0  0  0
    5.6377    1.1725    0.0000 H   0  0  0  0  0  0  0  0  0  0  0  0
  1  2  1  0  0  0  0
  1  3  1  0  0  0  0
  1 10  1  0  0  0  0
  1 21  1  6  0  0  0
  2 26  1  0  0  0  0
  3  4  1  0  0  0  0
  3  5  1  0  0  0  0
  3 22  1  1  0  0  0
  4 13  1  0  0  0  0
  5  6  1  0  0  0  0
  5  7  1  0  0  0  0
  5 23  1  6  0  0  0
  6 27  1  0  0  0  0
  7  8  1  0  0  0  0
  7  9  1  0  0  0  0
  7 24  1  1  0  0  0
  8 28  1  0  0  0  0
  9 10  1  0  0  0  0
  9 11  1  0  0  0  0
  9 25  1  6  0  0  0
 11 12  1  0  0  0  0
 11 29  1  0  0  0  0
 11 30  1  0  0  0  0
 12 31  1  0  0  0  0
 13 14  1  0  0  0  0
 13 32  1  0  0  0  0
 13 33  1  0  0  0  0
 14 15  1  0  0  0  0
 14 34  1  0  0  0  0
 14 35  1  0  0  0  0
 15 16  1  0  0  0  0
 15 36  1  0  0  0  0
 15 37  1  0  0  0  0
 16 17  1  0  0  0  0
 16 38  1  0  0  0  0
 16 39  1  0  0  0  0
 17 18  1  0  0  0  0
 17 40  1  0  0  0  0
 17 41  1  0  0  0  0
 18 19  1  0  0  0  0
 18 42  1  0  0  0  0
 18 43  1  0  0  0  0
 19 20  1  0  0  0  0
 19 44  1  0  0  0  0
 19 45  1  0  0  0  0
 20 46  1  0  0  0  0
 20 47  1  0  0  0  0
 20 48  1  0  0  0  0
M  END
>  <DRUGBANK_ID>
DB03152

>  <SECONDARY_ACCESSION_NUMBERS>
EXPT00687

>  <COMMON_NAME>
B-2-Octylglucoside

$$$$
