
 OpenBabel10282417072D

 25 25  0  0  0  0  0  0  0  0999 V2000
    0.3484   -0.0036    0.0000 C   0  0  0  0  0  0  0  0  0  0  0  0
   -0.3601    0.4192    0.0000 C   0  0  0  0  0  0  0  0  0  0  0  0
    0.3484   -0.8216    0.0000 C   0  0  0  0  0  0  0  0  0  0  0  0
    1.0658    0.3987    0.0000 C   0  0  0  0  0  0  0  0  0  0  0  0
   -1.0745   -0.0036    0.0000 C   0  0  0  0  0  0  0  0  0  0  0  0
   -0.3601    1.2444    0.0000 C   0  0  0  0  0  0  0  0  0  0  0  0
   -0.3601   -1.2444    0.0000 C   0  0  0  0  0  0  0  0  0  0  0  0
    1.0658    1.2225    0.0000 C   0  0  0  0  0  0  0  0  0  0  0  0
    1.7860   -0.0240    0.0000 C   0  0  0  0  0  0  0  0  0  0  0  0
   -1.0745   -0.8216    0.0000 C   0  0  0  0  0  0  0  0  0  0  0  0
   -1.7860   -1.2239    0.0000 O   0  0  0  0  0  0  0  0  0  0  0  0
    1.2458   -1.3311    0.0000 H   0  0  0  0  0  0  0  0  0  0  0  0
    1.9944    0.9304    0.0000 H   0  0  0  0  0  0  0  0  0  0  0  0
   -1.9710    0.5076    0.0000 H   0  0  0  0  0  0  0  0  0  0  0  0
    0.5665    1.7794    0.0000 H   0  0  0  0  0  0  0  0  0  0  0  0
   -1.2867    1.7794    0.0000 H   0  0  0  0  0  0  0  0  0  0  0  0
   -0.3601    2.3144    0.0000 H   0  0  0  0  0  0  0  0  0  0  0  0
   -0.3582   -2.2764    0.0000 H   0  0  0  0  0  0  0  0  0  0  0  0
    1.9924    1.7575    0.0000 H   0  0  0  0  0  0  0  0  0  0  0  0
    0.1392    1.7575    0.0000 H   0  0  0  0  0  0  0  0  0  0  0  0
    1.0658    2.2925    0.0000 H   0  0  0  0  0  0  0  0  0  0  0  0
    1.7784   -1.0940    0.0000 H   0  0  0  0  0  0  0  0  0  0  0  0
    2.7164    0.5044    0.0000 H   0  0  0  0  0  0  0  0  0  0  0  0
    2.7088   -0.5656    0.0000 H   0  0  0  0  0  0  0  0  0  0  0  0
   -2.5932   -0.7481    0.0000 H   0  0  0  0  0  0  0  0  0  0  0  0
  1  2  1  0  0  0  0
  1  3  2  0  0  0  0
  1  4  1  0  0  0  0
  2  5  2  0  0  0  0
  2  6  1  0  0  0  0
  3  7  1  0  0  0  0
  3 12  1  0  0  0  0
  4  8  1  0  0  0  0
  4  9  1  0  0  0  0
  4 13  1  0  0  0  0
  5 10  1  0  0  0  0
  5 14  1  0  0  0  0
  6 15  1  0  0  0  0
  6 16  1  0  0  0  0
  6 17  1  0  0  0  0
  7 10  2  0  0  0  0
  7 18  1  0  0  0  0
  8 19  1  0  0  0  0
  8 20  1  0  0  0  0
  8 21  1  0  0  0  0
  9 22  1  0  0  0  0
  9 23  1  0  0  0  0
  9 24  1  0  0  0  0
 10 11  1  0  0  0  0
 11 25  1  0  0  0  0
M  END
>  <DRUGBANK_ID>
DB15901

>  <COMMON_NAME>
o-Cymen-5-ol

>  <CAS_NUMBER>
3228-02-2

>  <UNII>
H41B6Q1I9L

>  <SYNONYMS>
4-Isopropyl-3-methylphenol; 4-Isopropyl-m-cresol; o-Cymen-5-ol; o-Cymen-5y-ol; p-Thymol

$$$$
