
 OpenBabel10282417072D

 16 15  0  0  0  0  0  0  0  0999 V2000
   -1.7862    0.2062    0.0000 O   0  0  0  0  0  0  0  0  0  0  0  0
   -1.0717   -0.2062    0.0000 C   0  0  0  0  0  0  0  0  0  0  0  0
    1.0717    0.2063    0.0000 C   0  0  0  0  0  0  0  0  0  0  0  0
    0.3572   -0.2061    0.0000 C   0  0  2  0  0  0  0  0  0  0  0  0
   -0.3572    0.2062    0.0000 C   0  0  2  0  0  0  0  0  0  0  0  0
    1.7862   -0.2061    0.0000 O   0  0  0  0  0  0  0  0  0  0  0  0
    1.0717    1.0312    0.0000 O   0  0  0  0  0  0  0  0  0  0  0  0
   -1.0717   -1.0312    0.0000 O   0  0  0  0  0  0  0  0  0  0  0  0
    0.3572   -1.0312    0.0000 O   0  0  0  0  0  0  0  0  0  0  0  0
   -0.3572    1.0312    0.0000 O   0  0  0  0  0  0  0  0  0  0  0  0
   -1.7863    1.1432    0.0000 H   0  0  0  0  0  0  0  0  0  0  0  0
    1.2838   -0.7412    0.0000 H   0  0  0  0  0  0  0  0  0  0  0  0
   -1.2838    0.7413    0.0000 H   0  0  0  0  0  0  0  0  0  0  0  0
    1.7863   -1.1431    0.0000 H   0  0  0  0  0  0  0  0  0  0  0  0
   -0.4828   -1.5162    0.0000 H   0  0  0  0  0  0  0  0  0  0  0  0
    0.4828    1.5162    0.0000 H   0  0  0  0  0  0  0  0  0  0  0  0
  1  2  1  0  0  0  0
  1 11  1  0  0  0  0
  2  5  1  0  0  0  0
  4  3  1  0  0  0  0
  4  9  1  0  0  0  0
  4 12  1  6  0  0  0
  5  4  1  0  0  0  0
  5 10  1  0  0  0  0
  5 13  1  6  0  0  0
  6  3  1  0  0  0  0
  6 14  1  0  0  0  0
  7  3  2  0  0  0  0
  8  2  2  0  0  0  0
  9 15  1  0  0  0  0
 10 16  1  0  0  0  0
M  END
>  <DRUGBANK_ID>
DB01694

>  <SECONDARY_ACCESSION_NUMBERS>
EXPT03007

>  <COMMON_NAME>
D-tartaric acid

>  <CAS_NUMBER>
147-71-7

>  <UNII>
RRX6A4PL3C

>  <SYNONYMS>
(-)-Tartaric acid; (−)-(S,S)-tartaric acid; (−)-D-tartaric acid; (−)-Weinsäure; (2S,3S)-(−)-tartaric acid; (2S,3S)-tartaric acid; (S,S)-(−)-tartaric acid; (S,S)-Tartaric acid; D-(−)-tartaric acid; D-tartaric acid; D-threaric acid; Linksweinsäure

$$$$
