
 OpenBabel10282417072D

 86 88  0  0  1  0  0  0  0  0999 V2000
   -2.2640    4.1468    0.0000 S   0  0  0  0  0  0  0  0  0  0  0  0
    0.2800    1.3394    0.0000 O   0  0  0  0  0  0  0  0  0  0  0  0
    0.6924    0.6249    0.0000 O   0  0  0  0  0  0  0  0  0  0  0  0
   -0.5450    4.1974    0.0000 O   0  0  0  0  0  0  0  0  0  0  0  0
    2.7550   -1.5184    0.0000 O   0  0  0  0  0  0  0  0  0  0  0  0
    4.4050   -0.0895    0.0000 O   0  0  0  0  0  0  0  0  0  0  0  0
    0.6924   -3.6618    0.0000 O   0  0  0  0  0  0  0  0  0  0  0  0
    0.2800    2.7684    0.0000 N   0  0  0  0  0  0  0  0  0  0  0  0
    1.9300    1.3394    0.0000 N   0  0  0  0  0  0  0  0  0  0  0  0
    1.5175   -0.8040    0.0000 N   0  0  0  0  0  0  0  0  0  0  0  0
   -2.2640    2.8189    0.0000 N   0  0  0  0  0  0  0  0  0  0  0  0
   -0.5450   -0.0895    0.0000 N   0  0  0  0  0  0  0  0  0  0  0  0
    4.4050   -1.5184    0.0000 N   0  0  0  0  0  0  0  0  0  0  0  0
    1.9300   -2.9474    0.0000 N   0  0  0  0  0  0  0  0  0  0  0  0
   -0.5450   -1.5184    0.0000 N   0  0  0  0  0  0  0  0  0  0  0  0
   -1.7825   -0.8040    0.0000 N   0  0  0  0  0  0  0  0  0  0  0  0
    1.5175    2.0539    0.0000 C   0  0  1  0  0  0  0  0  0  0  0  0
   -0.5450    2.7684    0.0000 C   0  0  1  0  0  0  0  0  0  0  0  0
   -0.9575    2.0539    0.0000 C   0  0  0  0  0  0  0  0  0  0  0  0
    1.9300    2.7684    0.0000 C   0  0  0  0  0  0  0  0  0  0  0  0
    1.9300   -0.0895    0.0000 C   0  0  1  0  0  0  0  0  0  0  0  0
    0.6924    2.0539    0.0000 C   0  0  0  0  0  0  0  0  0  0  0  0
   -0.5450    1.3394    0.0000 C   0  0  0  0  0  0  0  0  0  0  0  0
    2.7550   -0.0895    0.0000 C   0  0  0  0  0  0  0  0  0  0  0  0
    1.5175    0.6249    0.0000 C   0  0  0  0  0  0  0  0  0  0  0  0
   -0.9575    3.4828    0.0000 C   0  0  0  0  0  0  0  0  0  0  0  0
    2.7550    2.7684    0.0000 C   0  0  0  0  0  0  0  0  0  0  0  0
   -0.9575    0.6249    0.0000 C   0  0  0  0  0  0  0  0  0  0  0  0
    3.1675   -0.8040    0.0000 C   0  0  0  0  0  0  0  0  0  0  0  0
   -1.7825    3.4828    0.0000 C   0  0  0  0  0  0  0  0  0  0  0  0
    3.1675    3.4828    0.0000 C   0  0  0  0  0  0  0  0  0  0  0  0
    3.1675    2.0539    0.0000 C   0  0  0  0  0  0  0  0  0  0  0  0
    1.9300   -1.5184    0.0000 C   0  0  0  0  0  0  0  0  0  0  0  0
    3.9925   -0.8040    0.0000 C   0  0  0  0  0  0  0  0  0  0  0  0
    3.9925    3.4828    0.0000 C   0  0  0  0  0  0  0  0  0  0  0  0
    3.9925    2.0539    0.0000 C   0  0  0  0  0  0  0  0  0  0  0  0
   -3.0447    3.8953    0.0000 C   0  0  0  0  0  0  0  0  0  0  0  0
   -3.0447    3.0703    0.0000 C   0  0  0  0  0  0  0  0  0  0  0  0
    1.5175   -2.2329    0.0000 C   0  0  0  0  0  0  0  0  0  0  0  0
    4.4050    2.7684    0.0000 C   0  0  0  0  0  0  0  0  0  0  0  0
   -3.7591    4.3078    0.0000 C   0  0  0  0  0  0  0  0  0  0  0  0
   -3.7591    2.6578    0.0000 C   0  0  0  0  0  0  0  0  0  0  0  0
   -0.9575   -0.8040    0.0000 C   0  0  0  0  0  0  0  0  0  0  0  0
   -4.4735    3.8953    0.0000 C   0  0  0  0  0  0  0  0  0  0  0  0
   -4.4735    3.0703    0.0000 C   0  0  0  0  0  0  0  0  0  0  0  0
    1.5175   -3.6618    0.0000 C   0  0  0  0  0  0  0  0  0  0  0  0
    1.9300   -4.3763    0.0000 C   0  0  0  0  0  0  0  0  0  0  0  0
    0.7723    3.6210    0.0000 H   0  0  0  0  0  0  0  0  0  0  0  0
    2.9145    1.3394    0.0000 H   0  0  0  0  0  0  0  0  0  0  0  0
    0.5330   -0.8040    0.0000 H   0  0  0  0  0  0  0  0  0  0  0  0
    3.9128   -2.3710    0.0000 H   0  0  0  0  0  0  0  0  0  0  0  0
    5.3895   -1.5184    0.0000 H   0  0  0  0  0  0  0  0  0  0  0  0
    2.9145   -2.9474    0.0000 H   0  0  0  0  0  0  0  0  0  0  0  0
   -1.0372   -2.3710    0.0000 H   0  0  0  0  0  0  0  0  0  0  0  0
    0.4395   -1.5184    0.0000 H   0  0  0  0  0  0  0  0  0  0  0  0
   -2.2748    0.0486    0.0000 H   0  0  0  0  0  0  0  0  0  0  0  0
   -2.2748   -1.6566    0.0000 H   0  0  0  0  0  0  0  0  0  0  0  0
    2.5875    2.0539    0.0000 H   0  0  0  0  0  0  0  0  0  0  0  0
   -0.0100    1.8418    0.0000 H   0  0  0  0  0  0  0  0  0  0  0  0
   -2.0275    2.0539    0.0000 H   0  0  0  0  0  0  0  0  0  0  0  0
   -1.4925    1.1273    0.0000 H   0  0  0  0  0  0  0  0  0  0  0  0
    1.3950    3.6950    0.0000 H   0  0  0  0  0  0  0  0  0  0  0  0
    2.4650    3.6950    0.0000 H   0  0  0  0  0  0  0  0  0  0  0  0
    2.4650   -1.0161    0.0000 H   0  0  0  0  0  0  0  0  0  0  0  0
    0.5250    1.3394    0.0000 H   0  0  0  0  0  0  0  0  0  0  0  0
   -0.0100    0.4128    0.0000 H   0  0  0  0  0  0  0  0  0  0  0  0
    3.2900    0.8371    0.0000 H   0  0  0  0  0  0  0  0  0  0  0  0
    3.8250   -0.0895    0.0000 H   0  0  0  0  0  0  0  0  0  0  0  0
   -2.0275    0.6249    0.0000 H   0  0  0  0  0  0  0  0  0  0  0  0
   -1.4925    1.5515    0.0000 H   0  0  0  0  0  0  0  0  0  0  0  0
    2.6325   -1.7306    0.0000 H   0  0  0  0  0  0  0  0  0  0  0  0
    3.7025   -1.7306    0.0000 H   0  0  0  0  0  0  0  0  0  0  0  0
    2.6515    4.3765    0.0000 H   0  0  0  0  0  0  0  0  0  0  0  0
    2.6515    1.1602    0.0000 H   0  0  0  0  0  0  0  0  0  0  0  0
    4.5085    4.3765    0.0000 H   0  0  0  0  0  0  0  0  0  0  0  0
    4.5085    1.1602    0.0000 H   0  0  0  0  0  0  0  0  0  0  0  0
    0.4475   -2.2329    0.0000 H   0  0  0  0  0  0  0  0  0  0  0  0
    0.9825   -1.3063    0.0000 H   0  0  0  0  0  0  0  0  0  0  0  0
    5.4370    2.7684    0.0000 H   0  0  0  0  0  0  0  0  0  0  0  0
   -3.7591    5.3398    0.0000 H   0  0  0  0  0  0  0  0  0  0  0  0
   -3.7591    1.6258    0.0000 H   0  0  0  0  0  0  0  0  0  0  0  0
   -5.3672    4.4113    0.0000 H   0  0  0  0  0  0  0  0  0  0  0  0
   -5.3672    2.5543    0.0000 H   0  0  0  0  0  0  0  0  0  0  0  0
    1.3950   -5.3029    0.0000 H   0  0  0  0  0  0  0  0  0  0  0  0
    3.0000   -4.3763    0.0000 H   0  0  0  0  0  0  0  0  0  0  0  0
    2.4650   -5.3030    0.0000 H   0  0  0  0  0  0  0  0  0  0  0  0
  1 30  1  0  0  0  0
  1 37  1  0  0  0  0
  2 22  2  0  0  0  0
  3 25  2  0  0  0  0
  4 26  2  0  0  0  0
  5 33  2  0  0  0  0
  6 34  2  0  0  0  0
  7 46  2  0  0  0  0
  8 22  1  0  0  0  0
  8 48  1  0  0  0  0
  9 25  1  0  0  0  0
  9 49  1  0  0  0  0
 10 33  1  0  0  0  0
 10 50  1  0  0  0  0
 11 30  2  0  0  0  0
 11 38  1  0  0  0  0
 12 28  1  0  0  0  0
 12 43  2  0  0  0  0
 13 34  1  0  0  0  0
 13 51  1  0  0  0  0
 13 52  1  0  0  0  0
 14 39  1  0  0  0  0
 14 46  1  0  0  0  0
 14 53  1  0  0  0  0
 15 43  1  0  0  0  0
 15 54  1  0  0  0  0
 15 55  1  0  0  0  0
 16 43  1  0  0  0  0
 16 56  1  0  0  0  0
 16 57  1  0  0  0  0
 17  9  1  0  0  0  0
 17 20  1  0  0  0  0
 17 22  1  0  0  0  0
 17 58  1  1  0  0  0
 18  8  1  0  0  0  0
 18 19  1  0  0  0  0
 18 26  1  0  0  0  0
 18 59  1  6  0  0  0
 19 23  1  0  0  0  0
 19 60  1  0  0  0  0
 19 61  1  0  0  0  0
 20 27  1  0  0  0  0
 20 62  1  0  0  0  0
 20 63  1  0  0  0  0
 21 10  1  0  0  0  0
 21 24  1  0  0  0  0
 21 25  1  0  0  0  0
 21 64  1  1  0  0  0
 23 28  1  0  0  0  0
 23 65  1  0  0  0  0
 23 66  1  0  0  0  0
 24 29  1  0  0  0  0
 24 67  1  0  0  0  0
 24 68  1  0  0  0  0
 26 30  1  0  0  0  0
 27 31  2  0  0  0  0
 27 32  1  0  0  0  0
 28 69  1  0  0  0  0
 28 70  1  0  0  0  0
 29 34  1  0  0  0  0
 29 71  1  0  0  0  0
 29 72  1  0  0  0  0
 31 35  1  0  0  0  0
 31 73  1  0  0  0  0
 32 36  2  0  0  0  0
 32 74  1  0  0  0  0
 33 39  1  0  0  0  0
 35 40  2  0  0  0  0
 35 75  1  0  0  0  0
 36 40  1  0  0  0  0
 36 76  1  0  0  0  0
 37 38  1  0  0  0  0
 37 41  2  0  0  0  0
 38 42  2  0  0  0  0
 39 77  1  0  0  0  0
 39 78  1  0  0  0  0
 40 79  1  0  0  0  0
 41 44  1  0  0  0  0
 41 80  1  0  0  0  0
 42 45  1  0  0  0  0
 42 81  1  0  0  0  0
 44 45  2  0  0  0  0
 44 82  1  0  0  0  0
 45 83  1  0  0  0  0
 46 47  1  0  0  0  0
 47 84  1  0  0  0  0
 47 85  1  0  0  0  0
 47 86  1  0  0  0  0
M  END
>  <DRUGBANK_ID>
DB16737

>  <COMMON_NAME>
MM3122

>  <SYNONYMS>
Ac-GQFR-kbt

$$$$
