
 OpenBabel10282417072D

 46 49  0  0  0  0  0  0  0  0999 V2000
    0.5746    1.7900    0.0000 C   0  0  0  0  0  0  0  0  0  0  0  0
    0.7634    0.9737    0.0000 C   0  0  0  0  0  0  0  0  0  0  0  0
    0.1509    0.4341    0.0000 C   0  0  0  0  0  0  0  0  0  0  0  0
   -0.6340    0.6794    0.0000 C   0  0  0  0  0  0  0  0  0  0  0  0
   -0.8303    1.4719    0.0000 C   0  0  0  0  0  0  0  0  0  0  0  0
   -0.2103    2.0354    0.0000 C   0  0  0  0  0  0  0  0  0  0  0  0
    1.1707    2.3609    0.0000 O   0  0  0  0  0  0  0  0  0  0  0  0
   -1.6154    1.7171    0.0000 O   0  0  0  0  0  0  0  0  0  0  0  0
   -2.4495   -0.4504    0.0000 N   0  0  0  0  0  0  0  0  0  0  0  0
   -2.0450    0.2587    0.0000 N   0  0  0  0  0  0  0  0  0  0  0  0
   -1.1203   -0.7092    0.0000 C   0  0  0  0  0  0  0  0  0  0  0  0
   -1.2303    0.1085    0.0000 C   0  0  0  0  0  0  0  0  0  0  0  0
   -1.8621   -1.0778    0.0000 C   0  0  0  0  0  0  0  0  0  0  0  0
    1.7089   -0.6794    0.0000 O   0  0  0  0  0  0  0  0  0  0  0  0
    2.4419   -1.0912    0.0000 C   0  0  0  0  0  0  0  0  0  0  0  0
    2.4495   -1.9031    0.0000 C   0  0  0  0  0  0  0  0  0  0  0  0
    1.7403   -2.3342    0.0000 O   0  0  0  0  0  0  0  0  0  0  0  0
    1.0072   -1.9224    0.0000 C   0  0  0  0  0  0  0  0  0  0  0  0
    1.0072   -1.0868    0.0000 C   0  0  0  0  0  0  0  0  0  0  0  0
    0.2906   -0.7061    0.0000 C   0  0  0  0  0  0  0  0  0  0  0  0
   -0.4111   -1.1136    0.0000 C   0  0  0  0  0  0  0  0  0  0  0  0
   -0.4111   -1.9491    0.0000 C   0  0  0  0  0  0  0  0  0  0  0  0
    0.3218   -2.3609    0.0000 C   0  0  0  0  0  0  0  0  0  0  0  0
   -2.0048   -1.8688    0.0000 C   0  0  0  0  0  0  0  0  0  0  0  0
    1.5722    0.7211    0.0000 C   0  0  0  0  0  0  0  0  0  0  0  0
    2.1683    1.2920    0.0000 C   0  0  0  0  0  0  0  0  0  0  0  0
    0.3657   -0.5753    0.0000 H   0  0  0  0  0  0  0  0  0  0  0  0
   -0.4328    3.0431    0.0000 H   0  0  0  0  0  0  0  0  0  0  0  0
    2.0703    2.0989    0.0000 H   0  0  0  0  0  0  0  0  0  0  0  0
   -1.8207    2.6313    0.0000 H   0  0  0  0  0  0  0  0  0  0  0  0
   -2.4599    1.1515    0.0000 H   0  0  0  0  0  0  0  0  0  0  0  0
    3.3629   -0.5465    0.0000 H   0  0  0  0  0  0  0  0  0  0  0  0
    3.3738   -1.6169    0.0000 H   0  0  0  0  0  0  0  0  0  0  0  0
    3.3846   -2.4232    0.0000 H   0  0  0  0  0  0  0  0  0  0  0  0
    2.4701   -2.9729    0.0000 H   0  0  0  0  0  0  0  0  0  0  0  0
    0.2711    0.3257    0.0000 H   0  0  0  0  0  0  0  0  0  0  0  0
   -1.3018   -2.4703    0.0000 H   0  0  0  0  0  0  0  0  0  0  0  0
    0.3513   -3.3925    0.0000 H   0  0  0  0  0  0  0  0  0  0  0  0
   -3.0117   -2.2308    0.0000 H   0  0  0  0  0  0  0  0  0  0  0  0
   -1.1879   -2.5598    0.0000 H   0  0  0  0  0  0  0  0  0  0  0  0
   -2.1948   -2.9218    0.0000 H   0  0  0  0  0  0  0  0  0  0  0  0
    1.8167   -0.3206    0.0000 H   0  0  0  0  0  0  0  0  0  0  0  0
    2.5981    0.4170    0.0000 H   0  0  0  0  0  0  0  0  0  0  0  0
    3.1956    0.9928    0.0000 H   0  0  0  0  0  0  0  0  0  0  0  0
    1.9137    2.3313    0.0000 H   0  0  0  0  0  0  0  0  0  0  0  0
    2.9411    2.0321    0.0000 H   0  0  0  0  0  0  0  0  0  0  0  0
  2  1  2  0  0  0  0
  3  2  1  0  0  0  0
  3 27  1  0  0  0  0
  4  3  2  0  0  0  0
  5  4  1  0  0  0  0
  6  1  1  0  0  0  0
  6  5  2  0  0  0  0
  6 28  1  0  0  0  0
  7  1  1  0  0  0  0
  7 29  1  0  0  0  0
  8  5  1  0  0  0  0
  8 30  1  0  0  0  0
 10  9  1  0  0  0  0
 10 31  1  0  0  0  0
 12  4  1  0  0  0  0
 12 10  1  0  0  0  0
 12 11  2  0  0  0  0
 13  9  2  0  0  0  0
 13 11  1  0  0  0  0
 15 14  1  0  0  0  0
 15 32  1  0  0  0  0
 15 33  1  0  0  0  0
 16 15  1  0  0  0  0
 16 34  1  0  0  0  0
 16 35  1  0  0  0  0
 17 16  1  0  0  0  0
 18 17  1  0  0  0  0
 19 14  1  0  0  0  0
 19 18  2  0  0  0  0
 20 19  1  0  0  0  0
 20 36  1  0  0  0  0
 21 11  1  0  0  0  0
 21 20  2  0  0  0  0
 22 21  1  0  0  0  0
 22 37  1  0  0  0  0
 23 18  1  0  0  0  0
 23 22  2  0  0  0  0
 23 38  1  0  0  0  0
 24 13  1  0  0  0  0
 24 39  1  0  0  0  0
 24 40  1  0  0  0  0
 24 41  1  0  0  0  0
 25  2  1  0  0  0  0
 25 42  1  0  0  0  0
 25 43  1  0  0  0  0
 26 25  1  0  0  0  0
 26 44  1  0  0  0  0
 26 45  1  0  0  0  0
 26 46  1  0  0  0  0
M  END
>  <DRUGBANK_ID>
DB07594

>  <COMMON_NAME>
CCT-018159

>  <CAS_NUMBER>
171009-07-7

>  <UNII>
55H1ZOI1NL

$$$$
