
 OpenBabel10282417072D

 41 43  0  0  0  0  0  0  0  0999 V2000
   -1.4289   -5.7750    0.0000 C   0  0  0  0  0  0  0  0  0  0  0  0
   -0.7145   -5.3625    0.0000 N   0  0  0  0  0  0  0  0  0  0  0  0
   -0.7145   -4.5375    0.0000 C   0  0  0  0  0  0  0  0  0  0  0  0
    0.0000   -5.7750    0.0000 C   0  0  0  0  0  0  0  0  0  0  0  0
    0.7145   -5.3625    0.0000 C   0  0  0  0  0  0  0  0  0  0  0  0
    1.4289   -5.7750    0.0000 N   0  0  0  0  0  0  0  0  0  0  0  0
    2.1434   -5.3625    0.0000 C   0  0  0  0  0  0  0  0  0  0  0  0
    2.1434   -4.5375    0.0000 O   0  0  0  0  0  0  0  0  0  0  0  0
    2.8579   -5.7750    0.0000 C   0  0  0  0  0  0  0  0  0  0  0  0
    2.8579   -6.6000    0.0000 C   0  0  0  0  0  0  0  0  0  0  0  0
    3.5724   -7.0125    0.0000 C   0  0  0  0  0  0  0  0  0  0  0  0
    4.2868   -6.6000    0.0000 C   0  0  0  0  0  0  0  0  0  0  0  0
    4.2868   -5.7750    0.0000 C   0  0  0  0  0  0  0  0  0  0  0  0
    3.5724   -5.3625    0.0000 C   0  0  0  0  0  0  0  0  0  0  0  0
    3.5724   -4.5375    0.0000 N   0  0  0  0  0  0  0  0  0  0  0  0
    4.2868   -4.1250    0.0000 C   0  0  0  0  0  0  0  0  0  0  0  0
    4.2868   -3.3000    0.0000 C   0  0  0  0  0  0  0  0  0  0  0  0
    5.0013   -2.8875    0.0000 C   0  0  0  0  0  0  0  0  0  0  0  0
    5.7158   -3.3000    0.0000 C   0  0  0  0  0  0  0  0  0  0  0  0
    5.7158   -4.1250    0.0000 C   0  0  0  0  0  0  0  0  0  0  0  0
    5.0013   -4.5375    0.0000 C   0  0  0  0  0  0  0  0  0  0  0  0
    5.0013   -5.3625    0.0000 C   0  0  0  0  0  0  0  0  0  0  0  0
   -2.3556   -5.2400    0.0000 H   0  0  0  0  0  0  0  0  0  0  0  0
   -1.4289   -6.8450    0.0000 H   0  0  0  0  0  0  0  0  0  0  0  0
   -2.3555   -6.3100    0.0000 H   0  0  0  0  0  0  0  0  0  0  0  0
    0.2121   -4.0025    0.0000 H   0  0  0  0  0  0  0  0  0  0  0  0
   -1.6411   -4.0025    0.0000 H   0  0  0  0  0  0  0  0  0  0  0  0
   -0.7145   -3.4675    0.0000 H   0  0  0  0  0  0  0  0  0  0  0  0
    0.0000   -6.8450    0.0000 H   0  0  0  0  0  0  0  0  0  0  0  0
    0.9266   -6.3100    0.0000 H   0  0  0  0  0  0  0  0  0  0  0  0
    0.7145   -4.2925    0.0000 H   0  0  0  0  0  0  0  0  0  0  0  0
    1.6412   -4.8275    0.0000 H   0  0  0  0  0  0  0  0  0  0  0  0
    1.4289   -6.7595    0.0000 H   0  0  0  0  0  0  0  0  0  0  0  0
    1.9642   -7.1160    0.0000 H   0  0  0  0  0  0  0  0  0  0  0  0
    3.5724   -8.0445    0.0000 H   0  0  0  0  0  0  0  0  0  0  0  0
    5.1805   -7.1160    0.0000 H   0  0  0  0  0  0  0  0  0  0  0  0
    3.3931   -2.7840    0.0000 H   0  0  0  0  0  0  0  0  0  0  0  0
    5.0013   -1.8555    0.0000 H   0  0  0  0  0  0  0  0  0  0  0  0
    6.6095   -2.7840    0.0000 H   0  0  0  0  0  0  0  0  0  0  0  0
    6.6095   -4.6410    0.0000 H   0  0  0  0  0  0  0  0  0  0  0  0
    5.8950   -5.8785    0.0000 H   0  0  0  0  0  0  0  0  0  0  0  0
  1  2  1  0  0  0  0
  1 23  1  0  0  0  0
  1 24  1  0  0  0  0
  1 25  1  0  0  0  0
  2  3  1  0  0  0  0
  2  4  1  0  0  0  0
  3 26  1  0  0  0  0
  3 27  1  0  0  0  0
  3 28  1  0  0  0  0
  4  5  1  0  0  0  0
  4 29  1  0  0  0  0
  4 30  1  0  0  0  0
  5  6  1  0  0  0  0
  5 31  1  0  0  0  0
  5 32  1  0  0  0  0
  6  7  1  0  0  0  0
  6 33  1  0  0  0  0
  7  8  2  0  0  0  0
  7  9  1  0  0  0  0
  9 10  1  0  0  0  0
  9 14  2  0  0  0  0
 10 11  2  0  0  0  0
 10 34  1  0  0  0  0
 11 12  1  0  0  0  0
 11 35  1  0  0  0  0
 12 13  2  0  0  0  0
 12 36  1  0  0  0  0
 13 14  1  0  0  0  0
 13 22  1  0  0  0  0
 14 15  1  0  0  0  0
 15 16  2  0  0  0  0
 16 17  1  0  0  0  0
 16 21  1  0  0  0  0
 17 18  2  0  0  0  0
 17 37  1  0  0  0  0
 18 19  1  0  0  0  0
 18 38  1  0  0  0  0
 19 20  2  0  0  0  0
 19 39  1  0  0  0  0
 20 21  1  0  0  0  0
 20 40  1  0  0  0  0
 21 22  2  0  0  0  0
 22 41  1  0  0  0  0
M  END
>  <DRUGBANK_ID>
DB11880

>  <COMMON_NAME>
Acridine Carboxamide

>  <CAS_NUMBER>
89459-25-6

>  <UNII>
0N3V8R4E13

>  <SYNONYMS>
DACA

$$$$
