
 OpenBabel10282417072D

 66 67  0  0  0  0  0  0  0  0999 V2000
    2.5007    1.0312    0.0000 C   0  0  0  0  0  0  0  0  0  0  0  0
    3.2151    0.6187    0.0000 C   0  0  0  0  0  0  0  0  0  0  0  0
    3.9296    1.0312    0.0000 C   0  0  0  0  0  0  0  0  0  0  0  0
    3.9296    1.8563    0.0000 C   0  0  0  0  0  0  0  0  0  0  0  0
    3.2151    2.2687    0.0000 C   0  0  0  0  0  0  0  0  0  0  0  0
    2.5007    1.8563    0.0000 C   0  0  0  0  0  0  0  0  0  0  0  0
    4.6442    0.6187    0.0000 C   0  0  0  0  0  0  0  0  0  0  0  0
    5.3586    1.0312    0.0000 N   0  0  0  0  0  0  0  0  0  0  0  0
    1.0717   -0.6187    0.0000 P   0  0  3  0  0  0  0  0  0  0  0  0
    0.6592    0.0956    0.0000 O   0  0  0  0  0  0  0  0  0  0  0  0
    0.3572   -1.0312    0.0000 C   0  0  2  0  0  0  0  0  0  0  0  0
    0.3572   -1.8563    0.0000 C   0  0  0  0  0  0  0  0  0  0  0  0
    1.0717   -2.2687    0.0000 C   0  0  0  0  0  0  0  0  0  0  0  0
   -0.3572   -2.2687    0.0000 C   0  0  0  0  0  0  0  0  0  0  0  0
   -0.3572   -0.6187    0.0000 N   0  0  0  0  0  0  0  0  0  0  0  0
   -1.0717   -1.0312    0.0000 S   0  0  0  0  0  0  0  0  0  0  0  0
   -1.4842   -0.3167    0.0000 O   0  0  0  0  0  0  0  0  0  0  0  0
   -0.6592   -1.7458    0.0000 O   0  0  0  0  0  0  0  0  0  0  0  0
   -1.7862   -1.4438    0.0000 C   0  0  0  0  0  0  0  0  0  0  0  0
   -2.5007   -1.0312    0.0000 C   0  0  0  0  0  0  0  0  0  0  0  0
   -3.2151   -1.4438    0.0000 C   0  0  0  0  0  0  0  0  0  0  0  0
   -3.9296   -1.0312    0.0000 C   0  0  0  0  0  0  0  0  0  0  0  0
   -4.6442   -1.4438    0.0000 C   0  0  0  0  0  0  0  0  0  0  0  0
   -5.3586   -1.0312    0.0000 C   0  0  0  0  0  0  0  0  0  0  0  0
   -5.3586   -0.2062    0.0000 C   0  0  0  0  0  0  0  0  0  0  0  0
   -4.6442    0.2062    0.0000 C   0  0  0  0  0  0  0  0  0  0  0  0
   -3.9296   -0.2062    0.0000 C   0  0  0  0  0  0  0  0  0  0  0  0
    1.4842   -1.3332    0.0000 O   0  0  0  0  0  0  0  0  0  0  0  0
    1.7862    0.6187    0.0000 C   0  0  1  0  0  0  0  0  0  0  0  0
    1.1372    1.1404    0.0000 C   0  0  0  0  0  0  0  0  0  0  0  0
    0.3572    0.6187    0.0000 O   0  0  0  0  0  0  0  0  0  0  0  0
    1.0717    1.8563    0.0000 O   0  0  0  0  0  0  0  0  0  0  0  0
    1.7862   -0.2062    0.0000 C   0  0  0  0  0  0  0  0  0  0  0  0
    3.2151   -0.4133    0.0000 H   0  0  0  0  0  0  0  0  0  0  0  0
    4.8233    2.3724    0.0000 H   0  0  0  0  0  0  0  0  0  0  0  0
    3.2151    3.3007    0.0000 H   0  0  0  0  0  0  0  0  0  0  0  0
    1.6070    2.3723    0.0000 H   0  0  0  0  0  0  0  0  0  0  0  0
    4.6443   -0.4513    0.0000 H   0  0  0  0  0  0  0  0  0  0  0  0
    5.5709    0.0837    0.0000 H   0  0  0  0  0  0  0  0  0  0  0  0
    6.2420    0.5212    0.0000 H   0  0  0  0  0  0  0  0  0  0  0  0
    5.3586    2.0512    0.0000 H   0  0  0  0  0  0  0  0  0  0  0  0
    0.3572    0.0388    0.0000 H   0  0  0  0  0  0  0  0  0  0  0  0
    0.3572   -2.9263    0.0000 H   0  0  0  0  0  0  0  0  0  0  0  0
    1.0718   -3.3387    0.0000 H   0  0  0  0  0  0  0  0  0  0  0  0
    1.9983   -1.7336    0.0000 H   0  0  0  0  0  0  0  0  0  0  0  0
    1.9984   -2.8036    0.0000 H   0  0  0  0  0  0  0  0  0  0  0  0
   -1.2838   -1.7336    0.0000 H   0  0  0  0  0  0  0  0  0  0  0  0
   -0.3573   -3.3387    0.0000 H   0  0  0  0  0  0  0  0  0  0  0  0
   -1.2839   -2.8036    0.0000 H   0  0  0  0  0  0  0  0  0  0  0  0
   -0.3572    0.4013    0.0000 H   0  0  0  0  0  0  0  0  0  0  0  0
   -1.7862   -2.5138    0.0000 H   0  0  0  0  0  0  0  0  0  0  0  0
   -2.7129   -1.9788    0.0000 H   0  0  0  0  0  0  0  0  0  0  0  0
   -2.5007    0.0388    0.0000 H   0  0  0  0  0  0  0  0  0  0  0  0
   -3.4274   -0.4963    0.0000 H   0  0  0  0  0  0  0  0  0  0  0  0
   -3.2151   -2.5138    0.0000 H   0  0  0  0  0  0  0  0  0  0  0  0
   -4.1418   -1.9788    0.0000 H   0  0  0  0  0  0  0  0  0  0  0  0
   -4.6443   -2.4758    0.0000 H   0  0  0  0  0  0  0  0  0  0  0  0
   -6.2524   -1.5471    0.0000 H   0  0  0  0  0  0  0  0  0  0  0  0
   -6.2523    0.3098    0.0000 H   0  0  0  0  0  0  0  0  0  0  0  0
   -4.6443    1.2382    0.0000 H   0  0  0  0  0  0  0  0  0  0  0  0
   -3.0359    0.3099    0.0000 H   0  0  0  0  0  0  0  0  0  0  0  0
    0.9992   -2.1732    0.0000 H   0  0  0  0  0  0  0  0  0  0  0  0
    1.8682    1.6855    0.0000 H   0  0  0  0  0  0  0  0  0  0  0  0
    1.8371    2.3968    0.0000 H   0  0  0  0  0  0  0  0  0  0  0  0
    2.7128   -0.7412    0.0000 H   0  0  0  0  0  0  0  0  0  0  0  0
    1.7862   -1.2762    0.0000 H   0  0  0  0  0  0  0  0  0  0  0  0
  1  2  1  0  0  0  0
  1  6  2  0  0  0  0
  1 29  1  0  0  0  0
  2  3  2  0  0  0  0
  2 34  1  0  0  0  0
  3  4  1  0  0  0  0
  3  7  1  0  0  0  0
  4  5  2  0  0  0  0
  4 35  1  0  0  0  0
  5  6  1  0  0  0  0
  5 36  1  0  0  0  0
  6 37  1  0  0  0  0
  7  8  1  0  0  0  0
  7 38  1  0  0  0  0
  7 39  1  0  0  0  0
  8 40  1  0  0  0  0
  8 41  1  0  0  0  0
  9 10  2  0  0  0  0
  9 11  1  0  0  0  0
  9 28  1  0  0  0  0
  9 33  1  0  0  0  0
 11 12  1  0  0  0  0
 11 15  1  0  0  0  0
 11 42  1  1  0  0  0
 12 13  1  0  0  0  0
 12 14  1  0  0  0  0
 12 43  1  0  0  0  0
 13 44  1  0  0  0  0
 13 45  1  0  0  0  0
 13 46  1  0  0  0  0
 14 47  1  0  0  0  0
 14 48  1  0  0  0  0
 14 49  1  0  0  0  0
 15 16  1  0  0  0  0
 15 50  1  0  0  0  0
 16 17  2  0  0  0  0
 16 18  2  0  0  0  0
 16 19  1  0  0  0  0
 19 20  1  0  0  0  0
 19 51  1  0  0  0  0
 19 52  1  0  0  0  0
 20 21  1  0  0  0  0
 20 53  1  0  0  0  0
 20 54  1  0  0  0  0
 21 22  1  0  0  0  0
 21 55  1  0  0  0  0
 21 56  1  0  0  0  0
 22 23  1  0  0  0  0
 22 27  2  0  0  0  0
 23 24  2  0  0  0  0
 23 57  1  0  0  0  0
 24 25  1  0  0  0  0
 24 58  1  0  0  0  0
 25 26  2  0  0  0  0
 25 59  1  0  0  0  0
 26 27  1  0  0  0  0
 26 60  1  0  0  0  0
 27 61  1  0  0  0  0
 28 62  1  0  0  0  0
 29 33  1  0  0  0  0
 29 30  1  0  0  0  0
 29 63  1  1  0  0  0
 30 31  2  0  0  0  0
 30 32  1  0  0  0  0
 32 64  1  0  0  0  0
 33 65  1  0  0  0  0
 33 66  1  0  0  0  0
M  END
>  <DRUGBANK_ID>
DB07136

>  <COMMON_NAME>
BX-528

>  <CAS_NUMBER>
607837-17-2

>  <UNII>
60045PL22T

$$$$
