Daidzin
 OpenBabel10282417072D

 50 53  0  0  1  0  0  0  0  0999 V2000
   -3.5724   -2.0625    0.0000 O   0  0  0  0  0  0  0  0  0  0  0  0
   -2.8579   -1.6500    0.0000 C   0  0  0  0  0  0  0  0  0  0  0  0
   -2.8579   -0.8250    0.0000 C   0  0  1  0  0  0  0  0  0  0  0  0
   -2.1434   -0.4125    0.0000 O   0  0  0  0  0  0  0  0  0  0  0  0
   -2.1434    0.4125    0.0000 C   0  0  1  0  0  0  0  0  0  0  0  0
   -1.4289    0.8250    0.0000 O   0  0  0  0  0  0  0  0  0  0  0  0
   -0.7145    0.4125    0.0000 C   0  0  0  0  0  0  0  0  0  0  0  0
    0.0000    0.8250    0.0000 C   0  0  0  0  0  0  0  0  0  0  0  0
    0.7145    0.4125    0.0000 C   0  0  0  0  0  0  0  0  0  0  0  0
    0.7145   -0.4125    0.0000 C   0  0  0  0  0  0  0  0  0  0  0  0
    0.0000   -0.8250    0.0000 C   0  0  0  0  0  0  0  0  0  0  0  0
   -0.7145   -0.4125    0.0000 C   0  0  0  0  0  0  0  0  0  0  0  0
    1.4289   -0.8250    0.0000 C   0  0  0  0  0  0  0  0  0  0  0  0
    1.4289   -1.6500    0.0000 O   0  0  0  0  0  0  0  0  0  0  0  0
    2.1434   -0.4125    0.0000 C   0  0  0  0  0  0  0  0  0  0  0  0
    2.1434    0.4125    0.0000 C   0  0  0  0  0  0  0  0  0  0  0  0
    1.4289    0.8250    0.0000 O   0  0  0  0  0  0  0  0  0  0  0  0
    2.8579   -0.8250    0.0000 C   0  0  0  0  0  0  0  0  0  0  0  0
    2.8579   -1.6500    0.0000 C   0  0  0  0  0  0  0  0  0  0  0  0
    3.5724   -2.0625    0.0000 C   0  0  0  0  0  0  0  0  0  0  0  0
    4.2868   -1.6500    0.0000 C   0  0  0  0  0  0  0  0  0  0  0  0
    5.0013   -2.0625    0.0000 O   0  0  0  0  0  0  0  0  0  0  0  0
    4.2868   -0.8250    0.0000 C   0  0  0  0  0  0  0  0  0  0  0  0
    3.5724   -0.4125    0.0000 C   0  0  0  0  0  0  0  0  0  0  0  0
   -2.8579    0.8250    0.0000 C   0  0  2  0  0  0  0  0  0  0  0  0
   -2.8579    1.6500    0.0000 O   0  0  0  0  0  0  0  0  0  0  0  0
   -3.5724    0.4125    0.0000 C   0  0  1  0  0  0  0  0  0  0  0  0
   -4.2868    0.8250    0.0000 O   0  0  0  0  0  0  0  0  0  0  0  0
   -3.5724   -0.4125    0.0000 C   0  0  2  0  0  0  0  0  0  0  0  0
   -4.2868   -0.8250    0.0000 O   0  0  0  0  0  0  0  0  0  0  0  0
   -4.4124   -1.5775    0.0000 H   0  0  0  0  0  0  0  0  0  0  0  0
   -1.9313   -2.1850    0.0000 H   0  0  0  0  0  0  0  0  0  0  0  0
   -1.9313   -1.1150    0.0000 H   0  0  0  0  0  0  0  0  0  0  0  0
   -1.9313   -1.3600    0.0000 H   0  0  0  0  0  0  0  0  0  0  0  0
   -1.2168   -0.1225    0.0000 H   0  0  0  0  0  0  0  0  0  0  0  0
    0.0000    1.8570    0.0000 H   0  0  0  0  0  0  0  0  0  0  0  0
    0.0000   -1.8570    0.0000 H   0  0  0  0  0  0  0  0  0  0  0  0
   -1.6082   -0.9285    0.0000 H   0  0  0  0  0  0  0  0  0  0  0  0
    3.0371    0.9285    0.0000 H   0  0  0  0  0  0  0  0  0  0  0  0
    1.9642   -2.1660    0.0000 H   0  0  0  0  0  0  0  0  0  0  0  0
    3.5724   -3.0945    0.0000 H   0  0  0  0  0  0  0  0  0  0  0  0
    5.0013   -2.9995    0.0000 H   0  0  0  0  0  0  0  0  0  0  0  0
    5.1805   -0.3090    0.0000 H   0  0  0  0  0  0  0  0  0  0  0  0
    3.5724    0.6195    0.0000 H   0  0  0  0  0  0  0  0  0  0  0  0
   -1.9313    1.3600    0.0000 H   0  0  0  0  0  0  0  0  0  0  0  0
   -2.0179    2.1350    0.0000 H   0  0  0  0  0  0  0  0  0  0  0  0
   -3.5724    1.4825    0.0000 H   0  0  0  0  0  0  0  0  0  0  0  0
   -4.2868    1.7950    0.0000 H   0  0  0  0  0  0  0  0  0  0  0  0
   -4.4991    0.1225    0.0000 H   0  0  0  0  0  0  0  0  0  0  0  0
   -5.1269   -0.3400    0.0000 H   0  0  0  0  0  0  0  0  0  0  0  0
  1  2  1  0  0  0  0
  1 31  1  0  0  0  0
  2 32  1  0  0  0  0
  2 33  1  0  0  0  0
  3  2  1  0  0  0  0
  3  4  1  0  0  0  0
  3 29  1  0  0  0  0
  3 34  1  1  0  0  0
  4  5  1  0  0  0  0
  5  6  1  0  0  0  0
  5 25  1  0  0  0  0
  5 35  1  1  0  0  0
  6  7  1  0  0  0  0
  7  8  2  0  0  0  0
  7 12  1  0  0  0  0
  8  9  1  0  0  0  0
  8 36  1  0  0  0  0
  9 10  2  0  0  0  0
  9 17  1  0  0  0  0
 10 11  1  0  0  0  0
 10 13  1  0  0  0  0
 11 12  2  0  0  0  0
 11 37  1  0  0  0  0
 12 38  1  0  0  0  0
 13 14  2  0  0  0  0
 13 15  1  0  0  0  0
 15 16  2  0  0  0  0
 15 18  1  0  0  0  0
 16 17  1  0  0  0  0
 16 39  1  0  0  0  0
 18 19  2  0  0  0  0
 18 24  1  0  0  0  0
 19 20  1  0  0  0  0
 19 40  1  0  0  0  0
 20 21  2  0  0  0  0
 20 41  1  0  0  0  0
 21 22  1  0  0  0  0
 21 23  1  0  0  0  0
 22 42  1  0  0  0  0
 23 24  2  0  0  0  0
 23 43  1  0  0  0  0
 24 44  1  0  0  0  0
 25 26  1  0  0  0  0
 25 27  1  0  0  0  0
 25 45  1  6  0  0  0
 26 46  1  0  0  0  0
 27 28  1  0  0  0  0
 27 29  1  0  0  0  0
 27 47  1  1  0  0  0
 28 48  1  0  0  0  0
 29 30  1  0  0  0  0
 29 49  1  6  0  0  0
 30 50  1  0  0  0  0
M  END
>  <DRUGBANK_ID>
DB02115

>  <SECONDARY_ACCESSION_NUMBERS>
EXPT01311

>  <COMMON_NAME>
Daidzin

>  <CAS_NUMBER>
552-66-9

>  <UNII>
4R2X91A5M5

>  <SYNONYMS>
7-(beta-D-glucopyranosyloxy)-3-(4-hydroxyphenyl)-4H-chromen-4-one; Daidzein 7-glucoside; daidzein 7-O-beta-D-glucoside; Daidzein 7-O-glucoside; daidzein 7-O-Î²-D-glucoside; Daidzoside

$$$$
