
 OpenBabel10282417072D

119124  0  0  1  0  0  0  0  0999 V2000
   -0.5863    1.2633    0.0000 C   0  0  0  0  0  0  0  0  0  0  0  0
    0.0981    0.8026    0.0000 C   0  0  0  0  0  0  0  0  0  0  0  0
    0.8610    1.1963    0.0000 C   0  0  0  0  0  0  0  0  0  0  0  0
    1.3771    1.8828    0.0000 C   0  0  2  0  0  0  0  0  0  0  0  0
    2.2109    2.0221    0.0000 C   0  0  0  0  0  0  0  0  0  0  0  0
    2.4018    2.8247    0.0000 O   0  0  0  0  0  0  0  0  0  0  0  0
    2.8891    1.5250    0.0000 C   0  0  2  0  0  0  0  0  0  0  0  0
    3.5470    2.0227    0.0000 C   0  0  2  0  0  0  0  0  0  0  0  0
    4.3071    1.7018    0.0000 C   0  0  0  0  0  0  0  0  0  0  0  0
    4.4092    0.8832    0.0000 C   0  0  2  0  0  0  0  0  0  0  0  0
    3.7513    0.3854    0.0000 C   0  0  2  0  0  0  0  0  0  0  0  0
    2.9912    0.7063    0.0000 C   0  0  1  0  0  0  0  0  0  0  0  0
    2.4499    0.0315    0.0000 C   0  0  1  0  0  0  0  0  0  0  0  0
    1.5757   -0.1657    0.0000 C   0  0  1  0  0  0  0  0  0  0  0  0
    1.2728    0.5237    0.0000 C   0  0  0  0  0  0  0  0  0  0  0  0
    2.0937    0.6056    0.0000 C   0  0  0  0  0  0  0  0  0  0  0  0
    1.8086    1.1511    0.0000 C   0  0  0  0  0  0  0  0  0  0  0  0
    0.7546   -0.4870    0.0000 C   0  0  2  0  0  0  0  0  0  0  0  0
    0.0217   -0.0379    0.0000 C   0  0  2  0  0  0  0  0  0  0  0  0
   -0.7157   -0.4080    0.0000 O   0  0  0  0  0  0  0  0  0  0  0  0
   -1.4049    0.0455    0.0000 C   0  0  0  0  0  0  0  0  0  0  0  0
   -1.3567    0.8691    0.0000 O   0  0  0  0  0  0  0  0  0  0  0  0
   -2.1422   -0.3246    0.0000 C   0  0  1  0  0  0  0  0  0  0  0  0
   -2.8314    0.1290    0.0000 C   0  0  2  0  0  0  0  0  0  0  0  0
   -2.7832    0.9526    0.0000 C   0  0  0  0  0  0  0  0  0  0  0  0
   -3.4724    1.4061    0.0000 C   0  0  0  0  0  0  0  0  0  0  0  0
   -4.2097    1.0360    0.0000 C   0  0  0  0  0  0  0  0  0  0  0  0
   -3.4242    2.2297    0.0000 C   0  0  0  0  0  0  0  0  0  0  0  0
   -3.5687   -0.2411    0.0000 N   0  0  0  0  0  0  0  0  0  0  0  0
   -3.6169   -1.0647    0.0000 C   0  0  0  0  0  0  0  0  0  0  0  0
   -4.3542   -1.4348    0.0000 O   0  0  0  0  0  0  0  0  0  0  0  0
   -2.9277   -1.5182    0.0000 O   0  0  0  0  0  0  0  0  0  0  0  0
   -2.9759   -2.3418    0.0000 C   0  0  0  0  0  0  0  0  0  0  0  0
   -3.0240   -3.1654    0.0000 C   0  0  0  0  0  0  0  0  0  0  0  0
   -2.1523   -2.3900    0.0000 C   0  0  0  0  0  0  0  0  0  0  0  0
   -3.7995   -2.2936    0.0000 C   0  0  0  0  0  0  0  0  0  0  0  0
   -2.1904   -1.1481    0.0000 O   0  0  0  0  0  0  0  0  0  0  0  0
    0.7225   -1.3177    0.0000 O   0  0  0  0  0  0  0  0  0  0  0  0
    1.5023   -1.5844    0.0000 C   0  0  0  0  0  0  0  0  0  0  0  0
    1.7457   -2.3726    0.0000 O   0  0  0  0  0  0  0  0  0  0  0  0
    2.0014   -0.9172    0.0000 O   0  0  0  0  0  0  0  0  0  0  0  0
    2.8869   -0.6682    0.0000 O   0  0  0  0  0  0  0  0  0  0  0  0
    2.4995   -1.3966    0.0000 C   0  0  0  0  0  0  0  0  0  0  0  0
    1.8492   -1.9043    0.0000 O   0  0  0  0  0  0  0  0  0  0  0  0
    2.9365   -2.0963    0.0000 C   0  0  0  0  0  0  0  0  0  0  0  0
    3.7610   -2.0677    0.0000 C   0  0  0  0  0  0  0  0  0  0  0  0
    4.1980   -2.7674    0.0000 C   0  0  0  0  0  0  0  0  0  0  0  0
    3.8105   -3.4958    0.0000 C   0  0  0  0  0  0  0  0  0  0  0  0
    2.9860   -3.5244    0.0000 C   0  0  0  0  0  0  0  0  0  0  0  0
    2.5490   -2.8246    0.0000 C   0  0  0  0  0  0  0  0  0  0  0  0
    4.2490   -0.2725    0.0000 C   0  0  0  0  0  0  0  0  0  0  0  0
    4.9070    0.2253    0.0000 O   0  0  0  0  0  0  0  0  0  0  0  0
    3.2446   -0.2657    0.0000 O   0  0  0  0  0  0  0  0  0  0  0  0
    3.5551   -1.0300    0.0000 C   0  0  0  0  0  0  0  0  0  0  0  0
    4.3723   -1.1432    0.0000 O   0  0  0  0  0  0  0  0  0  0  0  0
    3.0485   -1.6811    0.0000 C   0  0  0  0  0  0  0  0  0  0  0  0
    3.4449    2.8414    0.0000 O   0  0  0  0  0  0  0  0  0  0  0  0
    2.8829    2.3499    0.0000 C   0  0  0  0  0  0  0  0  0  0  0  0
    0.9489    2.5880    0.0000 O   0  0  0  0  0  0  0  0  0  0  0  0
    0.1241    2.5696    0.0000 C   0  0  0  0  0  0  0  0  0  0  0  0
   -0.2725    1.8462    0.0000 O   0  0  0  0  0  0  0  0  0  0  0  0
   -0.3042    3.2748    0.0000 C   0  0  0  0  0  0  0  0  0  0  0  0
   -0.5127    2.3308    0.0000 H   0  0  0  0  0  0  0  0  0  0  0  0
   -1.5476    0.7933    0.0000 H   0  0  0  0  0  0  0  0  0  0  0  0
   -1.4739    1.8608    0.0000 H   0  0  0  0  0  0  0  0  0  0  0  0
    0.3084    1.9357    0.0000 H   0  0  0  0  0  0  0  0  0  0  0  0
    2.5613    2.4389    0.0000 H   0  0  0  0  0  0  0  0  0  0  0  0
    5.1604    2.3474    0.0000 H   0  0  0  0  0  0  0  0  0  0  0  0
    5.2928    1.2856    0.0000 H   0  0  0  0  0  0  0  0  0  0  0  0
    5.4005    1.2860    0.0000 H   0  0  0  0  0  0  0  0  0  0  0  0
    3.8445    1.3519    0.0000 H   0  0  0  0  0  0  0  0  0  0  0  0
    3.5180   -0.0315    0.0000 H   0  0  0  0  0  0  0  0  0  0  0  0
    2.7181   -0.2634    0.0000 H   0  0  0  0  0  0  0  0  0  0  0  0
    2.5341    1.5808    0.0000 H   0  0  0  0  0  0  0  0  0  0  0  0
    3.1584    0.7118    0.0000 H   0  0  0  0  0  0  0  0  0  0  0  0
    2.8607    0.9562    0.0000 H   0  0  0  0  0  0  0  0  0  0  0  0
    1.4514    2.1597    0.0000 H   0  0  0  0  0  0  0  0  0  0  0  0
    2.5035    1.9648    0.0000 H   0  0  0  0  0  0  0  0  0  0  0  0
    1.6266   -1.1072    0.0000 H   0  0  0  0  0  0  0  0  0  0  0  0
   -0.0235   -1.1069    0.0000 H   0  0  0  0  0  0  0  0  0  0  0  0
   -1.2484   -0.9128    0.0000 H   0  0  0  0  0  0  0  0  0  0  0  0
   -2.8939   -0.9392    0.0000 H   0  0  0  0  0  0  0  0  0  0  0  0
   -1.8269    1.4326    0.0000 H   0  0  0  0  0  0  0  0  0  0  0  0
   -2.7207    2.0208    0.0000 H   0  0  0  0  0  0  0  0  0  0  0  0
   -4.3662    1.9943    0.0000 H   0  0  0  0  0  0  0  0  0  0  0  0
   -5.1036    1.6242    0.0000 H   0  0  0  0  0  0  0  0  0  0  0  0
   -4.2721   -0.0322    0.0000 H   0  0  0  0  0  0  0  0  0  0  0  0
   -5.1660    0.5560    0.0000 H   0  0  0  0  0  0  0  0  0  0  0  0
   -2.4679    2.7096    0.0000 H   0  0  0  0  0  0  0  0  0  0  0  0
   -4.3180    2.8179    0.0000 H   0  0  0  0  0  0  0  0  0  0  0  0
   -3.3617    3.2979    0.0000 H   0  0  0  0  0  0  0  0  0  0  0  0
   -4.3911    0.3001    0.0000 H   0  0  0  0  0  0  0  0  0  0  0  0
   -3.9803   -3.6455    0.0000 H   0  0  0  0  0  0  0  0  0  0  0  0
   -2.1301   -3.7535    0.0000 H   0  0  0  0  0  0  0  0  0  0  0  0
   -3.0864   -4.2336    0.0000 H   0  0  0  0  0  0  0  0  0  0  0  0
   -1.6724   -3.3463    0.0000 H   0  0  0  0  0  0  0  0  0  0  0  0
   -1.5641   -1.4962    0.0000 H   0  0  0  0  0  0  0  0  0  0  0  0
   -1.0841   -2.4525    0.0000 H   0  0  0  0  0  0  0  0  0  0  0  0
   -4.2794   -1.3373    0.0000 H   0  0  0  0  0  0  0  0  0  0  0  0
   -4.3877   -3.1874    0.0000 H   0  0  0  0  0  0  0  0  0  0  0  0
   -4.8677   -2.2311    0.0000 H   0  0  0  0  0  0  0  0  0  0  0  0
   -3.0573   -1.5832    0.0000 H   0  0  0  0  0  0  0  0  0  0  0  0
    4.2457   -1.1566    0.0000 H   0  0  0  0  0  0  0  0  0  0  0  0
    5.2294   -2.7316    0.0000 H   0  0  0  0  0  0  0  0  0  0  0  0
    4.3572   -4.3711    0.0000 H   0  0  0  0  0  0  0  0  0  0  0  0
    2.5013   -4.4355    0.0000 H   0  0  0  0  0  0  0  0  0  0  0  0
    1.5176   -2.8603    0.0000 H   0  0  0  0  0  0  0  0  0  0  0  0
    4.1021   -1.3324    0.0000 H   0  0  0  0  0  0  0  0  0  0  0  0
    5.1720   -0.8138    0.0000 H   0  0  0  0  0  0  0  0  0  0  0  0
    1.9886   -1.5343    0.0000 H   0  0  0  0  0  0  0  0  0  0  0  0
    3.4513   -2.6724    0.0000 H   0  0  0  0  0  0  0  0  0  0  0  0
    2.3914   -2.5256    0.0000 H   0  0  0  0  0  0  0  0  0  0  0  0
    4.2185    3.4266    0.0000 H   0  0  0  0  0  0  0  0  0  0  0  0
    3.8055    2.8918    0.0000 H   0  0  0  0  0  0  0  0  0  0  0  0
    1.9523    2.8779    0.0000 H   0  0  0  0  0  0  0  0  0  0  0  0
    2.8749    3.4199    0.0000 H   0  0  0  0  0  0  0  0  0  0  0  0
    0.2101    4.2131    0.0000 H   0  0  0  0  0  0  0  0  0  0  0  0
   -1.3739    3.2510    0.0000 H   0  0  0  0  0  0  0  0  0  0  0  0
   -0.8596    4.1893    0.0000 H   0  0  0  0  0  0  0  0  0  0  0  0
  1  2  1  0  0  0  0
  1 63  1  0  0  0  0
  1 64  1  0  0  0  0
  1 65  1  0  0  0  0
  2  3  2  0  0  0  0
  2 19  1  0  0  0  0
  3  4  1  0  0  0  0
  3 15  1  0  0  0  0
  4  5  1  0  0  0  0
  4 59  1  0  0  0  0
  4 66  1  6  0  0  0
  5  6  2  0  0  0  0
  5  7  1  0  0  0  0
  7  8  1  0  0  0  0
  7 12  1  0  0  0  0
  7 58  1  1  0  0  0
  8  9  1  0  0  0  0
  8 57  1  0  0  0  0
  8 67  1  6  0  0  0
  9 10  1  0  0  0  0
  9 68  1  0  0  0  0
  9 69  1  0  0  0  0
 10 11  1  0  0  0  0
 10 52  1  0  0  0  0
 10 70  1  6  0  0  0
 11 51  1  0  0  0  0
 11 53  1  6  0  0  0
 12 11  1  0  0  0  0
 12 13  1  0  0  0  0
 12 71  1  6  0  0  0
 13 14  1  0  0  0  0
 13 42  1  0  0  0  0
 13 72  1  1  0  0  0
 14 15  1  0  0  0  0
 14 18  1  0  0  0  0
 14 41  1  1  0  0  0
 15 16  1  0  0  0  0
 15 17  1  0  0  0  0
 16 73  1  0  0  0  0
 16 74  1  0  0  0  0
 16 75  1  0  0  0  0
 17 76  1  0  0  0  0
 17 77  1  0  0  0  0
 17 78  1  0  0  0  0
 18 19  1  0  0  0  0
 18 38  1  0  0  0  0
 18 79  1  6  0  0  0
 19 20  1  0  0  0  0
 19 80  1  1  0  0  0
 20 21  1  0  0  0  0
 21 22  2  0  0  0  0
 21 23  1  0  0  0  0
 23 24  1  0  0  0  0
 23 37  1  0  0  0  0
 23 81  1  1  0  0  0
 24 25  1  0  0  0  0
 24 29  1  0  0  0  0
 24 82  1  6  0  0  0
 25 26  1  0  0  0  0
 25 83  1  0  0  0  0
 25 84  1  0  0  0  0
 26 27  1  0  0  0  0
 26 28  1  0  0  0  0
 26 85  1  0  0  0  0
 27 86  1  0  0  0  0
 27 87  1  0  0  0  0
 27 88  1  0  0  0  0
 28 89  1  0  0  0  0
 28 90  1  0  0  0  0
 28 91  1  0  0  0  0
 29 30  1  0  0  0  0
 29 92  1  0  0  0  0
 30 31  2  0  0  0  0
 30 32  1  0  0  0  0
 32 33  1  0  0  0  0
 33 34  1  0  0  0  0
 33 35  1  0  0  0  0
 33 36  1  0  0  0  0
 34 93  1  0  0  0  0
 34 94  1  0  0  0  0
 34 95  1  0  0  0  0
 35 96  1  0  0  0  0
 35 97  1  0  0  0  0
 35 98  1  0  0  0  0
 36 99  1  0  0  0  0
 36100  1  0  0  0  0
 36101  1  0  0  0  0
 37102  1  0  0  0  0
 38 39  1  0  0  0  0
 39 40  2  0  0  0  0
 39 41  1  0  0  0  0
 42 43  1  0  0  0  0
 43 44  2  0  0  0  0
 43 45  1  0  0  0  0
 45 46  2  0  0  0  0
 45 50  1  0  0  0  0
 46 47  1  0  0  0  0
 46103  1  0  0  0  0
 47 48  2  0  0  0  0
 47104  1  0  0  0  0
 48 49  1  0  0  0  0
 48105  1  0  0  0  0
 49 50  2  0  0  0  0
 49106  1  0  0  0  0
 50107  1  0  0  0  0
 51 52  1  0  0  0  0
 51108  1  0  0  0  0
 51109  1  0  0  0  0
 53 54  1  0  0  0  0
 54 55  2  0  0  0  0
 54 56  1  0  0  0  0
 56110  1  0  0  0  0
 56111  1  0  0  0  0
 56112  1  0  0  0  0
 57113  1  0  0  0  0
 58114  1  0  0  0  0
 58115  1  0  0  0  0
 58116  1  0  0  0  0
 59 60  1  0  0  0  0
 60 61  2  0  0  0  0
 60 62  1  0  0  0  0
 62117  1  0  0  0  0
 62118  1  0  0  0  0
 62119  1  0  0  0  0
M  END
>  <DRUGBANK_ID>
DB11669

>  <COMMON_NAME>
Ortataxel

>  <CAS_NUMBER>
186348-23-2

>  <UNII>
8H61Y4E29N

>  <SYNONYMS>
Ortataxel

$$$$
