
 OpenBabel10282417072D

 58 60  0  0  0  0  0  0  0  0999 V2000
    0.7145   -1.2374    0.0000 C   0  0  0  0  0  0  0  0  0  0  0  0
    0.7145   -2.0624    0.0000 C   0  0  0  0  0  0  0  0  0  0  0  0
    0.0000   -0.8249    0.0000 C   0  0  0  0  0  0  0  0  0  0  0  0
    0.0000   -2.4749    0.0000 C   0  0  0  0  0  0  0  0  0  0  0  0
   -0.7143   -1.2374    0.0000 C   0  0  0  0  0  0  0  0  0  0  0  0
   -0.7143   -2.0624    0.0000 C   0  0  0  0  0  0  0  0  0  0  0  0
   -2.1433   -2.0624    0.0000 C   0  0  0  0  0  0  0  0  0  0  0  0
   -1.4288   -2.4749    0.0000 N   0  0  0  0  0  0  0  0  0  0  0  0
   -2.1433   -1.2374    0.0000 C   0  0  0  0  0  0  0  0  0  0  0  0
   -1.4288   -0.8249    0.0000 C   0  0  0  0  0  0  0  0  0  0  0  0
   -3.5722   -2.0624    0.0000 C   0  0  0  0  0  0  0  0  0  0  0  0
   -2.8577   -2.4749    0.0000 C   0  0  0  0  0  0  0  0  0  0  0  0
   -3.5722   -1.2374    0.0000 C   0  0  0  0  0  0  0  0  0  0  0  0
   -2.8577   -0.8249    0.0000 C   0  0  0  0  0  0  0  0  0  0  0  0
   -1.4289    0.0000    0.0000 N   0  0  0  0  0  0  0  0  0  0  0  0
   -0.7145    0.4125    0.0000 C   0  0  3  0  0  0  0  0  0  0  0  0
   -0.7145    1.2375    0.0000 C   0  0  0  0  0  0  0  0  0  0  0  0
    0.0000    0.0000    0.0000 C   0  0  0  0  0  0  0  0  0  0  0  0
    0.7143    0.4125    0.0000 C   0  0  0  0  0  0  0  0  0  0  0  0
    1.4287    0.0001    0.0000 C   0  0  0  0  0  0  0  0  0  0  0  0
    2.1432    0.4126    0.0000 N   0  0  0  0  0  0  0  0  0  0  0  0
    2.8577    0.0002    0.0000 C   0  0  0  0  0  0  0  0  0  0  0  0
    2.1431    1.2376    0.0000 C   0  0  0  0  0  0  0  0  0  0  0  0
    1.4289   -0.8249    0.0000 O   0  0  0  0  0  0  0  0  0  0  0  0
    2.1434   -1.2374    0.0000 C   0  0  0  0  0  0  0  0  0  0  0  0
   -4.2866   -2.4751    0.0000 Cl  0  0  0  0  0  0  0  0  0  0  0  0
    3.5721    0.4127    0.0000 C   0  0  0  0  0  0  0  0  0  0  0  0
    4.2866    0.0002    0.0000 Cl  0  0  0  0  0  0  0  0  0  0  0  0
    2.8576    1.6501    0.0000 C   0  0  0  0  0  0  0  0  0  0  0  0
    2.8576    2.4751    0.0000 Cl  0  0  0  0  0  0  0  0  0  0  0  0
    1.6082   -2.5784    0.0000 H   0  0  0  0  0  0  0  0  0  0  0  0
   -0.0001    0.2071    0.0000 H   0  0  0  0  0  0  0  0  0  0  0  0
   -0.0001   -3.5069    0.0000 H   0  0  0  0  0  0  0  0  0  0  0  0
   -2.8577   -3.5069    0.0000 H   0  0  0  0  0  0  0  0  0  0  0  0
   -4.4659   -0.7214    0.0000 H   0  0  0  0  0  0  0  0  0  0  0  0
   -2.8577    0.2071    0.0000 H   0  0  0  0  0  0  0  0  0  0  0  0
   -2.2815    0.4922    0.0000 H   0  0  0  0  0  0  0  0  0  0  0  0
   -1.6412    0.9475    0.0000 H   0  0  0  0  0  0  0  0  0  0  0  0
    0.2121    1.7725    0.0000 H   0  0  0  0  0  0  0  0  0  0  0  0
   -1.6411    1.7725    0.0000 H   0  0  0  0  0  0  0  0  0  0  0  0
   -0.7145    2.3075    0.0000 H   0  0  0  0  0  0  0  0  0  0  0  0
    0.0001   -1.0700    0.0000 H   0  0  0  0  0  0  0  0  0  0  0  0
    0.9267   -0.5349    0.0000 H   0  0  0  0  0  0  0  0  0  0  0  0
    0.7142    1.4825    0.0000 H   0  0  0  0  0  0  0  0  0  0  0  0
    1.6409    0.9476    0.0000 H   0  0  0  0  0  0  0  0  0  0  0  0
    1.4287   -1.0699    0.0000 H   0  0  0  0  0  0  0  0  0  0  0  0
    2.3553   -0.5349    0.0000 H   0  0  0  0  0  0  0  0  0  0  0  0
    2.8578   -1.0698    0.0000 H   0  0  0  0  0  0  0  0  0  0  0  0
    3.7844   -0.5347    0.0000 H   0  0  0  0  0  0  0  0  0  0  0  0
    1.2164    1.7726    0.0000 H   0  0  0  0  0  0  0  0  0  0  0  0
    2.1431    2.3076    0.0000 H   0  0  0  0  0  0  0  0  0  0  0  0
    2.1434   -2.3074    0.0000 H   0  0  0  0  0  0  0  0  0  0  0  0
    3.0700   -0.7024    0.0000 H   0  0  0  0  0  0  0  0  0  0  0  0
    3.0701   -1.7724    0.0000 H   0  0  0  0  0  0  0  0  0  0  0  0
    3.5721    1.4827    0.0000 H   0  0  0  0  0  0  0  0  0  0  0  0
    4.4987    0.9477    0.0000 H   0  0  0  0  0  0  0  0  0  0  0  0
    3.7842    1.1151    0.0000 H   0  0  0  0  0  0  0  0  0  0  0  0
    3.7842    2.1851    0.0000 H   0  0  0  0  0  0  0  0  0  0  0  0
  1 24  1  0  0  0  0
  1  2  1  0  0  0  0
  2 31  1  0  0  0  0
  3  1  2  0  0  0  0
  3 32  1  0  0  0  0
  4  2  2  0  0  0  0
  4 33  1  0  0  0  0
  5  3  1  0  0  0  0
  5  6  1  0  0  0  0
  6  4  1  0  0  0  0
  7  8  1  0  0  0  0
  8  6  2  0  0  0  0
  9  7  1  0  0  0  0
  9 10  1  0  0  0  0
 10  5  2  0  0  0  0
 11 12  1  0  0  0  0
 12  7  2  0  0  0  0
 12 34  1  0  0  0  0
 13 11  2  0  0  0  0
 13 14  1  0  0  0  0
 13 35  1  0  0  0  0
 14  9  2  0  0  0  0
 14 36  1  0  0  0  0
 15 10  1  0  0  0  0
 15 37  1  0  0  0  0
 16 15  1  0  0  0  0
 16 38  1  0  0  0  0
 17 16  1  0  0  0  0
 17 39  1  0  0  0  0
 17 40  1  0  0  0  0
 17 41  1  0  0  0  0
 18 16  1  0  0  0  0
 18 42  1  0  0  0  0
 18 43  1  0  0  0  0
 19 18  1  0  0  0  0
 19 44  1  0  0  0  0
 19 45  1  0  0  0  0
 20 19  1  0  0  0  0
 20 46  1  0  0  0  0
 20 47  1  0  0  0  0
 21 20  1  0  0  0  0
 22 21  1  0  0  0  0
 22 48  1  0  0  0  0
 22 49  1  0  0  0  0
 23 21  1  0  0  0  0
 23 50  1  0  0  0  0
 23 51  1  0  0  0  0
 25 24  1  0  0  0  0
 25 52  1  0  0  0  0
 25 53  1  0  0  0  0
 25 54  1  0  0  0  0
 26 11  1  0  0  0  0
 27 22  1  0  0  0  0
 27 28  1  0  0  0  0
 27 55  1  0  0  0  0
 27 56  1  0  0  0  0
 29 23  1  0  0  0  0
 29 30  1  0  0  0  0
 29 57  1  0  0  0  0
 29 58  1  0  0  0  0
M  END
>  <DRUGBANK_ID>
DB02240

>  <SECONDARY_ACCESSION_NUMBERS>
EXPT02733

>  <COMMON_NAME>
Quinacrine mustard

>  <CAS_NUMBER>
64046-79-3

>  <UNII>
8Y3YQP8GW6

$$$$
