
 OpenBabel10282417072D

259264  0  0  1  0  0  0  0  0999 V2000
   -5.2731   -2.0383    0.0000 N   0  0  0  0  0  0  0  0  0  0  0  0
   -6.0491   -2.3183    0.0000 C   0  0  2  0  0  0  0  0  0  0  0  0
   -6.1946   -3.1304    0.0000 C   0  0  0  0  0  0  0  0  0  0  0  0
   -6.9706   -3.4104    0.0000 C   0  0  0  0  0  0  0  0  0  0  0  0
   -7.1161   -4.2225    0.0000 C   0  0  0  0  0  0  0  0  0  0  0  0
   -7.8922   -4.5025    0.0000 C   0  0  0  0  0  0  0  0  0  0  0  0
   -8.5227   -3.9704    0.0000 C   0  0  0  0  0  0  0  0  0  0  0  0
   -8.3772   -3.1584    0.0000 C   0  0  0  0  0  0  0  0  0  0  0  0
   -7.6012   -2.8783    0.0000 C   0  0  0  0  0  0  0  0  0  0  0  0
   -9.2987   -4.2505    0.0000 C   0  0  0  0  0  0  0  0  0  0  0  0
   -9.9292   -3.7184    0.0000 O   0  0  0  0  0  0  0  0  0  0  0  0
   -9.4442   -5.0625    0.0000 C   0  0  0  0  0  0  0  0  0  0  0  0
   -8.8137   -5.5946    0.0000 C   0  0  0  0  0  0  0  0  0  0  0  0
   -8.9592   -6.4066    0.0000 C   0  0  0  0  0  0  0  0  0  0  0  0
   -9.7352   -6.6867    0.0000 C   0  0  0  0  0  0  0  0  0  0  0  0
  -10.3657   -6.1546    0.0000 C   0  0  0  0  0  0  0  0  0  0  0  0
  -10.2202   -5.3426    0.0000 C   0  0  0  0  0  0  0  0  0  0  0  0
   -6.6796   -1.7863    0.0000 C   0  0  0  0  0  0  0  0  0  0  0  0
   -7.4557   -2.0663    0.0000 O   0  0  0  0  0  0  0  0  0  0  0  0
   -6.5341   -0.9742    0.0000 N   0  0  0  0  0  0  0  0  0  0  0  0
   -7.1646   -0.4421    0.0000 C   0  0  2  0  0  0  0  0  0  0  0  0
   -7.9407   -0.7222    0.0000 C   0  0  0  0  0  0  0  0  0  0  0  0
   -8.5712   -0.1901    0.0000 O   0  0  0  0  0  0  0  0  0  0  0  0
   -7.0191    0.3699    0.0000 C   0  0  0  0  0  0  0  0  0  0  0  0
   -6.2431    0.6499    0.0000 O   0  0  0  0  0  0  0  0  0  0  0  0
   -7.6497    0.9020    0.0000 N   0  0  0  0  0  0  0  0  0  0  0  0
   -7.5042    1.7140    0.0000 C   0  0  2  0  0  0  0  0  0  0  0  0
   -8.1347    2.2461    0.0000 C   0  0  0  0  0  0  0  0  0  0  0  0
   -7.9892    3.0581    0.0000 C   0  0  0  0  0  0  0  0  0  0  0  0
   -7.2467    3.4177    0.0000 C   0  0  0  0  0  0  0  0  0  0  0  0
   -7.3592    4.2350    0.0000 N   0  0  0  0  0  0  0  0  0  0  0  0
   -8.1713    4.3805    0.0000 C   0  0  0  0  0  0  0  0  0  0  0  0
   -8.5606    3.6532    0.0000 C   0  0  0  0  0  0  0  0  0  0  0  0
   -9.3852    3.6267    0.0000 C   0  0  0  0  0  0  0  0  0  0  0  0
   -9.8204    4.3275    0.0000 C   0  0  0  0  0  0  0  0  0  0  0  0
   -9.4311    5.0549    0.0000 C   0  0  0  0  0  0  0  0  0  0  0  0
   -8.6065    5.0814    0.0000 C   0  0  0  0  0  0  0  0  0  0  0  0
   -6.7281    1.9941    0.0000 C   0  0  0  0  0  0  0  0  0  0  0  0
   -6.5826    2.8061    0.0000 O   0  0  0  0  0  0  0  0  0  0  0  0
   -6.0976    1.4620    0.0000 N   0  0  0  0  0  0  0  0  0  0  0  0
   -5.3216    1.7420    0.0000 C   0  0  2  0  0  0  0  0  0  0  0  0
   -5.1761    2.5541    0.0000 C   0  0  0  0  0  0  0  0  0  0  0  0
   -4.4001    2.8341    0.0000 O   0  0  0  0  0  0  0  0  0  0  0  0
   -4.6911    1.2100    0.0000 C   0  0  0  0  0  0  0  0  0  0  0  0
   -4.8366    0.3979    0.0000 O   0  0  0  0  0  0  0  0  0  0  0  0
   -3.9150    1.4900    0.0000 N   0  0  0  0  0  0  0  0  0  0  0  0
   -3.2845    0.9580    0.0000 C   0  0  2  0  0  0  0  0  0  0  0  0
   -3.4300    0.1459    0.0000 C   0  0  0  0  0  0  0  0  0  0  0  0
   -2.7995   -0.3861    0.0000 C   0  0  0  0  0  0  0  0  0  0  0  0
   -2.0235   -0.1061    0.0000 C   0  0  0  0  0  0  0  0  0  0  0  0
   -1.4285    0.4653    0.0000 F   0  0  0  0  0  0  0  0  0  0  0  0
   -1.3930   -0.6382    0.0000 C   0  0  0  0  0  0  0  0  0  0  0  0
   -0.6170   -0.3581    0.0000 F   0  0  0  0  0  0  0  0  0  0  0  0
   -1.5385   -1.4502    0.0000 C   0  0  0  0  0  0  0  0  0  0  0  0
   -1.3411   -2.2513    0.0000 F   0  0  0  0  0  0  0  0  0  0  0  0
   -2.3145   -1.7303    0.0000 C   0  0  0  0  0  0  0  0  0  0  0  0
   -2.4600   -2.5423    0.0000 F   0  0  0  0  0  0  0  0  0  0  0  0
   -2.9450   -1.1982    0.0000 C   0  0  0  0  0  0  0  0  0  0  0  0
   -3.7210   -1.4782    0.0000 F   0  0  0  0  0  0  0  0  0  0  0  0
   -2.5085    1.2380    0.0000 C   0  0  0  0  0  0  0  0  0  0  0  0
   -2.3630    2.0501    0.0000 O   0  0  0  0  0  0  0  0  0  0  0  0
   -1.8780    0.7059    0.0000 N   0  0  0  0  0  0  0  0  0  0  0  0
   -1.1020    0.9860    0.0000 C   0  0  2  0  0  0  0  0  0  0  0  0
   -0.9565    1.7980    0.0000 C   0  0  0  0  0  0  0  0  0  0  0  0
   -0.1804    2.0781    0.0000 C   0  0  0  0  0  0  0  0  0  0  0  0
   -0.0349    2.8901    0.0000 C   0  0  0  0  0  0  0  0  0  0  0  0
    0.7411    3.1702    0.0000 C   0  0  0  0  0  0  0  0  0  0  0  0
    1.3716    2.6381    0.0000 C   0  0  0  0  0  0  0  0  0  0  0  0
    1.2261    1.8260    0.0000 C   0  0  0  0  0  0  0  0  0  0  0  0
    0.4501    1.5460    0.0000 C   0  0  0  0  0  0  0  0  0  0  0  0
   -0.4714    0.4539    0.0000 C   0  0  0  0  0  0  0  0  0  0  0  0
   -0.1118   -0.2886    0.0000 O   0  0  0  0  0  0  0  0  0  0  0  0
    0.3046    0.7340    0.0000 N   0  0  0  0  0  0  0  0  0  0  0  0
    0.9351    0.2019    0.0000 C   0  0  2  0  0  0  0  0  0  0  0  0
    0.7896   -0.6102    0.0000 C   0  0  0  0  0  0  0  0  0  0  0  0
    0.0136   -0.8902    0.0000 C   0  0  0  0  0  0  0  0  0  0  0  0
   -0.1319   -1.7023    0.0000 C   0  0  0  0  0  0  0  0  0  0  0  0
   -0.9080   -1.9823    0.0000 N   0  0  0  0  0  0  0  0  0  0  0  0
   -1.0535   -2.7943    0.0000 C   0  0  0  0  0  0  0  0  0  0  0  0
   -0.4229   -3.3264    0.0000 N   0  0  0  0  0  0  0  0  0  0  0  0
   -1.8295   -3.0744    0.0000 N   0  0  0  0  0  0  0  0  0  0  0  0
    1.7111    0.4819    0.0000 C   0  0  0  0  0  0  0  0  0  0  0  0
    1.8566    1.2940    0.0000 O   0  0  0  0  0  0  0  0  0  0  0  0
    2.3416   -0.0501    0.0000 N   0  0  0  0  0  0  0  0  0  0  0  0
    3.1177    0.2299    0.0000 C   0  0  2  0  0  0  0  0  0  0  0  0
    3.2632    1.0420    0.0000 C   0  0  0  0  0  0  0  0  0  0  0  0
    4.0392    1.3220    0.0000 C   0  0  0  0  0  0  0  0  0  0  0  0
    4.1847    2.1341    0.0000 C   0  0  0  0  0  0  0  0  0  0  0  0
    4.9607    2.4141    0.0000 N   0  0  0  0  0  0  0  0  0  0  0  0
    5.1062    3.2262    0.0000 C   0  0  0  0  0  0  0  0  0  0  0  0
    4.4757    3.7582    0.0000 N   0  0  0  0  0  0  0  0  0  0  0  0
    5.8822    3.5062    0.0000 N   0  0  0  0  0  0  0  0  0  0  0  0
    3.7482   -0.3021    0.0000 C   0  0  0  0  0  0  0  0  0  0  0  0
    3.6027   -1.1142    0.0000 O   0  0  0  0  0  0  0  0  0  0  0  0
    4.5242   -0.0221    0.0000 N   0  0  0  0  0  0  0  0  0  0  0  0
    5.1547   -0.5542    0.0000 C   0  0  2  0  0  0  0  0  0  0  0  0
    5.0092   -1.3662    0.0000 C   0  0  0  0  0  0  0  0  0  0  0  0
    4.2332   -1.6462    0.0000 C   0  0  0  0  0  0  0  0  0  0  0  0
    4.0877   -2.4583    0.0000 C   0  0  0  0  0  0  0  0  0  0  0  0
    3.3117   -2.7383    0.0000 N   0  0  0  0  0  0  0  0  0  0  0  0
    3.1662   -3.5504    0.0000 C   0  0  0  0  0  0  0  0  0  0  0  0
    3.7967   -4.0824    0.0000 N   0  0  0  0  0  0  0  0  0  0  0  0
    2.3901   -3.8304    0.0000 N   0  0  0  0  0  0  0  0  0  0  0  0
    5.9307   -0.2741    0.0000 C   0  0  0  0  0  0  0  0  0  0  0  0
    6.0762    0.5379    0.0000 O   0  0  0  0  0  0  0  0  0  0  0  0
    6.5613   -0.8062    0.0000 N   0  0  0  0  0  0  0  0  0  0  0  0
    7.3373   -0.5262    0.0000 C   0  0  2  0  0  0  0  0  0  0  0  0
    7.4828    0.2859    0.0000 C   0  0  0  0  0  0  0  0  0  0  0  0
    8.2588    0.5659    0.0000 C   0  0  0  0  0  0  0  0  0  0  0  0
    8.4043    1.3780    0.0000 C   0  0  0  0  0  0  0  0  0  0  0  0
    7.7738    1.9100    0.0000 N   0  0  0  0  0  0  0  0  0  0  0  0
    9.1803    1.6580    0.0000 O   0  0  0  0  0  0  0  0  0  0  0  0
    7.9678   -1.0582    0.0000 C   0  0  0  0  0  0  0  0  0  0  0  0
    7.8223   -1.8703    0.0000 O   0  0  0  0  0  0  0  0  0  0  0  0
    8.7438   -0.7782    0.0000 N   0  0  0  0  0  0  0  0  0  0  0  0
    9.3743   -1.3102    0.0000 C   0  0  2  0  0  0  0  0  0  0  0  0
    9.2288   -2.1223    0.0000 C   0  0  0  0  0  0  0  0  0  0  0  0
    8.4528   -2.4023    0.0000 C   0  0  0  0  0  0  0  0  0  0  0  0
    8.3073   -3.2144    0.0000 C   0  0  0  0  0  0  0  0  0  0  0  0
    7.5313   -3.4944    0.0000 N   0  0  0  0  0  0  0  0  0  0  0  0
    7.3858   -4.3065    0.0000 C   0  0  0  0  0  0  0  0  0  0  0  0
    8.0163   -4.8385    0.0000 N   0  0  0  0  0  0  0  0  0  0  0  0
    6.6098   -4.5865    0.0000 N   0  0  0  0  0  0  0  0  0  0  0  0
   10.1504   -1.0302    0.0000 C   0  0  0  0  0  0  0  0  0  0  0  0
   10.2959   -0.2181    0.0000 O   0  0  0  0  0  0  0  0  0  0  0  0
   10.7809   -1.5622    0.0000 N   0  0  0  0  0  0  0  0  0  0  0  0
   11.5569   -1.2822    0.0000 C   0  0  2  0  0  0  0  0  0  0  0  0
   12.1874   -1.8143    0.0000 C   0  0  0  0  0  0  0  0  0  0  0  0
   12.9635   -1.5342    0.0000 C   0  0  0  0  0  0  0  0  0  0  0  0
   13.5940   -2.0663    0.0000 C   0  0  0  0  0  0  0  0  0  0  0  0
   14.3700   -1.7863    0.0000 N   0  0  0  0  0  0  0  0  0  0  0  0
   15.0005   -2.3183    0.0000 C   0  0  0  0  0  0  0  0  0  0  0  0
   15.7765   -2.0383    0.0000 N   0  0  0  0  0  0  0  0  0  0  0  0
   14.8550   -3.1304    0.0000 N   0  0  0  0  0  0  0  0  0  0  0  0
   11.7024   -0.4701    0.0000 C   0  0  0  0  0  0  0  0  0  0  0  0
   12.4784   -0.1901    0.0000 O   0  0  0  0  0  0  0  0  0  0  0  0
   11.0719    0.0619    0.0000 O   0  0  0  0  0  0  0  0  0  0  0  0
   -4.4936   -2.6961    0.0000 H   0  0  0  0  0  0  0  0  0  0  0  0
   -5.0932   -1.0343    0.0000 H   0  0  0  0  0  0  0  0  0  0  0  0
   -5.2313   -3.0083    0.0000 H   0  0  0  0  0  0  0  0  0  0  0  0
   -5.3768   -3.8204    0.0000 H   0  0  0  0  0  0  0  0  0  0  0  0
   -6.3833   -4.1836    0.0000 H   0  0  0  0  0  0  0  0  0  0  0  0
   -6.3274   -4.8881    0.0000 H   0  0  0  0  0  0  0  0  0  0  0  0
   -8.0743   -5.5183    0.0000 H   0  0  0  0  0  0  0  0  0  0  0  0
   -9.1660   -2.4929    0.0000 H   0  0  0  0  0  0  0  0  0  0  0  0
   -7.4192   -1.8625    0.0000 H   0  0  0  0  0  0  0  0  0  0  0  0
   -7.8430   -5.2444    0.0000 H   0  0  0  0  0  0  0  0  0  0  0  0
   -8.1704   -7.0721    0.0000 H   0  0  0  0  0  0  0  0  0  0  0  0
   -9.9172   -7.7025    0.0000 H   0  0  0  0  0  0  0  0  0  0  0  0
  -11.3364   -6.5048    0.0000 H   0  0  0  0  0  0  0  0  0  0  0  0
  -11.0090   -4.6771    0.0000 H   0  0  0  0  0  0  0  0  0  0  0  0
   -5.6080   -0.6401    0.0000 H   0  0  0  0  0  0  0  0  0  0  0  0
   -7.3533   -1.4953    0.0000 H   0  0  0  0  0  0  0  0  0  0  0  0
   -8.1294   -1.7754    0.0000 H   0  0  0  0  0  0  0  0  0  0  0  0
   -8.9472   -1.0853    0.0000 H   0  0  0  0  0  0  0  0  0  0  0  0
   -8.4001    0.7647    0.0000 H   0  0  0  0  0  0  0  0  0  0  0  0
   -8.5758    0.5678    0.0000 H   0  0  0  0  0  0  0  0  0  0  0  0
   -8.5107    1.3509    0.0000 H   0  0  0  0  0  0  0  0  0  0  0  0
   -9.1412    1.8830    0.0000 H   0  0  0  0  0  0  0  0  0  0  0  0
   -8.9524    2.9362    0.0000 H   0  0  0  0  0  0  0  0  0  0  0  0
   -6.3369    2.9307    0.0000 H   0  0  0  0  0  0  0  0  0  0  0  0
   -6.6491    4.9169    0.0000 H   0  0  0  0  0  0  0  0  0  0  0  0
   -9.8722    2.7168    0.0000 H   0  0  0  0  0  0  0  0  0  0  0  0
  -10.8519    4.2943    0.0000 H   0  0  0  0  0  0  0  0  0  0  0  0
   -9.9756    5.9316    0.0000 H   0  0  0  0  0  0  0  0  0  0  0  0
   -8.1194    5.9912    0.0000 H   0  0  0  0  0  0  0  0  0  0  0  0
   -6.2713    0.4929    0.0000 H   0  0  0  0  0  0  0  0  0  0  0  0
   -6.1394    2.4320    0.0000 H   0  0  0  0  0  0  0  0  0  0  0  0
   -5.9939    3.2441    0.0000 H   0  0  0  0  0  0  0  0  0  0  0  0
   -4.9874    3.6073    0.0000 H   0  0  0  0  0  0  0  0  0  0  0  0
   -3.6588    2.2085    0.0000 H   0  0  0  0  0  0  0  0  0  0  0  0
   -3.7413    2.4591    0.0000 H   0  0  0  0  0  0  0  0  0  0  0  0
   -4.2910    0.5948    0.0000 H   0  0  0  0  0  0  0  0  0  0  0  0
   -4.4365   -0.2173    0.0000 H   0  0  0  0  0  0  0  0  0  0  0  0
   -3.6187   -0.9073    0.0000 H   0  0  0  0  0  0  0  0  0  0  0  0
   -2.0516   -0.2632    0.0000 H   0  0  0  0  0  0  0  0  0  0  0  0
   -1.9198    1.6760    0.0000 H   0  0  0  0  0  0  0  0  0  0  0  0
   -1.7743    2.4880    0.0000 H   0  0  0  0  0  0  0  0  0  0  0  0
   -0.7678    2.8512    0.0000 H   0  0  0  0  0  0  0  0  0  0  0  0
    0.8261    2.4412    0.0000 H   0  0  0  0  0  0  0  0  0  0  0  0
   -0.8527    3.5801    0.0000 H   0  0  0  0  0  0  0  0  0  0  0  0
    0.1537    3.9433    0.0000 H   0  0  0  0  0  0  0  0  0  0  0  0
    0.9298    4.2234    0.0000 H   0  0  0  0  0  0  0  0  0  0  0  0
    1.7476    3.5334    0.0000 H   0  0  0  0  0  0  0  0  0  0  0  0
    2.3781    3.0013    0.0000 H   0  0  0  0  0  0  0  0  0  0  0  0
    2.1894    1.9480    0.0000 H   0  0  0  0  0  0  0  0  0  0  0  0
    2.0439    1.1360    0.0000 H   0  0  0  0  0  0  0  0  0  0  0  0
    1.0374    0.7728    0.0000 H   0  0  0  0  0  0  0  0  0  0  0  0
    0.2613    0.4928    0.0000 H   0  0  0  0  0  0  0  0  0  0  0  0
   -0.5564    1.1829    0.0000 H   0  0  0  0  0  0  0  0  0  0  0  0
    0.4782    1.7031    0.0000 H   0  0  0  0  0  0  0  0  0  0  0  0
   -0.0714   -0.1613    0.0000 H   0  0  0  0  0  0  0  0  0  0  0  0
    1.6074   -1.3002    0.0000 H   0  0  0  0  0  0  0  0  0  0  0  0
    0.6009   -1.6634    0.0000 H   0  0  0  0  0  0  0  0  0  0  0  0
   -0.8042   -0.2002    0.0000 H   0  0  0  0  0  0  0  0  0  0  0  0
   -0.9929   -1.2534    0.0000 H   0  0  0  0  0  0  0  0  0  0  0  0
    0.6858   -2.3924    0.0000 H   0  0  0  0  0  0  0  0  0  0  0  0
   -0.3207   -2.7555    0.0000 H   0  0  0  0  0  0  0  0  0  0  0  0
   -1.6604   -1.3474    0.0000 H   0  0  0  0  0  0  0  0  0  0  0  0
   -0.5965   -4.2955    0.0000 H   0  0  0  0  0  0  0  0  0  0  0  0
    0.5032   -2.9922    0.0000 H   0  0  0  0  0  0  0  0  0  0  0  0
   -2.5820   -2.4396    0.0000 H   0  0  0  0  0  0  0  0  0  0  0  0
    2.1679   -1.0192    0.0000 H   0  0  0  0  0  0  0  0  0  0  0  0
    2.3000    0.9200    0.0000 H   0  0  0  0  0  0  0  0  0  0  0  0
    2.4454    1.7320    0.0000 H   0  0  0  0  0  0  0  0  0  0  0  0
    3.4519    2.0952    0.0000 H   0  0  0  0  0  0  0  0  0  0  0  0
    4.8570    0.6320    0.0000 H   0  0  0  0  0  0  0  0  0  0  0  0
    5.0457    1.6852    0.0000 H   0  0  0  0  0  0  0  0  0  0  0  0
    3.3669    2.8241    0.0000 H   0  0  0  0  0  0  0  0  0  0  0  0
    4.3734    3.1873    0.0000 H   0  0  0  0  0  0  0  0  0  0  0  0
    5.7131    1.7792    0.0000 H   0  0  0  0  0  0  0  0  0  0  0  0
    4.6493    4.7273    0.0000 H   0  0  0  0  0  0  0  0  0  0  0  0
    3.5497    3.4240    0.0000 H   0  0  0  0  0  0  0  0  0  0  0  0
    6.6346    2.8713    0.0000 H   0  0  0  0  0  0  0  0  0  0  0  0
    4.6979    0.9470    0.0000 H   0  0  0  0  0  0  0  0  0  0  0  0
    4.1482   -0.9173    0.0000 H   0  0  0  0  0  0  0  0  0  0  0  0
    5.8270   -2.0563    0.0000 H   0  0  0  0  0  0  0  0  0  0  0  0
    4.8205   -2.4194    0.0000 H   0  0  0  0  0  0  0  0  0  0  0  0
    3.4154   -0.9562    0.0000 H   0  0  0  0  0  0  0  0  0  0  0  0
    3.2267   -2.0094    0.0000 H   0  0  0  0  0  0  0  0  0  0  0  0
    4.9055   -3.1483    0.0000 H   0  0  0  0  0  0  0  0  0  0  0  0
    3.8990   -3.5115    0.0000 H   0  0  0  0  0  0  0  0  0  0  0  0
    2.5593   -2.1034    0.0000 H   0  0  0  0  0  0  0  0  0  0  0  0
    3.6231   -5.0515    0.0000 H   0  0  0  0  0  0  0  0  0  0  0  0
    4.7227   -3.7482    0.0000 H   0  0  0  0  0  0  0  0  0  0  0  0
    1.6377   -3.1955    0.0000 H   0  0  0  0  0  0  0  0  0  0  0  0
    6.3877   -1.7753    0.0000 H   0  0  0  0  0  0  0  0  0  0  0  0
    6.5195    0.1638    0.0000 H   0  0  0  0  0  0  0  0  0  0  0  0
    6.6650    0.9759    0.0000 H   0  0  0  0  0  0  0  0  0  0  0  0
    7.6715    1.3391    0.0000 H   0  0  0  0  0  0  0  0  0  0  0  0
    9.0766   -0.1241    0.0000 H   0  0  0  0  0  0  0  0  0  0  0  0
    9.2653    0.9291    0.0000 H   0  0  0  0  0  0  0  0  0  0  0  0
    7.9474    2.8791    0.0000 H   0  0  0  0  0  0  0  0  0  0  0  0
    6.8478    1.5758    0.0000 H   0  0  0  0  0  0  0  0  0  0  0  0
    8.9174    0.1909    0.0000 H   0  0  0  0  0  0  0  0  0  0  0  0
    8.3678   -1.6734    0.0000 H   0  0  0  0  0  0  0  0  0  0  0  0
   10.0466   -2.8123    0.0000 H   0  0  0  0  0  0  0  0  0  0  0  0
    9.0401   -3.1755    0.0000 H   0  0  0  0  0  0  0  0  0  0  0  0
    7.6350   -1.7123    0.0000 H   0  0  0  0  0  0  0  0  0  0  0  0
    7.4463   -2.7655    0.0000 H   0  0  0  0  0  0  0  0  0  0  0  0
    9.1251   -3.9044    0.0000 H   0  0  0  0  0  0  0  0  0  0  0  0
    8.1186   -4.2676    0.0000 H   0  0  0  0  0  0  0  0  0  0  0  0
    6.7789   -2.8595    0.0000 H   0  0  0  0  0  0  0  0  0  0  0  0
    7.8427   -5.8076    0.0000 H   0  0  0  0  0  0  0  0  0  0  0  0
    8.9423   -4.5043    0.0000 H   0  0  0  0  0  0  0  0  0  0  0  0
    5.8574   -3.9516    0.0000 H   0  0  0  0  0  0  0  0  0  0  0  0
   10.6073   -2.5313    0.0000 H   0  0  0  0  0  0  0  0  0  0  0  0
   11.3681   -2.3354    0.0000 H   0  0  0  0  0  0  0  0  0  0  0  0
   11.9987   -2.8675    0.0000 H   0  0  0  0  0  0  0  0  0  0  0  0
   13.0052   -2.5043    0.0000 H   0  0  0  0  0  0  0  0  0  0  0  0
   13.1522   -0.4810    0.0000 H   0  0  0  0  0  0  0  0  0  0  0  0
   13.9700   -1.1711    0.0000 H   0  0  0  0  0  0  0  0  0  0  0  0
   13.4052   -3.1195    0.0000 H   0  0  0  0  0  0  0  0  0  0  0  0
   14.4117   -2.7564    0.0000 H   0  0  0  0  0  0  0  0  0  0  0  0
   14.5436   -0.8172    0.0000 H   0  0  0  0  0  0  0  0  0  0  0  0
   16.5289   -2.6732    0.0000 H   0  0  0  0  0  0  0  0  0  0  0  0
   15.9502   -1.0692    0.0000 H   0  0  0  0  0  0  0  0  0  0  0  0
   13.9289   -3.4646    0.0000 H   0  0  0  0  0  0  0  0  0  0  0  0
   13.1945   -0.7944    0.0000 H   0  0  0  0  0  0  0  0  0  0  0  0
  1138  1  0  0  0  0
  1139  1  0  0  0  0
  2  1  1  0  0  0  0
  2  3  1  0  0  0  0
  2 18  1  0  0  0  0
  2140  1  1  0  0  0
  3  4  1  0  0  0  0
  3141  1  0  0  0  0
  3142  1  0  0  0  0
  4  5  2  0  0  0  0
  4  9  1  0  0  0  0
  5  6  1  0  0  0  0
  5143  1  0  0  0  0
  6  7  2  0  0  0  0
  6144  1  0  0  0  0
  7  8  1  0  0  0  0
  7 10  1  0  0  0  0
  8  9  2  0  0  0  0
  8145  1  0  0  0  0
  9146  1  0  0  0  0
 10 11  2  0  0  0  0
 10 12  1  0  0  0  0
 12 13  2  0  0  0  0
 12 17  1  0  0  0  0
 13 14  1  0  0  0  0
 13147  1  0  0  0  0
 14 15  2  0  0  0  0
 14148  1  0  0  0  0
 15 16  1  0  0  0  0
 15149  1  0  0  0  0
 16 17  2  0  0  0  0
 16150  1  0  0  0  0
 17151  1  0  0  0  0
 18 19  2  0  0  0  0
 18 20  1  0  0  0  0
 20152  1  0  0  0  0
 21 20  1  0  0  0  0
 21 22  1  0  0  0  0
 21 24  1  0  0  0  0
 21153  1  1  0  0  0
 22 23  1  0  0  0  0
 22154  1  0  0  0  0
 22155  1  0  0  0  0
 23156  1  0  0  0  0
 24 25  2  0  0  0  0
 24 26  1  0  0  0  0
 26157  1  0  0  0  0
 27 26  1  0  0  0  0
 27 28  1  0  0  0  0
 27 38  1  0  0  0  0
 27158  1  1  0  0  0
 28 29  1  0  0  0  0
 28159  1  0  0  0  0
 28160  1  0  0  0  0
 29 30  2  0  0  0  0
 29 33  1  0  0  0  0
 30 31  1  0  0  0  0
 30161  1  0  0  0  0
 31 32  1  0  0  0  0
 31162  1  0  0  0  0
 32 33  2  0  0  0  0
 32 37  1  0  0  0  0
 33 34  1  0  0  0  0
 34 35  2  0  0  0  0
 34163  1  0  0  0  0
 35 36  1  0  0  0  0
 35164  1  0  0  0  0
 36 37  2  0  0  0  0
 36165  1  0  0  0  0
 37166  1  0  0  0  0
 38 39  2  0  0  0  0
 38 40  1  0  0  0  0
 40167  1  0  0  0  0
 41 40  1  0  0  0  0
 41 42  1  0  0  0  0
 41 44  1  0  0  0  0
 41168  1  1  0  0  0
 42 43  1  0  0  0  0
 42169  1  0  0  0  0
 42170  1  0  0  0  0
 43171  1  0  0  0  0
 44 45  2  0  0  0  0
 44 46  1  0  0  0  0
 46172  1  0  0  0  0
 47 46  1  0  0  0  0
 47 48  1  0  0  0  0
 47 60  1  0  0  0  0
 47173  1  6  0  0  0
 48 49  1  0  0  0  0
 48174  1  0  0  0  0
 48175  1  0  0  0  0
 49 50  2  0  0  0  0
 49 58  1  0  0  0  0
 50 51  1  0  0  0  0
 50 52  1  0  0  0  0
 52 53  1  0  0  0  0
 52 54  2  0  0  0  0
 54 55  1  0  0  0  0
 54 56  1  0  0  0  0
 56 57  1  0  0  0  0
 56 58  2  0  0  0  0
 58 59  1  0  0  0  0
 60 61  2  0  0  0  0
 60 62  1  0  0  0  0
 62176  1  0  0  0  0
 63 62  1  0  0  0  0
 63 64  1  0  0  0  0
 63 71  1  0  0  0  0
 63177  1  1  0  0  0
 64 65  1  0  0  0  0
 64178  1  0  0  0  0
 64179  1  0  0  0  0
 65 66  1  0  0  0  0
 65 70  1  0  0  0  0
 65180  1  0  0  0  0
 66 67  1  0  0  0  0
 66181  1  0  0  0  0
 66182  1  0  0  0  0
 67 68  1  0  0  0  0
 67183  1  0  0  0  0
 67184  1  0  0  0  0
 68 69  1  0  0  0  0
 68185  1  0  0  0  0
 68186  1  0  0  0  0
 69 70  1  0  0  0  0
 69187  1  0  0  0  0
 69188  1  0  0  0  0
 70189  1  0  0  0  0
 70190  1  0  0  0  0
 71 72  2  0  0  0  0
 71 73  1  0  0  0  0
 73191  1  0  0  0  0
 74 73  1  0  0  0  0
 74 75  1  0  0  0  0
 74 82  1  0  0  0  0
 74192  1  6  0  0  0
 75 76  1  0  0  0  0
 75193  1  0  0  0  0
 75194  1  0  0  0  0
 76 77  1  0  0  0  0
 76195  1  0  0  0  0
 76196  1  0  0  0  0
 77 78  1  0  0  0  0
 77197  1  0  0  0  0
 77198  1  0  0  0  0
 78 79  1  0  0  0  0
 78199  1  0  0  0  0
 79 80  1  0  0  0  0
 79 81  2  0  0  0  0
 80200  1  0  0  0  0
 80201  1  0  0  0  0
 81202  1  0  0  0  0
 82 83  2  0  0  0  0
 82 84  1  0  0  0  0
 84203  1  0  0  0  0
 85 84  1  0  0  0  0
 85 86  1  0  0  0  0
 85 93  1  0  0  0  0
 85204  1  1  0  0  0
 86 87  1  0  0  0  0
 86205  1  0  0  0  0
 86206  1  0  0  0  0
 87 88  1  0  0  0  0
 87207  1  0  0  0  0
 87208  1  0  0  0  0
 88 89  1  0  0  0  0
 88209  1  0  0  0  0
 88210  1  0  0  0  0
 89 90  1  0  0  0  0
 89211  1  0  0  0  0
 90 91  1  0  0  0  0
 90 92  2  0  0  0  0
 91212  1  0  0  0  0
 91213  1  0  0  0  0
 92214  1  0  0  0  0
 93 94  2  0  0  0  0
 93 95  1  0  0  0  0
 95215  1  0  0  0  0
 96 95  1  0  0  0  0
 96 97  1  0  0  0  0
 96104  1  0  0  0  0
 96216  1  6  0  0  0
 97 98  1  0  0  0  0
 97217  1  0  0  0  0
 97218  1  0  0  0  0
 98 99  1  0  0  0  0
 98219  1  0  0  0  0
 98220  1  0  0  0  0
 99100  1  0  0  0  0
 99221  1  0  0  0  0
 99222  1  0  0  0  0
100101  1  0  0  0  0
100223  1  0  0  0  0
101102  1  0  0  0  0
101103  2  0  0  0  0
102224  1  0  0  0  0
102225  1  0  0  0  0
103226  1  0  0  0  0
104105  2  0  0  0  0
104106  1  0  0  0  0
106227  1  0  0  0  0
107106  1  0  0  0  0
107108  1  0  0  0  0
107113  1  0  0  0  0
107228  1  1  0  0  0
108109  1  0  0  0  0
108229  1  0  0  0  0
108230  1  0  0  0  0
109110  1  0  0  0  0
109231  1  0  0  0  0
109232  1  0  0  0  0
110111  1  0  0  0  0
110112  2  0  0  0  0
111233  1  0  0  0  0
111234  1  0  0  0  0
113114  2  0  0  0  0
113115  1  0  0  0  0
115235  1  0  0  0  0
116115  1  0  0  0  0
116117  1  0  0  0  0
116124  1  0  0  0  0
116236  1  6  0  0  0
117118  1  0  0  0  0
117237  1  0  0  0  0
117238  1  0  0  0  0
118119  1  0  0  0  0
118239  1  0  0  0  0
118240  1  0  0  0  0
119120  1  0  0  0  0
119241  1  0  0  0  0
119242  1  0  0  0  0
120121  1  0  0  0  0
120243  1  0  0  0  0
121122  1  0  0  0  0
121123  2  0  0  0  0
122244  1  0  0  0  0
122245  1  0  0  0  0
123246  1  0  0  0  0
124125  2  0  0  0  0
124126  1  0  0  0  0
126247  1  0  0  0  0
127126  1  0  0  0  0
127128  1  0  0  0  0
127135  1  0  0  0  0
127248  1  6  0  0  0
128129  1  0  0  0  0
128249  1  0  0  0  0
128250  1  0  0  0  0
129130  1  0  0  0  0
129251  1  0  0  0  0
129252  1  0  0  0  0
130131  1  0  0  0  0
130253  1  0  0  0  0
130254  1  0  0  0  0
131132  1  0  0  0  0
131255  1  0  0  0  0
132133  1  0  0  0  0
132134  2  0  0  0  0
133256  1  0  0  0  0
133257  1  0  0  0  0
134258  1  0  0  0  0
135136  1  0  0  0  0
135137  2  0  0  0  0
136259  1  0  0  0  0
M  END
>  <DRUGBANK_ID>
DB17277

>  <COMMON_NAME>
CBP-501

>  <CAS_NUMBER>
565434-85-7

>  <UNII>
XH2662798I

>  <SYNONYMS>
D-arginine, 4-benzoyl-d-phenylalanyl-d-seryl-d-tryptophyl-d-seryl-2,3,4,5,6-pentafluoro-d-phenylalanyl-3-cyclohexyl-d-alanyl-d-arginyl-d-arginyl-d-arginyl-d-glutaminyl-d-arginyl-

$$$$
