P40
 OpenBabel10282417072D

 61 65  0  0  0  0  0  0  0  0999 V2000
    2.4079    1.5730    0.0000 C   0  0  0  0  0  0  0  0  0  0  0  0
    3.1224    1.9855    0.0000 C   0  0  0  0  0  0  0  0  0  0  0  0
    3.8369    4.0480    0.0000 C   0  0  0  0  0  0  0  0  0  0  0  0
    3.8369    3.2230    0.0000 C   0  0  0  0  0  0  0  0  0  0  0  0
   -0.4500   -0.9020    0.0000 C   0  0  0  0  0  0  0  0  0  0  0  0
   -1.1644   -0.4895    0.0000 C   0  0  0  0  0  0  0  0  0  0  0  0
   -1.1644    0.3355    0.0000 C   0  0  0  0  0  0  0  0  0  0  0  0
   -0.4500    0.7480    0.0000 C   0  0  0  0  0  0  0  0  0  0  0  0
   -1.8789   -0.9020    0.0000 C   0  0  0  0  0  0  0  0  0  0  0  0
   -1.8789   -1.7270    0.0000 C   0  0  0  0  0  0  0  0  0  0  0  0
   -2.5934   -2.1395    0.0000 C   0  0  0  0  0  0  0  0  0  0  0  0
   -3.3079   -1.7270    0.0000 C   0  0  0  0  0  0  0  0  0  0  0  0
   -2.5934   -2.9645    0.0000 C   0  0  0  0  0  0  0  0  0  0  0  0
   -3.3079   -4.2020    0.0000 C   0  0  0  0  0  0  0  0  0  0  0  0
   -2.8954   -4.9165    0.0000 C   0  0  0  0  0  0  0  0  0  0  0  0
   -3.7204   -4.9165    0.0000 C   0  0  0  0  0  0  0  0  0  0  0  0
    1.6934   -0.4895    0.0000 N   0  0  0  0  0  0  0  0  0  0  0  0
    0.9790   -0.9020    0.0000 C   0  0  0  0  0  0  0  0  0  0  0  0
    3.1224    2.8105    0.0000 N   0  0  0  0  0  0  0  0  0  0  0  0
    2.4079    3.2230    0.0000 C   0  0  0  0  0  0  0  0  0  0  0  0
    2.4079    4.0480    0.0000 C   0  0  0  0  0  0  0  0  0  0  0  0
    3.1224    4.4605    0.0000 O   0  0  0  0  0  0  0  0  0  0  0  0
   -3.3079   -0.9020    0.0000 C   0  0  0  0  0  0  0  0  0  0  0  0
   -2.5934   -0.4895    0.0000 C   0  0  0  0  0  0  0  0  0  0  0  0
   -2.5934    0.3355    0.0000 C   0  0  0  0  0  0  0  0  0  0  0  0
   -1.8789   -3.3770    0.0000 O   0  0  0  0  0  0  0  0  0  0  0  0
    0.2645   -0.4895    0.0000 C   0  0  0  0  0  0  0  0  0  0  0  0
    0.2645    0.3355    0.0000 C   0  0  0  0  0  0  0  0  0  0  0  0
    0.9790    0.7480    0.0000 N   0  0  0  0  0  0  0  0  0  0  0  0
    1.6934    0.3355    0.0000 C   0  0  0  0  0  0  0  0  0  0  0  0
    2.4079    0.7480    0.0000 N   0  0  0  0  0  0  0  0  0  0  0  0
   -3.3079   -3.3770    0.0000 N   0  0  0  0  0  0  0  0  0  0  0  0
    1.4813    2.1080    0.0000 H   0  0  0  0  0  0  0  0  0  0  0  0
    1.4813    1.0380    0.0000 H   0  0  0  0  0  0  0  0  0  0  0  0
    4.0490    1.4505    0.0000 H   0  0  0  0  0  0  0  0  0  0  0  0
    4.0490    2.5205    0.0000 H   0  0  0  0  0  0  0  0  0  0  0  0
    4.7635    4.5830    0.0000 H   0  0  0  0  0  0  0  0  0  0  0  0
    3.8369    5.1180    0.0000 H   0  0  0  0  0  0  0  0  0  0  0  0
    4.7635    2.6880    0.0000 H   0  0  0  0  0  0  0  0  0  0  0  0
    3.8369    2.1530    0.0000 H   0  0  0  0  0  0  0  0  0  0  0  0
   -0.4500   -1.9340    0.0000 H   0  0  0  0  0  0  0  0  0  0  0  0
   -2.0581    0.8515    0.0000 H   0  0  0  0  0  0  0  0  0  0  0  0
   -0.4500    1.7800    0.0000 H   0  0  0  0  0  0  0  0  0  0  0  0
   -0.9852   -2.2430    0.0000 H   0  0  0  0  0  0  0  0  0  0  0  0
   -4.2016   -2.2430    0.0000 H   0  0  0  0  0  0  0  0  0  0  0  0
   -4.3414   -3.9251    0.0000 H   0  0  0  0  0  0  0  0  0  0  0  0
   -1.9688   -5.4515    0.0000 H   0  0  0  0  0  0  0  0  0  0  0  0
   -3.1723   -5.9500    0.0000 H   0  0  0  0  0  0  0  0  0  0  0  0
   -4.6470   -5.4515    0.0000 H   0  0  0  0  0  0  0  0  0  0  0  0
   -3.4435   -5.9500    0.0000 H   0  0  0  0  0  0  0  0  0  0  0  0
    0.9790   -1.9340    0.0000 H   0  0  0  0  0  0  0  0  0  0  0  0
    1.4813    2.6880    0.0000 H   0  0  0  0  0  0  0  0  0  0  0  0
    1.4813    3.7580    0.0000 H   0  0  0  0  0  0  0  0  0  0  0  0
    1.4813    4.5830    0.0000 H   0  0  0  0  0  0  0  0  0  0  0  0
    2.4079    5.1180    0.0000 H   0  0  0  0  0  0  0  0  0  0  0  0
   -4.2016   -0.3860    0.0000 H   0  0  0  0  0  0  0  0  0  0  0  0
   -1.6668    0.8705    0.0000 H   0  0  0  0  0  0  0  0  0  0  0  0
   -3.5200    0.8705    0.0000 H   0  0  0  0  0  0  0  0  0  0  0  0
   -2.5934    1.4055    0.0000 H   0  0  0  0  0  0  0  0  0  0  0  0
    3.2605    0.2557    0.0000 H   0  0  0  0  0  0  0  0  0  0  0  0
   -4.1605   -2.8847    0.0000 H   0  0  0  0  0  0  0  0  0  0  0  0
  1  2  1  0  0  0  0
  1 31  1  0  0  0  0
  1 33  1  0  0  0  0
  1 34  1  0  0  0  0
  2 19  1  0  0  0  0
  2 35  1  0  0  0  0
  2 36  1  0  0  0  0
  3  4  1  0  0  0  0
  3 22  1  0  0  0  0
  3 37  1  0  0  0  0
  3 38  1  0  0  0  0
  4 19  1  0  0  0  0
  4 39  1  0  0  0  0
  4 40  1  0  0  0  0
  5  6  2  0  0  0  0
  5 27  1  0  0  0  0
  5 41  1  0  0  0  0
  6  7  1  0  0  0  0
  6  9  1  0  0  0  0
  7  8  2  0  0  0  0
  7 42  1  0  0  0  0
  8 28  1  0  0  0  0
  8 43  1  0  0  0  0
  9 10  2  0  0  0  0
  9 24  1  0  0  0  0
 10 11  1  0  0  0  0
 10 44  1  0  0  0  0
 11 12  2  0  0  0  0
 11 13  1  0  0  0  0
 12 23  1  0  0  0  0
 12 45  1  0  0  0  0
 13 26  2  0  0  0  0
 13 32  1  0  0  0  0
 14 15  1  0  0  0  0
 14 16  1  0  0  0  0
 14 32  1  0  0  0  0
 14 46  1  0  0  0  0
 15 16  1  0  0  0  0
 15 47  1  0  0  0  0
 15 48  1  0  0  0  0
 16 49  1  0  0  0  0
 16 50  1  0  0  0  0
 17 18  2  0  0  0  0
 17 30  1  0  0  0  0
 18 27  1  0  0  0  0
 18 51  1  0  0  0  0
 19 20  1  0  0  0  0
 20 21  1  0  0  0  0
 20 52  1  0  0  0  0
 20 53  1  0  0  0  0
 21 22  1  0  0  0  0
 21 54  1  0  0  0  0
 21 55  1  0  0  0  0
 23 24  2  0  0  0  0
 23 56  1  0  0  0  0
 24 25  1  0  0  0  0
 25 57  1  0  0  0  0
 25 58  1  0  0  0  0
 25 59  1  0  0  0  0
 27 28  2  0  0  0  0
 28 29  1  0  0  0  0
 29 30  2  0  0  0  0
 30 31  1  0  0  0  0
 31 60  1  0  0  0  0
 32 61  1  0  0  0  0
M  END
>  <DRUGBANK_ID>
DB08351

>  <COMMON_NAME>
N-cyclopropyl-4-methyl-3-{2-[(2-morpholin-4-ylethyl)amino]quinazolin-6-yl}benzamide

$$$$
