
 OpenBabel10282417072D

 48 48  0  0  0  0  0  0  0  0999 V2000
   -2.4613   -2.0934    0.0000 C   0  0  0  0  0  0  0  0  0  0  0  0
   -2.4613   -2.8860    0.0000 C   0  0  0  0  0  0  0  0  0  0  0  0
   -1.7785   -3.2802    0.0000 C   0  0  0  0  0  0  0  0  0  0  0  0
   -1.0915   -2.8860    0.0000 C   0  0  0  0  0  0  0  0  0  0  0  0
   -1.0915   -2.0934    0.0000 C   0  0  0  0  0  0  0  0  0  0  0  0
   -1.7785   -1.6948    0.0000 C   0  0  0  0  0  0  0  0  0  0  0  0
   -1.3708   -0.9766    0.0000 C   0  0  0  0  0  0  0  0  0  0  0  0
   -2.1985   -0.9766    0.0000 C   0  0  0  0  0  0  0  0  0  0  0  0
   -0.3810   -3.2977    0.0000 C   0  0  0  0  0  0  0  0  0  0  0  0
   -0.3810   -1.6773    0.0000 C   0  0  0  0  0  0  0  0  0  0  0  0
   -0.3854   -0.8496    0.0000 C   0  0  0  0  0  0  0  0  0  0  0  0
    0.3284   -0.4336    0.0000 C   0  0  0  0  0  0  0  0  0  0  0  0
    0.3240    0.3941    0.0000 C   0  0  0  0  0  0  0  0  0  0  0  0
    1.0379    0.8101    0.0000 C   0  0  0  0  0  0  0  0  0  0  0  0
    1.0335    1.6378    0.0000 C   0  0  0  0  0  0  0  0  0  0  0  0
    1.7473    2.0539    0.0000 C   0  0  0  0  0  0  0  0  0  0  0  0
    1.7429    2.8816    0.0000 C   0  0  0  0  0  0  0  0  0  0  0  0
    2.4569    3.2977    0.0000 C   0  0  0  0  0  0  0  0  0  0  0  0
    2.4613    1.6422    0.0000 C   0  0  0  0  0  0  0  0  0  0  0  0
    1.0423   -0.8453    0.0000 C   0  0  0  0  0  0  0  0  0  0  0  0
   -3.3892   -1.5606    0.0000 H   0  0  0  0  0  0  0  0  0  0  0  0
   -2.4652   -1.0234    0.0000 H   0  0  0  0  0  0  0  0  0  0  0  0
   -3.3879   -3.4210    0.0000 H   0  0  0  0  0  0  0  0  0  0  0  0
   -2.4613   -3.9560    0.0000 H   0  0  0  0  0  0  0  0  0  0  0  0
   -1.7799   -4.3122    0.0000 H   0  0  0  0  0  0  0  0  0  0  0  0
   -0.3008   -0.9688    0.0000 H   0  0  0  0  0  0  0  0  0  0  0  0
   -1.9125   -0.0539    0.0000 H   0  0  0  0  0  0  0  0  0  0  0  0
   -0.8426   -0.0461    0.0000 H   0  0  0  0  0  0  0  0  0  0  0  0
   -1.6687   -0.0470    0.0000 H   0  0  0  0  0  0  0  0  0  0  0  0
   -3.2685   -0.9826    0.0000 H   0  0  0  0  0  0  0  0  0  0  0  0
   -2.7386   -0.0529    0.0000 H   0  0  0  0  0  0  0  0  0  0  0  0
   -0.3827   -4.3677    0.0000 H   0  0  0  0  0  0  0  0  0  0  0  0
    0.5465   -2.7642    0.0000 H   0  0  0  0  0  0  0  0  0  0  0  0
    0.5448   -3.8342    0.0000 H   0  0  0  0  0  0  0  0  0  0  0  0
    0.5157   -2.1881    0.0000 H   0  0  0  0  0  0  0  0  0  0  0  0
   -1.2816   -0.3378    0.0000 H   0  0  0  0  0  0  0  0  0  0  0  0
   -0.5721    0.9059    0.0000 H   0  0  0  0  0  0  0  0  0  0  0  0
    1.9340    0.2983    0.0000 H   0  0  0  0  0  0  0  0  0  0  0  0
    0.1373    2.1496    0.0000 H   0  0  0  0  0  0  0  0  0  0  0  0
    0.8468    3.3934    0.0000 H   0  0  0  0  0  0  0  0  0  0  0  0
    3.3527    2.7853    0.0000 H   0  0  0  0  0  0  0  0  0  0  0  0
    2.4527    4.3297    0.0000 H   0  0  0  0  0  0  0  0  0  0  0  0
    2.4619    0.5722    0.0000 H   0  0  0  0  0  0  0  0  0  0  0  0
    3.3877    2.1777    0.0000 H   0  0  0  0  0  0  0  0  0  0  0  0
    3.3882    1.1077    0.0000 H   0  0  0  0  0  0  0  0  0  0  0  0
    1.0428   -1.9153    0.0000 H   0  0  0  0  0  0  0  0  0  0  0  0
    1.9687   -0.3098    0.0000 H   0  0  0  0  0  0  0  0  0  0  0  0
    1.9692   -1.3798    0.0000 H   0  0  0  0  0  0  0  0  0  0  0  0
  1  2  1  0  0  0  0
  1  6  1  0  0  0  0
  1 21  1  0  0  0  0
  1 22  1  0  0  0  0
  2  3  1  0  0  0  0
  2 23  1  0  0  0  0
  2 24  1  0  0  0  0
  3  4  2  0  0  0  0
  3 25  1  0  0  0  0
  4  5  1  0  0  0  0
  4  9  1  0  0  0  0
  5 10  2  0  0  0  0
  5  6  1  0  0  0  0
  6  7  1  0  0  0  0
  6  8  1  0  0  0  0
  7 26  1  0  0  0  0
  7 27  1  0  0  0  0
  7 28  1  0  0  0  0
  8 29  1  0  0  0  0
  8 30  1  0  0  0  0
  8 31  1  0  0  0  0
  9 32  1  0  0  0  0
  9 33  1  0  0  0  0
  9 34  1  0  0  0  0
 10 11  1  0  0  0  0
 10 35  1  0  0  0  0
 11 12  2  0  0  0  0
 11 36  1  0  0  0  0
 12 13  1  0  0  0  0
 12 20  1  0  0  0  0
 13 14  2  0  0  0  0
 13 37  1  0  0  0  0
 14 15  1  0  0  0  0
 14 38  1  0  0  0  0
 15 16  2  0  0  0  0
 15 39  1  0  0  0  0
 16 17  1  0  0  0  0
 16 19  1  0  0  0  0
 17 18  2  0  0  0  0
 17 40  1  0  0  0  0
 18 41  1  0  0  0  0
 18 42  1  0  0  0  0
 19 43  1  0  0  0  0
 19 44  1  0  0  0  0
 19 45  1  0  0  0  0
 20 46  1  0  0  0  0
 20 47  1  0  0  0  0
 20 48  1  0  0  0  0
M  END
>  <DRUGBANK_ID>
DB02914

>  <SECONDARY_ACCESSION_NUMBERS>
EXPT00525

>  <COMMON_NAME>
Anhydrovitamin A

>  <CAS_NUMBER>
1224-78-8

>  <UNII>
235BBF3K97

>  <SYNONYMS>
Anhydro-retinol

$$$$
