MXP
 OpenBabel10282417072D

 61 61  0  0  0  0  0  0  0  0999 V2000
    0.1413    1.0278    0.0000 O   0  0  0  0  0  0  0  0  0  0  0  0
   -1.2876    1.0278    0.0000 C   0  0  0  0  0  0  0  0  0  0  0  0
   -2.7166    5.1528    0.0000 N   0  0  0  0  0  0  0  0  0  0  0  0
   -1.2876    0.2028    0.0000 C   0  0  0  0  0  0  0  0  0  0  0  0
   -0.5732   -0.2097    0.0000 C   0  0  0  0  0  0  0  0  0  0  0  0
   -2.0021   -0.2097    0.0000 O   0  0  0  0  0  0  0  0  0  0  0  0
    0.1413    0.2028    0.0000 C   0  0  0  0  0  0  0  0  0  0  0  0
   -0.5732    1.4403    0.0000 C   0  0  0  0  0  0  0  0  0  0  0  0
   -0.5732   -1.0347    0.0000 C   0  0  0  0  0  0  0  0  0  0  0  0
    0.1413   -1.4472    0.0000 C   0  0  0  0  0  0  0  0  0  0  0  0
    0.8558   -0.2097    0.0000 O   0  0  0  0  0  0  0  0  0  0  0  0
    0.1413   -2.2722    0.0000 C   0  0  0  0  0  0  0  0  0  0  0  0
    0.8558   -2.6847    0.0000 C   0  0  0  0  0  0  0  0  0  0  0  0
    0.8558   -3.5097    0.0000 C   0  0  0  0  0  0  0  0  0  0  0  0
    1.5703   -3.9222    0.0000 C   0  0  0  0  0  0  0  0  0  0  0  0
    1.5703   -4.7472    0.0000 C   0  0  0  0  0  0  0  0  0  0  0  0
    2.2847   -5.1597    0.0000 C   0  0  0  0  0  0  0  0  0  0  0  0
    2.2847   -5.9847    0.0000 C   0  0  0  0  0  0  0  0  0  0  0  0
    0.8558   -1.0347    0.0000 C   0  0  0  0  0  0  0  0  0  0  0  0
    0.1413   -3.9222    0.0000 C   0  0  0  0  0  0  0  0  0  0  0  0
   -0.5732    2.2653    0.0000 C   0  0  0  0  0  0  0  0  0  0  0  0
   -1.2876    2.6778    0.0000 C   0  0  0  0  0  0  0  0  0  0  0  0
   -1.2876    3.5028    0.0000 C   0  0  0  0  0  0  0  0  0  0  0  0
   -2.0021    3.9153    0.0000 C   0  0  0  0  0  0  0  0  0  0  0  0
   -2.0021    4.7403    0.0000 C   0  0  0  0  0  0  0  0  0  0  0  0
   -3.4310    4.7403    0.0000 C   0  0  0  0  0  0  0  0  0  0  0  0
   -4.1455    5.9778    0.0000 C   0  0  0  0  0  0  0  0  0  0  0  0
   -1.2876   -1.4472    0.0000 O   0  0  0  0  0  0  0  0  0  0  0  0
   -4.1455    5.1528    0.0000 O   0  0  0  0  0  0  0  0  0  0  0  0
   -3.4310    3.9153    0.0000 O   0  0  0  0  0  0  0  0  0  0  0  0
   -2.1813    1.5438    0.0000 H   0  0  0  0  0  0  0  0  0  0  0  0
   -2.7166    6.1373    0.0000 H   0  0  0  0  0  0  0  0  0  0  0  0
   -2.8136    0.2588    0.0000 H   0  0  0  0  0  0  0  0  0  0  0  0
   -0.7524   -2.7882    0.0000 H   0  0  0  0  0  0  0  0  0  0  0  0
    1.7495   -2.1687    0.0000 H   0  0  0  0  0  0  0  0  0  0  0  0
    2.4969   -3.3872    0.0000 H   0  0  0  0  0  0  0  0  0  0  0  0
    2.4969   -4.4572    0.0000 H   0  0  0  0  0  0  0  0  0  0  0  0
    0.6436   -5.2822    0.0000 H   0  0  0  0  0  0  0  0  0  0  0  0
    1.5703   -5.8172    0.0000 H   0  0  0  0  0  0  0  0  0  0  0  0
    3.2114   -4.6247    0.0000 H   0  0  0  0  0  0  0  0  0  0  0  0
    3.2113   -5.6947    0.0000 H   0  0  0  0  0  0  0  0  0  0  0  0
    1.3581   -6.5197    0.0000 H   0  0  0  0  0  0  0  0  0  0  0  0
    3.2113   -6.5197    0.0000 H   0  0  0  0  0  0  0  0  0  0  0  0
    2.2847   -7.0547    0.0000 H   0  0  0  0  0  0  0  0  0  0  0  0
    1.7824   -1.5697    0.0000 H   0  0  0  0  0  0  0  0  0  0  0  0
    0.8558    0.0353    0.0000 H   0  0  0  0  0  0  0  0  0  0  0  0
    1.7825   -0.4997    0.0000 H   0  0  0  0  0  0  0  0  0  0  0  0
   -0.7853   -3.3872    0.0000 H   0  0  0  0  0  0  0  0  0  0  0  0
    0.1413   -4.9922    0.0000 H   0  0  0  0  0  0  0  0  0  0  0  0
   -0.7854   -4.4572    0.0000 H   0  0  0  0  0  0  0  0  0  0  0  0
    0.3535    2.8003    0.0000 H   0  0  0  0  0  0  0  0  0  0  0  0
   -0.5732    3.3353    0.0000 H   0  0  0  0  0  0  0  0  0  0  0  0
   -2.2143    2.1428    0.0000 H   0  0  0  0  0  0  0  0  0  0  0  0
   -2.2142    3.2128    0.0000 H   0  0  0  0  0  0  0  0  0  0  0  0
   -0.3610    4.0378    0.0000 H   0  0  0  0  0  0  0  0  0  0  0  0
   -1.2876    4.5728    0.0000 H   0  0  0  0  0  0  0  0  0  0  0  0
   -2.8958    3.3993    0.0000 H   0  0  0  0  0  0  0  0  0  0  0  0
   -1.1084    5.2563    0.0000 H   0  0  0  0  0  0  0  0  0  0  0  0
   -3.2189    6.5128    0.0000 H   0  0  0  0  0  0  0  0  0  0  0  0
   -5.0721    6.5128    0.0000 H   0  0  0  0  0  0  0  0  0  0  0  0
   -4.1455    7.0478    0.0000 H   0  0  0  0  0  0  0  0  0  0  0  0
  1  7  1  0  0  0  0
  1  8  1  0  0  0  0
  2  4  1  0  0  0  0
  2  8  2  0  0  0  0
  2 31  1  0  0  0  0
  3 25  1  0  0  0  0
  3 26  1  0  0  0  0
  3 32  1  0  0  0  0
  4  5  2  0  0  0  0
  4  6  1  0  0  0  0
  5  7  1  0  0  0  0
  5  9  1  0  0  0  0
  6 33  1  0  0  0  0
  7 11  2  0  0  0  0
  8 21  1  0  0  0  0
  9 10  1  0  0  0  0
  9 28  2  0  0  0  0
 10 12  2  0  0  0  0
 10 19  1  0  0  0  0
 12 13  1  0  0  0  0
 12 34  1  0  0  0  0
 13 14  2  0  0  0  0
 13 35  1  0  0  0  0
 14 15  1  0  0  0  0
 14 20  1  0  0  0  0
 15 16  1  0  0  0  0
 15 36  1  0  0  0  0
 15 37  1  0  0  0  0
 16 17  1  0  0  0  0
 16 38  1  0  0  0  0
 16 39  1  0  0  0  0
 17 18  1  0  0  0  0
 17 40  1  0  0  0  0
 17 41  1  0  0  0  0
 18 42  1  0  0  0  0
 18 43  1  0  0  0  0
 18 44  1  0  0  0  0
 19 45  1  0  0  0  0
 19 46  1  0  0  0  0
 19 47  1  0  0  0  0
 20 48  1  0  0  0  0
 20 49  1  0  0  0  0
 20 50  1  0  0  0  0
 21 22  1  0  0  0  0
 21 51  1  0  0  0  0
 21 52  1  0  0  0  0
 22 23  1  0  0  0  0
 22 53  1  0  0  0  0
 22 54  1  0  0  0  0
 23 24  1  0  0  0  0
 23 55  1  0  0  0  0
 23 56  1  0  0  0  0
 24 25  2  0  0  0  0
 24 57  1  0  0  0  0
 25 58  1  0  0  0  0
 26 29  1  0  0  0  0
 26 30  2  0  0  0  0
 27 29  1  0  0  0  0
 27 59  1  0  0  0  0
 27 60  1  0  0  0  0
 27 61  1  0  0  0  0
M  END
>  <DRUGBANK_ID>
DB08226

>  <COMMON_NAME>
Myxopyronin B

$$$$
