
 OpenBabel10282417072D

 73 75  0  0  1  0  0  0  0  0999 V2000
    4.4710   -0.6055    0.0000 C   0  0  0  0  0  0  0  0  0  0  0  0
    5.0013   -1.2375    0.0000 C   0  0  2  0  0  0  0  0  0  0  0  0
    5.7158   -1.6500    0.0000 C   0  0  0  0  0  0  0  0  0  0  0  0
    5.7158   -2.4750    0.0000 O   0  0  0  0  0  0  0  0  0  0  0  0
    5.0013   -2.8875    0.0000 C   0  0  1  0  0  0  0  0  0  0  0  0
    4.2868   -2.4750    0.0000 C   0  0  1  0  0  0  0  0  0  0  0  0
    4.2868   -1.6500    0.0000 C   0  0  1  0  0  0  0  0  0  0  0  0
    3.5724   -1.2375    0.0000 N   0  0  0  0  0  0  0  0  0  0  0  0
    3.5724   -0.4125    0.0000 C   0  0  0  0  0  0  0  0  0  0  0  0
    3.5724   -2.8875    0.0000 O   0  0  0  0  0  0  0  0  0  0  0  0
    5.0013   -3.7125    0.0000 O   0  0  0  0  0  0  0  0  0  0  0  0
    5.7158   -4.1250    0.0000 C   0  0  1  0  0  0  0  0  0  0  0  0
    6.4302   -3.7125    0.0000 C   0  0  1  0  0  0  0  0  0  0  0  0
    7.1447   -4.1250    0.0000 C   0  0  0  0  0  0  0  0  0  0  0  0
    7.1447   -4.9500    0.0000 C   0  0  1  0  0  0  0  0  0  0  0  0
    6.4302   -5.3625    0.0000 C   0  0  2  0  0  0  0  0  0  0  0  0
    5.7158   -4.9500    0.0000 C   0  0  2  0  0  0  0  0  0  0  0  0
    5.0013   -5.3625    0.0000 O   0  0  0  0  0  0  0  0  0  0  0  0
    6.4302   -6.1875    0.0000 O   0  0  0  0  0  0  0  0  0  0  0  0
    5.7158   -6.6000    0.0000 C   0  0  2  0  0  0  0  0  0  0  0  0
    5.7158   -7.4250    0.0000 C   0  0  1  0  0  0  0  0  0  0  0  0
    5.0013   -7.8375    0.0000 C   0  0  0  0  0  0  0  0  0  0  0  0
    4.2868   -7.4250    0.0000 C   0  0  0  0  0  0  0  0  0  0  0  0
    4.2868   -6.6000    0.0000 C   0  0  2  0  0  0  0  0  0  0  0  0
    5.0013   -6.1875    0.0000 O   0  0  0  0  0  0  0  0  0  0  0  0
    3.5724   -6.1875    0.0000 C   0  0  0  0  0  0  0  0  0  0  0  0
    3.5724   -5.3625    0.0000 N   0  0  0  0  0  0  0  0  0  0  0  0
    4.2868   -4.9500    0.0000 C   0  0  0  0  0  0  0  0  0  0  0  0
    6.4302   -7.8375    0.0000 N   0  0  0  0  0  0  0  0  0  0  0  0
    7.8592   -5.3625    0.0000 N   0  0  0  0  0  0  0  0  0  0  0  0
    6.4302   -2.8875    0.0000 N   0  0  0  0  0  0  0  0  0  0  0  0
    5.5316   -0.6055    0.0000 O   0  0  0  0  0  0  0  0  0  0  0  0
    4.8370    0.4000    0.0000 H   0  0  0  0  0  0  0  0  0  0  0  0
    3.4173   -0.7913    0.0000 H   0  0  0  0  0  0  0  0  0  0  0  0
    3.7832    0.2142    0.0000 H   0  0  0  0  0  0  0  0  0  0  0  0
    6.6424   -1.1150    0.0000 H   0  0  0  0  0  0  0  0  0  0  0  0
    6.6424   -2.1850    0.0000 H   0  0  0  0  0  0  0  0  0  0  0  0
    5.9279   -3.4225    0.0000 H   0  0  0  0  0  0  0  0  0  0  0  0
    4.2868   -3.5450    0.0000 H   0  0  0  0  0  0  0  0  0  0  0  0
    3.3601   -2.1850    0.0000 H   0  0  0  0  0  0  0  0  0  0  0  0
    2.6890   -1.7475    0.0000 H   0  0  0  0  0  0  0  0  0  0  0  0
    4.4990    0.1225    0.0000 H   0  0  0  0  0  0  0  0  0  0  0  0
    2.6458    0.1225    0.0000 H   0  0  0  0  0  0  0  0  0  0  0  0
    3.5724    0.6575    0.0000 H   0  0  0  0  0  0  0  0  0  0  0  0
    2.7323   -2.4025    0.0000 H   0  0  0  0  0  0  0  0  0  0  0  0
    5.7158   -3.0550    0.0000 H   0  0  0  0  0  0  0  0  0  0  0  0
    5.5035   -3.1775    0.0000 H   0  0  0  0  0  0  0  0  0  0  0  0
    8.0713   -3.5900    0.0000 H   0  0  0  0  0  0  0  0  0  0  0  0
    8.0713   -4.6600    0.0000 H   0  0  0  0  0  0  0  0  0  0  0  0
    8.0713   -4.4150    0.0000 H   0  0  0  0  0  0  0  0  0  0  0  0
    7.3568   -5.8975    0.0000 H   0  0  0  0  0  0  0  0  0  0  0  0
    5.7158   -6.0200    0.0000 H   0  0  0  0  0  0  0  0  0  0  0  0
    4.1613   -4.8775    0.0000 H   0  0  0  0  0  0  0  0  0  0  0  0
    6.6425   -7.1350    0.0000 H   0  0  0  0  0  0  0  0  0  0  0  0
    6.6425   -6.8900    0.0000 H   0  0  0  0  0  0  0  0  0  0  0  0
    5.0013   -8.9075    0.0000 H   0  0  0  0  0  0  0  0  0  0  0  0
    4.0747   -8.3725    0.0000 H   0  0  0  0  0  0  0  0  0  0  0  0
    3.3602   -7.9600    0.0000 H   0  0  0  0  0  0  0  0  0  0  0  0
    3.3602   -6.8900    0.0000 H   0  0  0  0  0  0  0  0  0  0  0  0
    3.3601   -7.1350    0.0000 H   0  0  0  0  0  0  0  0  0  0  0  0
    2.6457   -6.7225    0.0000 H   0  0  0  0  0  0  0  0  0  0  0  0
    2.6458   -5.6525    0.0000 H   0  0  0  0  0  0  0  0  0  0  0  0
    2.6890   -4.8525    0.0000 H   0  0  0  0  0  0  0  0  0  0  0  0
    5.2135   -5.4850    0.0000 H   0  0  0  0  0  0  0  0  0  0  0  0
    4.2868   -3.8800    0.0000 H   0  0  0  0  0  0  0  0  0  0  0  0
    5.2134   -4.4150    0.0000 H   0  0  0  0  0  0  0  0  0  0  0  0
    6.4302   -8.8575    0.0000 H   0  0  0  0  0  0  0  0  0  0  0  0
    7.3136   -7.3275    0.0000 H   0  0  0  0  0  0  0  0  0  0  0  0
    7.8592   -6.3825    0.0000 H   0  0  0  0  0  0  0  0  0  0  0  0
    8.7425   -4.8525    0.0000 H   0  0  0  0  0  0  0  0  0  0  0  0
    7.3135   -2.3775    0.0000 H   0  0  0  0  0  0  0  0  0  0  0  0
    5.5469   -2.3775    0.0000 H   0  0  0  0  0  0  0  0  0  0  0  0
    6.4869   -0.7739    0.0000 H   0  0  0  0  0  0  0  0  0  0  0  0
  1 33  1  0  0  0  0
  1 34  1  0  0  0  0
  1 35  1  0  0  0  0
  2  1  1  0  0  0  0
  2  3  1  0  0  0  0
  2  7  1  0  0  0  0
  2 32  1  1  0  0  0
  3  4  1  0  0  0  0
  3 36  1  0  0  0  0
  3 37  1  0  0  0  0
  4  5  1  0  0  0  0
  5  6  1  0  0  0  0
  5 11  1  0  0  0  0
  5 38  1  1  0  0  0
  6  7  1  0  0  0  0
  6 10  1  0  0  0  0
  6 39  1  1  0  0  0
  7  8  1  0  0  0  0
  7 40  1  6  0  0  0
  8  9  1  0  0  0  0
  8 41  1  0  0  0  0
  9 42  1  0  0  0  0
  9 43  1  0  0  0  0
  9 44  1  0  0  0  0
 10 45  1  0  0  0  0
 12 11  1  0  0  0  0
 12 13  1  0  0  0  0
 12 17  1  0  0  0  0
 12 46  1  6  0  0  0
 13 14  1  0  0  0  0
 13 31  1  0  0  0  0
 13 47  1  1  0  0  0
 14 15  1  0  0  0  0
 14 48  1  0  0  0  0
 14 49  1  0  0  0  0
 15 16  1  0  0  0  0
 15 30  1  0  0  0  0
 15 50  1  1  0  0  0
 16 17  1  0  0  0  0
 16 19  1  0  0  0  0
 16 51  1  6  0  0  0
 17 18  1  0  0  0  0
 17 52  1  1  0  0  0
 18 53  1  0  0  0  0
 20 19  1  0  0  0  0
 20 21  1  0  0  0  0
 20 25  1  0  0  0  0
 20 54  1  1  0  0  0
 21 22  1  0  0  0  0
 21 29  1  0  0  0  0
 21 55  1  1  0  0  0
 22 23  1  0  0  0  0
 22 56  1  0  0  0  0
 22 57  1  0  0  0  0
 23 24  1  0  0  0  0
 23 58  1  0  0  0  0
 23 59  1  0  0  0  0
 24 25  1  0  0  0  0
 24 26  1  0  0  0  0
 24 60  1  6  0  0  0
 26 27  1  0  0  0  0
 26 61  1  0  0  0  0
 26 62  1  0  0  0  0
 27 28  1  0  0  0  0
 27 63  1  0  0  0  0
 28 64  1  0  0  0  0
 28 65  1  0  0  0  0
 28 66  1  0  0  0  0
 29 67  1  0  0  0  0
 29 68  1  0  0  0  0
 30 69  1  0  0  0  0
 30 70  1  0  0  0  0
 31 71  1  0  0  0  0
 31 72  1  0  0  0  0
 32 73  1  0  0  0  0
M  END
>  <DRUGBANK_ID>
DB13274

>  <COMMON_NAME>
Micronomicin

>  <CAS_NUMBER>
52093-21-7

>  <UNII>
S9AZ0R40QV

>  <SYNONYMS>
Micronomicin

$$$$
