
 OpenBabel10282417072D

 68 69  0  0  0  0  0  0  0  0999 V2000
   -2.2715    2.5424    0.0000 C   0  0  0  0  0  0  0  0  0  0  0  0
   -2.8649    3.1155    0.0000 C   0  0  0  0  0  0  0  0  0  0  0  0
   -2.6653    3.9160    0.0000 C   0  0  0  0  0  0  0  0  0  0  0  0
   -1.8723    4.1434    0.0000 C   0  0  0  0  0  0  0  0  0  0  0  0
   -1.2049    4.6283    0.0000 C   0  0  0  0  0  0  0  0  0  0  0  0
   -0.4512    4.2927    0.0000 C   0  0  0  0  0  0  0  0  0  0  0  0
   -0.3649    3.4722    0.0000 C   0  0  0  0  0  0  0  0  0  0  0  0
   -1.0324    2.9873    0.0000 C   0  0  0  0  0  0  0  0  0  0  0  0
   -1.7861    3.3229    0.0000 C   0  0  0  0  0  0  0  0  0  0  0  0
    0.3495    3.8847    0.0000 C   0  0  0  0  0  0  0  0  0  0  0  0
    0.9626    3.3327    0.0000 C   0  0  0  0  0  0  0  0  0  0  0  0
    0.6271    2.5790    0.0000 N   0  0  0  0  0  0  0  0  0  0  0  0
   -0.1934    2.6653    0.0000 C   0  0  0  0  0  0  0  0  0  0  0  0
    1.0396    1.8646    0.0000 C   0  0  0  0  0  0  0  0  0  0  0  0
    1.8646    1.8646    0.0000 C   0  0  0  0  0  0  0  0  0  0  0  0
    2.2771    1.1501    0.0000 C   0  0  0  0  0  0  0  0  0  0  0  0
    3.1021    1.1501    0.0000 N   0  0  0  0  0  0  0  0  0  0  0  0
    3.5146    0.4356    0.0000 C   0  0  0  0  0  0  0  0  0  0  0  0
    4.3396    0.4356    0.0000 C   0  0  0  0  0  0  0  0  0  0  0  0
    3.5146    1.8646    0.0000 C   0  0  0  0  0  0  0  0  0  0  0  0
    4.3396    1.8646    0.0000 C   0  0  0  0  0  0  0  0  0  0  0  0
   -2.2340    4.8849    0.0000 C   0  0  0  0  0  0  0  0  0  0  0  0
   -3.0569    4.9424    0.0000 C   0  0  0  0  0  0  0  0  0  0  0  0
   -3.5183    4.2585    0.0000 C   0  0  0  0  0  0  0  0  0  0  0  0
   -2.5304    1.5042    0.0000 H   0  0  0  0  0  0  0  0  0  0  0  0
   -1.2429    2.8373    0.0000 H   0  0  0  0  0  0  0  0  0  0  0  0
   -1.5018    1.7991    0.0000 H   0  0  0  0  0  0  0  0  0  0  0  0
   -3.8935    2.8206    0.0000 H   0  0  0  0  0  0  0  0  0  0  0  0
   -3.6346    3.8588    0.0000 H   0  0  0  0  0  0  0  0  0  0  0  0
   -3.4350    4.6593    0.0000 H   0  0  0  0  0  0  0  0  0  0  0  0
   -2.4064    4.9542    0.0000 H   0  0  0  0  0  0  0  0  0  0  0  0
   -1.3167    5.6924    0.0000 H   0  0  0  0  0  0  0  0  0  0  0  0
   -0.3392    5.2572    0.0000 H   0  0  0  0  0  0  0  0  0  0  0  0
    0.4144    4.9216    0.0000 H   0  0  0  0  0  0  0  0  0  0  0  0
    0.5263    3.8575    0.0000 H   0  0  0  0  0  0  0  0  0  0  0  0
   -0.9206    1.9232    0.0000 H   0  0  0  0  0  0  0  0  0  0  0  0
   -1.8981    2.3584    0.0000 H   0  0  0  0  0  0  0  0  0  0  0  0
   -2.6518    2.6940    0.0000 H   0  0  0  0  0  0  0  0  0  0  0  0
   -2.7636    3.7582    0.0000 H   0  0  0  0  0  0  0  0  0  0  0  0
    0.4613    4.9488    0.0000 H   0  0  0  0  0  0  0  0  0  0  0  0
    1.3484    4.2682    0.0000 H   0  0  0  0  0  0  0  0  0  0  0  0
    2.0092    3.5552    0.0000 H   0  0  0  0  0  0  0  0  0  0  0  0
    1.6360    2.5012    0.0000 H   0  0  0  0  0  0  0  0  0  0  0  0
   -0.9094    1.8702    0.0000 H   0  0  0  0  0  0  0  0  0  0  0  0
   -1.2269    2.9423    0.0000 H   0  0  0  0  0  0  0  0  0  0  0  0
    0.5046    0.9379    0.0000 H   0  0  0  0  0  0  0  0  0  0  0  0
    1.5746    0.9380    0.0000 H   0  0  0  0  0  0  0  0  0  0  0  0
    2.3996    2.7912    0.0000 H   0  0  0  0  0  0  0  0  0  0  0  0
    2.9346    1.8646    0.0000 H   0  0  0  0  0  0  0  0  0  0  0  0
    1.7421    0.2235    0.0000 H   0  0  0  0  0  0  0  0  0  0  0  0
    2.8121    0.2235    0.0000 H   0  0  0  0  0  0  0  0  0  0  0  0
    2.9796   -0.4910    0.0000 H   0  0  0  0  0  0  0  0  0  0  0  0
    4.0496   -0.4910    0.0000 H   0  0  0  0  0  0  0  0  0  0  0  0
    4.8746   -0.4910    0.0000 H   0  0  0  0  0  0  0  0  0  0  0  0
    4.8746    1.3622    0.0000 H   0  0  0  0  0  0  0  0  0  0  0  0
    5.4096    0.4356    0.0000 H   0  0  0  0  0  0  0  0  0  0  0  0
    2.9796    2.7912    0.0000 H   0  0  0  0  0  0  0  0  0  0  0  0
    4.0496    2.7912    0.0000 H   0  0  0  0  0  0  0  0  0  0  0  0
    4.8746    0.9380    0.0000 H   0  0  0  0  0  0  0  0  0  0  0  0
    4.8746    2.7912    0.0000 H   0  0  0  0  0  0  0  0  0  0  0  0
    5.4096    1.8646    0.0000 H   0  0  0  0  0  0  0  0  0  0  0  0
   -1.6357    5.7720    0.0000 H   0  0  0  0  0  0  0  0  0  0  0  0
   -2.7031    5.8466    0.0000 H   0  0  0  0  0  0  0  0  0  0  0  0
   -3.5259    5.9041    0.0000 H   0  0  0  0  0  0  0  0  0  0  0  0
   -4.1243    5.0171    0.0000 H   0  0  0  0  0  0  0  0  0  0  0  0
   -4.5857    4.3333    0.0000 H   0  0  0  0  0  0  0  0  0  0  0  0
   -3.0493    3.2967    0.0000 H   0  0  0  0  0  0  0  0  0  0  0  0
   -4.1167    3.3715    0.0000 H   0  0  0  0  0  0  0  0  0  0  0  0
  1  2  1  0  0  0  0
  1 25  1  0  0  0  0
  1 26  1  0  0  0  0
  1 27  1  0  0  0  0
  2  3  1  0  0  0  0
  2 28  1  0  0  0  0
  2 29  1  0  0  0  0
  3  4  1  0  0  0  0
  3 30  1  0  0  0  0
  3 31  1  0  0  0  0
  4  5  1  0  0  0  0
  4  9  1  0  0  0  0
  4 22  1  0  0  0  0
  5  6  1  0  0  0  0
  5 32  1  0  0  0  0
  5 33  1  0  0  0  0
  6  7  1  0  0  0  0
  6 34  1  0  0  0  0
  6 35  1  0  0  0  0
  7  8  1  0  0  0  0
  7 10  1  0  0  0  0
  7 13  1  0  0  0  0
  8  9  1  0  0  0  0
  8 36  1  0  0  0  0
  8 37  1  0  0  0  0
  9 38  1  0  0  0  0
  9 39  1  0  0  0  0
 10 11  1  0  0  0  0
 10 40  1  0  0  0  0
 10 41  1  0  0  0  0
 11 12  1  0  0  0  0
 11 42  1  0  0  0  0
 11 43  1  0  0  0  0
 12 13  1  0  0  0  0
 12 14  1  0  0  0  0
 13 44  1  0  0  0  0
 13 45  1  0  0  0  0
 14 15  1  0  0  0  0
 14 46  1  0  0  0  0
 14 47  1  0  0  0  0
 15 16  1  0  0  0  0
 15 48  1  0  0  0  0
 15 49  1  0  0  0  0
 16 17  1  0  0  0  0
 16 50  1  0  0  0  0
 16 51  1  0  0  0  0
 17 18  1  0  0  0  0
 17 20  1  0  0  0  0
 18 19  1  0  0  0  0
 18 52  1  0  0  0  0
 18 53  1  0  0  0  0
 19 54  1  0  0  0  0
 19 55  1  0  0  0  0
 19 56  1  0  0  0  0
 20 21  1  0  0  0  0
 20 57  1  0  0  0  0
 20 58  1  0  0  0  0
 21 59  1  0  0  0  0
 21 60  1  0  0  0  0
 21 61  1  0  0  0  0
 22 23  1  0  0  0  0
 22 62  1  0  0  0  0
 22 63  1  0  0  0  0
 23 24  1  0  0  0  0
 23 64  1  0  0  0  0
 23 65  1  0  0  0  0
 24 66  1  0  0  0  0
 24 67  1  0  0  0  0
 24 68  1  0  0  0  0
M  END
>  <DRUGBANK_ID>
DB05513

>  <COMMON_NAME>
Atiprimod

>  <CAS_NUMBER>
123018-47-3

>  <UNII>
MG7D3QD743

>  <SYNONYMS>
Atiprimod; Azaspirane; N,N-Diethyl-8,8-dipropyl-2-azaspiro(4.5)decane-2-propanamine

$$$$
