2T1
 OpenBabel10282417072D

 47 49  0  0  0  0  0  0  0  0999 V2000
    0.5017    0.2369    0.0000 N   0  0  0  0  0  0  0  0  0  0  0  0
    1.2162   -1.0006    0.0000 N   0  0  0  0  0  0  0  0  0  0  0  0
   -1.6417    2.2994    0.0000 C   0  0  0  0  0  0  0  0  0  0  0  0
   -2.3562    2.7119    0.0000 C   0  0  0  0  0  0  0  0  0  0  0  0
   -3.0706    2.2994    0.0000 C   0  0  0  0  0  0  0  0  0  0  0  0
   -0.9272    1.0619    0.0000 C   0  0  0  0  0  0  0  0  0  0  0  0
   -0.2127    1.4744    0.0000 C   0  0  0  0  0  0  0  0  0  0  0  0
   -0.2127   -0.1756    0.0000 C   0  0  0  0  0  0  0  0  0  0  0  0
    1.9307   -1.4131    0.0000 C   0  0  0  0  0  0  0  0  0  0  0  0
    1.9307   -2.2381    0.0000 C   0  0  0  0  0  0  0  0  0  0  0  0
    2.6451   -1.0006    0.0000 C   0  0  0  0  0  0  0  0  0  0  0  0
    1.2162   -2.6506    0.0000 C   0  0  0  0  0  0  0  0  0  0  0  0
    1.2162   -3.4756    0.0000 O   0  0  0  0  0  0  0  0  0  0  0  0
    0.5017   -2.2381    0.0000 O   0  0  0  0  0  0  0  0  0  0  0  0
    2.6451   -2.6506    0.0000 C   0  0  0  0  0  0  0  0  0  0  0  0
    3.3596   -2.2381    0.0000 C   0  0  0  0  0  0  0  0  0  0  0  0
    3.3596   -1.4131    0.0000 C   0  0  0  0  0  0  0  0  0  0  0  0
    1.2162   -0.1756    0.0000 C   0  0  0  0  0  0  0  0  0  0  0  0
    1.9307    0.2369    0.0000 O   0  0  0  0  0  0  0  0  0  0  0  0
   -0.9272    0.2369    0.0000 C   0  0  0  0  0  0  0  0  0  0  0  0
    0.5017    1.0619    0.0000 C   0  0  0  0  0  0  0  0  0  0  0  0
   -1.6417    1.4744    0.0000 C   0  0  0  0  0  0  0  0  0  0  0  0
   -2.3562    1.0619    0.0000 C   0  0  0  0  0  0  0  0  0  0  0  0
   -3.0706    1.4744    0.0000 C   0  0  0  0  0  0  0  0  0  0  0  0
   -0.9272    2.7119    0.0000 C   0  0  0  0  0  0  0  0  0  0  0  0
   -1.3397    3.4264    0.0000 F   0  0  0  0  0  0  0  0  0  0  0  0
   -0.5147    1.9975    0.0000 F   0  0  0  0  0  0  0  0  0  0  0  0
   -0.2127    3.1244    0.0000 F   0  0  0  0  0  0  0  0  0  0  0  0
    0.3636   -1.4929    0.0000 H   0  0  0  0  0  0  0  0  0  0  0  0
   -2.3562    3.7439    0.0000 H   0  0  0  0  0  0  0  0  0  0  0  0
   -3.9643    2.8154    0.0000 H   0  0  0  0  0  0  0  0  0  0  0  0
   -0.9272    2.1319    0.0000 H   0  0  0  0  0  0  0  0  0  0  0  0
   -0.2127    2.5444    0.0000 H   0  0  0  0  0  0  0  0  0  0  0  0
    0.7140    2.0094    0.0000 H   0  0  0  0  0  0  0  0  0  0  0  0
   -0.2127   -1.2456    0.0000 H   0  0  0  0  0  0  0  0  0  0  0  0
   -1.1393   -0.7106    0.0000 H   0  0  0  0  0  0  0  0  0  0  0  0
    2.6451    0.0314    0.0000 H   0  0  0  0  0  0  0  0  0  0  0  0
    0.4047   -3.9441    0.0000 H   0  0  0  0  0  0  0  0  0  0  0  0
    2.6451   -3.6826    0.0000 H   0  0  0  0  0  0  0  0  0  0  0  0
    4.2533   -2.7541    0.0000 H   0  0  0  0  0  0  0  0  0  0  0  0
    4.2533   -0.8971    0.0000 H   0  0  0  0  0  0  0  0  0  0  0  0
   -1.8538   -0.2981    0.0000 H   0  0  0  0  0  0  0  0  0  0  0  0
   -0.9272   -0.8331    0.0000 H   0  0  0  0  0  0  0  0  0  0  0  0
    1.4284    1.5969    0.0000 H   0  0  0  0  0  0  0  0  0  0  0  0
    1.4283    0.5269    0.0000 H   0  0  0  0  0  0  0  0  0  0  0  0
   -2.3562    0.0299    0.0000 H   0  0  0  0  0  0  0  0  0  0  0  0
   -3.9643    0.9584    0.0000 H   0  0  0  0  0  0  0  0  0  0  0  0
  1  8  1  0  0  0  0
  2 18  1  0  0  0  0
  2 29  1  0  0  0  0
  3 25  1  0  0  0  0
  4  3  1  0  0  0  0
  4 30  1  0  0  0  0
  5  4  2  0  0  0  0
  5 31  1  0  0  0  0
  6 20  1  0  0  0  0
  6 32  1  0  0  0  0
  7  6  1  0  0  0  0
  7 21  1  0  0  0  0
  7 33  1  0  0  0  0
  7 34  1  0  0  0  0
  8 35  1  0  0  0  0
  8 36  1  0  0  0  0
  9  2  1  0  0  0  0
  9 11  1  0  0  0  0
 10  9  2  0  0  0  0
 11 37  1  0  0  0  0
 12 10  1  0  0  0  0
 12 13  1  0  0  0  0
 13 38  1  0  0  0  0
 14 12  2  0  0  0  0
 15 10  1  0  0  0  0
 15 16  2  0  0  0  0
 15 39  1  0  0  0  0
 16 17  1  0  0  0  0
 16 40  1  0  0  0  0
 17 11  2  0  0  0  0
 17 41  1  0  0  0  0
 18  1  1  0  0  0  0
 18 19  2  0  0  0  0
 20  8  1  0  0  0  0
 20 42  1  0  0  0  0
 20 43  1  0  0  0  0
 21  1  1  0  0  0  0
 21 44  1  0  0  0  0
 21 45  1  0  0  0  0
 22  3  2  0  0  0  0
 22  6  1  0  0  0  0
 23 22  1  0  0  0  0
 23 46  1  0  0  0  0
 24  5  1  0  0  0  0
 24 23  2  0  0  0  0
 24 47  1  0  0  0  0
 25 28  1  0  0  0  0
 25 27  1  0  0  0  0
 26 25  1  0  0  0  0
M  END
>  <DRUGBANK_ID>
DB06985

>  <COMMON_NAME>
2-[({4-[2-(trifluoromethyl)phenyl]piperidin-1-yl}carbonyl)amino]benzoic acid

$$$$
