
 OpenBabel10282417072D

 16 15  0  0  0  0  0  0  0  0999 V2000
   -1.0717   -0.2062    0.0000 C   0  0  0  0  0  0  0  0  0  0  0  0
   -0.3572    0.2062    0.0000 C   0  0  1  0  0  0  0  0  0  0  0  0
    1.0717    0.2063    0.0000 C   0  0  0  0  0  0  0  0  0  0  0  0
    0.3572   -0.2062    0.0000 C   0  0  2  0  0  0  0  0  0  0  0  0
    1.7862   -0.2061    0.0000 O   0  0  0  0  0  0  0  0  0  0  0  0
   -1.7862    0.2062    0.0000 O   0  0  0  0  0  0  0  0  0  0  0  0
    1.0717    1.0312    0.0000 O   0  0  0  0  0  0  0  0  0  0  0  0
   -1.0717   -1.0312    0.0000 O   0  0  0  0  0  0  0  0  0  0  0  0
    0.3572   -1.0312    0.0000 O   0  0  0  0  0  0  0  0  0  0  0  0
   -0.3572    1.0312    0.0000 O   0  0  0  0  0  0  0  0  0  0  0  0
   -1.2838    0.7413    0.0000 H   0  0  0  0  0  0  0  0  0  0  0  0
   -0.5694   -0.7412    0.0000 H   0  0  0  0  0  0  0  0  0  0  0  0
    1.7863   -1.1431    0.0000 H   0  0  0  0  0  0  0  0  0  0  0  0
   -1.7863    1.1432    0.0000 H   0  0  0  0  0  0  0  0  0  0  0  0
   -0.4828   -1.5162    0.0000 H   0  0  0  0  0  0  0  0  0  0  0  0
    0.4828    1.5162    0.0000 H   0  0  0  0  0  0  0  0  0  0  0  0
  1  2  1  0  0  0  0
  2 10  1  0  0  0  0
  2  4  1  0  0  0  0
  2 11  1  1  0  0  0
  4  3  1  0  0  0  0
  4  9  1  0  0  0  0
  4 12  1  1  0  0  0
  5  3  1  0  0  0  0
  5 13  1  0  0  0  0
  6  1  1  0  0  0  0
  6 14  1  0  0  0  0
  7  3  2  0  0  0  0
  8  1  2  0  0  0  0
  9 15  1  0  0  0  0
 10 16  1  0  0  0  0
M  END
>  <DRUGBANK_ID>
DB09459

>  <COMMON_NAME>
L-tartaric acid

>  <CAS_NUMBER>
87-69-4

>  <UNII>
W4888I119H

>  <SYNONYMS>
(+)-(R,R)-tartaric acid; (+)-L-tartaric acid; (+)-Tartaric acid; (+)-Weinsäure; (2R,3R)-2,3-Dihydroxybernsteinsäure; (2R,3R)-2,3-dihydroxysuccinic acid; (2R,3R)-Tartaric acid; (R,R)-(+)-tartaric acid; (R,R)-Tartaric acid; ácido tartárico; L-threaric acid; Rechtsweinsäure; Tartaric acid; Weinsteinsäure

$$$$
