
 OpenBabel10282417072D

 54 57  0  0  0  0  0  0  0  0999 V2000
   -0.4884   -0.1783    0.0000 C   0  0  1  0  0  0  0  0  0  0  0  0
    0.2294   -0.5749    0.0000 C   0  0  2  0  0  0  0  0  0  0  0  0
   -1.1850   -0.5891    0.0000 C   0  0  2  0  0  0  0  0  0  0  0  0
   -0.4871    0.6467    0.0000 C   0  0  0  0  0  0  0  0  0  0  0  0
    0.9311   -0.1510    0.0000 C   0  0  1  0  0  0  0  0  0  0  0  0
    0.2431   -1.4040    0.0000 C   0  0  0  0  0  0  0  0  0  0  0  0
   -1.1885   -1.4056    0.0000 C   0  0  0  0  0  0  0  0  0  0  0  0
   -1.9111   -0.1824    0.0000 C   0  0  0  0  0  0  0  0  0  0  0  0
   -1.1901    0.2472    0.0000 C   0  0  0  0  0  0  0  0  0  0  0  0
    0.1935    1.0633    0.0000 C   0  0  0  0  0  0  0  0  0  0  0  0
    0.9327    0.6690    0.0000 C   0  0  2  0  0  0  0  0  0  0  0  0
    1.7245   -0.3839    0.0000 C   0  0  0  0  0  0  0  0  0  0  0  0
   -0.4852   -1.8253    0.0000 C   0  0  0  0  0  0  0  0  0  0  0  0
   -1.9086   -1.8371    0.0000 C   0  0  0  0  0  0  0  0  0  0  0  0
   -2.6332   -0.5926    0.0000 C   0  0  0  0  0  0  0  0  0  0  0  0
    1.7056    0.9322    0.0000 C   0  0  2  0  0  0  0  0  0  0  0  0
    0.9133    1.4950    0.0000 C   0  0  0  0  0  0  0  0  0  0  0  0
    2.1855    0.2775    0.0000 C   0  0  0  0  0  0  0  0  0  0  0  0
   -2.6332   -1.4419    0.0000 C   0  0  0  0  0  0  0  0  0  0  0  0
   -1.9069   -2.6630    0.0000 Cl  0  0  0  0  0  0  0  0  0  0  0  0
    1.9826    1.7229    0.0000 O   0  0  0  0  0  0  0  0  0  0  0  0
   -3.3411   -1.8769    0.0000 O   0  0  0  0  0  0  0  0  0  0  0  0
    2.7822    1.8906    0.0000 C   0  0  0  0  0  0  0  0  0  0  0  0
    3.3411    1.2959    0.0000 C   0  0  0  0  0  0  0  0  0  0  0  0
    3.0269    2.6630    0.0000 O   0  0  0  0  0  0  0  0  0  0  0  0
   -0.4723   -0.9987    0.0000 H   0  0  0  0  0  0  0  0  0  0  0  0
    0.2242    0.2440    0.0000 H   0  0  0  0  0  0  0  0  0  0  0  0
    0.8253   -0.9602    0.0000 H   0  0  0  0  0  0  0  0  0  0  0  0
   -1.4201    1.1705    0.0000 H   0  0  0  0  0  0  0  0  0  0  0  0
   -0.5073    1.7165    0.0000 H   0  0  0  0  0  0  0  0  0  0  0  0
    1.1744   -1.9309    0.0000 H   0  0  0  0  0  0  0  0  0  0  0  0
    0.2482   -2.4740    0.0000 H   0  0  0  0  0  0  0  0  0  0  0  0
   -1.9143    0.8876    0.0000 H   0  0  0  0  0  0  0  0  0  0  0  0
   -2.8367    0.3544    0.0000 H   0  0  0  0  0  0  0  0  0  0  0  0
   -0.2667    0.7878    0.0000 H   0  0  0  0  0  0  0  0  0  0  0  0
   -2.1200    0.7765    0.0000 H   0  0  0  0  0  0  0  0  0  0  0  0
   -1.1966    1.3172    0.0000 H   0  0  0  0  0  0  0  0  0  0  0  0
    0.1618    2.1328    0.0000 H   0  0  0  0  0  0  0  0  0  0  0  0
    1.1028    1.6273    0.0000 H   0  0  0  0  0  0  0  0  0  0  0  0
    2.0796   -1.3933    0.0000 H   0  0  0  0  0  0  0  0  0  0  0  0
    2.7847   -0.5281    0.0000 H   0  0  0  0  0  0  0  0  0  0  0  0
   -0.4925   -2.8953    0.0000 H   0  0  0  0  0  0  0  0  0  0  0  0
   -1.4175   -2.3504    0.0000 H   0  0  0  0  0  0  0  0  0  0  0  0
   -3.5580   -0.0544    0.0000 H   0  0  0  0  0  0  0  0  0  0  0  0
   -3.5608   -1.1260    0.0000 H   0  0  0  0  0  0  0  0  0  0  0  0
    0.9523    1.6921    0.0000 H   0  0  0  0  0  0  0  0  0  0  0  0
    1.8271    2.0516    0.0000 H   0  0  0  0  0  0  0  0  0  0  0  0
   -0.0257    2.0081    0.0000 H   0  0  0  0  0  0  0  0  0  0  0  0
    0.8882    2.5647    0.0000 H   0  0  0  0  0  0  0  0  0  0  0  0
    3.2554    0.2902    0.0000 H   0  0  0  0  0  0  0  0  0  0  0  0
    2.6636    1.2348    0.0000 H   0  0  0  0  0  0  0  0  0  0  0  0
    3.0322    0.2714    0.0000 H   0  0  0  0  0  0  0  0  0  0  0  0
    4.3827    1.5406    0.0000 H   0  0  0  0  0  0  0  0  0  0  0  0
    4.0739    0.5162    0.0000 H   0  0  0  0  0  0  0  0  0  0  0  0
  1  2  1  0  0  0  0
  1  3  1  0  0  0  0
  1  4  1  0  0  0  0
  1 26  1  6  0  0  0
  2  5  1  0  0  0  0
  2  6  1  0  0  0  0
  2 27  1  1  0  0  0
  3  7  1  0  0  0  0
  3  8  1  0  0  0  0
  3  9  1  1  0  0  0
  4 10  1  0  0  0  0
  4 29  1  0  0  0  0
  4 30  1  0  0  0  0
  5 11  1  0  0  0  0
  5 12  1  0  0  0  0
  5 28  1  6  0  0  0
  6 13  1  0  0  0  0
  6 31  1  0  0  0  0
  6 32  1  0  0  0  0
  7 14  2  0  0  0  0
  7 13  1  0  0  0  0
  8 15  1  0  0  0  0
  8 33  1  0  0  0  0
  8 34  1  0  0  0  0
  9 35  1  0  0  0  0
  9 36  1  0  0  0  0
  9 37  1  0  0  0  0
 10 11  1  0  0  0  0
 10 38  1  0  0  0  0
 10 39  1  0  0  0  0
 11 16  1  0  0  0  0
 11 17  1  1  0  0  0
 12 18  1  0  0  0  0
 12 40  1  0  0  0  0
 12 41  1  0  0  0  0
 13 42  1  0  0  0  0
 13 43  1  0  0  0  0
 14 19  1  0  0  0  0
 14 20  1  0  0  0  0
 15 19  1  0  0  0  0
 15 44  1  0  0  0  0
 15 45  1  0  0  0  0
 16 21  1  0  0  0  0
 16 18  1  0  0  0  0
 16 46  1  6  0  0  0
 17 47  1  0  0  0  0
 17 48  1  0  0  0  0
 17 49  1  0  0  0  0
 18 50  1  0  0  0  0
 18 51  1  0  0  0  0
 19 22  2  0  0  0  0
 21 23  1  0  0  0  0
 23 24  1  0  0  0  0
 23 25  2  0  0  0  0
 24 52  1  0  0  0  0
 24 53  1  0  0  0  0
 24 54  1  0  0  0  0
M  END
>  <DRUGBANK_ID>
DB15984

>  <COMMON_NAME>
Clostebol acetate

>  <CAS_NUMBER>
855-19-6

>  <UNII>
780ZZX4P14

>  <SYNONYMS>
4-Chlorotestosterone acetate; Chlorotestosterone acetate; Clostebol acetate

$$$$
