3DH
 OpenBabel10282417072D

 38 40  0  0  0  0  0  0  0  0999 V2000
   -1.5966   -3.2393    0.0000 C   0  0  0  0  0  0  0  0  0  0  0  0
   -1.6829   -2.4188    0.0000 C   0  0  0  0  0  0  0  0  0  0  0  0
   -1.0154   -1.9339    0.0000 S   0  0  0  0  0  0  0  0  0  0  0  0
   -1.1017   -1.1134    0.0000 C   0  0  0  0  0  0  0  0  0  0  0  0
   -0.4342   -0.6285    0.0000 C   0  0  1  0  0  0  0  0  0  0  0  0
   -0.4342    0.1965    0.0000 O   0  0  0  0  0  0  0  0  0  0  0  0
    0.3504   -0.8834    0.0000 C   0  0  1  0  0  0  0  0  0  0  0  0
    0.6053   -1.6681    0.0000 O   0  0  0  0  0  0  0  0  0  0  0  0
    0.8353   -0.2160    0.0000 C   0  0  1  0  0  0  0  0  0  0  0  0
    1.6603   -0.2160    0.0000 O   0  0  0  0  0  0  0  0  0  0  0  0
    0.3504    0.4514    0.0000 C   0  0  2  0  0  0  0  0  0  0  0  0
    0.6053    1.2361    0.0000 N   0  0  0  0  0  0  0  0  0  0  0  0
    0.1204    1.9035    0.0000 C   0  0  0  0  0  0  0  0  0  0  0  0
    0.6053    2.5709    0.0000 N   0  0  0  0  0  0  0  0  0  0  0  0
    1.3900    2.3160    0.0000 C   0  0  0  0  0  0  0  0  0  0  0  0
    1.3900    1.4910    0.0000 C   0  0  0  0  0  0  0  0  0  0  0  0
    2.1044    1.0785    0.0000 N   0  0  0  0  0  0  0  0  0  0  0  0
    2.8189    1.4910    0.0000 C   0  0  0  0  0  0  0  0  0  0  0  0
    2.8189    2.3160    0.0000 N   0  0  0  0  0  0  0  0  0  0  0  0
    2.1044    2.7285    0.0000 C   0  0  0  0  0  0  0  0  0  0  0  0
    2.1044    3.5535    0.0000 N   0  0  0  0  0  0  0  0  0  0  0  0
   -0.9545   -0.3634    0.0000 H   0  0  0  0  0  0  0  0  0  0  0  0
   -0.0625   -1.2963    0.0000 H   0  0  0  0  0  0  0  0  0  0  0  0
    1.1004   -0.7363    0.0000 H   0  0  0  0  0  0  0  0  0  0  0  0
   -0.0625    0.8643    0.0000 H   0  0  0  0  0  0  0  0  0  0  0  0
   -2.4622   -3.8683    0.0000 H   0  0  0  0  0  0  0  0  0  0  0  0
   -0.6191   -3.6744    0.0000 H   0  0  0  0  0  0  0  0  0  0  0  0
   -1.4847   -4.3034    0.0000 H   0  0  0  0  0  0  0  0  0  0  0  0
   -2.6604   -1.9836    0.0000 H   0  0  0  0  0  0  0  0  0  0  0  0
   -1.7947   -1.3547    0.0000 H   0  0  0  0  0  0  0  0  0  0  0  0
   -2.0792   -0.6782    0.0000 H   0  0  0  0  0  0  0  0  0  0  0  0
   -1.2135   -0.0493    0.0000 H   0  0  0  0  0  0  0  0  0  0  0  0
   -0.0438   -2.3889    0.0000 H   0  0  0  0  0  0  0  0  0  0  0  0
    2.1453   -1.0560    0.0000 H   0  0  0  0  0  0  0  0  0  0  0  0
   -0.9116    1.9035    0.0000 H   0  0  0  0  0  0  0  0  0  0  0  0
    3.7126    0.9750    0.0000 H   0  0  0  0  0  0  0  0  0  0  0  0
    2.9570    4.0457    0.0000 H   0  0  0  0  0  0  0  0  0  0  0  0
    1.2518    4.0457    0.0000 H   0  0  0  0  0  0  0  0  0  0  0  0
  1 26  1  0  0  0  0
  1 27  1  0  0  0  0
  1 28  1  0  0  0  0
  2  1  1  0  0  0  0
  2  3  1  0  0  0  0
  2 29  1  0  0  0  0
  2 30  1  0  0  0  0
  4  3  1  0  0  0  0
  4 31  1  0  0  0  0
  4 32  1  0  0  0  0
  5  4  1  0  0  0  0
  5  6  1  0  0  0  0
  5 22  1  6  0  0  0
  6 11  1  0  0  0  0
  7  5  1  0  0  0  0
  7  9  1  0  0  0  0
  7 23  1  1  0  0  0
  7  8  1  0  0  0  0
  8 33  1  0  0  0  0
  9 10  1  0  0  0  0
  9 11  1  0  0  0  0
  9 24  1  1  0  0  0
 10 34  1  0  0  0  0
 11 12  1  0  0  0  0
 11 25  1  6  0  0  0
 12 16  1  0  0  0  0
 13 12  1  0  0  0  0
 13 14  2  0  0  0  0
 13 35  1  0  0  0  0
 14 15  1  0  0  0  0
 15 20  1  0  0  0  0
 16 15  2  0  0  0  0
 16 17  1  0  0  0  0
 17 18  2  0  0  0  0
 18 19  1  0  0  0  0
 18 36  1  0  0  0  0
 20 19  2  0  0  0  0
 20 21  1  0  0  0  0
 21 37  1  0  0  0  0
 21 38  1  0  0  0  0
M  END
>  <DRUGBANK_ID>
DB07052

>  <COMMON_NAME>
5'-S-ethyl-5'-thioadenosine

$$$$
