
 OpenBabel10282417072D

 54 55  0  0  0  0  0  0  0  0999 V2000
   -0.7145   -2.0625    0.0000 C   0  0  0  0  0  0  0  0  0  0  0  0
   -1.4289   -2.4750    0.0000 O   0  0  0  0  0  0  0  0  0  0  0  0
   -1.4289   -3.3000    0.0000 C   0  0  0  0  0  0  0  0  0  0  0  0
   -0.7145   -3.7125    0.0000 C   0  0  0  0  0  0  0  0  0  0  0  0
   -0.7145   -4.5375    0.0000 C   0  0  0  0  0  0  0  0  0  0  0  0
   -1.4289   -4.9500    0.0000 C   0  0  0  0  0  0  0  0  0  0  0  0
   -2.1434   -4.5375    0.0000 C   0  0  0  0  0  0  0  0  0  0  0  0
   -2.1434   -3.7125    0.0000 C   0  0  0  0  0  0  0  0  0  0  0  0
   -2.8579   -3.3000    0.0000 O   0  0  0  0  0  0  0  0  0  0  0  0
   -2.8579   -2.4750    0.0000 P   0  0  0  0  0  0  0  0  0  0  0  0
   -3.6829   -2.4750    0.0000 O   0  0  0  0  0  0  0  0  0  0  0  0
   -2.8579   -1.6500    0.0000 O   0  0  0  0  0  0  0  0  0  0  0  0
   -2.0329   -2.4750    0.0000 O   0  0  0  0  0  0  0  0  0  0  0  0
   -1.4289   -5.7750    0.0000 C   0  0  0  0  0  0  0  0  0  0  0  0
   -0.7145   -6.1875    0.0000 S   0  0  0  0  0  0  0  0  0  0  0  0
   -1.1270   -6.9020    0.0000 O   0  0  0  0  0  0  0  0  0  0  0  0
   -0.3020   -5.4730    0.0000 O   0  0  0  0  0  0  0  0  0  0  0  0
   -0.0000   -6.6000    0.0000 C   0  0  0  0  0  0  0  0  0  0  0  0
   -0.0000   -7.4250    0.0000 C   0  0  0  0  0  0  0  0  0  0  0  0
    0.7145   -7.8375    0.0000 C   0  0  0  0  0  0  0  0  0  0  0  0
    1.4289   -7.4250    0.0000 C   0  0  0  0  0  0  0  0  0  0  0  0
    2.1434   -7.8375    0.0000 C   0  0  0  0  0  0  0  0  0  0  0  0
    2.1434   -8.6625    0.0000 C   0  0  0  0  0  0  0  0  0  0  0  0
    1.4289   -9.0750    0.0000 C   0  0  0  0  0  0  0  0  0  0  0  0
    0.7145   -8.6625    0.0000 C   0  0  0  0  0  0  0  0  0  0  0  0
   -0.0000   -9.0750    0.0000 O   0  0  0  0  0  0  0  0  0  0  0  0
   -0.7145   -8.6625    0.0000 C   0  0  0  0  0  0  0  0  0  0  0  0
    2.8579   -9.0750    0.0000 O   0  0  0  0  0  0  0  0  0  0  0  0
    3.5724   -8.6625    0.0000 C   0  0  0  0  0  0  0  0  0  0  0  0
    1.4289   -6.6000    0.0000 O   0  0  0  0  0  0  0  0  0  0  0  0
    2.1434   -6.1875    0.0000 C   0  0  0  0  0  0  0  0  0  0  0  0
    0.2122   -2.5975    0.0000 H   0  0  0  0  0  0  0  0  0  0  0  0
   -0.7145   -0.9925    0.0000 H   0  0  0  0  0  0  0  0  0  0  0  0
    0.2121   -1.5275    0.0000 H   0  0  0  0  0  0  0  0  0  0  0  0
    0.1792   -3.1965    0.0000 H   0  0  0  0  0  0  0  0  0  0  0  0
    0.1792   -5.0535    0.0000 H   0  0  0  0  0  0  0  0  0  0  0  0
   -3.0371   -5.0535    0.0000 H   0  0  0  0  0  0  0  0  0  0  0  0
   -2.0179   -1.1650    0.0000 H   0  0  0  0  0  0  0  0  0  0  0  0
   -1.5479   -3.3150    0.0000 H   0  0  0  0  0  0  0  0  0  0  0  0
   -2.3556   -6.3100    0.0000 H   0  0  0  0  0  0  0  0  0  0  0  0
   -1.4289   -6.8450    0.0000 H   0  0  0  0  0  0  0  0  0  0  0  0
    0.8937   -6.0840    0.0000 H   0  0  0  0  0  0  0  0  0  0  0  0
   -0.8937   -7.9410    0.0000 H   0  0  0  0  0  0  0  0  0  0  0  0
    3.0371   -7.3215    0.0000 H   0  0  0  0  0  0  0  0  0  0  0  0
    1.4289  -10.1070    0.0000 H   0  0  0  0  0  0  0  0  0  0  0  0
   -0.7145   -7.5925    0.0000 H   0  0  0  0  0  0  0  0  0  0  0  0
   -1.6411   -9.1975    0.0000 H   0  0  0  0  0  0  0  0  0  0  0  0
   -1.6412   -8.1275    0.0000 H   0  0  0  0  0  0  0  0  0  0  0  0
    4.4990   -9.1975    0.0000 H   0  0  0  0  0  0  0  0  0  0  0  0
    3.5724   -7.5925    0.0000 H   0  0  0  0  0  0  0  0  0  0  0  0
    4.4991   -8.1275    0.0000 H   0  0  0  0  0  0  0  0  0  0  0  0
    3.0700   -6.7225    0.0000 H   0  0  0  0  0  0  0  0  0  0  0  0
    2.1434   -5.1175    0.0000 H   0  0  0  0  0  0  0  0  0  0  0  0
    3.0701   -5.6525    0.0000 H   0  0  0  0  0  0  0  0  0  0  0  0
  1  2  1  0  0  0  0
  1 32  1  0  0  0  0
  1 33  1  0  0  0  0
  1 34  1  0  0  0  0
  2  3  1  0  0  0  0
  3  4  2  0  0  0  0
  3  8  1  0  0  0  0
  4  5  1  0  0  0  0
  4 35  1  0  0  0  0
  5  6  2  0  0  0  0
  5 36  1  0  0  0  0
  6  7  1  0  0  0  0
  6 14  1  0  0  0  0
  7  8  2  0  0  0  0
  7 37  1  0  0  0  0
  8  9  1  0  0  0  0
  9 10  1  0  0  0  0
 10 11  2  0  0  0  0
 10 12  1  0  0  0  0
 10 13  1  0  0  0  0
 12 38  1  0  0  0  0
 13 39  1  0  0  0  0
 14 15  1  0  0  0  0
 14 40  1  0  0  0  0
 14 41  1  0  0  0  0
 15 16  2  0  0  0  0
 15 17  2  0  0  0  0
 15 18  1  0  0  0  0
 18 19  2  0  0  0  0
 18 42  1  0  0  0  0
 19 20  1  0  0  0  0
 19 43  1  0  0  0  0
 20 21  2  0  0  0  0
 20 25  1  0  0  0  0
 21 22  1  0  0  0  0
 21 30  1  0  0  0  0
 22 23  2  0  0  0  0
 22 44  1  0  0  0  0
 23 24  1  0  0  0  0
 23 28  1  0  0  0  0
 24 25  2  0  0  0  0
 24 45  1  0  0  0  0
 25 26  1  0  0  0  0
 26 27  1  0  0  0  0
 27 46  1  0  0  0  0
 27 47  1  0  0  0  0
 27 48  1  0  0  0  0
 28 29  1  0  0  0  0
 29 49  1  0  0  0  0
 29 50  1  0  0  0  0
 29 51  1  0  0  0  0
 30 31  1  0  0  0  0
 31 52  1  0  0  0  0
 31 53  1  0  0  0  0
 31 54  1  0  0  0  0
M  END
>  <DRUGBANK_ID>
DB12004

>  <COMMON_NAME>
Briciclib

>  <CAS_NUMBER>
865783-99-9

>  <UNII>
WG93X96336

>  <SYNONYMS>
Briciclib

$$$$
