
 OpenBabel10282417072D

 32 33  0  0  0  0  0  0  0  0999 V2000
    1.4683    0.7665    0.0000 N   0  0  0  0  0  0  0  0  0  0  0  0
    1.9532    0.0989    0.0000 C   0  0  3  0  0  0  0  0  0  0  0  0
    1.4683   -0.5684    0.0000 C   0  0  0  0  0  0  0  0  0  0  0  0
    0.6837   -0.3135    0.0000 C   0  0  0  0  0  0  0  0  0  0  0  0
   -0.0308   -0.7261    0.0000 C   0  0  0  0  0  0  0  0  0  0  0  0
   -0.7454   -0.3135    0.0000 C   0  0  0  0  0  0  0  0  0  0  0  0
   -0.7454    0.5114    0.0000 C   0  0  0  0  0  0  0  0  0  0  0  0
   -0.0308    0.9240    0.0000 C   0  0  0  0  0  0  0  0  0  0  0  0
    0.6837    0.5114    0.0000 C   0  0  0  0  0  0  0  0  0  0  0  0
    2.7783    0.0989    0.0000 S   0  0  0  0  0  0  0  0  0  0  0  0
    2.7783   -0.7261    0.0000 O   0  0  0  0  0  0  0  0  0  0  0  0
    2.7783    0.9240    0.0000 O   0  0  0  0  0  0  0  0  0  0  0  0
    3.6034    0.0989    0.0000 O   0  0  0  0  0  0  0  0  0  0  0  0
   -1.4598    0.9240    0.0000 O   0  0  0  0  0  0  0  0  0  0  0  0
    1.7233    1.5511    0.0000 C   0  0  0  0  0  0  0  0  0  0  0  0
   -1.4598   -0.7261    0.0000 N   0  0  0  0  0  0  0  0  0  0  0  0
   -2.1743   -0.3135    0.0000 N   0  0  0  0  0  0  0  0  0  0  0  0
   -2.8889   -0.7261    0.0000 C   0  0  0  0  0  0  0  0  0  0  0  0
   -2.8889   -1.5511    0.0000 O   0  0  0  0  0  0  0  0  0  0  0  0
   -3.6034   -0.3135    0.0000 N   0  0  0  0  0  0  0  0  0  0  0  0
    0.8832    0.0990    0.0000 H   0  0  0  0  0  0  0  0  0  0  0  0
    1.7989   -1.5860    0.0000 H   0  0  0  0  0  0  0  0  0  0  0  0
    0.7117   -1.3250    0.0000 H   0  0  0  0  0  0  0  0  0  0  0  0
   -0.0308   -1.7581    0.0000 H   0  0  0  0  0  0  0  0  0  0  0  0
   -0.0308    1.9560    0.0000 H   0  0  0  0  0  0  0  0  0  0  0  0
    4.0884   -0.7411    0.0000 H   0  0  0  0  0  0  0  0  0  0  0  0
    2.7699    1.7735    0.0000 H   0  0  0  0  0  0  0  0  0  0  0  0
    1.0074    2.3463    0.0000 H   0  0  0  0  0  0  0  0  0  0  0  0
    2.0540    2.5687    0.0000 H   0  0  0  0  0  0  0  0  0  0  0  0
   -2.1743    0.6710    0.0000 H   0  0  0  0  0  0  0  0  0  0  0  0
   -3.6033    0.6710    0.0000 H   0  0  0  0  0  0  0  0  0  0  0  0
   -4.4560   -0.8057    0.0000 H   0  0  0  0  0  0  0  0  0  0  0  0
  1  2  1  0  0  0  0
  1  9  1  0  0  0  0
  1 15  1  0  0  0  0
  2  3  1  0  0  0  0
  2 10  1  0  0  0  0
  2 21  1  0  0  0  0
  3  4  1  0  0  0  0
  3 22  1  0  0  0  0
  3 23  1  0  0  0  0
  4  5  2  0  0  0  0
  4  9  1  0  0  0  0
  5  6  1  0  0  0  0
  5 24  1  0  0  0  0
  6  7  1  0  0  0  0
  6 16  2  0  0  0  0
  7  8  1  0  0  0  0
  7 14  2  0  0  0  0
  8  9  2  0  0  0  0
  8 25  1  0  0  0  0
 10 11  2  0  0  0  0
 10 12  2  0  0  0  0
 10 13  1  0  0  0  0
 13 26  1  0  0  0  0
 15 27  1  0  0  0  0
 15 28  1  0  0  0  0
 15 29  1  0  0  0  0
 16 17  1  0  0  0  0
 17 18  1  0  0  0  0
 17 30  1  0  0  0  0
 18 19  2  0  0  0  0
 18 20  1  0  0  0  0
 20 31  1  0  0  0  0
 20 32  1  0  0  0  0
M  END
>  <DRUGBANK_ID>
DB15969

>  <COMMON_NAME>
Carbazochrome sulfonic acid

>  <CAS_NUMBER>
70063-04-6

>  <UNII>
BMQ12812QR

$$$$
