
 OpenBabel10282417072D

 28 27  0  0  0  0  0  0  0  0999 V2000
   -2.5006   -0.2062    0.0000 P   0  0  0  0  0  0  0  0  0  0  0  0
    0.3572   -1.0312    0.0000 O   0  0  0  0  0  0  0  0  0  0  0  0
   -0.3572    1.0312    0.0000 O   0  0  0  0  0  0  0  0  0  0  0  0
   -1.7862    0.2062    0.0000 O   0  0  0  0  0  0  0  0  0  0  0  0
    1.0717    1.0312    0.0000 O   0  0  0  0  0  0  0  0  0  0  0  0
    1.7862   -1.0312    0.0000 O   0  0  0  0  0  0  0  0  0  0  0  0
   -3.2152   -0.6187    0.0000 O   0  0  0  0  0  0  0  0  0  0  0  0
   -2.9131    0.5082    0.0000 O   0  0  0  0  0  0  0  0  0  0  0  0
   -2.0881   -0.9207    0.0000 O   0  0  0  0  0  0  0  0  0  0  0  0
    3.2152   -0.2062    0.0000 O   0  0  0  0  0  0  0  0  0  0  0  0
    2.5006    0.2062    0.0000 N   0  0  0  0  0  0  0  0  0  0  0  0
    0.3572   -0.2062    0.0000 C   0  0  2  0  0  0  0  0  0  0  0  0
   -0.3572    0.2062    0.0000 C   0  0  1  0  0  0  0  0  0  0  0  0
    1.0717    0.2062    0.0000 C   0  0  1  0  0  0  0  0  0  0  0  0
   -1.0717   -0.2062    0.0000 C   0  0  0  0  0  0  0  0  0  0  0  0
    1.7862   -0.2062    0.0000 C   0  0  0  0  0  0  0  0  0  0  0  0
    2.5006    0.7177    0.0000 H   0  0  0  0  0  0  0  0  0  0  0  0
   -0.4828   -1.5162    0.0000 H   0  0  0  0  0  0  0  0  0  0  0  0
    0.4828    1.5162    0.0000 H   0  0  0  0  0  0  0  0  0  0  0  0
    1.9117    1.5162    0.0000 H   0  0  0  0  0  0  0  0  0  0  0  0
   -4.0552   -0.1336    0.0000 H   0  0  0  0  0  0  0  0  0  0  0  0
   -2.4281    1.3483    0.0000 H   0  0  0  0  0  0  0  0  0  0  0  0
    3.2154   -1.1762    0.0000 H   0  0  0  0  0  0  0  0  0  0  0  0
   -0.5694   -0.7412    0.0000 H   0  0  0  0  0  0  0  0  0  0  0  0
    0.5694    0.7412    0.0000 H   0  0  0  0  0  0  0  0  0  0  0  0
    0.1451    0.7413    0.0000 H   0  0  0  0  0  0  0  0  0  0  0  0
   -1.0717   -1.2762    0.0000 H   0  0  0  0  0  0  0  0  0  0  0  0
   -0.1451   -0.7413    0.0000 H   0  0  0  0  0  0  0  0  0  0  0  0
  1  4  1  0  0  0  0
  1  7  1  0  0  0  0
  1  8  1  0  0  0  0
  1  9  2  0  0  0  0
  2 18  1  0  0  0  0
  3 19  1  0  0  0  0
  4 15  1  0  0  0  0
  5 20  1  0  0  0  0
  6 16  2  0  0  0  0
  7 21  1  0  0  0  0
  8 22  1  0  0  0  0
 10 11  1  0  0  0  0
 10 23  1  0  0  0  0
 11 16  1  0  0  0  0
 11 17  1  0  0  0  0
 12  2  1  0  0  0  0
 12 13  1  0  0  0  0
 12 14  1  0  0  0  0
 12 24  1  1  0  0  0
 13  3  1  0  0  0  0
 13 15  1  0  0  0  0
 13 25  1  6  0  0  0
 14  5  1  0  0  0  0
 14 16  1  0  0  0  0
 14 26  1  1  0  0  0
 15 27  1  0  0  0  0
 15 28  1  0  0  0  0
M  END
>  <DRUGBANK_ID>
DB02093

>  <SECONDARY_ACCESSION_NUMBERS>
EXPT02496

>  <COMMON_NAME>
5-phospho-D-arabinohydroxamic acid

>  <SYNONYMS>
(2R,3R,4S)-2,3,4-Trihydroxy-5-(hydroxyamino)-5-oxopentyl dihydrogen phosphate

$$$$
