
 OpenBabel10282417072D

 87 92  0  0  0  0  0  0  0  0999 V2000
   -0.0592    0.2673    0.0000 P   0  0  3  0  0  0  0  0  0  0  0  0
   -0.7737   -0.1451    0.0000 O   0  0  0  0  0  0  0  0  0  0  0  0
   -1.4883    0.2673    0.0000 C   0  0  0  0  0  0  0  0  0  0  0  0
   -2.2026   -0.1451    0.0000 C   0  0  1  0  0  0  0  0  0  0  0  0
    0.6551   -0.1451    0.0000 O   0  0  0  0  0  0  0  0  0  0  0  0
   -5.0605   -0.1453    0.0000 N   0  0  0  0  0  0  0  0  0  0  0  0
   -5.0605   -0.9703    0.0000 C   0  0  0  0  0  0  0  0  0  0  0  0
   -5.7750    0.2671    0.0000 C   0  0  0  0  0  0  0  0  0  0  0  0
   -4.3461    0.2671    0.0000 C   0  0  0  0  0  0  0  0  0  0  0  0
   -5.7750   -1.3828    0.0000 C   0  0  0  0  0  0  0  0  0  0  0  0
   -4.3461   -1.3828    0.0000 N   0  0  0  0  0  0  0  0  0  0  0  0
   -6.4896   -0.1453    0.0000 C   0  0  0  0  0  0  0  0  0  0  0  0
   -5.7750    1.0921    0.0000 C   0  0  0  0  0  0  0  0  0  0  0  0
   -6.4896   -0.9703    0.0000 N   0  0  0  0  0  0  0  0  0  0  0  0
   -5.7750   -2.2078    0.0000 C   0  0  0  0  0  0  0  0  0  0  0  0
   -4.3461   -2.2078    0.0000 C   0  0  0  0  0  0  0  0  0  0  0  0
   -7.2040    0.2671    0.0000 C   0  0  0  0  0  0  0  0  0  0  0  0
   -6.4896    1.5046    0.0000 C   0  0  0  0  0  0  0  0  0  0  0  0
   -3.6317   -0.9703    0.0000 O   0  0  0  0  0  0  0  0  0  0  0  0
   -5.0605   -2.6203    0.0000 N   0  0  0  0  0  0  0  0  0  0  0  0
   -6.4896   -2.6203    0.0000 O   0  0  0  0  0  0  0  0  0  0  0  0
   -3.6317   -2.6203    0.0000 O   0  0  0  0  0  0  0  0  0  0  0  0
   -7.2040    1.0921    0.0000 C   0  0  0  0  0  0  0  0  0  0  0  0
   -6.4896    2.3296    0.0000 C   0  0  0  0  0  0  0  0  0  0  0  0
   -2.9171    1.0921    0.0000 O   0  0  0  0  0  0  0  0  0  0  0  0
   -7.9186    1.5046    0.0000 C   0  0  0  0  0  0  0  0  0  0  0  0
   -2.2027   -0.9701    0.0000 O   0  0  0  0  0  0  0  0  0  0  0  0
   -0.0592    1.0923    0.0000 O   0  0  0  0  0  0  0  0  0  0  0  0
    1.3695    1.0923    0.0000 O   0  0  0  0  0  0  0  0  0  0  0  0
   -3.6317   -0.1453    0.0000 C   0  0  2  0  0  0  0  0  0  0  0  0
   -2.9171    0.2671    0.0000 C   0  0  1  0  0  0  0  0  0  0  0  0
    2.0841   -0.1451    0.0000 O   0  0  0  0  0  0  0  0  0  0  0  0
    2.6972    0.4069    0.0000 C   0  0  0  0  0  0  0  0  0  0  0  0
    3.4818    0.1519    0.0000 C   0  0  1  0  0  0  0  0  0  0  0  0
    4.1492    0.6368    0.0000 O   0  0  0  0  0  0  0  0  0  0  0  0
    3.7367   -0.6325    0.0000 C   0  0  2  0  0  0  0  0  0  0  0  0
    4.8167    0.1519    0.0000 C   0  0  2  0  0  0  0  0  0  0  0  0
    4.5617   -0.6325    0.0000 C   0  0  2  0  0  0  0  0  0  0  0  0
    3.2518   -1.2999    0.0000 O   0  0  0  0  0  0  0  0  0  0  0  0
    5.0466   -1.2999    0.0000 O   0  0  0  0  0  0  0  0  0  0  0  0
    1.3695    0.2673    0.0000 P   0  0  3  0  0  0  0  0  0  0  0  0
    1.3695   -0.5577    0.0000 O   0  0  0  0  0  0  0  0  0  0  0  0
   -0.0592   -0.5577    0.0000 O   0  0  0  0  0  0  0  0  0  0  0  0
    5.6012    0.4070    0.0000 N   0  0  0  0  0  0  0  0  0  0  0  0
    5.8562    1.1916    0.0000 C   0  0  0  0  0  0  0  0  0  0  0  0
    6.2687   -0.0781    0.0000 C   0  0  0  0  0  0  0  0  0  0  0  0
    6.6812    1.1916    0.0000 C   0  0  0  0  0  0  0  0  0  0  0  0
    5.4436    1.9060    0.0000 N   0  0  0  0  0  0  0  0  0  0  0  0
    6.9362    0.4070    0.0000 N   0  0  0  0  0  0  0  0  0  0  0  0
    7.0936    1.9060    0.0000 C   0  0  0  0  0  0  0  0  0  0  0  0
    5.8561    2.6204    0.0000 C   0  0  0  0  0  0  0  0  0  0  0  0
    6.6811    2.6204    0.0000 N   0  0  0  0  0  0  0  0  0  0  0  0
    7.9186    1.9060    0.0000 N   0  0  0  0  0  0  0  0  0  0  0  0
   -7.9185   -0.1453    0.0000 O   0  0  0  0  0  0  0  0  0  0  0  0
   -1.4884    1.3373    0.0000 H   0  0  0  0  0  0  0  0  0  0  0  0
   -2.4150    0.8023    0.0000 H   0  0  0  0  0  0  0  0  0  0  0  0
   -1.2760   -0.6802    0.0000 H   0  0  0  0  0  0  0  0  0  0  0  0
   -4.3461    1.3371    0.0000 H   0  0  0  0  0  0  0  0  0  0  0  0
   -3.4195    0.8021    0.0000 H   0  0  0  0  0  0  0  0  0  0  0  0
   -4.8813    1.6081    0.0000 H   0  0  0  0  0  0  0  0  0  0  0  0
   -4.4717   -1.4553    0.0000 H   0  0  0  0  0  0  0  0  0  0  0  0
   -5.0605   -3.6048    0.0000 H   0  0  0  0  0  0  0  0  0  0  0  0
   -5.5630    2.8646    0.0000 H   0  0  0  0  0  0  0  0  0  0  0  0
   -7.4162    2.8646    0.0000 H   0  0  0  0  0  0  0  0  0  0  0  0
   -6.4896    3.3996    0.0000 H   0  0  0  0  0  0  0  0  0  0  0  0
   -2.0771    1.5771    0.0000 H   0  0  0  0  0  0  0  0  0  0  0  0
   -7.9187    2.5746    0.0000 H   0  0  0  0  0  0  0  0  0  0  0  0
   -8.8452    0.9695    0.0000 H   0  0  0  0  0  0  0  0  0  0  0  0
   -8.8453    2.0395    0.0000 H   0  0  0  0  0  0  0  0  0  0  0  0
   -3.0428   -1.4550    0.0000 H   0  0  0  0  0  0  0  0  0  0  0  0
   -4.5583   -0.6803    0.0000 H   0  0  0  0  0  0  0  0  0  0  0  0
   -1.9905    0.8023    0.0000 H   0  0  0  0  0  0  0  0  0  0  0  0
    2.4748    1.4535    0.0000 H   0  0  0  0  0  0  0  0  0  0  0  0
    3.4924    1.1228    0.0000 H   0  0  0  0  0  0  0  0  0  0  0  0
    3.3145    1.2087    0.0000 H   0  0  0  0  0  0  0  0  0  0  0  0
    2.6799   -0.4651    0.0000 H   0  0  0  0  0  0  0  0  0  0  0  0
    4.9839    1.2088    0.0000 H   0  0  0  0  0  0  0  0  0  0  0  0
    4.0759   -1.5859    0.0000 H   0  0  0  0  0  0  0  0  0  0  0  0
    2.2871   -1.1985    0.0000 H   0  0  0  0  0  0  0  0  0  0  0  0
    4.6521   -2.1860    0.0000 H   0  0  0  0  0  0  0  0  0  0  0  0
    0.5295   -1.0427    0.0000 H   0  0  0  0  0  0  0  0  0  0  0  0
   -0.8992   -1.0427    0.0000 H   0  0  0  0  0  0  0  0  0  0  0  0
    6.2687   -1.1101    0.0000 H   0  0  0  0  0  0  0  0  0  0  0  0
    5.3401    3.5141    0.0000 H   0  0  0  0  0  0  0  0  0  0  0  0
    8.4108    1.0534    0.0000 H   0  0  0  0  0  0  0  0  0  0  0  0
    8.4108    2.7586    0.0000 H   0  0  0  0  0  0  0  0  0  0  0  0
   -8.7299    0.3233    0.0000 H   0  0  0  0  0  0  0  0  0  0  0  0
  1 28  2  0  0  0  0
  1 43  1  0  0  0  0
  1  5  1  0  0  0  0
  2  1  1  0  0  0  0
  3  2  1  0  0  0  0
  3 55  1  0  0  0  0
  3 56  1  0  0  0  0
  4  3  1  0  0  0  0
  4 27  1  0  0  0  0
  4 57  1  6  0  0  0
  5 41  1  0  0  0  0
  6  7  1  0  0  0  0
  6  8  1  0  0  0  0
  6  9  1  0  0  0  0
  7 10  1  0  0  0  0
  7 11  2  0  0  0  0
  8 12  2  0  0  0  0
  8 13  1  0  0  0  0
  9 30  1  0  0  0  0
  9 58  1  0  0  0  0
  9 59  1  0  0  0  0
 10 14  2  0  0  0  0
 10 15  1  0  0  0  0
 11 16  1  0  0  0  0
 12 17  1  0  0  0  0
 12 14  1  0  0  0  0
 13 18  2  0  0  0  0
 13 60  1  0  0  0  0
 15 20  1  0  0  0  0
 15 21  2  0  0  0  0
 16 22  2  0  0  0  0
 16 20  1  0  0  0  0
 17 23  2  0  0  0  0
 17 54  1  0  0  0  0
 18 24  1  0  0  0  0
 18 23  1  0  0  0  0
 19 61  1  0  0  0  0
 20 62  1  0  0  0  0
 23 26  1  0  0  0  0
 24 63  1  0  0  0  0
 24 64  1  0  0  0  0
 24 65  1  0  0  0  0
 25 66  1  0  0  0  0
 26 67  1  0  0  0  0
 26 68  1  0  0  0  0
 26 69  1  0  0  0  0
 27 70  1  0  0  0  0
 30 19  1  0  0  0  0
 30 31  1  0  0  0  0
 30 71  1  6  0  0  0
 31  4  1  0  0  0  0
 31 25  1  0  0  0  0
 31 72  1  1  0  0  0
 32 33  1  0  0  0  0
 33 73  1  0  0  0  0
 33 74  1  0  0  0  0
 34 33  1  0  0  0  0
 34 35  1  0  0  0  0
 34 36  1  0  0  0  0
 34 75  1  6  0  0  0
 35 37  1  0  0  0  0
 36 38  1  0  0  0  0
 36 39  1  0  0  0  0
 36 76  1  1  0  0  0
 37 44  1  0  0  0  0
 37 38  1  0  0  0  0
 37 77  1  6  0  0  0
 38 40  1  0  0  0  0
 38 78  1  1  0  0  0
 39 79  1  0  0  0  0
 40 80  1  0  0  0  0
 41 29  2  0  0  0  0
 41 32  1  0  0  0  0
 41 42  1  0  0  0  0
 42 81  1  0  0  0  0
 43 82  1  0  0  0  0
 44 45  1  0  0  0  0
 44 46  1  0  0  0  0
 45 47  2  0  0  0  0
 45 48  1  0  0  0  0
 46 49  2  0  0  0  0
 46 83  1  0  0  0  0
 47 50  1  0  0  0  0
 47 49  1  0  0  0  0
 48 51  2  0  0  0  0
 50 52  2  0  0  0  0
 50 53  1  0  0  0  0
 51 52  1  0  0  0  0
 51 84  1  0  0  0  0
 53 85  1  0  0  0  0
 53 86  1  0  0  0  0
 54 87  1  0  0  0  0
M  END
>  <DRUGBANK_ID>
DB02654

>  <SECONDARY_ACCESSION_NUMBERS>
EXPT00285

>  <COMMON_NAME>
6-hydroxy-FAD

>  <CAS_NUMBER>
52301-43-6

>  <SYNONYMS>
6-HO-FAD; 6-hydroxy-flavin-adenine dinucleotide; 6-hydroxyflavin-adenine dinucleotide; 6-hydroxyflavine-adenine dinucleotide

$$$$
