
 OpenBabel10282417072D

  5  3  0  0  0  0  0  0  0  0999 V2000
   -1.2828   -1.1224    0.0000 Mg  0  2  0  0  0  0  0  0  0  0  0  0
    0.5610   -0.0798    0.0000 O   0  0  0  0  0  0  0  0  0  0  0  0
    0.5610    0.7214    0.0000 C   0  0  0  0  0  0  0  0  0  0  0  0
    1.2828    1.1224    0.0000 O   0  5  0  0  0  0  0  0  0  0  0  0
   -0.1600    1.1224    0.0000 O   0  5  0  0  0  0  0  0  0  0  0  0
  2  3  2  0  0  0  0
  3  4  1  0  0  0  0
  3  5  1  0  0  0  0
M  CHG  3   1   2   4  -1   5  -1
M  END
>  <DRUGBANK_ID>
DB09481

>  <COMMON_NAME>
Magnesium carbonate

>  <CAS_NUMBER>
546-93-0

>  <UNII>
0IHC698356

>  <SYNONYMS>
Magnesio carbonato

$$$$
