902
 OpenBabel10282417072D

 41 44  0  0  1  0  0  0  0  0999 V2000
    3.6960   -1.8487    0.0000 S   0  0  0  0  0  0  0  0  0  0  0  0
    5.6356    1.1902    0.0000 N   0  0  0  0  0  0  0  0  0  0  0  0
    3.6960   -0.2644    0.0000 N   0  0  0  0  0  0  0  0  0  0  0  0
    4.3820    0.9237    0.0000 C   0  0  3  0  0  0  0  0  0  0  0  0
    4.4648    1.7115    0.0000 C   0  0  0  0  0  0  0  0  0  0  0  0
    5.1056    0.6016    0.0000 C   0  0  0  0  0  0  0  0  0  0  0  0
    5.2396    1.8761    0.0000 C   0  0  0  0  0  0  0  0  0  0  0  0
    3.6960    0.5276    0.0000 C   0  0  0  0  0  0  0  0  0  0  0  0
    6.4234    1.1074    0.0000 C   0  0  0  0  0  0  0  0  0  0  0  0
    4.3820   -0.6605    0.0000 C   0  0  0  0  0  0  0  0  0  0  0  0
    3.0100   -0.6605    0.0000 C   0  0  0  0  0  0  0  0  0  0  0  0
    4.3820   -1.4527    0.0000 C   0  0  0  0  0  0  0  0  0  0  0  0
    3.0100   -1.4527    0.0000 C   0  0  0  0  0  0  0  0  0  0  0  0
    5.0901   -0.2370    0.0000 C   0  0  0  0  0  0  0  0  0  0  0  0
    2.3020   -0.2370    0.0000 C   0  0  0  0  0  0  0  0  0  0  0  0
    5.0901   -1.8761    0.0000 C   0  0  0  0  0  0  0  0  0  0  0  0
    2.3020   -1.8761    0.0000 C   0  0  0  0  0  0  0  0  0  0  0  0
    5.8078   -0.6441    0.0000 C   0  0  0  0  0  0  0  0  0  0  0  0
    1.5842   -0.6441    0.0000 C   0  0  0  0  0  0  0  0  0  0  0  0
    5.8078   -1.4691    0.0000 C   0  0  0  0  0  0  0  0  0  0  0  0
    1.5842   -1.4691    0.0000 C   0  0  0  0  0  0  0  0  0  0  0  0
    5.3086    1.4587    0.0000 H   0  0  0  0  0  0  0  0  0  0  0  0
    3.6697    2.4275    0.0000 H   0  0  0  0  0  0  0  0  0  0  0  0
    4.7418    2.7450    0.0000 H   0  0  0  0  0  0  0  0  0  0  0  0
    5.3281   -0.4450    0.0000 H   0  0  0  0  0  0  0  0  0  0  0  0
    4.2741   -0.0718    0.0000 H   0  0  0  0  0  0  0  0  0  0  0  0
    5.6749    2.8536    0.0000 H   0  0  0  0  0  0  0  0  0  0  0  0
    4.5663    2.7077    0.0000 H   0  0  0  0  0  0  0  0  0  0  0  0
    2.7693    1.0626    0.0000 H   0  0  0  0  0  0  0  0  0  0  0  0
    3.6960    1.5976    0.0000 H   0  0  0  0  0  0  0  0  0  0  0  0
    6.8586    0.1299    0.0000 H   0  0  0  0  0  0  0  0  0  0  0  0
    7.0523    1.9730    0.0000 H   0  0  0  0  0  0  0  0  0  0  0  0
    7.4875    0.9956    0.0000 H   0  0  0  0  0  0  0  0  0  0  0  0
    5.0782    0.7949    0.0000 H   0  0  0  0  0  0  0  0  0  0  0  0
    2.3139    0.7949    0.0000 H   0  0  0  0  0  0  0  0  0  0  0  0
    5.0782   -2.9080    0.0000 H   0  0  0  0  0  0  0  0  0  0  0  0
    2.3139   -2.9080    0.0000 H   0  0  0  0  0  0  0  0  0  0  0  0
    6.6996   -0.1247    0.0000 H   0  0  0  0  0  0  0  0  0  0  0  0
    0.6925   -0.1247    0.0000 H   0  0  0  0  0  0  0  0  0  0  0  0
    6.6995   -1.9886    0.0000 H   0  0  0  0  0  0  0  0  0  0  0  0
    0.6925   -1.9886    0.0000 H   0  0  0  0  0  0  0  0  0  0  0  0
  1 12  1  0  0  0  0
  1 13  1  0  0  0  0
  2  6  1  0  0  0  0
  2  7  1  0  0  0  0
  2  9  1  0  0  0  0
  3  8  1  0  0  0  0
  3 10  1  0  0  0  0
  3 11  1  0  0  0  0
  4  5  1  0  0  0  0
  4  6  1  0  0  0  0
  4  8  1  0  0  0  0
  4 22  1  0  0  0  0
  5  7  1  0  0  0  0
  5 23  1  0  0  0  0
  5 24  1  0  0  0  0
  6 25  1  0  0  0  0
  6 26  1  0  0  0  0
  7 27  1  0  0  0  0
  7 28  1  0  0  0  0
  8 29  1  0  0  0  0
  8 30  1  0  0  0  0
  9 31  1  0  0  0  0
  9 32  1  0  0  0  0
  9 33  1  0  0  0  0
 10 12  1  0  0  0  0
 10 14  2  0  0  0  0
 11 13  1  0  0  0  0
 11 15  2  0  0  0  0
 12 16  2  0  0  0  0
 13 17  2  0  0  0  0
 14 18  1  0  0  0  0
 14 34  1  0  0  0  0
 15 19  1  0  0  0  0
 15 35  1  0  0  0  0
 16 20  1  0  0  0  0
 16 36  1  0  0  0  0
 17 21  1  0  0  0  0
 17 37  1  0  0  0  0
 18 20  2  0  0  0  0
 18 38  1  0  0  0  0
 19 21  2  0  0  0  0
 19 39  1  0  0  0  0
 20 40  1  0  0  0  0
 21 41  1  0  0  0  0
M  END
>  <DRUGBANK_ID>
DB00902

>  <SECONDARY_ACCESSION_NUMBERS>
APRD00713

>  <COMMON_NAME>
Methdilazine

>  <CAS_NUMBER>
1982-37-2

>  <UNII>
4Q13LY9Z8X

>  <SYNONYMS>
Methdilazine; Methdilazinum; Metodilazina

$$$$
