
 OpenBabel10282417072D

 44 48  0  0  0  0  0  0  0  0999 V2000
   -2.5007    2.1656    0.0000 N   0  3  0  0  0  0  0  0  0  0  0  0
   -3.2226    2.5781    0.0000 O   0  0  0  0  0  0  0  0  0  0  0  0
   -1.8047    2.5781    0.0000 O   0  5  0  0  0  0  0  0  0  0  0  0
    2.7327   -1.8304    0.0000 C   0  0  0  0  0  0  0  0  0  0  0  0
    3.2226   -1.1601    0.0000 O   0  0  0  0  0  0  0  0  0  0  0  0
    2.8874   -0.4125    0.0000 C   0  0  0  0  0  0  0  0  0  0  0  0
    1.9077   -1.7273    0.0000 C   0  0  2  0  0  0  0  0  0  0  0  0
    1.5726   -0.9797    0.0000 C   0  0  0  0  0  0  0  0  0  0  0  0
    2.0624   -0.3093    0.0000 C   0  0  0  0  0  0  0  0  0  0  0  0
    1.7274    0.4382    0.0000 C   0  0  0  0  0  0  0  0  0  0  0  0
    0.7734   -0.8765    0.0000 C   0  0  0  0  0  0  0  0  0  0  0  0
    0.4125   -0.1289    0.0000 C   0  0  0  0  0  0  0  0  0  0  0  0
    0.9281    0.5156    0.0000 N   0  0  0  0  0  0  0  0  0  0  0  0
    0.4125    1.1859    0.0000 C   0  0  0  0  0  0  0  0  0  0  0  0
   -0.3609    0.9281    0.0000 C   0  0  0  0  0  0  0  0  0  0  0  0
   -0.3609    0.1031    0.0000 C   0  0  0  0  0  0  0  0  0  0  0  0
   -1.0827   -0.3093    0.0000 N   0  0  0  0  0  0  0  0  0  0  0  0
   -1.0827    1.3406    0.0000 C   0  0  0  0  0  0  0  0  0  0  0  0
   -1.7789    0.9281    0.0000 C   0  0  0  0  0  0  0  0  0  0  0  0
   -1.7789    0.1031    0.0000 C   0  0  0  0  0  0  0  0  0  0  0  0
   -2.5007   -0.3093    0.0000 C   0  0  0  0  0  0  0  0  0  0  0  0
   -3.1968    0.1031    0.0000 C   0  0  0  0  0  0  0  0  0  0  0  0
   -3.1968    0.9281    0.0000 C   0  0  0  0  0  0  0  0  0  0  0  0
   -2.5007    1.3406    0.0000 C   0  0  0  0  0  0  0  0  0  0  0  0
    3.0680   -2.5781    0.0000 O   0  0  0  0  0  0  0  0  0  0  0  0
    2.2172    1.1086    0.0000 O   0  0  0  0  0  0  0  0  0  0  0  0
    1.9072   -2.5582    0.0000 O   0  0  0  0  0  0  0  0  0  0  0  0
    1.0757   -1.7269    0.0000 C   0  0  0  0  0  0  0  0  0  0  0  0
    0.5961   -2.4061    0.0000 C   0  0  0  0  0  0  0  0  0  0  0  0
    3.5237    0.4477    0.0000 H   0  0  0  0  0  0  0  0  0  0  0  0
    2.4661    0.5710    0.0000 H   0  0  0  0  0  0  0  0  0  0  0  0
    0.1698   -1.7136    0.0000 H   0  0  0  0  0  0  0  0  0  0  0  0
    0.7253    2.2092    0.0000 H   0  0  0  0  0  0  0  0  0  0  0  0
   -0.3535    1.9330    0.0000 H   0  0  0  0  0  0  0  0  0  0  0  0
   -1.0908    2.3726    0.0000 H   0  0  0  0  0  0  0  0  0  0  0  0
   -2.5088   -1.3413    0.0000 H   0  0  0  0  0  0  0  0  0  0  0  0
   -4.0934   -0.4079    0.0000 H   0  0  0  0  0  0  0  0  0  0  0  0
   -4.0935    1.4390    0.0000 H   0  0  0  0  0  0  0  0  0  0  0  0
    1.0669   -3.0427    0.0000 H   0  0  0  0  0  0  0  0  0  0  0  0
    0.5837   -0.7767    0.0000 H   0  0  0  0  0  0  0  0  0  0  0  0
    0.0082   -1.6536    0.0000 H   0  0  0  0  0  0  0  0  0  0  0  0
   -0.4695   -2.3086    0.0000 H   0  0  0  0  0  0  0  0  0  0  0  0
    1.0445   -3.3776    0.0000 H   0  0  0  0  0  0  0  0  0  0  0  0
   -0.0211   -3.2802    0.0000 H   0  0  0  0  0  0  0  0  0  0  0  0
  2  1  2  0  0  0  0
  3  1  1  0  0  0  0
  5  4  1  0  0  0  0
  6  5  1  0  0  0  0
  6 30  1  0  0  0  0
  6 31  1  0  0  0  0
  7  4  1  0  0  0  0
  7 27  1  1  0  0  0
  8  7  1  0  0  0  0
  9  6  1  0  0  0  0
  9  8  2  0  0  0  0
 10  9  1  0  0  0  0
 11  8  1  0  0  0  0
 11 32  1  0  0  0  0
 12 11  2  0  0  0  0
 13 10  1  0  0  0  0
 13 12  1  0  0  0  0
 14 13  1  0  0  0  0
 14 33  1  0  0  0  0
 14 34  1  0  0  0  0
 15 14  1  0  0  0  0
 16 12  1  0  0  0  0
 16 15  2  0  0  0  0
 17 16  1  0  0  0  0
 18 15  1  0  0  0  0
 18 35  1  0  0  0  0
 19 18  2  0  0  0  0
 20 17  2  0  0  0  0
 20 19  1  0  0  0  0
 21 20  1  0  0  0  0
 21 36  1  0  0  0  0
 22 21  2  0  0  0  0
 22 37  1  0  0  0  0
 23 22  1  0  0  0  0
 23 38  1  0  0  0  0
 24  1  1  0  0  0  0
 24 19  1  0  0  0  0
 24 23  2  0  0  0  0
 25  4  2  0  0  0  0
 26 10  2  0  0  0  0
 27 39  1  0  0  0  0
 28  7  1  0  0  0  0
 28 29  1  0  0  0  0
 28 40  1  0  0  0  0
 28 41  1  0  0  0  0
 29 42  1  0  0  0  0
 29 43  1  0  0  0  0
 29 44  1  0  0  0  0
M  CHG  2   1   1   3  -1
M  END
>  <DRUGBANK_ID>
DB06159

>  <COMMON_NAME>
Rubitecan

>  <CAS_NUMBER>
91421-42-0

>  <UNII>
H19C446XXB

>  <SYNONYMS>
1H-PYRANO(3',4':6,7)INDOLIZINO(1,2-B)QUINOLINE-3,14(4H,12H)-DIONE, 4-ETHYL-4-HYDROXY-10-NITRO-, (4S)-; 9-NC; 9-nitro-(20S)-camptothecin; 9-nitro-20-(S)-camptothecin; 9-nitro-20(S)-camptothecin; 9-nitrocamptothecin; 9NC; Rubitecán; Rubitécan; Rubitecan; Rubitecanum

$$$$
