
 OpenBabel10282417072D

 49 50  0  0  0  0  0  0  0  0999 V2000
    2.8852   -0.0779    0.0000 S   0  0  0  0  0  0  0  0  0  0  0  0
   -2.1722   -1.2928    0.0000 O   0  0  0  0  0  0  0  0  0  0  0  0
   -2.8867    0.7697    0.0000 O   0  0  0  0  0  0  0  0  0  0  0  0
   -2.8867   -0.0552    0.0000 O   0  0  0  0  0  0  0  0  0  0  0  0
    3.6012    0.3318    0.0000 O   0  0  0  0  0  0  0  0  0  0  0  0
    2.4754    0.6381    0.0000 O   0  0  0  0  0  0  0  0  0  0  0  0
    3.2949   -0.7939    0.0000 O   0  0  0  0  0  0  0  0  0  0  0  0
   -1.4577   -0.0552    0.0000 N   0  0  0  0  0  0  0  0  0  0  0  0
   -2.1722    2.0072    0.0000 N   0  0  0  0  0  0  0  0  0  0  0  0
    2.1690   -0.4876    0.0000 N   0  0  0  0  0  0  0  0  0  0  0  0
   -1.4577    0.7697    0.0000 C   0  0  2  0  0  0  0  0  0  0  0  0
   -0.7432    1.1822    0.0000 C   0  0  0  0  0  0  0  0  0  0  0  0
   -0.7432   -0.4677    0.0000 C   0  0  0  0  0  0  0  0  0  0  0  0
   -0.0288    0.7697    0.0000 C   0  0  0  0  0  0  0  0  0  0  0  0
   -0.0288   -0.0552    0.0000 C   0  0  0  0  0  0  0  0  0  0  0  0
   -2.1722    1.1822    0.0000 C   0  0  0  0  0  0  0  0  0  0  0  0
    0.7087   -0.4963    0.0000 C   0  0  0  0  0  0  0  0  0  0  0  0
   -2.1722   -0.4677    0.0000 C   0  0  0  0  0  0  0  0  0  0  0  0
    0.7087    1.2108    0.0000 C   0  0  0  0  0  0  0  0  0  0  0  0
   -2.8867   -1.7053    0.0000 C   0  0  0  0  0  0  0  0  0  0  0  0
    1.4561   -0.0724    0.0000 C   0  0  0  0  0  0  0  0  0  0  0  0
    1.4561    0.7869    0.0000 C   0  0  0  0  0  0  0  0  0  0  0  0
   -3.2992   -0.9908    0.0000 C   0  0  0  0  0  0  0  0  0  0  0  0
   -2.4742   -2.4197    0.0000 C   0  0  0  0  0  0  0  0  0  0  0  0
   -3.6012   -2.1178    0.0000 C   0  0  0  0  0  0  0  0  0  0  0  0
   -2.8867    2.4197    0.0000 C   0  0  0  0  0  0  0  0  0  0  0  0
   -1.7292    2.2630    0.0000 H   0  0  0  0  0  0  0  0  0  0  0  0
    2.1671   -0.9991    0.0000 H   0  0  0  0  0  0  0  0  0  0  0  0
    4.4394   -0.1564    0.0000 H   0  0  0  0  0  0  0  0  0  0  0  0
   -2.3843    0.2347    0.0000 H   0  0  0  0  0  0  0  0  0  0  0  0
   -0.7432    2.2522    0.0000 H   0  0  0  0  0  0  0  0  0  0  0  0
    0.1835    1.7172    0.0000 H   0  0  0  0  0  0  0  0  0  0  0  0
   -0.7432   -1.5377    0.0000 H   0  0  0  0  0  0  0  0  0  0  0  0
    0.1835   -1.0027    0.0000 H   0  0  0  0  0  0  0  0  0  0  0  0
    0.6968   -1.5282    0.0000 H   0  0  0  0  0  0  0  0  0  0  0  0
    0.6968    2.2427    0.0000 H   0  0  0  0  0  0  0  0  0  0  0  0
    2.3479    1.3063    0.0000 H   0  0  0  0  0  0  0  0  0  0  0  0
   -2.7642   -0.0642    0.0000 H   0  0  0  0  0  0  0  0  0  0  0  0
   -4.3692   -0.9908    0.0000 H   0  0  0  0  0  0  0  0  0  0  0  0
   -3.8342   -0.0641    0.0000 H   0  0  0  0  0  0  0  0  0  0  0  0
   -3.0092   -3.3464    0.0000 H   0  0  0  0  0  0  0  0  0  0  0  0
   -1.4042   -2.4197    0.0000 H   0  0  0  0  0  0  0  0  0  0  0  0
   -1.9392   -3.3463    0.0000 H   0  0  0  0  0  0  0  0  0  0  0  0
   -4.5278   -1.5828    0.0000 H   0  0  0  0  0  0  0  0  0  0  0  0
   -3.6012   -3.1878    0.0000 H   0  0  0  0  0  0  0  0  0  0  0  0
   -4.5279   -2.6528    0.0000 H   0  0  0  0  0  0  0  0  0  0  0  0
   -2.8867    3.4897    0.0000 H   0  0  0  0  0  0  0  0  0  0  0  0
   -3.8133    1.8847    0.0000 H   0  0  0  0  0  0  0  0  0  0  0  0
   -3.8134    2.9547    0.0000 H   0  0  0  0  0  0  0  0  0  0  0  0
  1  5  1  0  0  0  0
  1  6  2  0  0  0  0
  1  7  2  0  0  0  0
  1 10  1  0  0  0  0
  2 18  1  0  0  0  0
  2 20  1  0  0  0  0
  3 16  2  0  0  0  0
  4 18  2  0  0  0  0
  5 29  1  0  0  0  0
  8 11  1  0  0  0  0
  8 13  1  0  0  0  0
  8 18  1  0  0  0  0
  9 16  1  0  0  0  0
  9 26  1  0  0  0  0
  9 27  1  0  0  0  0
 10 21  1  0  0  0  0
 10 28  1  0  0  0  0
 11 12  1  0  0  0  0
 11 16  1  0  0  0  0
 11 30  1  6  0  0  0
 12 14  1  0  0  0  0
 12 31  1  0  0  0  0
 12 32  1  0  0  0  0
 13 15  1  0  0  0  0
 13 33  1  0  0  0  0
 13 34  1  0  0  0  0
 14 15  2  0  0  0  0
 14 19  1  0  0  0  0
 15 17  1  0  0  0  0
 17 21  2  0  0  0  0
 17 35  1  0  0  0  0
 19 22  2  0  0  0  0
 19 36  1  0  0  0  0
 20 23  1  0  0  0  0
 20 24  1  0  0  0  0
 20 25  1  0  0  0  0
 21 22  1  0  0  0  0
 22 37  1  0  0  0  0
 23 38  1  0  0  0  0
 23 39  1  0  0  0  0
 23 40  1  0  0  0  0
 24 41  1  0  0  0  0
 24 42  1  0  0  0  0
 24 43  1  0  0  0  0
 25 44  1  0  0  0  0
 25 45  1  0  0  0  0
 25 46  1  0  0  0  0
 26 47  1  0  0  0  0
 26 48  1  0  0  0  0
 26 49  1  0  0  0  0
M  END
>  <DRUGBANK_ID>
DB07719

>  <COMMON_NAME>
[(3R)-3-(Methylcarbamoyl)-2-{[(2-methyl-2-propanyl)oxy]carbonyl}-1,2,3,4-tetrahydro-7-isoquinolinyl]sulfamic acid

$$$$
