1187
 OpenBabel10282417072D

 51 51  0  0  1  0  0  0  0  0999 V2000
    1.6500   -3.3001    0.0000 I   0  0  0  0  0  0  0  0  0  0  0  0
    6.6515    3.7126    0.0000 O   0  0  0  0  0  0  0  0  0  0  0  0
    7.3659    2.4751    0.0000 O   0  0  0  0  0  0  0  0  0  0  0  0
    3.7935   -1.2375    0.0000 C   0  0  0  0  0  0  0  0  0  0  0  0
    3.7935   -2.0625    0.0000 C   0  0  0  0  0  0  0  0  0  0  0  0
    4.5080   -0.8250    0.0000 C   0  0  0  0  0  0  0  0  0  0  0  0
    3.0791   -2.4751    0.0000 C   0  0  3  0  0  0  0  0  0  0  0  0
    4.5080    0.0000    0.0000 C   0  0  0  0  0  0  0  0  0  0  0  0
    5.2224    0.4125    0.0000 C   0  0  0  0  0  0  0  0  0  0  0  0
    5.2224    1.2375    0.0000 C   0  0  0  0  0  0  0  0  0  0  0  0
    3.0791   -3.3001    0.0000 C   0  0  0  0  0  0  0  0  0  0  0  0
    5.9370    1.6500    0.0000 C   0  0  0  0  0  0  0  0  0  0  0  0
    2.3645   -2.0625    0.0000 C   0  0  0  0  0  0  0  0  0  0  0  0
    5.9370    2.4751    0.0000 C   0  0  0  0  0  0  0  0  0  0  0  0
    2.3645   -3.7126    0.0000 C   0  0  0  0  0  0  0  0  0  0  0  0
    3.7935   -3.7126    0.0000 C   0  0  0  0  0  0  0  0  0  0  0  0
    2.3645   -4.5376    0.0000 C   0  0  0  0  0  0  0  0  0  0  0  0
    3.7935   -4.5376    0.0000 C   0  0  0  0  0  0  0  0  0  0  0  0
    6.6515    2.8876    0.0000 C   0  0  0  0  0  0  0  0  0  0  0  0
    3.0791   -4.9501    0.0000 C   0  0  0  0  0  0  0  0  0  0  0  0
    7.3659    4.1251    0.0000 C   0  0  0  0  0  0  0  0  0  0  0  0
    7.3659    4.9501    0.0000 C   0  0  0  0  0  0  0  0  0  0  0  0
    2.8669   -0.7025    0.0000 H   0  0  0  0  0  0  0  0  0  0  0  0
    3.7935   -0.1675    0.0000 H   0  0  0  0  0  0  0  0  0  0  0  0
    4.7202   -2.5974    0.0000 H   0  0  0  0  0  0  0  0  0  0  0  0
    3.7936   -3.1325    0.0000 H   0  0  0  0  0  0  0  0  0  0  0  0
    5.4346   -1.3600    0.0000 H   0  0  0  0  0  0  0  0  0  0  0  0
    5.4346   -0.2900    0.0000 H   0  0  0  0  0  0  0  0  0  0  0  0
    4.0058   -3.0100    0.0000 H   0  0  0  0  0  0  0  0  0  0  0  0
    3.5813    0.5350    0.0000 H   0  0  0  0  0  0  0  0  0  0  0  0
    4.5080    1.0700    0.0000 H   0  0  0  0  0  0  0  0  0  0  0  0
    6.1491   -0.1225    0.0000 H   0  0  0  0  0  0  0  0  0  0  0  0
    6.1490    0.9475    0.0000 H   0  0  0  0  0  0  0  0  0  0  0  0
    4.2958    1.7725    0.0000 H   0  0  0  0  0  0  0  0  0  0  0  0
    5.2225    2.3075    0.0000 H   0  0  0  0  0  0  0  0  0  0  0  0
    6.8636    1.1150    0.0000 H   0  0  0  0  0  0  0  0  0  0  0  0
    6.8637    2.1850    0.0000 H   0  0  0  0  0  0  0  0  0  0  0  0
    2.3645   -0.9925    0.0000 H   0  0  0  0  0  0  0  0  0  0  0  0
    1.4378   -2.5975    0.0000 H   0  0  0  0  0  0  0  0  0  0  0  0
    1.4379   -1.5275    0.0000 H   0  0  0  0  0  0  0  0  0  0  0  0
    5.0104    3.0101    0.0000 H   0  0  0  0  0  0  0  0  0  0  0  0
    5.9370    3.5451    0.0000 H   0  0  0  0  0  0  0  0  0  0  0  0
    4.6872   -3.1966    0.0000 H   0  0  0  0  0  0  0  0  0  0  0  0
    1.4708   -5.0536    0.0000 H   0  0  0  0  0  0  0  0  0  0  0  0
    4.6872   -5.0536    0.0000 H   0  0  0  0  0  0  0  0  0  0  0  0
    3.0792   -5.9821    0.0000 H   0  0  0  0  0  0  0  0  0  0  0  0
    8.2926    3.5901    0.0000 H   0  0  0  0  0  0  0  0  0  0  0  0
    8.2925    4.6601    0.0000 H   0  0  0  0  0  0  0  0  0  0  0  0
    8.2925    5.4851    0.0000 H   0  0  0  0  0  0  0  0  0  0  0  0
    6.4393    5.4851    0.0000 H   0  0  0  0  0  0  0  0  0  0  0  0
    7.3659    6.0201    0.0000 H   0  0  0  0  0  0  0  0  0  0  0  0
  1 15  1  0  0  0  0
  2 19  1  0  0  0  0
  2 21  1  0  0  0  0
  3 19  2  0  0  0  0
  4  5  1  0  0  0  0
  4  6  1  0  0  0  0
  4 23  1  0  0  0  0
  4 24  1  0  0  0  0
  5  7  1  0  0  0  0
  5 25  1  0  0  0  0
  5 26  1  0  0  0  0
  6  8  1  0  0  0  0
  6 27  1  0  0  0  0
  6 28  1  0  0  0  0
  7 11  1  0  0  0  0
  7 13  1  0  0  0  0
  7 29  1  0  0  0  0
  8  9  1  0  0  0  0
  8 30  1  0  0  0  0
  8 31  1  0  0  0  0
  9 10  1  0  0  0  0
  9 32  1  0  0  0  0
  9 33  1  0  0  0  0
 10 12  1  0  0  0  0
 10 34  1  0  0  0  0
 10 35  1  0  0  0  0
 11 15  1  0  0  0  0
 11 16  2  0  0  0  0
 12 14  1  0  0  0  0
 12 36  1  0  0  0  0
 12 37  1  0  0  0  0
 13 38  1  0  0  0  0
 13 39  1  0  0  0  0
 13 40  1  0  0  0  0
 14 19  1  0  0  0  0
 14 41  1  0  0  0  0
 14 42  1  0  0  0  0
 15 17  2  0  0  0  0
 16 18  1  0  0  0  0
 16 43  1  0  0  0  0
 17 20  1  0  0  0  0
 17 44  1  0  0  0  0
 18 20  2  0  0  0  0
 18 45  1  0  0  0  0
 20 46  1  0  0  0  0
 21 22  1  0  0  0  0
 21 47  1  0  0  0  0
 21 48  1  0  0  0  0
 22 49  1  0  0  0  0
 22 50  1  0  0  0  0
 22 51  1  0  0  0  0
M  END
>  <DRUGBANK_ID>
DB01187

>  <SECONDARY_ACCESSION_NUMBERS>
APRD01312; DB13498

>  <COMMON_NAME>
Iophendylate

>  <CAS_NUMBER>
99-79-6

>  <UNII>
5153M06QEA

>  <SYNONYMS>
Ethyl 10-(p-iodophenyl)-undecanoate; Ethyl 10-(p-iodophenyl)hendecanoate; Ethyl 10-(p-iodophenyl)undecylate; Iofendylate

$$$$
