
 OpenBabel10282417072D

 62 66  0  0  0  0  0  0  0  0999 V2000
   -1.4087    0.0165    0.0000 C   0  0  0  0  0  0  0  0  0  0  0  0
   -0.5837    0.0165    0.0000 N   0  0  0  0  0  0  0  0  0  0  0  0
   -0.1712    0.7310    0.0000 C   0  0  0  0  0  0  0  0  0  0  0  0
   -0.1712   -0.6979    0.0000 C   0  0  0  0  0  0  0  0  0  0  0  0
   -0.5837   -1.4124    0.0000 O   0  0  0  0  0  0  0  0  0  0  0  0
    0.6538   -0.6979    0.0000 C   0  0  0  0  0  0  0  0  0  0  0  0
    1.1387   -0.0305    0.0000 C   0  0  0  0  0  0  0  0  0  0  0  0
    1.9233   -0.2854    0.0000 C   0  0  0  0  0  0  0  0  0  0  0  0
    2.6378    0.1271    0.0000 C   0  0  0  0  0  0  0  0  0  0  0  0
    3.3523   -0.2854    0.0000 N   0  0  0  0  0  0  0  0  0  0  0  0
    3.3523   -1.1104    0.0000 C   0  0  0  0  0  0  0  0  0  0  0  0
    2.6378   -1.5229    0.0000 N   0  0  0  0  0  0  0  0  0  0  0  0
    1.9233   -1.1104    0.0000 C   0  0  0  0  0  0  0  0  0  0  0  0
    1.1387   -1.3654    0.0000 N   0  0  0  0  0  0  0  0  0  0  0  0
    0.8838   -2.1500    0.0000 C   0  0  0  0  0  0  0  0  0  0  0  0
    1.3687   -2.8174    0.0000 C   0  0  0  0  0  0  0  0  0  0  0  0
    0.8838   -3.4849    0.0000 C   0  0  0  0  0  0  0  0  0  0  0  0
    0.0992   -3.2299    0.0000 C   0  0  0  0  0  0  0  0  0  0  0  0
    0.0992   -2.4049    0.0000 C   0  0  0  0  0  0  0  0  0  0  0  0
    4.0668   -1.5229    0.0000 N   0  0  0  0  0  0  0  0  0  0  0  0
    4.0668   -2.3479    0.0000 C   0  0  0  0  0  0  0  0  0  0  0  0
    4.7812   -2.7604    0.0000 C   0  0  0  0  0  0  0  0  0  0  0  0
    4.7812   -3.5854    0.0000 C   0  0  0  0  0  0  0  0  0  0  0  0
    4.0668   -3.9979    0.0000 C   0  0  0  0  0  0  0  0  0  0  0  0
    3.3523   -3.5854    0.0000 C   0  0  0  0  0  0  0  0  0  0  0  0
    3.3523   -2.7604    0.0000 N   0  0  0  0  0  0  0  0  0  0  0  0
    4.0668   -4.8229    0.0000 N   0  0  0  0  0  0  0  0  0  0  0  0
    4.7812   -5.2354    0.0000 C   0  0  0  0  0  0  0  0  0  0  0  0
    4.7812   -6.0604    0.0000 C   0  0  0  0  0  0  0  0  0  0  0  0
    4.0668   -6.4729    0.0000 N   0  0  0  0  0  0  0  0  0  0  0  0
    3.3523   -6.0604    0.0000 C   0  0  0  0  0  0  0  0  0  0  0  0
    3.3523   -5.2354    0.0000 C   0  0  0  0  0  0  0  0  0  0  0  0
   -1.9437    0.9431    0.0000 H   0  0  0  0  0  0  0  0  0  0  0  0
   -1.9437   -0.9101    0.0000 H   0  0  0  0  0  0  0  0  0  0  0  0
   -2.4787    0.0165    0.0000 H   0  0  0  0  0  0  0  0  0  0  0  0
    0.8988    0.7310    0.0000 H   0  0  0  0  0  0  0  0  0  0  0  0
   -0.7062    1.6576    0.0000 H   0  0  0  0  0  0  0  0  0  0  0  0
    0.3638    1.6577    0.0000 H   0  0  0  0  0  0  0  0  0  0  0  0
    0.8198    0.9510    0.0000 H   0  0  0  0  0  0  0  0  0  0  0  0
    2.6378    1.1591    0.0000 H   0  0  0  0  0  0  0  0  0  0  0  0
    0.5531   -3.1676    0.0000 H   0  0  0  0  0  0  0  0  0  0  0  0
    2.4387   -2.8174    0.0000 H   0  0  0  0  0  0  0  0  0  0  0  0
    1.8545   -3.7708    0.0000 H   0  0  0  0  0  0  0  0  0  0  0  0
    1.2144   -4.5025    0.0000 H   0  0  0  0  0  0  0  0  0  0  0  0
    0.1272   -4.2415    0.0000 H   0  0  0  0  0  0  0  0  0  0  0  0
   -0.7665   -3.8588    0.0000 H   0  0  0  0  0  0  0  0  0  0  0  0
   -0.8542   -2.7441    0.0000 H   0  0  0  0  0  0  0  0  0  0  0  0
   -0.7664   -1.7760    0.0000 H   0  0  0  0  0  0  0  0  0  0  0  0
    0.2666   -1.3481    0.0000 H   0  0  0  0  0  0  0  0  0  0  0  0
    4.9194   -1.0306    0.0000 H   0  0  0  0  0  0  0  0  0  0  0  0
    5.6749   -2.2444    0.0000 H   0  0  0  0  0  0  0  0  0  0  0  0
    5.6749   -4.1014    0.0000 H   0  0  0  0  0  0  0  0  0  0  0  0
    2.4586   -4.1014    0.0000 H   0  0  0  0  0  0  0  0  0  0  0  0
    5.7079   -4.7004    0.0000 H   0  0  0  0  0  0  0  0  0  0  0  0
    5.7078   -5.7704    0.0000 H   0  0  0  0  0  0  0  0  0  0  0  0
    5.7079   -6.5954    0.0000 H   0  0  0  0  0  0  0  0  0  0  0  0
    4.7812   -7.1304    0.0000 H   0  0  0  0  0  0  0  0  0  0  0  0
    4.0668   -7.4929    0.0000 H   0  0  0  0  0  0  0  0  0  0  0  0
    2.4257   -6.5954    0.0000 H   0  0  0  0  0  0  0  0  0  0  0  0
    2.4257   -5.5254    0.0000 H   0  0  0  0  0  0  0  0  0  0  0  0
    2.4257   -4.7004    0.0000 H   0  0  0  0  0  0  0  0  0  0  0  0
    3.3523   -4.1654    0.0000 H   0  0  0  0  0  0  0  0  0  0  0  0
  1  2  1  0  0  0  0
  1 33  1  0  0  0  0
  1 34  1  0  0  0  0
  1 35  1  0  0  0  0
  2  3  1  0  0  0  0
  2  4  1  0  0  0  0
  3 36  1  0  0  0  0
  3 37  1  0  0  0  0
  3 38  1  0  0  0  0
  4  5  2  0  0  0  0
  4  6  1  0  0  0  0
  6  7  2  0  0  0  0
  6 14  1  0  0  0  0
  7  8  1  0  0  0  0
  7 39  1  0  0  0  0
  8  9  2  0  0  0  0
  8 13  1  0  0  0  0
  9 10  1  0  0  0  0
  9 40  1  0  0  0  0
 10 11  2  0  0  0  0
 11 12  1  0  0  0  0
 11 20  1  0  0  0  0
 12 13  2  0  0  0  0
 13 14  1  0  0  0  0
 14 15  1  0  0  0  0
 15 16  1  0  0  0  0
 15 19  1  0  0  0  0
 15 41  1  0  0  0  0
 16 17  1  0  0  0  0
 16 42  1  0  0  0  0
 16 43  1  0  0  0  0
 17 18  1  0  0  0  0
 17 44  1  0  0  0  0
 17 45  1  0  0  0  0
 18 19  1  0  0  0  0
 18 46  1  0  0  0  0
 18 47  1  0  0  0  0
 19 48  1  0  0  0  0
 19 49  1  0  0  0  0
 20 21  1  0  0  0  0
 20 50  1  0  0  0  0
 21 22  2  0  0  0  0
 21 26  1  0  0  0  0
 22 23  1  0  0  0  0
 22 51  1  0  0  0  0
 23 24  2  0  0  0  0
 23 52  1  0  0  0  0
 24 25  1  0  0  0  0
 24 27  1  0  0  0  0
 25 26  2  0  0  0  0
 25 53  1  0  0  0  0
 27 28  1  0  0  0  0
 27 32  1  0  0  0  0
 28 29  1  0  0  0  0
 28 54  1  0  0  0  0
 28 55  1  0  0  0  0
 29 30  1  0  0  0  0
 29 56  1  0  0  0  0
 29 57  1  0  0  0  0
 30 31  1  0  0  0  0
 30 58  1  0  0  0  0
 31 32  1  0  0  0  0
 31 59  1  0  0  0  0
 31 60  1  0  0  0  0
 32 61  1  0  0  0  0
 32 62  1  0  0  0  0
M  END
>  <DRUGBANK_ID>
DB11730

>  <COMMON_NAME>
Ribociclib

>  <CAS_NUMBER>
1211441-98-3

>  <UNII>
TK8ERE8P56

>  <SYNONYMS>
Ribociclib

$$$$
