
 OpenBabel10282417072D

 64 67  0  0  0  0  0  0  0  0999 V2000
   -0.5837   -1.4124    0.0000 C   0  0  0  0  0  0  0  0  0  0  0  0
   -0.1712   -0.6979    0.0000 C   0  0  0  0  0  0  0  0  0  0  0  0
    0.6538   -0.6979    0.0000 C   0  0  0  0  0  0  0  0  0  0  0  0
    1.1387   -0.0305    0.0000 N   0  0  0  0  0  0  0  0  0  0  0  0
    1.9233   -0.2854    0.0000 C   0  0  0  0  0  0  0  0  0  0  0  0
    2.6378    0.1271    0.0000 C   0  0  0  0  0  0  0  0  0  0  0  0
    3.3523   -0.2854    0.0000 N   0  0  0  0  0  0  0  0  0  0  0  0
    3.3523   -1.1104    0.0000 C   0  0  0  0  0  0  0  0  0  0  0  0
    2.6378   -1.5229    0.0000 C   0  0  0  0  0  0  0  0  0  0  0  0
    1.9233   -1.1104    0.0000 C   0  0  0  0  0  0  0  0  0  0  0  0
    1.1387   -1.3654    0.0000 N   0  0  0  0  0  0  0  0  0  0  0  0
    0.8838   -2.1500    0.0000 C   0  0  0  0  0  0  0  0  0  0  0  0
    1.4358   -2.7631    0.0000 C   0  0  0  0  0  0  0  0  0  0  0  0
    1.1809   -3.5477    0.0000 C   0  0  0  0  0  0  0  0  0  0  0  0
    0.3739   -3.7192    0.0000 C   0  0  0  0  0  0  0  0  0  0  0  0
   -0.1781   -3.1062    0.0000 C   0  0  0  0  0  0  0  0  0  0  0  0
    0.0768   -2.3215    0.0000 C   0  0  0  0  0  0  0  0  0  0  0  0
    0.1190   -4.5039    0.0000 C   0  0  0  0  0  0  0  0  0  0  0  0
   -0.6880   -4.6754    0.0000 C   0  0  0  0  0  0  0  0  0  0  0  0
   -0.9429   -5.4600    0.0000 N   0  0  0  0  0  0  0  0  0  0  0  0
   -1.7499   -5.6315    0.0000 C   0  0  0  0  0  0  0  0  0  0  0  0
   -2.3020   -5.0184    0.0000 O   0  0  0  0  0  0  0  0  0  0  0  0
   -2.0049   -6.4162    0.0000 N   0  0  0  0  0  0  0  0  0  0  0  0
   -2.8118   -6.5877    0.0000 S   0  0  0  0  0  0  0  0  0  0  0  0
   -2.9834   -5.7807    0.0000 O   0  0  0  0  0  0  0  0  0  0  0  0
   -2.6403   -7.3947    0.0000 O   0  0  0  0  0  0  0  0  0  0  0  0
   -3.6188   -6.7592    0.0000 C   0  0  0  0  0  0  0  0  0  0  0  0
   -3.8737   -7.5438    0.0000 C   0  0  0  0  0  0  0  0  0  0  0  0
   -4.6807   -7.7154    0.0000 C   0  0  0  0  0  0  0  0  0  0  0  0
   -5.2327   -7.1023    0.0000 C   0  0  0  0  0  0  0  0  0  0  0  0
   -4.9778   -6.3177    0.0000 C   0  0  0  0  0  0  0  0  0  0  0  0
   -4.1708   -6.1461    0.0000 C   0  0  0  0  0  0  0  0  0  0  0  0
   -6.0397   -7.2738    0.0000 C   0  0  0  0  0  0  0  0  0  0  0  0
    4.0668   -1.5229    0.0000 C   0  0  0  0  0  0  0  0  0  0  0  0
    2.6378    0.9521    0.0000 C   0  0  0  0  0  0  0  0  0  0  0  0
   -1.6537   -1.4124    0.0000 H   0  0  0  0  0  0  0  0  0  0  0  0
   -0.0487   -2.3390    0.0000 H   0  0  0  0  0  0  0  0  0  0  0  0
   -1.1187   -2.3391    0.0000 H   0  0  0  0  0  0  0  0  0  0  0  0
   -0.7062    0.2287    0.0000 H   0  0  0  0  0  0  0  0  0  0  0  0
    0.3638    0.2287    0.0000 H   0  0  0  0  0  0  0  0  0  0  0  0
    2.6378   -2.5549    0.0000 H   0  0  0  0  0  0  0  0  0  0  0  0
    2.4452   -2.5485    0.0000 H   0  0  0  0  0  0  0  0  0  0  0  0
    1.8714   -4.3146    0.0000 H   0  0  0  0  0  0  0  0  0  0  0  0
   -1.1875   -3.3208    0.0000 H   0  0  0  0  0  0  0  0  0  0  0  0
   -0.6138   -1.5546    0.0000 H   0  0  0  0  0  0  0  0  0  0  0  0
    0.8350   -5.2991    0.0000 H   0  0  0  0  0  0  0  0  0  0  0  0
   -0.2117   -5.5215    0.0000 H   0  0  0  0  0  0  0  0  0  0  0  0
   -1.4040   -3.8802    0.0000 H   0  0  0  0  0  0  0  0  0  0  0  0
   -1.7346   -4.8979    0.0000 H   0  0  0  0  0  0  0  0  0  0  0  0
   -0.2841   -6.1916    0.0000 H   0  0  0  0  0  0  0  0  0  0  0  0
   -1.3462   -7.1478    0.0000 H   0  0  0  0  0  0  0  0  0  0  0  0
   -3.1831   -8.3107    0.0000 H   0  0  0  0  0  0  0  0  0  0  0  0
   -4.9996   -8.6969    0.0000 H   0  0  0  0  0  0  0  0  0  0  0  0
   -5.6684   -5.5508    0.0000 H   0  0  0  0  0  0  0  0  0  0  0  0
   -3.8519   -5.1646    0.0000 H   0  0  0  0  0  0  0  0  0  0  0  0
   -6.7556   -6.4786    0.0000 H   0  0  0  0  0  0  0  0  0  0  0  0
   -6.3704   -8.2914    0.0000 H   0  0  0  0  0  0  0  0  0  0  0  0
   -7.0863   -7.4962    0.0000 H   0  0  0  0  0  0  0  0  0  0  0  0
    4.0668   -2.5929    0.0000 H   0  0  0  0  0  0  0  0  0  0  0  0
    4.9934   -0.9879    0.0000 H   0  0  0  0  0  0  0  0  0  0  0  0
    4.9935   -2.0579    0.0000 H   0  0  0  0  0  0  0  0  0  0  0  0
    3.5644    1.4871    0.0000 H   0  0  0  0  0  0  0  0  0  0  0  0
    1.7112    1.4871    0.0000 H   0  0  0  0  0  0  0  0  0  0  0  0
    2.6378    2.0221    0.0000 H   0  0  0  0  0  0  0  0  0  0  0  0
  1  2  1  0  0  0  0
  1 36  1  0  0  0  0
  1 37  1  0  0  0  0
  1 38  1  0  0  0  0
  2  3  1  0  0  0  0
  2 39  1  0  0  0  0
  2 40  1  0  0  0  0
  3  4  2  0  0  0  0
  3 11  1  0  0  0  0
  4  5  1  0  0  0  0
  5  6  2  0  0  0  0
  5 10  1  0  0  0  0
  6  7  1  0  0  0  0
  6 35  1  0  0  0  0
  7  8  2  0  0  0  0
  8  9  1  0  0  0  0
  8 34  1  0  0  0  0
  9 10  2  0  0  0  0
  9 41  1  0  0  0  0
 10 11  1  0  0  0  0
 11 12  1  0  0  0  0
 12 13  2  0  0  0  0
 12 17  1  0  0  0  0
 13 14  1  0  0  0  0
 13 42  1  0  0  0  0
 14 15  2  0  0  0  0
 14 43  1  0  0  0  0
 15 16  1  0  0  0  0
 15 18  1  0  0  0  0
 16 17  2  0  0  0  0
 16 44  1  0  0  0  0
 17 45  1  0  0  0  0
 18 19  1  0  0  0  0
 18 46  1  0  0  0  0
 18 47  1  0  0  0  0
 19 20  1  0  0  0  0
 19 48  1  0  0  0  0
 19 49  1  0  0  0  0
 20 21  1  0  0  0  0
 20 50  1  0  0  0  0
 21 22  2  0  0  0  0
 21 23  1  0  0  0  0
 23 24  1  0  0  0  0
 23 51  1  0  0  0  0
 24 25  2  0  0  0  0
 24 26  2  0  0  0  0
 24 27  1  0  0  0  0
 27 28  2  0  0  0  0
 27 32  1  0  0  0  0
 28 29  1  0  0  0  0
 28 52  1  0  0  0  0
 29 30  2  0  0  0  0
 29 53  1  0  0  0  0
 30 31  1  0  0  0  0
 30 33  1  0  0  0  0
 31 32  2  0  0  0  0
 31 54  1  0  0  0  0
 32 55  1  0  0  0  0
 33 56  1  0  0  0  0
 33 57  1  0  0  0  0
 33 58  1  0  0  0  0
 34 59  1  0  0  0  0
 34 60  1  0  0  0  0
 34 61  1  0  0  0  0
 35 62  1  0  0  0  0
 35 63  1  0  0  0  0
 35 64  1  0  0  0  0
M  END
>  <DRUGBANK_ID>
DB12836

>  <COMMON_NAME>
Grapiprant

>  <CAS_NUMBER>
415903-37-6

>  <UNII>
J9F5ZPH7NB

>  <SYNONYMS>
Grapiprant

$$$$
