
 OpenBabel10282417072D

 24 25  0  0  1  0  0  0  0  0999 V2000
    1.3556   -0.1271    0.0000 C   0  0  0  0  0  0  0  0  0  0  0  0
    1.3556    0.6979    0.0000 C   0  0  2  0  0  0  0  0  0  0  0  0
    2.0701    1.1104    0.0000 C   0  0  2  0  0  0  0  0  0  0  0  0
    2.0701    1.9354    0.0000 C   0  0  1  0  0  0  0  0  0  0  0  0
    1.3556    2.3479    0.0000 C   0  0  2  0  0  0  0  0  0  0  0  0
    0.6411    1.9354    0.0000 C   0  0  0  0  0  0  0  0  0  0  0  0
   -0.1435    2.1904    0.0000 N   0  0  0  0  0  0  0  0  0  0  0  0
   -0.6284    1.5229    0.0000 N   0  0  0  0  0  0  0  0  0  0  0  0
   -0.1435    0.8555    0.0000 N   0  0  0  0  0  0  0  0  0  0  0  0
    0.6411    1.1104    0.0000 N   0  0  0  0  0  0  0  0  0  0  0  0
    0.6411   -0.5396    0.0000 O   0  0  0  0  0  0  0  0  0  0  0  0
    2.7845    0.6979    0.0000 O   0  0  0  0  0  0  0  0  0  0  0  0
    2.7845    2.3479    0.0000 O   0  0  0  0  0  0  0  0  0  0  0  0
    1.3556    3.1729    0.0000 O   0  0  0  0  0  0  0  0  0  0  0  0
    2.1681    0.5547    0.0000 H   0  0  0  0  0  0  0  0  0  0  0  0
    2.3522    0.3352    0.0000 H   0  0  0  0  0  0  0  0  0  0  0  0
    2.7845    1.5229    0.0000 H   0  0  0  0  0  0  0  0  0  0  0  0
    2.0701    2.7604    0.0000 H   0  0  0  0  0  0  0  0  0  0  0  0
    2.2822   -0.6621    0.0000 H   0  0  0  0  0  0  0  0  0  0  0  0
    1.3556   -1.1971    0.0000 H   0  0  0  0  0  0  0  0  0  0  0  0
   -0.1989   -0.0546    0.0000 H   0  0  0  0  0  0  0  0  0  0  0  0
    2.7845   -0.2721    0.0000 H   0  0  0  0  0  0  0  0  0  0  0  0
    3.6246    1.8629    0.0000 H   0  0  0  0  0  0  0  0  0  0  0  0
    2.1956    3.6579    0.0000 H   0  0  0  0  0  0  0  0  0  0  0  0
  1 19  1  0  0  0  0
  1 20  1  0  0  0  0
  2  1  1  0  0  0  0
  2 15  1  6  0  0  0
  3  2  1  0  0  0  0
  3 12  1  0  0  0  0
  3 16  1  1  0  0  0
  4  3  1  0  0  0  0
  4 13  1  0  0  0  0
  4 17  1  6  0  0  0
  5  4  1  0  0  0  0
  5 14  1  0  0  0  0
  5 18  1  1  0  0  0
  6  5  1  0  0  0  0
  7  6  2  0  0  0  0
  8  7  1  0  0  0  0
  9  8  2  0  0  0  0
 10  2  1  0  0  0  0
 10  6  1  0  0  0  0
 10  9  1  0  0  0  0
 11  1  1  0  0  0  0
 11 21  1  0  0  0  0
 12 22  1  0  0  0  0
 13 23  1  0  0  0  0
 14 24  1  0  0  0  0
M  END
>  <DRUGBANK_ID>
DB02471

>  <SECONDARY_ACCESSION_NUMBERS>
EXPT02395

>  <COMMON_NAME>
Nojirimycine Tetrazole

$$$$
