LEG
 OpenBabel10282417072D

 36 36  0  0  0  0  0  0  0  0999 V2000
   -4.2176   -0.2936    0.0000 C   0  0  0  0  0  0  0  0  0  0  0  0
   -3.5031   -0.7061    0.0000 C   0  0  0  0  0  0  0  0  0  0  0  0
   -2.7887   -0.2936    0.0000 C   0  0  0  0  0  0  0  0  0  0  0  0
   -2.0742   -0.7061    0.0000 C   0  0  0  0  0  0  0  0  0  0  0  0
   -1.3597   -0.2936    0.0000 C   0  0  0  0  0  0  0  0  0  0  0  0
   -0.6452   -0.7061    0.0000 C   0  0  0  0  0  0  0  0  0  0  0  0
    0.0692   -0.2936    0.0000 C   0  0  0  0  0  0  0  0  0  0  0  0
    0.7837   -0.7061    0.0000 C   0  0  0  0  0  0  0  0  0  0  0  0
    1.4982   -0.2936    0.0000 C   0  0  0  0  0  0  0  0  0  0  0  0
    0.0692    0.5314    0.0000 C   0  0  0  0  0  0  0  0  0  0  0  0
    0.7837    0.9439    0.0000 C   0  0  0  0  0  0  0  0  0  0  0  0
    1.4982    0.5314    0.0000 C   0  0  0  0  0  0  0  0  0  0  0  0
    2.2126    0.9439    0.0000 C   0  0  0  0  0  0  0  0  0  0  0  0
    2.2126    1.7689    0.0000 O   0  0  0  0  0  0  0  0  0  0  0  0
    2.9271    0.5314    0.0000 C   0  0  0  0  0  0  0  0  0  0  0  0
    3.6416    0.9439    0.0000 C   0  0  0  0  0  0  0  0  0  0  0  0
   -4.2176    0.7764    0.0000 H   0  0  0  0  0  0  0  0  0  0  0  0
   -5.1442   -0.8286    0.0000 H   0  0  0  0  0  0  0  0  0  0  0  0
   -5.1443    0.2414    0.0000 H   0  0  0  0  0  0  0  0  0  0  0  0
   -3.5031   -1.7761    0.0000 H   0  0  0  0  0  0  0  0  0  0  0  0
   -2.5764   -1.2411    0.0000 H   0  0  0  0  0  0  0  0  0  0  0  0
   -2.7887    0.7764    0.0000 H   0  0  0  0  0  0  0  0  0  0  0  0
   -1.8621    0.2414    0.0000 H   0  0  0  0  0  0  0  0  0  0  0  0
   -2.0742   -1.7761    0.0000 H   0  0  0  0  0  0  0  0  0  0  0  0
   -1.1476   -1.2411    0.0000 H   0  0  0  0  0  0  0  0  0  0  0  0
   -1.3597    0.7764    0.0000 H   0  0  0  0  0  0  0  0  0  0  0  0
   -0.4331    0.2414    0.0000 H   0  0  0  0  0  0  0  0  0  0  0  0
   -0.6452   -1.7761    0.0000 H   0  0  0  0  0  0  0  0  0  0  0  0
    0.2815   -1.2411    0.0000 H   0  0  0  0  0  0  0  0  0  0  0  0
    0.7837   -1.7381    0.0000 H   0  0  0  0  0  0  0  0  0  0  0  0
    2.3919   -0.8096    0.0000 H   0  0  0  0  0  0  0  0  0  0  0  0
   -0.8245    1.0474    0.0000 H   0  0  0  0  0  0  0  0  0  0  0  0
    0.7837    1.9759    0.0000 H   0  0  0  0  0  0  0  0  0  0  0  0
    2.9271   -0.5006    0.0000 H   0  0  0  0  0  0  0  0  0  0  0  0
    4.5353    0.4279    0.0000 H   0  0  0  0  0  0  0  0  0  0  0  0
    3.6416    1.9759    0.0000 H   0  0  0  0  0  0  0  0  0  0  0  0
  1  2  1  0  0  0  0
  1 17  1  0  0  0  0
  1 18  1  0  0  0  0
  1 19  1  0  0  0  0
  2  3  1  0  0  0  0
  2 20  1  0  0  0  0
  2 21  1  0  0  0  0
  3  4  1  0  0  0  0
  3 22  1  0  0  0  0
  3 23  1  0  0  0  0
  4  5  1  0  0  0  0
  4 24  1  0  0  0  0
  4 25  1  0  0  0  0
  5  6  1  0  0  0  0
  5 26  1  0  0  0  0
  5 27  1  0  0  0  0
  6  7  1  0  0  0  0
  6 28  1  0  0  0  0
  6 29  1  0  0  0  0
  7 10  1  0  0  0  0
  7  8  2  0  0  0  0
  8  9  1  0  0  0  0
  8 30  1  0  0  0  0
  9 12  2  0  0  0  0
  9 31  1  0  0  0  0
 10 11  2  0  0  0  0
 10 32  1  0  0  0  0
 11 12  1  0  0  0  0
 11 33  1  0  0  0  0
 12 13  1  0  0  0  0
 13 14  2  0  0  0  0
 13 15  1  0  0  0  0
 15 16  2  0  0  0  0
 15 34  1  0  0  0  0
 16 35  1  0  0  0  0
 16 36  1  0  0  0  0
M  END
>  <DRUGBANK_ID>
DB08085

>  <COMMON_NAME>
1-(4-HEXYLPHENYL)PROP-2-EN-1-ONE

>  <UNII>
MA965OF9ZR

$$$$
