5PP
 OpenBabel10282417072D

 39 40  0  0  0  0  0  0  0  0999 V2000
    0.1320   -2.0410    0.0000 O   0  0  0  0  0  0  0  0  0  0  0  0
    0.1320   -1.2160    0.0000 C   0  0  0  0  0  0  0  0  0  0  0  0
   -0.5825   -0.8035    0.0000 C   0  0  0  0  0  0  0  0  0  0  0  0
   -1.2970   -1.2160    0.0000 O   0  0  0  0  0  0  0  0  0  0  0  0
   -2.0114   -0.8035    0.0000 C   0  0  0  0  0  0  0  0  0  0  0  0
   -2.7259   -1.2160    0.0000 C   0  0  0  0  0  0  0  0  0  0  0  0
   -3.4404   -0.8035    0.0000 C   0  0  0  0  0  0  0  0  0  0  0  0
   -3.4404    0.0215    0.0000 C   0  0  0  0  0  0  0  0  0  0  0  0
   -2.7259    0.4340    0.0000 C   0  0  0  0  0  0  0  0  0  0  0  0
   -2.0114    0.0215    0.0000 C   0  0  0  0  0  0  0  0  0  0  0  0
   -0.5825    0.0215    0.0000 C   0  0  0  0  0  0  0  0  0  0  0  0
    0.1320    0.4340    0.0000 C   0  0  0  0  0  0  0  0  0  0  0  0
    0.8464    0.0215    0.0000 C   0  0  0  0  0  0  0  0  0  0  0  0
    0.8464   -0.8035    0.0000 C   0  0  0  0  0  0  0  0  0  0  0  0
    1.5609    0.4340    0.0000 C   0  0  0  0  0  0  0  0  0  0  0  0
    2.2754    0.0215    0.0000 C   0  0  0  0  0  0  0  0  0  0  0  0
    2.9899    0.4340    0.0000 C   0  0  0  0  0  0  0  0  0  0  0  0
    3.7043    0.0215    0.0000 C   0  0  0  0  0  0  0  0  0  0  0  0
    4.4188    0.4340    0.0000 C   0  0  0  0  0  0  0  0  0  0  0  0
   -0.6795   -2.5095    0.0000 H   0  0  0  0  0  0  0  0  0  0  0  0
   -2.7259   -2.2480    0.0000 H   0  0  0  0  0  0  0  0  0  0  0  0
   -4.3341   -1.3195    0.0000 H   0  0  0  0  0  0  0  0  0  0  0  0
   -4.3341    0.5375    0.0000 H   0  0  0  0  0  0  0  0  0  0  0  0
   -2.7259    1.4660    0.0000 H   0  0  0  0  0  0  0  0  0  0  0  0
   -1.1177    0.5375    0.0000 H   0  0  0  0  0  0  0  0  0  0  0  0
   -1.4762    0.5375    0.0000 H   0  0  0  0  0  0  0  0  0  0  0  0
    0.1320    1.4660    0.0000 H   0  0  0  0  0  0  0  0  0  0  0  0
    1.7401   -1.3195    0.0000 H   0  0  0  0  0  0  0  0  0  0  0  0
    1.5609    1.5040    0.0000 H   0  0  0  0  0  0  0  0  0  0  0  0
    2.4875    0.9690    0.0000 H   0  0  0  0  0  0  0  0  0  0  0  0
    2.2754   -1.0485    0.0000 H   0  0  0  0  0  0  0  0  0  0  0  0
    3.2020   -0.5135    0.0000 H   0  0  0  0  0  0  0  0  0  0  0  0
    2.9899    1.5040    0.0000 H   0  0  0  0  0  0  0  0  0  0  0  0
    3.9166    0.9690    0.0000 H   0  0  0  0  0  0  0  0  0  0  0  0
    3.7043   -1.0485    0.0000 H   0  0  0  0  0  0  0  0  0  0  0  0
    4.6309   -0.5135    0.0000 H   0  0  0  0  0  0  0  0  0  0  0  0
    5.3454   -0.1010    0.0000 H   0  0  0  0  0  0  0  0  0  0  0  0
    4.4188    1.5040    0.0000 H   0  0  0  0  0  0  0  0  0  0  0  0
    5.3455    0.9690    0.0000 H   0  0  0  0  0  0  0  0  0  0  0  0
  1  2  1  0  0  0  0
  1 20  1  0  0  0  0
  2  3  2  0  0  0  0
  2 14  1  0  0  0  0
  3  4  1  0  0  0  0
  3 11  1  0  0  0  0
  4  5  1  0  0  0  0
  5  6  1  0  0  0  0
  5 10  2  0  0  0  0
  6  7  2  0  0  0  0
  6 21  1  0  0  0  0
  7  8  1  0  0  0  0
  7 22  1  0  0  0  0
  8  9  2  0  0  0  0
  8 23  1  0  0  0  0
  9 10  1  0  0  0  0
  9 24  1  0  0  0  0
 10 25  1  0  0  0  0
 11 12  2  0  0  0  0
 11 26  1  0  0  0  0
 12 13  1  0  0  0  0
 12 27  1  0  0  0  0
 13 14  2  0  0  0  0
 13 15  1  0  0  0  0
 14 28  1  0  0  0  0
 15 16  1  0  0  0  0
 15 29  1  0  0  0  0
 15 30  1  0  0  0  0
 16 17  1  0  0  0  0
 16 31  1  0  0  0  0
 16 32  1  0  0  0  0
 17 18  1  0  0  0  0
 17 33  1  0  0  0  0
 17 34  1  0  0  0  0
 18 19  1  0  0  0  0
 18 35  1  0  0  0  0
 18 36  1  0  0  0  0
 19 37  1  0  0  0  0
 19 38  1  0  0  0  0
 19 39  1  0  0  0  0
M  END
>  <DRUGBANK_ID>
DB07178

>  <COMMON_NAME>
5-PENTYL-2-PHENOXYPHENOL

$$$$
