317
 OpenBabel10282417072D

 55 58  0  0  0  0  0  0  0  0999 V2000
   10.2087   -2.9100    0.0000 Cl  0  0  0  0  0  0  0  0  0  0  0  0
   11.6471   -2.1016    0.0000 F   0  0  0  0  0  0  0  0  0  0  0  0
    1.6500   -0.3901    0.0000 O   0  0  0  0  0  0  0  0  0  0  0  0
    5.9370    0.4349    0.0000 O   0  0  0  0  0  0  0  0  0  0  0  0
    5.9370    2.0850    0.0000 O   0  0  0  0  0  0  0  0  0  0  0  0
    3.0791    0.4349    0.0000 N   0  0  0  0  0  0  0  0  0  0  0  0
    8.8084   -0.4186    0.0000 N   0  0  0  0  0  0  0  0  0  0  0  0
    8.8180    2.1136    0.0000 N   0  0  0  0  0  0  0  0  0  0  0  0
    9.5654    0.8303    0.0000 N   0  0  0  0  0  0  0  0  0  0  0  0
    3.7935    0.8475    0.0000 C   0  0  0  0  0  0  0  0  0  0  0  0
    2.3645    0.8475    0.0000 C   0  0  0  0  0  0  0  0  0  0  0  0
    3.0791   -0.3901    0.0000 C   0  0  0  0  0  0  0  0  0  0  0  0
    4.5080    0.4349    0.0000 C   0  0  0  0  0  0  0  0  0  0  0  0
    1.6500    0.4349    0.0000 C   0  0  0  0  0  0  0  0  0  0  0  0
    2.3645   -0.8026    0.0000 C   0  0  0  0  0  0  0  0  0  0  0  0
    5.2224    0.8475    0.0000 C   0  0  0  0  0  0  0  0  0  0  0  0
    6.6515    0.8475    0.0000 C   0  0  0  0  0  0  0  0  0  0  0  0
    8.0804    0.8475    0.0000 C   0  0  0  0  0  0  0  0  0  0  0  0
    7.3659    0.4349    0.0000 C   0  0  0  0  0  0  0  0  0  0  0  0
    6.6515    1.6725    0.0000 C   0  0  0  0  0  0  0  0  0  0  0  0
    8.0804    1.6725    0.0000 C   0  0  0  0  0  0  0  0  0  0  0  0
    7.3659    2.0850    0.0000 C   0  0  0  0  0  0  0  0  0  0  0  0
    8.8180    0.4063    0.0000 C   0  0  0  0  0  0  0  0  0  0  0  0
    9.5181   -0.8394    0.0000 C   0  0  0  0  0  0  0  0  0  0  0  0
    9.5654    1.6896    0.0000 C   0  0  0  0  0  0  0  0  0  0  0  0
    5.9370    2.9100    0.0000 C   0  0  0  0  0  0  0  0  0  0  0  0
    9.5085   -1.6643    0.0000 C   0  0  0  0  0  0  0  0  0  0  0  0
   10.2372   -0.4351    0.0000 C   0  0  0  0  0  0  0  0  0  0  0  0
   10.2182   -2.0851    0.0000 C   0  0  0  0  0  0  0  0  0  0  0  0
   10.9469   -0.8559    0.0000 C   0  0  0  0  0  0  0  0  0  0  0  0
   10.9374   -1.6808    0.0000 C   0  0  0  0  0  0  0  0  0  0  0  0
    7.9501   -0.9009    0.0000 H   0  0  0  0  0  0  0  0  0  0  0  0
    3.7935    1.9175    0.0000 H   0  0  0  0  0  0  0  0  0  0  0  0
    4.7202    1.3825    0.0000 H   0  0  0  0  0  0  0  0  0  0  0  0
    2.3645    1.9175    0.0000 H   0  0  0  0  0  0  0  0  0  0  0  0
    1.4378    1.3824    0.0000 H   0  0  0  0  0  0  0  0  0  0  0  0
    4.0057   -0.9251    0.0000 H   0  0  0  0  0  0  0  0  0  0  0  0
    3.0790   -1.4601    0.0000 H   0  0  0  0  0  0  0  0  0  0  0  0
    4.5080   -0.6351    0.0000 H   0  0  0  0  0  0  0  0  0  0  0  0
    5.4347   -0.1000    0.0000 H   0  0  0  0  0  0  0  0  0  0  0  0
    0.7233    0.9699    0.0000 H   0  0  0  0  0  0  0  0  0  0  0  0
    1.6499    1.5049    0.0000 H   0  0  0  0  0  0  0  0  0  0  0  0
    2.3645   -1.8726    0.0000 H   0  0  0  0  0  0  0  0  0  0  0  0
    3.2911   -1.3377    0.0000 H   0  0  0  0  0  0  0  0  0  0  0  0
    5.2223    1.9175    0.0000 H   0  0  0  0  0  0  0  0  0  0  0  0
    4.2957    1.3824    0.0000 H   0  0  0  0  0  0  0  0  0  0  0  0
    7.3659   -0.5971    0.0000 H   0  0  0  0  0  0  0  0  0  0  0  0
    7.3659    3.1170    0.0000 H   0  0  0  0  0  0  0  0  0  0  0  0
   10.4572    2.2090    0.0000 H   0  0  0  0  0  0  0  0  0  0  0  0
    6.8636    3.4450    0.0000 H   0  0  0  0  0  0  0  0  0  0  0  0
    5.0104    3.4450    0.0000 H   0  0  0  0  0  0  0  0  0  0  0  0
    5.9370    3.9800    0.0000 H   0  0  0  0  0  0  0  0  0  0  0  0
    8.6088   -2.1699    0.0000 H   0  0  0  0  0  0  0  0  0  0  0  0
   10.2491    0.5968    0.0000 H   0  0  0  0  0  0  0  0  0  0  0  0
   11.8465   -0.3503    0.0000 H   0  0  0  0  0  0  0  0  0  0  0  0
  1 29  1  0  0  0  0
  2 31  1  0  0  0  0
  3 14  1  0  0  0  0
  3 15  1  0  0  0  0
  4 16  1  0  0  0  0
  4 17  1  0  0  0  0
  5 20  1  0  0  0  0
  5 26  1  0  0  0  0
  6 10  1  0  0  0  0
  6 11  1  0  0  0  0
  6 12  1  0  0  0  0
  7 23  1  0  0  0  0
  7 24  1  0  0  0  0
  7 32  1  0  0  0  0
  8 21  1  0  0  0  0
  8 25  2  0  0  0  0
  9 23  2  0  0  0  0
  9 25  1  0  0  0  0
 10 13  1  0  0  0  0
 10 33  1  0  0  0  0
 10 34  1  0  0  0  0
 11 14  1  0  0  0  0
 11 35  1  0  0  0  0
 11 36  1  0  0  0  0
 12 15  1  0  0  0  0
 12 37  1  0  0  0  0
 12 38  1  0  0  0  0
 13 16  1  0  0  0  0
 13 39  1  0  0  0  0
 13 40  1  0  0  0  0
 14 41  1  0  0  0  0
 14 42  1  0  0  0  0
 15 43  1  0  0  0  0
 15 44  1  0  0  0  0
 16 45  1  0  0  0  0
 16 46  1  0  0  0  0
 17 19  1  0  0  0  0
 17 20  2  0  0  0  0
 18 19  2  0  0  0  0
 18 21  1  0  0  0  0
 18 23  1  0  0  0  0
 19 47  1  0  0  0  0
 20 22  1  0  0  0  0
 21 22  2  0  0  0  0
 22 48  1  0  0  0  0
 24 27  2  0  0  0  0
 24 28  1  0  0  0  0
 25 49  1  0  0  0  0
 26 50  1  0  0  0  0
 26 51  1  0  0  0  0
 26 52  1  0  0  0  0
 27 29  1  0  0  0  0
 27 53  1  0  0  0  0
 28 30  2  0  0  0  0
 28 54  1  0  0  0  0
 29 31  2  0  0  0  0
 30 31  1  0  0  0  0
 30 55  1  0  0  0  0
M  END
>  <DRUGBANK_ID>
DB00317

>  <SECONDARY_ACCESSION_NUMBERS>
APRD00997; DB07998

>  <COMMON_NAME>
Gefitinib

>  <CAS_NUMBER>
184475-35-2

>  <UNII>
S65743JHBS

>  <SYNONYMS>
4-(3'-chloro-4'-fluoroanilino)-7-methoxy-6-(3-morpholinopropoxy)quinazoline; Gefitinib; N-(3-chloro-4-fluorophenyl)-7-methoxy-6-(3-(4-morpholinyl)propoxy)-4-quinazolinamine

$$$$
