
 OpenBabel10282417072D

 57 59  0  0  0  0  0  0  0  0999 V2000
    0.5389    1.6559    0.0000 S   0  0  0  0  0  0  0  0  0  0  0  0
   -1.5521    0.2002    0.0000 O   0  0  0  0  0  0  0  0  0  0  0  0
   -2.5884    2.0666    0.0000 O   0  0  0  0  0  0  0  0  0  0  0  0
   -3.6460    0.6163    0.0000 O   0  0  0  0  0  0  0  0  0  0  0  0
    0.0551    2.3242    0.0000 O   0  0  0  0  0  0  0  0  0  0  0  0
    1.0226    0.9876    0.0000 O   0  0  0  0  0  0  0  0  0  0  0  0
    2.0451    0.9821    0.0000 O   0  0  0  0  0  0  0  0  0  0  0  0
   -2.5935   -0.8375    0.0000 N   0  0  0  0  0  0  0  0  0  0  0  0
   -0.1293    1.1721    0.0000 N   0  0  0  0  0  0  0  0  0  0  0  0
   -2.5935   -2.1653    0.0000 N   0  0  0  0  0  0  0  0  0  0  0  0
    1.2072    2.1397    0.0000 N   0  0  0  0  0  0  0  0  0  0  0  0
   -4.0886   -0.6764    0.0000 N   0  0  0  0  0  0  0  0  0  0  0  0
    2.5438    3.1072    0.0000 N   0  0  0  0  0  0  0  0  0  0  0  0
   -4.8031   -1.9139    0.0000 N   0  0  0  0  0  0  0  0  0  0  0  0
   -4.0886   -3.1514    0.0000 N   0  0  0  0  0  0  0  0  0  0  0  0
   -1.5506    1.0252    0.0000 C   0  0  1  0  0  0  0  0  0  0  0  0
   -2.3349    1.2815    0.0000 C   0  0  2  0  0  0  0  0  0  0  0  0
   -2.8210    0.6149    0.0000 C   0  0  2  0  0  0  0  0  0  0  0  0
   -2.3372   -0.0532    0.0000 C   0  0  1  0  0  0  0  0  0  0  0  0
   -0.8824    1.5090    0.0000 C   0  0  0  0  0  0  0  0  0  0  0  0
   -3.3741   -1.0889    0.0000 C   0  0  0  0  0  0  0  0  0  0  0  0
   -2.1120   -1.5014    0.0000 C   0  0  0  0  0  0  0  0  0  0  0  0
   -3.3741   -1.9139    0.0000 C   0  0  0  0  0  0  0  0  0  0  0  0
    3.3817    1.9497    0.0000 C   0  0  2  0  0  0  0  0  0  0  0  0
    2.6286    2.2866    0.0000 C   0  0  1  0  0  0  0  0  0  0  0  0
    4.0499    2.4335    0.0000 C   0  0  0  0  0  0  0  0  0  0  0  0
    1.9603    1.8028    0.0000 C   0  0  0  0  0  0  0  0  0  0  0  0
   -4.0886   -2.3264    0.0000 C   0  0  0  0  0  0  0  0  0  0  0  0
    3.4665    1.1291    0.0000 C   0  0  0  0  0  0  0  0  0  0  0  0
    4.8031    2.0966    0.0000 C   0  0  0  0  0  0  0  0  0  0  0  0
   -4.8031   -1.0889    0.0000 C   0  0  0  0  0  0  0  0  0  0  0  0
   -0.0767    0.6633    0.0000 H   0  0  0  0  0  0  0  0  0  0  0  0
    1.1546    2.6485    0.0000 H   0  0  0  0  0  0  0  0  0  0  0  0
    2.9581    3.4072    0.0000 H   0  0  0  0  0  0  0  0  0  0  0  0
    2.0768    3.3161    0.0000 H   0  0  0  0  0  0  0  0  0  0  0  0
   -4.5316   -3.4072    0.0000 H   0  0  0  0  0  0  0  0  0  0  0  0
   -3.6456   -3.4072    0.0000 H   0  0  0  0  0  0  0  0  0  0  0  0
   -1.9380    2.7863    0.0000 H   0  0  0  0  0  0  0  0  0  0  0  0
   -4.1296    1.4572    0.0000 H   0  0  0  0  0  0  0  0  0  0  0  0
   -0.5981    0.5378    0.0000 H   0  0  0  0  0  0  0  0  0  0  0  0
   -1.5770    2.0368    0.0000 H   0  0  0  0  0  0  0  0  0  0  0  0
   -3.3051    1.5691    0.0000 H   0  0  0  0  0  0  0  0  0  0  0  0
   -1.5820   -0.8112    0.0000 H   0  0  0  0  0  0  0  0  0  0  0  0
   -0.9924    2.5733    0.0000 H   0  0  0  0  0  0  0  0  0  0  0  0
   -1.8592    1.9458    0.0000 H   0  0  0  0  0  0  0  0  0  0  0  0
   -1.0800   -1.5014    0.0000 H   0  0  0  0  0  0  0  0  0  0  0  0
    2.5149    1.3223    0.0000 H   0  0  0  0  0  0  0  0  0  0  0  0
    3.4954    2.9140    0.0000 H   0  0  0  0  0  0  0  0  0  0  0  0
    3.9398    3.4978    0.0000 H   0  0  0  0  0  0  0  0  0  0  0  0
    4.9166    3.0610    0.0000 H   0  0  0  0  0  0  0  0  0  0  0  0
    2.5998    0.5017    0.0000 H   0  0  0  0  0  0  0  0  0  0  0  0
    4.4432    0.6922    0.0000 H   0  0  0  0  0  0  0  0  0  0  0  0
    3.5765    0.0648    0.0000 H   0  0  0  0  0  0  0  0  0  0  0  0
    4.9131    1.0323    0.0000 H   0  0  0  0  0  0  0  0  0  0  0  0
    5.6698    2.7240    0.0000 H   0  0  0  0  0  0  0  0  0  0  0  0
    5.7798    1.6597    0.0000 H   0  0  0  0  0  0  0  0  0  0  0  0
   -5.6968   -0.5729    0.0000 H   0  0  0  0  0  0  0  0  0  0  0  0
  1  5  2  0  0  0  0
  1  6  2  0  0  0  0
  1  9  1  0  0  0  0
  1 11  1  0  0  0  0
  2 16  1  0  0  0  0
  2 19  1  0  0  0  0
  3 38  1  0  0  0  0
  4 39  1  0  0  0  0
  7 27  2  0  0  0  0
  8 21  1  0  0  0  0
  8 22  1  0  0  0  0
  9 20  1  0  0  0  0
  9 32  1  0  0  0  0
 10 22  2  0  0  0  0
 10 23  1  0  0  0  0
 11 27  1  0  0  0  0
 11 33  1  0  0  0  0
 12 21  2  0  0  0  0
 12 31  1  0  0  0  0
 13 34  1  0  0  0  0
 13 35  1  0  0  0  0
 14 28  1  0  0  0  0
 14 31  2  0  0  0  0
 15 28  1  0  0  0  0
 15 36  1  0  0  0  0
 15 37  1  0  0  0  0
 16 17  1  0  0  0  0
 16 20  1  0  0  0  0
 16 40  1  6  0  0  0
 17  3  1  0  0  0  0
 17 18  1  0  0  0  0
 17 41  1  1  0  0  0
 18  4  1  0  0  0  0
 18 19  1  0  0  0  0
 18 42  1  1  0  0  0
 19  8  1  0  0  0  0
 19 43  1  6  0  0  0
 20 44  1  0  0  0  0
 20 45  1  0  0  0  0
 21 23  1  0  0  0  0
 22 46  1  0  0  0  0
 23 28  2  0  0  0  0
 24 25  1  0  0  0  0
 24 26  1  0  0  0  0
 24 29  1  0  0  0  0
 24 47  1  1  0  0  0
 25 13  1  0  0  0  0
 25 27  1  0  0  0  0
 25 48  1  6  0  0  0
 26 30  1  0  0  0  0
 26 49  1  0  0  0  0
 26 50  1  0  0  0  0
 29 51  1  0  0  0  0
 29 52  1  0  0  0  0
 29 53  1  0  0  0  0
 30 54  1  0  0  0  0
 30 55  1  0  0  0  0
 30 56  1  0  0  0  0
 31 57  1  0  0  0  0
M  END
>  <DRUGBANK_ID>
DB01755

>  <SECONDARY_ACCESSION_NUMBERS>
EXPT01859

>  <COMMON_NAME>
N-[Isoleucinyl]-N'-[adenosyl]-diaminosufone

>  <SYNONYMS>
5'-Deoxy-5'-[(L-isoleucylsulfamoyl)amino]adenosine

$$$$
