Structure #1
 OpenBabel10282417072D

 19 18  0  0  0  0  0  0  0  0999 V2000
    2.2539    0.8250    0.0000 C   0  0  0  0  0  0  0  0  0  0  0  0
    1.9520   -0.3020    0.0000 C   0  0  0  0  0  0  0  0  0  0  0  0
    0.8250    0.0000    0.0000 C   0  0  0  0  0  0  0  0  0  0  0  0
    1.5395    0.4125    0.0000 C   0  0  0  0  0  0  0  0  0  0  0  0
    1.1270    1.1270    0.0000 N   0  0  0  0  0  0  0  0  0  0  0  0
    2.2539    1.6500    0.0000 O   0  0  0  0  0  0  0  0  0  0  0  0
    2.7770   -0.3020    0.0000 O   0  0  0  0  0  0  0  0  0  0  0  0
    0.1105    0.4125    0.0000 O   0  0  0  0  0  0  0  0  0  0  0  0
    3.1806    0.2900    0.0000 H   0  0  0  0  0  0  0  0  0  0  0  0
    3.1805    1.3600    0.0000 H   0  0  0  0  0  0  0  0  0  0  0  0
    1.4170   -1.2286    0.0000 H   0  0  0  0  0  0  0  0  0  0  0  0
    2.4870   -1.2286    0.0000 H   0  0  0  0  0  0  0  0  0  0  0  0
    0.8250   -1.0700    0.0000 H   0  0  0  0  0  0  0  0  0  0  0  0
   -0.1016   -0.5350    0.0000 H   0  0  0  0  0  0  0  0  0  0  0  0
    1.6370    2.0103    0.0000 H   0  0  0  0  0  0  0  0  0  0  0  0
    0.1070    1.1270    0.0000 H   0  0  0  0  0  0  0  0  0  0  0  0
    3.0939    2.1350    0.0000 H   0  0  0  0  0  0  0  0  0  0  0  0
    3.2620   -1.1420    0.0000 H   0  0  0  0  0  0  0  0  0  0  0  0
    0.1105    1.3825    0.0000 H   0  0  0  0  0  0  0  0  0  0  0  0
  1  4  1  0  0  0  0
  1  6  1  0  0  0  0
  1  9  1  0  0  0  0
  1 10  1  0  0  0  0
  2  4  1  0  0  0  0
  2  7  1  0  0  0  0
  2 11  1  0  0  0  0
  2 12  1  0  0  0  0
  3  4  1  0  0  0  0
  3  8  1  0  0  0  0
  3 13  1  0  0  0  0
  3 14  1  0  0  0  0
  4  5  1  0  0  0  0
  5 15  1  0  0  0  0
  5 16  1  0  0  0  0
  6 17  1  0  0  0  0
  7 18  1  0  0  0  0
  8 19  1  0  0  0  0
M  END
>  <DRUGBANK_ID>
DB03754

>  <SECONDARY_ACCESSION_NUMBERS>
EXPT03072

>  <COMMON_NAME>
Tromethamine

>  <CAS_NUMBER>
77-86-1

>  <UNII>
023C2WHX2V

>  <SYNONYMS>
1,1,1-tris(hydroxymethyl)methanamine; 2-Amino-2-(hydroxymethyl)-1,3-propanediol; aminotris(hydroxymethyl)methane; THAM; Tris; Tris(hydroxymethyl)aminomethane; Trometamol; Tromethamine

$$$$
