
 OpenBabel10282417072D

 26 22  0  0  0  0  0  0  0  0999 V2000
    0.4125    0.4287    0.0000 C   0  0  0  0  0  0  0  0  0  0  0  0
    0.0000   -0.2858    0.0000 C   0  0  0  0  0  0  0  0  0  0  0  0
    0.0000    1.1432    0.0000 N   0  0  0  0  0  0  0  0  0  0  0  0
    0.4125   -1.0003    0.0000 O   0  0  0  0  0  0  0  0  0  0  0  0
   -0.8250   -0.2858    0.0000 O   0  5  0  0  0  0  0  0  0  0  0  0
    3.7714    0.4287    0.0000 C   0  0  0  0  0  0  0  0  0  0  0  0
    3.3589   -0.2858    0.0000 C   0  0  0  0  0  0  0  0  0  0  0  0
    3.3589    1.1432    0.0000 N   0  0  0  0  0  0  0  0  0  0  0  0
    3.7714   -1.0003    0.0000 O   0  0  0  0  0  0  0  0  0  0  0  0
    2.5339   -0.2858    0.0000 O   0  5  0  0  0  0  0  0  0  0  0  0
    0.0000   -3.4753    0.0000 Fe  0  2  0  0  0  0  0  0  0  0  0  0
    2.8286   -2.6503    0.0000 O   0  0  0  0  0  0  0  0  0  0  0  0
    2.8286   -4.3003    0.0000 O   0  0  0  0  0  0  0  0  0  0  0  0
    2.0036   -3.4753    0.0000 O   0  0  0  0  0  0  0  0  0  0  0  0
    3.6536   -3.4753    0.0000 O   0  0  0  0  0  0  0  0  0  0  0  0
    2.8286   -3.4753    0.0000 S   0  0  0  0  0  0  0  0  0  0  0  0
    1.4825    0.4287    0.0000 H   0  0  0  0  0  0  0  0  0  0  0  0
    0.9475    1.3553    0.0000 H   0  0  0  0  0  0  0  0  0  0  0  0
    0.5100    2.0265    0.0000 H   0  0  0  0  0  0  0  0  0  0  0  0
   -1.0200    1.1432    0.0000 H   0  0  0  0  0  0  0  0  0  0  0  0
    4.8414    0.4287    0.0000 H   0  0  0  0  0  0  0  0  0  0  0  0
    4.3064    1.3553    0.0000 H   0  0  0  0  0  0  0  0  0  0  0  0
    3.8689    2.0265    0.0000 H   0  0  0  0  0  0  0  0  0  0  0  0
    2.3389    1.1432    0.0000 H   0  0  0  0  0  0  0  0  0  0  0  0
    3.6686   -2.1653    0.0000 H   0  0  0  0  0  0  0  0  0  0  0  0
    1.9886   -4.7853    0.0000 H   0  0  0  0  0  0  0  0  0  0  0  0
  1 17  1  0  0  0  0
  1 18  1  0  0  0  0
  2  1  1  0  0  0  0
  3  1  1  0  0  0  0
  3 19  1  0  0  0  0
  3 20  1  0  0  0  0
  4  2  2  0  0  0  0
  5  2  1  0  0  0  0
  6 21  1  0  0  0  0
  6 22  1  0  0  0  0
  7  6  1  0  0  0  0
  8  6  1  0  0  0  0
  8 23  1  0  0  0  0
  8 24  1  0  0  0  0
  9  7  2  0  0  0  0
 10  7  1  0  0  0  0
 12 25  1  0  0  0  0
 13 26  1  0  0  0  0
 16 12  1  0  0  0  0
 16 13  1  0  0  0  0
 16 14  2  0  0  0  0
 16 15  2  0  0  0  0
M  CHG  3   5  -1  10  -1  11   2
M  END
>  <DRUGBANK_ID>
DB14501

>  <SECONDARY_ACCESSION_NUMBERS>
DBSALT000081

>  <COMMON_NAME>
Ferrous glycine sulfate

>  <CAS_NUMBER>
14729-84-1

>  <UNII>
56PS9HY5XI

>  <SYNONYMS>
Ferrous (II) Glycine Sulphate Complex; Ferrous glycine sulphate; Iron(II) glycine sulfate

$$$$
