
 OpenBabel10282417072D

 30 32  0  0  0  0  0  0  0  0999 V2000
    1.2949    0.4125    0.0000 C   0  0  0  0  0  0  0  0  0  0  0  0
    3.9934    0.8250    0.0000 C   0  0  0  0  0  0  0  0  0  0  0  0
    1.7798    1.0799    0.0000 C   0  0  0  0  0  0  0  0  0  0  0  0
    3.2789    1.2375    0.0000 C   0  0  0  0  0  0  0  0  0  0  0  0
    1.7798   -0.2549    0.0000 C   0  0  0  0  0  0  0  0  0  0  0  0
    3.9934    0.0000    0.0000 C   0  0  0  0  0  0  0  0  0  0  0  0
    4.8866   -2.6420    0.0000 C   0  0  0  0  0  0  0  0  0  0  0  0
    5.2991   -1.9275    0.0000 C   0  0  0  0  0  0  0  0  0  0  0  0
    2.5645    0.8250    0.0000 C   0  0  0  0  0  0  0  0  0  0  0  0
    2.5645    0.0000    0.0000 C   0  0  0  0  0  0  0  0  0  0  0  0
    3.2789   -0.4125    0.0000 C   0  0  0  0  0  0  0  0  0  0  0  0
    3.9934   -1.6500    0.0000 C   0  0  0  0  0  0  0  0  0  0  0  0
    4.0796   -2.4705    0.0000 N   0  0  0  0  0  0  0  0  0  0  0  0
    4.7471   -1.3144    0.0000 N   0  0  0  0  0  0  0  0  0  0  0  0
    3.2789   -1.2375    0.0000 N   0  0  0  0  0  0  0  0  0  0  0  0
    0.2249    0.4125    0.0000 H   0  0  0  0  0  0  0  0  0  0  0  0
    0.8091   -0.5409    0.0000 H   0  0  0  0  0  0  0  0  0  0  0  0
    4.8871    1.3410    0.0000 H   0  0  0  0  0  0  0  0  0  0  0  0
    1.4491    2.0975    0.0000 H   0  0  0  0  0  0  0  0  0  0  0  0
    2.5364    1.8365    0.0000 H   0  0  0  0  0  0  0  0  0  0  0  0
    3.2789    2.2695    0.0000 H   0  0  0  0  0  0  0  0  0  0  0  0
    1.4491   -1.2725    0.0000 H   0  0  0  0  0  0  0  0  0  0  0  0
    2.5364   -1.0115    0.0000 H   0  0  0  0  0  0  0  0  0  0  0  0
    4.8871   -0.5160    0.0000 H   0  0  0  0  0  0  0  0  0  0  0  0
    5.3218   -3.6195    0.0000 H   0  0  0  0  0  0  0  0  0  0  0  0
    4.2133   -3.4736    0.0000 H   0  0  0  0  0  0  0  0  0  0  0  0
    6.3632   -1.8157    0.0000 H   0  0  0  0  0  0  0  0  0  0  0  0
    5.6826   -0.9286    0.0000 H   0  0  0  0  0  0  0  0  0  0  0  0
    4.9518   -0.3514    0.0000 H   0  0  0  0  0  0  0  0  0  0  0  0
    2.4263   -1.7298    0.0000 H   0  0  0  0  0  0  0  0  0  0  0  0
  1 16  1  0  0  0  0
  1 17  1  0  0  0  0
  2 18  1  0  0  0  0
  3  1  1  0  0  0  0
  3 19  1  0  0  0  0
  3 20  1  0  0  0  0
  4  2  2  0  0  0  0
  4 21  1  0  0  0  0
  5  1  1  0  0  0  0
  5 22  1  0  0  0  0
  5 23  1  0  0  0  0
  6  2  1  0  0  0  0
  6 24  1  0  0  0  0
  7 25  1  0  0  0  0
  7 26  1  0  0  0  0
  8  7  1  0  0  0  0
  8 27  1  0  0  0  0
  8 28  1  0  0  0  0
  9  3  1  0  0  0  0
  9  4  1  0  0  0  0
 10  5  1  0  0  0  0
 10  9  2  0  0  0  0
 11  6  2  0  0  0  0
 11 10  1  0  0  0  0
 13  7  1  0  0  0  0
 13 12  2  0  0  0  0
 14  8  1  0  0  0  0
 14 12  1  0  0  0  0
 14 29  1  0  0  0  0
 15 11  1  0  0  0  0
 15 12  1  0  0  0  0
 15 30  1  0  0  0  0
M  END
>  <DRUGBANK_ID>
DB13827

>  <COMMON_NAME>
Indanazoline

>  <CAS_NUMBER>
40507-78-6

>  <UNII>
L0U38EHD86

>  <SYNONYMS>
Indanazoline

$$$$
