524
 OpenBabel10282417072D

 62 65  0  0  0  0  0  0  0  0999 V2000
    0.2133    3.9927    0.0000 C   0  0  0  0  0  0  0  0  0  0  0  0
   -0.5011    2.7552    0.0000 C   0  0  0  0  0  0  0  0  0  0  0  0
    0.2133    2.3427    0.0000 C   0  0  0  0  0  0  0  0  0  0  0  0
    0.9278    3.5802    0.0000 C   0  0  0  0  0  0  0  0  0  0  0  0
   -0.5011    3.5802    0.0000 C   0  0  0  0  0  0  0  0  0  0  0  0
    0.9278    2.7552    0.0000 N   0  0  0  0  0  0  0  0  0  0  0  0
    1.7124    2.5003    0.0000 N   0  0  0  0  0  0  0  0  0  0  0  0
    2.1974    3.1677    0.0000 C   0  0  0  0  0  0  0  0  0  0  0  0
    1.7124    3.8352    0.0000 N   0  0  0  0  0  0  0  0  0  0  0  0
    0.2133   -0.9573    0.0000 C   0  0  1  0  0  0  0  0  0  0  0  0
   -0.5011   -1.3698    0.0000 C   0  0  1  0  0  0  0  0  0  0  0  0
   -1.2156   -0.9573    0.0000 C   0  0  0  0  0  0  0  0  0  0  0  0
   -1.9301   -1.3698    0.0000 N   0  0  0  0  0  0  0  0  0  0  0  0
    0.9278   -1.3698    0.0000 C   0  0  0  0  0  0  0  0  0  0  0  0
   -0.5011   -2.1948    0.0000 N   0  0  0  0  0  0  0  0  0  0  0  0
   -1.2156   -0.1323    0.0000 O   0  0  0  0  0  0  0  0  0  0  0  0
    0.9278   -2.1948    0.0000 O   0  0  0  0  0  0  0  0  0  0  0  0
    1.6423   -0.9573    0.0000 N   0  0  0  0  0  0  0  0  0  0  0  0
    1.6423   -0.1323    0.0000 C   0  0  0  0  0  0  0  0  0  0  0  0
    2.3567   -1.3698    0.0000 C   0  0  0  0  0  0  0  0  0  0  0  0
   -2.6838   -1.0342    0.0000 C   0  0  0  0  0  0  0  0  0  0  0  0
   -3.2358   -1.6473    0.0000 C   0  0  2  0  0  0  0  0  0  0  0  0
   -2.8233   -2.3618    0.0000 C   0  0  0  0  0  0  0  0  0  0  0  0
   -2.0163   -2.1902    0.0000 C   0  0  0  0  0  0  0  0  0  0  0  0
   -4.0563   -1.5611    0.0000 F   0  0  0  0  0  0  0  0  0  0  0  0
    0.2133    1.5177    0.0000 C   0  0  1  0  0  0  0  0  0  0  0  0
    0.9278    1.1052    0.0000 C   0  0  0  0  0  0  0  0  0  0  0  0
    0.9278    0.2802    0.0000 C   0  0  0  0  0  0  0  0  0  0  0  0
    0.2133   -0.1323    0.0000 C   0  0  1  0  0  0  0  0  0  0  0  0
   -0.5011    0.2802    0.0000 C   0  0  0  0  0  0  0  0  0  0  0  0
   -0.5011    1.1052    0.0000 C   0  0  0  0  0  0  0  0  0  0  0  0
    0.0739   -1.4712    0.0000 H   0  0  0  0  0  0  0  0  0  0  0  0
   -3.4450   -1.1021    0.0000 H   0  0  0  0  0  0  0  0  0  0  0  0
    0.4131   -1.5060    0.0000 H   0  0  0  0  0  0  0  0  0  0  0  0
    0.7190   -0.4242    0.0000 H   0  0  0  0  0  0  0  0  0  0  0  0
    0.7190    1.8097    0.0000 H   0  0  0  0  0  0  0  0  0  0  0  0
    0.2133    5.0247    0.0000 H   0  0  0  0  0  0  0  0  0  0  0  0
   -1.3948    2.2392    0.0000 H   0  0  0  0  0  0  0  0  0  0  0  0
   -1.3948    4.0962    0.0000 H   0  0  0  0  0  0  0  0  0  0  0  0
    3.2294    3.1677    0.0000 H   0  0  0  0  0  0  0  0  0  0  0  0
   -1.3844   -2.7048    0.0000 H   0  0  0  0  0  0  0  0  0  0  0  0
    0.3822   -2.7048    0.0000 H   0  0  0  0  0  0  0  0  0  0  0  0
    2.5689    0.4027    0.0000 H   0  0  0  0  0  0  0  0  0  0  0  0
    0.7157    0.4027    0.0000 H   0  0  0  0  0  0  0  0  0  0  0  0
    1.6423    0.9377    0.0000 H   0  0  0  0  0  0  0  0  0  0  0  0
    2.3567   -2.4398    0.0000 H   0  0  0  0  0  0  0  0  0  0  0  0
    3.2834   -0.8348    0.0000 H   0  0  0  0  0  0  0  0  0  0  0  0
    3.2833   -1.9048    0.0000 H   0  0  0  0  0  0  0  0  0  0  0  0
   -2.9063    0.0124    0.0000 H   0  0  0  0  0  0  0  0  0  0  0  0
   -3.7173   -0.7573    0.0000 H   0  0  0  0  0  0  0  0  0  0  0  0
   -3.2585   -3.3393    0.0000 H   0  0  0  0  0  0  0  0  0  0  0  0
   -2.1499   -3.1933    0.0000 H   0  0  0  0  0  0  0  0  0  0  0  0
   -1.2211   -2.9061    0.0000 H   0  0  0  0  0  0  0  0  0  0  0  0
   -2.2932   -3.2238    0.0000 H   0  0  0  0  0  0  0  0  0  0  0  0
    1.8544    1.6402    0.0000 H   0  0  0  0  0  0  0  0  0  0  0  0
    1.8544    0.5702    0.0000 H   0  0  0  0  0  0  0  0  0  0  0  0
    1.8544   -0.2548    0.0000 H   0  0  0  0  0  0  0  0  0  0  0  0
    0.9278   -0.7898    0.0000 H   0  0  0  0  0  0  0  0  0  0  0  0
   -1.4278   -0.2548    0.0000 H   0  0  0  0  0  0  0  0  0  0  0  0
   -1.4277    0.8152    0.0000 H   0  0  0  0  0  0  0  0  0  0  0  0
   -1.4278    1.6402    0.0000 H   0  0  0  0  0  0  0  0  0  0  0  0
   -1.4277    0.5702    0.0000 H   0  0  0  0  0  0  0  0  0  0  0  0
  1  4  1  0  0  0  0
  1  5  2  0  0  0  0
  1 37  1  0  0  0  0
  2  5  1  0  0  0  0
  2  3  2  0  0  0  0
  2 38  1  0  0  0  0
  3  6  1  0  0  0  0
  4  9  2  0  0  0  0
  4  6  1  0  0  0  0
  5 39  1  0  0  0  0
  6  7  1  0  0  0  0
  7  8  2  0  0  0  0
  8  9  1  0  0  0  0
  8 40  1  0  0  0  0
 10 11  1  0  0  0  0
 10 34  1  1  0  0  0
 10 14  1  0  0  0  0
 11 15  1  0  0  0  0
 11 32  1  1  0  0  0
 11 12  1  0  0  0  0
 12 16  2  0  0  0  0
 12 13  1  0  0  0  0
 13 24  1  0  0  0  0
 13 21  1  0  0  0  0
 14 17  2  0  0  0  0
 14 18  1  0  0  0  0
 15 41  1  0  0  0  0
 15 42  1  0  0  0  0
 18 19  1  0  0  0  0
 18 20  1  0  0  0  0
 19 43  1  0  0  0  0
 19 44  1  0  0  0  0
 19 45  1  0  0  0  0
 20 46  1  0  0  0  0
 20 47  1  0  0  0  0
 20 48  1  0  0  0  0
 21 22  1  0  0  0  0
 21 49  1  0  0  0  0
 21 50  1  0  0  0  0
 22 23  1  0  0  0  0
 22 33  1  1  0  0  0
 22 25  1  0  0  0  0
 23 24  1  0  0  0  0
 23 51  1  0  0  0  0
 23 52  1  0  0  0  0
 24 53  1  0  0  0  0
 24 54  1  0  0  0  0
 26  3  1  0  0  0  0
 26 27  1  0  0  0  0
 26 36  1  6  0  0  0
 26 31  1  0  0  0  0
 27 28  1  0  0  0  0
 27 55  1  0  0  0  0
 27 56  1  0  0  0  0
 28 29  1  0  0  0  0
 28 57  1  0  0  0  0
 28 58  1  0  0  0  0
 29 10  1  0  0  0  0
 29 35  1  1  0  0  0
 29 30  1  0  0  0  0
 30 31  1  0  0  0  0
 30 59  1  0  0  0  0
 30 60  1  0  0  0  0
 31 61  1  0  0  0  0
 31 62  1  0  0  0  0
M  END
>  <DRUGBANK_ID>
DB07135

>  <COMMON_NAME>
(2S,3S)-3-AMINO-4-[(3S)-3-FLUOROPYRROLIDIN-1-YL]-N,N-DIMETHYL-4-OXO-2-(TRANS-4-[1,2,4]TRIAZOLO[1,5-A]PYRIDIN-5-YLCYCLOHEXYL)BUTANAMIDE

$$$$
