
 OpenBabel10282417072D

 30 31  0  0  0  0  0  0  0  0999 V2000
    6.2431   -0.8927    0.0000 P   0  0  0  0  0  0  0  0  0  0  0  0
    5.1795    0.0615    0.0000 O   0  0  0  0  0  0  0  0  0  0  0  0
    7.0273   -0.6364    0.0000 O   0  0  0  0  0  0  0  0  0  0  0  0
    6.4994   -1.6769    0.0000 O   0  0  0  0  0  0  0  0  0  0  0  0
    5.4589   -1.1491    0.0000 O   0  0  0  0  0  0  0  0  0  0  0  0
    3.8597    1.8001    0.0000 N   0  0  0  0  0  0  0  0  0  0  0  0
    3.8597    3.1280    0.0000 N   0  0  0  0  0  0  0  0  0  0  0  0
    2.3645    1.6390    0.0000 N   0  0  0  0  0  0  0  0  0  0  0  0
    1.6500    2.8765    0.0000 N   0  0  0  0  0  0  0  0  0  0  0  0
    2.3645    4.1140    0.0000 N   0  0  0  0  0  0  0  0  0  0  0  0
    4.1159    1.0159    0.0000 C   0  0  0  0  0  0  0  0  0  0  0  0
    4.9231    0.8458    0.0000 C   0  0  0  0  0  0  0  0  0  0  0  0
    5.9868   -0.1086    0.0000 C   0  0  0  0  0  0  0  0  0  0  0  0
    3.0790    2.0515    0.0000 C   0  0  0  0  0  0  0  0  0  0  0  0
    3.0790    2.8765    0.0000 C   0  0  0  0  0  0  0  0  0  0  0  0
    4.3410    2.4640    0.0000 C   0  0  0  0  0  0  0  0  0  0  0  0
    2.3645    3.2890    0.0000 C   0  0  0  0  0  0  0  0  0  0  0  0
    1.6500    2.0515    0.0000 C   0  0  0  0  0  0  0  0  0  0  0  0
    7.7493   -1.2842    0.0000 H   0  0  0  0  0  0  0  0  0  0  0  0
    5.8516   -2.3989    0.0000 H   0  0  0  0  0  0  0  0  0  0  0  0
    3.2171    4.6063    0.0000 H   0  0  0  0  0  0  0  0  0  0  0  0
    1.5119    4.6062    0.0000 H   0  0  0  0  0  0  0  0  0  0  0  0
    3.4013    0.2195    0.0000 H   0  0  0  0  0  0  0  0  0  0  0  0
    4.4483   -0.0012    0.0000 H   0  0  0  0  0  0  0  0  0  0  0  0
    5.6377    1.6422    0.0000 H   0  0  0  0  0  0  0  0  0  0  0  0
    4.5907    1.8628    0.0000 H   0  0  0  0  0  0  0  0  0  0  0  0
    6.7014    0.6878    0.0000 H   0  0  0  0  0  0  0  0  0  0  0  0
    5.6543    0.9084    0.0000 H   0  0  0  0  0  0  0  0  0  0  0  0
    5.3730    2.4640    0.0000 H   0  0  0  0  0  0  0  0  0  0  0  0
    0.7563    1.5355    0.0000 H   0  0  0  0  0  0  0  0  0  0  0  0
  1  3  1  0  0  0  0
  1  4  1  0  0  0  0
  1  5  2  0  0  0  0
  1 13  1  0  0  0  0
  2 12  1  0  0  0  0
  2 13  1  0  0  0  0
  3 19  1  0  0  0  0
  4 20  1  0  0  0  0
  6 11  1  0  0  0  0
  6 14  1  0  0  0  0
  6 16  1  0  0  0  0
  7 15  1  0  0  0  0
  7 16  2  0  0  0  0
  8 14  2  0  0  0  0
  8 18  1  0  0  0  0
  9 17  1  0  0  0  0
  9 18  2  0  0  0  0
 10 17  1  0  0  0  0
 10 21  1  0  0  0  0
 10 22  1  0  0  0  0
 11 12  1  0  0  0  0
 11 23  1  0  0  0  0
 11 24  1  0  0  0  0
 12 25  1  0  0  0  0
 12 26  1  0  0  0  0
 13 27  1  0  0  0  0
 13 28  1  0  0  0  0
 14 15  1  0  0  0  0
 15 17  2  0  0  0  0
 16 29  1  0  0  0  0
 18 30  1  0  0  0  0
M  END
>  <DRUGBANK_ID>
DB13868

>  <COMMON_NAME>
Adefovir

>  <CAS_NUMBER>
106941-25-7

>  <UNII>
6GQP90I798

>  <SYNONYMS>
9-(2-(phosphonomethoxy)ethyl)adenine; 9-(2-phosphonylmethoxyethyl)adenine; Ad√©fovir; Adefovir; Adefovirum

$$$$
