
 OpenBabel10282417072D

 51 54  0  0  1  0  0  0  0  0999 V2000
    2.8245    0.4437    0.0000 C   0  0  0  0  0  0  0  0  0  0  0  0
    2.3832   -0.4214    0.0000 C   0  0  0  0  0  0  0  0  0  0  0  0
    1.3941   -0.0001    0.0000 N   0  0  0  0  0  0  0  0  0  0  0  0
    1.1624    0.9268    0.0000 C   0  0  2  0  0  0  0  0  0  0  0  0
    0.5174    0.4124    0.0000 C   0  0  0  0  0  0  0  0  0  0  0  0
    0.5174   -0.4126    0.0000 C   0  0  0  0  0  0  0  0  0  0  0  0
    1.1624   -0.9270    0.0000 C   0  0  1  0  0  0  0  0  0  0  0  0
    1.9667   -0.7434    0.0000 C   0  0  0  0  0  0  0  0  0  0  0  0
    2.3247   -0.0001    0.0000 C   0  0  2  0  0  0  0  0  0  0  0  0
    1.9667    0.7432    0.0000 C   0  0  0  0  0  0  0  0  0  0  0  0
    3.2573   -0.1695    0.0000 O   0  0  0  0  0  0  0  0  0  0  0  0
    4.1056   -0.2509    0.0000 C   0  0  0  0  0  0  0  0  0  0  0  0
    4.4481   -1.0015    0.0000 C   0  0  0  0  0  0  0  0  0  0  0  0
    5.2693   -1.0802    0.0000 C   0  0  0  0  0  0  0  0  0  0  0  0
    5.6117   -1.8308    0.0000 C   0  0  0  0  0  0  0  0  0  0  0  0
    5.1329   -2.5026    0.0000 C   0  0  0  0  0  0  0  0  0  0  0  0
    4.3117   -2.4239    0.0000 C   0  0  0  0  0  0  0  0  0  0  0  0
    3.9693   -1.6733    0.0000 C   0  0  0  0  0  0  0  0  0  0  0  0
    4.5844    0.4210    0.0000 C   0  0  0  0  0  0  0  0  0  0  0  0
    4.2420    1.1715    0.0000 C   0  0  0  0  0  0  0  0  0  0  0  0
    4.7208    1.8434    0.0000 C   0  0  0  0  0  0  0  0  0  0  0  0
    5.5420    1.7646    0.0000 C   0  0  0  0  0  0  0  0  0  0  0  0
    5.8845    1.0141    0.0000 C   0  0  0  0  0  0  0  0  0  0  0  0
    5.4057    0.3422    0.0000 C   0  0  0  0  0  0  0  0  0  0  0  0
    3.8931    0.4992    0.0000 H   0  0  0  0  0  0  0  0  0  0  0  0
    2.2422    1.3413    0.0000 H   0  0  0  0  0  0  0  0  0  0  0  0
    3.3107    1.3968    0.0000 H   0  0  0  0  0  0  0  0  0  0  0  0
    2.7483   -1.4272    0.0000 H   0  0  0  0  0  0  0  0  0  0  0  0
    1.6063   -1.1571    0.0000 H   0  0  0  0  0  0  0  0  0  0  0  0
    0.8194   -0.0867    0.0000 H   0  0  0  0  0  0  0  0  0  0  0  0
   -0.4466    0.8766    0.0000 H   0  0  0  0  0  0  0  0  0  0  0  0
   -0.3886   -0.1569    0.0000 H   0  0  0  0  0  0  0  0  0  0  0  0
   -0.4466   -0.8768    0.0000 H   0  0  0  0  0  0  0  0  0  0  0  0
    0.3976   -1.4759    0.0000 H   0  0  0  0  0  0  0  0  0  0  0  0
    0.8194    0.0865    0.0000 H   0  0  0  0  0  0  0  0  0  0  0  0
    2.6338   -1.5800    0.0000 H   0  0  0  0  0  0  0  0  0  0  0  0
    3.0300   -0.6236    0.0000 H   0  0  0  0  0  0  0  0  0  0  0  0
    2.8104   -0.9535    0.0000 H   0  0  0  0  0  0  0  0  0  0  0  0
    2.6338    1.5798    0.0000 H   0  0  0  0  0  0  0  0  0  0  0  0
    1.6133    1.7532    0.0000 H   0  0  0  0  0  0  0  0  0  0  0  0
    5.1707   -0.3530    0.0000 H   0  0  0  0  0  0  0  0  0  0  0  0
    5.8682   -0.2398    0.0000 H   0  0  0  0  0  0  0  0  0  0  0  0
    6.6390   -1.9293    0.0000 H   0  0  0  0  0  0  0  0  0  0  0  0
    5.5613   -3.4415    0.0000 H   0  0  0  0  0  0  0  0  0  0  0  0
    3.7128   -3.2643    0.0000 H   0  0  0  0  0  0  0  0  0  0  0  0
    2.9420   -1.5748    0.0000 H   0  0  0  0  0  0  0  0  0  0  0  0
    3.2147    1.2700    0.0000 H   0  0  0  0  0  0  0  0  0  0  0  0
    4.2925    2.7823    0.0000 H   0  0  0  0  0  0  0  0  0  0  0  0
    6.1409    2.6050    0.0000 H   0  0  0  0  0  0  0  0  0  0  0  0
    6.9118    0.9157    0.0000 H   0  0  0  0  0  0  0  0  0  0  0  0
    5.8340   -0.5967    0.0000 H   0  0  0  0  0  0  0  0  0  0  0  0
  1  2  1  0  0  0  0
  1 25  1  0  0  0  0
  1 26  1  0  0  0  0
  1 27  1  0  0  0  0
  2  3  1  0  0  0  0
  2 28  1  0  0  0  0
  2 29  1  0  0  0  0
  4  3  1  0  0  0  0
  4  5  1  0  0  0  0
  4 10  1  0  0  0  0
  4 30  1  1  0  0  0
  5  6  1  0  0  0  0
  5 31  1  0  0  0  0
  5 32  1  0  0  0  0
  6  7  1  0  0  0  0
  6 33  1  0  0  0  0
  6 34  1  0  0  0  0
  7  3  1  0  0  0  0
  7  8  1  0  0  0  0
  7 35  1  1  0  0  0
  8  9  1  0  0  0  0
  8 36  1  0  0  0  0
  8 37  1  0  0  0  0
  9 10  1  0  0  0  0
  9 11  1  0  0  0  0
  9 38  1  1  0  0  0
 10 39  1  0  0  0  0
 10 40  1  0  0  0  0
 11 12  1  0  0  0  0
 12 13  1  0  0  0  0
 12 19  1  0  0  0  0
 12 41  1  0  0  0  0
 13 14  2  0  0  0  0
 13 18  1  0  0  0  0
 14 15  1  0  0  0  0
 14 42  1  0  0  0  0
 15 16  2  0  0  0  0
 15 43  1  0  0  0  0
 16 17  1  0  0  0  0
 16 44  1  0  0  0  0
 17 18  2  0  0  0  0
 17 45  1  0  0  0  0
 18 46  1  0  0  0  0
 19 20  2  0  0  0  0
 19 24  1  0  0  0  0
 20 21  1  0  0  0  0
 20 47  1  0  0  0  0
 21 22  2  0  0  0  0
 21 48  1  0  0  0  0
 22 23  1  0  0  0  0
 22 49  1  0  0  0  0
 23 24  2  0  0  0  0
 23 50  1  0  0  0  0
 24 51  1  0  0  0  0
M  END
>  <DRUGBANK_ID>
DB13468

>  <COMMON_NAME>
Etybenzatropine

>  <CAS_NUMBER>
524-83-4

>  <UNII>
G1X2X9N95N

>  <SYNONYMS>
Ethybenztropine; Etybenzatropine

$$$$
