
 OpenBabel10282417072D

 50 51  0  0  1  0  0  0  0  0999 V2000
   -2.8579    2.4750    0.0000 C   0  0  0  0  0  0  0  0  0  0  0  0
   -2.1434    3.7125    0.0000 C   0  0  0  0  0  0  0  0  0  0  0  0
   -3.5724    3.7125    0.0000 C   0  0  0  0  0  0  0  0  0  0  0  0
   -2.1434    4.5375    0.0000 C   0  0  0  0  0  0  0  0  0  0  0  0
   -3.5724    4.5375    0.0000 C   0  0  0  0  0  0  0  0  0  0  0  0
   -2.8579    7.4250    0.0000 C   0  0  0  0  0  0  0  0  0  0  0  0
   -3.5724    7.0125    0.0000 C   0  0  0  0  0  0  0  0  0  0  0  0
   -0.0000    9.9000    0.0000 C   0  0  0  0  0  0  0  0  0  0  0  0
   -0.7145    8.6625    0.0000 C   0  0  0  0  0  0  0  0  0  0  0  0
   -2.1434    9.4875    0.0000 C   0  0  0  0  0  0  0  0  0  0  0  0
   -2.1434    6.1875    0.0000 C   0  0  0  0  0  0  0  0  0  0  0  0
   -2.8579    3.3000    0.0000 C   0  0  0  0  0  0  0  0  0  0  0  0
   -0.7145    9.4875    0.0000 C   0  0  0  0  0  0  0  0  0  0  0  0
   -2.1434    7.0125    0.0000 C   0  0  0  0  0  0  0  0  0  0  0  0
   -2.8579    4.9500    0.0000 C   0  0  0  0  0  0  0  0  0  0  0  0
   -0.0000   10.7250    0.0000 C   0  0  1  0  0  0  0  0  0  0  0  0
   -1.4289    8.2500    0.0000 C   0  0  0  0  0  0  0  0  0  0  0  0
   -1.4289    9.9000    0.0000 C   0  0  0  0  0  0  0  0  0  0  0  0
   -2.1434    8.6625    0.0000 C   0  0  0  0  0  0  0  0  0  0  0  0
    0.7145   11.1375    0.0000 C   0  0  0  0  0  0  0  0  0  0  0  0
   -0.7145   11.1375    0.0000 N   0  0  0  0  0  0  0  0  0  0  0  0
   -1.4289    7.4250    0.0000 N   0  0  0  0  0  0  0  0  0  0  0  0
   -4.2868    7.4250    0.0000 O   0  0  0  0  0  0  0  0  0  0  0  0
   -1.4289   10.7250    0.0000 O   0  0  0  0  0  0  0  0  0  0  0  0
   -2.8579    8.2500    0.0000 O   0  0  0  0  0  0  0  0  0  0  0  0
    0.7145   11.9625    0.0000 O   0  0  0  0  0  0  0  0  0  0  0  0
    1.4289   10.7250    0.0000 O   0  0  0  0  0  0  0  0  0  0  0  0
   -2.8579    5.7750    0.0000 O   0  0  0  0  0  0  0  0  0  0  0  0
   -2.5757    8.2002    0.0000 H   0  0  0  0  0  0  0  0  0  0  0  0
    0.7145   10.3125    0.0000 H   0  0  0  0  0  0  0  0  0  0  0  0
   -3.7845    1.9400    0.0000 H   0  0  0  0  0  0  0  0  0  0  0  0
   -1.9313    1.9400    0.0000 H   0  0  0  0  0  0  0  0  0  0  0  0
   -2.8579    1.4050    0.0000 H   0  0  0  0  0  0  0  0  0  0  0  0
   -1.2497    3.1965    0.0000 H   0  0  0  0  0  0  0  0  0  0  0  0
   -4.4661    3.1965    0.0000 H   0  0  0  0  0  0  0  0  0  0  0  0
   -1.2497    5.0535    0.0000 H   0  0  0  0  0  0  0  0  0  0  0  0
   -4.4661    5.0535    0.0000 H   0  0  0  0  0  0  0  0  0  0  0  0
   -3.5724    5.9805    0.0000 H   0  0  0  0  0  0  0  0  0  0  0  0
    0.9266    9.3650    0.0000 H   0  0  0  0  0  0  0  0  0  0  0  0
    0.9266   10.4350    0.0000 H   0  0  0  0  0  0  0  0  0  0  0  0
    0.1792    8.1465    0.0000 H   0  0  0  0  0  0  0  0  0  0  0  0
   -3.0371   10.0035    0.0000 H   0  0  0  0  0  0  0  0  0  0  0  0
   -1.2168    5.6525    0.0000 H   0  0  0  0  0  0  0  0  0  0  0  0
   -2.1434    5.1175    0.0000 H   0  0  0  0  0  0  0  0  0  0  0  0
   -0.7145   12.1575    0.0000 H   0  0  0  0  0  0  0  0  0  0  0  0
   -1.5978   10.6275    0.0000 H   0  0  0  0  0  0  0  0  0  0  0  0
   -0.5763    6.9327    0.0000 H   0  0  0  0  0  0  0  0  0  0  0  0
   -0.6174   11.1935    0.0000 H   0  0  0  0  0  0  0  0  0  0  0  0
   -3.6694    8.7185    0.0000 H   0  0  0  0  0  0  0  0  0  0  0  0
    1.4289    9.7880    0.0000 H   0  0  0  0  0  0  0  0  0  0  0  0
  1 31  1  0  0  0  0
  1 32  1  0  0  0  0
  1 33  1  0  0  0  0
  2 34  1  0  0  0  0
  3 35  1  0  0  0  0
  4  2  1  0  0  0  0
  4 36  1  0  0  0  0
  5  3  2  0  0  0  0
  5 37  1  0  0  0  0
  7  6  1  0  0  0  0
  7 38  1  0  0  0  0
  8 39  1  0  0  0  0
  8 40  1  0  0  0  0
  9 41  1  0  0  0  0
 10 42  1  0  0  0  0
 11 43  1  0  0  0  0
 11 44  1  0  0  0  0
 12  1  1  0  0  0  0
 12  2  2  0  0  0  0
 12  3  1  0  0  0  0
 13  8  1  0  0  0  0
 13  9  2  0  0  0  0
 14  6  2  0  0  0  0
 14 11  1  0  0  0  0
 15  4  2  0  0  0  0
 15  5  1  0  0  0  0
 16  8  1  0  0  0  0
 16 21  1  0  0  0  0
 16 30  1  1  0  0  0
 17  9  1  0  0  0  0
 18 10  2  0  0  0  0
 18 13  1  0  0  0  0
 19 10  1  0  0  0  0
 19 17  2  0  0  0  0
 20 16  1  0  0  0  0
 21 45  1  0  0  0  0
 21 46  1  0  0  0  0
 22 14  1  0  0  0  0
 22 17  1  0  0  0  0
 22 47  1  0  0  0  0
 23  7  2  0  0  0  0
 24 18  1  0  0  0  0
 24 48  1  0  0  0  0
 25 19  1  0  0  0  0
 25 49  1  0  0  0  0
 26 20  2  0  0  0  0
 27 20  1  0  0  0  0
 27 50  1  0  0  0  0
 28 11  1  0  0  0  0
 28 15  1  0  0  0  0
 29  6  1  0  0  0  0
M  END
>  <DRUGBANK_ID>
DB02537

>  <SECONDARY_ACCESSION_NUMBERS>
EXPT02126

>  <COMMON_NAME>
2-Hydroxy-5-({1-[(4-Methylphenoxy)Methyl]-3-Oxoprop-1-Enyl}Amino)-L-Tyrosine

$$$$
