
 OpenBabel10282417072D

 48 49  0  0  0  0  0  0  0  0999 V2000
   -0.3847   -1.1734    0.0000 O   0  0  0  0  0  0  0  0  0  0  0  0
   -1.2098   -0.3484    0.0000 O   0  0  0  0  0  0  0  0  0  0  0  0
    0.4402   -0.3484    0.0000 O   0  0  0  0  0  0  0  0  0  0  0  0
   -1.8138   -0.3484    0.0000 O   0  0  0  0  0  0  0  0  0  0  0  0
    1.0441   -3.6484    0.0000 O   0  0  0  0  0  0  0  0  0  0  0  0
    1.7586   -2.4109    0.0000 O   0  0  0  0  0  0  0  0  0  0  0  0
   -1.0993    0.8891    0.0000 N   0  0  0  0  0  0  0  0  0  0  0  0
   -0.3847   -2.8234    0.0000 N   0  0  0  0  0  0  0  0  0  0  0  0
   -0.3847    0.4766    0.0000 C   0  0  1  0  0  0  0  0  0  0  0  0
    0.3296    0.8891    0.0000 C   0  0  0  0  0  0  0  0  0  0  0  0
    0.3296    1.7141    0.0000 C   0  0  0  0  0  0  0  0  0  0  0  0
    1.0441    2.1266    0.0000 C   0  0  0  0  0  0  0  0  0  0  0  0
   -0.3847    2.1266    0.0000 C   0  0  0  0  0  0  0  0  0  0  0  0
    1.0441    2.9516    0.0000 C   0  0  0  0  0  0  0  0  0  0  0  0
    0.3296   -1.5859    0.0000 C   0  0  0  0  0  0  0  0  0  0  0  0
    1.7817    1.6855    0.0000 C   0  0  0  0  0  0  0  0  0  0  0  0
   -0.3847    2.9516    0.0000 C   0  0  0  0  0  0  0  0  0  0  0  0
    0.3296    3.3641    0.0000 C   0  0  0  0  0  0  0  0  0  0  0  0
   -1.8138    0.4766    0.0000 C   0  0  0  0  0  0  0  0  0  0  0  0
    0.3296   -2.4109    0.0000 C   0  0  1  0  0  0  0  0  0  0  0  0
    1.7817    3.3927    0.0000 C   0  0  0  0  0  0  0  0  0  0  0  0
    2.5291    2.1094    0.0000 C   0  0  0  0  0  0  0  0  0  0  0  0
    2.5291    2.9688    0.0000 C   0  0  0  0  0  0  0  0  0  0  0  0
   -2.5282    0.8891    0.0000 C   0  0  0  0  0  0  0  0  0  0  0  0
    1.0441   -2.8234    0.0000 C   0  0  0  0  0  0  0  0  0  0  0  0
   -0.3847   -0.3484    0.0000 B   0  5  0  0  0  0  0  0  0  0  0  0
   -1.6948    0.4916    0.0000 H   0  0  0  0  0  0  0  0  0  0  0  0
    0.9252   -1.1884    0.0000 H   0  0  0  0  0  0  0  0  0  0  0  0
    0.2326   -4.1169    0.0000 H   0  0  0  0  0  0  0  0  0  0  0  0
   -1.0993    1.8736    0.0000 H   0  0  0  0  0  0  0  0  0  0  0  0
   -1.2681   -2.3135    0.0000 H   0  0  0  0  0  0  0  0  0  0  0  0
   -0.3846   -3.8434    0.0000 H   0  0  0  0  0  0  0  0  0  0  0  0
   -0.3848    1.5466    0.0000 H   0  0  0  0  0  0  0  0  0  0  0  0
    1.2563    0.3541    0.0000 H   0  0  0  0  0  0  0  0  0  0  0  0
    1.2562    1.4241    0.0000 H   0  0  0  0  0  0  0  0  0  0  0  0
   -1.2785    1.6106    0.0000 H   0  0  0  0  0  0  0  0  0  0  0  0
    1.2563   -1.0509    0.0000 H   0  0  0  0  0  0  0  0  0  0  0  0
    1.2562   -2.1209    0.0000 H   0  0  0  0  0  0  0  0  0  0  0  0
    1.7698    0.6536    0.0000 H   0  0  0  0  0  0  0  0  0  0  0  0
   -1.2785    3.4676    0.0000 H   0  0  0  0  0  0  0  0  0  0  0  0
    0.3295    4.3961    0.0000 H   0  0  0  0  0  0  0  0  0  0  0  0
   -0.5971   -1.8759    0.0000 H   0  0  0  0  0  0  0  0  0  0  0  0
    1.7698    4.4246    0.0000 H   0  0  0  0  0  0  0  0  0  0  0  0
    3.4209    1.5900    0.0000 H   0  0  0  0  0  0  0  0  0  0  0  0
    3.4209    3.4882    0.0000 H   0  0  0  0  0  0  0  0  0  0  0  0
   -2.5282    1.9591    0.0000 H   0  0  0  0  0  0  0  0  0  0  0  0
   -3.4549    0.3541    0.0000 H   0  0  0  0  0  0  0  0  0  0  0  0
   -3.4548    1.4241    0.0000 H   0  0  0  0  0  0  0  0  0  0  0  0
  1 15  1  0  0  0  0
  1 26  1  0  0  0  0
  2 26  1  0  0  0  0
  2 27  1  0  0  0  0
  3 26  1  0  0  0  0
  3 28  1  0  0  0  0
  4 19  2  0  0  0  0
  5 25  1  0  0  0  0
  5 29  1  0  0  0  0
  6 25  2  0  0  0  0
  7 19  1  0  0  0  0
  7 30  1  0  0  0  0
  8 31  1  0  0  0  0
  8 32  1  0  0  0  0
  9  7  1  0  0  0  0
  9 10  1  0  0  0  0
  9 26  1  0  0  0  0
  9 33  1  6  0  0  0
 10 11  1  0  0  0  0
 10 34  1  0  0  0  0
 10 35  1  0  0  0  0
 11 12  1  0  0  0  0
 11 13  2  0  0  0  0
 12 14  1  0  0  0  0
 12 16  2  0  0  0  0
 13 17  1  0  0  0  0
 13 36  1  0  0  0  0
 14 18  1  0  0  0  0
 14 21  2  0  0  0  0
 15 20  1  0  0  0  0
 15 37  1  0  0  0  0
 15 38  1  0  0  0  0
 16 22  1  0  0  0  0
 16 39  1  0  0  0  0
 17 18  2  0  0  0  0
 17 40  1  0  0  0  0
 18 41  1  0  0  0  0
 19 24  1  0  0  0  0
 20  8  1  0  0  0  0
 20 25  1  0  0  0  0
 20 42  1  6  0  0  0
 21 23  1  0  0  0  0
 21 43  1  0  0  0  0
 22 23  2  0  0  0  0
 22 44  1  0  0  0  0
 23 45  1  0  0  0  0
 24 46  1  0  0  0  0
 24 47  1  0  0  0  0
 24 48  1  0  0  0  0
M  CHG  1  26  -1
M  END
>  <DRUGBANK_ID>
DB03290

>  <SECONDARY_ACCESSION_NUMBERS>
EXPT02856

>  <COMMON_NAME>
L-naphthyl-1-acetamido boronic acid alanine

$$$$
