
 OpenBabel10282417072D

 95100  0  0  1  0  0  0  0  0999 V2000
   -2.8579    2.4750    0.0000 C   0  0  0  0  0  0  0  0  0  0  0  0
   -2.8579    3.3000    0.0000 O   0  0  0  0  0  0  0  0  0  0  0  0
   -2.1434    3.7125    0.0000 C   0  0  0  0  0  0  0  0  0  0  0  0
   -2.1434    4.5375    0.0000 C   0  0  0  0  0  0  0  0  0  0  0  0
   -1.4289    4.9500    0.0000 C   0  0  0  0  0  0  0  0  0  0  0  0
   -0.7145    4.5375    0.0000 C   0  0  0  0  0  0  0  0  0  0  0  0
   -0.7145    3.7125    0.0000 C   0  0  0  0  0  0  0  0  0  0  0  0
   -1.4289    3.3000    0.0000 C   0  0  0  0  0  0  0  0  0  0  0  0
   -1.4289    2.4750    0.0000 C   0  0  0  0  0  0  0  0  0  0  0  0
   -0.7145    2.0625    0.0000 N   0  0  0  0  0  0  0  0  0  0  0  0
   -0.7145    1.2375    0.0000 C   0  0  0  0  0  0  0  0  0  0  0  0
    0.0000    0.8250    0.0000 C   0  0  1  0  0  0  0  0  0  0  0  0
    0.0000   -0.0000    0.0000 C   0  0  0  0  0  0  0  0  0  0  0  0
   -0.7145   -0.4125    0.0000 C   0  0  0  0  0  0  0  0  0  0  0  0
   -0.7145   -1.2375    0.0000 C   0  0  0  0  0  0  0  0  0  0  0  0
    0.0000   -1.6500    0.0000 C   0  0  0  0  0  0  0  0  0  0  0  0
    0.7145   -1.2375    0.0000 C   0  0  0  0  0  0  0  0  0  0  0  0
    0.7145   -0.4125    0.0000 C   0  0  0  0  0  0  0  0  0  0  0  0
    1.4289   -0.0000    0.0000 C   0  0  0  0  0  0  0  0  0  0  0  0
    2.1434   -0.4125    0.0000 C   0  0  0  0  0  0  0  0  0  0  0  0
    2.1434   -1.2375    0.0000 C   0  0  0  0  0  0  0  0  0  0  0  0
    2.8579   -1.6500    0.0000 O   0  0  0  0  0  0  0  0  0  0  0  0
    1.4289   -1.6500    0.0000 N   0  0  0  0  0  0  0  0  0  0  0  0
    0.0000   -2.4750    0.0000 O   0  0  0  0  0  0  0  0  0  0  0  0
    0.7145    1.2375    0.0000 O   0  0  0  0  0  0  0  0  0  0  0  0
    0.0000    4.9500    0.0000 Cl  0  0  0  0  0  0  0  0  0  0  0  0
   -1.4289    5.7750    0.0000 N   0  0  0  0  0  0  0  0  0  0  0  0
   -2.1434    6.1875    0.0000 C   0  0  0  0  0  0  0  0  0  0  0  0
   -2.8579    5.7750    0.0000 O   0  0  0  0  0  0  0  0  0  0  0  0
   -2.1434    7.0125    0.0000 C   0  0  0  0  0  0  0  0  0  0  0  0
   -2.8579    7.4250    0.0000 C   0  0  0  0  0  0  0  0  0  0  0  0
   -2.8579    8.2500    0.0000 N   0  0  0  0  0  0  0  0  0  0  0  0
   -3.5724    8.6625    0.0000 C   0  0  0  0  0  0  0  0  0  0  0  0
   -3.5724    9.4875    0.0000 C   0  0  0  0  0  0  0  0  0  0  0  0
   -2.8579    9.9000    0.0000 C   0  0  3  0  0  0  0  0  0  0  0  0
   -2.1434    9.4875    0.0000 C   0  0  0  0  0  0  0  0  0  0  0  0
   -2.1434    8.6625    0.0000 C   0  0  0  0  0  0  0  0  0  0  0  0
   -2.8579   10.7250    0.0000 O   0  0  0  0  0  0  0  0  0  0  0  0
   -3.5724   11.1375    0.0000 C   0  0  0  0  0  0  0  0  0  0  0  0
   -4.2868   10.7250    0.0000 O   0  0  0  0  0  0  0  0  0  0  0  0
   -3.5724   11.9625    0.0000 N   0  0  0  0  0  0  0  0  0  0  0  0
   -4.2868   12.3750    0.0000 C   0  0  0  0  0  0  0  0  0  0  0  0
   -5.0013   11.9625    0.0000 C   0  0  0  0  0  0  0  0  0  0  0  0
   -5.7158   12.3750    0.0000 C   0  0  0  0  0  0  0  0  0  0  0  0
   -5.7158   13.2000    0.0000 C   0  0  0  0  0  0  0  0  0  0  0  0
   -5.0013   13.6125    0.0000 C   0  0  0  0  0  0  0  0  0  0  0  0
   -4.2868   13.2000    0.0000 C   0  0  0  0  0  0  0  0  0  0  0  0
   -3.5724   13.6125    0.0000 C   0  0  0  0  0  0  0  0  0  0  0  0
   -3.5724   14.4375    0.0000 C   0  0  0  0  0  0  0  0  0  0  0  0
   -2.8579   14.8500    0.0000 C   0  0  0  0  0  0  0  0  0  0  0  0
   -2.1434   14.4375    0.0000 C   0  0  0  0  0  0  0  0  0  0  0  0
   -2.1434   13.6125    0.0000 C   0  0  0  0  0  0  0  0  0  0  0  0
   -2.8579   13.2000    0.0000 C   0  0  0  0  0  0  0  0  0  0  0  0
   -3.7845    1.9400    0.0000 H   0  0  0  0  0  0  0  0  0  0  0  0
   -1.9313    1.9400    0.0000 H   0  0  0  0  0  0  0  0  0  0  0  0
   -2.8579    1.4050    0.0000 H   0  0  0  0  0  0  0  0  0  0  0  0
   -3.0371    5.0535    0.0000 H   0  0  0  0  0  0  0  0  0  0  0  0
    0.1792    3.1965    0.0000 H   0  0  0  0  0  0  0  0  0  0  0  0
   -2.3556    1.9400    0.0000 H   0  0  0  0  0  0  0  0  0  0  0  0
   -1.4289    1.4050    0.0000 H   0  0  0  0  0  0  0  0  0  0  0  0
    0.1689    2.5725    0.0000 H   0  0  0  0  0  0  0  0  0  0  0  0
   -1.6411    0.7025    0.0000 H   0  0  0  0  0  0  0  0  0  0  0  0
   -0.7145    0.1675    0.0000 H   0  0  0  0  0  0  0  0  0  0  0  0
    0.0000    1.8950    0.0000 H   0  0  0  0  0  0  0  0  0  0  0  0
   -1.6082    0.1035    0.0000 H   0  0  0  0  0  0  0  0  0  0  0  0
   -1.6082   -1.7535    0.0000 H   0  0  0  0  0  0  0  0  0  0  0  0
    1.4289    1.0320    0.0000 H   0  0  0  0  0  0  0  0  0  0  0  0
    3.0371    0.1035    0.0000 H   0  0  0  0  0  0  0  0  0  0  0  0
    1.4289   -2.6345    0.0000 H   0  0  0  0  0  0  0  0  0  0  0  0
   -0.8115   -2.9435    0.0000 H   0  0  0  0  0  0  0  0  0  0  0  0
    1.5545    0.7525    0.0000 H   0  0  0  0  0  0  0  0  0  0  0  0
   -0.5763    6.2673    0.0000 H   0  0  0  0  0  0  0  0  0  0  0  0
   -1.2168    7.5475    0.0000 H   0  0  0  0  0  0  0  0  0  0  0  0
   -2.1434    8.0825    0.0000 H   0  0  0  0  0  0  0  0  0  0  0  0
   -3.7845    6.8900    0.0000 H   0  0  0  0  0  0  0  0  0  0  0  0
   -3.7845    7.9600    0.0000 H   0  0  0  0  0  0  0  0  0  0  0  0
   -4.4990    8.1275    0.0000 H   0  0  0  0  0  0  0  0  0  0  0  0
   -4.4990    9.1975    0.0000 H   0  0  0  0  0  0  0  0  0  0  0  0
   -4.4990   10.0225    0.0000 H   0  0  0  0  0  0  0  0  0  0  0  0
   -3.5724   10.5575    0.0000 H   0  0  0  0  0  0  0  0  0  0  0  0
   -2.8579    8.8300    0.0000 H   0  0  0  0  0  0  0  0  0  0  0  0
   -1.2168   10.0225    0.0000 H   0  0  0  0  0  0  0  0  0  0  0  0
   -1.2168    8.9525    0.0000 H   0  0  0  0  0  0  0  0  0  0  0  0
   -1.2168    8.1275    0.0000 H   0  0  0  0  0  0  0  0  0  0  0  0
   -2.1434    7.5925    0.0000 H   0  0  0  0  0  0  0  0  0  0  0  0
   -2.7198   12.4547    0.0000 H   0  0  0  0  0  0  0  0  0  0  0  0
   -5.0013   10.9305    0.0000 H   0  0  0  0  0  0  0  0  0  0  0  0
   -6.6095   11.8590    0.0000 H   0  0  0  0  0  0  0  0  0  0  0  0
   -6.6095   13.7160    0.0000 H   0  0  0  0  0  0  0  0  0  0  0  0
   -5.0013   14.6445    0.0000 H   0  0  0  0  0  0  0  0  0  0  0  0
   -4.4661   14.9535    0.0000 H   0  0  0  0  0  0  0  0  0  0  0  0
   -2.8579   15.8820    0.0000 H   0  0  0  0  0  0  0  0  0  0  0  0
   -1.2497   14.9535    0.0000 H   0  0  0  0  0  0  0  0  0  0  0  0
   -1.2497   13.0965    0.0000 H   0  0  0  0  0  0  0  0  0  0  0  0
   -2.8579   12.1680    0.0000 H   0  0  0  0  0  0  0  0  0  0  0  0
  1  2  1  0  0  0  0
  1 54  1  0  0  0  0
  1 55  1  0  0  0  0
  1 56  1  0  0  0  0
  2  3  1  0  0  0  0
  3  4  2  0  0  0  0
  3  8  1  0  0  0  0
  4  5  1  0  0  0  0
  4 57  1  0  0  0  0
  5  6  2  0  0  0  0
  5 27  1  0  0  0  0
  6  7  1  0  0  0  0
  6 26  1  0  0  0  0
  7  8  2  0  0  0  0
  7 58  1  0  0  0  0
  8  9  1  0  0  0  0
  9 10  1  0  0  0  0
  9 59  1  0  0  0  0
  9 60  1  0  0  0  0
 10 11  1  0  0  0  0
 10 61  1  0  0  0  0
 11 12  1  0  0  0  0
 11 62  1  0  0  0  0
 11 63  1  0  0  0  0
 12 13  1  0  0  0  0
 12 25  1  0  0  0  0
 12 64  1  1  0  0  0
 13 14  1  0  0  0  0
 13 18  2  0  0  0  0
 14 15  2  0  0  0  0
 14 65  1  0  0  0  0
 15 16  1  0  0  0  0
 15 66  1  0  0  0  0
 16 17  2  0  0  0  0
 16 24  1  0  0  0  0
 17 18  1  0  0  0  0
 17 23  1  0  0  0  0
 18 19  1  0  0  0  0
 19 20  2  0  0  0  0
 19 67  1  0  0  0  0
 20 21  1  0  0  0  0
 20 68  1  0  0  0  0
 21 22  2  0  0  0  0
 21 23  1  0  0  0  0
 23 69  1  0  0  0  0
 24 70  1  0  0  0  0
 25 71  1  0  0  0  0
 27 28  1  0  0  0  0
 27 72  1  0  0  0  0
 28 29  2  0  0  0  0
 28 30  1  0  0  0  0
 30 31  1  0  0  0  0
 30 73  1  0  0  0  0
 30 74  1  0  0  0  0
 31 32  1  0  0  0  0
 31 75  1  0  0  0  0
 31 76  1  0  0  0  0
 32 33  1  0  0  0  0
 32 37  1  0  0  0  0
 33 34  1  0  0  0  0
 33 77  1  0  0  0  0
 33 78  1  0  0  0  0
 34 35  1  0  0  0  0
 34 79  1  0  0  0  0
 34 80  1  0  0  0  0
 35 36  1  0  0  0  0
 35 38  1  0  0  0  0
 35 81  1  0  0  0  0
 36 37  1  0  0  0  0
 36 82  1  0  0  0  0
 36 83  1  0  0  0  0
 37 84  1  0  0  0  0
 37 85  1  0  0  0  0
 38 39  1  0  0  0  0
 39 40  2  0  0  0  0
 39 41  1  0  0  0  0
 41 42  1  0  0  0  0
 41 86  1  0  0  0  0
 42 43  2  0  0  0  0
 42 47  1  0  0  0  0
 43 44  1  0  0  0  0
 43 87  1  0  0  0  0
 44 45  2  0  0  0  0
 44 88  1  0  0  0  0
 45 46  1  0  0  0  0
 45 89  1  0  0  0  0
 46 47  2  0  0  0  0
 46 90  1  0  0  0  0
 47 48  1  0  0  0  0
 48 49  2  0  0  0  0
 48 53  1  0  0  0  0
 49 50  1  0  0  0  0
 49 91  1  0  0  0  0
 50 51  2  0  0  0  0
 50 92  1  0  0  0  0
 51 52  1  0  0  0  0
 51 93  1  0  0  0  0
 52 53  2  0  0  0  0
 52 94  1  0  0  0  0
 53 95  1  0  0  0  0
M  END
>  <DRUGBANK_ID>
DB12526

>  <COMMON_NAME>
Batefenterol

>  <CAS_NUMBER>
743461-65-6

>  <UNII>
1IAT42T80T

>  <SYNONYMS>
Batefenterol

$$$$
