
 OpenBabel10282417072D

 77 80  0  0  0  0  0  0  0  0999 V2000
   -5.8951    2.3043    0.0000 O   0  0  0  0  0  0  0  0  0  0  0  0
   -3.9791    0.0290    0.0000 C   0  0  0  0  0  0  0  0  0  0  0  0
   -4.7327   -0.3064    0.0000 C   0  0  0  0  0  0  0  0  0  0  0  0
   -5.4001    0.1784    0.0000 C   0  0  0  0  0  0  0  0  0  0  0  0
   -5.3139    0.9988    0.0000 C   0  0  0  0  0  0  0  0  0  0  0  0
   -4.5602    1.3344    0.0000 C   0  0  0  0  0  0  0  0  0  0  0  0
   -3.8928    0.8495    0.0000 C   0  0  0  0  0  0  0  0  0  0  0  0
   -6.8213    0.3278    0.0000 P   0  0  0  0  0  0  0  0  0  0  0  0
   -7.4887    0.8127    0.0000 O   0  0  0  0  0  0  0  0  0  0  0  0
   -7.3062   -0.3396    0.0000 O   0  0  0  0  0  0  0  0  0  0  0  0
   -6.3363    0.9952    0.0000 O   0  0  0  0  0  0  0  0  0  0  0  0
   -3.1391    1.1851    0.0000 C   0  0  0  0  0  0  0  0  0  0  0  0
   -2.4717    0.7002    0.0000 C   0  0  1  0  0  0  0  0  0  0  0  0
   -1.7180    1.0357    0.0000 C   0  0  0  0  0  0  0  0  0  0  0  0
   -1.0505    0.5508    0.0000 N   0  0  0  0  0  0  0  0  0  0  0  0
   -2.5579   -0.1202    0.0000 N   0  0  0  0  0  0  0  0  0  0  0  0
   -1.8905   -0.6052    0.0000 C   0  0  0  0  0  0  0  0  0  0  0  0
   -1.1368   -0.2696    0.0000 C   0  0  0  0  0  0  0  0  0  0  0  0
   -1.9767   -1.4257    0.0000 O   0  0  0  0  0  0  0  0  0  0  0  0
   -1.6318    1.8562    0.0000 O   0  0  0  0  0  0  0  0  0  0  0  0
   -0.2969    0.8863    0.0000 C   0  0  1  0  0  0  0  0  0  0  0  0
   -0.2722    1.7110    0.0000 C   0  0  0  0  0  0  0  0  0  0  0  0
    0.3878    2.2058    0.0000 C   0  0  0  0  0  0  0  0  0  0  0  0
    1.1862    1.9983    0.0000 C   0  0  0  0  0  0  0  0  0  0  0  0
    1.5218    1.2446    0.0000 C   0  0  0  0  0  0  0  0  0  0  0  0
    1.1418    0.5123    0.0000 N   0  0  0  0  0  0  0  0  0  0  0  0
    0.3324    0.3529    0.0000 C   0  0  0  0  0  0  0  0  0  0  0  0
    1.6367   -0.1477    0.0000 C   0  0  0  0  0  0  0  0  0  0  0  0
    2.4558   -0.0492    0.0000 C   0  0  0  0  0  0  0  0  0  0  0  0
    0.1248   -0.4455    0.0000 O   0  0  0  0  0  0  0  0  0  0  0  0
   -6.1538   -0.1571    0.0000 O   0  0  0  0  0  0  0  0  0  0  0  0
    2.7800    0.7093    0.0000 C   0  0  0  0  0  0  0  0  0  0  0  0
    3.5991    0.8078    0.0000 C   0  0  0  0  0  0  0  0  0  0  0  0
    4.0939    0.1477    0.0000 C   0  0  0  0  0  0  0  0  0  0  0  0
    3.7697   -0.6108    0.0000 C   0  0  0  0  0  0  0  0  0  0  0  0
    2.9506   -0.7093    0.0000 C   0  0  0  0  0  0  0  0  0  0  0  0
    4.9130    0.2462    0.0000 C   0  0  0  0  0  0  0  0  0  0  0  0
    5.2373    1.0049    0.0000 C   0  0  0  0  0  0  0  0  0  0  0  0
    6.0564    1.1033    0.0000 C   0  0  0  0  0  0  0  0  0  0  0  0
    6.5512    0.4432    0.0000 C   0  0  0  0  0  0  0  0  0  0  0  0
    6.2270   -0.3153    0.0000 C   0  0  0  0  0  0  0  0  0  0  0  0
    5.4079   -0.4138    0.0000 C   0  0  0  0  0  0  0  0  0  0  0  0
   -5.9814    1.4838    0.0000 C   0  0  0  0  0  0  0  0  0  0  0  0
   -3.1443   -0.5777    0.0000 H   0  0  0  0  0  0  0  0  0  0  0  0
   -4.8406   -1.3327    0.0000 H   0  0  0  0  0  0  0  0  0  0  0  0
   -4.4523    2.3607    0.0000 H   0  0  0  0  0  0  0  0  0  0  0  0
   -8.2709   -0.2382    0.0000 H   0  0  0  0  0  0  0  0  0  0  0  0
   -5.3716    0.8937    0.0000 H   0  0  0  0  0  0  0  0  0  0  0  0
   -3.0273    2.2492    0.0000 H   0  0  0  0  0  0  0  0  0  0  0  0
   -2.1616    1.6203    0.0000 H   0  0  0  0  0  0  0  0  0  0  0  0
   -3.4492    0.2650    0.0000 H   0  0  0  0  0  0  0  0  0  0  0  0
   -1.1534   -0.4283    0.0000 H   0  0  0  0  0  0  0  0  0  0  0  0
   -3.4573   -0.5206    0.0000 H   0  0  0  0  0  0  0  0  0  0  0  0
   -0.2711   -0.8985    0.0000 H   0  0  0  0  0  0  0  0  0  0  0  0
   -1.0250    0.7945    0.0000 H   0  0  0  0  0  0  0  0  0  0  0  0
   -0.1593    0.1656    0.0000 H   0  0  0  0  0  0  0  0  0  0  0  0
   -1.1854    1.4824    0.0000 H   0  0  0  0  0  0  0  0  0  0  0  0
   -1.2219    2.2039    0.0000 H   0  0  0  0  0  0  0  0  0  0  0  0
   -0.3602    2.7774    0.0000 H   0  0  0  0  0  0  0  0  0  0  0  0
    0.1810    3.2556    0.0000 H   0  0  0  0  0  0  0  0  0  0  0  0
    1.1667    2.9395    0.0000 H   0  0  0  0  0  0  0  0  0  0  0  0
    1.8780    2.8146    0.0000 H   0  0  0  0  0  0  0  0  0  0  0  0
    2.2454    1.8468    0.0000 H   0  0  0  0  0  0  0  0  0  0  0  0
    2.5913    1.2126    0.0000 H   0  0  0  0  0  0  0  0  0  0  0  0
    2.0638    0.3220    0.0000 H   0  0  0  0  0  0  0  0  0  0  0  0
    1.2162   -1.1316    0.0000 H   0  0  0  0  0  0  0  0  0  0  0  0
    2.2785   -1.0038    0.0000 H   0  0  0  0  0  0  0  0  0  0  0  0
    2.1610    1.5350    0.0000 H   0  0  0  0  0  0  0  0  0  0  0  0
    4.0047    1.7567    0.0000 H   0  0  0  0  0  0  0  0  0  0  0  0
    4.3887   -1.4365    0.0000 H   0  0  0  0  0  0  0  0  0  0  0  0
    2.5450   -1.6582    0.0000 H   0  0  0  0  0  0  0  0  0  0  0  0
    4.6183    1.8307    0.0000 H   0  0  0  0  0  0  0  0  0  0  0  0
    6.4621    2.0522    0.0000 H   0  0  0  0  0  0  0  0  0  0  0  0
    7.5758    0.5664    0.0000 H   0  0  0  0  0  0  0  0  0  0  0  0
    6.8460   -1.1410    0.0000 H   0  0  0  0  0  0  0  0  0  0  0  0
    5.0024   -1.3628    0.0000 H   0  0  0  0  0  0  0  0  0  0  0  0
   -6.9242    1.0641    0.0000 H   0  0  0  0  0  0  0  0  0  0  0  0
  2  3  1  0  0  0  0
  2  7  2  0  0  0  0
  2 44  1  0  0  0  0
  3  4  2  0  0  0  0
  3 45  1  0  0  0  0
  4  5  1  0  0  0  0
  4 31  1  0  0  0  0
  5  6  2  0  0  0  0
  5 43  1  0  0  0  0
  6  7  1  0  0  0  0
  6 46  1  0  0  0  0
  9  8  2  0  0  0  0
 10  8  1  0  0  0  0
 10 47  1  0  0  0  0
 11  8  1  0  0  0  0
 11 48  1  0  0  0  0
 12  7  1  0  0  0  0
 12 13  1  0  0  0  0
 12 49  1  0  0  0  0
 12 50  1  0  0  0  0
 13 14  1  0  0  0  0
 13 16  1  0  0  0  0
 13 51  1  6  0  0  0
 14 15  1  0  0  0  0
 14 20  2  0  0  0  0
 15 52  1  0  0  0  0
 16 53  1  0  0  0  0
 17 16  1  0  0  0  0
 17 18  1  0  0  0  0
 17 19  2  0  0  0  0
 18 54  1  0  0  0  0
 18 55  1  0  0  0  0
 18 56  1  0  0  0  0
 21 15  1  0  0  0  0
 21 22  1  0  0  0  0
 21 27  1  0  0  0  0
 21 57  1  6  0  0  0
 22 23  1  0  0  0  0
 22 58  1  0  0  0  0
 22 59  1  0  0  0  0
 23 24  1  0  0  0  0
 23 60  1  0  0  0  0
 23 61  1  0  0  0  0
 24 25  1  0  0  0  0
 24 62  1  0  0  0  0
 24 63  1  0  0  0  0
 25 26  1  0  0  0  0
 25 64  1  0  0  0  0
 25 65  1  0  0  0  0
 27 26  1  0  0  0  0
 27 30  2  0  0  0  0
 28 26  1  0  0  0  0
 28 29  1  0  0  0  0
 28 66  1  0  0  0  0
 28 67  1  0  0  0  0
 29 32  1  0  0  0  0
 29 36  2  0  0  0  0
 31  8  1  0  0  0  0
 32 33  2  0  0  0  0
 32 68  1  0  0  0  0
 33 34  1  0  0  0  0
 33 69  1  0  0  0  0
 34 35  2  0  0  0  0
 34 37  1  0  0  0  0
 35 36  1  0  0  0  0
 35 70  1  0  0  0  0
 36 71  1  0  0  0  0
 37 38  1  0  0  0  0
 37 42  2  0  0  0  0
 38 39  2  0  0  0  0
 38 72  1  0  0  0  0
 39 40  1  0  0  0  0
 39 73  1  0  0  0  0
 40 41  2  0  0  0  0
 40 74  1  0  0  0  0
 41 42  1  0  0  0  0
 41 75  1  0  0  0  0
 42 76  1  0  0  0  0
 43  1  2  0  0  0  0
 43 77  1  0  0  0  0
M  END
>  <DRUGBANK_ID>
DB01678

>  <SECONDARY_ACCESSION_NUMBERS>
EXPT00280

>  <COMMON_NAME>
RU84687

>  <SYNONYMS>
N-acetyl-N-[1-(1,1'-biphenyl-4-ylmethyl)-2-oxoazepan-3-yl]-3-formyl-O-phosphonotyrosinamide

$$$$
