I19
 OpenBabel10282417072D

 63 66  0  0  0  0  0  0  0  0999 V2000
   -2.8922   13.3785    0.0000 C   0  0  0  0  0  0  0  0  0  0  0  0
   -2.1777   12.9660    0.0000 C   0  0  0  0  0  0  0  0  0  0  0  0
   -1.4632   13.3785    0.0000 C   0  0  0  0  0  0  0  0  0  0  0  0
   -2.1777   12.1410    0.0000 N   0  0  0  0  0  0  0  0  0  0  0  0
   -2.8451   11.6561    0.0000 C   0  0  0  0  0  0  0  0  0  0  0  0
   -3.6298   11.9110    0.0000 C   0  0  0  0  0  0  0  0  0  0  0  0
   -2.5902   10.8715    0.0000 N   0  0  0  0  0  0  0  0  0  0  0  0
   -1.7652   10.8715    0.0000 C   0  0  0  0  0  0  0  0  0  0  0  0
   -1.5103   11.6561    0.0000 C   0  0  0  0  0  0  0  0  0  0  0  0
   -0.7256   11.9110    0.0000 C   0  0  0  0  0  0  0  0  0  0  0  0
   -0.5541   12.7180    0.0000 N   0  0  0  0  0  0  0  0  0  0  0  0
    0.2305   12.9729    0.0000 C   0  0  0  0  0  0  0  0  0  0  0  0
    0.4020   13.7799    0.0000 N   0  0  0  0  0  0  0  0  0  0  0  0
    1.1867   14.0348    0.0000 C   0  0  0  0  0  0  0  0  0  0  0  0
    1.3582   14.8418    0.0000 C   0  0  0  0  0  0  0  0  0  0  0  0
    2.1428   15.0968    0.0000 C   0  0  0  0  0  0  0  0  0  0  0  0
    2.7559   14.5447    0.0000 C   0  0  0  0  0  0  0  0  0  0  0  0
    2.5844   13.7378    0.0000 C   0  0  0  0  0  0  0  0  0  0  0  0
    1.7998   13.4828    0.0000 C   0  0  0  0  0  0  0  0  0  0  0  0
    3.5405   14.7997    0.0000 C   0  0  0  0  0  0  0  0  0  0  0  0
    4.1536   14.2476    0.0000 O   0  0  0  0  0  0  0  0  0  0  0  0
    3.7121   15.6066    0.0000 N   0  0  0  0  0  0  0  0  0  0  0  0
    3.1600   16.2197    0.0000 C   0  0  0  0  0  0  0  0  0  0  0  0
    3.5725   16.9342    0.0000 C   0  0  0  0  0  0  0  0  0  0  0  0
    4.3795   16.7627    0.0000 C   0  0  1  0  0  0  0  0  0  0  0  0
    4.4657   15.9422    0.0000 C   0  0  0  0  0  0  0  0  0  0  0  0
    4.9926   17.3147    0.0000 N   0  0  0  0  0  0  0  0  0  0  0  0
    4.8211   18.1217    0.0000 C   0  0  0  0  0  0  0  0  0  0  0  0
    5.7772   17.0598    0.0000 C   0  0  0  0  0  0  0  0  0  0  0  0
    0.8436   12.4209    0.0000 N   0  0  0  0  0  0  0  0  0  0  0  0
    0.6721   11.6139    0.0000 C   0  0  0  0  0  0  0  0  0  0  0  0
   -0.1125   11.3590    0.0000 C   0  0  0  0  0  0  0  0  0  0  0  0
   -0.2841   10.5520    0.0000 F   0  0  0  0  0  0  0  0  0  0  0  0
    4.2284   17.3267    0.0000 H   0  0  0  0  0  0  0  0  0  0  0  0
   -2.8922   14.4485    0.0000 H   0  0  0  0  0  0  0  0  0  0  0  0
   -3.8188   12.8435    0.0000 H   0  0  0  0  0  0  0  0  0  0  0  0
   -3.8189   13.9135    0.0000 H   0  0  0  0  0  0  0  0  0  0  0  0
   -1.2511   12.4310    0.0000 H   0  0  0  0  0  0  0  0  0  0  0  0
   -0.5366   12.8435    0.0000 H   0  0  0  0  0  0  0  0  0  0  0  0
   -1.4632   14.4485    0.0000 H   0  0  0  0  0  0  0  0  0  0  0  0
   -0.5365   13.9135    0.0000 H   0  0  0  0  0  0  0  0  0  0  0  0
   -3.8523   12.9576    0.0000 H   0  0  0  0  0  0  0  0  0  0  0  0
   -4.4249   11.1950    0.0000 H   0  0  0  0  0  0  0  0  0  0  0  0
   -4.6475   12.2416    0.0000 H   0  0  0  0  0  0  0  0  0  0  0  0
   -1.1586   10.0366    0.0000 H   0  0  0  0  0  0  0  0  0  0  0  0
   -0.3296   14.4387    0.0000 H   0  0  0  0  0  0  0  0  0  0  0  0
    0.5912   15.5323    0.0000 H   0  0  0  0  0  0  0  0  0  0  0  0
    2.3574   16.1063    0.0000 H   0  0  0  0  0  0  0  0  0  0  0  0
    3.3514   13.0473    0.0000 H   0  0  0  0  0  0  0  0  0  0  0  0
    1.5853   12.4733    0.0000 H   0  0  0  0  0  0  0  0  0  0  0  0
    2.0959   16.1078    0.0000 H   0  0  0  0  0  0  0  0  0  0  0  0
    2.5772   17.1171    0.0000 H   0  0  0  0  0  0  0  0  0  0  0  0
    3.1373   17.9117    0.0000 H   0  0  0  0  0  0  0  0  0  0  0  0
    4.2458   17.7658    0.0000 H   0  0  0  0  0  0  0  0  0  0  0  0
    5.3924   15.4072    0.0000 H   0  0  0  0  0  0  0  0  0  0  0  0
    5.3631   16.5250    0.0000 H   0  0  0  0  0  0  0  0  0  0  0  0
    5.6163   18.8376    0.0000 H   0  0  0  0  0  0  0  0  0  0  0  0
    3.8035   18.4524    0.0000 H   0  0  0  0  0  0  0  0  0  0  0  0
    4.5987   19.1683    0.0000 H   0  0  0  0  0  0  0  0  0  0  0  0
    5.9997   16.0132    0.0000 H   0  0  0  0  0  0  0  0  0  0  0  0
    6.5723   17.7758    0.0000 H   0  0  0  0  0  0  0  0  0  0  0  0
    6.7948   16.7292    0.0000 H   0  0  0  0  0  0  0  0  0  0  0  0
    1.4390   10.9234    0.0000 H   0  0  0  0  0  0  0  0  0  0  0  0
  1  2  1  0  0  0  0
  1 35  1  0  0  0  0
  1 36  1  0  0  0  0
  1 37  1  0  0  0  0
  2  3  1  0  0  0  0
  2  4  1  0  0  0  0
  2 38  1  0  0  0  0
  3 39  1  0  0  0  0
  3 40  1  0  0  0  0
  3 41  1  0  0  0  0
  4  5  1  0  0  0  0
  4  9  1  0  0  0  0
  5  6  1  0  0  0  0
  5  7  2  0  0  0  0
  6 42  1  0  0  0  0
  6 43  1  0  0  0  0
  6 44  1  0  0  0  0
  7  8  1  0  0  0  0
  8  9  2  0  0  0  0
  8 45  1  0  0  0  0
  9 10  1  0  0  0  0
 10 11  1  0  0  0  0
 10 32  2  0  0  0  0
 11 12  2  0  0  0  0
 12 13  1  0  0  0  0
 12 30  1  0  0  0  0
 13 14  1  0  0  0  0
 13 46  1  0  0  0  0
 14 15  1  0  0  0  0
 14 19  2  0  0  0  0
 15 16  2  0  0  0  0
 15 47  1  0  0  0  0
 16 17  1  0  0  0  0
 16 48  1  0  0  0  0
 17 18  2  0  0  0  0
 17 20  1  0  0  0  0
 18 19  1  0  0  0  0
 18 49  1  0  0  0  0
 19 50  1  0  0  0  0
 20 21  2  0  0  0  0
 20 22  1  0  0  0  0
 22 23  1  0  0  0  0
 22 26  1  0  0  0  0
 23 24  1  0  0  0  0
 23 51  1  0  0  0  0
 23 52  1  0  0  0  0
 24 25  1  0  0  0  0
 24 53  1  0  0  0  0
 24 54  1  0  0  0  0
 25 26  1  0  0  0  0
 25 27  1  0  0  0  0
 25 34  1  1  0  0  0
 26 55  1  0  0  0  0
 26 56  1  0  0  0  0
 27 28  1  0  0  0  0
 27 29  1  0  0  0  0
 28 57  1  0  0  0  0
 28 58  1  0  0  0  0
 28 59  1  0  0  0  0
 29 60  1  0  0  0  0
 29 61  1  0  0  0  0
 29 62  1  0  0  0  0
 30 31  2  0  0  0  0
 31 32  1  0  0  0  0
 31 63  1  0  0  0  0
 32 33  1  0  0  0  0
M  END
>  <DRUGBANK_ID>
DB07936

>  <COMMON_NAME>
N-(4-{[(3S)-3-(dimethylamino)pyrrolidin-1-yl]carbonyl}phenyl)-5-fluoro-4-[2-methyl-1-(1-methylethyl)-1H-imidazol-5-yl]pyrimidin-2-amine

$$$$
