204
 OpenBabel10282417072D

 56 57  0  0  1  0  0  0  0  0999 V2000
    5.9370    5.1564    0.0000 S   0  0  0  0  0  0  0  0  0  0  0  0
    2.3645   -5.1564    0.0000 S   0  0  0  0  0  0  0  0  0  0  0  0
    3.0791   -1.4438    0.0000 O   0  0  0  0  0  0  0  0  0  0  0  0
    6.3495    4.4419    0.0000 O   0  0  0  0  0  0  0  0  0  0  0  0
    5.5245    5.8708    0.0000 O   0  0  0  0  0  0  0  0  0  0  0  0
    1.9520   -4.4419    0.0000 O   0  0  0  0  0  0  0  0  0  0  0  0
    2.7770   -5.8708    0.0000 O   0  0  0  0  0  0  0  0  0  0  0  0
    4.5080    0.2063    0.0000 N   0  0  0  0  0  0  0  0  0  0  0  0
    5.2224    4.7439    0.0000 N   0  0  0  0  0  0  0  0  0  0  0  0
    3.0791   -4.7439    0.0000 N   0  0  0  0  0  0  0  0  0  0  0  0
    4.5080    1.0313    0.0000 C   0  0  0  0  0  0  0  0  0  0  0  0
    5.2224    1.4438    0.0000 C   0  0  0  0  0  0  0  0  0  0  0  0
    3.7935   -0.2063    0.0000 C   0  0  0  0  0  0  0  0  0  0  0  0
    5.2224    2.2688    0.0000 C   0  0  0  0  0  0  0  0  0  0  0  0
    3.7935   -1.0313    0.0000 C   0  0  0  0  0  0  0  0  0  0  0  0
    5.2224   -0.2063    0.0000 C   0  0  0  0  0  0  0  0  0  0  0  0
    4.5080    2.6813    0.0000 C   0  0  0  0  0  0  0  0  0  0  0  0
    5.9370    2.6813    0.0000 C   0  0  0  0  0  0  0  0  0  0  0  0
    5.2224    3.9188    0.0000 C   0  0  0  0  0  0  0  0  0  0  0  0
    4.5080    3.5063    0.0000 C   0  0  0  0  0  0  0  0  0  0  0  0
    5.9370    3.5063    0.0000 C   0  0  0  0  0  0  0  0  0  0  0  0
    3.0791   -2.2688    0.0000 C   0  0  0  0  0  0  0  0  0  0  0  0
    3.0791   -3.9188    0.0000 C   0  0  0  0  0  0  0  0  0  0  0  0
    2.3645   -2.6813    0.0000 C   0  0  0  0  0  0  0  0  0  0  0  0
    3.7935   -2.6813    0.0000 C   0  0  0  0  0  0  0  0  0  0  0  0
    2.3645   -3.5063    0.0000 C   0  0  0  0  0  0  0  0  0  0  0  0
    3.7935   -3.5063    0.0000 C   0  0  0  0  0  0  0  0  0  0  0  0
    6.6515    5.5689    0.0000 C   0  0  0  0  0  0  0  0  0  0  0  0
    1.6500   -5.5689    0.0000 C   0  0  0  0  0  0  0  0  0  0  0  0
    4.3698    5.2362    0.0000 H   0  0  0  0  0  0  0  0  0  0  0  0
    3.9317   -5.2362    0.0000 H   0  0  0  0  0  0  0  0  0  0  0  0
    3.5813    1.5663    0.0000 H   0  0  0  0  0  0  0  0  0  0  0  0
    4.5080    2.1013    0.0000 H   0  0  0  0  0  0  0  0  0  0  0  0
    6.1491    0.9088    0.0000 H   0  0  0  0  0  0  0  0  0  0  0  0
    6.1490    1.9788    0.0000 H   0  0  0  0  0  0  0  0  0  0  0  0
    2.8668    0.3287    0.0000 H   0  0  0  0  0  0  0  0  0  0  0  0
    2.8669   -0.7413    0.0000 H   0  0  0  0  0  0  0  0  0  0  0  0
    4.7202   -1.5663    0.0000 H   0  0  0  0  0  0  0  0  0  0  0  0
    4.7201   -0.4963    0.0000 H   0  0  0  0  0  0  0  0  0  0  0  0
    5.2222   -1.2763    0.0000 H   0  0  0  0  0  0  0  0  0  0  0  0
    6.1491    0.3286    0.0000 H   0  0  0  0  0  0  0  0  0  0  0  0
    6.1490   -0.7414    0.0000 H   0  0  0  0  0  0  0  0  0  0  0  0
    3.6143    2.1653    0.0000 H   0  0  0  0  0  0  0  0  0  0  0  0
    6.8307    2.1653    0.0000 H   0  0  0  0  0  0  0  0  0  0  0  0
    3.6143    4.0223    0.0000 H   0  0  0  0  0  0  0  0  0  0  0  0
    6.8307    4.0223    0.0000 H   0  0  0  0  0  0  0  0  0  0  0  0
    1.4708   -2.1653    0.0000 H   0  0  0  0  0  0  0  0  0  0  0  0
    4.6872   -2.1653    0.0000 H   0  0  0  0  0  0  0  0  0  0  0  0
    1.4708   -4.0223    0.0000 H   0  0  0  0  0  0  0  0  0  0  0  0
    4.6872   -4.0223    0.0000 H   0  0  0  0  0  0  0  0  0  0  0  0
    7.5781    5.0339    0.0000 H   0  0  0  0  0  0  0  0  0  0  0  0
    6.6515    6.6389    0.0000 H   0  0  0  0  0  0  0  0  0  0  0  0
    7.5782    6.1039    0.0000 H   0  0  0  0  0  0  0  0  0  0  0  0
    0.7234   -5.0339    0.0000 H   0  0  0  0  0  0  0  0  0  0  0  0
    1.6500   -6.6389    0.0000 H   0  0  0  0  0  0  0  0  0  0  0  0
    0.7233   -6.1039    0.0000 H   0  0  0  0  0  0  0  0  0  0  0  0
  1  4  2  0  0  0  0
  1  5  2  0  0  0  0
  1  9  1  0  0  0  0
  1 28  1  0  0  0  0
  2  6  2  0  0  0  0
  2  7  2  0  0  0  0
  2 10  1  0  0  0  0
  2 29  1  0  0  0  0
  3 15  1  0  0  0  0
  3 22  1  0  0  0  0
  8 11  1  0  0  0  0
  8 13  1  0  0  0  0
  8 16  1  0  0  0  0
  9 19  1  0  0  0  0
  9 30  1  0  0  0  0
 10 23  1  0  0  0  0
 10 31  1  0  0  0  0
 11 12  1  0  0  0  0
 11 32  1  0  0  0  0
 11 33  1  0  0  0  0
 12 14  1  0  0  0  0
 12 34  1  0  0  0  0
 12 35  1  0  0  0  0
 13 15  1  0  0  0  0
 13 36  1  0  0  0  0
 13 37  1  0  0  0  0
 14 17  2  0  0  0  0
 14 18  1  0  0  0  0
 15 38  1  0  0  0  0
 15 39  1  0  0  0  0
 16 40  1  0  0  0  0
 16 41  1  0  0  0  0
 16 42  1  0  0  0  0
 17 20  1  0  0  0  0
 17 43  1  0  0  0  0
 18 21  2  0  0  0  0
 18 44  1  0  0  0  0
 19 20  2  0  0  0  0
 19 21  1  0  0  0  0
 20 45  1  0  0  0  0
 21 46  1  0  0  0  0
 22 24  2  0  0  0  0
 22 25  1  0  0  0  0
 23 26  2  0  0  0  0
 23 27  1  0  0  0  0
 24 26  1  0  0  0  0
 24 47  1  0  0  0  0
 25 27  2  0  0  0  0
 25 48  1  0  0  0  0
 26 49  1  0  0  0  0
 27 50  1  0  0  0  0
 28 51  1  0  0  0  0
 28 52  1  0  0  0  0
 28 53  1  0  0  0  0
 29 54  1  0  0  0  0
 29 55  1  0  0  0  0
 29 56  1  0  0  0  0
M  END
>  <DRUGBANK_ID>
DB00204

>  <SECONDARY_ACCESSION_NUMBERS>
APRD00367

>  <COMMON_NAME>
Dofetilide

>  <CAS_NUMBER>
115256-11-6

>  <UNII>
R4Z9X1N2ND

>  <SYNONYMS>
beta-((p-Methanesulfonamidophenethyl)methylamino)methanesulfono-p-phenetidide; Dofetilida; Dofetilide; Dofetilidum

$$$$
