1NB
 OpenBabel10282417072D

 28 28  0  0  0  0  0  0  0  0999 V2000
    0.4611    0.4681    0.0000 C   0  0  1  0  0  0  0  0  0  0  0  0
    0.4611   -0.3569    0.0000 C   0  0  1  0  0  0  0  0  0  0  0  0
    1.1285   -0.8418    0.0000 C   0  0  0  0  0  0  0  0  0  0  0  0
   -0.2534    1.7056    0.0000 C   0  0  0  0  0  0  0  0  0  0  0  0
    1.8900    0.4681    0.0000 O   0  0  0  0  0  0  0  0  0  0  0  0
   -0.9910   -0.5868    0.0000 O   0  0  0  0  0  0  0  0  0  0  0  0
    0.8736   -1.6264    0.0000 C   0  0  0  0  0  0  0  0  0  0  0  0
   -0.2064   -0.8418    0.0000 C   0  0  1  0  0  0  0  0  0  0  0  0
   -0.2534    0.8806    0.0000 C   0  0  0  0  0  0  0  0  0  0  0  0
    0.0486   -1.6264    0.0000 C   0  0  0  0  0  0  0  0  0  0  0  0
   -0.9679    2.1181    0.0000 C   0  0  0  0  0  0  0  0  0  0  0  0
    1.1756    0.8806    0.0000 C   0  0  0  0  0  0  0  0  0  0  0  0
   -0.0446    0.1762    0.0000 H   0  0  0  0  0  0  0  0  0  0  0  0
    0.9814   -0.0918    0.0000 H   0  0  0  0  0  0  0  0  0  0  0  0
   -0.2977   -0.2650    0.0000 H   0  0  0  0  0  0  0  0  0  0  0  0
    2.1461   -0.5111    0.0000 H   0  0  0  0  0  0  0  0  0  0  0  0
    1.8851   -1.5984    0.0000 H   0  0  0  0  0  0  0  0  0  0  0  0
    0.6403    2.2216    0.0000 H   0  0  0  0  0  0  0  0  0  0  0  0
   -1.1926    0.3620    0.0000 H   0  0  0  0  0  0  0  0  0  0  0  0
    1.5025   -2.4920    0.0000 H   0  0  0  0  0  0  0  0  0  0  0  0
    0.3878   -2.5798    0.0000 H   0  0  0  0  0  0  0  0  0  0  0  0
   -1.1800    0.3456    0.0000 H   0  0  0  0  0  0  0  0  0  0  0  0
   -1.1800    1.4156    0.0000 H   0  0  0  0  0  0  0  0  0  0  0  0
   -0.5803   -2.4921    0.0000 H   0  0  0  0  0  0  0  0  0  0  0  0
   -1.0082   -1.4591    0.0000 H   0  0  0  0  0  0  0  0  0  0  0  0
   -0.9679    3.1501    0.0000 H   0  0  0  0  0  0  0  0  0  0  0  0
   -1.8616    1.6021    0.0000 H   0  0  0  0  0  0  0  0  0  0  0  0
    1.1756    1.9126    0.0000 H   0  0  0  0  0  0  0  0  0  0  0  0
  1  9  1  0  0  0  0
  1 12  1  0  0  0  0
  1 13  1  6  0  0  0
  2  1  1  0  0  0  0
  2  3  1  0  0  0  0
  2  8  1  0  0  0  0
  2 14  1  6  0  0  0
  3  7  1  0  0  0  0
  3 16  1  0  0  0  0
  3 17  1  0  0  0  0
  4  9  1  0  0  0  0
  4 11  2  0  0  0  0
  4 18  1  0  0  0  0
  5 12  2  0  0  0  0
  6 19  1  0  0  0  0
  7 10  1  0  0  0  0
  7 20  1  0  0  0  0
  7 21  1  0  0  0  0
  8  6  1  0  0  0  0
  8 10  1  0  0  0  0
  8 15  1  1  0  0  0
  9 22  1  0  0  0  0
  9 23  1  0  0  0  0
 10 24  1  0  0  0  0
 10 25  1  0  0  0  0
 11 26  1  0  0  0  0
 11 27  1  0  0  0  0
 12 28  1  0  0  0  0
M  END
>  <DRUGBANK_ID>
DB06901

>  <COMMON_NAME>
2-(2-HYDROXY-CYCLOPENTYL)-PENT-4-ENAL

$$$$
