1555
 OpenBabel10282417072D

 57 58  0  0  1  0  0  0  0  0999 V2000
    5.8950   -0.7144    0.0000 O   0  0  0  0  0  0  0  0  0  0  0  0
    7.1325    0.0000    0.0000 O   0  0  0  0  0  0  0  0  0  0  0  0
    2.4253   -0.2482    0.0000 N   0  0  0  0  0  0  0  0  0  0  0  0
    4.6575    0.0000    0.0000 C   0  0  0  0  0  0  0  0  0  0  0  0
    3.8325    0.0000    0.0000 C   0  0  0  0  0  0  0  0  0  0  0  0
    5.4825    0.0000    0.0000 C   0  0  1  0  0  0  0  0  0  0  0  0
    3.0572    0.2822    0.0000 C   0  0  1  0  0  0  0  0  0  0  0  0
    4.6575    0.8250    0.0000 C   0  0  0  0  0  0  0  0  0  0  0  0
    4.6575   -0.8250    0.0000 C   0  0  0  0  0  0  0  0  0  0  0  0
    5.8950    0.7144    0.0000 C   0  0  0  0  0  0  0  0  0  0  0  0
    2.9140    1.0946    0.0000 C   0  0  0  0  0  0  0  0  0  0  0  0
    3.9430    1.2375    0.0000 C   0  0  0  0  0  0  0  0  0  0  0  0
    5.3720   -1.2375    0.0000 C   0  0  0  0  0  0  0  0  0  0  0  0
    5.3720    1.2375    0.0000 C   0  0  0  0  0  0  0  0  0  0  0  0
    3.9430   -1.2375    0.0000 C   0  0  0  0  0  0  0  0  0  0  0  0
    6.7200    0.7144    0.0000 C   0  0  0  0  0  0  0  0  0  0  0  0
    1.6500    0.0341    0.0000 C   0  0  0  0  0  0  0  0  0  0  0  0
    2.5685   -1.0605    0.0000 C   0  0  0  0  0  0  0  0  0  0  0  0
    3.9430    2.0625    0.0000 C   0  0  0  0  0  0  0  0  0  0  0  0
    5.3720   -2.0625    0.0000 C   0  0  0  0  0  0  0  0  0  0  0  0
    5.3720    2.0625    0.0000 C   0  0  0  0  0  0  0  0  0  0  0  0
    3.9430   -2.0625    0.0000 C   0  0  0  0  0  0  0  0  0  0  0  0
    6.7200   -0.7144    0.0000 C   0  0  0  0  0  0  0  0  0  0  0  0
    4.6575    2.4750    0.0000 C   0  0  0  0  0  0  0  0  0  0  0  0
    4.6575   -2.4750    0.0000 C   0  0  0  0  0  0  0  0  0  0  0  0
    7.1325   -1.4290    0.0000 C   0  0  0  0  0  0  0  0  0  0  0  0
    3.6467   -1.0537    0.0000 H   0  0  0  0  0  0  0  0  0  0  0  0
    2.9058   -0.5350    0.0000 H   0  0  0  0  0  0  0  0  0  0  0  0
    4.9475   -0.9267    0.0000 H   0  0  0  0  0  0  0  0  0  0  0  0
    3.2431   -0.7715    0.0000 H   0  0  0  0  0  0  0  0  0  0  0  0
    5.3600    1.6411    0.0000 H   0  0  0  0  0  0  0  0  0  0  0  0
    6.4300    1.6410    0.0000 H   0  0  0  0  0  0  0  0  0  0  0  0
    3.7337    1.7823    0.0000 H   0  0  0  0  0  0  0  0  0  0  0  0
    1.9085    1.4606    0.0000 H   0  0  0  0  0  0  0  0  0  0  0  0
    2.7283    2.1484    0.0000 H   0  0  0  0  0  0  0  0  0  0  0  0
    3.0493    0.7215    0.0000 H   0  0  0  0  0  0  0  0  0  0  0  0
    6.2657   -0.7215    0.0000 H   0  0  0  0  0  0  0  0  0  0  0  0
    6.2657    0.7215    0.0000 H   0  0  0  0  0  0  0  0  0  0  0  0
    3.0493   -0.7215    0.0000 H   0  0  0  0  0  0  0  0  0  0  0  0
    7.2550   -0.2122    0.0000 H   0  0  0  0  0  0  0  0  0  0  0  0
    7.2550    1.6410    0.0000 H   0  0  0  0  0  0  0  0  0  0  0  0
    7.7900    0.7144    0.0000 H   0  0  0  0  0  0  0  0  0  0  0  0
    1.4643    1.0879    0.0000 H   0  0  0  0  0  0  0  0  0  0  0  0
    0.8302   -0.6536    0.0000 H   0  0  0  0  0  0  0  0  0  0  0  0
    0.6446    0.4002    0.0000 H   0  0  0  0  0  0  0  0  0  0  0  0
    1.7488   -1.7483    0.0000 H   0  0  0  0  0  0  0  0  0  0  0  0
    3.5740   -1.4265    0.0000 H   0  0  0  0  0  0  0  0  0  0  0  0
    2.7543   -2.1143    0.0000 H   0  0  0  0  0  0  0  0  0  0  0  0
    3.0493    2.5785    0.0000 H   0  0  0  0  0  0  0  0  0  0  0  0
    6.2657   -2.5785    0.0000 H   0  0  0  0  0  0  0  0  0  0  0  0
    6.2657    2.5785    0.0000 H   0  0  0  0  0  0  0  0  0  0  0  0
    3.0493   -2.5785    0.0000 H   0  0  0  0  0  0  0  0  0  0  0  0
    4.6575    3.5070    0.0000 H   0  0  0  0  0  0  0  0  0  0  0  0
    4.6575   -3.5070    0.0000 H   0  0  0  0  0  0  0  0  0  0  0  0
    6.5974   -2.3556    0.0000 H   0  0  0  0  0  0  0  0  0  0  0  0
    8.2025   -1.4291    0.0000 H   0  0  0  0  0  0  0  0  0  0  0  0
    7.6674   -2.3557    0.0000 H   0  0  0  0  0  0  0  0  0  0  0  0
  1 23  1  0  0  0  0
  2 23  2  0  0  0  0
  3 17  1  0  0  0  0
  3 18  1  0  0  0  0
  4  5  1  0  0  0  0
  4  6  1  0  0  0  0
  4  8  1  0  0  0  0
  4  9  1  0  0  0  0
  5  7  1  0  0  0  0
  5 27  1  0  0  0  0
  5 28  1  0  0  0  0
  6  1  1  0  0  0  0
  6 10  1  0  0  0  0
  6 29  1  6  0  0  0
  7  3  1  0  0  0  0
  7 11  1  0  0  0  0
  7 30  1  1  0  0  0
  8 12  2  0  0  0  0
  8 14  1  0  0  0  0
  9 13  2  0  0  0  0
  9 15  1  0  0  0  0
 10 16  1  0  0  0  0
 10 31  1  0  0  0  0
 10 32  1  0  0  0  0
 11 33  1  0  0  0  0
 11 34  1  0  0  0  0
 11 35  1  0  0  0  0
 12 19  1  0  0  0  0
 12 36  1  0  0  0  0
 13 20  1  0  0  0  0
 13 37  1  0  0  0  0
 14 21  2  0  0  0  0
 14 38  1  0  0  0  0
 15 22  2  0  0  0  0
 15 39  1  0  0  0  0
 16 40  1  0  0  0  0
 16 41  1  0  0  0  0
 16 42  1  0  0  0  0
 17 43  1  0  0  0  0
 17 44  1  0  0  0  0
 17 45  1  0  0  0  0
 18 46  1  0  0  0  0
 18 47  1  0  0  0  0
 18 48  1  0  0  0  0
 19 24  2  0  0  0  0
 19 49  1  0  0  0  0
 20 25  2  0  0  0  0
 20 50  1  0  0  0  0
 21 24  1  0  0  0  0
 21 51  1  0  0  0  0
 22 25  1  0  0  0  0
 22 52  1  0  0  0  0
 23 26  1  0  0  0  0
 24 53  1  0  0  0  0
 25 54  1  0  0  0  0
 26 55  1  0  0  0  0
 26 56  1  0  0  0  0
 26 57  1  0  0  0  0
M  END
>  <DRUGBANK_ID>
DB01555

>  <COMMON_NAME>
Alphacetylmethadol

>  <CAS_NUMBER>
17199-58-5

>  <UNII>
BXF83S0HEL

>  <SYNONYMS>
Alphacetylmethadol

$$$$
