
 OpenBabel10282417072D

 50 53  0  0  1  0  0  0  0  0999 V2000
    0.4944    6.0604    0.0000 F   0  0  0  0  0  0  0  0  0  0  0  0
    1.2089    6.4729    0.0000 C   0  0  0  0  0  0  0  0  0  0  0  0
    1.2089    7.2979    0.0000 C   0  0  0  0  0  0  0  0  0  0  0  0
    1.9233    7.7104    0.0000 C   0  0  0  0  0  0  0  0  0  0  0  0
    2.6378    7.2979    0.0000 C   0  0  0  0  0  0  0  0  0  0  0  0
    2.6378    6.4729    0.0000 C   0  0  0  0  0  0  0  0  0  0  0  0
    1.9233    6.0604    0.0000 C   0  0  0  0  0  0  0  0  0  0  0  0
    1.9233    5.2354    0.0000 N   0  0  0  0  0  0  0  0  0  0  0  0
    2.6378    4.8229    0.0000 S   0  0  0  0  0  0  0  0  0  0  0  0
    2.2253    4.1085    0.0000 O   0  0  0  0  0  0  0  0  0  0  0  0
    3.0503    5.5374    0.0000 O   0  0  0  0  0  0  0  0  0  0  0  0
    3.3523    4.4104    0.0000 C   0  0  0  0  0  0  0  0  0  0  0  0
    4.0668    4.8229    0.0000 C   0  0  0  0  0  0  0  0  0  0  0  0
    4.0668    5.6479    0.0000 F   0  0  0  0  0  0  0  0  0  0  0  0
    4.7812    4.4104    0.0000 C   0  0  0  0  0  0  0  0  0  0  0  0
    4.7812    3.5854    0.0000 C   0  0  0  0  0  0  0  0  0  0  0  0
    5.4957    3.1729    0.0000 Cl  0  0  0  0  0  0  0  0  0  0  0  0
    4.0668    3.1729    0.0000 C   0  0  0  0  0  0  0  0  0  0  0  0
    3.3523    3.5854    0.0000 C   0  0  0  0  0  0  0  0  0  0  0  0
    4.0668    2.3479    0.0000 C   0  0  0  0  0  0  0  0  0  0  0  0
    4.7812    1.9354    0.0000 O   0  0  0  0  0  0  0  0  0  0  0  0
    3.3523    1.9354    0.0000 N   0  0  0  0  0  0  0  0  0  0  0  0
    3.3523    1.1104    0.0000 C   0  0  0  0  0  0  0  0  0  0  0  0
    2.6378    0.6979    0.0000 C   0  0  0  0  0  0  0  0  0  0  0  0
    1.9233    1.1104    0.0000 N   0  0  3  0  0  0  0  0  0  0  0  0
    1.1387    0.8555    0.0000 C   0  0  0  0  0  0  0  0  0  0  0  0
    0.6538    1.5229    0.0000 C   0  0  0  0  0  0  0  0  0  0  0  0
    1.1387    2.1904    0.0000 C   0  0  0  0  0  0  0  0  0  0  0  0
    1.9233    1.9354    0.0000 C   0  0  2  0  0  0  0  0  0  0  0  0
    2.6378    2.3479    0.0000 C   0  0  0  0  0  0  0  0  0  0  0  0
    0.3152    7.8139    0.0000 H   0  0  0  0  0  0  0  0  0  0  0  0
    1.9233    8.7424    0.0000 H   0  0  0  0  0  0  0  0  0  0  0  0
    3.5315    7.8139    0.0000 H   0  0  0  0  0  0  0  0  0  0  0  0
    3.5315    5.9569    0.0000 H   0  0  0  0  0  0  0  0  0  0  0  0
    1.0707    4.7431    0.0000 H   0  0  0  0  0  0  0  0  0  0  0  0
    5.6749    4.9264    0.0000 H   0  0  0  0  0  0  0  0  0  0  0  0
    2.4586    3.0694    0.0000 H   0  0  0  0  0  0  0  0  0  0  0  0
    4.2789    0.5754    0.0000 H   0  0  0  0  0  0  0  0  0  0  0  0
    3.3523    0.0404    0.0000 H   0  0  0  0  0  0  0  0  0  0  0  0
    2.6378   -0.3721    0.0000 H   0  0  0  0  0  0  0  0  0  0  0  0
    1.7112    0.1629    0.0000 H   0  0  0  0  0  0  0  0  0  0  0  0
    0.8080   -0.1621    0.0000 H   0  0  0  0  0  0  0  0  0  0  0  0
    0.0819    0.6881    0.0000 H   0  0  0  0  0  0  0  0  0  0  0  0
   -0.4162    1.5229    0.0000 H   0  0  0  0  0  0  0  0  0  0  0  0
    0.1680    2.4763    0.0000 H   0  0  0  0  0  0  0  0  0  0  0  0
    0.8081    3.2080    0.0000 H   0  0  0  0  0  0  0  0  0  0  0  0
    1.8953    2.9470    0.0000 H   0  0  0  0  0  0  0  0  0  0  0  0
    1.0576    1.3065    0.0000 H   0  0  0  0  0  0  0  0  0  0  0  0
    2.6378    3.4179    0.0000 H   0  0  0  0  0  0  0  0  0  0  0  0
    3.5644    2.8829    0.0000 H   0  0  0  0  0  0  0  0  0  0  0  0
  1  2  1  0  0  0  0
  2  3  2  0  0  0  0
  2  7  1  0  0  0  0
  3  4  1  0  0  0  0
  3 31  1  0  0  0  0
  4  5  2  0  0  0  0
  4 32  1  0  0  0  0
  5  6  1  0  0  0  0
  5 33  1  0  0  0  0
  6  7  2  0  0  0  0
  6 34  1  0  0  0  0
  7  8  1  0  0  0  0
  8  9  1  0  0  0  0
  8 35  1  0  0  0  0
  9 10  2  0  0  0  0
  9 11  2  0  0  0  0
  9 12  1  0  0  0  0
 12 13  2  0  0  0  0
 12 19  1  0  0  0  0
 13 14  1  0  0  0  0
 13 15  1  0  0  0  0
 15 16  2  0  0  0  0
 15 36  1  0  0  0  0
 16 17  1  0  0  0  0
 16 18  1  0  0  0  0
 18 19  2  0  0  0  0
 18 20  1  0  0  0  0
 19 37  1  0  0  0  0
 20 21  2  0  0  0  0
 20 22  1  0  0  0  0
 22 23  1  0  0  0  0
 22 30  1  0  0  0  0
 23 24  1  0  0  0  0
 23 38  1  0  0  0  0
 23 39  1  0  0  0  0
 24 25  1  0  0  0  0
 24 40  1  0  0  0  0
 24 41  1  0  0  0  0
 25 26  1  0  0  0  0
 26 27  1  0  0  0  0
 26 42  1  0  0  0  0
 26 43  1  0  0  0  0
 27 28  1  0  0  0  0
 27 44  1  0  0  0  0
 27 45  1  0  0  0  0
 28 46  1  0  0  0  0
 28 47  1  0  0  0  0
 29 28  1  0  0  0  0
 29 25  1  0  0  0  0
 29 30  1  0  0  0  0
 29 48  1  1  0  0  0
 30 49  1  0  0  0  0
 30 50  1  0  0  0  0
M  END
>  <DRUGBANK_ID>
DB15055

>  <COMMON_NAME>
ABT-639

>  <CAS_NUMBER>
1235560-28-7

>  <UNII>
0G7D0CQ88I

$$$$
