1208
 OpenBabel10282417072D

 50 53  0  0  1  0  0  0  0  0999 V2000
    5.2224   -1.1591    0.0000 F   0  0  0  0  0  0  0  0  0  0  0  0
    3.7935    1.3159    0.0000 F   0  0  0  0  0  0  0  0  0  0  0  0
    6.6649    2.1695    0.0000 O   0  0  0  0  0  0  0  0  0  0  0  0
    8.8509    0.9261    0.0000 O   0  0  0  0  0  0  0  0  0  0  0  0
    8.1317    2.1608    0.0000 O   0  0  0  0  0  0  0  0  0  0  0  0
    6.6745   -0.3628    0.0000 N   0  0  0  0  0  0  0  0  0  0  0  0
    3.7935   -0.3341    0.0000 N   0  0  0  0  0  0  0  0  0  0  0  0
    2.3645   -1.1591    0.0000 N   0  0  0  0  0  0  0  0  0  0  0  0
    5.2224    2.1409    0.0000 N   0  0  0  0  0  0  0  0  0  0  0  0
    6.6649   -1.1877    0.0000 C   0  0  0  0  0  0  0  0  0  0  0  0
    7.0692   -1.9069    0.0000 C   0  0  0  0  0  0  0  0  0  0  0  0
    6.2442   -1.8974    0.0000 C   0  0  0  0  0  0  0  0  0  0  0  0
    5.9370    0.0784    0.0000 C   0  0  0  0  0  0  0  0  0  0  0  0
    3.0790   -1.5717    0.0000 C   0  0  2  0  0  0  0  0  0  0  0  0
    2.3645   -0.3341    0.0000 C   0  0  1  0  0  0  0  0  0  0  0  0
    3.7935   -1.1591    0.0000 C   0  0  0  0  0  0  0  0  0  0  0  0
    3.0790    0.0784    0.0000 C   0  0  0  0  0  0  0  0  0  0  0  0
    4.5080    0.0784    0.0000 C   0  0  0  0  0  0  0  0  0  0  0  0
    7.4220    0.0612    0.0000 C   0  0  0  0  0  0  0  0  0  0  0  0
    5.9370    0.9034    0.0000 C   0  0  0  0  0  0  0  0  0  0  0  0
    5.2224   -0.3341    0.0000 C   0  0  0  0  0  0  0  0  0  0  0  0
    5.2224    1.3159    0.0000 C   0  0  0  0  0  0  0  0  0  0  0  0
    7.4220    0.9206    0.0000 C   0  0  0  0  0  0  0  0  0  0  0  0
    4.5080    0.9034    0.0000 C   0  0  0  0  0  0  0  0  0  0  0  0
    6.6745    1.3445    0.0000 C   0  0  0  0  0  0  0  0  0  0  0  0
    3.0790   -2.3967    0.0000 C   0  0  0  0  0  0  0  0  0  0  0  0
    1.6500    0.0784    0.0000 C   0  0  0  0  0  0  0  0  0  0  0  0
    8.1349    1.3358    0.0000 C   0  0  0  0  0  0  0  0  0  0  0  0
    8.8545   -0.0109    0.0000 H   0  0  0  0  0  0  0  0  0  0  0  0
    1.4811   -1.6691    0.0000 H   0  0  0  0  0  0  0  0  0  0  0  0
    6.0750    2.6331    0.0000 H   0  0  0  0  0  0  0  0  0  0  0  0
    4.3698    2.6331    0.0000 H   0  0  0  0  0  0  0  0  0  0  0  0
    6.6526   -2.2576    0.0000 H   0  0  0  0  0  0  0  0  0  0  0  0
    7.9896   -2.4525    0.0000 H   0  0  0  0  0  0  0  0  0  0  0  0
    6.7804   -2.9372    0.0000 H   0  0  0  0  0  0  0  0  0  0  0  0
    5.3115   -2.4217    0.0000 H   0  0  0  0  0  0  0  0  0  0  0  0
    6.5092   -2.9341    0.0000 H   0  0  0  0  0  0  0  0  0  0  0  0
    2.1523   -2.1067    0.0000 H   0  0  0  0  0  0  0  0  0  0  0  0
    1.4379   -0.8691    0.0000 H   0  0  0  0  0  0  0  0  0  0  0  0
    4.7202   -1.6941    0.0000 H   0  0  0  0  0  0  0  0  0  0  0  0
    3.7936   -2.2291    0.0000 H   0  0  0  0  0  0  0  0  0  0  0  0
    3.0790    1.1484    0.0000 H   0  0  0  0  0  0  0  0  0  0  0  0
    2.1524    0.6134    0.0000 H   0  0  0  0  0  0  0  0  0  0  0  0
    8.3138   -0.4582    0.0000 H   0  0  0  0  0  0  0  0  0  0  0  0
    2.1524   -2.9317    0.0000 H   0  0  0  0  0  0  0  0  0  0  0  0
    4.0056   -2.9317    0.0000 H   0  0  0  0  0  0  0  0  0  0  0  0
    3.0790   -3.4667    0.0000 H   0  0  0  0  0  0  0  0  0  0  0  0
    1.6500    1.1484    0.0000 H   0  0  0  0  0  0  0  0  0  0  0  0
    0.7234   -0.4566    0.0000 H   0  0  0  0  0  0  0  0  0  0  0  0
    0.7233    0.6134    0.0000 H   0  0  0  0  0  0  0  0  0  0  0  0
  1 21  1  0  0  0  0
  2 24  1  0  0  0  0
  3 25  2  0  0  0  0
  4 28  1  0  0  0  0
  4 29  1  0  0  0  0
  5 28  2  0  0  0  0
  6 10  1  0  0  0  0
  6 13  1  0  0  0  0
  6 19  1  0  0  0  0
  7 16  1  0  0  0  0
  7 17  1  0  0  0  0
  7 18  1  0  0  0  0
  8 14  1  0  0  0  0
  8 15  1  0  0  0  0
  8 30  1  0  0  0  0
  9 22  1  0  0  0  0
  9 31  1  0  0  0  0
  9 32  1  0  0  0  0
 10 11  1  0  0  0  0
 10 12  1  0  0  0  0
 10 33  1  0  0  0  0
 11 12  1  0  0  0  0
 11 34  1  0  0  0  0
 11 35  1  0  0  0  0
 12 36  1  0  0  0  0
 12 37  1  0  0  0  0
 13 20  1  0  0  0  0
 13 21  2  0  0  0  0
 14 16  1  0  0  0  0
 14 26  1  0  0  0  0
 14 38  1  1  0  0  0
 15 17  1  0  0  0  0
 15 27  1  0  0  0  0
 15 39  1  1  0  0  0
 16 40  1  0  0  0  0
 16 41  1  0  0  0  0
 17 42  1  0  0  0  0
 17 43  1  0  0  0  0
 18 21  1  0  0  0  0
 18 24  2  0  0  0  0
 19 23  2  0  0  0  0
 19 44  1  0  0  0  0
 20 22  2  0  0  0  0
 20 25  1  0  0  0  0
 22 24  1  0  0  0  0
 23 25  1  0  0  0  0
 23 28  1  0  0  0  0
 26 45  1  0  0  0  0
 26 46  1  0  0  0  0
 26 47  1  0  0  0  0
 27 48  1  0  0  0  0
 27 49  1  0  0  0  0
 27 50  1  0  0  0  0
M  END
>  <DRUGBANK_ID>
DB01208

>  <SECONDARY_ACCESSION_NUMBERS>
APRD01231

>  <COMMON_NAME>
Sparfloxacin

>  <CAS_NUMBER>
110871-86-8

>  <UNII>
Q90AGA787L

>  <SYNONYMS>
cis-5-Amino-1-cyclopropyl-7-(3,5-dimethyl-1-piperazinyl)-6,8-difluoro-1,4-dihydro-4-oxo-3-quinolinecarboxylic acid; Sparfloxacin

$$$$
