
 OpenBabel10282417072D

 49 47  0  0  0  0  0  0  0  0999 V2000
    1.2629    0.0000    0.0000 C   0  0  3  0  0  0  0  0  0  0  0  0
    1.9874   -0.4183    0.0000 O   0  0  0  0  0  0  0  0  0  0  0  0
    0.5384   -0.4183    0.0000 C   0  0  0  0  0  0  0  0  0  0  0  0
   -0.1760   -0.0057    0.0000 C   0  0  0  0  0  0  0  0  0  0  0  0
   -0.8856   -0.4153    0.0000 C   0  0  3  0  0  0  0  0  0  0  0  0
   -1.5974   -0.0042    0.0000 C   0  0  0  0  0  0  0  0  0  0  0  0
   -2.3083   -0.4146    0.0000 C   0  0  0  0  0  0  0  0  0  0  0  0
   -3.0196   -0.0038    0.0000 C   0  0  0  0  0  0  0  0  0  0  0  0
   -3.7307   -0.4144    0.0000 C   0  0  0  0  0  0  0  0  0  0  0  0
   -0.8857   -1.2548    0.0000 C   0  0  0  0  0  0  0  0  0  0  0  0
   -1.5989   -1.6666    0.0000 C   0  0  0  0  0  0  0  0  0  0  0  0
    1.2629    0.8366    0.0000 C   0  0  0  0  0  0  0  0  0  0  0  0
    1.9874    1.2549    0.0000 C   0  0  0  0  0  0  0  0  0  0  0  0
    2.7020    0.8424    0.0000 C   0  0  0  0  0  0  0  0  0  0  0  0
    1.9875    2.0915    0.0000 C   0  0  0  0  0  0  0  0  0  0  0  0
    1.9875   -1.2548    0.0000 S   0  0  0  0  0  0  0  0  0  0  0  0
    1.9875   -2.0915    0.0000 O   0  0  0  0  0  0  0  0  0  0  0  0
    2.8108   -1.2548    0.0000 O   0  5  0  0  0  0  0  0  0  0  0  0
    1.1374   -1.2549    0.0000 O   0  0  0  0  0  0  0  0  0  0  0  0
    3.7307   -1.2757    0.0000 Na  0  3  0  0  0  0  0  0  0  0  0  0
    1.2629   -1.0700    0.0000 H   0  0  0  0  0  0  0  0  0  0  0  0
    0.5383   -1.4883    0.0000 H   0  0  0  0  0  0  0  0  0  0  0  0
   -0.3883   -0.9532    0.0000 H   0  0  0  0  0  0  0  0  0  0  0  0
   -0.1759    1.0643    0.0000 H   0  0  0  0  0  0  0  0  0  0  0  0
   -1.1026    0.5294    0.0000 H   0  0  0  0  0  0  0  0  0  0  0  0
   -0.8855    0.6547    0.0000 H   0  0  0  0  0  0  0  0  0  0  0  0
   -1.5973    1.0658    0.0000 H   0  0  0  0  0  0  0  0  0  0  0  0
   -2.5240    0.5309    0.0000 H   0  0  0  0  0  0  0  0  0  0  0  0
   -2.3084   -1.4846    0.0000 H   0  0  0  0  0  0  0  0  0  0  0  0
   -3.2350   -0.9495    0.0000 H   0  0  0  0  0  0  0  0  0  0  0  0
   -3.0196    1.0662    0.0000 H   0  0  0  0  0  0  0  0  0  0  0  0
   -3.9462    0.5312    0.0000 H   0  0  0  0  0  0  0  0  0  0  0  0
   -4.6574    0.1206    0.0000 H   0  0  0  0  0  0  0  0  0  0  0  0
   -3.7306   -1.4844    0.0000 H   0  0  0  0  0  0  0  0  0  0  0  0
   -4.6573   -0.9494    0.0000 H   0  0  0  0  0  0  0  0  0  0  0  0
    0.0409   -1.7898    0.0000 H   0  0  0  0  0  0  0  0  0  0  0  0
   -0.8857   -2.3248    0.0000 H   0  0  0  0  0  0  0  0  0  0  0  0
   -2.5256   -1.1316    0.0000 H   0  0  0  0  0  0  0  0  0  0  0  0
   -1.5989   -2.7366    0.0000 H   0  0  0  0  0  0  0  0  0  0  0  0
   -2.5255   -2.2016    0.0000 H   0  0  0  0  0  0  0  0  0  0  0  0
    0.3363    1.3716    0.0000 H   0  0  0  0  0  0  0  0  0  0  0  0
    1.2629    1.9066    0.0000 H   0  0  0  0  0  0  0  0  0  0  0  0
    2.9141    1.7899    0.0000 H   0  0  0  0  0  0  0  0  0  0  0  0
    2.7021   -0.2276    0.0000 H   0  0  0  0  0  0  0  0  0  0  0  0
    3.6286    1.3775    0.0000 H   0  0  0  0  0  0  0  0  0  0  0  0
    3.6287    0.3075    0.0000 H   0  0  0  0  0  0  0  0  0  0  0  0
    2.9142    2.6264    0.0000 H   0  0  0  0  0  0  0  0  0  0  0  0
    1.0609    2.6266    0.0000 H   0  0  0  0  0  0  0  0  0  0  0  0
    1.9876    3.1615    0.0000 H   0  0  0  0  0  0  0  0  0  0  0  0
  1  2  1  0  0  0  0
  1  3  1  0  0  0  0
  1 12  1  0  0  0  0
  1 21  1  0  0  0  0
  2 16  1  0  0  0  0
  3  4  1  0  0  0  0
  3 22  1  0  0  0  0
  3 23  1  0  0  0  0
  4  5  1  0  0  0  0
  4 24  1  0  0  0  0
  4 25  1  0  0  0  0
  5  6  1  0  0  0  0
  5 10  1  0  0  0  0
  5 26  1  0  0  0  0
  6  7  1  0  0  0  0
  6 27  1  0  0  0  0
  6 28  1  0  0  0  0
  7  8  1  0  0  0  0
  7 29  1  0  0  0  0
  7 30  1  0  0  0  0
  8  9  1  0  0  0  0
  8 31  1  0  0  0  0
  8 32  1  0  0  0  0
  9 33  1  0  0  0  0
  9 34  1  0  0  0  0
  9 35  1  0  0  0  0
 10 11  1  0  0  0  0
 10 36  1  0  0  0  0
 10 37  1  0  0  0  0
 11 38  1  0  0  0  0
 11 39  1  0  0  0  0
 11 40  1  0  0  0  0
 12 13  1  0  0  0  0
 12 41  1  0  0  0  0
 12 42  1  0  0  0  0
 13 14  1  0  0  0  0
 13 15  1  0  0  0  0
 13 43  1  0  0  0  0
 14 44  1  0  0  0  0
 14 45  1  0  0  0  0
 14 46  1  0  0  0  0
 15 47  1  0  0  0  0
 15 48  1  0  0  0  0
 15 49  1  0  0  0  0
 16 17  2  0  0  0  0
 16 18  1  0  0  0  0
 16 19  2  0  0  0  0
M  CHG  2  18  -1  20   1
M  END
>  <DRUGBANK_ID>
DB00464

>  <SECONDARY_ACCESSION_NUMBERS>
APRD00575

>  <COMMON_NAME>
Sodium tetradecyl sulfate

>  <CAS_NUMBER>
139-88-8

>  <UNII>
Q1SUG5KBD6

>  <SYNONYMS>
7-Ethyl-2-methyl-4-undecanol sulfate sodium salt; 7-ethyl-2-methyl-4-undecanolsulfate, sodium salt; Natrii tetradecylis sulfa; Sodium 2-methyl-7-ethylundecanol-4-sulfate; Sodium 7-ethyl-2-methyl-4-undecanol sulfate; Sodium tetradecyl sulfate; Sodium tetradecyl sulphate; Sodium tetradecylsulfate; STS; Tetradecilsulfato sodico; Tetradecyl sodium sulfate; Tetradecyl sulfate de sodium

$$$$
