LS2
 OpenBabel10282417072D

 42 45  0  0  0  0  0  0  0  0999 V2000
   -1.2371   -3.1206    0.0000 N   0  0  0  0  0  0  0  0  0  0  0  0
   -1.3234   -2.3001    0.0000 C   0  0  0  0  0  0  0  0  0  0  0  0
   -0.5697   -1.9646    0.0000 C   0  0  0  0  0  0  0  0  0  0  0  0
    0.8073   -2.5777    0.0000 C   0  0  0  0  0  0  0  0  0  0  0  0
    1.2198   -3.2921    0.0000 C   0  0  0  0  0  0  0  0  0  0  0  0
    0.8073   -4.0066    0.0000 C   0  0  0  0  0  0  0  0  0  0  0  0
   -0.0177   -4.0066    0.0000 C   0  0  0  0  0  0  0  0  0  0  0  0
   -0.4302   -3.2921    0.0000 C   0  0  0  0  0  0  0  0  0  0  0  0
   -0.0177   -2.5777    0.0000 C   0  0  0  0  0  0  0  0  0  0  0  0
   -2.0378   -1.8876    0.0000 O   0  0  0  0  0  0  0  0  0  0  0  0
   -0.3982   -1.1576    0.0000 N   0  0  0  0  0  0  0  0  0  0  0  0
    1.3594   -1.9646    0.0000 S   0  0  0  0  0  0  0  0  0  0  0  0
    2.1130   -2.3001    0.0000 C   0  0  0  0  0  0  0  0  0  0  0  0
    2.0268   -3.1206    0.0000 N   0  0  0  0  0  0  0  0  0  0  0  0
   -1.0113   -0.6056    0.0000 N   0  0  0  0  0  0  0  0  0  0  0  0
   -0.8397    0.2014    0.0000 C   0  0  0  0  0  0  0  0  0  0  0  0
   -1.4528    0.7534    0.0000 C   0  0  0  0  0  0  0  0  0  0  0  0
   -1.2813    1.5604    0.0000 C   0  0  0  0  0  0  0  0  0  0  0  0
   -0.4967    1.8154    0.0000 C   0  0  0  0  0  0  0  0  0  0  0  0
    0.1164    1.2633    0.0000 C   0  0  0  0  0  0  0  0  0  0  0  0
   -0.0551    0.4564    0.0000 C   0  0  0  0  0  0  0  0  0  0  0  0
   -0.3252    2.6223    0.0000 C   0  0  0  0  0  0  0  0  0  0  0  0
    0.4595    2.8773    0.0000 S   0  0  0  0  0  0  0  0  0  0  0  0
    0.7144    2.0926    0.0000 O   0  0  0  0  0  0  0  0  0  0  0  0
    0.2045    3.6619    0.0000 O   0  0  0  0  0  0  0  0  0  0  0  0
    1.2441    3.1322    0.0000 N   0  0  0  0  0  0  0  0  0  0  0  0
    1.4156    3.9392    0.0000 C   0  0  0  0  0  0  0  0  0  0  0  0
   -1.9687   -3.7794    0.0000 H   0  0  0  0  0  0  0  0  0  0  0  0
    1.3233   -4.9003    0.0000 H   0  0  0  0  0  0  0  0  0  0  0  0
   -0.5337   -4.9003    0.0000 H   0  0  0  0  0  0  0  0  0  0  0  0
    3.0067   -1.7841    0.0000 H   0  0  0  0  0  0  0  0  0  0  0  0
   -1.9476   -0.9098    0.0000 H   0  0  0  0  0  0  0  0  0  0  0  0
   -2.4343    0.4345    0.0000 H   0  0  0  0  0  0  0  0  0  0  0  0
   -2.0483    2.2509    0.0000 H   0  0  0  0  0  0  0  0  0  0  0  0
    1.0979    1.5822    0.0000 H   0  0  0  0  0  0  0  0  0  0  0  0
    0.7119   -0.2341    0.0000 H   0  0  0  0  0  0  0  0  0  0  0  0
   -1.1204    3.3382    0.0000 H   0  0  0  0  0  0  0  0  0  0  0  0
   -0.1028    3.6689    0.0000 H   0  0  0  0  0  0  0  0  0  0  0  0
    2.0021    2.4497    0.0000 H   0  0  0  0  0  0  0  0  0  0  0  0
    2.4332    4.2699    0.0000 H   0  0  0  0  0  0  0  0  0  0  0  0
    0.6204    4.6551    0.0000 H   0  0  0  0  0  0  0  0  0  0  0  0
    1.6380    4.9858    0.0000 H   0  0  0  0  0  0  0  0  0  0  0  0
  1  2  1  0  0  0  0
  1  8  1  0  0  0  0
  1 28  1  0  0  0  0
  2  3  1  0  0  0  0
  2 10  2  0  0  0  0
  3  9  1  0  0  0  0
  3 11  2  0  0  0  0
  4  5  2  0  0  0  0
  4  9  1  0  0  0  0
  4 12  1  0  0  0  0
  5  6  1  0  0  0  0
  5 14  1  0  0  0  0
  6  7  2  0  0  0  0
  6 29  1  0  0  0  0
  7  8  1  0  0  0  0
  7 30  1  0  0  0  0
  8  9  2  0  0  0  0
 11 15  1  0  0  0  0
 12 13  1  0  0  0  0
 13 14  2  0  0  0  0
 13 31  1  0  0  0  0
 15 16  1  0  0  0  0
 15 32  1  0  0  0  0
 16 17  2  0  0  0  0
 16 21  1  0  0  0  0
 17 18  1  0  0  0  0
 17 33  1  0  0  0  0
 18 19  2  0  0  0  0
 18 34  1  0  0  0  0
 19 20  1  0  0  0  0
 19 22  1  0  0  0  0
 20 21  2  0  0  0  0
 20 35  1  0  0  0  0
 21 36  1  0  0  0  0
 22 23  1  0  0  0  0
 22 37  1  0  0  0  0
 22 38  1  0  0  0  0
 23 24  2  0  0  0  0
 23 25  2  0  0  0  0
 23 26  1  0  0  0  0
 26 27  1  0  0  0  0
 26 39  1  0  0  0  0
 27 40  1  0  0  0  0
 27 41  1  0  0  0  0
 27 42  1  0  0  0  0
M  END
>  <DRUGBANK_ID>
DB08123

>  <COMMON_NAME>
N-methyl-{4-[2-(7-oxo-6,7-dihydro-8H-[1,3]thiazolo[5,4-e]indol-8-ylidene)hydrazino]phenyl}methanesulfonamide

$$$$
