
 OpenBabel10282417072D

 99102  0  0  1  0  0  0  0  0999 V2000
   -2.8769    1.2776    0.0000 O   0  0  0  0  0  0  0  0  0  0  0  0
   -2.5189    0.5343    0.0000 S   0  0  0  0  0  0  0  0  0  0  0  0
   -3.3232    0.3507    0.0000 N   0  0  0  0  0  0  0  0  0  0  0  0
   -3.6811   -0.3925    0.0000 C   0  0  0  0  0  0  0  0  0  0  0  0
   -4.3262   -0.9068    0.0000 C   0  0  0  0  0  0  0  0  0  0  0  0
   -5.0941   -0.6054    0.0000 C   0  0  0  0  0  0  0  0  0  0  0  0
   -5.2171    0.2102    0.0000 C   0  0  0  0  0  0  0  0  0  0  0  0
   -5.9851    0.5116    0.0000 C   0  0  0  0  0  0  0  0  0  0  0  0
   -4.3262    0.1217    0.0000 C   0  0  0  0  0  0  0  0  0  0  0  0
   -4.2032    0.9376    0.0000 C   0  0  0  0  0  0  0  0  0  0  0  0
   -4.8484    1.4520    0.0000 C   0  0  0  0  0  0  0  0  0  0  0  0
   -4.7253    2.2677    0.0000 C   0  0  0  0  0  0  0  0  0  0  0  0
   -3.3232   -1.1358    0.0000 C   0  0  0  0  0  0  0  0  0  0  0  0
   -2.5189   -1.3194    0.0000 N   0  0  0  0  0  0  0  0  0  0  0  0
   -2.3354   -2.1238    0.0000 C   0  0  0  0  0  0  0  0  0  0  0  0
   -1.5470   -2.3669    0.0000 C   0  0  0  0  0  0  0  0  0  0  0  0
   -1.3634   -3.1712    0.0000 C   0  0  0  0  0  0  0  0  0  0  0  0
   -1.9681   -3.7324    0.0000 C   0  0  0  0  0  0  0  0  0  0  0  0
   -2.7565   -3.4891    0.0000 C   0  0  0  0  0  0  0  0  0  0  0  0
   -2.9401   -2.6849    0.0000 C   0  0  0  0  0  0  0  0  0  0  0  0
   -1.8739   -0.8050    0.0000 C   0  0  0  0  0  0  0  0  0  0  0  0
   -1.1594   -1.2175    0.0000 C   0  0  0  0  0  0  0  0  0  0  0  0
   -0.4449   -0.8050    0.0000 C   0  0  0  0  0  0  0  0  0  0  0  0
    0.2694   -1.2175    0.0000 S   0  0  0  0  0  0  0  0  0  0  0  0
    0.9839   -0.8050    0.0000 C   0  0  0  0  0  0  0  0  0  0  0  0
   -0.4449    0.0199    0.0000 C   0  0  0  0  0  0  0  0  0  0  0  0
    0.2694    0.4324    0.0000 O   0  0  0  0  0  0  0  0  0  0  0  0
    0.9839    0.0199    0.0000 C   0  0  0  0  0  0  0  0  0  0  0  0
    1.6984    0.4324    0.0000 C   0  0  0  0  0  0  0  0  0  0  0  0
    1.6984    1.2574    0.0000 O   0  0  0  0  0  0  0  0  0  0  0  0
    2.4128    0.0199    0.0000 N   0  0  0  0  0  0  0  0  0  0  0  0
    3.1273    0.4324    0.0000 C   0  0  2  0  0  0  0  0  0  0  0  0
    3.8418    0.0199    0.0000 C   0  0  0  0  0  0  0  0  0  0  0  0
    4.5562    0.4324    0.0000 C   0  0  0  0  0  0  0  0  0  0  0  0
    5.2707    0.0199    0.0000 C   0  0  0  0  0  0  0  0  0  0  0  0
    5.2707   -0.8050    0.0000 C   0  0  0  0  0  0  0  0  0  0  0  0
    5.9852   -1.2175    0.0000 O   0  0  0  0  0  0  0  0  0  0  0  0
    4.5562   -1.2175    0.0000 C   0  0  0  0  0  0  0  0  0  0  0  0
    3.8418   -0.8050    0.0000 C   0  0  0  0  0  0  0  0  0  0  0  0
    3.1273    1.2574    0.0000 C   0  0  0  0  0  0  0  0  0  0  0  0
    2.4128    1.6699    0.0000 O   0  0  0  0  0  0  0  0  0  0  0  0
    3.8418    1.6699    0.0000 N   0  0  0  0  0  0  0  0  0  0  0  0
    3.8418    2.4949    0.0000 C   0  0  1  0  0  0  0  0  0  0  0  0
    3.1273    2.9074    0.0000 C   0  0  0  0  0  0  0  0  0  0  0  0
    2.4128    2.4949    0.0000 C   0  0  0  0  0  0  0  0  0  0  0  0
    4.5562    2.9074    0.0000 C   0  0  0  0  0  0  0  0  0  0  0  0
    4.5562    3.7324    0.0000 O   0  0  0  0  0  0  0  0  0  0  0  0
    5.2707    2.4949    0.0000 O   0  0  0  0  0  0  0  0  0  0  0  0
   -1.1594    0.4324    0.0000 C   0  0  0  0  0  0  0  0  0  0  0  0
   -1.8739    0.0199    0.0000 C   0  0  0  0  0  0  0  0  0  0  0  0
   -1.8739    1.0487    0.0000 O   0  0  0  0  0  0  0  0  0  0  0  0
   -3.9592    1.1482    0.0000 H   0  0  0  0  0  0  0  0  0  0  0  0
   -4.1668   -1.9649    0.0000 H   0  0  0  0  0  0  0  0  0  0  0  0
   -5.1628   -1.5739    0.0000 H   0  0  0  0  0  0  0  0  0  0  0  0
   -5.9306   -1.2726    0.0000 H   0  0  0  0  0  0  0  0  0  0  0  0
   -6.0902   -0.2145    0.0000 H   0  0  0  0  0  0  0  0  0  0  0  0
   -4.3806    0.8774    0.0000 H   0  0  0  0  0  0  0  0  0  0  0  0
   -5.3766    1.2682    0.0000 H   0  0  0  0  0  0  0  0  0  0  0  0
   -6.1446    1.5696    0.0000 H   0  0  0  0  0  0  0  0  0  0  0  0
   -6.8216   -0.1556    0.0000 H   0  0  0  0  0  0  0  0  0  0  0  0
   -6.9811    0.9025    0.0000 H   0  0  0  0  0  0  0  0  0  0  0  0
   -5.3222   -0.2693    0.0000 H   0  0  0  0  0  0  0  0  0  0  0  0
   -5.1628    0.7888    0.0000 H   0  0  0  0  0  0  0  0  0  0  0  0
   -3.2072    1.3286    0.0000 H   0  0  0  0  0  0  0  0  0  0  0  0
   -4.0438    1.9957    0.0000 H   0  0  0  0  0  0  0  0  0  0  0  0
   -5.8444    1.0611    0.0000 H   0  0  0  0  0  0  0  0  0  0  0  0
   -5.6849    2.1192    0.0000 H   0  0  0  0  0  0  0  0  0  0  0  0
   -3.7292    2.6584    0.0000 H   0  0  0  0  0  0  0  0  0  0  0  0
   -5.5617    2.9350    0.0000 H   0  0  0  0  0  0  0  0  0  0  0  0
   -4.5656    3.3257    0.0000 H   0  0  0  0  0  0  0  0  0  0  0  0
   -3.9904   -1.9723    0.0000 H   0  0  0  0  0  0  0  0  0  0  0  0
   -2.9698   -2.1458    0.0000 H   0  0  0  0  0  0  0  0  0  0  0  0
   -0.7905   -1.6649    0.0000 H   0  0  0  0  0  0  0  0  0  0  0  0
   -0.3772   -3.4753    0.0000 H   0  0  0  0  0  0  0  0  0  0  0  0
   -1.7385   -4.7385    0.0000 H   0  0  0  0  0  0  0  0  0  0  0  0
   -3.5130   -4.1910    0.0000 H   0  0  0  0  0  0  0  0  0  0  0  0
   -3.9263   -2.3807    0.0000 H   0  0  0  0  0  0  0  0  0  0  0  0
   -1.1594   -2.2495    0.0000 H   0  0  0  0  0  0  0  0  0  0  0  0
    1.9105   -1.3400    0.0000 H   0  0  0  0  0  0  0  0  0  0  0  0
    0.9839    0.2650    0.0000 H   0  0  0  0  0  0  0  0  0  0  0  0
    1.9106   -0.2700    0.0000 H   0  0  0  0  0  0  0  0  0  0  0  0
    0.9839   -1.0501    0.0000 H   0  0  0  0  0  0  0  0  0  0  0  0
    1.9105   -0.5151    0.0000 H   0  0  0  0  0  0  0  0  0  0  0  0
    2.4128   -0.9646    0.0000 H   0  0  0  0  0  0  0  0  0  0  0  0
    2.2007    0.9674    0.0000 H   0  0  0  0  0  0  0  0  0  0  0  0
    4.5562    1.4644    0.0000 H   0  0  0  0  0  0  0  0  0  0  0  0
    6.1644    0.5359    0.0000 H   0  0  0  0  0  0  0  0  0  0  0  0
    5.9852   -2.1545    0.0000 H   0  0  0  0  0  0  0  0  0  0  0  0
    4.5562   -2.2495    0.0000 H   0  0  0  0  0  0  0  0  0  0  0  0
    2.9481   -1.3210    0.0000 H   0  0  0  0  0  0  0  0  0  0  0  0
    4.6944    1.1776    0.0000 H   0  0  0  0  0  0  0  0  0  0  0  0
    2.9152    1.9599    0.0000 H   0  0  0  0  0  0  0  0  0  0  0  0
    3.1273    3.9774    0.0000 H   0  0  0  0  0  0  0  0  0  0  0  0
    2.2007    3.4424    0.0000 H   0  0  0  0  0  0  0  0  0  0  0  0
    1.4862    3.0299    0.0000 H   0  0  0  0  0  0  0  0  0  0  0  0
    2.4128    1.4249    0.0000 H   0  0  0  0  0  0  0  0  0  0  0  0
    1.4861    1.9599    0.0000 H   0  0  0  0  0  0  0  0  0  0  0  0
    5.2707    1.5579    0.0000 H   0  0  0  0  0  0  0  0  0  0  0  0
   -1.1594    1.4644    0.0000 H   0  0  0  0  0  0  0  0  0  0  0  0
  1  2  2  0  0  0  0
  2  3  1  0  0  0  0
  2 50  1  0  0  0  0
  2 51  2  0  0  0  0
  3  4  1  0  0  0  0
  3 52  1  0  0  0  0
  4  5  1  0  0  0  0
  4  9  1  0  0  0  0
  4 13  1  0  0  0  0
  5  6  1  0  0  0  0
  5 53  1  0  0  0  0
  5 54  1  0  0  0  0
  6  7  1  0  0  0  0
  6 55  1  0  0  0  0
  6 56  1  0  0  0  0
  7  8  1  0  0  0  0
  7 57  1  0  0  0  0
  7 58  1  0  0  0  0
  8 59  1  0  0  0  0
  8 60  1  0  0  0  0
  8 61  1  0  0  0  0
  9 10  1  0  0  0  0
  9 62  1  0  0  0  0
  9 63  1  0  0  0  0
 10 11  1  0  0  0  0
 10 64  1  0  0  0  0
 10 65  1  0  0  0  0
 11 12  1  0  0  0  0
 11 66  1  0  0  0  0
 11 67  1  0  0  0  0
 12 68  1  0  0  0  0
 12 69  1  0  0  0  0
 12 70  1  0  0  0  0
 13 71  1  0  0  0  0
 13 72  1  0  0  0  0
 14 13  1  0  0  0  0
 14 15  1  0  0  0  0
 15 16  1  0  0  0  0
 15 20  2  0  0  0  0
 16 17  2  0  0  0  0
 16 73  1  0  0  0  0
 17 18  1  0  0  0  0
 17 74  1  0  0  0  0
 18 75  1  0  0  0  0
 19 18  2  0  0  0  0
 19 76  1  0  0  0  0
 20 19  1  0  0  0  0
 20 77  1  0  0  0  0
 21 14  1  0  0  0  0
 21 22  2  0  0  0  0
 22 23  1  0  0  0  0
 22 78  1  0  0  0  0
 23 24  1  0  0  0  0
 24 25  1  0  0  0  0
 25 79  1  0  0  0  0
 25 80  1  0  0  0  0
 25 81  1  0  0  0  0
 26 23  2  0  0  0  0
 26 27  1  0  0  0  0
 27 28  1  0  0  0  0
 28 29  1  0  0  0  0
 28 82  1  0  0  0  0
 28 83  1  0  0  0  0
 29 30  2  0  0  0  0
 29 31  1  0  0  0  0
 31 32  1  0  0  0  0
 31 84  1  0  0  0  0
 32 33  1  0  0  0  0
 32 40  1  0  0  0  0
 32 85  1  6  0  0  0
 33 34  1  0  0  0  0
 33 39  2  0  0  0  0
 34 35  2  0  0  0  0
 34 86  1  0  0  0  0
 35 36  1  0  0  0  0
 35 87  1  0  0  0  0
 36 37  1  0  0  0  0
 37 88  1  0  0  0  0
 38 36  2  0  0  0  0
 38 89  1  0  0  0  0
 39 38  1  0  0  0  0
 39 90  1  0  0  0  0
 40 41  2  0  0  0  0
 40 42  1  0  0  0  0
 42 91  1  0  0  0  0
 43 42  1  0  0  0  0
 43 44  1  0  0  0  0
 43 46  1  0  0  0  0
 43 92  1  6  0  0  0
 44 45  1  0  0  0  0
 44 93  1  0  0  0  0
 44 94  1  0  0  0  0
 45 95  1  0  0  0  0
 45 96  1  0  0  0  0
 45 97  1  0  0  0  0
 46 47  2  0  0  0  0
 46 48  1  0  0  0  0
 48 98  1  0  0  0  0
 49 26  1  0  0  0  0
 49 99  1  0  0  0  0
 50 49  2  0  0  0  0
 50 21  1  0  0  0  0
M  END
>  <DRUGBANK_ID>
DB16261

>  <COMMON_NAME>
Odevixibat

>  <CAS_NUMBER>
501692-44-0

>  <UNII>
2W150K0UUC

>  <SYNONYMS>
Odevixibat

$$$$
