
 OpenBabel10282417072D

 54 56  0  0  0  0  0  0  0  0999 V2000
    0.7145   -0.4125    0.0000 C   0  0  0  0  0  0  0  0  0  0  0  0
    0.7145   -1.2375    0.0000 C   0  0  0  0  0  0  0  0  0  0  0  0
    1.3819   -1.7224    0.0000 C   0  0  0  0  0  0  0  0  0  0  0  0
    2.1665   -1.4675    0.0000 C   0  0  0  0  0  0  0  0  0  0  0  0
    2.3381   -0.6605    0.0000 S   0  0  0  0  0  0  0  0  0  0  0  0
    3.1227   -0.4056    0.0000 C   0  0  0  0  0  0  0  0  0  0  0  0
    3.2942    0.4014    0.0000 C   0  0  0  0  0  0  0  0  0  0  0  0
    4.0788    0.6563    0.0000 C   0  0  0  0  0  0  0  0  0  0  0  0
    4.6919    0.1043    0.0000 C   0  0  0  0  0  0  0  0  0  0  0  0
    5.4765    0.3592    0.0000 O   0  0  0  0  0  0  0  0  0  0  0  0
    6.0896   -0.1928    0.0000 C   0  0  0  0  0  0  0  0  0  0  0  0
    6.6417    0.4203    0.0000 C   0  0  0  0  0  0  0  0  0  0  0  0
    5.5376   -0.8059    0.0000 C   0  0  0  0  0  0  0  0  0  0  0  0
    6.7027   -0.7448    0.0000 C   0  0  0  0  0  0  0  0  0  0  0  0
    7.4874   -0.4899    0.0000 O   0  0  0  0  0  0  0  0  0  0  0  0
    6.5312   -1.5518    0.0000 O   0  0  0  0  0  0  0  0  0  0  0  0
    4.5204   -0.7027    0.0000 C   0  0  0  0  0  0  0  0  0  0  0  0
    5.1335   -1.2547    0.0000 C   0  0  0  0  0  0  0  0  0  0  0  0
    3.7358   -0.9576    0.0000 C   0  0  0  0  0  0  0  0  0  0  0  0
    1.1270   -2.5070    0.0000 S   0  0  0  0  0  0  0  0  0  0  0  0
    0.3020   -2.5070    0.0000 C   0  0  0  0  0  0  0  0  0  0  0  0
    0.0470   -1.7224    0.0000 N   0  0  0  0  0  0  0  0  0  0  0  0
   -0.1830   -3.1745    0.0000 C   0  0  0  0  0  0  0  0  0  0  0  0
    0.1526   -3.9282    0.0000 C   0  0  0  0  0  0  0  0  0  0  0  0
   -0.3323   -4.5956    0.0000 C   0  0  0  0  0  0  0  0  0  0  0  0
   -1.1528   -4.5094    0.0000 C   0  0  0  0  0  0  0  0  0  0  0  0
   -1.4884   -3.7557    0.0000 C   0  0  0  0  0  0  0  0  0  0  0  0
   -1.0034   -3.0882    0.0000 C   0  0  0  0  0  0  0  0  0  0  0  0
   -1.3390   -2.3346    0.0000 F   0  0  0  0  0  0  0  0  0  0  0  0
   -1.6377   -5.1768    0.0000 C   0  0  0  0  0  0  0  0  0  0  0  0
   -2.1226   -5.8442    0.0000 F   0  0  0  0  0  0  0  0  0  0  0  0
   -2.3052   -4.6919    0.0000 F   0  0  0  0  0  0  0  0  0  0  0  0
   -0.9703   -5.6617    0.0000 F   0  0  0  0  0  0  0  0  0  0  0  0
    1.6411    0.1225    0.0000 H   0  0  0  0  0  0  0  0  0  0  0  0
   -0.2121    0.1225    0.0000 H   0  0  0  0  0  0  0  0  0  0  0  0
    0.7145    0.6575    0.0000 H   0  0  0  0  0  0  0  0  0  0  0  0
    2.9616   -2.1835    0.0000 H   0  0  0  0  0  0  0  0  0  0  0  0
    3.1842   -1.1369    0.0000 H   0  0  0  0  0  0  0  0  0  0  0  0
    2.5273    1.0919    0.0000 H   0  0  0  0  0  0  0  0  0  0  0  0
    4.2934    1.6657    0.0000 H   0  0  0  0  0  0  0  0  0  0  0  0
    7.6883    0.1978    0.0000 H   0  0  0  0  0  0  0  0  0  0  0  0
    6.3111    1.4379    0.0000 H   0  0  0  0  0  0  0  0  0  0  0  0
    7.3577    1.2154    0.0000 H   0  0  0  0  0  0  0  0  0  0  0  0
    4.4910   -0.5835    0.0000 H   0  0  0  0  0  0  0  0  0  0  0  0
    5.8683   -1.8235    0.0000 H   0  0  0  0  0  0  0  0  0  0  0  0
    4.8217   -1.6011    0.0000 H   0  0  0  0  0  0  0  0  0  0  0  0
    8.1837   -1.1169    0.0000 H   0  0  0  0  0  0  0  0  0  0  0  0
    4.9111   -2.3013    0.0000 H   0  0  0  0  0  0  0  0  0  0  0  0
    6.1511   -0.9240    0.0000 H   0  0  0  0  0  0  0  0  0  0  0  0
    5.9287   -1.9706    0.0000 H   0  0  0  0  0  0  0  0  0  0  0  0
    3.5212   -1.9670    0.0000 H   0  0  0  0  0  0  0  0  0  0  0  0
    1.1789   -4.0361    0.0000 H   0  0  0  0  0  0  0  0  0  0  0  0
    0.0875   -5.5384    0.0000 H   0  0  0  0  0  0  0  0  0  0  0  0
   -2.5147   -3.6478    0.0000 H   0  0  0  0  0  0  0  0  0  0  0  0
  1  2  1  0  0  0  0
  1 34  1  0  0  0  0
  1 35  1  0  0  0  0
  1 36  1  0  0  0  0
  2  3  2  0  0  0  0
  2 22  1  0  0  0  0
  3  4  1  0  0  0  0
  3 20  1  0  0  0  0
  4  5  1  0  0  0  0
  4 37  1  0  0  0  0
  4 38  1  0  0  0  0
  5  6  1  0  0  0  0
  6  7  2  0  0  0  0
  6 19  1  0  0  0  0
  7  8  1  0  0  0  0
  7 39  1  0  0  0  0
  8  9  2  0  0  0  0
  8 40  1  0  0  0  0
  9 10  1  0  0  0  0
  9 17  1  0  0  0  0
 10 11  1  0  0  0  0
 11 12  1  0  0  0  0
 11 13  1  0  0  0  0
 11 14  1  0  0  0  0
 12 41  1  0  0  0  0
 12 42  1  0  0  0  0
 12 43  1  0  0  0  0
 13 44  1  0  0  0  0
 13 45  1  0  0  0  0
 13 46  1  0  0  0  0
 14 15  1  0  0  0  0
 14 16  2  0  0  0  0
 15 47  1  0  0  0  0
 17 18  1  0  0  0  0
 17 19  2  0  0  0  0
 18 48  1  0  0  0  0
 18 49  1  0  0  0  0
 18 50  1  0  0  0  0
 19 51  1  0  0  0  0
 20 21  1  0  0  0  0
 21 22  2  0  0  0  0
 21 23  1  0  0  0  0
 23 24  2  0  0  0  0
 23 28  1  0  0  0  0
 24 25  1  0  0  0  0
 24 52  1  0  0  0  0
 25 26  2  0  0  0  0
 25 53  1  0  0  0  0
 26 27  1  0  0  0  0
 26 30  1  0  0  0  0
 27 28  2  0  0  0  0
 27 54  1  0  0  0  0
 28 29  1  0  0  0  0
 30 31  1  0  0  0  0
 30 32  1  0  0  0  0
 30 33  1  0  0  0  0
M  END
>  <DRUGBANK_ID>
DB16332

>  <COMMON_NAME>
Sodelglitazar

>  <CAS_NUMBER>
447406-78-2

>  <UNII>
6G973E04VI

>  <SYNONYMS>
Sodelglitazar

$$$$
