
 OpenBabel10282417072D

 43 44  0  0  0  0  0  0  0  0999 V2000
    0.0808   -0.4414    0.0000 C   0  0  1  0  0  0  0  0  0  0  0  0
    0.7668   -0.8650    0.0000 C   0  0  2  0  0  0  0  0  0  0  0  0
    1.4878   -0.4545    0.0000 N   0  0  0  0  0  0  0  0  0  0  0  0
    1.4878    0.0305    0.0000 C   0  0  0  0  0  0  0  0  0  0  0  0
    2.0644   -0.7690    0.0000 C   0  0  0  0  0  0  0  0  0  0  0  0
    0.7668   -1.7040    0.0000 C   0  0  0  0  0  0  0  0  0  0  0  0
    0.0895   -2.1147    0.0000 C   0  0  0  0  0  0  0  0  0  0  0  0
   -0.6400   -1.7128    0.0000 C   0  0  0  0  0  0  0  0  0  0  0  0
   -0.6400   -0.8650    0.0000 C   0  0  0  0  0  0  0  0  0  0  0  0
    0.4916    0.1834    0.0000 C   0  0  0  0  0  0  0  0  0  0  0  0
    0.9852    0.1834    0.0000 O   0  0  0  0  0  0  0  0  0  0  0  0
    0.0501    0.8650    0.0000 O   0  0  0  0  0  0  0  0  0  0  0  0
    0.5440    1.5291    0.0000 C   0  0  0  0  0  0  0  0  0  0  0  0
    0.2250    2.1147    0.0000 C   0  0  0  0  0  0  0  0  0  0  0  0
   -0.6270   -0.0436    0.0000 C   0  0  0  0  0  0  0  0  0  0  0  0
   -0.6270    0.7733    0.0000 C   0  0  0  0  0  0  0  0  0  0  0  0
   -1.3347    1.1971    0.0000 C   0  0  0  0  0  0  0  0  0  0  0  0
   -2.0644    0.7953    0.0000 C   0  0  0  0  0  0  0  0  0  0  0  0
   -2.0644   -0.0480    0.0000 C   0  0  0  0  0  0  0  0  0  0  0  0
   -1.3566   -0.4544    0.0000 C   0  0  0  0  0  0  0  0  0  0  0  0
    0.7858    0.2048    0.0000 H   0  0  0  0  0  0  0  0  0  0  0  0
    2.4144    0.5655    0.0000 H   0  0  0  0  0  0  0  0  0  0  0  0
    0.5612    0.5655    0.0000 H   0  0  0  0  0  0  0  0  0  0  0  0
    1.4878    1.1005    0.0000 H   0  0  0  0  0  0  0  0  0  0  0  0
    2.0904   -1.8387    0.0000 H   0  0  0  0  0  0  0  0  0  0  0  0
    2.9778   -0.2117    0.0000 H   0  0  0  0  0  0  0  0  0  0  0  0
    3.0038   -1.2814    0.0000 H   0  0  0  0  0  0  0  0  0  0  0  0
    1.6660   -2.2104    0.0000 H   0  0  0  0  0  0  0  0  0  0  0  0
    0.1109   -3.1465    0.0000 H   0  0  0  0  0  0  0  0  0  0  0  0
   -1.5612   -2.2571    0.0000 H   0  0  0  0  0  0  0  0  0  0  0  0
   -1.5693   -1.1825    0.0000 H   0  0  0  0  0  0  0  0  0  0  0  0
   -1.5687   -0.3336    0.0000 H   0  0  0  0  0  0  0  0  0  0  0  0
   -0.6462    0.2050    0.0000 H   0  0  0  0  0  0  0  0  0  0  0  0
    1.6114    1.4539    0.0000 H   0  0  0  0  0  0  0  0  0  0  0  0
    1.1225    2.4293    0.0000 H   0  0  0  0  0  0  0  0  0  0  0  0
    0.7828    3.0278    0.0000 H   0  0  0  0  0  0  0  0  0  0  0  0
   -0.8447    2.1412    0.0000 H   0  0  0  0  0  0  0  0  0  0  0  0
   -0.2869    3.0543    0.0000 H   0  0  0  0  0  0  0  0  0  0  0  0
    0.2708    1.2821    0.0000 H   0  0  0  0  0  0  0  0  0  0  0  0
   -1.3160    2.2289    0.0000 H   0  0  0  0  0  0  0  0  0  0  0  0
   -2.9529    1.3203    0.0000 H   0  0  0  0  0  0  0  0  0  0  0  0
   -2.9575   -0.5651    0.0000 H   0  0  0  0  0  0  0  0  0  0  0  0
   -1.3609   -1.4864    0.0000 H   0  0  0  0  0  0  0  0  0  0  0  0
  1 10  1  1  0  0  0
  1 15  1  0  0  0  0
  2  1  1  0  0  0  0
  2  3  1  0  0  0  0
  2 21  1  1  0  0  0
  4  3  1  0  0  0  0
  4 22  1  0  0  0  0
  4 23  1  0  0  0  0
  4 24  1  0  0  0  0
  5  3  1  0  0  0  0
  5 25  1  0  0  0  0
  5 26  1  0  0  0  0
  5 27  1  0  0  0  0
  6  2  1  0  0  0  0
  6 28  1  0  0  0  0
  7  6  2  0  0  0  0
  7  8  1  0  0  0  0
  7 29  1  0  0  0  0
  8  9  1  0  0  0  0
  8 30  1  0  0  0  0
  8 31  1  0  0  0  0
  9  1  1  0  0  0  0
  9 32  1  0  0  0  0
  9 33  1  0  0  0  0
 11 10  2  0  0  0  0
 12 10  1  0  0  0  0
 13 12  1  0  0  0  0
 13 34  1  0  0  0  0
 13 35  1  0  0  0  0
 14 13  1  0  0  0  0
 14 36  1  0  0  0  0
 14 37  1  0  0  0  0
 14 38  1  0  0  0  0
 16 15  2  0  0  0  0
 16 39  1  0  0  0  0
 17 16  1  0  0  0  0
 17 40  1  0  0  0  0
 18 17  2  0  0  0  0
 18 19  1  0  0  0  0
 18 41  1  0  0  0  0
 19 20  2  0  0  0  0
 19 42  1  0  0  0  0
 20 15  1  0  0  0  0
 20 43  1  0  0  0  0
M  END
>  <DRUGBANK_ID>
DB13787

>  <COMMON_NAME>
Tilidine

>  <CAS_NUMBER>
51931-66-9

>  <UNII>
GY33N31E9Y

>  <SYNONYMS>
Tilidate; Tilidine

$$$$
