
 OpenBabel10282417072D

 44 46  0  0  0  0  0  0  0  0999 V2000
   -0.5109    3.2296    0.0000 N   0  0  0  0  0  0  0  0  0  0  0  0
   -0.5109    2.4046    0.0000 C   0  0  0  0  0  0  0  0  0  0  0  0
   -1.2254    1.9921    0.0000 N   0  0  0  0  0  0  0  0  0  0  0  0
   -1.2255    1.1671    0.0000 C   0  0  0  0  0  0  0  0  0  0  0  0
   -0.5110    0.7546    0.0000 N   0  0  0  0  0  0  0  0  0  0  0  0
    0.2034    1.1671    0.0000 C   0  0  0  0  0  0  0  0  0  0  0  0
    0.2034    1.9921    0.0000 C   0  0  0  0  0  0  0  0  0  0  0  0
    0.9880    2.2470    0.0000 N   0  0  0  0  0  0  0  0  0  0  0  0
    1.4730    1.5795    0.0000 C   0  0  0  0  0  0  0  0  0  0  0  0
    0.9880    0.9121    0.0000 N   0  0  0  0  0  0  0  0  0  0  0  0
    1.2430    0.1273    0.0000 C   0  0  2  0  0  0  0  0  0  0  0  0
    0.7580   -0.5399    0.0000 O   0  0  0  0  0  0  0  0  0  0  0  0
    1.2429   -1.2075    0.0000 C   0  0  1  0  0  0  0  0  0  0  0  0
    2.0275   -0.9525    0.0000 C   0  0  1  0  0  0  0  0  0  0  0  0
    2.6950   -1.4375    0.0000 O   0  0  0  0  0  0  0  0  0  0  0  0
    2.0276   -0.1275    0.0000 C   0  0  1  0  0  0  0  0  0  0  0  0
    2.6950    0.3573    0.0000 O   0  0  0  0  0  0  0  0  0  0  0  0
    0.1629   -1.9921    0.0000 O   0  0  0  0  0  0  0  0  0  0  0  0
   -0.5515   -3.2296    0.0000 O   0  0  0  0  0  0  0  0  0  0  0  0
   -0.5515   -2.4046    0.0000 P   0  0  3  0  0  0  0  0  0  0  0  0
   -0.5515   -1.5796    0.0000 O   0  0  0  0  0  0  0  0  0  0  0  0
   -1.9804   -3.2296    0.0000 O   0  0  0  0  0  0  0  0  0  0  0  0
   -1.9804   -2.4046    0.0000 P   0  0  0  0  0  0  0  0  0  0  0  0
   -1.9804   -1.5599    0.0000 O   0  0  0  0  0  0  0  0  0  0  0  0
   -2.6950   -1.9921    0.0000 O   0  0  0  0  0  0  0  0  0  0  0  0
    0.9879   -1.9921    0.0000 C   0  0  0  0  0  0  0  0  0  0  0  0
   -1.2659   -1.9921    0.0000 C   0  0  0  0  0  0  0  0  0  0  0  0
    0.3417    3.7218    0.0000 H   0  0  0  0  0  0  0  0  0  0  0  0
   -1.3635    3.7218    0.0000 H   0  0  0  0  0  0  0  0  0  0  0  0
   -2.1193    0.6511    0.0000 H   0  0  0  0  0  0  0  0  0  0  0  0
    2.5050    1.5795    0.0000 H   0  0  0  0  0  0  0  0  0  0  0  0
    0.1862    0.2948    0.0000 H   0  0  0  0  0  0  0  0  0  0  0  0
    0.1861   -1.3748    0.0000 H   0  0  0  0  0  0  0  0  0  0  0  0
    1.8601   -2.0093    0.0000 H   0  0  0  0  0  0  0  0  0  0  0  0
    2.5936   -2.4022    0.0000 H   0  0  0  0  0  0  0  0  0  0  0  0
    1.8602    0.9293    0.0000 H   0  0  0  0  0  0  0  0  0  0  0  0
    3.5811   -0.0373    0.0000 H   0  0  0  0  0  0  0  0  0  0  0  0
    0.2885   -1.0946    0.0000 H   0  0  0  0  0  0  0  0  0  0  0  0
   -1.1404   -1.0749    0.0000 H   0  0  0  0  0  0  0  0  0  0  0  0
   -2.6951   -1.0221    0.0000 H   0  0  0  0  0  0  0  0  0  0  0  0
    1.6168   -2.8578    0.0000 H   0  0  0  0  0  0  0  0  0  0  0  0
    0.5021   -2.9455    0.0000 H   0  0  0  0  0  0  0  0  0  0  0  0
   -1.2659   -0.9221    0.0000 H   0  0  0  0  0  0  0  0  0  0  0  0
   -2.1925   -1.4571    0.0000 H   0  0  0  0  0  0  0  0  0  0  0  0
  1  2  1  0  0  0  0
  1 28  1  0  0  0  0
  1 29  1  0  0  0  0
  2  3  2  0  0  0  0
  2  7  1  0  0  0  0
  3  4  1  0  0  0  0
  4  5  2  0  0  0  0
  4 30  1  0  0  0  0
  5  6  1  0  0  0  0
  6  7  2  0  0  0  0
  6 10  1  0  0  0  0
  7  8  1  0  0  0  0
  8  9  2  0  0  0  0
  9 10  1  0  0  0  0
  9 31  1  0  0  0  0
 11 10  1  0  0  0  0
 11 12  1  0  0  0  0
 11 16  1  0  0  0  0
 11 32  1  6  0  0  0
 12 13  1  0  0  0  0
 13 26  1  0  0  0  0
 13 14  1  0  0  0  0
 13 33  1  6  0  0  0
 14 15  1  0  0  0  0
 14 16  1  0  0  0  0
 14 34  1  1  0  0  0
 15 35  1  0  0  0  0
 16 17  1  0  0  0  0
 16 36  1  1  0  0  0
 17 37  1  0  0  0  0
 18 20  1  0  0  0  0
 20 19  2  0  0  0  0
 20 27  1  0  0  0  0
 20 21  1  0  0  0  0
 21 38  1  0  0  0  0
 23 22  2  0  0  0  0
 23 25  1  0  0  0  0
 23 24  1  0  0  0  0
 24 39  1  0  0  0  0
 25 40  1  0  0  0  0
 26 18  1  0  0  0  0
 26 41  1  0  0  0  0
 26 42  1  0  0  0  0
 27 23  1  0  0  0  0
 27 43  1  0  0  0  0
 27 44  1  0  0  0  0
M  END
>  <DRUGBANK_ID>
DB03148

>  <SECONDARY_ACCESSION_NUMBERS>
EXPT00533; EXPT00363

>  <COMMON_NAME>
Adenosine 5'-methylenediphosphate

>  <CAS_NUMBER>
3768-14-7

>  <UNII>
0T2A5439OE

>  <SYNONYMS>
Adenosine 5'-(hydrogen (phosphonomethyl)phosphonate); Adenosine, 5'-(trihydrogen methylenebis(phosphonate)); Phosphomethylphosphonic acid adenosyl ester

$$$$
