1181
 OpenBabel10282417072D

 29 29  0  0  1  0  0  0  0  0999 V2000
    1.6500    0.6040    0.0000 Cl  0  0  0  0  0  0  0  0  0  0  0  0
    4.5080   -2.2540    0.0000 Cl  0  0  0  0  0  0  0  0  0  0  0  0
    4.5080    0.6040    0.0000 P   0  0  3  0  0  0  0  0  0  0  0  0
    5.2224    1.0165    0.0000 O   0  0  0  0  0  0  0  0  0  0  0  0
    4.9205   -0.1106    0.0000 O   0  0  0  0  0  0  0  0  0  0  0  0
    3.7935    1.0165    0.0000 N   0  0  0  0  0  0  0  0  0  0  0  0
    4.0955   -0.1106    0.0000 N   0  0  0  0  0  0  0  0  0  0  0  0
    3.7935    1.8415    0.0000 C   0  0  0  0  0  0  0  0  0  0  0  0
    4.5080    2.2540    0.0000 C   0  0  0  0  0  0  0  0  0  0  0  0
    5.2224    1.8415    0.0000 C   0  0  0  0  0  0  0  0  0  0  0  0
    3.0791    0.6040    0.0000 C   0  0  0  0  0  0  0  0  0  0  0  0
    4.5080   -0.8250    0.0000 C   0  0  0  0  0  0  0  0  0  0  0  0
    2.3645    1.0165    0.0000 C   0  0  0  0  0  0  0  0  0  0  0  0
    4.0955   -1.5395    0.0000 C   0  0  0  0  0  0  0  0  0  0  0  0
    3.0755   -0.1107    0.0000 H   0  0  0  0  0  0  0  0  0  0  0  0
    2.8669    2.3765    0.0000 H   0  0  0  0  0  0  0  0  0  0  0  0
    3.7935    2.9115    0.0000 H   0  0  0  0  0  0  0  0  0  0  0  0
    4.5080    3.3240    0.0000 H   0  0  0  0  0  0  0  0  0  0  0  0
    5.4347    2.7890    0.0000 H   0  0  0  0  0  0  0  0  0  0  0  0
    6.1491    2.3765    0.0000 H   0  0  0  0  0  0  0  0  0  0  0  0
    5.2224    2.9115    0.0000 H   0  0  0  0  0  0  0  0  0  0  0  0
    3.0792   -0.4660    0.0000 H   0  0  0  0  0  0  0  0  0  0  0  0
    2.1525    0.0689    0.0000 H   0  0  0  0  0  0  0  0  0  0  0  0
    5.5780   -0.8250    0.0000 H   0  0  0  0  0  0  0  0  0  0  0  0
    5.0430   -1.7516    0.0000 H   0  0  0  0  0  0  0  0  0  0  0  0
    2.3645    2.0865    0.0000 H   0  0  0  0  0  0  0  0  0  0  0  0
    3.2911    1.5516    0.0000 H   0  0  0  0  0  0  0  0  0  0  0  0
    3.0255   -1.5395    0.0000 H   0  0  0  0  0  0  0  0  0  0  0  0
    3.5605   -0.6129    0.0000 H   0  0  0  0  0  0  0  0  0  0  0  0
  1 13  1  0  0  0  0
  2 14  1  0  0  0  0
  3  4  1  0  0  0  0
  3  5  2  0  0  0  0
  3  6  1  0  0  0  0
  3  7  1  0  0  0  0
  4 10  1  0  0  0  0
  6  8  1  0  0  0  0
  6 11  1  0  0  0  0
  7 12  1  0  0  0  0
  7 15  1  0  0  0  0
  8  9  1  0  0  0  0
  8 16  1  0  0  0  0
  8 17  1  0  0  0  0
  9 10  1  0  0  0  0
  9 18  1  0  0  0  0
  9 19  1  0  0  0  0
 10 20  1  0  0  0  0
 10 21  1  0  0  0  0
 11 13  1  0  0  0  0
 11 22  1  0  0  0  0
 11 23  1  0  0  0  0
 12 14  1  0  0  0  0
 12 24  1  0  0  0  0
 12 25  1  0  0  0  0
 13 26  1  0  0  0  0
 13 27  1  0  0  0  0
 14 28  1  0  0  0  0
 14 29  1  0  0  0  0
M  END
>  <DRUGBANK_ID>
DB01181

>  <SECONDARY_ACCESSION_NUMBERS>
APRD00007

>  <COMMON_NAME>
Ifosfamide

>  <CAS_NUMBER>
3778-73-2

>  <UNII>
UM20QQM95Y

>  <SYNONYMS>
3-(2-chloroethyl)-2-((2-chloroethyl)amino)tetrahydro-2H-1,3,2-oxazaphosphorine 2-oxide; Ifosfamida; Ifosfamide; Ifosfamidum; Iphosphamide; Isofosfamide; Isophosphamide; Isosfamide

$$$$
