
 OpenBabel10282417072D

 69 72  0  0  1  0  0  0  0  0999 V2000
    9.1390    1.2383    0.0000 C   0  0  0  0  0  0  0  0  0  0  0  0
   -0.5056   -2.0108    0.0000 C   0  0  0  0  0  0  0  0  0  0  0  0
    0.0469    2.9205    0.0000 C   0  0  0  0  0  0  0  0  0  0  0  0
    2.0307    1.7357    0.0000 C   0  0  0  0  0  0  0  0  0  0  0  0
    8.6072    0.6076    0.0000 C   0  0  0  0  0  0  0  0  0  0  0  0
   -0.3604   -1.1987    0.0000 C   0  0  0  0  0  0  0  0  0  0  0  0
   -0.2640    2.1564    0.0000 C   0  0  0  0  0  0  0  0  0  0  0  0
    4.5754   -0.8489    0.0000 C   0  0  0  0  0  0  0  0  0  0  0  0
    6.1708    1.0432    0.0000 C   0  0  0  0  0  0  0  0  0  0  0  0
    3.7633   -0.7037    0.0000 C   0  0  0  0  0  0  0  0  0  0  0  0
    5.3587    1.1884    0.0000 C   0  0  0  0  0  0  0  0  0  0  0  0
    3.7345    1.4789    0.0000 C   0  0  0  0  0  0  0  0  0  0  0  0
    2.9224    1.6241    0.0000 C   0  0  0  0  0  0  0  0  0  0  0  0
    5.9193   -0.3634    0.0000 C   0  0  0  0  0  0  0  0  0  0  0  0
    2.0195   -0.2889    0.0000 C   0  0  0  0  0  0  0  0  0  0  0  0
    5.1072   -0.2182    0.0000 C   0  0  0  0  0  0  0  0  0  0  0  0
    6.4511    0.2673    0.0000 C   0  0  0  0  0  0  0  0  0  0  0  0
    4.8269    0.5577    0.0000 C   0  0  0  0  0  0  0  0  0  0  0  0
    4.0148    0.7029    0.0000 C   0  0  2  0  0  0  0  0  0  0  0  0
    3.4830    0.0722    0.0000 C   0  0  2  0  0  0  0  0  0  0  0  0
    2.6708    0.2174    0.0000 C   0  0  1  0  0  0  0  0  0  0  0  0
    1.3367    0.1741    0.0000 C   0  0  2  0  0  0  0  0  0  0  0  0
    7.7951    0.7528    0.0000 C   0  0  0  0  0  0  0  0  0  0  0  0
    0.4155   -0.9184    0.0000 C   0  0  0  0  0  0  0  0  0  0  0  0
    0.2424    1.5050    0.0000 C   0  0  0  0  0  0  0  0  0  0  0  0
    1.5660    0.9666    0.0000 C   0  0  1  0  0  0  0  0  0  0  0  0
    2.3905    0.9934    0.0000 C   0  0  2  0  0  0  0  0  0  0  0  0
    7.5148    1.5287    0.0000 O   0  0  0  0  0  0  0  0  0  0  0  0
    1.0462   -1.4502    0.0000 O   0  0  0  0  0  0  0  0  0  0  0  0
   -0.0685    0.7409    0.0000 O   0  0  0  0  0  0  0  0  0  0  0  0
    7.2632    0.1221    0.0000 O   0  0  0  0  0  0  0  0  0  0  0  0
    0.5607   -0.1062    0.0000 O   0  0  0  0  0  0  0  0  0  0  0  0
    1.0596    1.6179    0.0000 O   0  0  0  0  0  0  0  0  0  0  0  0
    4.5466    1.3336    0.0000 H   0  0  0  0  0  0  0  0  0  0  0  0
    3.1989   -0.7023    0.0000 H   0  0  0  0  0  0  0  0  0  0  0  0
    2.5826   -0.6028    0.0000 H   0  0  0  0  0  0  0  0  0  0  0  0
    1.2341   -0.6445    0.0000 H   0  0  0  0  0  0  0  0  0  0  0  0
    0.7557    0.8111    0.0000 H   0  0  0  0  0  0  0  0  0  0  0  0
   10.1923    1.0500    0.0000 H   0  0  0  0  0  0  0  0  0  0  0  0
    8.7754    2.2446    0.0000 H   0  0  0  0  0  0  0  0  0  0  0  0
    9.8287    2.0563    0.0000 H   0  0  0  0  0  0  0  0  0  0  0  0
   -1.5119   -2.3744    0.0000 H   0  0  0  0  0  0  0  0  0  0  0  0
    0.3124   -2.7005    0.0000 H   0  0  0  0  0  0  0  0  0  0  0  0
   -0.6939   -3.0641    0.0000 H   0  0  0  0  0  0  0  0  0  0  0  0
    1.1068    3.0668    0.0000 H   0  0  0  0  0  0  0  0  0  0  0  0
   -0.6098    3.7653    0.0000 H   0  0  0  0  0  0  0  0  0  0  0  0
    0.4502    3.9116    0.0000 H   0  0  0  0  0  0  0  0  0  0  0  0
    2.6312    2.6213    0.0000 H   0  0  0  0  0  0  0  0  0  0  0  0
    0.9635    1.8129    0.0000 H   0  0  0  0  0  0  0  0  0  0  0  0
    1.5640    2.6986    0.0000 H   0  0  0  0  0  0  0  0  0  0  0  0
    8.9708   -0.3987    0.0000 H   0  0  0  0  0  0  0  0  0  0  0  0
    7.9175   -0.2104    0.0000 H   0  0  0  0  0  0  0  0  0  0  0  0
   -1.1784   -0.5090    0.0000 H   0  0  0  0  0  0  0  0  0  0  0  0
   -0.1721   -0.1454    0.0000 H   0  0  0  0  0  0  0  0  0  0  0  0
   -1.3239    2.0101    0.0000 H   0  0  0  0  0  0  0  0  0  0  0  0
   -0.6672    1.1653    0.0000 H   0  0  0  0  0  0  0  0  0  0  0  0
    4.9390   -1.8552    0.0000 H   0  0  0  0  0  0  0  0  0  0  0  0
    5.6287   -1.0372    0.0000 H   0  0  0  0  0  0  0  0  0  0  0  0
    6.8360    1.8322    0.0000 H   0  0  0  0  0  0  0  0  0  0  0  0
    3.0736   -1.5217    0.0000 H   0  0  0  0  0  0  0  0  0  0  0  0
    2.7100   -0.5154    0.0000 H   0  0  0  0  0  0  0  0  0  0  0  0
    5.0081    2.1590    0.0000 H   0  0  0  0  0  0  0  0  0  0  0  0
    4.4243    2.2969    0.0000 H   0  0  0  0  0  0  0  0  0  0  0  0
    4.7878    1.2905    0.0000 H   0  0  0  0  0  0  0  0  0  0  0  0
    2.5589    2.6305    0.0000 H   0  0  0  0  0  0  0  0  0  0  0  0
    1.8691    1.8125    0.0000 H   0  0  0  0  0  0  0  0  0  0  0  0
    6.2699   -1.3340    0.0000 H   0  0  0  0  0  0  0  0  0  0  0  0
    2.0542   -1.3583    0.0000 H   0  0  0  0  0  0  0  0  0  0  0  0
    1.0824   -0.8053    0.0000 H   0  0  0  0  0  0  0  0  0  0  0  0
  1 39  1  0  0  0  0
  1 40  1  0  0  0  0
  1 41  1  0  0  0  0
  2 42  1  0  0  0  0
  2 43  1  0  0  0  0
  2 44  1  0  0  0  0
  3 45  1  0  0  0  0
  3 46  1  0  0  0  0
  3 47  1  0  0  0  0
  4 48  1  0  0  0  0
  4 49  1  0  0  0  0
  4 50  1  0  0  0  0
  5  1  1  0  0  0  0
  5 51  1  0  0  0  0
  5 52  1  0  0  0  0
  6  2  1  0  0  0  0
  6 53  1  0  0  0  0
  6 54  1  0  0  0  0
  7  3  1  0  0  0  0
  7 55  1  0  0  0  0
  7 56  1  0  0  0  0
  8 57  1  0  0  0  0
  8 58  1  0  0  0  0
  9 59  1  0  0  0  0
 10  8  1  0  0  0  0
 10 60  1  0  0  0  0
 10 61  1  0  0  0  0
 11  9  1  0  0  0  0
 11 62  1  0  0  0  0
 12 63  1  0  0  0  0
 12 64  1  0  0  0  0
 13 12  1  0  0  0  0
 13 65  1  0  0  0  0
 13 66  1  0  0  0  0
 14 67  1  0  0  0  0
 15 68  1  0  0  0  0
 15 69  1  0  0  0  0
 16  8  1  0  0  0  0
 16 14  2  0  0  0  0
 17  9  2  0  0  0  0
 17 14  1  0  0  0  0
 18 11  2  0  0  0  0
 18 16  1  0  0  0  0
 19 12  1  0  0  0  0
 19 18  1  0  0  0  0
 19 34  1  1  0  0  0
 20 10  1  0  0  0  0
 20 19  1  0  0  0  0
 20 35  1  6  0  0  0
 21 15  1  0  0  0  0
 21 20  1  0  0  0  0
 21 36  1  1  0  0  0
 22 15  1  0  0  0  0
 22 32  1  0  0  0  0
 22 37  1  6  0  0  0
 23  5  1  0  0  0  0
 24  6  1  0  0  0  0
 25  7  1  0  0  0  0
 26 22  1  0  0  0  0
 26 33  1  0  0  0  0
 26 38  1  1  0  0  0
 27  4  1  6  0  0  0
 27 13  1  0  0  0  0
 27 21  1  0  0  0  0
 27 26  1  0  0  0  0
 28 23  2  0  0  0  0
 29 24  2  0  0  0  0
 30 25  2  0  0  0  0
 31 17  1  0  0  0  0
 31 23  1  0  0  0  0
 32 24  1  0  0  0  0
 33 25  1  0  0  0  0
M  END
>  <DRUGBANK_ID>
DB14641

>  <SECONDARY_ACCESSION_NUMBERS>
DBSALT000069

>  <COMMON_NAME>
Estriol tripropionate

>  <CAS_NUMBER>
2236-31-9

>  <UNII>
S2A0P1AFQ9

>  <SYNONYMS>
Estriol propionate; Estriol, tripropionate

$$$$
