
 OpenBabel10282417072D

215221  0  0  1  0  0  0  0  0999 V2000
    3.5024    6.4676    0.0000 H   0  0  0  0  0  0  0  0  0  0  0  0
    3.7574    7.2522    0.0000 C   0  0  2  0  0  0  0  0  0  0  0  0
    4.5643    7.4237    0.0000 N   0  0  0  0  0  0  0  0  0  0  0  0
    5.1164    6.8106    0.0000 C   0  0  0  0  0  0  0  0  0  0  0  0
    5.9233    6.9821    0.0000 O   0  0  0  0  0  0  0  0  0  0  0  0
    4.8614    6.0260    0.0000 C   0  0  2  0  0  0  0  0  0  0  0  0
    5.4135    5.4129    0.0000 C   0  0  0  0  0  0  0  0  0  0  0  0
    6.2204    5.5844    0.0000 C   0  0  0  0  0  0  0  0  0  0  0  0
    6.7725    4.9713    0.0000 C   0  0  0  0  0  0  0  0  0  0  0  0
    7.5794    5.1429    0.0000 C   0  0  0  0  0  0  0  0  0  0  0  0
    8.1315    4.5298    0.0000 N   0  0  0  0  0  0  0  0  0  0  0  0
    4.0545    5.8545    0.0000 N   0  0  0  0  0  0  0  0  0  0  0  0
    3.7995    5.0698    0.0000 C   0  0  0  0  0  0  0  0  0  0  0  0
    4.3515    4.4567    0.0000 O   0  0  0  0  0  0  0  0  0  0  0  0
    2.9925    4.8983    0.0000 C   0  0  0  0  0  0  0  0  0  0  0  0
    3.7070    4.4858    0.0000 C   0  0  0  0  0  0  0  0  0  0  0  0
    3.7070    3.6608    0.0000 C   0  0  0  0  0  0  0  0  0  0  0  0
    4.4215    3.2483    0.0000 C   0  0  0  0  0  0  0  0  0  0  0  0
    4.4215    2.4233    0.0000 C   0  0  0  0  0  0  0  0  0  0  0  0
    3.7070    2.0108    0.0000 C   0  0  0  0  0  0  0  0  0  0  0  0
    3.7070    1.1858    0.0000 N   0  0  0  0  0  0  0  0  0  0  0  0
    4.4215    0.7733    0.0000 C   0  0  0  0  0  0  0  0  0  0  0  0
    5.1360    1.1858    0.0000 N   0  0  0  0  0  0  0  0  0  0  0  0
    4.4215   -0.0517    0.0000 O   0  0  0  0  0  0  0  0  0  0  0  0
    2.9925    2.4233    0.0000 C   0  0  0  0  0  0  0  0  0  0  0  0
    2.9925    3.2483    0.0000 C   0  0  0  0  0  0  0  0  0  0  0  0
    2.7376    4.1137    0.0000 N   0  0  0  0  0  0  0  0  0  0  0  0
    1.9306    3.9422    0.0000 C   0  0  0  0  0  0  0  0  0  0  0  0
    1.3786    4.5553    0.0000 O   0  0  0  0  0  0  0  0  0  0  0  0
    1.6757    3.1575    0.0000 C   0  0  2  0  0  0  0  0  0  0  0  0
    2.2277    2.5444    0.0000 C   0  0  0  0  0  0  0  0  0  0  0  0
    1.9728    1.7598    0.0000 C   0  0  0  0  0  0  0  0  0  0  0  0
    2.5248    1.1467    0.0000 C   0  0  0  0  0  0  0  0  0  0  0  0
    2.2699    0.3621    0.0000 C   0  0  0  0  0  0  0  0  0  0  0  0
    1.4629    0.1906    0.0000 C   0  0  0  0  0  0  0  0  0  0  0  0
    1.2080   -0.5940    0.0000 N   0  0  0  0  0  0  0  0  0  0  0  0
    1.7600   -1.2071    0.0000 C   0  0  0  0  0  0  0  0  0  0  0  0
    2.5670   -1.0356    0.0000 O   0  0  0  0  0  0  0  0  0  0  0  0
    1.5051   -1.9918    0.0000 C   0  0  2  0  0  0  0  0  0  0  0  0
    2.0571   -2.6049    0.0000 C   0  0  0  0  0  0  0  0  0  0  0  0
    1.8022   -3.3895    0.0000 C   0  0  0  0  0  0  0  0  0  0  0  0
    2.3542   -4.0026    0.0000 O   0  0  0  0  0  0  0  0  0  0  0  0
    0.9952   -3.5610    0.0000 N   0  0  0  0  0  0  0  0  0  0  0  0
    0.4431   -2.9479    0.0000 C   0  0  0  0  0  0  0  0  0  0  0  0
   -0.3638   -3.1194    0.0000 O   0  0  0  0  0  0  0  0  0  0  0  0
    0.6981   -2.1633    0.0000 N   0  0  0  0  0  0  0  0  0  0  0  0
    0.9109    0.8037    0.0000 C   0  0  0  0  0  0  0  0  0  0  0  0
    1.1658    1.5883    0.0000 C   0  0  0  0  0  0  0  0  0  0  0  0
    0.8687    2.9860    0.0000 N   0  0  0  0  0  0  0  0  0  0  0  0
    0.3167    3.5991    0.0000 C   0  0  0  0  0  0  0  0  0  0  0  0
   -0.4903    3.4276    0.0000 O   0  0  0  0  0  0  0  0  0  0  0  0
    0.5716    4.3837    0.0000 C   0  0  0  0  0  0  0  0  0  0  0  0
    0.0196    4.9968    0.0000 C   0  0  0  0  0  0  0  0  0  0  0  0
    0.2745    5.7814    0.0000 S   0  0  0  0  0  0  0  0  0  0  0  0
    1.0815    5.9530    0.0000 S   0  0  0  0  0  0  0  0  0  0  0  0
    1.3364    6.7376    0.0000 C   0  0  0  0  0  0  0  0  0  0  0  0
    2.1434    6.9091    0.0000 C   0  0  0  0  0  0  0  0  0  0  0  0
    2.3984    7.6937    0.0000 N   0  0  0  0  0  0  0  0  0  0  0  0
    3.2053    7.8653    0.0000 C   0  0  0  0  0  0  0  0  0  0  0  0
    3.4603    8.6499    0.0000 O   0  0  0  0  0  0  0  0  0  0  0  0
    1.5914    7.5222    0.0000 C   0  0  0  0  0  0  0  0  0  0  0  0
    1.8463    8.3068    0.0000 O   0  0  0  0  0  0  0  0  0  0  0  0
    0.7844    7.3507    0.0000 N   0  0  0  0  0  0  0  0  0  0  0  0
    0.2324    7.9638    0.0000 C   0  0  2  0  0  0  0  0  0  0  0  0
    0.4873    8.7484    0.0000 C   0  0  0  0  0  0  0  0  0  0  0  0
   -0.0647    9.3615    0.0000 C   0  0  0  0  0  0  0  0  0  0  0  0
   -0.8717    9.1900    0.0000 C   0  0  0  0  0  0  0  0  0  0  0  0
   -1.4237    9.8031    0.0000 C   0  0  0  0  0  0  0  0  0  0  0  0
   -1.1688   10.5877    0.0000 C   0  0  0  0  0  0  0  0  0  0  0  0
   -1.7208   11.2008    0.0000 O   0  0  0  0  0  0  0  0  0  0  0  0
   -0.3618   10.7592    0.0000 C   0  0  0  0  0  0  0  0  0  0  0  0
    0.1902   10.1461    0.0000 C   0  0  0  0  0  0  0  0  0  0  0  0
   -0.5746    7.7923    0.0000 C   0  0  0  0  0  0  0  0  0  0  0  0
   -0.8295    7.0076    0.0000 N   0  0  0  0  0  0  0  0  0  0  0  0
   -1.1266    8.4054    0.0000 O   0  0  0  0  0  0  0  0  0  0  0  0
   -0.2353    4.2122    0.0000 N   0  0  0  0  0  0  0  0  0  0  0  0
   -0.7874    4.8253    0.0000 C   0  0  0  0  0  0  0  0  0  0  0  0
   -0.5324    5.6099    0.0000 O   0  0  0  0  0  0  0  0  0  0  0  0
   -1.5944    4.6538    0.0000 C   0  0  2  0  0  0  0  0  0  0  0  0
   -1.8493    3.8691    0.0000 C   0  0  0  0  0  0  0  0  0  0  0  0
   -2.6563    3.6976    0.0000 C   0  0  0  0  0  0  0  0  0  0  0  0
   -2.9112    2.9130    0.0000 C   0  0  0  0  0  0  0  0  0  0  0  0
   -3.7182    2.7415    0.0000 C   0  0  0  0  0  0  0  0  0  0  0  0
   -4.2702    3.3546    0.0000 C   0  0  0  0  0  0  0  0  0  0  0  0
   -4.8833    3.9066    0.0000 Cl  0  0  0  0  0  0  0  0  0  0  0  0
   -4.0153    4.1392    0.0000 C   0  0  0  0  0  0  0  0  0  0  0  0
   -3.2083    4.3107    0.0000 C   0  0  0  0  0  0  0  0  0  0  0  0
   -2.1464    5.2669    0.0000 N   0  0  0  0  0  0  0  0  0  0  0  0
   -2.9534    5.0953    0.0000 C   0  0  0  0  0  0  0  0  0  0  0  0
   -3.6208    4.6104    0.0000 O   0  0  0  0  0  0  0  0  0  0  0  0
   -3.5054    5.7084    0.0000 C   0  0  0  0  0  0  0  0  0  0  0  0
   -4.3124    5.5369    0.0000 N   0  0  0  0  0  0  0  0  0  0  0  0
   -4.2692    6.3608    0.0000 C   0  0  0  0  0  0  0  0  0  0  0  0
   -4.9611    6.8101    0.0000 C   0  0  0  0  0  0  0  0  0  0  0  0
   -5.6962    6.4356    0.0000 N   0  0  0  0  0  0  0  0  0  0  0  0
   -5.8677    7.2425    0.0000 C   0  0  0  0  0  0  0  0  0  0  0  0
   -6.6523    7.4975    0.0000 C   0  0  0  0  0  0  0  0  0  0  0  0
   -7.2654    6.9454    0.0000 O   0  0  0  0  0  0  0  0  0  0  0  0
   -6.8238    8.3044    0.0000 O   0  0  0  0  0  0  0  0  0  0  0  0
   -6.5200    6.4787    0.0000 C   0  0  0  0  0  0  0  0  0  0  0  0
   -6.9694    5.7868    0.0000 C   0  0  0  0  0  0  0  0  0  0  0  0
   -6.5948    5.0518    0.0000 N   0  0  0  0  0  0  0  0  0  0  0  0
   -7.4018    4.8802    0.0000 C   0  0  0  0  0  0  0  0  0  0  0  0
   -7.9538    5.4933    0.0000 C   0  0  0  0  0  0  0  0  0  0  0  0
   -8.7608    5.3218    0.0000 O   0  0  0  0  0  0  0  0  0  0  0  0
   -7.6989    6.2779    0.0000 O   0  0  0  0  0  0  0  0  0  0  0  0
   -6.6380    4.2279    0.0000 C   0  0  0  0  0  0  0  0  0  0  0  0
   -5.9461    3.7786    0.0000 C   0  0  0  0  0  0  0  0  0  0  0  0
   -5.2110    4.1531    0.0000 N   0  0  0  0  0  0  0  0  0  0  0  0
   -5.0395    3.3461    0.0000 C   0  0  0  0  0  0  0  0  0  0  0  0
   -5.6526    2.7941    0.0000 C   0  0  0  0  0  0  0  0  0  0  0  0
   -5.4811    1.9871    0.0000 O   0  0  0  0  0  0  0  0  0  0  0  0
   -6.4372    3.0490    0.0000 O   0  0  0  0  0  0  0  0  0  0  0  0
   -4.3871    4.1099    0.0000 C   0  0  0  0  0  0  0  0  0  0  0  0
   -3.9378    4.8018    0.0000 C   0  0  0  0  0  0  0  0  0  0  0  0
    4.0123    8.0368    0.0000 C   0  0  1  0  0  0  0  0  0  0  0  0
    3.9261    8.8573    0.0000 C   0  0  0  0  0  0  0  0  0  0  0  0
    4.8193    8.2083    0.0000 O   0  0  0  0  0  0  0  0  0  0  0  0
    4.8685    8.3600    0.0000 H   0  0  0  0  0  0  0  0  0  0  0  0
    5.9080    6.2485    0.0000 H   0  0  0  0  0  0  0  0  0  0  0  0
    5.0829    4.3953    0.0000 H   0  0  0  0  0  0  0  0  0  0  0  0
    6.1295    4.6177    0.0000 H   0  0  0  0  0  0  0  0  0  0  0  0
    6.5510    6.6020    0.0000 H   0  0  0  0  0  0  0  0  0  0  0  0
    7.2670    5.8069    0.0000 H   0  0  0  0  0  0  0  0  0  0  0  0
    6.4419    3.9536    0.0000 H   0  0  0  0  0  0  0  0  0  0  0  0
    7.4885    4.1762    0.0000 H   0  0  0  0  0  0  0  0  0  0  0  0
    7.9100    6.1606    0.0000 H   0  0  0  0  0  0  0  0  0  0  0  0
    8.6260    5.3654    0.0000 H   0  0  0  0  0  0  0  0  0  0  0  0
    7.8164    3.5597    0.0000 H   0  0  0  0  0  0  0  0  0  0  0  0
    9.1292    4.7419    0.0000 H   0  0  0  0  0  0  0  0  0  0  0  0
    3.3958    6.5861    0.0000 H   0  0  0  0  0  0  0  0  0  0  0  0
    3.3760    3.8994    0.0000 H   0  0  0  0  0  0  0  0  0  0  0  0
    4.6336    5.0208    0.0000 H   0  0  0  0  0  0  0  0  0  0  0  0
    4.6336    3.9508    0.0000 H   0  0  0  0  0  0  0  0  0  0  0  0
    5.3152    3.7643    0.0000 H   0  0  0  0  0  0  0  0  0  0  0  0
    5.3152    1.9073    0.0000 H   0  0  0  0  0  0  0  0  0  0  0  0
    2.8544    0.6935    0.0000 H   0  0  0  0  0  0  0  0  0  0  0  0
    5.9886    0.6935    0.0000 H   0  0  0  0  0  0  0  0  0  0  0  0
    5.1360    2.1703    0.0000 H   0  0  0  0  0  0  0  0  0  0  0  0
    2.0988    1.9073    0.0000 H   0  0  0  0  0  0  0  0  0  0  0  0
    2.0988    3.7643    0.0000 H   0  0  0  0  0  0  0  0  0  0  0  0
    3.3964    3.3821    0.0000 H   0  0  0  0  0  0  0  0  0  0  0  0
    2.7223    3.3800    0.0000 H   0  0  0  0  0  0  0  0  0  0  0  0
    3.2743    2.7669    0.0000 H   0  0  0  0  0  0  0  0  0  0  0  0
    2.9437    1.7492    0.0000 H   0  0  0  0  0  0  0  0  0  0  0  0
    3.5342    1.3613    0.0000 H   0  0  0  0  0  0  0  0  0  0  0  0
    2.9604   -0.4048    0.0000 H   0  0  0  0  0  0  0  0  0  0  0  0
    0.2450   -0.7987    0.0000 H   0  0  0  0  0  0  0  0  0  0  0  0
    2.5517   -1.7693    0.0000 H   0  0  0  0  0  0  0  0  0  0  0  0
    3.1037   -2.3824    0.0000 H   0  0  0  0  0  0  0  0  0  0  0  0
    2.7731   -3.4001    0.0000 H   0  0  0  0  0  0  0  0  0  0  0  0
    0.6910   -4.4973    0.0000 H   0  0  0  0  0  0  0  0  0  0  0  0
    0.0394   -1.4316    0.0000 H   0  0  0  0  0  0  0  0  0  0  0  0
   -0.0985    0.5891    0.0000 H   0  0  0  0  0  0  0  0  0  0  0  0
    0.4753    2.3552    0.0000 H   0  0  0  0  0  0  0  0  0  0  0  0
    0.5644    2.0497    0.0000 H   0  0  0  0  0  0  0  0  0  0  0  0
   -0.4460    4.7144    0.0000 H   0  0  0  0  0  0  0  0  0  0  0  0
   -1.0270    4.7743    0.0000 H   0  0  0  0  0  0  0  0  0  0  0  0
   -0.6964    5.7920    0.0000 H   0  0  0  0  0  0  0  0  0  0  0  0
    0.6204    7.5328    0.0000 H   0  0  0  0  0  0  0  0  0  0  0  0
    1.6671    7.7552    0.0000 H   0  0  0  0  0  0  0  0  0  0  0  0
    1.9210    7.9557    0.0000 H   0  0  0  0  0  0  0  0  0  0  0  0
    1.7396    8.4253    0.0000 H   0  0  0  0  0  0  0  0  0  0  0  0
    0.4801    6.4144    0.0000 H   0  0  0  0  0  0  0  0  0  0  0  0
    1.2790    8.1863    0.0000 H   0  0  0  0  0  0  0  0  0  0  0  0
    1.5339    8.9709    0.0000 H   0  0  0  0  0  0  0  0  0  0  0  0
    0.8180    9.7660    0.0000 H   0  0  0  0  0  0  0  0  0  0  0  0
   -1.1906    8.2085    0.0000 H   0  0  0  0  0  0  0  0  0  0  0  0
   -2.4331    9.5885    0.0000 H   0  0  0  0  0  0  0  0  0  0  0  0
   -1.4312   12.0919    0.0000 H   0  0  0  0  0  0  0  0  0  0  0  0
   -0.0429   11.7407    0.0000 H   0  0  0  0  0  0  0  0  0  0  0  0
    1.1996   10.3607    0.0000 H   0  0  0  0  0  0  0  0  0  0  0  0
   -1.7925    6.8028    0.0000 H   0  0  0  0  0  0  0  0  0  0  0  0
   -0.1707    6.2760    0.0000 H   0  0  0  0  0  0  0  0  0  0  0  0
   -0.5395    3.2759    0.0000 H   0  0  0  0  0  0  0  0  0  0  0  0
   -1.2637    5.6714    0.0000 H   0  0  0  0  0  0  0  0  0  0  0  0
   -1.1333    3.0739    0.0000 H   0  0  0  0  0  0  0  0  0  0  0  0
   -2.1800    2.8515    0.0000 H   0  0  0  0  0  0  0  0  0  0  0  0
   -2.2207    2.1461    0.0000 H   0  0  0  0  0  0  0  0  0  0  0  0
   -4.0371    1.7600    0.0000 H   0  0  0  0  0  0  0  0  0  0  0  0
   -4.7058    4.9061    0.0000 H   0  0  0  0  0  0  0  0  0  0  0  0
   -2.8894    5.2922    0.0000 H   0  0  0  0  0  0  0  0  0  0  0  0
   -1.8422    6.2032    0.0000 H   0  0  0  0  0  0  0  0  0  0  0  0
   -3.1747    6.7260    0.0000 H   0  0  0  0  0  0  0  0  0  0  0  0
   -4.2213    6.5036    0.0000 H   0  0  0  0  0  0  0  0  0  0  0  0
   -3.3158    6.8466    0.0000 H   0  0  0  0  0  0  0  0  0  0  0  0
   -4.2132    7.4293    0.0000 H   0  0  0  0  0  0  0  0  0  0  0  0
   -4.9051    7.8786    0.0000 H   0  0  0  0  0  0  0  0  0  0  0  0
   -5.8585    7.3929    0.0000 H   0  0  0  0  0  0  0  0  0  0  0  0
   -5.0725    7.9584    0.0000 H   0  0  0  0  0  0  0  0  0  0  0  0
   -6.0901    8.2891    0.0000 H   0  0  0  0  0  0  0  0  0  0  0  0
   -8.1566    7.2349    0.0000 H   0  0  0  0  0  0  0  0  0  0  0  0
   -7.0058    7.4321    0.0000 H   0  0  0  0  0  0  0  0  0  0  0  0
   -7.5885    6.5347    0.0000 H   0  0  0  0  0  0  0  0  0  0  0  0
   -8.0379    5.8428    0.0000 H   0  0  0  0  0  0  0  0  0  0  0  0
   -7.5521    4.8894    0.0000 H   0  0  0  0  0  0  0  0  0  0  0  0
   -7.7324    3.8626    0.0000 H   0  0  0  0  0  0  0  0  0  0  0  0
   -8.4484    4.6577    0.0000 H   0  0  0  0  0  0  0  0  0  0  0  0
   -9.3877    6.0182    0.0000 H   0  0  0  0  0  0  0  0  0  0  0  0
   -7.5914    3.7421    0.0000 H   0  0  0  0  0  0  0  0  0  0  0  0
   -6.6940    3.1594    0.0000 H   0  0  0  0  0  0  0  0  0  0  0  0
   -6.0021    2.7101    0.0000 H   0  0  0  0  0  0  0  0  0  0  0  0
   -5.0487    3.1958    0.0000 H   0  0  0  0  0  0  0  0  0  0  0  0
   -4.0219    3.0154    0.0000 H   0  0  0  0  0  0  0  0  0  0  0  0
   -4.8171    2.2995    0.0000 H   0  0  0  0  0  0  0  0  0  0  0  0
   -6.1775    1.3602    0.0000 H   0  0  0  0  0  0  0  0  0  0  0  0
   -3.9013    3.1565    0.0000 H   0  0  0  0  0  0  0  0  0  0  0  0
   -3.3186    4.0539    0.0000 H   0  0  0  0  0  0  0  0  0  0  0  0
   -2.8693    4.7458    0.0000 H   0  0  0  0  0  0  0  0  0  0  0  0
   -3.3551    5.6992    0.0000 H   0  0  0  0  0  0  0  0  0  0  0  0
    4.7283    7.2416    0.0000 H   0  0  0  0  0  0  0  0  0  0  0  0
    4.7918    9.4862    0.0000 H   0  0  0  0  0  0  0  0  0  0  0  0
    2.9486    9.2926    0.0000 H   0  0  0  0  0  0  0  0  0  0  0  0
    3.8143    9.9214    0.0000 H   0  0  0  0  0  0  0  0  0  0  0  0
    5.4683    7.4874    0.0000 H   0  0  0  0  0  0  0  0  0  0  0  0
  2  1  1  1  0  0  0
  2  3  1  0  0  0  0
  2 59  1  0  0  0  0
  2116  1  0  0  0  0
  3  4  1  0  0  0  0
  3119  1  0  0  0  0
  4  5  2  0  0  0  0
  6  4  1  0  0  0  0
  6  7  1  0  0  0  0
  6 12  1  0  0  0  0
  6120  1  1  0  0  0
  7  8  1  0  0  0  0
  7121  1  0  0  0  0
  7122  1  0  0  0  0
  8  9  1  0  0  0  0
  8123  1  0  0  0  0
  8124  1  0  0  0  0
  9 10  1  0  0  0  0
  9125  1  0  0  0  0
  9126  1  0  0  0  0
 10 11  1  0  0  0  0
 10127  1  0  0  0  0
 10128  1  0  0  0  0
 11129  1  0  0  0  0
 11130  1  0  0  0  0
 12 13  1  0  0  0  0
 12131  1  0  0  0  0
 13 14  2  0  0  0  0
 15 13  1  0  0  0  0
 15 16  1  0  0  0  0
 15 27  1  0  0  0  0
 15132  1  0  0  0  0
 16 17  1  0  0  0  0
 16133  1  0  0  0  0
 16134  1  0  0  0  0
 17 18  2  0  0  0  0
 17 26  1  0  0  0  0
 18 19  1  0  0  0  0
 18135  1  0  0  0  0
 19 20  2  0  0  0  0
 19136  1  0  0  0  0
 20 21  1  0  0  0  0
 20 25  1  0  0  0  0
 21 22  1  0  0  0  0
 21137  1  0  0  0  0
 22 23  1  0  0  0  0
 22 24  2  0  0  0  0
 23138  1  0  0  0  0
 23139  1  0  0  0  0
 25 26  2  0  0  0  0
 25140  1  0  0  0  0
 26141  1  0  0  0  0
 27 28  1  0  0  0  0
 27142  1  0  0  0  0
 28 29  2  0  0  0  0
 30 28  1  0  0  0  0
 30 31  1  0  0  0  0
 30 49  1  0  0  0  0
 30143  1  1  0  0  0
 31 32  1  0  0  0  0
 31144  1  0  0  0  0
 31145  1  0  0  0  0
 32 33  2  0  0  0  0
 32 48  1  0  0  0  0
 33 34  1  0  0  0  0
 33146  1  0  0  0  0
 34 35  2  0  0  0  0
 34147  1  0  0  0  0
 35 36  1  0  0  0  0
 35 47  1  0  0  0  0
 36 37  1  0  0  0  0
 36148  1  0  0  0  0
 37 38  2  0  0  0  0
 39 37  1  0  0  0  0
 39 40  1  0  0  0  0
 39 46  1  0  0  0  0
 39149  1  1  0  0  0
 40 41  1  0  0  0  0
 40150  1  0  0  0  0
 40151  1  0  0  0  0
 41 42  2  0  0  0  0
 41 43  1  0  0  0  0
 43 44  1  0  0  0  0
 43152  1  0  0  0  0
 44 45  2  0  0  0  0
 44 46  1  0  0  0  0
 46153  1  0  0  0  0
 47 48  2  0  0  0  0
 47154  1  0  0  0  0
 48155  1  0  0  0  0
 49 50  1  0  0  0  0
 49156  1  0  0  0  0
 50 51  2  0  0  0  0
 52 50  1  0  0  0  0
 52 53  1  0  0  0  0
 52 76  1  0  0  0  0
 52157  1  0  0  0  0
 53 54  1  0  0  0  0
 53158  1  0  0  0  0
 53159  1  0  0  0  0
 54 55  1  0  0  0  0
 55 56  1  0  0  0  0
 56160  1  0  0  0  0
 56161  1  0  0  0  0
 57 56  1  0  0  0  0
 57 58  1  0  0  0  0
 57 61  1  0  0  0  0
 57162  1  0  0  0  0
 58 59  1  0  0  0  0
 58163  1  0  0  0  0
 59 60  2  0  0  0  0
 61 62  2  0  0  0  0
 61 63  1  0  0  0  0
 63164  1  0  0  0  0
 64 63  1  0  0  0  0
 64 65  1  0  0  0  0
 64 73  1  0  0  0  0
 64165  1  6  0  0  0
 65 66  1  0  0  0  0
 65166  1  0  0  0  0
 65167  1  0  0  0  0
 66 67  2  0  0  0  0
 66 72  1  0  0  0  0
 67 68  1  0  0  0  0
 67168  1  0  0  0  0
 68 69  2  0  0  0  0
 68169  1  0  0  0  0
 69 70  1  0  0  0  0
 69 71  1  0  0  0  0
 70170  1  0  0  0  0
 71 72  2  0  0  0  0
 71171  1  0  0  0  0
 72172  1  0  0  0  0
 73 74  1  0  0  0  0
 73 75  2  0  0  0  0
 74173  1  0  0  0  0
 74174  1  0  0  0  0
 76 77  1  0  0  0  0
 76175  1  0  0  0  0
 77 78  2  0  0  0  0
 79 77  1  0  0  0  0
 79 80  1  0  0  0  0
 79 88  1  0  0  0  0
 79176  1  1  0  0  0
 80 81  1  0  0  0  0
 80177  1  0  0  0  0
 80178  1  0  0  0  0
 81 82  2  0  0  0  0
 81 87  1  0  0  0  0
 82 83  1  0  0  0  0
 82179  1  0  0  0  0
 83 84  2  0  0  0  0
 83180  1  0  0  0  0
 84 85  1  0  0  0  0
 84 86  1  0  0  0  0
 86 87  2  0  0  0  0
 86181  1  0  0  0  0
 87182  1  0  0  0  0
 88 89  1  0  0  0  0
 88183  1  0  0  0  0
 89 90  2  0  0  0  0
 89 91  1  0  0  0  0
 91 92  1  0  0  0  0
 91184  1  0  0  0  0
 91185  1  0  0  0  0
 92 93  1  0  0  0  0
 92115  1  0  0  0  0
 93 94  1  0  0  0  0
 93186  1  0  0  0  0
 93187  1  0  0  0  0
 94 95  1  0  0  0  0
 94188  1  0  0  0  0
 94189  1  0  0  0  0
 95 96  1  0  0  0  0
 95100  1  0  0  0  0
 96 97  1  0  0  0  0
 96190  1  0  0  0  0
 96191  1  0  0  0  0
 97 98  1  0  0  0  0
 97 99  2  0  0  0  0
 98192  1  0  0  0  0
100101  1  0  0  0  0
100193  1  0  0  0  0
100194  1  0  0  0  0
101102  1  0  0  0  0
101195  1  0  0  0  0
101196  1  0  0  0  0
102103  1  0  0  0  0
102107  1  0  0  0  0
103104  1  0  0  0  0
103197  1  0  0  0  0
103198  1  0  0  0  0
104105  1  0  0  0  0
104106  2  0  0  0  0
105199  1  0  0  0  0
107108  1  0  0  0  0
107200  1  0  0  0  0
107201  1  0  0  0  0
108109  1  0  0  0  0
108202  1  0  0  0  0
108203  1  0  0  0  0
109110  1  0  0  0  0
109114  1  0  0  0  0
110111  1  0  0  0  0
110204  1  0  0  0  0
110205  1  0  0  0  0
111112  1  0  0  0  0
111113  2  0  0  0  0
112206  1  0  0  0  0
114115  1  0  0  0  0
114207  1  0  0  0  0
114208  1  0  0  0  0
115209  1  0  0  0  0
115210  1  0  0  0  0
116117  1  0  0  0  0
116118  1  0  0  0  0
116211  1  6  0  0  0
117212  1  0  0  0  0
117213  1  0  0  0  0
117214  1  0  0  0  0
118215  1  0  0  0  0
M  END
>  <DRUGBANK_ID>
DB16323

>  <COMMON_NAME>
Satoreotide tetraxetan

>  <CAS_NUMBER>
1039726-31-2

>  <UNII>
EC1O2FB9FV

>  <SYNONYMS>
Dota satoreotide; Satoreotide dota; Satoreotide tetraxetan

$$$$
