
 OpenBabel10282417072D

 25 26  0  0  0  0  0  0  0  0999 V2000
   -1.4543   -0.2731    0.0000 C   0  0  0  0  0  0  0  0  0  0  0  0
   -2.1687   -0.6856    0.0000 C   0  0  0  0  0  0  0  0  0  0  0  0
   -2.1687   -1.5105    0.0000 C   0  0  0  0  0  0  0  0  0  0  0  0
   -1.4543   -1.9231    0.0000 C   0  0  0  0  0  0  0  0  0  0  0  0
   -0.7397   -1.5105    0.0000 C   0  0  0  0  0  0  0  0  0  0  0  0
    0.0448   -1.7656    0.0000 N   0  0  0  0  0  0  0  0  0  0  0  0
    0.5297   -1.0981    0.0000 C   0  0  0  0  0  0  0  0  0  0  0  0
    0.0448   -0.4307    0.0000 C   0  0  0  0  0  0  0  0  0  0  0  0
   -0.7397   -0.6856    0.0000 C   0  0  0  0  0  0  0  0  0  0  0  0
    0.2998    0.3539    0.0000 C   0  0  0  0  0  0  0  0  0  0  0  0
    1.1067    0.5254    0.0000 C   0  0  0  0  0  0  0  0  0  0  0  0
    1.3617    1.3101    0.0000 C   0  0  0  0  0  0  0  0  0  0  0  0
    2.1687    1.4816    0.0000 O   0  0  0  0  0  0  0  0  0  0  0  0
    0.8097    1.9231    0.0000 O   0  0  0  0  0  0  0  0  0  0  0  0
   -1.4544    0.7589    0.0000 H   0  0  0  0  0  0  0  0  0  0  0  0
   -3.0624   -0.1696    0.0000 H   0  0  0  0  0  0  0  0  0  0  0  0
   -3.0625   -2.0264    0.0000 H   0  0  0  0  0  0  0  0  0  0  0  0
   -1.4544   -2.9551    0.0000 H   0  0  0  0  0  0  0  0  0  0  0  0
    0.3489   -2.7019    0.0000 H   0  0  0  0  0  0  0  0  0  0  0  0
    1.5617   -1.0981    0.0000 H   0  0  0  0  0  0  0  0  0  0  0  0
   -0.4161    1.1491    0.0000 H   0  0  0  0  0  0  0  0  0  0  0  0
    0.6305    1.3715    0.0000 H   0  0  0  0  0  0  0  0  0  0  0  0
    1.8226   -0.2698    0.0000 H   0  0  0  0  0  0  0  0  0  0  0  0
    2.1533    0.7478    0.0000 H   0  0  0  0  0  0  0  0  0  0  0  0
    2.7956    0.7852    0.0000 H   0  0  0  0  0  0  0  0  0  0  0  0
  1  2  1  0  0  0  0
  1  9  2  0  0  0  0
  1 15  1  0  0  0  0
  2  3  2  0  0  0  0
  2 16  1  0  0  0  0
  3  4  1  0  0  0  0
  3 17  1  0  0  0  0
  4  5  2  0  0  0  0
  4 18  1  0  0  0  0
  5  6  1  0  0  0  0
  5  9  1  0  0  0  0
  6  7  1  0  0  0  0
  6 19  1  0  0  0  0
  7  8  2  0  0  0  0
  7 20  1  0  0  0  0
  8  9  1  0  0  0  0
  8 10  1  0  0  0  0
 10 11  1  0  0  0  0
 10 21  1  0  0  0  0
 10 22  1  0  0  0  0
 11 12  1  0  0  0  0
 11 23  1  0  0  0  0
 11 24  1  0  0  0  0
 12 13  1  0  0  0  0
 12 14  2  0  0  0  0
 13 25  1  0  0  0  0
M  END
>  <DRUGBANK_ID>
DB02758

>  <SECONDARY_ACCESSION_NUMBERS>
EXPT01908

>  <COMMON_NAME>
Indolepropionic acid

>  <CAS_NUMBER>
830-96-6

>  <UNII>
JF49U1Q7KN

>  <SYNONYMS>
1H-Indole-3-propionic acid; 3-(3-Indole)propionic acid; 3-(3-Indolyl)propanoic acid; 3-(3-Indolyl)propionic acid; 3-(Indol-3-yl)propionic acid; 3-indolepropionic acid; beta-Indolylpropionate; Indole-3-propionic acid; Indolylpropionic acid

$$$$
