
 OpenBabel10282417072D

 58 62  0  0  0  0  0  0  0  0999 V2000
   -4.2889   -0.2942    0.0000 C   0  0  0  0  0  0  0  0  0  0  0  0
   -4.2889   -1.1236    0.0000 C   0  0  0  0  0  0  0  0  0  0  0  0
   -3.5717   -1.5322    0.0000 C   0  0  0  0  0  0  0  0  0  0  0  0
   -2.8608   -1.1199    0.0000 C   0  0  0  0  0  0  0  0  0  0  0  0
   -2.8608   -0.2938    0.0000 C   0  0  0  0  0  0  0  0  0  0  0  0
   -3.5735    0.1185    0.0000 C   0  0  0  0  0  0  0  0  0  0  0  0
   -2.1473    0.1175    0.0000 C   0  0  0  0  0  0  0  0  0  0  0  0
   -1.4315   -0.2954    0.0000 N   0  0  0  0  0  0  0  0  0  0  0  0
   -1.4296   -1.1174    0.0000 C   0  0  0  0  0  0  0  0  0  0  0  0
   -2.1422   -1.5345    0.0000 N   0  0  0  0  0  0  0  0  0  0  0  0
   -0.7146   -1.5302    0.0000 C   0  0  0  0  0  0  0  0  0  0  0  0
    0.0004   -1.1175    0.0000 C   0  0  0  0  0  0  0  0  0  0  0  0
    0.7129   -1.5298    0.0000 C   0  0  0  0  0  0  0  0  0  0  0  0
    0.7129   -2.3557    0.0000 C   0  0  0  0  0  0  0  0  0  0  0  0
    0.0022   -2.7678    0.0000 C   0  0  0  0  0  0  0  0  0  0  0  0
   -0.7146   -2.3594    0.0000 C   0  0  0  0  0  0  0  0  0  0  0  0
    1.4280   -1.1169    0.0000 O   0  0  0  0  0  0  0  0  0  0  0  0
    1.4280   -0.2911    0.0000 C   0  0  0  0  0  0  0  0  0  0  0  0
    2.1433    0.1219    0.0000 C   0  0  0  0  0  0  0  0  0  0  0  0
    2.1433    0.9478    0.0000 O   0  0  0  0  0  0  0  0  0  0  0  0
    2.8585   -0.2911    0.0000 N   0  0  0  0  0  0  0  0  0  0  0  0
    3.5737    0.1219    0.0000 C   0  0  0  0  0  0  0  0  0  0  0  0
    4.2889   -0.2911    0.0000 C   0  0  0  0  0  0  0  0  0  0  0  0
    3.5737    0.9478    0.0000 C   0  0  0  0  0  0  0  0  0  0  0  0
   -2.1473    0.9438    0.0000 N   0  0  0  0  0  0  0  0  0  0  0  0
   -1.5594    1.4338    0.0000 C   0  0  0  0  0  0  0  0  0  0  0  0
   -1.6895    2.1878    0.0000 C   0  0  0  0  0  0  0  0  0  0  0  0
   -1.1030    2.6756    0.0000 C   0  0  0  0  0  0  0  0  0  0  0  0
   -0.3848    2.4114    0.0000 C   0  0  0  0  0  0  0  0  0  0  0  0
   -0.2536    1.6614    0.0000 C   0  0  0  0  0  0  0  0  0  0  0  0
   -0.8382    1.1683    0.0000 C   0  0  0  0  0  0  0  0  0  0  0  0
    0.5002    1.5543    0.0000 C   0  0  0  0  0  0  0  0  0  0  0  0
    0.8348    2.2382    0.0000 N   0  0  0  0  0  0  0  0  0  0  0  0
    0.2880    2.7678    0.0000 N   0  0  0  0  0  0  0  0  0  0  0  0
   -5.1825    0.2220    0.0000 H   0  0  0  0  0  0  0  0  0  0  0  0
   -5.1812   -1.6422    0.0000 H   0  0  0  0  0  0  0  0  0  0  0  0
   -3.5677   -2.5642    0.0000 H   0  0  0  0  0  0  0  0  0  0  0  0
   -3.5729    1.1505    0.0000 H   0  0  0  0  0  0  0  0  0  0  0  0
    0.0010   -0.0855    0.0000 H   0  0  0  0  0  0  0  0  0  0  0  0
    1.6071   -2.8709    0.0000 H   0  0  0  0  0  0  0  0  0  0  0  0
    0.0061   -3.7998    0.0000 H   0  0  0  0  0  0  0  0  0  0  0  0
   -1.6069   -2.8780    0.0000 H   0  0  0  0  0  0  0  0  0  0  0  0
    0.5013    0.2439    0.0000 H   0  0  0  0  0  0  0  0  0  0  0  0
    1.4280    0.7789    0.0000 H   0  0  0  0  0  0  0  0  0  0  0  0
    2.8585   -1.2756    0.0000 H   0  0  0  0  0  0  0  0  0  0  0  0
    4.5004    0.6569    0.0000 H   0  0  0  0  0  0  0  0  0  0  0  0
    4.2888   -1.3611    0.0000 H   0  0  0  0  0  0  0  0  0  0  0  0
    5.2156    0.2438    0.0000 H   0  0  0  0  0  0  0  0  0  0  0  0
    5.2155   -0.8262    0.0000 H   0  0  0  0  0  0  0  0  0  0  0  0
    4.5003    1.4828    0.0000 H   0  0  0  0  0  0  0  0  0  0  0  0
    2.6471    1.4828    0.0000 H   0  0  0  0  0  0  0  0  0  0  0  0
    3.5737    2.0178    0.0000 H   0  0  0  0  0  0  0  0  0  0  0  0
   -3.0389    1.3613    0.0000 H   0  0  0  0  0  0  0  0  0  0  0  0
   -2.6578    2.5447    0.0000 H   0  0  0  0  0  0  0  0  0  0  0  0
   -1.2782    3.6926    0.0000 H   0  0  0  0  0  0  0  0  0  0  0  0
   -0.6596    0.1519    0.0000 H   0  0  0  0  0  0  0  0  0  0  0  0
    0.9834    0.6424    0.0000 H   0  0  0  0  0  0  0  0  0  0  0  0
    0.4265    3.7425    0.0000 H   0  0  0  0  0  0  0  0  0  0  0  0
  1  2  1  0  0  0  0
  1 35  1  0  0  0  0
  2  3  2  0  0  0  0
  2 36  1  0  0  0  0
  3  4  1  0  0  0  0
  3 37  1  0  0  0  0
  4  5  2  0  0  0  0
  4 10  1  0  0  0  0
  5  6  1  0  0  0  0
  5  7  1  0  0  0  0
  6  1  2  0  0  0  0
  6 38  1  0  0  0  0
  7 25  1  0  0  0  0
  8  7  2  0  0  0  0
  9  8  1  0  0  0  0
  9 11  1  0  0  0  0
 10  9  2  0  0  0  0
 11 16  1  0  0  0  0
 12 11  2  0  0  0  0
 12 39  1  0  0  0  0
 13 12  1  0  0  0  0
 13 17  1  0  0  0  0
 14 13  2  0  0  0  0
 14 40  1  0  0  0  0
 15 14  1  0  0  0  0
 15 41  1  0  0  0  0
 16 15  2  0  0  0  0
 16 42  1  0  0  0  0
 17 18  1  0  0  0  0
 18 19  1  0  0  0  0
 18 43  1  0  0  0  0
 18 44  1  0  0  0  0
 19 20  2  0  0  0  0
 19 21  1  0  0  0  0
 21 22  1  0  0  0  0
 21 45  1  0  0  0  0
 22 23  1  0  0  0  0
 22 24  1  0  0  0  0
 22 46  1  0  0  0  0
 23 47  1  0  0  0  0
 23 48  1  0  0  0  0
 23 49  1  0  0  0  0
 24 50  1  0  0  0  0
 24 51  1  0  0  0  0
 24 52  1  0  0  0  0
 25 26  1  0  0  0  0
 25 53  1  0  0  0  0
 26 31  1  0  0  0  0
 27 26  2  0  0  0  0
 27 54  1  0  0  0  0
 28 27  1  0  0  0  0
 28 55  1  0  0  0  0
 29 28  2  0  0  0  0
 29 34  1  0  0  0  0
 30 29  1  0  0  0  0
 30 32  1  0  0  0  0
 31 30  2  0  0  0  0
 31 56  1  0  0  0  0
 32 33  2  0  0  0  0
 32 57  1  0  0  0  0
 33 34  1  0  0  0  0
 34 58  1  0  0  0  0
M  END
>  <DRUGBANK_ID>
DB16703

>  <COMMON_NAME>
Belumosudil

>  <CAS_NUMBER>
911417-87-3

>  <UNII>
834YJF89WO

>  <SYNONYMS>
Belumosudil

$$$$
