
 OpenBabel10282417072D

 56 59  0  0  0  0  0  0  0  0999 V2000
    1.5663   -3.7210    0.0000 C   0  0  0  0  0  0  0  0  0  0  0  0
    1.5662   -2.8960    0.0000 N   0  0  0  0  0  0  0  0  0  0  0  0
    2.2807   -2.4834    0.0000 C   0  0  0  0  0  0  0  0  0  0  0  0
    2.9952   -2.8959    0.0000 C   0  0  0  0  0  0  0  0  0  0  0  0
    3.7096   -2.4833    0.0000 C   0  0  0  0  0  0  0  0  0  0  0  0
    4.4241   -2.8958    0.0000 C   0  0  0  0  0  0  0  0  0  0  0  0
    4.4242   -3.7208    0.0000 C   0  0  0  0  0  0  0  0  0  0  0  0
    5.1387   -4.1333    0.0000 C   0  0  0  0  0  0  0  0  0  0  0  0
    5.1387   -4.9583    0.0000 C   0  0  0  0  0  0  0  0  0  0  0  0
    5.8532   -5.3707    0.0000 C   0  0  0  0  0  0  0  0  0  0  0  0
    6.5676   -4.9582    0.0000 O   0  0  0  0  0  0  0  0  0  0  0  0
    5.8532   -6.1957    0.0000 N   0  0  0  0  0  0  0  0  0  0  0  0
    6.5677   -6.6082    0.0000 O   0  0  0  0  0  0  0  0  0  0  0  0
    3.7097   -4.1333    0.0000 C   0  0  0  0  0  0  0  0  0  0  0  0
    2.9952   -3.7209    0.0000 C   0  0  0  0  0  0  0  0  0  0  0  0
    0.8517   -2.4835    0.0000 C   0  0  0  0  0  0  0  0  0  0  0  0
    0.8517   -1.6585    0.0000 C   0  0  3  0  0  0  0  0  0  0  0  0
    0.1163   -2.0322    0.0000 C   0  0  0  0  0  0  0  0  0  0  0  0
    0.5657   -1.2419    0.0000 C   0  0  3  0  0  0  0  0  0  0  0  0
    0.5657   -0.4945    0.0000 C   0  0  0  0  0  0  0  0  0  0  0  0
    1.3012   -0.1208    0.0000 C   0  0  3  0  0  0  0  0  0  0  0  0
    2.0368   -0.4945    0.0000 C   0  0  0  0  0  0  0  0  0  0  0  0
    2.0368   -1.2419    0.0000 C   0  0  3  0  0  0  0  0  0  0  0  0
    1.3012   -1.6156    0.0000 C   0  0  0  0  0  0  0  0  0  0  0  0
    1.5873   -2.0322    0.0000 C   0  0  0  0  0  0  0  0  0  0  0  0
    0.8517   -0.9111    0.0000 C   0  0  0  0  0  0  0  0  0  0  0  0
    0.6397   -4.2561    0.0000 H   0  0  0  0  0  0  0  0  0  0  0  0
    2.4930   -4.2559    0.0000 H   0  0  0  0  0  0  0  0  0  0  0  0
    1.5664   -4.7910    0.0000 H   0  0  0  0  0  0  0  0  0  0  0  0
    2.2806   -1.4134    0.0000 H   0  0  0  0  0  0  0  0  0  0  0  0
    3.2073   -1.9484    0.0000 H   0  0  0  0  0  0  0  0  0  0  0  0
    3.7095   -1.4513    0.0000 H   0  0  0  0  0  0  0  0  0  0  0  0
    5.3178   -2.3797    0.0000 H   0  0  0  0  0  0  0  0  0  0  0  0
    6.0324   -3.6173    0.0000 H   0  0  0  0  0  0  0  0  0  0  0  0
    4.2450   -5.4744    0.0000 H   0  0  0  0  0  0  0  0  0  0  0  0
    5.0006   -6.6880    0.0000 H   0  0  0  0  0  0  0  0  0  0  0  0
    6.5677   -7.5782    0.0000 H   0  0  0  0  0  0  0  0  0  0  0  0
    3.7098   -5.1653    0.0000 H   0  0  0  0  0  0  0  0  0  0  0  0
    2.1015   -4.2370    0.0000 H   0  0  0  0  0  0  0  0  0  0  0  0
   -0.0749   -3.0185    0.0000 H   0  0  0  0  0  0  0  0  0  0  0  0
   -0.0749   -1.9485    0.0000 H   0  0  0  0  0  0  0  0  0  0  0  0
   -0.6578   -2.7709    0.0000 H   0  0  0  0  0  0  0  0  0  0  0  0
   -0.7271   -1.3737    0.0000 H   0  0  0  0  0  0  0  0  0  0  0  0
    0.8735   -2.2667    0.0000 H   0  0  0  0  0  0  0  0  0  0  0  0
   -0.3463    0.0651    0.0000 H   0  0  0  0  0  0  0  0  0  0  0  0
   -0.3680   -1.0171    0.0000 H   0  0  0  0  0  0  0  0  0  0  0  0
    0.5270   -0.8594    0.0000 H   0  0  0  0  0  0  0  0  0  0  0  0
    2.9488    0.0651    0.0000 H   0  0  0  0  0  0  0  0  0  0  0  0
    2.9705   -1.0170    0.0000 H   0  0  0  0  0  0  0  0  0  0  0  0
    1.2626   -1.9805    0.0000 H   0  0  0  0  0  0  0  0  0  0  0  0
    1.3012   -2.6856    0.0000 H   0  0  0  0  0  0  0  0  0  0  0  0
    0.3892   -2.1752    0.0000 H   0  0  0  0  0  0  0  0  0  0  0  0
    1.8951   -3.0570    0.0000 H   0  0  0  0  0  0  0  0  0  0  0  0
    2.6505   -2.1525    0.0000 H   0  0  0  0  0  0  0  0  0  0  0  0
   -0.1827   -0.6375    0.0000 H   0  0  0  0  0  0  0  0  0  0  0  0
    0.0039   -1.5638    0.0000 H   0  0  0  0  0  0  0  0  0  0  0  0
  1  2  1  0  0  0  0
  1 27  1  0  0  0  0
  1 28  1  0  0  0  0
  1 29  1  0  0  0  0
  2  3  1  0  0  0  0
  2 16  1  0  0  0  0
  3  4  1  0  0  0  0
  3 30  1  0  0  0  0
  3 31  1  0  0  0  0
  4  5  2  0  0  0  0
  4 15  1  0  0  0  0
  5  6  1  0  0  0  0
  5 32  1  0  0  0  0
  6  7  2  0  0  0  0
  6 33  1  0  0  0  0
  7  8  1  0  0  0  0
  7 14  1  0  0  0  0
  8  9  2  0  0  0  0
  8 34  1  0  0  0  0
  9 10  1  0  0  0  0
  9 35  1  0  0  0  0
 10 11  2  0  0  0  0
 10 12  1  0  0  0  0
 12 13  1  0  0  0  0
 12 36  1  0  0  0  0
 13 37  1  0  0  0  0
 14 15  2  0  0  0  0
 14 38  1  0  0  0  0
 15 39  1  0  0  0  0
 16 17  1  0  0  0  0
 16 40  1  0  0  0  0
 16 41  1  0  0  0  0
 17 18  1  0  0  0  0
 17 25  1  0  0  0  0
 17 26  1  0  0  0  0
 18 19  1  0  0  0  0
 18 42  1  0  0  0  0
 18 43  1  0  0  0  0
 19 24  1  0  0  0  0
 19 20  1  0  0  0  0
 19 44  1  0  0  0  0
 20 21  1  0  0  0  0
 20 45  1  0  0  0  0
 20 46  1  0  0  0  0
 21 26  1  0  0  0  0
 21 22  1  0  0  0  0
 21 47  1  0  0  0  0
 22 23  1  0  0  0  0
 22 48  1  0  0  0  0
 22 49  1  0  0  0  0
 23 24  1  0  0  0  0
 23 25  1  0  0  0  0
 23 50  1  0  0  0  0
 24 51  1  0  0  0  0
 24 52  1  0  0  0  0
 25 53  1  0  0  0  0
 25 54  1  0  0  0  0
 26 55  1  0  0  0  0
 26 56  1  0  0  0  0
M  END
>  <DRUGBANK_ID>
DB14979

>  <COMMON_NAME>
Martinostat

>  <CAS_NUMBER>
1629052-58-9

>  <UNII>
8JJC99KHGL

$$$$
