
 OpenBabel10282417072D

 53 56  0  0  0  0  0  0  0  0999 V2000
   -0.8374   -0.4033    0.0000 C   0  0  0  0  0  0  0  0  0  0  0  0
   -0.8374   -1.2283    0.0000 C   0  0  0  0  0  0  0  0  0  0  0  0
   -0.1230   -1.6408    0.0000 C   0  0  0  0  0  0  0  0  0  0  0  0
    0.5915   -1.2283    0.0000 C   0  0  0  0  0  0  0  0  0  0  0  0
    0.5915   -0.4033    0.0000 C   0  0  0  0  0  0  0  0  0  0  0  0
   -0.1230    0.0092    0.0000 C   0  0  0  0  0  0  0  0  0  0  0  0
    1.2365    0.1111    0.0000 C   0  0  0  0  0  0  0  0  0  0  0  0
    1.0529    0.9154    0.0000 O   0  0  0  0  0  0  0  0  0  0  0  0
    2.0408   -0.0725    0.0000 N   0  0  0  0  0  0  0  0  0  0  0  0
    2.3988   -0.8158    0.0000 C   0  0  0  0  0  0  0  0  0  0  0  0
    2.0408   -1.5591    0.0000 C   0  0  0  0  0  0  0  0  0  0  0  0
    1.2365   -1.7427    0.0000 O   0  0  0  0  0  0  0  0  0  0  0  0
    3.2238   -0.8158    0.0000 Cl  0  0  0  0  0  0  0  0  0  0  0  0
    2.5552    0.5725    0.0000 C   0  0  0  0  0  0  0  0  0  0  0  0
    2.2538    1.3405    0.0000 C   0  0  0  0  0  0  0  0  0  0  0  0
    2.7682    1.9855    0.0000 C   0  0  0  0  0  0  0  0  0  0  0  0
    2.4668    2.7535    0.0000 C   0  0  0  0  0  0  0  0  0  0  0  0
    2.9812    3.3985    0.0000 N   0  0  0  0  0  0  0  0  0  0  0  0
    2.6798    4.1665    0.0000 C   0  0  0  0  0  0  0  0  0  0  0  0
    3.1941    4.8115    0.0000 C   0  0  0  0  0  0  0  0  0  0  0  0
    4.0099    4.6885    0.0000 C   0  0  0  0  0  0  0  0  0  0  0  0
    4.3113    3.9205    0.0000 C   0  0  0  0  0  0  0  0  0  0  0  0
    3.7969    3.2755    0.0000 C   0  0  0  0  0  0  0  0  0  0  0  0
    4.5243    5.3335    0.0000 C   0  0  0  0  0  0  0  0  0  0  0  0
    4.2229    6.1015    0.0000 C   0  0  0  0  0  0  0  0  0  0  0  0
    4.7373    6.7465    0.0000 C   0  0  0  0  0  0  0  0  0  0  0  0
    5.5531    6.6235    0.0000 C   0  0  0  0  0  0  0  0  0  0  0  0
    5.8545    5.8556    0.0000 C   0  0  0  0  0  0  0  0  0  0  0  0
    5.3401    5.2106    0.0000 N   0  0  0  0  0  0  0  0  0  0  0  0
   -1.7311    0.1127    0.0000 H   0  0  0  0  0  0  0  0  0  0  0  0
   -1.7311   -1.7443    0.0000 H   0  0  0  0  0  0  0  0  0  0  0  0
   -0.1230   -2.6728    0.0000 H   0  0  0  0  0  0  0  0  0  0  0  0
   -0.1230    1.0412    0.0000 H   0  0  0  0  0  0  0  0  0  0  0  0
    2.6842   -2.3660    0.0000 H   0  0  0  0  0  0  0  0  0  0  0  0
    3.6132    0.4130    0.0000 H   0  0  0  0  0  0  0  0  0  0  0  0
    3.2224    1.4090    0.0000 H   0  0  0  0  0  0  0  0  0  0  0  0
    1.1958    1.5000    0.0000 H   0  0  0  0  0  0  0  0  0  0  0  0
    1.8629    2.3365    0.0000 H   0  0  0  0  0  0  0  0  0  0  0  0
    3.8262    1.8260    0.0000 H   0  0  0  0  0  0  0  0  0  0  0  0
    3.4354    2.8220    0.0000 H   0  0  0  0  0  0  0  0  0  0  0  0
    1.4088    2.9130    0.0000 H   0  0  0  0  0  0  0  0  0  0  0  0
    2.0759    3.7495    0.0000 H   0  0  0  0  0  0  0  0  0  0  0  0
    1.6217    4.3260    0.0000 H   0  0  0  0  0  0  0  0  0  0  0  0
    2.2888    5.1625    0.0000 H   0  0  0  0  0  0  0  0  0  0  0  0
    2.8032    5.8075    0.0000 H   0  0  0  0  0  0  0  0  0  0  0  0
    3.8612    5.6480    0.0000 H   0  0  0  0  0  0  0  0  0  0  0  0
    5.3318    3.7667    0.0000 H   0  0  0  0  0  0  0  0  0  0  0  0
    4.1878    2.2794    0.0000 H   0  0  0  0  0  0  0  0  0  0  0  0
    3.1297    2.4390    0.0000 H   0  0  0  0  0  0  0  0  0  0  0  0
    3.2024    6.2553    0.0000 H   0  0  0  0  0  0  0  0  0  0  0  0
    4.3603    7.7072    0.0000 H   0  0  0  0  0  0  0  0  0  0  0  0
    6.1966    7.4303    0.0000 H   0  0  0  0  0  0  0  0  0  0  0  0
    6.8750    5.7018    0.0000 H   0  0  0  0  0  0  0  0  0  0  0  0
  1  2  2  0  0  0  0
  1  6  1  0  0  0  0
  1 30  1  0  0  0  0
  2  3  1  0  0  0  0
  2 31  1  0  0  0  0
  3  4  2  0  0  0  0
  3 32  1  0  0  0  0
  4  5  1  0  0  0  0
  4 12  1  0  0  0  0
  5  6  2  0  0  0  0
  5  7  1  0  0  0  0
  6 33  1  0  0  0  0
  7  8  2  0  0  0  0
  7  9  1  0  0  0  0
  9 10  1  0  0  0  0
  9 14  1  0  0  0  0
 10 11  2  0  0  0  0
 10 13  1  0  0  0  0
 11 12  1  0  0  0  0
 11 34  1  0  0  0  0
 14 15  1  0  0  0  0
 14 35  1  0  0  0  0
 14 36  1  0  0  0  0
 15 16  1  0  0  0  0
 15 37  1  0  0  0  0
 15 38  1  0  0  0  0
 16 17  1  0  0  0  0
 16 39  1  0  0  0  0
 16 40  1  0  0  0  0
 17 18  1  0  0  0  0
 17 41  1  0  0  0  0
 17 42  1  0  0  0  0
 18 19  1  0  0  0  0
 18 23  1  0  0  0  0
 19 20  1  0  0  0  0
 19 43  1  0  0  0  0
 19 44  1  0  0  0  0
 20 21  1  0  0  0  0
 20 45  1  0  0  0  0
 20 46  1  0  0  0  0
 21 22  2  0  0  0  0
 21 24  1  0  0  0  0
 22 23  1  0  0  0  0
 22 47  1  0  0  0  0
 23 48  1  0  0  0  0
 23 49  1  0  0  0  0
 24 25  2  0  0  0  0
 24 29  1  0  0  0  0
 25 26  1  0  0  0  0
 25 50  1  0  0  0  0
 26 27  2  0  0  0  0
 26 51  1  0  0  0  0
 27 28  1  0  0  0  0
 27 52  1  0  0  0  0
 28 29  2  0  0  0  0
 28 53  1  0  0  0  0
M  END
>  <DRUGBANK_ID>
DB12361

>  <COMMON_NAME>
Piclozotan

>  <CAS_NUMBER>
182415-09-4

>  <UNII>
FQE44HS7AH

>  <SYNONYMS>
Piclozotan

$$$$
