
 OpenBabel10282417072D

 48 50  0  0  0  0  0  0  0  0999 V2000
    1.0425    1.5641    0.0000 S   0  0  0  0  0  0  0  0  0  0  0  0
    3.7158    3.4992    0.0000 S   0  0  0  0  0  0  0  0  0  0  0  0
   -1.0486    0.1083    0.0000 O   0  0  0  0  0  0  0  0  0  0  0  0
   -3.1426    0.5246    0.0000 O   0  0  0  0  0  0  0  0  0  0  0  0
   -2.0850    1.9747    0.0000 O   0  0  0  0  0  0  0  0  0  0  0  0
    0.3741    1.0802    0.0000 O   0  0  0  0  0  0  0  0  0  0  0  0
    0.5587    2.2324    0.0000 O   0  0  0  0  0  0  0  0  0  0  0  0
    1.5263    0.8958    0.0000 O   0  0  0  0  0  0  0  0  0  0  0  0
    2.5487    0.8903    0.0000 O   0  0  0  0  0  0  0  0  0  0  0  0
   -2.0900   -0.9294    0.0000 N   0  0  0  0  0  0  0  0  0  0  0  0
   -2.0900   -2.2573    0.0000 N   0  0  0  0  0  0  0  0  0  0  0  0
   -3.5852   -0.7683    0.0000 N   0  0  0  0  0  0  0  0  0  0  0  0
    1.7108    2.0478    0.0000 N   0  0  0  0  0  0  0  0  0  0  0  0
   -4.2997   -2.0058    0.0000 N   0  0  0  0  0  0  0  0  0  0  0  0
   -3.5852   -3.2435    0.0000 N   0  0  0  0  0  0  0  0  0  0  0  0
    3.8854    1.8578    0.0000 N   0  0  0  0  0  0  0  0  0  0  0  0
   -2.3176    0.5231    0.0000 C   0  0  2  0  0  0  0  0  0  0  0  0
   -1.8314    1.1896    0.0000 C   0  0  1  0  0  0  0  0  0  0  0  0
   -1.8337   -0.1451    0.0000 C   0  0  1  0  0  0  0  0  0  0  0  0
   -1.0471    0.9334    0.0000 C   0  0  1  0  0  0  0  0  0  0  0  0
   -0.3788    1.4172    0.0000 C   0  0  0  0  0  0  0  0  0  0  0  0
   -2.8706   -1.1808    0.0000 C   0  0  0  0  0  0  0  0  0  0  0  0
   -1.6085   -1.5934    0.0000 C   0  0  0  0  0  0  0  0  0  0  0  0
   -2.8706   -2.0058    0.0000 C   0  0  0  0  0  0  0  0  0  0  0  0
   -3.5852   -2.4184    0.0000 C   0  0  0  0  0  0  0  0  0  0  0  0
   -4.2997   -1.1808    0.0000 C   0  0  0  0  0  0  0  0  0  0  0  0
    2.4639    1.7110    0.0000 C   0  0  0  0  0  0  0  0  0  0  0  0
    3.1323    2.1949    0.0000 C   0  0  2  0  0  0  0  0  0  0  0  0
    3.0475    3.0155    0.0000 C   0  0  0  0  0  0  0  0  0  0  0  0
    1.6583    2.5567    0.0000 H   0  0  0  0  0  0  0  0  0  0  0  0
   -4.0282   -3.4992    0.0000 H   0  0  0  0  0  0  0  0  0  0  0  0
   -3.1422   -3.4992    0.0000 H   0  0  0  0  0  0  0  0  0  0  0  0
    4.2997    2.1579    0.0000 H   0  0  0  0  0  0  0  0  0  0  0  0
    3.9380    1.3491    0.0000 H   0  0  0  0  0  0  0  0  0  0  0  0
    4.9572    2.9438    0.0000 H   0  0  0  0  0  0  0  0  0  0  0  0
   -3.6261    1.3655    0.0000 H   0  0  0  0  0  0  0  0  0  0  0  0
   -1.4347    2.6944    0.0000 H   0  0  0  0  0  0  0  0  0  0  0  0
   -2.8016    1.4774    0.0000 H   0  0  0  0  0  0  0  0  0  0  0  0
   -2.8879    1.3589    0.0000 H   0  0  0  0  0  0  0  0  0  0  0  0
   -1.0785   -0.9031    0.0000 H   0  0  0  0  0  0  0  0  0  0  0  0
   -0.0946    0.4459    0.0000 H   0  0  0  0  0  0  0  0  0  0  0  0
   -0.4887    2.4815    0.0000 H   0  0  0  0  0  0  0  0  0  0  0  0
   -1.3555    1.8541    0.0000 H   0  0  0  0  0  0  0  0  0  0  0  0
   -0.5765   -1.5934    0.0000 H   0  0  0  0  0  0  0  0  0  0  0  0
   -5.1934   -0.6648    0.0000 H   0  0  0  0  0  0  0  0  0  0  0  0
    3.2422    1.1306    0.0000 H   0  0  0  0  0  0  0  0  0  0  0  0
    2.0708    3.4524    0.0000 H   0  0  0  0  0  0  0  0  0  0  0  0
    2.1807    2.3881    0.0000 H   0  0  0  0  0  0  0  0  0  0  0  0
  1  6  1  0  0  0  0
  1  7  2  0  0  0  0
  1  8  2  0  0  0  0
  1 13  1  0  0  0  0
  2 29  1  0  0  0  0
  2 35  1  0  0  0  0
  3 19  1  0  0  0  0
  3 20  1  0  0  0  0
  4 36  1  0  0  0  0
  5 37  1  0  0  0  0
  6 21  1  0  0  0  0
  9 27  2  0  0  0  0
 10 22  1  0  0  0  0
 10 23  1  0  0  0  0
 11 23  2  0  0  0  0
 11 24  1  0  0  0  0
 12 22  2  0  0  0  0
 12 26  1  0  0  0  0
 13 27  1  0  0  0  0
 13 30  1  0  0  0  0
 14 25  1  0  0  0  0
 14 26  2  0  0  0  0
 15 25  1  0  0  0  0
 15 31  1  0  0  0  0
 15 32  1  0  0  0  0
 16 33  1  0  0  0  0
 16 34  1  0  0  0  0
 17  4  1  0  0  0  0
 17 18  1  0  0  0  0
 17 19  1  0  0  0  0
 17 38  1  1  0  0  0
 18  5  1  0  0  0  0
 18 20  1  0  0  0  0
 18 39  1  1  0  0  0
 19 10  1  0  0  0  0
 19 40  1  6  0  0  0
 20 21  1  0  0  0  0
 20 41  1  6  0  0  0
 21 42  1  0  0  0  0
 21 43  1  0  0  0  0
 22 24  1  0  0  0  0
 23 44  1  0  0  0  0
 24 25  2  0  0  0  0
 26 45  1  0  0  0  0
 27 28  1  0  0  0  0
 28 16  1  0  0  0  0
 28 29  1  0  0  0  0
 28 46  1  1  0  0  0
 29 47  1  0  0  0  0
 29 48  1  0  0  0  0
M  END
>  <DRUGBANK_ID>
DB02684

>  <SECONDARY_ACCESSION_NUMBERS>
EXPT00241

>  <COMMON_NAME>
5'-O-(L-Cysteinylsulfamoyl)adenosine

>  <SYNONYMS>
5'-O-(N-(L-Cysteinyl)-sulfamoyl)adenosine

$$$$
