1611
 OpenBabel10282417072D

 49 50  0  0  1  0  0  0  0  0999 V2000
    8.1347    3.8460    0.0000 Cl  0  0  0  0  0  0  0  0  0  0  0  0
    2.3645   -3.5989    0.0000 O   0  0  0  0  0  0  0  0  0  0  0  0
    3.0790   -1.5364    0.0000 N   0  0  0  0  0  0  0  0  0  0  0  0
    5.2223    1.3511    0.0000 N   0  0  0  0  0  0  0  0  0  0  0  0
    5.2223    3.8261    0.0000 N   0  0  0  0  0  0  0  0  0  0  0  0
    4.5079    0.1136    0.0000 C   0  0  0  0  0  0  0  0  0  0  0  0
    3.7934   -0.2989    0.0000 C   0  0  0  0  0  0  0  0  0  0  0  0
    4.5079    0.9386    0.0000 C   0  0  3  0  0  0  0  0  0  0  0  0
    3.7934   -1.1239    0.0000 C   0  0  0  0  0  0  0  0  0  0  0  0
    3.0790   -2.3614    0.0000 C   0  0  0  0  0  0  0  0  0  0  0  0
    3.7934    1.3511    0.0000 C   0  0  0  0  0  0  0  0  0  0  0  0
    2.3645   -1.1239    0.0000 C   0  0  0  0  0  0  0  0  0  0  0  0
    5.2223    2.1761    0.0000 C   0  0  0  0  0  0  0  0  0  0  0  0
    2.3645   -2.7739    0.0000 C   0  0  0  0  0  0  0  0  0  0  0  0
    1.6500   -1.5364    0.0000 C   0  0  0  0  0  0  0  0  0  0  0  0
    5.9369    2.5886    0.0000 C   0  0  0  0  0  0  0  0  0  0  0  0
    4.5079    2.5886    0.0000 C   0  0  0  0  0  0  0  0  0  0  0  0
    5.9369    3.4136    0.0000 C   0  0  0  0  0  0  0  0  0  0  0  0
    6.6743    2.1475    0.0000 C   0  0  0  0  0  0  0  0  0  0  0  0
    4.5079    3.4136    0.0000 C   0  0  0  0  0  0  0  0  0  0  0  0
    6.6743    3.8546    0.0000 C   0  0  0  0  0  0  0  0  0  0  0  0
    7.4219    2.5714    0.0000 C   0  0  0  0  0  0  0  0  0  0  0  0
    7.4219    3.4308    0.0000 C   0  0  0  0  0  0  0  0  0  0  0  0
    1.5245   -4.0839    0.0000 H   0  0  0  0  0  0  0  0  0  0  0  0
    6.0749    0.8589    0.0000 H   0  0  0  0  0  0  0  0  0  0  0  0
    5.4345   -0.4214    0.0000 H   0  0  0  0  0  0  0  0  0  0  0  0
    5.4345    0.6486    0.0000 H   0  0  0  0  0  0  0  0  0  0  0  0
    2.8668    0.2361    0.0000 H   0  0  0  0  0  0  0  0  0  0  0  0
    2.8668   -0.8339    0.0000 H   0  0  0  0  0  0  0  0  0  0  0  0
    5.4346    0.4036    0.0000 H   0  0  0  0  0  0  0  0  0  0  0  0
    4.7201   -1.6589    0.0000 H   0  0  0  0  0  0  0  0  0  0  0  0
    4.7200   -0.5889    0.0000 H   0  0  0  0  0  0  0  0  0  0  0  0
    4.0056   -2.8964    0.0000 H   0  0  0  0  0  0  0  0  0  0  0  0
    3.0790   -3.4314    0.0000 H   0  0  0  0  0  0  0  0  0  0  0  0
    3.7934    2.4211    0.0000 H   0  0  0  0  0  0  0  0  0  0  0  0
    2.8668    0.8161    0.0000 H   0  0  0  0  0  0  0  0  0  0  0  0
    2.8667    1.8861    0.0000 H   0  0  0  0  0  0  0  0  0  0  0  0
    2.3645   -0.0539    0.0000 H   0  0  0  0  0  0  0  0  0  0  0  0
    1.4379   -0.5889    0.0000 H   0  0  0  0  0  0  0  0  0  0  0  0
    1.4379   -2.2389    0.0000 H   0  0  0  0  0  0  0  0  0  0  0  0
    2.3645   -1.7039    0.0000 H   0  0  0  0  0  0  0  0  0  0  0  0
    0.7234   -1.0014    0.0000 H   0  0  0  0  0  0  0  0  0  0  0  0
    1.6500   -2.6064    0.0000 H   0  0  0  0  0  0  0  0  0  0  0  0
    0.7233   -2.0714    0.0000 H   0  0  0  0  0  0  0  0  0  0  0  0
    3.6142    2.0726    0.0000 H   0  0  0  0  0  0  0  0  0  0  0  0
    6.6623    1.1156    0.0000 H   0  0  0  0  0  0  0  0  0  0  0  0
    3.6142    3.9296    0.0000 H   0  0  0  0  0  0  0  0  0  0  0  0
    6.6623    4.8865    0.0000 H   0  0  0  0  0  0  0  0  0  0  0  0
    8.3136    2.0519    0.0000 H   0  0  0  0  0  0  0  0  0  0  0  0
  1 23  1  0  0  0  0
  2 14  1  0  0  0  0
  2 24  1  0  0  0  0
  3  9  1  0  0  0  0
  3 10  1  0  0  0  0
  3 12  1  0  0  0  0
  4  8  1  0  0  0  0
  4 13  1  0  0  0  0
  4 25  1  0  0  0  0
  5 18  2  0  0  0  0
  5 20  1  0  0  0  0
  6  7  1  0  0  0  0
  6  8  1  0  0  0  0
  6 26  1  0  0  0  0
  6 27  1  0  0  0  0
  7  9  1  0  0  0  0
  7 28  1  0  0  0  0
  7 29  1  0  0  0  0
  8 11  1  0  0  0  0
  8 30  1  0  0  0  0
  9 31  1  0  0  0  0
  9 32  1  0  0  0  0
 10 14  1  0  0  0  0
 10 33  1  0  0  0  0
 10 34  1  0  0  0  0
 11 35  1  0  0  0  0
 11 36  1  0  0  0  0
 11 37  1  0  0  0  0
 12 15  1  0  0  0  0
 12 38  1  0  0  0  0
 12 39  1  0  0  0  0
 13 16  2  0  0  0  0
 13 17  1  0  0  0  0
 14 40  1  0  0  0  0
 14 41  1  0  0  0  0
 15 42  1  0  0  0  0
 15 43  1  0  0  0  0
 15 44  1  0  0  0  0
 16 18  1  0  0  0  0
 16 19  1  0  0  0  0
 17 20  2  0  0  0  0
 17 45  1  0  0  0  0
 18 21  1  0  0  0  0
 19 22  2  0  0  0  0
 19 46  1  0  0  0  0
 20 47  1  0  0  0  0
 21 23  2  0  0  0  0
 21 48  1  0  0  0  0
 22 23  1  0  0  0  0
 22 49  1  0  0  0  0
M  END
>  <DRUGBANK_ID>
DB01611

>  <COMMON_NAME>
Hydroxychloroquine

>  <CAS_NUMBER>
118-42-3

>  <UNII>
4QWG6N8QKH

>  <SYNONYMS>
(±)-hydroxychloroquine; 2-((4-((7-chloro-4-quinolyl)amino)pentyl)ethylamino)ethanol; 2-(N-(4-(7-chlor-4-chinolylamino)-4-methylbutyl)ethylamino)ethanol; 7-chloro-4-(4-(ethyl(2-hydroxyethyl)amino)-1-methylbutylamino)quinoline; 7-chloro-4-(4-(N-ethyl-N-β-hydroxyethylamino)-1-methylbutylamino)quinoline; 7-chloro-4-[4-(N-ethyl-N-β-hydroxyethylamino)-1-methylbutylamino]quinoline; 7-chloro-4-[5-(N-ethyl-N-2-hydroxyethylamino)-2-pentyl]aminoquinoline; Hidroxicloroquina; Hydroxychloroquine; Hydroxychloroquinum; Oxichlorochine; Oxichloroquine

$$$$
