
 OpenBabel10282417072D

 72 74  0  0  1  0  0  0  0  0999 V2000
    3.8072    8.0086    0.0000 C   0  0  0  0  0  0  0  0  0  0  0  0
    4.2167    7.2924    0.0000 C   0  0  0  0  0  0  0  0  0  0  0  0
    3.8011    6.5796    0.0000 C   0  0  0  0  0  0  0  0  0  0  0  0
    4.2106    5.8634    0.0000 C   0  0  0  0  0  0  0  0  0  0  0  0
    3.7950    5.1507    0.0000 C   0  0  0  0  0  0  0  0  0  0  0  0
    4.2045    4.4345    0.0000 C   0  0  0  0  0  0  0  0  0  0  0  0
    3.7889    3.7218    0.0000 C   0  0  0  0  0  0  0  0  0  0  0  0
    3.0762    4.1373    0.0000 C   0  0  0  0  0  0  0  0  0  0  0  0
    4.5016    3.3062    0.0000 C   0  0  0  0  0  0  0  0  0  0  0  0
    3.3734    3.0091    0.0000 C   0  0  0  0  0  0  0  0  0  0  0  0
    3.7828    2.2929    0.0000 C   0  0  0  0  0  0  0  0  0  0  0  0
    3.3673    1.5802    0.0000 C   0  0  0  0  0  0  0  0  0  0  0  0
    3.7767    0.8639    0.0000 O   0  0  0  0  0  0  0  0  0  0  0  0
    3.3612    0.1512    0.0000 C   0  0  0  0  0  0  0  0  0  0  0  0
    2.5423    1.5837    0.0000 C   0  0  0  0  0  0  0  0  0  0  0  0
    2.1267    0.8710    0.0000 C   0  0  1  0  0  0  0  0  0  0  0  0
    2.5362    0.1547    0.0000 C   0  0  0  0  0  0  0  0  0  0  0  0
    2.1206   -0.5580    0.0000 C   0  0  0  0  0  0  0  0  0  0  0  0
    2.5301   -1.2742    0.0000 C   0  0  0  0  0  0  0  0  0  0  0  0
    3.3551   -1.2777    0.0000 O   0  0  0  0  0  0  0  0  0  0  0  0
    1.2957   -0.5544    0.0000 C   0  0  1  0  0  0  0  0  0  0  0  0
    1.2326    0.1301    0.0000 C   0  0  0  0  0  0  0  0  0  0  0  0
    1.3017    0.8745    0.0000 C   0  0  2  0  0  0  0  0  0  0  0  0
    0.8862    0.1618    0.0000 C   0  0  0  0  0  0  0  0  0  0  0  0
    0.1594    0.5522    0.0000 C   0  0  0  0  0  0  0  0  0  0  0  0
    0.1561   -0.2224    0.0000 C   0  0  0  0  0  0  0  0  0  0  0  0
    2.1328    2.2999    0.0000 C   0  0  0  0  0  0  0  0  0  0  0  0
    1.3078    2.3034    0.0000 O   0  0  0  0  0  0  0  0  0  0  0  0
    0.8984    3.0196    0.0000 C   0  0  0  0  0  0  0  0  0  0  0  0
    2.5484    3.0126    0.0000 C   0  0  0  0  0  0  0  0  0  0  0  0
    4.3461    8.9330    0.0000 H   0  0  0  0  0  0  0  0  0  0  0  0
    2.7372    8.0131    0.0000 H   0  0  0  0  0  0  0  0  0  0  0  0
    3.2761    8.9375    0.0000 H   0  0  0  0  0  0  0  0  0  0  0  0
    5.2867    7.2879    0.0000 H   0  0  0  0  0  0  0  0  0  0  0  0
    4.7478    6.3635    0.0000 H   0  0  0  0  0  0  0  0  0  0  0  0
    2.7311    6.5841    0.0000 H   0  0  0  0  0  0  0  0  0  0  0  0
    3.2622    5.6552    0.0000 H   0  0  0  0  0  0  0  0  0  0  0  0
    5.2806    5.8588    0.0000 H   0  0  0  0  0  0  0  0  0  0  0  0
    4.7416    4.9345    0.0000 H   0  0  0  0  0  0  0  0  0  0  0  0
    2.7250    5.1553    0.0000 H   0  0  0  0  0  0  0  0  0  0  0  0
    3.2561    4.2263    0.0000 H   0  0  0  0  0  0  0  0  0  0  0  0
    5.2745    4.4299    0.0000 H   0  0  0  0  0  0  0  0  0  0  0  0
    4.7355    3.5056    0.0000 H   0  0  0  0  0  0  0  0  0  0  0  0
    3.0807    5.2073    0.0000 H   0  0  0  0  0  0  0  0  0  0  0  0
    2.1473    3.6062    0.0000 H   0  0  0  0  0  0  0  0  0  0  0  0
    2.1518    4.6762    0.0000 H   0  0  0  0  0  0  0  0  0  0  0  0
    4.4970    2.2362    0.0000 H   0  0  0  0  0  0  0  0  0  0  0  0
    5.4306    3.8372    0.0000 H   0  0  0  0  0  0  0  0  0  0  0  0
    5.4259    2.7672    0.0000 H   0  0  0  0  0  0  0  0  0  0  0  0
    4.8148    2.2885    0.0000 H   0  0  0  0  0  0  0  0  0  0  0  0
    2.2912    0.1557    0.0000 H   0  0  0  0  0  0  0  0  0  0  0  0
    3.8923   -0.7777    0.0000 H   0  0  0  0  0  0  0  0  0  0  0  0
    2.8223   -0.7732    0.0000 H   0  0  0  0  0  0  0  0  0  0  0  0
    3.1967    0.8664    0.0000 H   0  0  0  0  0  0  0  0  0  0  0  0
    3.5682    0.1503    0.0000 H   0  0  0  0  0  0  0  0  0  0  0  0
    1.9912   -2.1986    0.0000 H   0  0  0  0  0  0  0  0  0  0  0  0
    3.0612   -2.2031    0.0000 H   0  0  0  0  0  0  0  0  0  0  0  0
    3.8365   -2.1198    0.0000 H   0  0  0  0  0  0  0  0  0  0  0  0
    2.0185    0.2346    0.0000 H   0  0  0  0  0  0  0  0  0  0  0  0
    0.1626    0.1304    0.0000 H   0  0  0  0  0  0  0  0  0  0  0  0
    0.5119    0.9210    0.0000 H   0  0  0  0  0  0  0  0  0  0  0  0
    2.0208    0.0822    0.0000 H   0  0  0  0  0  0  0  0  0  0  0  0
    0.1266    1.6217    0.0000 H   0  0  0  0  0  0  0  0  0  0  0  0
   -0.7504   -0.0110    0.0000 H   0  0  0  0  0  0  0  0  0  0  0  0
   -0.7832    1.0585    0.0000 H   0  0  0  0  0  0  0  0  0  0  0  0
   -0.7489    0.3485    0.0000 H   0  0  0  0  0  0  0  0  0  0  0  0
    0.1142   -1.2916    0.0000 H   0  0  0  0  0  0  0  0  0  0  0  0
   -0.7908   -0.7207    0.0000 H   0  0  0  0  0  0  0  0  0  0  0  0
    1.4374    3.9439    0.0000 H   0  0  0  0  0  0  0  0  0  0  0  0
   -0.1716    3.0242    0.0000 H   0  0  0  0  0  0  0  0  0  0  0  0
    0.3674    3.9485    0.0000 H   0  0  0  0  0  0  0  0  0  0  0  0
    2.0362    3.9085    0.0000 H   0  0  0  0  0  0  0  0  0  0  0  0
  1  2  1  0  0  0  0
  1 31  1  0  0  0  0
  1 32  1  0  0  0  0
  1 33  1  0  0  0  0
  2  3  1  0  0  0  0
  2 34  1  0  0  0  0
  2 35  1  0  0  0  0
  3  4  1  0  0  0  0
  3 36  1  0  0  0  0
  3 37  1  0  0  0  0
  4  5  1  0  0  0  0
  4 38  1  0  0  0  0
  4 39  1  0  0  0  0
  5  6  1  0  0  0  0
  5 40  1  0  0  0  0
  5 41  1  0  0  0  0
  6  7  1  0  0  0  0
  6 42  1  0  0  0  0
  6 43  1  0  0  0  0
  7  8  1  0  0  0  0
  7  9  1  0  0  0  0
  7 10  1  0  0  0  0
  8 44  1  0  0  0  0
  8 45  1  0  0  0  0
  8 46  1  0  0  0  0
  9 47  1  0  0  0  0
  9 48  1  0  0  0  0
  9 49  1  0  0  0  0
 10 11  2  0  0  0  0
 10 30  1  0  0  0  0
 11 12  1  0  0  0  0
 11 50  1  0  0  0  0
 12 13  1  0  0  0  0
 12 15  2  0  0  0  0
 13 14  1  0  0  0  0
 14 51  1  0  0  0  0
 14 52  1  0  0  0  0
 14 53  1  0  0  0  0
 15 27  1  0  0  0  0
 16 15  1  0  0  0  0
 16 17  1  0  0  0  0
 16 23  1  0  0  0  0
 16 54  1  6  0  0  0
 17 18  2  0  0  0  0
 17 55  1  0  0  0  0
 18 19  1  0  0  0  0
 19 20  1  0  0  0  0
 19 56  1  0  0  0  0
 19 57  1  0  0  0  0
 20 58  1  0  0  0  0
 21 18  1  0  0  0  0
 21 22  1  0  0  0  0
 21 24  1  0  0  0  0
 21 59  1  1  0  0  0
 22 60  1  0  0  0  0
 22 61  1  0  0  0  0
 23 22  1  0  0  0  0
 23 24  1  0  0  0  0
 23 62  1  1  0  0  0
 24 25  1  0  0  0  0
 24 26  1  0  0  0  0
 25 63  1  0  0  0  0
 25 64  1  0  0  0  0
 25 65  1  0  0  0  0
 26 66  1  0  0  0  0
 26 67  1  0  0  0  0
 26 68  1  0  0  0  0
 27 28  1  0  0  0  0
 27 30  2  0  0  0  0
 28 29  1  0  0  0  0
 29 69  1  0  0  0  0
 29 70  1  0  0  0  0
 29 71  1  0  0  0  0
 30 72  1  0  0  0  0
M  END
>  <DRUGBANK_ID>
DB18076

>  <COMMON_NAME>
Onternabez

>  <CAS_NUMBER>
256934-39-1

>  <UNII>
8I5L034D55

>  <SYNONYMS>
[(1S,2S,5S)-2-[2,6-dimethoxy-4-(2-methyloctan-2-yl)phenyl]-6,6-dimethyl-4-bicyclo[3.1.1]hept-3-enyl]methanol

$$$$
