
 OpenBabel10282417072D

 39 39  0  0  1  0  0  0  0  0999 V2000
    1.4289    4.9500    0.0000 C   0  0  0  0  0  0  0  0  0  0  0  0
    2.1434    4.5375    0.0000 C   0  0  0  0  0  0  0  0  0  0  0  0
    2.8579    4.9500    0.0000 C   0  0  0  0  0  0  0  0  0  0  0  0
    3.5724    4.5375    0.0000 C   0  0  0  0  0  0  0  0  0  0  0  0
    4.2868    4.9500    0.0000 C   0  0  0  0  0  0  0  0  0  0  0  0
    7.8592    4.5375    0.0000 C   0  0  0  0  0  0  0  0  0  0  0  0
    7.1447    4.9500    0.0000 C   0  0  2  0  0  0  0  0  0  0  0  0
    7.1447    5.7750    0.0000 C   0  0  2  0  0  0  0  0  0  0  0  0
    6.4302    6.1875    0.0000 C   0  0  1  0  0  0  0  0  0  0  0  0
    5.7158    5.7750    0.0000 C   0  0  1  0  0  0  0  0  0  0  0  0
    5.7158    4.9500    0.0000 C   0  0  1  0  0  0  0  0  0  0  0  0
    8.5737    4.9500    0.0000 O   0  0  0  0  0  0  0  0  0  0  0  0
    7.8592    6.1875    0.0000 O   0  0  0  0  0  0  0  0  0  0  0  0
    6.4302    7.0125    0.0000 O   0  0  0  0  0  0  0  0  0  0  0  0
    5.0013    6.1875    0.0000 O   0  0  0  0  0  0  0  0  0  0  0  0
    5.0013    4.5375    0.0000 O   0  0  0  0  0  0  0  0  0  0  0  0
    6.4302    4.5375    0.0000 O   0  0  0  0  0  0  0  0  0  0  0  0
    7.6750    5.5820    0.0000 H   0  0  0  0  0  0  0  0  0  0  0  0
    7.9572    5.6317    0.0000 H   0  0  0  0  0  0  0  0  0  0  0  0
    7.1447    6.6000    0.0000 H   0  0  0  0  0  0  0  0  0  0  0  0
    5.7158    6.6000    0.0000 H   0  0  0  0  0  0  0  0  0  0  0  0
    5.0013    5.3625    0.0000 H   0  0  0  0  0  0  0  0  0  0  0  0
    1.4289    6.0200    0.0000 H   0  0  0  0  0  0  0  0  0  0  0  0
    0.5023    4.4150    0.0000 H   0  0  0  0  0  0  0  0  0  0  0  0
    0.5022    5.4850    0.0000 H   0  0  0  0  0  0  0  0  0  0  0  0
    2.1434    3.4675    0.0000 H   0  0  0  0  0  0  0  0  0  0  0  0
    3.0700    4.0025    0.0000 H   0  0  0  0  0  0  0  0  0  0  0  0
    2.8579    6.0200    0.0000 H   0  0  0  0  0  0  0  0  0  0  0  0
    3.7845    5.4850    0.0000 H   0  0  0  0  0  0  0  0  0  0  0  0
    3.5724    3.4675    0.0000 H   0  0  0  0  0  0  0  0  0  0  0  0
    4.4991    4.0025    0.0000 H   0  0  0  0  0  0  0  0  0  0  0  0
    4.2868    6.0200    0.0000 H   0  0  0  0  0  0  0  0  0  0  0  0
    5.2134    5.4850    0.0000 H   0  0  0  0  0  0  0  0  0  0  0  0
    7.8592    3.4675    0.0000 H   0  0  0  0  0  0  0  0  0  0  0  0
    8.7858    4.0025    0.0000 H   0  0  0  0  0  0  0  0  0  0  0  0
    9.4137    4.4650    0.0000 H   0  0  0  0  0  0  0  0  0  0  0  0
    8.6992    5.7025    0.0000 H   0  0  0  0  0  0  0  0  0  0  0  0
    7.2702    7.4975    0.0000 H   0  0  0  0  0  0  0  0  0  0  0  0
    5.0013    7.1575    0.0000 H   0  0  0  0  0  0  0  0  0  0  0  0
  1 23  1  0  0  0  0
  1 24  1  0  0  0  0
  1 25  1  0  0  0  0
  2  1  1  0  0  0  0
  2 26  1  0  0  0  0
  2 27  1  0  0  0  0
  3  2  1  0  0  0  0
  3 28  1  0  0  0  0
  3 29  1  0  0  0  0
  4  3  1  0  0  0  0
  4 30  1  0  0  0  0
  4 31  1  0  0  0  0
  5  4  1  0  0  0  0
  5 32  1  0  0  0  0
  5 33  1  0  0  0  0
  6 34  1  0  0  0  0
  6 35  1  0  0  0  0
  7  6  1  0  0  0  0
  7 18  1  6  0  0  0
  8  7  1  0  0  0  0
  8 13  1  0  0  0  0
  8 19  1  1  0  0  0
  9  8  1  0  0  0  0
  9 14  1  0  0  0  0
  9 20  1  6  0  0  0
 10  9  1  0  0  0  0
 10 15  1  0  0  0  0
 10 21  1  6  0  0  0
 11 10  1  0  0  0  0
 11 16  1  0  0  0  0
 11 22  1  1  0  0  0
 12  6  1  0  0  0  0
 12 36  1  0  0  0  0
 13 37  1  0  0  0  0
 14 38  1  0  0  0  0
 15 39  1  0  0  0  0
 16  5  1  0  0  0  0
 17  7  1  0  0  0  0
 17 11  1  0  0  0  0
M  END
>  <DRUGBANK_ID>
DB02695

>  <SECONDARY_ACCESSION_NUMBERS>
EXPT02444

>  <COMMON_NAME>
O1-Pentyl-Mannose

$$$$
