
 OpenBabel10282417072D

 50 54  0  0  0  0  0  0  0  0999 V2000
    0.2910   -1.5930    0.0000 C   0  0  0  0  0  0  0  0  0  0  0  0
    0.2617   -2.5382    0.0000 O   0  0  0  0  0  0  0  0  0  0  0  0
   -0.5141   -1.0905    0.0000 O   0  0  0  0  0  0  0  0  0  0  0  0
   -1.3636   -1.5330    0.0000 C   0  0  0  0  0  0  0  0  0  0  0  0
    1.1118   -1.1549    0.0000 C   0  0  0  0  0  0  0  0  0  0  0  0
    1.1092    1.3058    0.0000 N   0  0  3  0  0  0  0  0  0  0  0  0
   -0.3566    2.1275    0.0000 C   0  0  0  0  0  0  0  0  0  0  0  0
    1.1393    2.1272    0.0000 C   0  0  0  0  0  0  0  0  0  0  0  0
    0.3824    0.8998    0.0000 C   0  0  1  0  0  0  0  0  0  0  0  0
    0.3824    0.0785    0.0000 C   0  0  0  0  0  0  0  0  0  0  0  0
    1.1131   -0.3299    0.0000 C   0  0  1  0  0  0  0  0  0  0  0  0
    1.8350    0.0785    0.0000 C   0  0  2  0  0  0  0  0  0  0  0  0
    1.8350    0.8998    0.0000 C   0  0  0  0  0  0  0  0  0  0  0  0
   -0.3528    1.3041    0.0000 C   0  0  0  0  0  0  0  0  0  0  0  0
   -1.7732    2.1276    0.0000 C   0  0  0  0  0  0  0  0  0  0  0  0
   -1.7757    1.3063    0.0000 C   0  0  0  0  0  0  0  0  0  0  0  0
   -3.2397    2.1296    0.0000 C   0  0  0  0  0  0  0  0  0  0  0  0
   -3.2409    1.3060    0.0000 C   0  0  0  0  0  0  0  0  0  0  0  0
   -2.5289    0.8799    0.0000 C   0  0  0  0  0  0  0  0  0  0  0  0
   -2.5307    2.5342    0.0000 C   0  0  0  0  0  0  0  0  0  0  0  0
   -1.0536    0.8999    0.0000 N   0  0  0  0  0  0  0  0  0  0  0  0
    0.4298    2.5382    0.0000 C   0  0  0  0  0  0  0  0  0  0  0  0
    0.3653    1.7341    0.0000 H   0  0  0  0  0  0  0  0  0  0  0  0
    1.1092    0.5386    0.0000 H   0  0  0  0  0  0  0  0  0  0  0  0
    2.5283   -0.3299    0.0000 C   0  0  1  0  0  0  0  0  0  0  0  0
    2.5283   -1.1511    0.0000 O   0  0  0  0  0  0  0  0  0  0  0  0
    1.8187   -1.5425    0.0000 C   0  0  0  0  0  0  0  0  0  0  0  0
    1.8187   -0.7383    0.0000 H   0  0  0  0  0  0  0  0  0  0  0  0
    3.2409    0.0650    0.0000 C   0  0  0  0  0  0  0  0  0  0  0  0
   -2.2662   -0.9583    0.0000 H   0  0  0  0  0  0  0  0  0  0  0  0
   -1.4100   -2.6020    0.0000 H   0  0  0  0  0  0  0  0  0  0  0  0
   -2.3126   -2.0273    0.0000 H   0  0  0  0  0  0  0  0  0  0  0  0
    2.0760    2.6445    0.0000 H   0  0  0  0  0  0  0  0  0  0  0  0
    1.1503    3.1971    0.0000 H   0  0  0  0  0  0  0  0  0  0  0  0
   -0.5405   -0.4629    0.0000 H   0  0  0  0  0  0  0  0  0  0  0  0
   -0.5461    0.6103    0.0000 H   0  0  0  0  0  0  0  0  0  0  0  0
    2.7580    1.4411    0.0000 H   0  0  0  0  0  0  0  0  0  0  0  0
    1.8241    1.9697    0.0000 H   0  0  0  0  0  0  0  0  0  0  0  0
   -4.1318    2.6485    0.0000 H   0  0  0  0  0  0  0  0  0  0  0  0
   -4.1390    0.7977    0.0000 H   0  0  0  0  0  0  0  0  0  0  0  0
   -2.5414   -0.1520    0.0000 H   0  0  0  0  0  0  0  0  0  0  0  0
   -2.5441    3.5661    0.0000 H   0  0  0  0  0  0  0  0  0  0  0  0
   -1.0484   -0.0846    0.0000 H   0  0  0  0  0  0  0  0  0  0  0  0
    0.4532    3.6079    0.0000 H   0  0  0  0  0  0  0  0  0  0  0  0
   -0.4792    3.1027    0.0000 H   0  0  0  0  0  0  0  0  0  0  0  0
    2.5424    0.7400    0.0000 H   0  0  0  0  0  0  0  0  0  0  0  0
    1.8200   -2.5745    0.0000 H   0  0  0  0  0  0  0  0  0  0  0  0
    4.1580   -0.4862    0.0000 H   0  0  0  0  0  0  0  0  0  0  0  0
    3.2597    1.1348    0.0000 H   0  0  0  0  0  0  0  0  0  0  0  0
    4.1768    0.5836    0.0000 H   0  0  0  0  0  0  0  0  0  0  0  0
  1  3  1  0  0  0  0
  1  2  2  0  0  0  0
  1  5  1  0  0  0  0
  3  4  1  0  0  0  0
  4 30  1  0  0  0  0
  4 31  1  0  0  0  0
  4 32  1  0  0  0  0
  5 11  1  0  0  0  0
  6  8  1  0  0  0  0
  7 15  1  0  0  0  0
  7 14  2  0  0  0  0
  8 22  1  0  0  0  0
  8 33  1  0  0  0  0
  8 34  1  0  0  0  0
  9  6  1  0  0  0  0
  9 23  1  6  0  0  0
  9 10  1  0  0  0  0
 10 11  1  0  0  0  0
 10 35  1  0  0  0  0
 10 36  1  0  0  0  0
 11 12  1  0  0  0  0
 11 24  1  6  0  0  0
 12 13  1  0  0  0  0
 12 25  1  0  0  0  0
 12 28  1  1  0  0  0
 13  6  1  0  0  0  0
 13 37  1  0  0  0  0
 13 38  1  0  0  0  0
 14  9  1  0  0  0  0
 15 20  2  0  0  0  0
 15 16  1  0  0  0  0
 16 21  1  0  0  0  0
 17 18  2  0  0  0  0
 17 39  1  0  0  0  0
 18 19  1  0  0  0  0
 18 40  1  0  0  0  0
 19 16  2  0  0  0  0
 19 41  1  0  0  0  0
 20 17  1  0  0  0  0
 20 42  1  0  0  0  0
 21 14  1  0  0  0  0
 21 43  1  0  0  0  0
 22  7  1  0  0  0  0
 22 44  1  0  0  0  0
 22 45  1  0  0  0  0
 25 26  1  0  0  0  0
 25 29  1  0  0  0  0
 25 46  1  1  0  0  0
 26 27  1  0  0  0  0
 27  5  2  0  0  0  0
 27 47  1  0  0  0  0
 29 48  1  0  0  0  0
 29 49  1  0  0  0  0
 29 50  1  0  0  0  0
M  END
>  <DRUGBANK_ID>
DB15949

>  <COMMON_NAME>
Raubasine

>  <CAS_NUMBER>
483-04-5

>  <UNII>
4QJL8OX71Z

>  <SYNONYMS>
Ajmalicin; Circolene; delta-Yohimbine; Hydrosarpan

$$$$
