
 OpenBabel10282417072D

 31 32  0  0  0  0  0  0  0  0999 V2000
    0.6594   -1.6499    0.0000 N   0  0  0  0  0  0  0  0  0  0  0  0
   -0.0550   -2.0624    0.0000 C   0  0  0  0  0  0  0  0  0  0  0  0
   -0.7695   -1.6499    0.0000 N   0  0  0  0  0  0  0  0  0  0  0  0
   -0.7695   -0.8250    0.0000 C   0  0  0  0  0  0  0  0  0  0  0  0
   -0.0550   -0.4125    0.0000 N   0  0  0  0  0  0  0  0  0  0  0  0
    0.6593   -0.8249    0.0000 C   0  0  0  0  0  0  0  0  0  0  0  0
   -0.0550   -2.8874    0.0000 N   0  0  0  0  0  0  0  0  0  0  0  0
   -1.4839   -0.4124    0.0000 N   0  0  0  0  0  0  0  0  0  0  0  0
    1.0965   -0.1253    0.0000 C   0  0  0  0  0  0  0  0  0  0  0  0
    1.4839   -0.7962    0.0000 C   0  0  0  0  0  0  0  0  0  0  0  0
   -0.0550    0.4125    0.0000 C   0  0  0  0  0  0  0  0  0  0  0  0
    0.6594    0.8251    0.0000 C   0  0  0  0  0  0  0  0  0  0  0  0
    0.6593    1.6501    0.0000 C   0  0  0  0  0  0  0  0  0  0  0  0
   -0.0550    2.0625    0.0000 C   0  0  0  0  0  0  0  0  0  0  0  0
   -0.7695    1.6500    0.0000 C   0  0  0  0  0  0  0  0  0  0  0  0
   -0.7695    0.8251    0.0000 C   0  0  0  0  0  0  0  0  0  0  0  0
   -0.0550    2.8874    0.0000 Cl  0  0  0  0  0  0  0  0  0  0  0  0
   -0.9076   -3.3796    0.0000 H   0  0  0  0  0  0  0  0  0  0  0  0
    0.7976   -3.3796    0.0000 H   0  0  0  0  0  0  0  0  0  0  0  0
   -1.4838    0.5721    0.0000 H   0  0  0  0  0  0  0  0  0  0  0  0
   -2.3366   -0.9045    0.0000 H   0  0  0  0  0  0  0  0  0  0  0  0
    2.1658   -0.1627    0.0000 H   0  0  0  0  0  0  0  0  0  0  0  0
    0.5942    0.8195    0.0000 H   0  0  0  0  0  0  0  0  0  0  0  0
    1.6636    0.7821    0.0000 H   0  0  0  0  0  0  0  0  0  0  0  0
    2.0508   -1.7037    0.0000 H   0  0  0  0  0  0  0  0  0  0  0  0
    1.9863    0.1485    0.0000 H   0  0  0  0  0  0  0  0  0  0  0  0
    2.5533   -0.7590    0.0000 H   0  0  0  0  0  0  0  0  0  0  0  0
    1.5532    0.3092    0.0000 H   0  0  0  0  0  0  0  0  0  0  0  0
    1.5530    2.1662    0.0000 H   0  0  0  0  0  0  0  0  0  0  0  0
   -1.6632    2.1660    0.0000 H   0  0  0  0  0  0  0  0  0  0  0  0
   -1.6633    0.3091    0.0000 H   0  0  0  0  0  0  0  0  0  0  0  0
  2  1  2  0  0  0  0
  2  3  1  0  0  0  0
  2  7  1  0  0  0  0
  4  3  2  0  0  0  0
  4  8  1  0  0  0  0
  4  5  1  0  0  0  0
  6  1  1  0  0  0  0
  6  5  1  0  0  0  0
  6  9  1  0  0  0  0
  7 18  1  0  0  0  0
  7 19  1  0  0  0  0
  8 20  1  0  0  0  0
  8 21  1  0  0  0  0
  9 22  1  0  0  0  0
  9 23  1  0  0  0  0
  9 24  1  0  0  0  0
 10  6  1  0  0  0  0
 10 25  1  0  0  0  0
 10 26  1  0  0  0  0
 10 27  1  0  0  0  0
 11  5  1  0  0  0  0
 11 16  2  0  0  0  0
 11 12  1  0  0  0  0
 12 13  2  0  0  0  0
 12 28  1  0  0  0  0
 13 14  1  0  0  0  0
 13 29  1  0  0  0  0
 14 17  1  0  0  0  0
 14 15  2  0  0  0  0
 15 16  1  0  0  0  0
 15 30  1  0  0  0  0
 16 31  1  0  0  0  0
M  END
>  <DRUGBANK_ID>
DB14763

>  <COMMON_NAME>
Cycloguanil

>  <CAS_NUMBER>
516-21-2

>  <UNII>
26RM326WVN

>  <SYNONYMS>
CGT; Chlorguanide triazine; Cycloguanilum; Cycloguanyl

$$$$
