
 OpenBabel10282417072D

 58 61  0  0  0  0  0  0  0  0999 V2000
    1.6500   -4.7505    0.0000 F   0  0  0  0  0  0  0  0  0  0  0  0
    4.5741   -4.5894    0.0000 O   0  0  0  0  0  0  0  0  0  0  0  0
    7.4701    0.9997    0.0000 O   0  0  0  0  0  0  0  0  0  0  0  0
    9.0847    1.3399    0.0000 O   0  0  0  0  0  0  0  0  0  0  0  0
    9.3026    4.3065    0.0000 O   0  0  0  0  0  0  0  0  0  0  0  0
    5.3430   -0.9090    0.0000 N   0  0  0  0  0  0  0  0  0  0  0  0
    5.0556   -3.9255    0.0000 N   0  0  0  0  0  0  0  0  0  0  0  0
    4.8304   -2.4773    0.0000 C   0  0  0  0  0  0  0  0  0  0  0  0
    5.6377   -2.3072    0.0000 C   0  0  0  0  0  0  0  0  0  0  0  0
    4.2794   -1.8633    0.0000 C   0  0  0  0  0  0  0  0  0  0  0  0
    5.8939   -1.5230    0.0000 C   0  0  0  0  0  0  0  0  0  0  0  0
    4.5357   -1.0791    0.0000 C   0  0  0  0  0  0  0  0  0  0  0  0
    5.5992   -0.1248    0.0000 C   0  0  0  0  0  0  0  0  0  0  0  0
    4.5741   -3.2615    0.0000 C   0  0  0  0  0  0  0  0  0  0  0  0
    6.4066    0.0454    0.0000 C   0  0  0  0  0  0  0  0  0  0  0  0
    3.7935   -3.5130    0.0000 C   0  0  0  0  0  0  0  0  0  0  0  0
    3.7935   -4.3380    0.0000 C   0  0  0  0  0  0  0  0  0  0  0  0
    6.6628    0.8295    0.0000 C   0  0  0  0  0  0  0  0  0  0  0  0
    3.0790   -3.1005    0.0000 C   0  0  0  0  0  0  0  0  0  0  0  0
    3.0790   -4.7505    0.0000 C   0  0  0  0  0  0  0  0  0  0  0  0
    2.3645   -3.5130    0.0000 C   0  0  0  0  0  0  0  0  0  0  0  0
    2.3645   -4.3380    0.0000 C   0  0  0  0  0  0  0  0  0  0  0  0
    7.7264    1.7838    0.0000 C   0  0  0  0  0  0  0  0  0  0  0  0
    8.5337    1.9539    0.0000 C   0  0  0  0  0  0  0  0  0  0  0  0
    7.1754    2.3979    0.0000 C   0  0  0  0  0  0  0  0  0  0  0  0
    8.7900    2.7382    0.0000 C   0  0  0  0  0  0  0  0  0  0  0  0
    7.4318    3.1821    0.0000 C   0  0  0  0  0  0  0  0  0  0  0  0
    8.2390    3.3523    0.0000 C   0  0  0  0  0  0  0  0  0  0  0  0
    8.4954    4.1364    0.0000 C   0  0  0  0  0  0  0  0  0  0  0  0
    9.8919    1.5101    0.0000 C   0  0  0  0  0  0  0  0  0  0  0  0
    7.9443    4.7505    0.0000 C   0  0  0  0  0  0  0  0  0  0  0  0
    3.7834   -2.6980    0.0000 H   0  0  0  0  0  0  0  0  0  0  0  0
    6.3523   -3.1036    0.0000 H   0  0  0  0  0  0  0  0  0  0  0  0
    6.6847   -2.0865    0.0000 H   0  0  0  0  0  0  0  0  0  0  0  0
    3.2324   -2.0840    0.0000 H   0  0  0  0  0  0  0  0  0  0  0  0
    3.5648   -1.0669    0.0000 H   0  0  0  0  0  0  0  0  0  0  0  0
    6.9409   -1.3023    0.0000 H   0  0  0  0  0  0  0  0  0  0  0  0
    6.6086   -2.3193    0.0000 H   0  0  0  0  0  0  0  0  0  0  0  0
    3.8211   -0.2827    0.0000 H   0  0  0  0  0  0  0  0  0  0  0  0
    3.4887   -1.2997    0.0000 H   0  0  0  0  0  0  0  0  0  0  0  0
    4.8845    0.6715    0.0000 H   0  0  0  0  0  0  0  0  0  0  0  0
    5.9315    0.8923    0.0000 H   0  0  0  0  0  0  0  0  0  0  0  0
    7.1212   -0.7510    0.0000 H   0  0  0  0  0  0  0  0  0  0  0  0
    7.4536    0.2661    0.0000 H   0  0  0  0  0  0  0  0  0  0  0  0
    5.9481    1.6258    0.0000 H   0  0  0  0  0  0  0  0  0  0  0  0
    5.6158    0.6088    0.0000 H   0  0  0  0  0  0  0  0  0  0  0  0
    3.0790   -2.0685    0.0000 H   0  0  0  0  0  0  0  0  0  0  0  0
    3.0790   -5.7825    0.0000 H   0  0  0  0  0  0  0  0  0  0  0  0
    1.4708   -2.9970    0.0000 H   0  0  0  0  0  0  0  0  0  0  0  0
    6.1656    2.1851    0.0000 H   0  0  0  0  0  0  0  0  0  0  0  0
    9.7998    2.9510    0.0000 H   0  0  0  0  0  0  0  0  0  0  0  0
    6.7426    3.9502    0.0000 H   0  0  0  0  0  0  0  0  0  0  0  0
   10.6066    0.7138    0.0000 H   0  0  0  0  0  0  0  0  0  0  0  0
   10.2242    2.5272    0.0000 H   0  0  0  0  0  0  0  0  0  0  0  0
   10.9389    1.7309    0.0000 H   0  0  0  0  0  0  0  0  0  0  0  0
    8.2766    5.7676    0.0000 H   0  0  0  0  0  0  0  0  0  0  0  0
    6.8973    4.5298    0.0000 H   0  0  0  0  0  0  0  0  0  0  0  0
    7.2296    5.5468    0.0000 H   0  0  0  0  0  0  0  0  0  0  0  0
  1 22  1  0  0  0  0
  2  7  1  0  0  0  0
  2 17  1  0  0  0  0
  3 18  1  0  0  0  0
  3 23  1  0  0  0  0
  4 24  1  0  0  0  0
  4 30  1  0  0  0  0
  5 29  2  0  0  0  0
  6 11  1  0  0  0  0
  6 12  1  0  0  0  0
  6 13  1  0  0  0  0
  7 14  2  0  0  0  0
  8  9  1  0  0  0  0
  8 10  1  0  0  0  0
  8 14  1  0  0  0  0
  8 32  1  0  0  0  0
  9 11  1  0  0  0  0
  9 33  1  0  0  0  0
  9 34  1  0  0  0  0
 10 12  1  0  0  0  0
 10 35  1  0  0  0  0
 10 36  1  0  0  0  0
 11 37  1  0  0  0  0
 11 38  1  0  0  0  0
 12 39  1  0  0  0  0
 12 40  1  0  0  0  0
 13 15  1  0  0  0  0
 13 41  1  0  0  0  0
 13 42  1  0  0  0  0
 14 16  1  0  0  0  0
 15 18  1  0  0  0  0
 15 43  1  0  0  0  0
 15 44  1  0  0  0  0
 16 17  2  0  0  0  0
 16 19  1  0  0  0  0
 17 20  1  0  0  0  0
 18 45  1  0  0  0  0
 18 46  1  0  0  0  0
 19 21  2  0  0  0  0
 19 47  1  0  0  0  0
 20 22  2  0  0  0  0
 20 48  1  0  0  0  0
 21 22  1  0  0  0  0
 21 49  1  0  0  0  0
 23 24  2  0  0  0  0
 23 25  1  0  0  0  0
 24 26  1  0  0  0  0
 25 27  2  0  0  0  0
 25 50  1  0  0  0  0
 26 28  2  0  0  0  0
 26 51  1  0  0  0  0
 27 28  1  0  0  0  0
 27 52  1  0  0  0  0
 28 29  1  0  0  0  0
 29 31  1  0  0  0  0
 30 53  1  0  0  0  0
 30 54  1  0  0  0  0
 30 55  1  0  0  0  0
 31 56  1  0  0  0  0
 31 57  1  0  0  0  0
 31 58  1  0  0  0  0
M  END
>  <DRUGBANK_ID>
DB04946

>  <COMMON_NAME>
Iloperidone

>  <CAS_NUMBER>
133454-47-4

>  <UNII>
VPO7KJ050N

>  <SYNONYMS>
1-[4-[3-[4-(6-fluoro-1,2-benzisoxazol-3-yl)-1- piperidinyl]propoxy]-3-methoxyphenyl]ethanone; 4'-(3-(4-(6-fluoro-1,2-benzisoxazol-3-yl)piperidino)propoxy)-3'-methoxyacetophenone; Iloperidona; Ilop√©ridone; Iloperidone; Iloperidonum

$$$$
