
 OpenBabel10282417072D

 40 39  0  0  0  0  0  0  0  0999 V2000
    0.8574   -1.2375    0.0000 C   0  0  0  0  0  0  0  0  0  0  0  0
    0.8574   -0.4125    0.0000 C   0  0  0  0  0  0  0  0  0  0  0  0
    0.1429   -1.6500    0.0000 C   0  0  0  0  0  0  0  0  0  0  0  0
   -0.5716   -0.4125    0.0000 C   0  0  0  0  0  0  0  0  0  0  0  0
    0.1429    0.0000    0.0000 C   0  0  0  0  0  0  0  0  0  0  0  0
    0.1429    0.8250    0.0000 C   0  0  0  0  0  0  0  0  0  0  0  0
   -0.5716   -1.2375    0.0000 N   0  0  0  0  0  0  0  0  0  0  0  0
    0.8574    1.2375    0.0000 O   0  0  0  0  0  0  0  0  0  0  0  0
   -0.5716    1.2375    0.0000 O   0  5  0  0  0  0  0  0  0  0  0  0
    4.1720   -1.0542    0.0000 C   0  0  0  0  0  0  0  0  0  0  0  0
    4.1720   -0.2292    0.0000 C   0  0  0  0  0  0  0  0  0  0  0  0
    3.4576   -1.4667    0.0000 C   0  0  0  0  0  0  0  0  0  0  0  0
    2.7431   -0.2292    0.0000 C   0  0  0  0  0  0  0  0  0  0  0  0
    3.4576    0.1833    0.0000 C   0  0  0  0  0  0  0  0  0  0  0  0
    3.4576    1.0083    0.0000 C   0  0  0  0  0  0  0  0  0  0  0  0
    2.7431   -1.0542    0.0000 N   0  0  0  0  0  0  0  0  0  0  0  0
    2.7431    1.4208    0.0000 O   0  0  0  0  0  0  0  0  0  0  0  0
    4.1720    1.4208    0.0000 O   0  5  0  0  0  0  0  0  0  0  0  0
    0.7145   -5.7750    0.0000 C   0  0  0  0  0  0  0  0  0  0  0  0
    0.7145   -4.9500    0.0000 C   0  0  0  0  0  0  0  0  0  0  0  0
    0.0000   -6.1875    0.0000 C   0  0  0  0  0  0  0  0  0  0  0  0
   -0.7145   -4.9500    0.0000 C   0  0  0  0  0  0  0  0  0  0  0  0
    0.0000   -4.5375    0.0000 C   0  0  0  0  0  0  0  0  0  0  0  0
   -0.0000   -3.7125    0.0000 C   0  0  0  0  0  0  0  0  0  0  0  0
   -0.7145   -5.7750    0.0000 N   0  0  0  0  0  0  0  0  0  0  0  0
   -0.7145   -3.3000    0.0000 O   0  0  0  0  0  0  0  0  0  0  0  0
    0.7145   -3.3000    0.0000 O   0  5  0  0  0  0  0  0  0  0  0  0
   -1.2860    1.6500    0.0000 Al  0  1  0  0  0  0  0  0  0  0  0  0
    1.7511   -1.7535    0.0000 H   0  0  0  0  0  0  0  0  0  0  0  0
    1.7511    0.1035    0.0000 H   0  0  0  0  0  0  0  0  0  0  0  0
    0.1429   -2.6820    0.0000 H   0  0  0  0  0  0  0  0  0  0  0  0
   -1.4653    0.1035    0.0000 H   0  0  0  0  0  0  0  0  0  0  0  0
    5.0657   -1.5702    0.0000 H   0  0  0  0  0  0  0  0  0  0  0  0
    5.0657    0.2868    0.0000 H   0  0  0  0  0  0  0  0  0  0  0  0
    3.4576   -2.4987    0.0000 H   0  0  0  0  0  0  0  0  0  0  0  0
    1.8494    0.2868    0.0000 H   0  0  0  0  0  0  0  0  0  0  0  0
    1.6082   -6.2910    0.0000 H   0  0  0  0  0  0  0  0  0  0  0  0
    1.6082   -4.4340    0.0000 H   0  0  0  0  0  0  0  0  0  0  0  0
    0.0000   -7.2195    0.0000 H   0  0  0  0  0  0  0  0  0  0  0  0
   -1.6082   -4.4340    0.0000 H   0  0  0  0  0  0  0  0  0  0  0  0
  1 29  1  0  0  0  0
  2  1  2  0  0  0  0
  2 30  1  0  0  0  0
  3  1  1  0  0  0  0
  3 31  1  0  0  0  0
  4 32  1  0  0  0  0
  5  2  1  0  0  0  0
  5  4  2  0  0  0  0
  6  5  1  0  0  0  0
  7  3  2  0  0  0  0
  7  4  1  0  0  0  0
  8  6  2  0  0  0  0
  9  6  1  0  0  0  0
 10 33  1  0  0  0  0
 11 10  2  0  0  0  0
 11 34  1  0  0  0  0
 12 10  1  0  0  0  0
 12 35  1  0  0  0  0
 13 36  1  0  0  0  0
 14 11  1  0  0  0  0
 14 13  2  0  0  0  0
 15 14  1  0  0  0  0
 16 12  2  0  0  0  0
 16 13  1  0  0  0  0
 17 15  2  0  0  0  0
 18 15  1  0  0  0  0
 19 37  1  0  0  0  0
 20 19  2  0  0  0  0
 20 38  1  0  0  0  0
 21 19  1  0  0  0  0
 21 39  1  0  0  0  0
 22 40  1  0  0  0  0
 23 20  1  0  0  0  0
 23 22  2  0  0  0  0
 24 23  1  0  0  0  0
 25 21  2  0  0  0  0
 25 22  1  0  0  0  0
 26 24  2  0  0  0  0
 27 24  1  0  0  0  0
M  CHG  4   9  -1  18  -1  27  -1  28   3
M  END
>  <DRUGBANK_ID>
DB13576

>  <COMMON_NAME>
Aluminium nicotinate

>  <CAS_NUMBER>
1976-28-9

>  <UNII>
BDI80PUH9N

>  <SYNONYMS>
Niacin aluminum

$$$$
