
 OpenBabel10282417072D

 41 43  0  0  0  0  0  0  0  0999 V2000
    2.5285   -0.6815    0.0000 Cl  0  0  0  0  0  0  0  0  0  0  0  0
    3.0967   -2.1782    0.0000 Cl  0  0  0  0  0  0  0  0  0  0  0  0
   -0.3125    2.4810    0.0000 O   0  0  0  0  0  0  0  0  0  0  0  0
   -1.7137    1.4395    0.0000 N   0  0  0  0  0  0  0  0  0  0  0  0
   -0.5398    1.6856    0.0000 N   0  0  0  0  0  0  0  0  0  0  0  0
   -1.4108    0.3031    0.0000 C   0  0  1  0  0  0  0  0  0  0  0  0
   -1.8466   -0.5491    0.0000 C   0  0  2  0  0  0  0  0  0  0  0  0
   -0.3693   -0.2650    0.0000 C   0  0  1  0  0  0  0  0  0  0  0  0
   -0.1039   -1.6475    0.0000 C   0  0  2  0  0  0  0  0  0  0  0  0
   -0.7478   -0.8332    0.0000 C   0  0  0  0  0  0  0  0  0  0  0  0
   -2.7557   -0.3031    0.0000 C   0  0  0  0  0  0  0  0  0  0  0  0
   -3.0967   -1.0037    0.0000 C   0  0  0  0  0  0  0  0  0  0  0  0
    0.6915   -1.7611    0.0000 C   0  0  0  0  0  0  0  0  0  0  0  0
   -1.7898    2.2537    0.0000 C   0  0  0  0  0  0  0  0  0  0  0  0
    0.0096    1.0798    0.0000 C   0  0  0  0  0  0  0  0  0  0  0  0
    1.2028   -1.1361    0.0000 C   0  0  0  0  0  0  0  0  0  0  0  0
    0.9756   -2.5191    0.0000 C   0  0  0  0  0  0  0  0  0  0  0  0
    2.0170   -1.2690    0.0000 C   0  0  0  0  0  0  0  0  0  0  0  0
    1.7710   -2.6702    0.0000 C   0  0  0  0  0  0  0  0  0  0  0  0
    2.2824   -2.0452    0.0000 C   0  0  0  0  0  0  0  0  0  0  0  0
    0.4454    2.6702    0.0000 C   0  0  0  0  0  0  0  0  0  0  0  0
   -0.7478    0.8145    0.0000 H   0  0  0  0  0  0  0  0  0  0  0  0
   -1.7898   -1.3258    0.0000 H   0  0  0  0  0  0  0  0  0  0  0  0
    0.4074   -0.3031    0.0000 H   0  0  0  0  0  0  0  0  0  0  0  0
    0.6344   -0.8730    0.0000 H   0  0  0  0  0  0  0  0  0  0  0  0
   -0.1638    0.0634    0.0000 H   0  0  0  0  0  0  0  0  0  0  0  0
    0.3211   -0.7842    0.0000 H   0  0  0  0  0  0  0  0  0  0  0  0
   -3.5011    0.4646    0.0000 H   0  0  0  0  0  0  0  0  0  0  0  0
   -3.8122   -0.4723    0.0000 H   0  0  0  0  0  0  0  0  0  0  0  0
   -3.8917   -1.7199    0.0000 H   0  0  0  0  0  0  0  0  0  0  0  0
   -3.9516   -0.3602    0.0000 H   0  0  0  0  0  0  0  0  0  0  0  0
   -0.9170    2.8726    0.0000 H   0  0  0  0  0  0  0  0  0  0  0  0
   -2.7622    2.7001    0.0000 H   0  0  0  0  0  0  0  0  0  0  0  0
   -1.8894    3.3191    0.0000 H   0  0  0  0  0  0  0  0  0  0  0  0
    1.0142    1.3161    0.0000 H   0  0  0  0  0  0  0  0  0  0  0  0
    0.8376   -0.1709    0.0000 H   0  0  0  0  0  0  0  0  0  0  0  0
    0.3108   -3.3084    0.0000 H   0  0  0  0  0  0  0  0  0  0  0  0
    2.1236   -3.6401    0.0000 H   0  0  0  0  0  0  0  0  0  0  0  0
    1.1889    1.9007    0.0000 H   0  0  0  0  0  0  0  0  0  0  0  0
    0.7400    3.6988    0.0000 H   0  0  0  0  0  0  0  0  0  0  0  0
    1.4835    2.9294    0.0000 H   0  0  0  0  0  0  0  0  0  0  0  0
  1 18  1  0  0  0  0
  2 20  1  0  0  0  0
  3  5  1  0  0  0  0
  3 21  1  0  0  0  0
  4  6  1  0  0  0  0
  4  7  1  0  0  0  0
  4 14  1  0  0  0  0
  5 15  2  0  0  0  0
  6  8  1  0  0  0  0
  6 11  1  0  0  0  0
  6 22  1  6  0  0  0
  7 10  1  0  0  0  0
  7 12  1  0  0  0  0
  7 23  1  1  0  0  0
  8  9  1  0  0  0  0
  8 15  1  0  0  0  0
  8 24  1  1  0  0  0
  9 10  1  0  0  0  0
  9 13  1  0  0  0  0
  9 25  1  6  0  0  0
 10 26  1  0  0  0  0
 10 27  1  0  0  0  0
 11 12  1  0  0  0  0
 11 28  1  0  0  0  0
 11 29  1  0  0  0  0
 12 30  1  0  0  0  0
 12 31  1  0  0  0  0
 13 16  2  0  0  0  0
 13 17  1  0  0  0  0
 14 32  1  0  0  0  0
 14 33  1  0  0  0  0
 14 34  1  0  0  0  0
 15 35  1  0  0  0  0
 16 18  1  0  0  0  0
 16 36  1  0  0  0  0
 17 19  2  0  0  0  0
 17 37  1  0  0  0  0
 18 20  2  0  0  0  0
 19 20  1  0  0  0  0
 19 38  1  0  0  0  0
 21 39  1  0  0  0  0
 21 40  1  0  0  0  0
 21 41  1  0  0  0  0
M  END
>  <DRUGBANK_ID>
DB04857

>  <COMMON_NAME>
Brasofensine

>  <CAS_NUMBER>
171655-91-7

>  <UNII>
1YP2S94RVH

>  <SYNONYMS>
Brasofensine

$$$$
