
 OpenBabel10282417072D

 58 57  0  0  0  0  0  0  0  0999 V2000
    3.6302    4.1434    0.0000 H   0  0  0  0  0  0  0  0  0  0  0  0
    2.8066    4.0954    0.0000 C   0  0  0  0  0  0  0  0  0  0  0  0
    3.2599    4.7847    0.0000 H   0  0  0  0  0  0  0  0  0  0  0  0
    2.0921    4.5079    0.0000 C   0  0  0  0  0  0  0  0  0  0  0  0
    1.3776    4.0954    0.0000 C   0  0  0  0  0  0  0  0  0  0  0  0
    1.3776    3.2704    0.0000 C   0  0  0  0  0  0  0  0  0  0  0  0
    0.6632    2.8579    0.0000 C   0  0  0  0  0  0  0  0  0  0  0  0
   -0.0513    3.2704    0.0000 C   0  0  0  0  0  0  0  0  0  0  0  0
   -0.0513    4.0954    0.0000 C   0  0  0  0  0  0  0  0  0  0  0  0
   -0.7658    4.5079    0.0000 C   0  0  0  0  0  0  0  0  0  0  0  0
    2.8066    3.2704    0.0000 C   0  0  0  0  0  0  0  0  0  0  0  0
    3.5211    2.8579    0.0000 C   0  0  0  0  0  0  0  0  0  0  0  0
    4.2355    3.2704    0.0000 C   0  0  0  0  0  0  0  0  0  0  0  0
    4.9500    2.8579    0.0000 C   0  0  0  0  0  0  0  0  0  0  0  0
    5.6645    3.2704    0.0000 C   0  0  0  0  0  0  0  0  0  0  0  0
    6.3789    2.8579    0.0000 C   0  0  0  0  0  0  0  0  0  0  0  0
    7.0934    3.2704    0.0000 C   0  0  0  0  0  0  0  0  0  0  0  0
    7.8079    2.8579    0.0000 C   0  0  0  0  0  0  0  0  0  0  0  0
    8.5224    3.2704    0.0000 C   0  0  0  0  0  0  0  0  0  0  0  0
    9.2368    2.8579    0.0000 C   0  0  0  0  0  0  0  0  0  0  0  0
    9.2368    2.0329    0.0000 O   0  0  0  0  0  0  0  0  0  0  0  0
    9.9513    3.2704    0.0000 O   0  0  0  0  0  0  0  0  0  0  0  0
   10.6658    2.8579    0.0000 C   0  0  0  0  0  0  0  0  0  0  0  0
   11.3802    3.2704    0.0000 C   0  0  0  0  0  0  0  0  0  0  0  0
    2.0921    5.5399    0.0000 H   0  0  0  0  0  0  0  0  0  0  0  0
    0.4839    4.6114    0.0000 H   0  0  0  0  0  0  0  0  0  0  0  0
    2.3043    2.7354    0.0000 H   0  0  0  0  0  0  0  0  0  0  0  0
    1.3776    2.2004    0.0000 H   0  0  0  0  0  0  0  0  0  0  0  0
    0.6632    1.7879    0.0000 H   0  0  0  0  0  0  0  0  0  0  0  0
   -0.2634    2.3229    0.0000 H   0  0  0  0  0  0  0  0  0  0  0  0
   -0.9779    2.7354    0.0000 H   0  0  0  0  0  0  0  0  0  0  0  0
   -0.9779    3.8054    0.0000 H   0  0  0  0  0  0  0  0  0  0  0  0
    0.8753    4.6304    0.0000 H   0  0  0  0  0  0  0  0  0  0  0  0
   -0.0513    5.1654    0.0000 H   0  0  0  0  0  0  0  0  0  0  0  0
   -0.7658    5.5779    0.0000 H   0  0  0  0  0  0  0  0  0  0  0  0
   -1.6924    3.9729    0.0000 H   0  0  0  0  0  0  0  0  0  0  0  0
   -1.6925    5.0429    0.0000 H   0  0  0  0  0  0  0  0  0  0  0  0
    1.9129    2.7544    0.0000 H   0  0  0  0  0  0  0  0  0  0  0  0
    3.5211    1.8259    0.0000 H   0  0  0  0  0  0  0  0  0  0  0  0
    4.2355    4.3404    0.0000 H   0  0  0  0  0  0  0  0  0  0  0  0
    5.1621    3.8054    0.0000 H   0  0  0  0  0  0  0  0  0  0  0  0
    4.9500    1.7879    0.0000 H   0  0  0  0  0  0  0  0  0  0  0  0
    5.8766    2.3229    0.0000 H   0  0  0  0  0  0  0  0  0  0  0  0
    5.6645    4.3404    0.0000 H   0  0  0  0  0  0  0  0  0  0  0  0
    6.5912    3.8054    0.0000 H   0  0  0  0  0  0  0  0  0  0  0  0
    6.3789    1.7879    0.0000 H   0  0  0  0  0  0  0  0  0  0  0  0
    7.3055    2.3229    0.0000 H   0  0  0  0  0  0  0  0  0  0  0  0
    7.0934    4.3404    0.0000 H   0  0  0  0  0  0  0  0  0  0  0  0
    8.0200    3.8054    0.0000 H   0  0  0  0  0  0  0  0  0  0  0  0
    7.8079    1.7879    0.0000 H   0  0  0  0  0  0  0  0  0  0  0  0
    8.7345    2.3229    0.0000 H   0  0  0  0  0  0  0  0  0  0  0  0
    8.5224    4.3404    0.0000 H   0  0  0  0  0  0  0  0  0  0  0  0
    9.4491    3.8054    0.0000 H   0  0  0  0  0  0  0  0  0  0  0  0
   10.6658    1.7879    0.0000 H   0  0  0  0  0  0  0  0  0  0  0  0
   11.5925    2.3229    0.0000 H   0  0  0  0  0  0  0  0  0  0  0  0
   12.3069    2.7354    0.0000 H   0  0  0  0  0  0  0  0  0  0  0  0
   11.3802    4.3404    0.0000 H   0  0  0  0  0  0  0  0  0  0  0  0
   12.3068    3.8054    0.0000 H   0  0  0  0  0  0  0  0  0  0  0  0
  1  2  1  0  0  0  0
  2  3  1  0  0  0  0
  2  4  1  0  0  0  0
  2 11  1  0  0  0  0
  4  5  2  0  0  0  0
  4 25  1  0  0  0  0
  5  6  1  0  0  0  0
  5 26  1  0  0  0  0
  6  7  1  0  0  0  0
  6 27  1  0  0  0  0
  6 28  1  0  0  0  0
  7  8  1  0  0  0  0
  7 29  1  0  0  0  0
  7 30  1  0  0  0  0
  8  9  1  0  0  0  0
  8 31  1  0  0  0  0
  8 32  1  0  0  0  0
  9 10  1  0  0  0  0
  9 33  1  0  0  0  0
  9 34  1  0  0  0  0
 10 35  1  0  0  0  0
 10 36  1  0  0  0  0
 10 37  1  0  0  0  0
 11 12  2  0  0  0  0
 11 38  1  0  0  0  0
 12 13  1  0  0  0  0
 12 39  1  0  0  0  0
 13 14  1  0  0  0  0
 13 40  1  0  0  0  0
 13 41  1  0  0  0  0
 14 15  1  0  0  0  0
 14 42  1  0  0  0  0
 14 43  1  0  0  0  0
 15 16  1  0  0  0  0
 15 44  1  0  0  0  0
 15 45  1  0  0  0  0
 16 17  1  0  0  0  0
 16 46  1  0  0  0  0
 16 47  1  0  0  0  0
 17 18  1  0  0  0  0
 17 48  1  0  0  0  0
 17 49  1  0  0  0  0
 18 19  1  0  0  0  0
 18 50  1  0  0  0  0
 18 51  1  0  0  0  0
 19 20  1  0  0  0  0
 19 52  1  0  0  0  0
 19 53  1  0  0  0  0
 20 21  2  0  0  0  0
 20 22  1  0  0  0  0
 22 23  1  0  0  0  0
 23 24  1  0  0  0  0
 23 54  1  0  0  0  0
 23 55  1  0  0  0  0
 24 56  1  0  0  0  0
 24 57  1  0  0  0  0
 24 58  1  0  0  0  0
M  ISO  2   1   2   3   2
M  END
>  <DRUGBANK_ID>
DB16949

>  <COMMON_NAME>
Deulinoleate ethyl

>  <CAS_NUMBER>
1404475-07-5

>  <UNII>
24B102R86P

>  <SYNONYMS>
9-cis, 12-cis-11,11-d2-linoleic acid ethyl ester; 9-cis,12-cis-11,11-D2-linoleic acid ethyl ester; 9,12-octadecadienoic-11,11-d2 acid, ethyl ester, (9z,12z)-; Di-deuterated linoleic acid; ethyl (9Z,12Z)-octadeca-9,12-dienoate-11,11-d2

$$$$
