
 OpenBabel10282417072D

 29 31  0  0  0  0  0  0  0  0999 V2000
   -1.1545    0.0052    0.0000 C   0  0  0  0  0  0  0  0  0  0  0  0
   -1.8249   -0.4788    0.0000 C   0  0  0  0  0  0  0  0  0  0  0  0
   -1.5695   -1.2609    0.0000 N   0  0  0  0  0  0  0  0  0  0  0  0
   -0.4894   -0.4788    0.0000 C   0  0  0  0  0  0  0  0  0  0  0  0
   -0.7449   -1.2609    0.0000 C   0  0  0  0  0  0  0  0  0  0  0  0
    0.2820   -0.1861    0.0000 C   0  0  0  0  0  0  0  0  0  0  0  0
   -0.2873   -1.9526    0.0000 C   0  0  0  0  0  0  0  0  0  0  0  0
    1.1013   -1.4312    0.0000 C   0  0  0  0  0  0  0  0  0  0  0  0
    0.9896   -0.6119    0.0000 C   0  0  0  0  0  0  0  0  0  0  0  0
    0.3564    0.6331    0.0000 C   0  0  0  0  0  0  0  0  0  0  0  0
    0.0904    1.9419    0.0000 C   0  0  0  0  0  0  0  0  0  0  0  0
    1.0748    1.0428    0.0000 C   0  0  0  0  0  0  0  0  0  0  0  0
    1.8249    0.7023    0.0000 O   0  0  0  0  0  0  0  0  0  0  0  0
    0.9098    1.8515    0.0000 N   0  0  0  0  0  0  0  0  0  0  0  0
   -0.2500    1.1917    0.0000 N   0  0  0  0  0  0  0  0  0  0  0  0
   -0.3192    2.6602    0.0000 N   0  0  0  0  0  0  0  0  0  0  0  0
    0.5321   -2.0271    0.0000 N   0  0  0  0  0  0  0  0  0  0  0  0
   -0.7129   -2.6602    0.0000 O   0  0  0  0  0  0  0  0  0  0  0  0
   -1.1526    1.0372    0.0000 H   0  0  0  0  0  0  0  0  0  0  0  0
   -2.8061   -0.1591    0.0000 H   0  0  0  0  0  0  0  0  0  0  0  0
   -2.1476   -2.0578    0.0000 H   0  0  0  0  0  0  0  0  0  0  0  0
    2.1192   -1.7612    0.0000 H   0  0  0  0  0  0  0  0  0  0  0  0
    1.9222   -0.7448    0.0000 H   0  0  0  0  0  0  0  0  0  0  0  0
    1.8833   -0.0235    0.0000 H   0  0  0  0  0  0  0  0  0  0  0  0
    1.9637   -1.0545    0.0000 H   0  0  0  0  0  0  0  0  0  0  0  0
   -1.2148    0.9959    0.0000 H   0  0  0  0  0  0  0  0  0  0  0  0
    0.1776    3.5102    0.0000 H   0  0  0  0  0  0  0  0  0  0  0  0
   -1.3037    2.6655    0.0000 H   0  0  0  0  0  0  0  0  0  0  0  0
    0.8778   -2.9489    0.0000 H   0  0  0  0  0  0  0  0  0  0  0  0
  1  2  2  0  0  0  0
  1  4  1  0  0  0  0
  1 19  1  0  0  0  0
  2  3  1  0  0  0  0
  2 20  1  0  0  0  0
  3  5  1  0  0  0  0
  3 21  1  0  0  0  0
  4  6  1  0  0  0  0
  4  5  2  0  0  0  0
  5  7  1  0  0  0  0
  6  9  1  0  0  0  0
  6 10  2  0  0  0  0
  7 17  1  0  0  0  0
  7 18  2  0  0  0  0
  8 17  1  0  0  0  0
  8  9  1  0  0  0  0
  8 22  1  0  0  0  0
  8 23  1  0  0  0  0
  9 24  1  0  0  0  0
  9 25  1  0  0  0  0
 10 15  1  0  0  0  0
 10 12  1  0  0  0  0
 11 15  1  0  0  0  0
 11 14  2  0  0  0  0
 11 16  1  0  0  0  0
 12 14  1  0  0  0  0
 12 13  2  0  0  0  0
 15 26  1  0  0  0  0
 16 27  1  0  0  0  0
 16 28  1  0  0  0  0
 17 29  1  0  0  0  0
M  END
>  <DRUGBANK_ID>
DB04367

>  <SECONDARY_ACCESSION_NUMBERS>
EXPT01124

>  <COMMON_NAME>
Debromohymenialdisine

>  <CAS_NUMBER>
125118-55-0

$$$$
