RRR
 OpenBabel10282417072D

 45 48  0  0  0  0  0  0  0  0999 V2000
    1.8884   -3.2890    0.0000 N   0  0  0  0  0  0  0  0  0  0  0  0
    2.6731   -3.0340    0.0000 C   0  0  0  0  0  0  0  0  0  0  0  0
    2.6731   -2.2090    0.0000 C   0  0  0  0  0  0  0  0  0  0  0  0
    3.3875   -1.7965    0.0000 C   0  0  0  0  0  0  0  0  0  0  0  0
    4.1020   -2.2090    0.0000 N   0  0  0  0  0  0  0  0  0  0  0  0
    4.1020   -3.0340    0.0000 C   0  0  0  0  0  0  0  0  0  0  0  0
    3.3875   -3.4465    0.0000 C   0  0  0  0  0  0  0  0  0  0  0  0
    1.8884   -1.9541    0.0000 C   0  0  0  0  0  0  0  0  0  0  0  0
    1.4035   -2.6215    0.0000 C   0  0  0  0  0  0  0  0  0  0  0  0
    0.5785   -2.6215    0.0000 C   0  0  0  0  0  0  0  0  0  0  0  0
    0.1660   -1.9071    0.0000 N   0  0  0  0  0  0  0  0  0  0  0  0
   -0.6590   -1.9071    0.0000 C   0  0  0  0  0  0  0  0  0  0  0  0
   -1.0715   -2.6215    0.0000 O   0  0  0  0  0  0  0  0  0  0  0  0
   -1.0715   -1.1926    0.0000 C   0  0  0  0  0  0  0  0  0  0  0  0
   -0.6590   -0.4781    0.0000 N   0  0  0  0  0  0  0  0  0  0  0  0
    0.1660   -0.4781    0.0000 C   0  0  0  0  0  0  0  0  0  0  0  0
    0.5785   -1.1926    0.0000 C   0  0  0  0  0  0  0  0  0  0  0  0
   -1.0715    0.2364    0.0000 S   0  0  0  0  0  0  0  0  0  0  0  0
   -0.3570    0.6489    0.0000 O   0  0  0  0  0  0  0  0  0  0  0  0
   -1.7860   -0.1761    0.0000 O   0  0  0  0  0  0  0  0  0  0  0  0
   -1.4840    0.9508    0.0000 C   0  0  0  0  0  0  0  0  0  0  0  0
   -1.0715    1.6653    0.0000 C   0  0  0  0  0  0  0  0  0  0  0  0
   -1.4840    2.3798    0.0000 C   0  0  0  0  0  0  0  0  0  0  0  0
   -2.3045    2.4660    0.0000 C   0  0  0  0  0  0  0  0  0  0  0  0
   -2.4760    3.2730    0.0000 C   0  0  0  0  0  0  0  0  0  0  0  0
   -1.7615    3.6855    0.0000 C   0  0  0  0  0  0  0  0  0  0  0  0
   -1.6753    4.5060    0.0000 Cl  0  0  0  0  0  0  0  0  0  0  0  0
   -1.1484    3.1334    0.0000 S   0  0  0  0  0  0  0  0  0  0  0  0
    1.5842   -4.2253    0.0000 H   0  0  0  0  0  0  0  0  0  0  0  0
    3.3875   -0.7645    0.0000 H   0  0  0  0  0  0  0  0  0  0  0  0
    4.9957   -3.5500    0.0000 H   0  0  0  0  0  0  0  0  0  0  0  0
    3.3875   -4.4785    0.0000 H   0  0  0  0  0  0  0  0  0  0  0  0
    1.5695   -0.9726    0.0000 H   0  0  0  0  0  0  0  0  0  0  0  0
    0.0435   -3.5482    0.0000 H   0  0  0  0  0  0  0  0  0  0  0  0
   -0.4915   -2.6215    0.0000 H   0  0  0  0  0  0  0  0  0  0  0  0
   -2.1415   -1.1926    0.0000 H   0  0  0  0  0  0  0  0  0  0  0  0
   -1.6065   -0.2660    0.0000 H   0  0  0  0  0  0  0  0  0  0  0  0
    0.7010    0.4485    0.0000 H   0  0  0  0  0  0  0  0  0  0  0  0
    1.2360   -0.4781    0.0000 H   0  0  0  0  0  0  0  0  0  0  0  0
    1.6485   -1.1926    0.0000 H   0  0  0  0  0  0  0  0  0  0  0  0
    1.1135   -0.2660    0.0000 H   0  0  0  0  0  0  0  0  0  0  0  0
   -2.5160    0.9508    0.0000 H   0  0  0  0  0  0  0  0  0  0  0  0
   -0.0395    1.6653    0.0000 H   0  0  0  0  0  0  0  0  0  0  0  0
   -2.9950    1.6991    0.0000 H   0  0  0  0  0  0  0  0  0  0  0  0
   -3.4188    3.6928    0.0000 H   0  0  0  0  0  0  0  0  0  0  0  0
  1  2  1  0  0  0  0
  1  9  1  0  0  0  0
  1 29  1  0  0  0  0
  2  3  2  0  0  0  0
  2  7  1  0  0  0  0
  3  4  1  0  0  0  0
  3  8  1  0  0  0  0
  4  5  2  0  0  0  0
  4 30  1  0  0  0  0
  5  6  1  0  0  0  0
  6  7  2  0  0  0  0
  6 31  1  0  0  0  0
  7 32  1  0  0  0  0
  8  9  2  0  0  0  0
  8 33  1  0  0  0  0
  9 10  1  0  0  0  0
 10 11  1  0  0  0  0
 10 34  1  0  0  0  0
 10 35  1  0  0  0  0
 11 12  1  0  0  0  0
 11 17  1  0  0  0  0
 12 13  2  0  0  0  0
 12 14  1  0  0  0  0
 14 15  1  0  0  0  0
 14 36  1  0  0  0  0
 14 37  1  0  0  0  0
 15 16  1  0  0  0  0
 15 18  1  0  0  0  0
 16 17  1  0  0  0  0
 16 38  1  0  0  0  0
 16 39  1  0  0  0  0
 17 40  1  0  0  0  0
 17 41  1  0  0  0  0
 18 19  2  0  0  0  0
 18 20  2  0  0  0  0
 18 21  1  0  0  0  0
 21 22  2  0  0  0  0
 21 42  1  0  0  0  0
 22 23  1  0  0  0  0
 22 43  1  0  0  0  0
 23 24  2  0  0  0  0
 23 28  1  0  0  0  0
 24 25  1  0  0  0  0
 24 44  1  0  0  0  0
 25 26  2  0  0  0  0
 25 45  1  0  0  0  0
 26 27  1  0  0  0  0
 26 28  1  0  0  0  0
M  END
>  <DRUGBANK_ID>
DB08488

>  <COMMON_NAME>
4-{[(E)-2-(5-CHLOROTHIEN-2-YL)VINYL]SULFONYL}-1-(1H-PYRROLO[3,2-C]PYRIDIN-2-YLMETHYL)PIPERAZIN-2-ONE

$$$$
