
 OpenBabel10282417072D

 84 88  0  0  0  0  0  0  0  0999 V2000
    0.6687   -0.3743    0.0000 O   0  0  0  0  0  0  0  0  0  0  0  0
    1.3806    0.8651    0.0000 O   0  0  0  0  0  0  0  0  0  0  0  0
    4.9640   -0.3743    0.0000 O   0  0  0  0  0  0  0  0  0  0  0  0
    4.2400    0.8651    0.0000 O   0  0  0  0  0  0  0  0  0  0  0  0
    4.2400    3.3441    0.0000 O   0  5  0  0  0  0  0  0  0  0  0  0
    4.9640    2.1047    0.0000 O   0  0  0  0  0  0  0  0  0  0  0  0
   -2.2028   -0.3743    0.0000 N   0  0  0  0  0  0  0  0  0  0  0  0
    2.8164   -1.6138    0.0000 N   0  0  0  0  0  0  0  0  0  0  0  0
    4.2400    2.5219    0.0000 N   0  3  0  0  0  0  0  0  0  0  0  0
   -3.6264   -1.1965    0.0000 C   0  0  0  0  0  0  0  0  0  0  0  0
   -2.9146   -1.6138    0.0000 C   0  0  0  0  0  0  0  0  0  0  0  0
   -3.6264   -0.3743    0.0000 C   0  0  0  0  0  0  0  0  0  0  0  0
   -2.2028   -1.1965    0.0000 C   0  0  0  0  0  0  0  0  0  0  0  0
   -2.9146    0.0428    0.0000 C   0  0  0  0  0  0  0  0  0  0  0  0
   -4.2645   -0.6687    0.0000 C   0  0  0  0  0  0  0  0  0  0  0  0
   -4.0437   -1.9084    0.0000 C   0  0  0  0  0  0  0  0  0  0  0  0
   -1.4788    0.0428    0.0000 C   0  0  0  0  0  0  0  0  0  0  0  0
   -0.7670   -0.3743    0.0000 C   0  0  0  0  0  0  0  0  0  0  0  0
   -5.0377   -0.9510    0.0000 C   0  0  0  0  0  0  0  0  0  0  0  0
   -3.6264   -2.6324    0.0000 C   0  0  0  0  0  0  0  0  0  0  0  0
   -4.1172    0.1534    0.0000 C   0  0  0  0  0  0  0  0  0  0  0  0
   -4.8659   -1.9084    0.0000 C   0  0  0  0  0  0  0  0  0  0  0  0
   -0.0552    0.0428    0.0000 C   0  0  0  0  0  0  0  0  0  0  0  0
   -5.6758   -0.4111    0.0000 C   0  0  0  0  0  0  0  0  0  0  0  0
   -4.0437   -3.3441    0.0000 C   0  0  0  0  0  0  0  0  0  0  0  0
   -4.7554    0.6810    0.0000 C   0  0  0  0  0  0  0  0  0  0  0  0
   -5.2831   -2.6324    0.0000 C   0  0  0  0  0  0  0  0  0  0  0  0
   -5.5285    0.3988    0.0000 C   0  0  0  0  0  0  0  0  0  0  0  0
   -4.8659   -3.3441    0.0000 C   0  0  0  0  0  0  0  0  0  0  0  0
    2.8164    0.0428    0.0000 C   0  0  1  0  0  0  0  0  0  0  0  0
    2.0924   -0.3743    0.0000 C   0  0  0  0  0  0  0  0  0  0  0  0
    1.3806    0.0428    0.0000 C   0  0  0  0  0  0  0  0  0  0  0  0
    3.5282   -0.3743    0.0000 C   0  0  0  0  0  0  0  0  0  0  0  0
    2.0924   -1.1965    0.0000 C   0  0  0  0  0  0  0  0  0  0  0  0
    2.8164    0.8651    0.0000 C   0  0  0  0  0  0  0  0  0  0  0  0
    3.5282   -1.1965    0.0000 C   0  0  0  0  0  0  0  0  0  0  0  0
    1.3806   -1.6138    0.0000 C   0  0  0  0  0  0  0  0  0  0  0  0
    3.5282    1.2824    0.0000 C   0  0  0  0  0  0  0  0  0  0  0  0
    2.0924    1.2824    0.0000 C   0  0  0  0  0  0  0  0  0  0  0  0
    4.2400    0.0428    0.0000 C   0  0  0  0  0  0  0  0  0  0  0  0
    4.2400   -1.6138    0.0000 C   0  0  0  0  0  0  0  0  0  0  0  0
    3.5282    2.1047    0.0000 C   0  0  0  0  0  0  0  0  0  0  0  0
    2.0924    2.1047    0.0000 C   0  0  0  0  0  0  0  0  0  0  0  0
    2.8164    2.5219    0.0000 C   0  0  0  0  0  0  0  0  0  0  0  0
    5.6758    0.0428    0.0000 C   0  0  0  0  0  0  0  0  0  0  0  0
    2.8164   -2.1169    0.0000 H   0  0  0  0  0  0  0  0  0  0  0  0
   -2.9146   -2.6838    0.0000 H   0  0  0  0  0  0  0  0  0  0  0  0
   -1.9862   -2.1457    0.0000 H   0  0  0  0  0  0  0  0  0  0  0  0
   -4.5548    0.1577    0.0000 H   0  0  0  0  0  0  0  0  0  0  0  0
   -3.6316    0.6957    0.0000 H   0  0  0  0  0  0  0  0  0  0  0  0
   -1.2744   -1.7284    0.0000 H   0  0  0  0  0  0  0  0  0  0  0  0
   -2.1975   -2.2665    0.0000 H   0  0  0  0  0  0  0  0  0  0  0  0
   -2.9146    1.1128    0.0000 H   0  0  0  0  0  0  0  0  0  0  0  0
   -3.8430    0.5748    0.0000 H   0  0  0  0  0  0  0  0  0  0  0  0
   -1.4749    1.1128    0.0000 H   0  0  0  0  0  0  0  0  0  0  0  0
   -0.5495    0.5731    0.0000 H   0  0  0  0  0  0  0  0  0  0  0  0
   -0.7670   -1.4443    0.0000 H   0  0  0  0  0  0  0  0  0  0  0  0
    0.1614   -0.9063    0.0000 H   0  0  0  0  0  0  0  0  0  0  0  0
   -5.2185   -1.9670    0.0000 H   0  0  0  0  0  0  0  0  0  0  0  0
   -2.5944   -2.6362    0.0000 H   0  0  0  0  0  0  0  0  0  0  0  0
   -3.1482    0.5086    0.0000 H   0  0  0  0  0  0  0  0  0  0  0  0
   -5.3823   -1.0149    0.0000 H   0  0  0  0  0  0  0  0  0  0  0  0
   -0.0591    1.1128    0.0000 H   0  0  0  0  0  0  0  0  0  0  0  0
   -0.9845    0.5731    0.0000 H   0  0  0  0  0  0  0  0  0  0  0  0
   -6.6472   -0.7595    0.0000 H   0  0  0  0  0  0  0  0  0  0  0  0
   -3.5307   -4.2396    0.0000 H   0  0  0  0  0  0  0  0  0  0  0  0
   -4.5804    1.6981    0.0000 H   0  0  0  0  0  0  0  0  0  0  0  0
   -6.3151   -2.6362    0.0000 H   0  0  0  0  0  0  0  0  0  0  0  0
   -6.3176    1.0639    0.0000 H   0  0  0  0  0  0  0  0  0  0  0  0
   -5.3789   -4.2395    0.0000 H   0  0  0  0  0  0  0  0  0  0  0  0
    1.8900    0.5782    0.0000 H   0  0  0  0  0  0  0  0  0  0  0  0
    0.4504   -1.0850    0.0000 H   0  0  0  0  0  0  0  0  0  0  0  0
    1.3877   -2.6838    0.0000 H   0  0  0  0  0  0  0  0  0  0  0  0
    0.4575   -2.1550    0.0000 H   0  0  0  0  0  0  0  0  0  0  0  0
    4.4237    0.7694    0.0000 H   0  0  0  0  0  0  0  0  0  0  0  0
    1.1988    0.7661    0.0000 H   0  0  0  0  0  0  0  0  0  0  0  0
    4.2329   -2.6838    0.0000 H   0  0  0  0  0  0  0  0  0  0  0  0
    5.1702   -1.0850    0.0000 H   0  0  0  0  0  0  0  0  0  0  0  0
    5.1631   -2.1550    0.0000 H   0  0  0  0  0  0  0  0  0  0  0  0
    1.1989    2.6211    0.0000 H   0  0  0  0  0  0  0  0  0  0  0  0
    2.8202    3.5539    0.0000 H   0  0  0  0  0  0  0  0  0  0  0  0
    6.6059   -0.4862    0.0000 H   0  0  0  0  0  0  0  0  0  0  0  0
    5.6689    1.1128    0.0000 H   0  0  0  0  0  0  0  0  0  0  0  0
    6.5990    0.5838    0.0000 H   0  0  0  0  0  0  0  0  0  0  0  0
  1 23  1  0  0  0  0
  1 32  1  0  0  0  0
  2 32  2  0  0  0  0
  3 40  1  0  0  0  0
  3 45  1  0  0  0  0
  4 40  2  0  0  0  0
  5  9  1  0  0  0  0
  6  9  2  0  0  0  0
  7 13  1  0  0  0  0
  7 14  1  0  0  0  0
  7 17  1  0  0  0  0
  8 34  1  0  0  0  0
  8 36  1  0  0  0  0
  8 46  1  0  0  0  0
  9 42  1  0  0  0  0
 10 11  1  0  0  0  0
 10 12  1  0  0  0  0
 10 15  1  0  0  0  0
 10 16  1  0  0  0  0
 11 13  1  0  0  0  0
 11 47  1  0  0  0  0
 11 48  1  0  0  0  0
 12 14  1  0  0  0  0
 12 49  1  0  0  0  0
 12 50  1  0  0  0  0
 13 51  1  0  0  0  0
 13 52  1  0  0  0  0
 14 53  1  0  0  0  0
 14 54  1  0  0  0  0
 15 19  2  0  0  0  0
 15 21  1  0  0  0  0
 16 20  2  0  0  0  0
 16 22  1  0  0  0  0
 17 18  1  0  0  0  0
 17 55  1  0  0  0  0
 17 56  1  0  0  0  0
 18 23  1  0  0  0  0
 18 57  1  0  0  0  0
 18 58  1  0  0  0  0
 19 24  1  0  0  0  0
 19 59  1  0  0  0  0
 20 25  1  0  0  0  0
 20 60  1  0  0  0  0
 21 26  2  0  0  0  0
 21 61  1  0  0  0  0
 22 27  2  0  0  0  0
 22 62  1  0  0  0  0
 23 63  1  0  0  0  0
 23 64  1  0  0  0  0
 24 28  2  0  0  0  0
 24 65  1  0  0  0  0
 25 29  2  0  0  0  0
 25 66  1  0  0  0  0
 26 28  1  0  0  0  0
 26 67  1  0  0  0  0
 27 29  1  0  0  0  0
 27 68  1  0  0  0  0
 28 69  1  0  0  0  0
 29 70  1  0  0  0  0
 30 31  1  0  0  0  0
 30 33  1  0  0  0  0
 30 35  1  0  0  0  0
 30 71  1  1  0  0  0
 31 32  1  0  0  0  0
 31 34  2  0  0  0  0
 33 36  2  0  0  0  0
 33 40  1  0  0  0  0
 34 37  1  0  0  0  0
 35 38  2  0  0  0  0
 35 39  1  0  0  0  0
 36 41  1  0  0  0  0
 37 72  1  0  0  0  0
 37 73  1  0  0  0  0
 37 74  1  0  0  0  0
 38 42  1  0  0  0  0
 38 75  1  0  0  0  0
 39 43  2  0  0  0  0
 39 76  1  0  0  0  0
 41 77  1  0  0  0  0
 41 78  1  0  0  0  0
 41 79  1  0  0  0  0
 42 44  2  0  0  0  0
 43 44  1  0  0  0  0
 43 80  1  0  0  0  0
 44 81  1  0  0  0  0
 45 82  1  0  0  0  0
 45 83  1  0  0  0  0
 45 84  1  0  0  0  0
M  CHG  2   5  -1   9   1
M  END
>  <DRUGBANK_ID>
DB14068

>  <COMMON_NAME>
Dexniguldipine

>  <CAS_NUMBER>
120054-86-6

>  <UNII>
N9DG6ZTC43

>  <SYNONYMS>
(+)-niguldipine; (R)-niguldipine; Dexniguldipine

$$$$
