444704
 OpenBabel10282417072D

 38 41  0  0  1  0  0  0  0  0999 V2000
    3.9904   -0.6931    0.0000 S   0  0  0  0  0  0  0  0  0  0  0  0
    4.6323    2.0232    0.0000 O   0  0  0  0  0  0  0  0  0  0  0  0
    6.4618   -0.2121    0.0000 O   0  0  0  0  0  0  0  0  0  0  0  0
    6.0226    1.1476    0.0000 O   0  0  0  0  0  0  0  0  0  0  0  0
    4.4024    0.5711    0.0000 N   0  0  0  0  0  0  0  0  0  0  0  0
    3.7350    0.0862    0.0000 C   0  0  1  0  0  0  0  0  0  0  0  0
    5.0646    0.0874    0.0000 C   0  0  1  0  0  0  0  0  0  0  0  0
    3.0675    0.5711    0.0000 C   0  0  0  0  0  0  0  0  0  0  0  0
    4.8105   -0.6924    0.0000 C   0  0  0  0  0  0  0  0  0  0  0  0
    4.1475    1.3558    0.0000 C   0  0  0  0  0  0  0  0  0  0  0  0
    3.3225    1.3558    0.0000 C   0  0  0  0  0  0  0  0  0  0  0  0
    3.2736   -0.5977    0.0000 C   0  0  0  0  0  0  0  0  0  0  0  0
    2.2298    0.3795    0.0000 C   0  0  0  0  0  0  0  0  0  0  0  0
    5.8497    0.3410    0.0000 C   0  0  0  0  0  0  0  0  0  0  0  0
    2.7574    2.0031    0.0000 C   0  0  0  0  0  0  0  0  0  0  0  0
    3.6353   -1.3392    0.0000 C   0  0  0  0  0  0  0  0  0  0  0  0
    2.4507   -0.5401    0.0000 C   0  0  0  0  0  0  0  0  0  0  0  0
    1.6500    1.0136    0.0000 C   0  0  0  0  0  0  0  0  0  0  0  0
    1.9155    1.8310    0.0000 C   0  0  0  0  0  0  0  0  0  0  0  0
    3.1740   -2.0232    0.0000 C   0  0  0  0  0  0  0  0  0  0  0  0
    1.9893   -1.2241    0.0000 C   0  0  0  0  0  0  0  0  0  0  0  0
    2.3510   -1.9656    0.0000 C   0  0  0  0  0  0  0  0  0  0  0  0
    7.2468    0.0414    0.0000 C   0  0  0  0  0  0  0  0  0  0  0  0
    5.2342    1.1439    0.0000 H   0  0  0  0  0  0  0  0  0  0  0  0
    5.4394   -1.5580    0.0000 H   0  0  0  0  0  0  0  0  0  0  0  0
    5.8674   -0.5255    0.0000 H   0  0  0  0  0  0  0  0  0  0  0  0
    1.9222   -0.6056    0.0000 H   0  0  0  0  0  0  0  0  0  0  0  0
    3.0876    2.9808    0.0000 H   0  0  0  0  0  0  0  0  0  0  0  0
    4.6648   -1.4111    0.0000 H   0  0  0  0  0  0  0  0  0  0  0  0
    1.9983    0.3875    0.0000 H   0  0  0  0  0  0  0  0  0  0  0  0
    0.6414    0.7951    0.0000 H   0  0  0  0  0  0  0  0  0  0  0  0
    1.2279    2.6006    0.0000 H   0  0  0  0  0  0  0  0  0  0  0  0
    3.6264   -2.9508    0.0000 H   0  0  0  0  0  0  0  0  0  0  0  0
    0.9598   -1.1521    0.0000 H   0  0  0  0  0  0  0  0  0  0  0  0
    1.7739   -2.8212    0.0000 H   0  0  0  0  0  0  0  0  0  0  0  0
    8.0407   -0.6760    0.0000 H   0  0  0  0  0  0  0  0  0  0  0  0
    7.4711    1.0876    0.0000 H   0  0  0  0  0  0  0  0  0  0  0  0
    8.2650    0.3702    0.0000 H   0  0  0  0  0  0  0  0  0  0  0  0
  1  6  1  0  0  0  0
  1  9  1  0  0  0  0
  2 10  2  0  0  0  0
  3 14  1  0  0  0  0
  3 23  1  0  0  0  0
  4 14  2  0  0  0  0
  5  6  1  0  0  0  0
  5  7  1  0  0  0  0
  5 10  1  0  0  0  0
  6  8  1  0  0  0  0
  6 12  1  1  0  0  0
  7  9  1  0  0  0  0
  7 14  1  0  0  0  0
  7 24  1  1  0  0  0
  8 11  1  0  0  0  0
  8 13  2  0  0  0  0
  9 25  1  0  0  0  0
  9 26  1  0  0  0  0
 10 11  1  0  0  0  0
 11 15  2  0  0  0  0
 12 16  2  0  0  0  0
 12 17  1  0  0  0  0
 13 18  1  0  0  0  0
 13 27  1  0  0  0  0
 15 19  1  0  0  0  0
 15 28  1  0  0  0  0
 16 20  1  0  0  0  0
 16 29  1  0  0  0  0
 17 21  2  0  0  0  0
 17 30  1  0  0  0  0
 18 19  2  0  0  0  0
 18 31  1  0  0  0  0
 19 32  1  0  0  0  0
 20 22  2  0  0  0  0
 20 33  1  0  0  0  0
 21 22  1  0  0  0  0
 21 34  1  0  0  0  0
 22 35  1  0  0  0  0
 23 36  1  0  0  0  0
 23 37  1  0  0  0  0
 23 38  1  0  0  0  0
M  END
>  <DRUGBANK_ID>
DB07473

>  <COMMON_NAME>
(R)-(+) 5(9BH)-OXO-9B-PHENYL-2,3-DIHYDROTHIAZOLO[2,3-A]ISOINDOL-3-CARBOXYLIC ACID METHYL ESTER

$$$$
