1090
 OpenBabel10282417072D

 49 50  0  0  0  0  0  0  0  0999 V2000
    6.7861    0.6406    0.0000 N   0  3  0  0  0  0  0  0  0  0  0  0
    2.8696   -1.1032    0.0000 N   0  3  0  0  0  0  0  0  0  0  0  0
    6.1186    1.1255    0.0000 C   0  0  0  0  0  0  0  0  0  0  0  0
    7.4535    1.1255    0.0000 C   0  0  0  0  0  0  0  0  0  0  0  0
    2.0626   -1.2747    0.0000 C   0  0  0  0  0  0  0  0  0  0  0  0
    2.9559   -0.2827    0.0000 C   0  0  0  0  0  0  0  0  0  0  0  0
    6.3011   -0.0269    0.0000 C   0  0  0  0  0  0  0  0  0  0  0  0
    3.6902   -1.1894    0.0000 C   0  0  0  0  0  0  0  0  0  0  0  0
    6.3736    1.9101    0.0000 C   0  0  0  0  0  0  0  0  0  0  0  0
    7.1986    1.9101    0.0000 C   0  0  0  0  0  0  0  0  0  0  0  0
    1.6501   -0.5602    0.0000 C   0  0  0  0  0  0  0  0  0  0  0  0
    2.2021    0.0530    0.0000 C   0  0  0  0  0  0  0  0  0  0  0  0
    5.4806    0.0593    0.0000 C   0  0  0  0  0  0  0  0  0  0  0  0
    4.1751   -0.5219    0.0000 C   0  0  0  0  0  0  0  0  0  0  0  0
    4.9956   -0.6081    0.0000 C   0  0  0  0  0  0  0  0  0  0  0  0
    7.2710   -0.0269    0.0000 C   0  0  0  0  0  0  0  0  0  0  0  0
    3.0412   -1.9101    0.0000 C   0  0  0  0  0  0  0  0  0  0  0  0
    5.1010    0.7949    0.0000 H   0  0  0  0  0  0  0  0  0  0  0  0
    5.3620    1.8821    0.0000 H   0  0  0  0  0  0  0  0  0  0  0  0
    8.4711    0.7948    0.0000 H   0  0  0  0  0  0  0  0  0  0  0  0
    8.2101    1.8821    0.0000 H   0  0  0  0  0  0  0  0  0  0  0  0
    1.6274   -2.2522    0.0000 H   0  0  0  0  0  0  0  0  0  0  0  0
    0.9941   -1.3307    0.0000 H   0  0  0  0  0  0  0  0  0  0  0  0
    3.8826    0.2522    0.0000 H   0  0  0  0  0  0  0  0  0  0  0  0
    2.9000    0.7858    0.0000 H   0  0  0  0  0  0  0  0  0  0  0  0
    6.7363   -1.0044    0.0000 H   0  0  0  0  0  0  0  0  0  0  0  0
    5.6722   -0.8926    0.0000 H   0  0  0  0  0  0  0  0  0  0  0  0
    4.1255   -2.1669    0.0000 H   0  0  0  0  0  0  0  0  0  0  0  0
    4.7543   -1.3012    0.0000 H   0  0  0  0  0  0  0  0  0  0  0  0
    5.7447    2.7758    0.0000 H   0  0  0  0  0  0  0  0  0  0  0  0
    6.8594    2.8635    0.0000 H   0  0  0  0  0  0  0  0  0  0  0  0
    7.8275    2.7757    0.0000 H   0  0  0  0  0  0  0  0  0  0  0  0
    6.7128    2.8635    0.0000 H   0  0  0  0  0  0  0  0  0  0  0  0
    0.5860   -0.4484    0.0000 H   0  0  0  0  0  0  0  0  0  0  0  0
    1.2666    0.4387    0.0000 H   0  0  0  0  0  0  0  0  0  0  0  0
    1.9796    1.0996    0.0000 H   0  0  0  0  0  0  0  0  0  0  0  0
    1.1685    0.3299    0.0000 H   0  0  0  0  0  0  0  0  0  0  0  0
    5.0454    1.0368    0.0000 H   0  0  0  0  0  0  0  0  0  0  0  0
    4.4165    0.1712    0.0000 H   0  0  0  0  0  0  0  0  0  0  0  0
    3.7398    0.4556    0.0000 H   0  0  0  0  0  0  0  0  0  0  0  0
    4.8040    0.3438    0.0000 H   0  0  0  0  0  0  0  0  0  0  0  0
    5.4308   -1.5856    0.0000 H   0  0  0  0  0  0  0  0  0  0  0  0
    4.3667   -1.4738    0.0000 H   0  0  0  0  0  0  0  0  0  0  0  0
    6.8357   -1.0044    0.0000 H   0  0  0  0  0  0  0  0  0  0  0  0
    8.3351    0.0849    0.0000 H   0  0  0  0  0  0  0  0  0  0  0  0
    7.8999   -0.8926    0.0000 H   0  0  0  0  0  0  0  0  0  0  0  0
    2.2461   -2.6262    0.0000 H   0  0  0  0  0  0  0  0  0  0  0  0
    4.0589   -2.2406    0.0000 H   0  0  0  0  0  0  0  0  0  0  0  0
    3.2638   -2.9567    0.0000 H   0  0  0  0  0  0  0  0  0  0  0  0
  1  3  1  0  0  0  0
  1  4  1  0  0  0  0
  1  7  1  0  0  0  0
  1 16  1  0  0  0  0
  2  5  1  0  0  0  0
  2  6  1  0  0  0  0
  2  8  1  0  0  0  0
  2 17  1  0  0  0  0
  3  9  1  0  0  0  0
  3 18  1  0  0  0  0
  3 19  1  0  0  0  0
  4 10  1  0  0  0  0
  4 20  1  0  0  0  0
  4 21  1  0  0  0  0
  5 11  1  0  0  0  0
  5 22  1  0  0  0  0
  5 23  1  0  0  0  0
  6 12  1  0  0  0  0
  6 24  1  0  0  0  0
  6 25  1  0  0  0  0
  7 13  1  0  0  0  0
  7 26  1  0  0  0  0
  7 27  1  0  0  0  0
  8 14  1  0  0  0  0
  8 28  1  0  0  0  0
  8 29  1  0  0  0  0
  9 10  1  0  0  0  0
  9 30  1  0  0  0  0
  9 31  1  0  0  0  0
 10 32  1  0  0  0  0
 10 33  1  0  0  0  0
 11 12  1  0  0  0  0
 11 34  1  0  0  0  0
 11 35  1  0  0  0  0
 12 36  1  0  0  0  0
 12 37  1  0  0  0  0
 13 15  1  0  0  0  0
 13 38  1  0  0  0  0
 13 39  1  0  0  0  0
 14 15  1  0  0  0  0
 14 40  1  0  0  0  0
 14 41  1  0  0  0  0
 15 42  1  0  0  0  0
 15 43  1  0  0  0  0
 16 44  1  0  0  0  0
 16 45  1  0  0  0  0
 16 46  1  0  0  0  0
 17 47  1  0  0  0  0
 17 48  1  0  0  0  0
 17 49  1  0  0  0  0
M  CHG  2   1   1   2   1
M  END
>  <DRUGBANK_ID>
DB01090

>  <SECONDARY_ACCESSION_NUMBERS>
APRD00038

>  <COMMON_NAME>
Pentolinium

>  <CAS_NUMBER>
144-44-5

>  <UNII>
ULL76WPU5X

>  <SYNONYMS>
Pentolineum; Pentolonium; Pentolonum

$$$$
