
 OpenBabel10282417072D

 95100  0  0  0  0  0  0  0  0999 V2000
    0.4983   -3.3004    0.0000 O   0  0  0  0  0  0  0  0  0  0  0  0
    1.2123   -2.8871    0.0000 C   0  0  0  0  0  0  0  0  0  0  0  0
    1.9263   -3.3004    0.0000 C   0  0  0  0  0  0  0  0  0  0  0  0
    2.6402   -2.8871    0.0000 C   0  0  0  0  0  0  0  0  0  0  0  0
    3.3543   -3.3004    0.0000 C   0  0  0  0  0  0  0  0  0  0  0  0
    4.0681   -2.8871    0.0000 C   0  0  0  0  0  0  0  0  0  0  0  0
    4.7822   -3.3004    0.0000 C   0  0  0  0  0  0  0  0  0  0  0  0
   -0.2111   -2.0643    0.0000 C   0  0  0  0  0  0  0  0  0  0  0  0
    0.4472   -1.5643    0.0000 C   0  0  0  0  0  0  0  0  0  0  0  0
    0.1769   -0.7830    0.0000 C   0  0  0  0  0  0  0  0  0  0  0  0
   -0.6521   -0.8001    0.0000 N   0  0  0  0  0  0  0  0  0  0  0  0
   -0.8879   -1.5917    0.0000 C   0  0  0  0  0  0  0  0  0  0  0  0
   -0.2156   -2.8871    0.0000 C   0  0  3  0  0  0  0  0  0  0  0  0
   -0.8127   -3.2838    0.0000 C   0  0  0  0  0  0  0  0  0  0  0  0
    1.2206   -1.5635    0.0000 C   0  0  0  0  0  0  0  0  0  0  0  0
   -0.9454    0.6421    0.0000 N   0  0  0  0  0  0  0  0  0  0  0  0
    0.0658    0.6569    0.0000 C   0  0  0  0  0  0  0  0  0  0  0  0
    0.2830    1.3449    0.0000 C   0  0  2  0  0  0  0  0  0  0  0  0
   -0.3076    1.9414    0.0000 C   0  0  1  0  0  0  0  0  0  0  0  0
   -0.9421    1.4676    0.0000 C   0  0  0  0  0  0  0  0  0  0  0  0
   -2.8430   -2.0665    0.0000 C   0  0  0  0  0  0  0  0  0  0  0  0
   -2.2823   -1.5931    0.0000 C   0  0  0  0  0  0  0  0  0  0  0  0
   -2.5131   -0.8600    0.0000 N   0  0  0  0  0  0  0  0  0  0  0  0
   -3.3421   -0.8443    0.0000 C   0  0  0  0  0  0  0  0  0  0  0  0
   -3.6090   -1.6257    0.0000 C   0  0  0  0  0  0  0  0  0  0  0  0
   -3.3635    0.5748    0.0000 C   0  0  0  0  0  0  0  0  0  0  0  0
   -2.3736    0.5624    0.0000 N   0  0  0  0  0  0  0  0  0  0  0  0
   -2.3600    1.4612    0.0000 C   0  0  0  0  0  0  0  0  0  0  0  0
   -3.0744    1.8820    0.0000 C   0  0  0  0  0  0  0  0  0  0  0  0
   -3.5614    1.2534    0.0000 C   0  0  0  0  0  0  0  0  0  0  0  0
   -1.6526    1.8787    0.0000 C   0  0  0  0  0  0  0  0  0  0  0  0
   -1.6501    2.7054    0.0000 C   0  0  0  0  0  0  0  0  0  0  0  0
   -3.0770    2.7096    0.0000 C   0  0  0  0  0  0  0  0  0  0  0  0
   -3.6685    3.3004    0.0000 O   0  0  0  0  0  0  0  0  0  0  0  0
   -4.4076    1.2547    0.0000 C   0  0  0  0  0  0  0  0  0  0  0  0
   -3.7199   -0.1132    0.0000 C   0  0  0  0  0  0  0  0  0  0  0  0
   -2.8442   -2.7861    0.0000 C   0  0  0  0  0  0  0  0  0  0  0  0
   -4.3155   -1.6293    0.0000 C   0  0  0  0  0  0  0  0  0  0  0  0
   -4.7822   -1.1909    0.0000 C   0  0  0  0  0  0  0  0  0  0  0  0
   -1.4905   -1.8984    0.0000 C   0  0  0  0  0  0  0  0  0  0  0  0
    1.1246    1.3465    0.0000 C   0  0  0  0  0  0  0  0  0  0  0  0
   -0.3158    2.7702    0.0000 C   0  0  0  0  0  0  0  0  0  0  0  0
    0.3981    3.1877    0.0000 C   0  0  0  0  0  0  0  0  0  0  0  0
    1.1121    2.7743    0.0000 C   0  0  0  0  0  0  0  0  0  0  0  0
    0.5024   -0.0605    0.0000 C   0  0  0  0  0  0  0  0  0  0  0  0
    1.1080    1.9477    0.0000 O   0  0  0  0  0  0  0  0  0  0  0  0
    1.8261    3.1919    0.0000 O   0  0  0  0  0  0  0  0  0  0  0  0
    1.2123   -1.8171    0.0000 H   0  0  0  0  0  0  0  0  0  0  0  0
    0.2854   -2.3526    0.0000 H   0  0  0  0  0  0  0  0  0  0  0  0
    1.9263   -4.3704    0.0000 H   0  0  0  0  0  0  0  0  0  0  0  0
    0.9994   -3.8349    0.0000 H   0  0  0  0  0  0  0  0  0  0  0  0
    2.6401   -1.8171    0.0000 H   0  0  0  0  0  0  0  0  0  0  0  0
    3.5671   -2.3526    0.0000 H   0  0  0  0  0  0  0  0  0  0  0  0
    3.3544   -4.3704    0.0000 H   0  0  0  0  0  0  0  0  0  0  0  0
    4.2813   -3.8348    0.0000 H   0  0  0  0  0  0  0  0  0  0  0  0
    4.0680   -1.8171    0.0000 H   0  0  0  0  0  0  0  0  0  0  0  0
    3.1411   -2.3527    0.0000 H   0  0  0  0  0  0  0  0  0  0  0  0
    4.7811   -4.3704    0.0000 H   0  0  0  0  0  0  0  0  0  0  0  0
    5.7094   -2.7664    0.0000 H   0  0  0  0  0  0  0  0  0  0  0  0
    5.7083   -3.8364    0.0000 H   0  0  0  0  0  0  0  0  0  0  0  0
   -1.2487   -0.0169    0.0000 H   0  0  0  0  0  0  0  0  0  0  0  0
   -1.1572   -2.3789    0.0000 H   0  0  0  0  0  0  0  0  0  0  0  0
   -1.7711   -2.8080    0.0000 H   0  0  0  0  0  0  0  0  0  0  0  0
   -0.7455   -4.3517    0.0000 H   0  0  0  0  0  0  0  0  0  0  0  0
   -1.7039   -3.8759    0.0000 H   0  0  0  0  0  0  0  0  0  0  0  0
    1.7566   -2.4896    0.0000 H   0  0  0  0  0  0  0  0  0  0  0  0
    1.7546   -0.6363    0.0000 H   0  0  0  0  0  0  0  0  0  0  0  0
    2.2906   -1.5624    0.0000 H   0  0  0  0  0  0  0  0  0  0  0  0
    0.9164    0.4825    0.0000 H   0  0  0  0  0  0  0  0  0  0  0  0
    0.6799    2.3533    0.0000 H   0  0  0  0  0  0  0  0  0  0  0  0
   -1.6871   -0.1433    0.0000 H   0  0  0  0  0  0  0  0  0  0  0  0
   -0.8912    3.4597    0.0000 H   0  0  0  0  0  0  0  0  0  0  0  0
   -2.0566    3.6952    0.0000 H   0  0  0  0  0  0  0  0  0  0  0  0
   -4.9412    2.1822    0.0000 H   0  0  0  0  0  0  0  0  0  0  0  0
   -4.9440    0.3289    0.0000 H   0  0  0  0  0  0  0  0  0  0  0  0
   -5.4776    1.2563    0.0000 H   0  0  0  0  0  0  0  0  0  0  0  0
   -4.7519   -0.1127    0.0000 H   0  0  0  0  0  0  0  0  0  0  0  0
   -3.7717   -3.3196    0.0000 H   0  0  0  0  0  0  0  0  0  0  0  0
   -1.9184   -3.3226    0.0000 H   0  0  0  0  0  0  0  0  0  0  0  0
   -2.8460   -3.8561    0.0000 H   0  0  0  0  0  0  0  0  0  0  0  0
   -4.7069   -2.6251    0.0000 H   0  0  0  0  0  0  0  0  0  0  0  0
   -5.3595   -1.8639    0.0000 H   0  0  0  0  0  0  0  0  0  0  0  0
   -4.5377   -0.1492    0.0000 H   0  0  0  0  0  0  0  0  0  0  0  0
   -5.8066   -1.5000    0.0000 H   0  0  0  0  0  0  0  0  0  0  0  0
   -5.5621   -0.4583    0.0000 H   0  0  0  0  0  0  0  0  0  0  0  0
   -1.4375   -2.9290    0.0000 H   0  0  0  0  0  0  0  0  0  0  0  0
    1.6614    0.4209    0.0000 H   0  0  0  0  0  0  0  0  0  0  0  0
    1.6578    2.2742    0.0000 H   0  0  0  0  0  0  0  0  0  0  0  0
    2.1946    1.3485    0.0000 H   0  0  0  0  0  0  0  0  0  0  0  0
   -1.2466    3.2980    0.0000 H   0  0  0  0  0  0  0  0  0  0  0  0
   -0.3229    3.8402    0.0000 H   0  0  0  0  0  0  0  0  0  0  0  0
    0.3958    4.2577    0.0000 H   0  0  0  0  0  0  0  0  0  0  0  0
    1.3245    3.7231    0.0000 H   0  0  0  0  0  0  0  0  0  0  0  0
    1.5324    0.0031    0.0000 H   0  0  0  0  0  0  0  0  0  0  0  0
    2.6402    2.7280    0.0000 H   0  0  0  0  0  0  0  0  0  0  0  0
  1  2  1  0  0  0  0
  2  3  1  0  0  0  0
  2 48  1  0  0  0  0
  2 49  1  0  0  0  0
  3  4  1  0  0  0  0
  3 50  1  0  0  0  0
  3 51  1  0  0  0  0
  4  5  1  0  0  0  0
  4 52  1  0  0  0  0
  4 53  1  0  0  0  0
  5  6  1  0  0  0  0
  5 54  1  0  0  0  0
  5 55  1  0  0  0  0
  6  7  1  0  0  0  0
  6 56  1  0  0  0  0
  6 57  1  0  0  0  0
  7 58  1  0  0  0  0
  7 59  1  0  0  0  0
  7 60  1  0  0  0  0
  8 13  1  0  0  0  0
  8  9  1  0  0  0  0
  9 15  1  0  0  0  0
  9 10  2  0  0  0  0
 10 11  1  0  0  0  0
 10 45  1  0  0  0  0
 11 12  1  0  0  0  0
 11 61  1  0  0  0  0
 12  8  2  0  0  0  0
 13 14  1  0  0  0  0
 13  1  1  0  0  0  0
 13 62  1  0  0  0  0
 14 63  1  0  0  0  0
 14 64  1  0  0  0  0
 14 65  1  0  0  0  0
 15 66  1  0  0  0  0
 15 67  1  0  0  0  0
 15 68  1  0  0  0  0
 16 17  1  0  0  0  0
 17 18  1  0  0  0  0
 17 45  2  0  0  0  0
 18 19  1  0  0  0  0
 18 41  1  0  0  0  0
 18 69  1  1  0  0  0
 19 20  1  0  0  0  0
 19 42  1  0  0  0  0
 19 70  1  6  0  0  0
 20 16  2  0  0  0  0
 21 37  1  0  0  0  0
 21 22  1  0  0  0  0
 22 23  1  0  0  0  0
 22 40  2  0  0  0  0
 23 24  2  0  0  0  0
 24 25  1  0  0  0  0
 25 21  2  0  0  0  0
 25 38  1  0  0  0  0
 26 27  1  0  0  0  0
 26 36  2  0  0  0  0
 27 28  1  0  0  0  0
 27 71  1  0  0  0  0
 28 29  1  0  0  0  0
 28 31  2  0  0  0  0
 29 30  2  0  0  0  0
 30 26  1  0  0  0  0
 30 35  1  0  0  0  0
 31 32  1  0  0  0  0
 31 20  1  0  0  0  0
 32 33  1  0  0  0  0
 32 72  1  0  0  0  0
 32 73  1  0  0  0  0
 33 29  1  0  0  0  0
 33 34  2  0  0  0  0
 35 74  1  0  0  0  0
 35 75  1  0  0  0  0
 35 76  1  0  0  0  0
 36 24  1  0  0  0  0
 36 77  1  0  0  0  0
 37 78  1  0  0  0  0
 37 79  1  0  0  0  0
 37 80  1  0  0  0  0
 38 39  1  0  0  0  0
 38 81  1  0  0  0  0
 38 82  1  0  0  0  0
 39 83  1  0  0  0  0
 39 84  1  0  0  0  0
 39 85  1  0  0  0  0
 40 12  1  0  0  0  0
 40 86  1  0  0  0  0
 41 87  1  0  0  0  0
 41 88  1  0  0  0  0
 41 89  1  0  0  0  0
 42 43  1  0  0  0  0
 42 90  1  0  0  0  0
 42 91  1  0  0  0  0
 43 44  1  0  0  0  0
 43 92  1  0  0  0  0
 43 93  1  0  0  0  0
 44 46  2  0  0  0  0
 44 47  1  0  0  0  0
 45 94  1  0  0  0  0
 47 95  1  0  0  0  0
M  END
>  <DRUGBANK_ID>
DB15243

>  <COMMON_NAME>
2-(1-Hexyloxyethyl)-2-devinyl pyropheophorbide-a

>  <CAS_NUMBER>
149402-51-7

>  <UNII>
DOB7Y3RSX0

>  <SYNONYMS>
3-PHORBINEPROPANOIC ACID, 14-ETHYL-9-(1-(HEXYLOXY)ETHYL)-4,8,13,18-TETRAMETHYL-20-OXO-, (3S,4S)-; HPPH; PHOTOCHLOR

$$$$
