
 OpenBabel10282417072D

 35 28  0  0  0  0  0  0  0  0999 V2000
    2.8439   -0.2458    0.0000 O   0  0  0  0  0  0  0  0  0  0  0  0
   -2.7101   -3.2211    0.0000 O   0  5  0  0  0  0  0  0  0  0  0  0
   -1.9966   -3.6335    0.0000 C   0  0  0  0  0  0  0  0  0  0  0  0
   -1.2734   -3.2210    0.0000 C   0  0  0  0  0  0  0  0  0  0  0  0
   -1.2734   -2.3960    0.0000 C   0  0  1  0  0  0  0  0  0  0  0  0
   -0.5597   -1.9835    0.0000 C   0  0  0  0  0  0  0  0  0  0  0  0
    0.1540   -2.3960    0.0000 O   0  5  0  0  0  0  0  0  0  0  0  0
   -0.5597   -1.1585    0.0000 O   0  0  0  0  0  0  0  0  0  0  0  0
   -1.9871   -1.9835    0.0000 N   0  0  0  0  0  0  0  0  0  0  0  0
   -1.9966   -4.4585    0.0000 O   0  0  0  0  0  0  0  0  0  0  0  0
    2.4494   -2.4317    0.0000 K   0  3  0  0  0  0  0  0  0  0  0  0
    2.6230    1.6877    0.0000 H   0  3  0  0  0  0  0  0  0  0  0  0
   -2.7993    1.0604    0.0000 O   0  5  0  0  0  0  0  0  0  0  0  0
   -2.0857    0.6480    0.0000 C   0  0  0  0  0  0  0  0  0  0  0  0
   -1.3626    1.0605    0.0000 C   0  0  0  0  0  0  0  0  0  0  0  0
   -1.3626    1.8855    0.0000 C   0  0  1  0  0  0  0  0  0  0  0  0
   -0.6489    2.2980    0.0000 C   0  0  0  0  0  0  0  0  0  0  0  0
    0.0648    1.8855    0.0000 O   0  5  0  0  0  0  0  0  0  0  0  0
   -0.6489    3.1230    0.0000 O   0  0  0  0  0  0  0  0  0  0  0  0
   -2.0763    2.2980    0.0000 N   0  0  0  0  0  0  0  0  0  0  0  0
   -2.0857   -0.1769    0.0000 O   0  0  0  0  0  0  0  0  0  0  0  0
    3.6487    1.6431    0.0000 H   0  3  0  0  0  0  0  0  0  0  0  0
    3.7651   -2.5210    0.0000 K   0  3  0  0  0  0  0  0  0  0  0  0
    3.8139   -0.2458    0.0000 H   0  0  0  0  0  0  0  0  0  0  0  0
    2.3589    0.5942    0.0000 H   0  0  0  0  0  0  0  0  0  0  0  0
   -0.3482   -3.7584    0.0000 H   0  0  0  0  0  0  0  0  0  0  0  0
   -0.3461   -2.6872    0.0000 H   0  0  0  0  0  0  0  0  0  0  0  0
   -2.2002   -2.9308    0.0000 H   0  0  0  0  0  0  0  0  0  0  0  0
   -1.9866   -0.9635    0.0000 H   0  0  0  0  0  0  0  0  0  0  0  0
   -2.8707   -2.4931    0.0000 H   0  0  0  0  0  0  0  0  0  0  0  0
   -0.4373    0.5231    0.0000 H   0  0  0  0  0  0  0  0  0  0  0  0
   -0.4353    1.5943    0.0000 H   0  0  0  0  0  0  0  0  0  0  0  0
   -2.2894    1.3507    0.0000 H   0  0  0  0  0  0  0  0  0  0  0  0
   -2.0758    3.3180    0.0000 H   0  0  0  0  0  0  0  0  0  0  0  0
   -2.9599    1.7884    0.0000 H   0  0  0  0  0  0  0  0  0  0  0  0
  1 24  1  0  0  0  0
  1 25  1  0  0  0  0
  3  2  1  0  0  0  0
  3 10  2  0  0  0  0
  4  3  1  0  0  0  0
  4 26  1  0  0  0  0
  4 27  1  0  0  0  0
  5  4  1  0  0  0  0
  5  9  1  0  0  0  0
  5 28  1  1  0  0  0
  6  5  1  0  0  0  0
  6  8  2  0  0  0  0
  7  6  1  0  0  0  0
  9 29  1  0  0  0  0
  9 30  1  0  0  0  0
 14 13  1  0  0  0  0
 14 21  2  0  0  0  0
 15 14  1  0  0  0  0
 15 31  1  0  0  0  0
 15 32  1  0  0  0  0
 16 15  1  0  0  0  0
 16 20  1  0  0  0  0
 16 33  1  1  0  0  0
 17 16  1  0  0  0  0
 17 19  2  0  0  0  0
 18 17  1  0  0  0  0
 20 34  1  0  0  0  0
 20 35  1  0  0  0  0
M  CHG  8   2  -1   7  -1  11   1  12   1  13  -1  18  -1  22   1  23   1
M  END
>  <DRUGBANK_ID>
DB15819

>  <COMMON_NAME>
Potassium aspartate

>  <CAS_NUMBER>
7259-25-8

>  <UNII>
OC4598NZEQ

>  <SYNONYMS>
Aspartate potassium; L-aspartate potassium; Monopotassium aspartate hemihydrate; Potassium aspartate; Potassium aspartate hemihydrate; Potassium hydrogen aspartate hemihydrate

$$$$
