QIG
 OpenBabel10282417072D

 43 47  0  0  0  0  0  0  0  0999 V2000
   -2.4696   -3.2042    0.0000 C   0  0  0  0  0  0  0  0  0  0  0  0
   -2.4696   -2.3792    0.0000 C   0  0  0  0  0  0  0  0  0  0  0  0
   -3.1841   -1.9667    0.0000 C   0  0  0  0  0  0  0  0  0  0  0  0
   -3.1841   -1.1417    0.0000 C   0  0  0  0  0  0  0  0  0  0  0  0
   -2.4696   -0.7292    0.0000 C   0  0  0  0  0  0  0  0  0  0  0  0
   -1.7552   -1.1417    0.0000 C   0  0  0  0  0  0  0  0  0  0  0  0
   -1.7552   -1.9667    0.0000 N   0  0  0  0  0  0  0  0  0  0  0  0
   -1.0407   -0.7292    0.0000 C   0  0  0  0  0  0  0  0  0  0  0  0
   -1.0407    0.0958    0.0000 N   0  0  0  0  0  0  0  0  0  0  0  0
   -0.3262    0.5083    0.0000 C   0  0  0  0  0  0  0  0  0  0  0  0
   -0.3262    1.3333    0.0000 N   0  0  0  0  0  0  0  0  0  0  0  0
    0.3882    1.7458    0.0000 C   0  0  0  0  0  0  0  0  0  0  0  0
    0.3882    2.5708    0.0000 C   0  0  0  0  0  0  0  0  0  0  0  0
    1.1027    2.9833    0.0000 C   0  0  0  0  0  0  0  0  0  0  0  0
    1.8172    2.5708    0.0000 C   0  0  0  0  0  0  0  0  0  0  0  0
    2.6018    2.8257    0.0000 N   0  0  0  0  0  0  0  0  0  0  0  0
    3.0867    2.1583    0.0000 N   0  0  0  0  0  0  0  0  0  0  0  0
    2.6018    1.4908    0.0000 C   0  0  0  0  0  0  0  0  0  0  0  0
    1.8172    1.7458    0.0000 C   0  0  0  0  0  0  0  0  0  0  0  0
    1.1027    1.3333    0.0000 C   0  0  0  0  0  0  0  0  0  0  0  0
    0.3882    0.0958    0.0000 C   0  0  0  0  0  0  0  0  0  0  0  0
    1.1027    0.5083    0.0000 C   0  0  0  0  0  0  0  0  0  0  0  0
    1.8172    0.0958    0.0000 C   0  0  0  0  0  0  0  0  0  0  0  0
    1.8172   -0.7292    0.0000 C   0  0  0  0  0  0  0  0  0  0  0  0
    1.1027   -1.1417    0.0000 C   0  0  0  0  0  0  0  0  0  0  0  0
    0.3882   -0.7292    0.0000 C   0  0  0  0  0  0  0  0  0  0  0  0
   -0.3262   -1.1417    0.0000 N   0  0  0  0  0  0  0  0  0  0  0  0
   -3.3962   -3.7392    0.0000 H   0  0  0  0  0  0  0  0  0  0  0  0
   -1.5430   -3.7392    0.0000 H   0  0  0  0  0  0  0  0  0  0  0  0
   -2.4696   -4.2742    0.0000 H   0  0  0  0  0  0  0  0  0  0  0  0
   -4.0778   -2.4827    0.0000 H   0  0  0  0  0  0  0  0  0  0  0  0
   -4.0778   -0.6257    0.0000 H   0  0  0  0  0  0  0  0  0  0  0  0
   -2.4696    0.3028    0.0000 H   0  0  0  0  0  0  0  0  0  0  0  0
   -1.1788    1.8255    0.0000 H   0  0  0  0  0  0  0  0  0  0  0  0
   -0.5055    3.0868    0.0000 H   0  0  0  0  0  0  0  0  0  0  0  0
    1.1027    4.0153    0.0000 H   0  0  0  0  0  0  0  0  0  0  0  0
    2.9060    3.7620    0.0000 H   0  0  0  0  0  0  0  0  0  0  0  0
    2.9207    0.5093    0.0000 H   0  0  0  0  0  0  0  0  0  0  0  0
    1.1027    0.3013    0.0000 H   0  0  0  0  0  0  0  0  0  0  0  0
    1.1027    1.5403    0.0000 H   0  0  0  0  0  0  0  0  0  0  0  0
    2.7109    0.6118    0.0000 H   0  0  0  0  0  0  0  0  0  0  0  0
    2.7109   -1.2452    0.0000 H   0  0  0  0  0  0  0  0  0  0  0  0
    1.1027   -2.1737    0.0000 H   0  0  0  0  0  0  0  0  0  0  0  0
  1  2  1  0  0  0  0
  1 28  1  0  0  0  0
  1 29  1  0  0  0  0
  1 30  1  0  0  0  0
  2  3  2  0  0  0  0
  2  7  1  0  0  0  0
  3  4  1  0  0  0  0
  3 31  1  0  0  0  0
  4  5  2  0  0  0  0
  4 32  1  0  0  0  0
  5  6  1  0  0  0  0
  5 33  1  0  0  0  0
  6  7  2  0  0  0  0
  6  8  1  0  0  0  0
  8  9  2  0  0  0  0
  8 27  1  0  0  0  0
  9 10  1  0  0  0  0
 10 11  1  0  0  0  0
 10 21  2  0  0  0  0
 11 12  1  0  0  0  0
 11 34  1  0  0  0  0
 12 13  2  0  0  0  0
 12 20  1  0  0  0  0
 13 14  1  0  0  0  0
 13 35  1  0  0  0  0
 14 15  2  0  0  0  0
 14 36  1  0  0  0  0
 15 16  1  0  0  0  0
 15 19  1  0  0  0  0
 16 17  1  0  0  0  0
 16 37  1  0  0  0  0
 17 18  2  0  0  0  0
 18 19  1  0  0  0  0
 18 38  1  0  0  0  0
 19 20  2  0  0  0  0
 20 39  1  0  0  0  0
 21 22  1  0  0  0  0
 21 26  1  0  0  0  0
 22 23  2  0  0  0  0
 22 40  1  0  0  0  0
 23 24  1  0  0  0  0
 23 41  1  0  0  0  0
 24 25  2  0  0  0  0
 24 42  1  0  0  0  0
 25 26  1  0  0  0  0
 25 43  1  0  0  0  0
 26 27  2  0  0  0  0
M  END
>  <DRUGBANK_ID>
DB08450

>  <COMMON_NAME>
N-1H-indazol-5-yl-2-(6-methylpyridin-2-yl)quinazolin-4-amine

$$$$
