SAG
 OpenBabel10282417072D

 39 40  0  0  0  0  0  0  0  0999 V2000
   -2.8266    3.3541    0.0000 F   0  0  0  0  0  0  0  0  0  0  0  0
   -2.8266    2.5291    0.0000 C   0  0  0  0  0  0  0  0  0  0  0  0
   -2.1122    2.1166    0.0000 C   0  0  0  0  0  0  0  0  0  0  0  0
   -3.5411    2.1166    0.0000 C   0  0  0  0  0  0  0  0  0  0  0  0
   -3.5411    1.2916    0.0000 C   0  0  0  0  0  0  0  0  0  0  0  0
   -2.8266    0.8791    0.0000 C   0  0  0  0  0  0  0  0  0  0  0  0
   -2.1122    1.2916    0.0000 C   0  0  0  0  0  0  0  0  0  0  0  0
   -1.3977    0.8791    0.0000 C   0  0  0  0  0  0  0  0  0  0  0  0
   -0.6832    1.2916    0.0000 O   0  0  0  0  0  0  0  0  0  0  0  0
    0.0312    0.8791    0.0000 C   0  0  0  0  0  0  0  0  0  0  0  0
    0.7457    1.2916    0.0000 C   0  0  0  0  0  0  0  0  0  0  0  0
    1.4602    0.8791    0.0000 C   0  0  0  0  0  0  0  0  0  0  0  0
    0.0312    0.0541    0.0000 C   0  0  0  0  0  0  0  0  0  0  0  0
    0.7457   -0.3584    0.0000 C   0  0  0  0  0  0  0  0  0  0  0  0
    1.4602    0.0541    0.0000 C   0  0  0  0  0  0  0  0  0  0  0  0
    2.1746   -0.3584    0.0000 C   0  0  0  0  0  0  0  0  0  0  0  0
    2.1746   -1.1834    0.0000 N   0  0  0  0  0  0  0  0  0  0  0  0
    2.8891   -1.5959    0.0000 C   0  0  1  0  0  0  0  0  0  0  0  0
    3.6036   -1.1834    0.0000 C   0  0  0  0  0  0  0  0  0  0  0  0
    2.8891   -2.4209    0.0000 C   0  0  0  0  0  0  0  0  0  0  0  0
    3.6036   -2.8334    0.0000 O   0  0  0  0  0  0  0  0  0  0  0  0
    2.1746   -2.8334    0.0000 N   0  0  0  0  0  0  0  0  0  0  0  0
    2.8891   -1.0120    0.0000 H   0  0  0  0  0  0  0  0  0  0  0  0
   -1.2185    2.6326    0.0000 H   0  0  0  0  0  0  0  0  0  0  0  0
   -4.4348    2.6326    0.0000 H   0  0  0  0  0  0  0  0  0  0  0  0
   -4.4348    0.7756    0.0000 H   0  0  0  0  0  0  0  0  0  0  0  0
   -2.8266   -0.1529    0.0000 H   0  0  0  0  0  0  0  0  0  0  0  0
   -1.3977   -0.1909    0.0000 H   0  0  0  0  0  0  0  0  0  0  0  0
   -0.4711    0.3441    0.0000 H   0  0  0  0  0  0  0  0  0  0  0  0
    0.7457    2.3236    0.0000 H   0  0  0  0  0  0  0  0  0  0  0  0
    2.3539    1.3951    0.0000 H   0  0  0  0  0  0  0  0  0  0  0  0
   -0.8625   -0.4619    0.0000 H   0  0  0  0  0  0  0  0  0  0  0  0
    0.7457   -1.3904    0.0000 H   0  0  0  0  0  0  0  0  0  0  0  0
    3.0683    0.1576    0.0000 H   0  0  0  0  0  0  0  0  0  0  0  0
    4.5302   -1.7184    0.0000 H   0  0  0  0  0  0  0  0  0  0  0  0
    3.6036   -0.1134    0.0000 H   0  0  0  0  0  0  0  0  0  0  0  0
    4.5303   -0.6484    0.0000 H   0  0  0  0  0  0  0  0  0  0  0  0
    1.3220   -2.3411    0.0000 H   0  0  0  0  0  0  0  0  0  0  0  0
    2.1746   -3.8179    0.0000 H   0  0  0  0  0  0  0  0  0  0  0  0
  1  2  1  0  0  0  0
  2  3  1  0  0  0  0
  2  4  2  0  0  0  0
  3  7  2  0  0  0  0
  3 24  1  0  0  0  0
  4  5  1  0  0  0  0
  4 25  1  0  0  0  0
  5  6  2  0  0  0  0
  5 26  1  0  0  0  0
  6  7  1  0  0  0  0
  6 27  1  0  0  0  0
  7  8  1  0  0  0  0
  8  9  1  0  0  0  0
  8 28  1  0  0  0  0
  8 29  1  0  0  0  0
  9 10  1  0  0  0  0
 10 11  1  0  0  0  0
 10 13  2  0  0  0  0
 11 12  2  0  0  0  0
 11 30  1  0  0  0  0
 12 15  1  0  0  0  0
 12 31  1  0  0  0  0
 13 14  1  0  0  0  0
 13 32  1  0  0  0  0
 14 15  2  0  0  0  0
 14 33  1  0  0  0  0
 15 16  1  0  0  0  0
 16 17  2  0  0  0  0
 16 34  1  0  0  0  0
 17 18  1  0  0  0  0
 18 19  1  0  0  0  0
 18 20  1  0  0  0  0
 18 23  1  6  0  0  0
 19 35  1  0  0  0  0
 19 36  1  0  0  0  0
 19 37  1  0  0  0  0
 20 21  2  0  0  0  0
 20 22  1  0  0  0  0
 22 38  1  0  0  0  0
 22 39  1  0  0  0  0
M  END
>  <DRUGBANK_ID>
DB08516

>  <COMMON_NAME>
(S)-(+)-2-[4-(FLUOROBENZYLOXY-BENZYLAMINO)PROPIONAMIDE]

$$$$
