
 OpenBabel10282417072D

 68 69  0  0  1  0  0  0  0  0999 V2000
    4.4913    8.8490    0.0000 C   0  0  0  0  0  0  0  0  0  0  0  0
    5.2058    9.2615    0.0000 C   0  0  0  0  0  0  0  0  0  0  0  0
    5.9203    8.8490    0.0000 C   0  0  0  0  0  0  0  0  0  0  0  0
    6.6348    9.2615    0.0000 C   0  0  0  0  0  0  0  0  0  0  0  0
    7.3492    8.8490    0.0000 C   0  0  0  0  0  0  0  0  0  0  0  0
    8.0637    9.2615    0.0000 C   0  0  0  0  0  0  0  0  0  0  0  0
    8.7782    8.8490    0.0000 C   0  0  0  0  0  0  0  0  0  0  0  0
   16.4514    7.7878    0.0000 C   0  0  0  0  0  0  0  0  0  0  0  0
   10.9216    9.2615    0.0000 C   0  0  0  0  0  0  0  0  0  0  0  0
   13.4938    9.1845    0.0000 C   0  0  0  0  0  0  0  0  0  0  0  0
   15.7840    8.2727    0.0000 C   0  0  2  0  0  0  0  0  0  0  0  0
   11.6361    8.8490    0.0000 C   0  0  2  0  0  0  0  0  0  0  0  0
    9.4926    9.2615    0.0000 C   0  0  0  0  0  0  0  0  0  0  0  0
   15.8702    9.0932    0.0000 C   0  0  2  0  0  0  0  0  0  0  0  0
   11.7223    8.0285    0.0000 C   0  0  2  0  0  0  0  0  0  0  0  0
   15.2028    9.5781    0.0000 C   0  0  1  0  0  0  0  0  0  0  0  0
   14.4491    9.2426    0.0000 C   0  0  2  0  0  0  0  0  0  0  0  0
   12.5293    7.8570    0.0000 C   0  0  1  0  0  0  0  0  0  0  0  0
   14.3629    8.4221    0.0000 C   0  0  2  0  0  0  0  0  0  0  0  0
   12.9418    8.5714    0.0000 C   0  0  2  0  0  0  0  0  0  0  0  0
   17.2051    8.1233    0.0000 O   0  0  0  0  0  0  0  0  0  0  0  0
   13.2389    9.9692    0.0000 O   0  0  0  0  0  0  0  0  0  0  0  0
    9.4926   10.0865    0.0000 O   0  0  0  0  0  0  0  0  0  0  0  0
   16.6239    9.4287    0.0000 O   0  0  0  0  0  0  0  0  0  0  0  0
   11.1092    7.4765    0.0000 O   0  0  0  0  0  0  0  0  0  0  0  0
   15.2890   10.3986    0.0000 O   0  0  0  0  0  0  0  0  0  0  0  0
   13.7817    9.7275    0.0000 O   0  0  0  0  0  0  0  0  0  0  0  0
   12.8648    7.1033    0.0000 O   0  0  0  0  0  0  0  0  0  0  0  0
   10.2071    8.8490    0.0000 O   0  0  0  0  0  0  0  0  0  0  0  0
   15.0303    7.9372    0.0000 O   0  0  0  0  0  0  0  0  0  0  0  0
   12.3897    9.1845    0.0000 O   0  0  0  0  0  0  0  0  0  0  0  0
   13.6092    8.0865    0.0000 O   0  0  0  0  0  0  0  0  0  0  0  0
   16.3774    8.8458    0.0000 H   0  0  0  0  0  0  0  0  0  0  0  0
   11.1396    8.1901    0.0000 H   0  0  0  0  0  0  0  0  0  0  0  0
   16.6633    8.8658    0.0000 H   0  0  0  0  0  0  0  0  0  0  0  0
   10.8974    8.0429    0.0000 H   0  0  0  0  0  0  0  0  0  0  0  0
   15.9565    9.9137    0.0000 H   0  0  0  0  0  0  0  0  0  0  0  0
   14.5353   10.0630    0.0000 H   0  0  0  0  0  0  0  0  0  0  0  0
   12.0101    7.2158    0.0000 H   0  0  0  0  0  0  0  0  0  0  0  0
   13.6954    8.9070    0.0000 H   0  0  0  0  0  0  0  0  0  0  0  0
    3.5647    9.3840    0.0000 H   0  0  0  0  0  0  0  0  0  0  0  0
    4.4913    7.7790    0.0000 H   0  0  0  0  0  0  0  0  0  0  0  0
    3.5646    8.3140    0.0000 H   0  0  0  0  0  0  0  0  0  0  0  0
    5.2058   10.3315    0.0000 H   0  0  0  0  0  0  0  0  0  0  0  0
    6.1324    9.7965    0.0000 H   0  0  0  0  0  0  0  0  0  0  0  0
    5.9203    7.7790    0.0000 H   0  0  0  0  0  0  0  0  0  0  0  0
    6.8469    8.3140    0.0000 H   0  0  0  0  0  0  0  0  0  0  0  0
    6.6348   10.3315    0.0000 H   0  0  0  0  0  0  0  0  0  0  0  0
    7.5615    9.7965    0.0000 H   0  0  0  0  0  0  0  0  0  0  0  0
    7.3492    7.7790    0.0000 H   0  0  0  0  0  0  0  0  0  0  0  0
    8.2758    8.3140    0.0000 H   0  0  0  0  0  0  0  0  0  0  0  0
    8.0637   10.3315    0.0000 H   0  0  0  0  0  0  0  0  0  0  0  0
    8.9903    9.7965    0.0000 H   0  0  0  0  0  0  0  0  0  0  0  0
    8.7782    7.7790    0.0000 H   0  0  0  0  0  0  0  0  0  0  0  0
    9.7049    8.3140    0.0000 H   0  0  0  0  0  0  0  0  0  0  0  0
   16.3395    6.7237    0.0000 H   0  0  0  0  0  0  0  0  0  0  0  0
   17.3170    7.1588    0.0000 H   0  0  0  0  0  0  0  0  0  0  0  0
   10.9216   10.3315    0.0000 H   0  0  0  0  0  0  0  0  0  0  0  0
    9.9950    9.7965    0.0000 H   0  0  0  0  0  0  0  0  0  0  0  0
   14.5404    8.9620    0.0000 H   0  0  0  0  0  0  0  0  0  0  0  0
   14.2098    9.9796    0.0000 H   0  0  0  0  0  0  0  0  0  0  0  0
   17.9898    7.5531    0.0000 H   0  0  0  0  0  0  0  0  0  0  0  0
   13.8880   10.6900    0.0000 H   0  0  0  0  0  0  0  0  0  0  0  0
   17.4086    8.8585    0.0000 H   0  0  0  0  0  0  0  0  0  0  0  0
   10.1867    7.7763    0.0000 H   0  0  0  0  0  0  0  0  0  0  0  0
   16.1751   10.7932    0.0000 H   0  0  0  0  0  0  0  0  0  0  0  0
   13.8831   10.6922    0.0000 H   0  0  0  0  0  0  0  0  0  0  0  0
   12.2946    6.3186    0.0000 H   0  0  0  0  0  0  0  0  0  0  0  0
  1 41  1  0  0  0  0
  1 42  1  0  0  0  0
  1 43  1  0  0  0  0
  2  1  1  0  0  0  0
  2 44  1  0  0  0  0
  2 45  1  0  0  0  0
  3  2  1  0  0  0  0
  3 46  1  0  0  0  0
  3 47  1  0  0  0  0
  4  3  1  0  0  0  0
  4 48  1  0  0  0  0
  4 49  1  0  0  0  0
  5  4  1  0  0  0  0
  5 50  1  0  0  0  0
  5 51  1  0  0  0  0
  6  5  1  0  0  0  0
  6 52  1  0  0  0  0
  6 53  1  0  0  0  0
  7  6  1  0  0  0  0
  7 54  1  0  0  0  0
  7 55  1  0  0  0  0
  8 56  1  0  0  0  0
  8 57  1  0  0  0  0
  9 58  1  0  0  0  0
  9 59  1  0  0  0  0
 10 60  1  0  0  0  0
 10 61  1  0  0  0  0
 11  8  1  0  0  0  0
 11 33  1  6  0  0  0
 12  9  1  0  0  0  0
 12 34  1  6  0  0  0
 13  7  1  0  0  0  0
 14 11  1  0  0  0  0
 14 24  1  0  0  0  0
 14 35  1  1  0  0  0
 15 12  1  0  0  0  0
 15 25  1  0  0  0  0
 15 36  1  1  0  0  0
 16 14  1  0  0  0  0
 16 26  1  0  0  0  0
 16 37  1  6  0  0  0
 17 16  1  0  0  0  0
 17 27  1  0  0  0  0
 17 38  1  1  0  0  0
 18 15  1  0  0  0  0
 18 28  1  0  0  0  0
 18 39  1  6  0  0  0
 19 17  1  0  0  0  0
 19 32  1  0  0  0  0
 19 40  1  1  0  0  0
 20 10  1  0  0  0  0
 20 18  1  0  0  0  0
 20 32  1  1  0  0  0
 21  8  1  0  0  0  0
 21 62  1  0  0  0  0
 22 10  1  0  0  0  0
 22 63  1  0  0  0  0
 23 13  2  0  0  0  0
 24 64  1  0  0  0  0
 25 65  1  0  0  0  0
 26 66  1  0  0  0  0
 27 67  1  0  0  0  0
 28 68  1  0  0  0  0
 29  9  1  0  0  0  0
 29 13  1  0  0  0  0
 30 11  1  0  0  0  0
 30 19  1  0  0  0  0
 31 12  1  0  0  0  0
 31 20  1  0  0  0  0
M  END
>  <DRUGBANK_ID>
DB03190

>  <SECONDARY_ACCESSION_NUMBERS>
EXPT02451

>  <COMMON_NAME>
6-o-Capryloylsucrose

>  <CAS_NUMBER>
136152-82-4

>  <UNII>
NA2JF794IZ

>  <SYNONYMS>
alpha-D-Glucopyranoside, 6-O-(1-oxooctyl)-beta-D-fructofuranosyl

$$$$
