
 OpenBabel10282417072D

 89 90  0  0  0  0  0  0  0  0999 V2000
   -4.2731   -5.4783    0.0000 C   0  0  0  0  0  0  0  0  0  0  0  0
   -3.5828   -5.0181    0.0000 N   0  0  0  0  0  0  0  0  0  0  0  0
   -3.6266   -4.1963    0.0000 C   0  0  0  0  0  0  0  0  0  0  0  0
   -4.3717   -3.8238    0.0000 O   0  0  0  0  0  0  0  0  0  0  0  0
   -2.9363   -3.7362    0.0000 N   0  0  0  0  0  0  0  0  0  0  0  0
   -2.9911   -2.9144    0.0000 C   0  0  0  0  0  0  0  0  0  0  0  0
   -3.7362   -2.5419    0.0000 N   0  0  0  0  0  0  0  0  0  0  0  0
   -2.3009   -2.4542    0.0000 N   0  0  0  0  0  0  0  0  0  0  0  0
   -2.3557   -1.6324    0.0000 C   0  0  0  0  0  0  0  0  0  0  0  0
   -1.6653   -1.1943    0.0000 C   0  0  0  0  0  0  0  0  0  0  0  0
   -1.6982   -0.3725    0.0000 C   0  0  0  0  0  0  0  0  0  0  0  0
   -1.0189    0.1095    0.0000 C   0  0  2  0  0  0  0  0  0  0  0  0
   -0.4492   -0.4820    0.0000 N   0  0  0  0  0  0  0  0  0  0  0  0
    0.3067   -0.8327    0.0000 C   0  0  0  0  0  0  0  0  0  0  0  0
    0.0438   -1.6215    0.0000 O   0  0  0  0  0  0  0  0  0  0  0  0
    1.1285   -0.8875    0.0000 C   0  0  1  0  0  0  0  0  0  0  0  0
    1.2928   -1.6983    0.0000 C   0  0  0  0  0  0  0  0  0  0  0  0
    1.9283   -0.6355    0.0000 N   0  0  0  0  0  0  0  0  0  0  0  0
    2.5748   -0.1095    0.0000 C   0  0  0  0  0  0  0  0  0  0  0  0
    3.1993   -0.6574    0.0000 O   0  0  0  0  0  0  0  0  0  0  0  0
    2.9911    0.6026    0.0000 C   0  0  0  0  0  0  0  0  0  0  0  0
    3.1117    1.4244    0.0000 C   0  0  2  0  0  0  0  0  0  0  0  0
    2.9363    2.2351    0.0000 N   0  0  0  0  0  0  0  0  0  0  0  0
    2.4762    2.9144    0.0000 C   0  0  0  0  0  0  0  0  0  0  0  0
    3.0678    3.4952    0.0000 O   0  0  0  0  0  0  0  0  0  0  0  0
    1.8078    3.3965    0.0000 C   0  0  0  0  0  0  0  0  0  0  0  0
    1.0079    3.5937    0.0000 C   0  0  2  0  0  0  0  0  0  0  0  0
    0.1972    3.4952    0.0000 N   0  0  0  0  0  0  0  0  0  0  0  0
   -0.5258    3.1008    0.0000 C   0  0  0  0  0  0  0  0  0  0  0  0
   -1.0518    3.6047    0.0000 O   0  0  0  0  0  0  0  0  0  0  0  0
   -1.0956    2.4762    0.0000 C   0  0  2  0  0  0  0  0  0  0  0  0
   -1.8188    2.9583    0.0000 C   0  0  0  0  0  0  0  0  0  0  0  0
   -1.3695    1.6873    0.0000 N   0  0  0  0  0  0  0  0  0  0  0  0
   -2.1913    1.8297    0.0000 C   0  0  0  0  0  0  0  0  0  0  0  0
   -1.3367    0.8655    0.0000 C   0  0  0  0  0  0  0  0  0  0  0  0
   -2.1584    0.6903    0.0000 O   0  0  0  0  0  0  0  0  0  0  0  0
    1.0408    4.4265    0.0000 C   0  0  0  0  0  0  0  0  0  0  0  0
    0.3506    4.8867    0.0000 O   0  0  0  0  0  0  0  0  0  0  0  0
    1.7859    4.7990    0.0000 O   0  0  0  0  0  0  0  0  0  0  0  0
    3.9334    1.4463    0.0000 C   0  0  0  0  0  0  0  0  0  0  0  0
    4.3278    2.1803    0.0000 O   0  0  0  0  0  0  0  0  0  0  0  0
    4.3717    0.7450    0.0000 O   0  0  0  0  0  0  0  0  0  0  0  0
   -1.8407    3.8238    0.0000 C   0  0  0  0  0  0  0  0  0  0  0  0
   -1.8407    5.4783    0.0000 C   0  0  0  0  0  0  0  0  0  0  0  0
   -2.5529    5.0619    0.0000 C   0  0  0  0  0  0  0  0  0  0  0  0
   -2.5529    4.2402    0.0000 C   0  0  0  0  0  0  0  0  0  0  0  0
   -1.1175    4.2402    0.0000 C   0  0  0  0  0  0  0  0  0  0  0  0
   -1.1175    5.0619    0.0000 C   0  0  0  0  0  0  0  0  0  0  0  0
   -5.2323   -5.0040    0.0000 H   0  0  0  0  0  0  0  0  0  0  0  0
   -4.2042   -6.5461    0.0000 H   0  0  0  0  0  0  0  0  0  0  0  0
   -5.1634   -6.0718    0.0000 H   0  0  0  0  0  0  0  0  0  0  0  0
   -2.7027   -5.4594    0.0000 H   0  0  0  0  0  0  0  0  0  0  0  0
   -2.0533   -4.1716    0.0000 H   0  0  0  0  0  0  0  0  0  0  0  0
   -3.7952   -1.5592    0.0000 H   0  0  0  0  0  0  0  0  0  0  0  0
   -1.4179   -2.8896    0.0000 H   0  0  0  0  0  0  0  0  0  0  0  0
   -3.3100   -1.1484    0.0000 H   0  0  0  0  0  0  0  0  0  0  0  0
   -2.4071   -0.5636    0.0000 H   0  0  0  0  0  0  0  0  0  0  0  0
   -0.7175   -1.6909    0.0000 H   0  0  0  0  0  0  0  0  0  0  0  0
   -0.7611   -0.6222    0.0000 H   0  0  0  0  0  0  0  0  0  0  0  0
   -2.6585    0.0995    0.0000 H   0  0  0  0  0  0  0  0  0  0  0  0
   -1.7839    0.6941    0.0000 H   0  0  0  0  0  0  0  0  0  0  0  0
   -1.1188   -0.9558    0.0000 H   0  0  0  0  0  0  0  0  0  0  0  0
   -1.0207   -1.2837    0.0000 H   0  0  0  0  0  0  0  0  0  0  0  0
    0.4240   -1.6928    0.0000 H   0  0  0  0  0  0  0  0  0  0  0  0
    0.4909   -2.4067    0.0000 H   0  0  0  0  0  0  0  0  0  0  0  0
    2.3072   -2.0386    0.0000 H   0  0  0  0  0  0  0  0  0  0  0  0
    1.5053   -2.7470    0.0000 H   0  0  0  0  0  0  0  0  0  0  0  0
    2.3952   -1.5022    0.0000 H   0  0  0  0  0  0  0  0  0  0  0  0
    4.0008    0.2484    0.0000 H   0  0  0  0  0  0  0  0  0  0  0  0
    3.9067    1.1563    0.0000 H   0  0  0  0  0  0  0  0  0  0  0  0
    3.8219    0.6241    0.0000 H   0  0  0  0  0  0  0  0  0  0  0  0
    3.8415    2.6223    0.0000 H   0  0  0  0  0  0  0  0  0  0  0  0
    2.2570    4.3676    0.0000 H   0  0  0  0  0  0  0  0  0  0  0  0
    1.3444    4.3610    0.0000 H   0  0  0  0  0  0  0  0  0  0  0  0
    1.8631    4.2368    0.0000 H   0  0  0  0  0  0  0  0  0  0  0  0
   -0.1033    4.4327    0.0000 H   0  0  0  0  0  0  0  0  0  0  0  0
   -1.2254    3.5383    0.0000 H   0  0  0  0  0  0  0  0  0  0  0  0
   -2.7557    2.4415    0.0000 H   0  0  0  0  0  0  0  0  0  0  0  0
   -2.7470    3.4906    0.0000 H   0  0  0  0  0  0  0  0  0  0  0  0
   -2.5602    2.8341    0.0000 H   0  0  0  0  0  0  0  0  0  0  0  0
   -2.8767    1.0080    0.0000 H   0  0  0  0  0  0  0  0  0  0  0  0
   -3.2456    2.0124    0.0000 H   0  0  0  0  0  0  0  0  0  0  0  0
    0.4110    5.8218    0.0000 H   0  0  0  0  0  0  0  0  0  0  0  0
    5.2644    2.2089    0.0000 H   0  0  0  0  0  0  0  0  0  0  0  0
   -1.8441    6.5103    0.0000 H   0  0  0  0  0  0  0  0  0  0  0  0
   -3.4480    5.5755    0.0000 H   0  0  0  0  0  0  0  0  0  0  0  0
   -3.4480    3.7266    0.0000 H   0  0  0  0  0  0  0  0  0  0  0  0
   -0.2241    3.7237    0.0000 H   0  0  0  0  0  0  0  0  0  0  0  0
   -0.2241    5.5784    0.0000 H   0  0  0  0  0  0  0  0  0  0  0  0
  1  2  1  0  0  0  0
  1 49  1  0  0  0  0
  1 50  1  0  0  0  0
  1 51  1  0  0  0  0
  2  3  1  0  0  0  0
  2 52  1  0  0  0  0
  3  4  2  0  0  0  0
  3  5  1  0  0  0  0
  5  6  1  0  0  0  0
  5 53  1  0  0  0  0
  6  7  2  0  0  0  0
  6  8  1  0  0  0  0
  7 54  1  0  0  0  0
  8  9  1  0  0  0  0
  8 55  1  0  0  0  0
  9 10  1  0  0  0  0
  9 56  1  0  0  0  0
  9 57  1  0  0  0  0
 10 11  1  0  0  0  0
 10 58  1  0  0  0  0
 10 59  1  0  0  0  0
 11 60  1  0  0  0  0
 11 61  1  0  0  0  0
 12 11  1  0  0  0  0
 12 13  1  0  0  0  0
 12 35  1  0  0  0  0
 12 62  1  6  0  0  0
 13 14  1  0  0  0  0
 13 63  1  0  0  0  0
 14 15  2  0  0  0  0
 14 16  1  0  0  0  0
 16 17  1  0  0  0  0
 16 18  1  0  0  0  0
 16 64  1  1  0  0  0
 17 65  1  0  0  0  0
 17 66  1  0  0  0  0
 17 67  1  0  0  0  0
 18 19  1  0  0  0  0
 18 68  1  0  0  0  0
 19 20  2  0  0  0  0
 19 21  1  0  0  0  0
 21 22  1  0  0  0  0
 21 69  1  0  0  0  0
 21 70  1  0  0  0  0
 22 23  1  0  0  0  0
 22 40  1  0  0  0  0
 22 71  1  1  0  0  0
 23 24  1  0  0  0  0
 23 72  1  0  0  0  0
 24 25  2  0  0  0  0
 24 26  1  0  0  0  0
 26 27  1  0  0  0  0
 26 73  1  0  0  0  0
 26 74  1  0  0  0  0
 27 28  1  0  0  0  0
 27 37  1  0  0  0  0
 27 75  1  1  0  0  0
 28 29  1  0  0  0  0
 28 76  1  0  0  0  0
 29 30  2  0  0  0  0
 29 31  1  0  0  0  0
 31 32  1  0  0  0  0
 31 33  1  0  0  0  0
 31 77  1  6  0  0  0
 32 43  1  0  0  0  0
 32 78  1  0  0  0  0
 32 79  1  0  0  0  0
 33 34  1  0  0  0  0
 33 35  1  0  0  0  0
 34 80  1  0  0  0  0
 34 81  1  0  0  0  0
 34 82  1  0  0  0  0
 35 36  2  0  0  0  0
 37 38  1  0  0  0  0
 37 39  2  0  0  0  0
 38 83  1  0  0  0  0
 40 41  1  0  0  0  0
 40 42  2  0  0  0  0
 41 84  1  0  0  0  0
 43 46  2  0  0  0  0
 43 47  1  0  0  0  0
 44 45  2  0  0  0  0
 44 48  1  0  0  0  0
 44 85  1  0  0  0  0
 45 46  1  0  0  0  0
 45 86  1  0  0  0  0
 46 87  1  0  0  0  0
 47 48  2  0  0  0  0
 47 88  1  0  0  0  0
 48 89  1  0  0  0  0
M  END
>  <DRUGBANK_ID>
DB03632

>  <SECONDARY_ACCESSION_NUMBERS>
EXPT02754

>  <COMMON_NAME>
Argifin

>  <CAS_NUMBER>
243975-37-3

$$$$
