
 OpenBabel10282417072D

 61 65  0  0  0  0  0  0  0  0999 V2000
    4.0668    8.1229    0.0000 C   0  0  0  0  0  0  0  0  0  0  0  0
    4.0668    7.2979    0.0000 N   0  0  0  0  0  0  0  0  0  0  0  0
    4.7812    6.8854    0.0000 C   0  0  0  0  0  0  0  0  0  0  0  0
    4.7812    6.0604    0.0000 C   0  0  0  0  0  0  0  0  0  0  0  0
    4.0668    5.6479    0.0000 N   0  0  0  0  0  0  0  0  0  0  0  0
    3.3523    6.0604    0.0000 C   0  0  0  0  0  0  0  0  0  0  0  0
    3.3523    6.8854    0.0000 C   0  0  0  0  0  0  0  0  0  0  0  0
    4.0668    4.8229    0.0000 C   0  0  0  0  0  0  0  0  0  0  0  0
    4.7812    4.4104    0.0000 C   0  0  0  0  0  0  0  0  0  0  0  0
    4.7812    3.5854    0.0000 C   0  0  0  0  0  0  0  0  0  0  0  0
    4.0668    3.1729    0.0000 C   0  0  0  0  0  0  0  0  0  0  0  0
    4.0668    2.3479    0.0000 N   0  0  0  0  0  0  0  0  0  0  0  0
    3.3523    1.9354    0.0000 C   0  0  0  0  0  0  0  0  0  0  0  0
    3.3523    1.1104    0.0000 N   0  0  0  0  0  0  0  0  0  0  0  0
    2.6378    0.6979    0.0000 C   0  0  0  0  0  0  0  0  0  0  0  0
    2.6378   -0.1271    0.0000 O   0  0  0  0  0  0  0  0  0  0  0  0
    3.3523   -0.5396    0.0000 C   0  0  0  0  0  0  0  0  0  0  0  0
    4.0668   -0.1271    0.0000 C   0  0  0  0  0  0  0  0  0  0  0  0
    4.7812   -0.5396    0.0000 C   0  0  0  0  0  0  0  0  0  0  0  0
    4.7812   -1.3646    0.0000 C   0  0  0  0  0  0  0  0  0  0  0  0
    4.0668   -1.7771    0.0000 C   0  0  0  0  0  0  0  0  0  0  0  0
    4.0668   -2.6021    0.0000 N   0  0  0  0  0  0  0  0  0  0  0  0
    4.7812   -3.0146    0.0000 C   0  0  0  0  0  0  0  0  0  0  0  0
    5.4957   -2.6021    0.0000 O   0  0  0  0  0  0  0  0  0  0  0  0
    4.7812   -3.8396    0.0000 C   0  0  0  0  0  0  0  0  0  0  0  0
    5.4957   -4.2521    0.0000 C   0  0  0  0  0  0  0  0  0  0  0  0
    3.3523   -1.3646    0.0000 C   0  0  0  0  0  0  0  0  0  0  0  0
    1.9233    1.1104    0.0000 C   0  0  0  0  0  0  0  0  0  0  0  0
    1.1387    0.8555    0.0000 O   0  0  0  0  0  0  0  0  0  0  0  0
    0.6538    1.5229    0.0000 C   0  0  0  0  0  0  0  0  0  0  0  0
    1.1387    2.1904    0.0000 C   0  0  0  0  0  0  0  0  0  0  0  0
    1.9233    1.9354    0.0000 C   0  0  0  0  0  0  0  0  0  0  0  0
    2.6378    2.3479    0.0000 N   0  0  0  0  0  0  0  0  0  0  0  0
    3.3523    3.5854    0.0000 C   0  0  0  0  0  0  0  0  0  0  0  0
    3.3523    4.4104    0.0000 C   0  0  0  0  0  0  0  0  0  0  0  0
    4.9934    8.6579    0.0000 H   0  0  0  0  0  0  0  0  0  0  0  0
    3.1402    8.6579    0.0000 H   0  0  0  0  0  0  0  0  0  0  0  0
    4.0668    9.1929    0.0000 H   0  0  0  0  0  0  0  0  0  0  0  0
    5.7079    7.4204    0.0000 H   0  0  0  0  0  0  0  0  0  0  0  0
    5.7078    6.3504    0.0000 H   0  0  0  0  0  0  0  0  0  0  0  0
    5.7079    5.5254    0.0000 H   0  0  0  0  0  0  0  0  0  0  0  0
    4.7812    4.9904    0.0000 H   0  0  0  0  0  0  0  0  0  0  0  0
    2.4257    5.5254    0.0000 H   0  0  0  0  0  0  0  0  0  0  0  0
    2.4257    6.5954    0.0000 H   0  0  0  0  0  0  0  0  0  0  0  0
    2.4257    7.4204    0.0000 H   0  0  0  0  0  0  0  0  0  0  0  0
    3.3523    7.9554    0.0000 H   0  0  0  0  0  0  0  0  0  0  0  0
    5.6749    4.9264    0.0000 H   0  0  0  0  0  0  0  0  0  0  0  0
    5.6749    3.0694    0.0000 H   0  0  0  0  0  0  0  0  0  0  0  0
    4.9194    1.8556    0.0000 H   0  0  0  0  0  0  0  0  0  0  0  0
    4.0668    0.9049    0.0000 H   0  0  0  0  0  0  0  0  0  0  0  0
    5.6749   -0.0236    0.0000 H   0  0  0  0  0  0  0  0  0  0  0  0
    5.6749   -1.8806    0.0000 H   0  0  0  0  0  0  0  0  0  0  0  0
    3.2142   -3.0943    0.0000 H   0  0  0  0  0  0  0  0  0  0  0  0
    3.8875   -4.3556    0.0000 H   0  0  0  0  0  0  0  0  0  0  0  0
    5.4957   -5.2841    0.0000 H   0  0  0  0  0  0  0  0  0  0  0  0
    6.3894   -3.7361    0.0000 H   0  0  0  0  0  0  0  0  0  0  0  0
    2.4586   -1.8806    0.0000 H   0  0  0  0  0  0  0  0  0  0  0  0
   -0.3782    1.5229    0.0000 H   0  0  0  0  0  0  0  0  0  0  0  0
    0.8198    3.1719    0.0000 H   0  0  0  0  0  0  0  0  0  0  0  0
    2.4586    3.0694    0.0000 H   0  0  0  0  0  0  0  0  0  0  0  0
    2.4586    4.9264    0.0000 H   0  0  0  0  0  0  0  0  0  0  0  0
  1  2  1  0  0  0  0
  1 36  1  0  0  0  0
  1 37  1  0  0  0  0
  1 38  1  0  0  0  0
  2  3  1  0  0  0  0
  2  7  1  0  0  0  0
  3  4  1  0  0  0  0
  3 39  1  0  0  0  0
  3 40  1  0  0  0  0
  4  5  1  0  0  0  0
  4 41  1  0  0  0  0
  4 42  1  0  0  0  0
  5  6  1  0  0  0  0
  5  8  1  0  0  0  0
  6  7  1  0  0  0  0
  6 43  1  0  0  0  0
  6 44  1  0  0  0  0
  7 45  1  0  0  0  0
  7 46  1  0  0  0  0
  8  9  2  0  0  0  0
  8 35  1  0  0  0  0
  9 10  1  0  0  0  0
  9 47  1  0  0  0  0
 10 11  2  0  0  0  0
 10 48  1  0  0  0  0
 11 12  1  0  0  0  0
 11 34  1  0  0  0  0
 12 13  1  0  0  0  0
 12 49  1  0  0  0  0
 13 14  2  0  0  0  0
 13 33  1  0  0  0  0
 14 15  1  0  0  0  0
 15 16  1  0  0  0  0
 15 28  2  0  0  0  0
 16 17  1  0  0  0  0
 17 18  2  0  0  0  0
 17 27  1  0  0  0  0
 18 19  1  0  0  0  0
 18 50  1  0  0  0  0
 19 20  2  0  0  0  0
 19 51  1  0  0  0  0
 20 21  1  0  0  0  0
 20 52  1  0  0  0  0
 21 22  1  0  0  0  0
 21 27  2  0  0  0  0
 22 23  1  0  0  0  0
 22 53  1  0  0  0  0
 23 24  2  0  0  0  0
 23 25  1  0  0  0  0
 25 26  2  0  0  0  0
 25 54  1  0  0  0  0
 26 55  1  0  0  0  0
 26 56  1  0  0  0  0
 27 57  1  0  0  0  0
 28 29  1  0  0  0  0
 28 32  1  0  0  0  0
 29 30  1  0  0  0  0
 30 31  2  0  0  0  0
 30 58  1  0  0  0  0
 31 32  1  0  0  0  0
 31 59  1  0  0  0  0
 32 33  2  0  0  0  0
 34 35  2  0  0  0  0
 34 60  1  0  0  0  0
 35 61  1  0  0  0  0
M  END
>  <DRUGBANK_ID>
DB16299

>  <COMMON_NAME>
Poseltinib

>  <CAS_NUMBER>
1353552-97-2

>  <UNII>
D01E4B1U35

>  <SYNONYMS>
Poseltinib

$$$$
