505
 OpenBabel10282417072D

 59 60  0  0  1  0  0  0  0  0999 V2000
    1.9058    0.0000    0.0000 O   0  0  0  0  0  0  0  0  0  0  0  0
    4.7934   -0.7145    0.0000 N   0  3  0  0  0  0  0  0  0  0  0  0
    2.7308    0.8250    0.0000 C   0  0  0  0  0  0  0  0  0  0  0  0
    2.7308    0.0000    0.0000 C   0  0  3  0  0  0  0  0  0  0  0  0
    3.5558    0.0000    0.0000 C   0  0  0  0  0  0  0  0  0  0  0  0
    3.9683   -0.7145    0.0000 C   0  0  0  0  0  0  0  0  0  0  0  0
    3.4453    1.2375    0.0000 C   0  0  0  0  0  0  0  0  0  0  0  0
    2.0163    1.2375    0.0000 C   0  0  0  0  0  0  0  0  0  0  0  0
    3.4453    2.0625    0.0000 C   0  0  0  0  0  0  0  0  0  0  0  0
    2.0163    2.0625    0.0000 C   0  0  0  0  0  0  0  0  0  0  0  0
    2.7308    2.4751    0.0000 C   0  0  0  0  0  0  0  0  0  0  0  0
    4.7934    0.1106    0.0000 C   0  0  0  0  0  0  0  0  0  0  0  0
    4.7934   -1.5395    0.0000 C   0  0  0  0  0  0  0  0  0  0  0  0
    5.6184   -0.7145    0.0000 C   0  0  0  0  0  0  0  0  0  0  0  0
    2.7308   -0.8250    0.0000 C   0  0  0  0  0  0  0  0  0  0  0  0
    5.5078    0.5231    0.0000 C   0  0  0  0  0  0  0  0  0  0  0  0
    5.5078   -1.9520    0.0000 C   0  0  0  0  0  0  0  0  0  0  0  0
    6.0309   -1.4290    0.0000 C   0  0  0  0  0  0  0  0  0  0  0  0
    3.4453   -1.2375    0.0000 C   0  0  0  0  0  0  0  0  0  0  0  0
    2.0163   -1.2375    0.0000 C   0  0  0  0  0  0  0  0  0  0  0  0
    3.4453   -2.0625    0.0000 C   0  0  0  0  0  0  0  0  0  0  0  0
    2.0163   -2.0625    0.0000 C   0  0  0  0  0  0  0  0  0  0  0  0
    2.7308   -2.4751    0.0000 C   0  0  0  0  0  0  0  0  0  0  0  0
    1.4208    0.8400    0.0000 H   0  0  0  0  0  0  0  0  0  0  0  0
    2.7308    1.8950    0.0000 H   0  0  0  0  0  0  0  0  0  0  0  0
    4.0908    0.9266    0.0000 H   0  0  0  0  0  0  0  0  0  0  0  0
    4.6258   -0.0000    0.0000 H   0  0  0  0  0  0  0  0  0  0  0  0
    3.4333   -1.6411    0.0000 H   0  0  0  0  0  0  0  0  0  0  0  0
    2.8983   -0.7145    0.0000 H   0  0  0  0  0  0  0  0  0  0  0  0
    4.3719    0.7025    0.0000 H   0  0  0  0  0  0  0  0  0  0  0  0
    4.3719    1.7725    0.0000 H   0  0  0  0  0  0  0  0  0  0  0  0
    1.0897    0.7025    0.0000 H   0  0  0  0  0  0  0  0  0  0  0  0
    1.0897    1.7725    0.0000 H   0  0  0  0  0  0  0  0  0  0  0  0
    4.3720    2.5975    0.0000 H   0  0  0  0  0  0  0  0  0  0  0  0
    3.4454    3.1325    0.0000 H   0  0  0  0  0  0  0  0  0  0  0  0
    1.0896    2.5975    0.0000 H   0  0  0  0  0  0  0  0  0  0  0  0
    2.0162    3.1325    0.0000 H   0  0  0  0  0  0  0  0  0  0  0  0
    2.7308    3.5451    0.0000 H   0  0  0  0  0  0  0  0  0  0  0  0
    1.8041    3.0101    0.0000 H   0  0  0  0  0  0  0  0  0  0  0  0
    3.8667    0.6456    0.0000 H   0  0  0  0  0  0  0  0  0  0  0  0
    4.7934    1.1806    0.0000 H   0  0  0  0  0  0  0  0  0  0  0  0
    3.8667   -2.0745    0.0000 H   0  0  0  0  0  0  0  0  0  0  0  0
    4.7934   -2.6095    0.0000 H   0  0  0  0  0  0  0  0  0  0  0  0
    6.1534    0.2121    0.0000 H   0  0  0  0  0  0  0  0  0  0  0  0
    6.6884   -0.7145    0.0000 H   0  0  0  0  0  0  0  0  0  0  0  0
    6.4345   -0.0119    0.0000 H   0  0  0  0  0  0  0  0  0  0  0  0
    5.5078    1.5931    0.0000 H   0  0  0  0  0  0  0  0  0  0  0  0
    6.4344    1.0581    0.0000 H   0  0  0  0  0  0  0  0  0  0  0  0
    5.5078   -3.0220    0.0000 H   0  0  0  0  0  0  0  0  0  0  0  0
    6.4345   -1.4170    0.0000 H   0  0  0  0  0  0  0  0  0  0  0  0
    6.4344   -2.4870    0.0000 H   0  0  0  0  0  0  0  0  0  0  0  0
    5.4959   -2.3556    0.0000 H   0  0  0  0  0  0  0  0  0  0  0  0
    7.1009   -1.4290    0.0000 H   0  0  0  0  0  0  0  0  0  0  0  0
    6.5659   -2.3557    0.0000 H   0  0  0  0  0  0  0  0  0  0  0  0
    4.3390   -0.7215    0.0000 H   0  0  0  0  0  0  0  0  0  0  0  0
    1.1226   -0.7215    0.0000 H   0  0  0  0  0  0  0  0  0  0  0  0
    4.3391   -2.5785    0.0000 H   0  0  0  0  0  0  0  0  0  0  0  0
    1.1225   -2.5785    0.0000 H   0  0  0  0  0  0  0  0  0  0  0  0
    2.7308   -3.5071    0.0000 H   0  0  0  0  0  0  0  0  0  0  0  0
  1  4  1  0  0  0  0
  1 24  1  0  0  0  0
  2  6  1  0  0  0  0
  2 12  1  0  0  0  0
  2 13  1  0  0  0  0
  2 14  1  0  0  0  0
  3  4  1  0  0  0  0
  3  7  1  0  0  0  0
  3  8  1  0  0  0  0
  3 25  1  0  0  0  0
  4  5  1  0  0  0  0
  4 15  1  0  0  0  0
  5  6  1  0  0  0  0
  5 26  1  0  0  0  0
  5 27  1  0  0  0  0
  6 28  1  0  0  0  0
  6 29  1  0  0  0  0
  7  9  1  0  0  0  0
  7 30  1  0  0  0  0
  7 31  1  0  0  0  0
  8 10  1  0  0  0  0
  8 32  1  0  0  0  0
  8 33  1  0  0  0  0
  9 11  1  0  0  0  0
  9 34  1  0  0  0  0
  9 35  1  0  0  0  0
 10 11  1  0  0  0  0
 10 36  1  0  0  0  0
 10 37  1  0  0  0  0
 11 38  1  0  0  0  0
 11 39  1  0  0  0  0
 12 16  1  0  0  0  0
 12 40  1  0  0  0  0
 12 41  1  0  0  0  0
 13 17  1  0  0  0  0
 13 42  1  0  0  0  0
 13 43  1  0  0  0  0
 14 18  1  0  0  0  0
 14 44  1  0  0  0  0
 14 45  1  0  0  0  0
 15 19  2  0  0  0  0
 15 20  1  0  0  0  0
 16 46  1  0  0  0  0
 16 47  1  0  0  0  0
 16 48  1  0  0  0  0
 17 49  1  0  0  0  0
 17 50  1  0  0  0  0
 17 51  1  0  0  0  0
 18 52  1  0  0  0  0
 18 53  1  0  0  0  0
 18 54  1  0  0  0  0
 19 21  1  0  0  0  0
 19 55  1  0  0  0  0
 20 22  2  0  0  0  0
 20 56  1  0  0  0  0
 21 23  2  0  0  0  0
 21 57  1  0  0  0  0
 22 23  1  0  0  0  0
 22 58  1  0  0  0  0
 23 59  1  0  0  0  0
M  CHG  1   2   1
M  END
>  <DRUGBANK_ID>
DB00505

>  <SECONDARY_ACCESSION_NUMBERS>
APRD00286

>  <COMMON_NAME>
Tridihexethyl

>  <CAS_NUMBER>
60-49-1

>  <UNII>
7HE50A367X

$$$$
