
 OpenBabel10282417072D

 52 56  0  0  0  0  0  0  0  0999 V2000
    2.9272    3.3466    0.0000 C   0  0  0  0  0  0  0  0  0  0  0  0
    3.4728    3.9654    0.0000 C   0  0  0  0  0  0  0  0  0  0  0  0
    3.2097    4.7473    0.0000 C   0  0  0  0  0  0  0  0  0  0  0  0
    3.7552    5.3661    0.0000 C   0  0  0  0  0  0  0  0  0  0  0  0
    4.5640    5.2031    0.0000 C   0  0  0  0  0  0  0  0  0  0  0  0
    4.8271    4.4212    0.0000 C   0  0  0  0  0  0  0  0  0  0  0  0
    4.2815    3.8023    0.0000 C   0  0  0  0  0  0  0  0  0  0  0  0
    4.5447    3.0204    0.0000 N   0  0  0  0  0  0  0  0  0  0  0  0
    5.3319    2.7737    0.0000 C   0  0  0  0  0  0  0  0  0  0  0  0
    5.9942    3.2656    0.0000 O   0  0  0  0  0  0  0  0  0  0  0  0
    5.3406    1.9488    0.0000 C   0  0  0  0  0  0  0  0  0  0  0  0
    5.9594    1.4032    0.0000 C   0  0  0  0  0  0  0  0  0  0  0  0
    5.7963    0.5945    0.0000 C   0  0  0  0  0  0  0  0  0  0  0  0
    5.0144    0.3313    0.0000 C   0  0  0  0  0  0  0  0  0  0  0  0
    4.3956    0.8769    0.0000 C   0  0  0  0  0  0  0  0  0  0  0  0
    4.5586    1.6856    0.0000 C   0  0  0  0  0  0  0  0  0  0  0  0
    4.0668    2.3479    0.0000 C   0  0  3  0  0  0  0  0  0  0  0  0
    3.3523    1.9354    0.0000 C   0  0  0  0  0  0  0  0  0  0  0  0
    3.3523    1.1104    0.0000 C   0  0  0  0  0  0  0  0  0  0  0  0
    2.6378    0.6979    0.0000 C   0  0  0  0  0  0  0  0  0  0  0  0
    1.9233    1.1104    0.0000 C   0  0  0  0  0  0  0  0  0  0  0  0
    1.9233    1.9354    0.0000 C   0  0  0  0  0  0  0  0  0  0  0  0
    2.6378    2.3479    0.0000 C   0  0  0  0  0  0  0  0  0  0  0  0
    1.1387    2.1904    0.0000 N   0  0  0  0  0  0  0  0  0  0  0  0
    0.6538    1.5229    0.0000 C   0  0  0  0  0  0  0  0  0  0  0  0
    1.1387    0.8555    0.0000 N   0  0  0  0  0  0  0  0  0  0  0  0
   -0.1712    1.5229    0.0000 N   0  0  0  0  0  0  0  0  0  0  0  0
   -0.5837    0.8085    0.0000 C   0  0  0  0  0  0  0  0  0  0  0  0
   -0.1712    0.0940    0.0000 O   0  0  0  0  0  0  0  0  0  0  0  0
   -1.4087    0.8085    0.0000 O   0  0  0  0  0  0  0  0  0  0  0  0
   -1.8212    0.0940    0.0000 C   0  0  0  0  0  0  0  0  0  0  0  0
    3.3438    2.7454    0.0000 O   0  0  0  0  0  0  0  0  0  0  0  0
    5.1095    5.8219    0.0000 Cl  0  0  0  0  0  0  0  0  0  0  0  0
    1.8783    3.5581    0.0000 H   0  0  0  0  0  0  0  0  0  0  0  0
    3.2684    2.3325    0.0000 H   0  0  0  0  0  0  0  0  0  0  0  0
    2.2196    2.5440    0.0000 H   0  0  0  0  0  0  0  0  0  0  0  0
    2.1981    4.9513    0.0000 H   0  0  0  0  0  0  0  0  0  0  0  0
    3.4260    6.3442    0.0000 H   0  0  0  0  0  0  0  0  0  0  0  0
    5.8387    4.2172    0.0000 H   0  0  0  0  0  0  0  0  0  0  0  0
    6.9375    1.7323    0.0000 H   0  0  0  0  0  0  0  0  0  0  0  0
    6.5704   -0.0880    0.0000 H   0  0  0  0  0  0  0  0  0  0  0  0
    4.8104   -0.6803    0.0000 H   0  0  0  0  0  0  0  0  0  0  0  0
    3.4175    0.5477    0.0000 H   0  0  0  0  0  0  0  0  0  0  0  0
    4.2460    0.5944    0.0000 H   0  0  0  0  0  0  0  0  0  0  0  0
    2.6378   -0.3341    0.0000 H   0  0  0  0  0  0  0  0  0  0  0  0
    2.6378    3.3799    0.0000 H   0  0  0  0  0  0  0  0  0  0  0  0
    0.8345   -0.0808    0.0000 H   0  0  0  0  0  0  0  0  0  0  0  0
   -0.6634    2.3755    0.0000 H   0  0  0  0  0  0  0  0  0  0  0  0
   -2.8912    0.0940    0.0000 H   0  0  0  0  0  0  0  0  0  0  0  0
   -1.2862   -0.8326    0.0000 H   0  0  0  0  0  0  0  0  0  0  0  0
   -2.3562   -0.8327    0.0000 H   0  0  0  0  0  0  0  0  0  0  0  0
    3.3235    3.7152    0.0000 H   0  0  0  0  0  0  0  0  0  0  0  0
  1  2  1  0  0  0  0
  1 34  1  0  0  0  0
  1 35  1  0  0  0  0
  1 36  1  0  0  0  0
  2  3  2  0  0  0  0
  2  7  1  0  0  0  0
  3  4  1  0  0  0  0
  3 37  1  0  0  0  0
  4  5  2  0  0  0  0
  4 38  1  0  0  0  0
  5  6  1  0  0  0  0
  5 33  1  0  0  0  0
  6  7  2  0  0  0  0
  6 39  1  0  0  0  0
  7  8  1  0  0  0  0
  8  9  1  0  0  0  0
  8 17  1  0  0  0  0
  9 10  2  0  0  0  0
  9 11  1  0  0  0  0
 11 12  2  0  0  0  0
 11 16  1  0  0  0  0
 12 13  1  0  0  0  0
 12 40  1  0  0  0  0
 13 14  2  0  0  0  0
 13 41  1  0  0  0  0
 14 15  1  0  0  0  0
 14 42  1  0  0  0  0
 15 16  2  0  0  0  0
 15 43  1  0  0  0  0
 16 17  1  0  0  0  0
 17 18  1  0  0  0  0
 17 32  1  0  0  0  0
 18 19  2  0  0  0  0
 18 23  1  0  0  0  0
 19 20  1  0  0  0  0
 19 44  1  0  0  0  0
 20 21  2  0  0  0  0
 20 45  1  0  0  0  0
 21 22  1  0  0  0  0
 21 26  1  0  0  0  0
 22 23  2  0  0  0  0
 22 24  1  0  0  0  0
 23 46  1  0  0  0  0
 24 25  2  0  0  0  0
 25 26  1  0  0  0  0
 25 27  1  0  0  0  0
 26 47  1  0  0  0  0
 27 28  1  0  0  0  0
 27 48  1  0  0  0  0
 28 29  2  0  0  0  0
 28 30  1  0  0  0  0
 30 31  1  0  0  0  0
 31 49  1  0  0  0  0
 31 50  1  0  0  0  0
 31 51  1  0  0  0  0
 32 52  1  0  0  0  0
M  END
>  <DRUGBANK_ID>
DB12854

>  <COMMON_NAME>
BMS-908662

>  <CAS_NUMBER>
870603-16-0

>  <UNII>
DW2NWI3TFN

$$$$
