PY1
 OpenBabel10282417072D

 33 36  0  0  0  0  0  0  0  0999 V2000
    0.3783   -0.6196    0.0000 C   0  0  0  0  0  0  0  0  0  0  0  0
   -0.2892   -1.1045    0.0000 C   0  0  0  0  0  0  0  0  0  0  0  0
   -0.0342   -1.8891    0.0000 N   0  0  0  0  0  0  0  0  0  0  0  0
    0.7908   -1.8891    0.0000 N   0  0  0  0  0  0  0  0  0  0  0  0
    1.0457   -1.1045    0.0000 C   0  0  0  0  0  0  0  0  0  0  0  0
    0.3783    0.2054    0.0000 C   0  0  0  0  0  0  0  0  0  0  0  0
   -1.0738   -0.8496    0.0000 C   0  0  0  0  0  0  0  0  0  0  0  0
   -1.2453   -0.0426    0.0000 N   0  0  0  0  0  0  0  0  0  0  0  0
   -2.0300    0.2124    0.0000 C   0  0  0  0  0  0  0  0  0  0  0  0
   -2.6430   -0.3397    0.0000 C   0  0  0  0  0  0  0  0  0  0  0  0
   -2.4715   -1.1466    0.0000 C   0  0  0  0  0  0  0  0  0  0  0  0
   -1.6869   -1.4016    0.0000 C   0  0  0  0  0  0  0  0  0  0  0  0
    1.0927    0.6179    0.0000 C   0  0  0  0  0  0  0  0  0  0  0  0
    1.0927    1.4429    0.0000 C   0  0  0  0  0  0  0  0  0  0  0  0
    0.3783    1.8554    0.0000 N   0  0  0  0  0  0  0  0  0  0  0  0
   -0.3362    1.4429    0.0000 C   0  0  0  0  0  0  0  0  0  0  0  0
   -0.3362    0.6179    0.0000 C   0  0  0  0  0  0  0  0  0  0  0  0
    1.8072    0.2054    0.0000 C   0  0  0  0  0  0  0  0  0  0  0  0
    2.5217    0.6179    0.0000 C   0  0  0  0  0  0  0  0  0  0  0  0
    2.5217    1.4429    0.0000 C   0  0  0  0  0  0  0  0  0  0  0  0
    1.8072    1.8554    0.0000 C   0  0  0  0  0  0  0  0  0  0  0  0
    1.3695   -2.6856    0.0000 H   0  0  0  0  0  0  0  0  0  0  0  0
    2.0272   -0.7856    0.0000 H   0  0  0  0  0  0  0  0  0  0  0  0
   -2.2446    1.2218    0.0000 H   0  0  0  0  0  0  0  0  0  0  0  0
   -3.6245   -0.0209    0.0000 H   0  0  0  0  0  0  0  0  0  0  0  0
   -3.2385   -1.8371    0.0000 H   0  0  0  0  0  0  0  0  0  0  0  0
   -1.4724   -2.4111    0.0000 H   0  0  0  0  0  0  0  0  0  0  0  0
   -1.2299    1.9589    0.0000 H   0  0  0  0  0  0  0  0  0  0  0  0
   -1.2299    0.1019    0.0000 H   0  0  0  0  0  0  0  0  0  0  0  0
    1.8072   -0.8266    0.0000 H   0  0  0  0  0  0  0  0  0  0  0  0
    3.4154    0.1019    0.0000 H   0  0  0  0  0  0  0  0  0  0  0  0
    3.4154    1.9589    0.0000 H   0  0  0  0  0  0  0  0  0  0  0  0
    1.8072    2.8874    0.0000 H   0  0  0  0  0  0  0  0  0  0  0  0
  1  2  1  0  0  0  0
  1  5  2  0  0  0  0
  1  6  1  0  0  0  0
  2  3  2  0  0  0  0
  2  7  1  0  0  0  0
  3  4  1  0  0  0  0
  4  5  1  0  0  0  0
  4 22  1  0  0  0  0
  5 23  1  0  0  0  0
  6 13  2  0  0  0  0
  6 17  1  0  0  0  0
  7  8  2  0  0  0  0
  7 12  1  0  0  0  0
  8  9  1  0  0  0  0
  9 10  2  0  0  0  0
  9 24  1  0  0  0  0
 10 11  1  0  0  0  0
 10 25  1  0  0  0  0
 11 12  2  0  0  0  0
 11 26  1  0  0  0  0
 12 27  1  0  0  0  0
 13 14  1  0  0  0  0
 13 18  1  0  0  0  0
 14 15  2  0  0  0  0
 14 21  1  0  0  0  0
 15 16  1  0  0  0  0
 16 17  2  0  0  0  0
 16 28  1  0  0  0  0
 17 29  1  0  0  0  0
 18 19  2  0  0  0  0
 18 30  1  0  0  0  0
 19 20  1  0  0  0  0
 19 31  1  0  0  0  0
 20 21  2  0  0  0  0
 20 32  1  0  0  0  0
 21 33  1  0  0  0  0
M  END
>  <DRUGBANK_ID>
DB03921

>  <SECONDARY_ACCESSION_NUMBERS>
EXPT02712

>  <COMMON_NAME>
4-(3-Pyridin-2-Yl-1h-Pyrazol-4-Yl)Quinoline

$$$$
