
 OpenBabel10282417072D

 78 81  0  0  0  0  0  0  0  0999 V2000
    4.6440   -1.6500    0.0000 C   0  0  0  0  0  0  0  0  0  0  0  0
    3.2151   -1.6500    0.0000 C   0  0  0  0  0  0  0  0  0  0  0  0
    4.6440   -0.8250    0.0000 C   0  0  0  0  0  0  0  0  0  0  0  0
    3.2151   -0.8250    0.0000 C   0  0  0  0  0  0  0  0  0  0  0  0
   -3.2151    2.8875    0.0000 C   0  0  0  0  0  0  0  0  0  0  0  0
    2.5006    2.8875    0.0000 C   0  0  0  0  0  0  0  0  0  0  0  0
   -0.3572    2.8875    0.0000 C   0  0  0  0  0  0  0  0  0  0  0  0
    3.9295   -2.0625    0.0000 C   0  0  0  0  0  0  0  0  0  0  0  0
    3.9295   -0.4125    0.0000 C   0  0  0  0  0  0  0  0  0  0  0  0
   -3.2151    2.0625    0.0000 C   0  0  2  0  0  0  0  0  0  0  0  0
    2.5006    2.0625    0.0000 C   0  0  3  0  0  0  0  0  0  0  0  0
   -0.3572    2.0625    0.0000 C   0  0  2  0  0  0  0  0  0  0  0  0
   -3.9295    1.6500    0.0000 C   0  0  2  0  0  0  0  0  0  0  0  0
    1.7861    1.6500    0.0000 C   0  0  3  0  0  0  0  0  0  0  0  0
   -1.0717    1.6500    0.0000 C   0  0  2  0  0  0  0  0  0  0  0  0
   -3.9295    0.8250    0.0000 C   0  0  1  0  0  0  0  0  0  0  0  0
   -3.2151    0.4125    0.0000 C   0  0  2  0  0  0  0  0  0  0  0  0
    2.5006    0.4125    0.0000 C   0  0  3  0  0  0  0  0  0  0  0  0
   -0.3572    0.4125    0.0000 C   0  0  2  0  0  0  0  0  0  0  0  0
    1.7861    0.8250    0.0000 C   0  0  3  0  0  0  0  0  0  0  0  0
   -1.0717    0.8250    0.0000 C   0  0  1  0  0  0  0  0  0  0  0  0
    3.2151    0.8250    0.0000 C   0  0  3  0  0  0  0  0  0  0  0  0
    0.3572    0.8250    0.0000 C   0  0  1  0  0  0  0  0  0  0  0  0
   -2.5006    0.8250    0.0000 C   0  0  1  0  0  0  0  0  0  0  0  0
    3.9295   -2.8875    0.0000 N   0  0  0  0  0  0  0  0  0  0  0  0
   -3.9295    3.3000    0.0000 O   0  0  0  0  0  0  0  0  0  0  0  0
    3.2151    3.3000    0.0000 O   0  0  0  0  0  0  0  0  0  0  0  0
    0.3572    3.3000    0.0000 O   0  0  0  0  0  0  0  0  0  0  0  0
   -4.6440    2.0625    0.0000 O   0  0  0  0  0  0  0  0  0  0  0  0
    1.0717    2.0625    0.0000 O   0  0  0  0  0  0  0  0  0  0  0  0
   -1.7861    2.0625    0.0000 O   0  0  0  0  0  0  0  0  0  0  0  0
   -4.6440    0.4125    0.0000 O   0  0  0  0  0  0  0  0  0  0  0  0
   -3.2151   -0.4125    0.0000 O   0  0  0  0  0  0  0  0  0  0  0  0
    2.5006   -0.4125    0.0000 O   0  0  0  0  0  0  0  0  0  0  0  0
   -0.3572   -0.4125    0.0000 O   0  0  0  0  0  0  0  0  0  0  0  0
    4.6440   -3.3000    0.0000 O   0  0  0  0  0  0  0  0  0  0  0  0
    3.2151   -3.3000    0.0000 O   0  0  0  0  0  0  0  0  0  0  0  0
    3.9295    0.4125    0.0000 O   0  0  0  0  0  0  0  0  0  0  0  0
    3.2151    1.6500    0.0000 O   0  0  0  0  0  0  0  0  0  0  0  0
    0.3572    1.6500    0.0000 O   0  0  0  0  0  0  0  0  0  0  0  0
   -2.5006    1.6500    0.0000 O   0  0  0  0  0  0  0  0  0  0  0  0
    1.0717    0.4125    0.0000 O   0  0  0  0  0  0  0  0  0  0  0  0
   -1.7861    0.4125    0.0000 S   0  0  0  0  0  0  0  0  0  0  0  0
   -3.9295    2.4750    0.0000 H   0  0  0  0  0  0  0  0  0  0  0  0
    1.7861    2.4750    0.0000 H   0  0  0  0  0  0  0  0  0  0  0  0
   -1.0717    2.4750    0.0000 H   0  0  0  0  0  0  0  0  0  0  0  0
   -4.6440    1.2375    0.0000 H   0  0  0  0  0  0  0  0  0  0  0  0
    1.0717    1.2375    0.0000 H   0  0  0  0  0  0  0  0  0  0  0  0
   -1.7861    1.2375    0.0000 H   0  0  0  0  0  0  0  0  0  0  0  0
   -3.2151    1.2375    0.0000 H   0  0  0  0  0  0  0  0  0  0  0  0
   -3.9295    0.0000    0.0000 H   0  0  0  0  0  0  0  0  0  0  0  0
    1.7861    0.0000    0.0000 H   0  0  0  0  0  0  0  0  0  0  0  0
   -1.0717    0.0000    0.0000 H   0  0  0  0  0  0  0  0  0  0  0  0
    2.5006    1.2375    0.0000 H   0  0  0  0  0  0  0  0  0  0  0  0
   -0.3572    1.2375    0.0000 H   0  0  0  0  0  0  0  0  0  0  0  0
    3.2151    0.0000    0.0000 H   0  0  0  0  0  0  0  0  0  0  0  0
    0.3572    0.0000    0.0000 H   0  0  0  0  0  0  0  0  0  0  0  0
   -2.5006    0.0000    0.0000 H   0  0  0  0  0  0  0  0  0  0  0  0
    5.5377   -2.1660    0.0000 H   0  0  0  0  0  0  0  0  0  0  0  0
    2.3214   -2.1660    0.0000 H   0  0  0  0  0  0  0  0  0  0  0  0
    5.5377   -0.3090    0.0000 H   0  0  0  0  0  0  0  0  0  0  0  0
    2.3214   -0.3090    0.0000 H   0  0  0  0  0  0  0  0  0  0  0  0
   -2.2884    3.4225    0.0000 H   0  0  0  0  0  0  0  0  0  0  0  0
   -3.2151    3.9575    0.0000 H   0  0  0  0  0  0  0  0  0  0  0  0
    1.5740    3.4225    0.0000 H   0  0  0  0  0  0  0  0  0  0  0  0
    2.5006    3.9575    0.0000 H   0  0  0  0  0  0  0  0  0  0  0  0
   -1.2839    3.4225    0.0000 H   0  0  0  0  0  0  0  0  0  0  0  0
   -0.3572    3.9575    0.0000 H   0  0  0  0  0  0  0  0  0  0  0  0
   -3.9295    4.2700    0.0000 H   0  0  0  0  0  0  0  0  0  0  0  0
    4.0551    2.8150    0.0000 H   0  0  0  0  0  0  0  0  0  0  0  0
    1.1973    2.8150    0.0000 H   0  0  0  0  0  0  0  0  0  0  0  0
   -4.6440    3.0325    0.0000 H   0  0  0  0  0  0  0  0  0  0  0  0
    1.0717    3.0325    0.0000 H   0  0  0  0  0  0  0  0  0  0  0  0
   -1.7861    3.0325    0.0000 H   0  0  0  0  0  0  0  0  0  0  0  0
   -5.4840    0.8975    0.0000 H   0  0  0  0  0  0  0  0  0  0  0  0
   -4.0551   -0.8975    0.0000 H   0  0  0  0  0  0  0  0  0  0  0  0
    1.6606   -0.8975    0.0000 H   0  0  0  0  0  0  0  0  0  0  0  0
   -1.1972   -0.8975    0.0000 H   0  0  0  0  0  0  0  0  0  0  0  0
  1 59  1  0  0  0  0
  2 60  1  0  0  0  0
  3  1  1  0  0  0  0
  3 61  1  0  0  0  0
  4  2  2  0  0  0  0
  4 62  1  0  0  0  0
  5 63  1  0  0  0  0
  5 64  1  0  0  0  0
  6 65  1  0  0  0  0
  6 66  1  0  0  0  0
  7 67  1  0  0  0  0
  7 68  1  0  0  0  0
  8  1  2  0  0  0  0
  8  2  1  0  0  0  0
  9  3  2  0  0  0  0
  9  4  1  0  0  0  0
 10  5  1  0  0  0  0
 10 41  1  0  0  0  0
 10 44  1  6  0  0  0
 11  6  1  0  0  0  0
 12  7  1  0  0  0  0
 12 40  1  0  0  0  0
 12 46  1  6  0  0  0
 13 10  1  0  0  0  0
 13 16  1  0  0  0  0
 13 29  1  0  0  0  0
 13 47  1  1  0  0  0
 14 11  1  0  0  0  0
 15 12  1  0  0  0  0
 15 21  1  0  0  0  0
 15 31  1  0  0  0  0
 15 49  1  1  0  0  0
 16 17  1  0  0  0  0
 16 32  1  0  0  0  0
 16 50  1  6  0  0  0
 17 24  1  0  0  0  0
 17 33  1  0  0  0  0
 17 51  1  1  0  0  0
 19 23  1  0  0  0  0
 19 35  1  0  0  0  0
 19 53  1  1  0  0  0
 20 14  1  0  0  0  0
 20 18  1  0  0  0  0
 21 19  1  0  0  0  0
 21 43  1  0  0  0  0
 21 55  1  6  0  0  0
 22 18  1  0  0  0  0
 23 40  1  0  0  0  0
 23 42  1  0  0  0  0
 23 57  1  6  0  0  0
 24 41  1  0  0  0  0
 24 43  1  0  0  0  0
 24 58  1  6  0  0  0
 25  8  1  0  0  0  0
 26  5  1  0  0  0  0
 26 69  1  0  0  0  0
 27  6  1  0  0  0  0
 27 70  1  0  0  0  0
 28  7  1  0  0  0  0
 28 71  1  0  0  0  0
 29 72  1  0  0  0  0
 30 14  1  0  0  0  0
 30 73  1  0  0  0  0
 31 74  1  0  0  0  0
 32 75  1  0  0  0  0
 33 76  1  0  0  0  0
 34 18  1  0  0  0  0
 34 77  1  0  0  0  0
 35 78  1  0  0  0  0
 36 25  2  0  0  0  0
 37 25  2  0  0  0  0
 38  9  1  0  0  0  0
 38 22  1  0  0  0  0
 39 11  1  0  0  0  0
 39 22  1  0  0  0  0
 42 20  1  0  0  0  0
 45 11  1  0  0  0  0
 48 14  1  0  0  0  0
 52 18  1  0  0  0  0
 54 20  1  0  0  0  0
 56 22  1  0  0  0  0
M  END
>  <DRUGBANK_ID>
DB03990

>  <SECONDARY_ACCESSION_NUMBERS>
EXPT02001

>  <COMMON_NAME>
4'-nitrophenyl-3i-thiolaminaritrioside

$$$$
