
 OpenBabel10282417072D

 72 77  0  0  0  0  0  0  0  0999 V2000
    0.1536    1.3672    0.0000 C   0  0  0  0  0  0  0  0  0  0  0  0
   -0.3984    0.7541    0.0000 C   0  0  0  0  0  0  0  0  0  0  0  0
   -0.1435   -0.0305    0.0000 N   0  0  0  0  0  0  0  0  0  0  0  0
   -0.6284   -0.6979    0.0000 C   0  0  0  0  0  0  0  0  0  0  0  0
   -0.1435   -1.3654    0.0000 N   0  0  0  0  0  0  0  0  0  0  0  0
    0.6411   -1.1104    0.0000 C   0  0  0  0  0  0  0  0  0  0  0  0
    0.6411   -0.2854    0.0000 C   0  0  0  0  0  0  0  0  0  0  0  0
    1.3556    0.1271    0.0000 C   0  0  0  0  0  0  0  0  0  0  0  0
    2.0701   -0.2854    0.0000 C   0  0  0  0  0  0  0  0  0  0  0  0
    2.7845    0.1271    0.0000 O   0  0  0  0  0  0  0  0  0  0  0  0
    3.4990   -0.2854    0.0000 C   0  0  0  0  0  0  0  0  0  0  0  0
    4.2135    0.1271    0.0000 C   0  0  0  0  0  0  0  0  0  0  0  0
    4.9279   -0.2854    0.0000 C   0  0  0  0  0  0  0  0  0  0  0  0
    5.6424    0.1271    0.0000 N   0  0  0  0  0  0  0  0  0  0  0  0
    6.3569   -0.2854    0.0000 C   0  0  0  0  0  0  0  0  0  0  0  0
    6.3569   -1.1104    0.0000 O   0  0  0  0  0  0  0  0  0  0  0  0
    7.0714    0.1271    0.0000 C   0  0  0  0  0  0  0  0  0  0  0  0
    7.0714    0.9521    0.0000 C   0  0  0  0  0  0  0  0  0  0  0  0
    7.7858    1.3646    0.0000 C   0  0  0  0  0  0  0  0  0  0  0  0
    8.5003    0.9521    0.0000 C   0  0  0  0  0  0  0  0  0  0  0  0
    9.2148    1.3646    0.0000 O   0  0  0  0  0  0  0  0  0  0  0  0
    9.9292    0.9521    0.0000 C   0  0  0  0  0  0  0  0  0  0  0  0
   10.6437    1.3646    0.0000 C   0  0  0  0  0  0  0  0  0  0  0  0
   11.3582    0.9521    0.0000 N   0  0  0  0  0  0  0  0  0  0  0  0
   12.0726    1.3646    0.0000 C   0  0  0  0  0  0  0  0  0  0  0  0
   12.7871    0.9521    0.0000 C   0  0  0  0  0  0  0  0  0  0  0  0
   12.7871    0.1271    0.0000 O   0  0  0  0  0  0  0  0  0  0  0  0
   12.0726   -0.2854    0.0000 C   0  0  0  0  0  0  0  0  0  0  0  0
   11.3582    0.1271    0.0000 C   0  0  0  0  0  0  0  0  0  0  0  0
    8.5003    0.1271    0.0000 C   0  0  0  0  0  0  0  0  0  0  0  0
    7.7858   -0.2854    0.0000 C   0  0  0  0  0  0  0  0  0  0  0  0
    4.9279   -1.1104    0.0000 C   0  0  0  0  0  0  0  0  0  0  0  0
    4.2135   -1.5229    0.0000 C   0  0  0  0  0  0  0  0  0  0  0  0
    3.4990   -1.1104    0.0000 C   0  0  0  0  0  0  0  0  0  0  0  0
    2.0701   -1.1104    0.0000 N   0  0  0  0  0  0  0  0  0  0  0  0
    1.3556   -1.5229    0.0000 C   0  0  0  0  0  0  0  0  0  0  0  0
   -1.4534   -0.6979    0.0000 C   0  0  0  0  0  0  0  0  0  0  0  0
   -1.9384   -1.3654    0.0000 N   0  0  0  0  0  0  0  0  0  0  0  0
   -2.7230   -1.1104    0.0000 O   0  0  0  0  0  0  0  0  0  0  0  0
   -2.7230   -0.2854    0.0000 N   0  0  0  0  0  0  0  0  0  0  0  0
   -1.9384   -0.0305    0.0000 C   0  0  0  0  0  0  0  0  0  0  0  0
   -1.6834    0.7541    0.0000 N   0  0  0  0  0  0  0  0  0  0  0  0
    1.2002    1.1448    0.0000 H   0  0  0  0  0  0  0  0  0  0  0  0
   -0.1771    2.3848    0.0000 H   0  0  0  0  0  0  0  0  0  0  0  0
    0.8695    2.1624    0.0000 H   0  0  0  0  0  0  0  0  0  0  0  0
   -1.4450    0.9766    0.0000 H   0  0  0  0  0  0  0  0  0  0  0  0
   -1.1144   -0.0411    0.0000 H   0  0  0  0  0  0  0  0  0  0  0  0
    1.3556    1.1591    0.0000 H   0  0  0  0  0  0  0  0  0  0  0  0
    4.2135    1.1591    0.0000 H   0  0  0  0  0  0  0  0  0  0  0  0
    5.6424    1.1116    0.0000 H   0  0  0  0  0  0  0  0  0  0  0  0
    6.1777    1.4681    0.0000 H   0  0  0  0  0  0  0  0  0  0  0  0
    7.7858    2.3966    0.0000 H   0  0  0  0  0  0  0  0  0  0  0  0
    9.9292   -0.1179    0.0000 H   0  0  0  0  0  0  0  0  0  0  0  0
   10.8558    0.4171    0.0000 H   0  0  0  0  0  0  0  0  0  0  0  0
   10.6437    2.4346    0.0000 H   0  0  0  0  0  0  0  0  0  0  0  0
   11.5703    1.8996    0.0000 H   0  0  0  0  0  0  0  0  0  0  0  0
   12.0726    2.4346    0.0000 H   0  0  0  0  0  0  0  0  0  0  0  0
   12.9992    1.8996    0.0000 H   0  0  0  0  0  0  0  0  0  0  0  0
   13.7137    1.4871    0.0000 H   0  0  0  0  0  0  0  0  0  0  0  0
   13.7137    0.4171    0.0000 H   0  0  0  0  0  0  0  0  0  0  0  0
   12.0726   -1.3554    0.0000 H   0  0  0  0  0  0  0  0  0  0  0  0
   11.1459   -0.8204    0.0000 H   0  0  0  0  0  0  0  0  0  0  0  0
   10.4315   -0.4079    0.0000 H   0  0  0  0  0  0  0  0  0  0  0  0
   10.4316    0.6621    0.0000 H   0  0  0  0  0  0  0  0  0  0  0  0
    9.3940   -0.3889    0.0000 H   0  0  0  0  0  0  0  0  0  0  0  0
    7.7858   -1.3174    0.0000 H   0  0  0  0  0  0  0  0  0  0  0  0
    5.8216   -1.6264    0.0000 H   0  0  0  0  0  0  0  0  0  0  0  0
    4.2135   -2.5549    0.0000 H   0  0  0  0  0  0  0  0  0  0  0  0
    2.6053   -1.6264    0.0000 H   0  0  0  0  0  0  0  0  0  0  0  0
    1.3556   -2.5549    0.0000 H   0  0  0  0  0  0  0  0  0  0  0  0
   -0.7204    0.9587    0.0000 H   0  0  0  0  0  0  0  0  0  0  0  0
   -2.3421    1.4858    0.0000 H   0  0  0  0  0  0  0  0  0  0  0  0
  1  2  1  0  0  0  0
  1 43  1  0  0  0  0
  1 44  1  0  0  0  0
  1 45  1  0  0  0  0
  2  3  1  0  0  0  0
  2 46  1  0  0  0  0
  2 47  1  0  0  0  0
  3  4  1  0  0  0  0
  3  7  1  0  0  0  0
  4  5  2  0  0  0  0
  4 37  1  0  0  0  0
  5  6  1  0  0  0  0
  6  7  2  0  0  0  0
  6 36  1  0  0  0  0
  7  8  1  0  0  0  0
  8  9  2  0  0  0  0
  8 48  1  0  0  0  0
  9 10  1  0  0  0  0
  9 35  1  0  0  0  0
 10 11  1  0  0  0  0
 11 12  2  0  0  0  0
 11 34  1  0  0  0  0
 12 13  1  0  0  0  0
 12 49  1  0  0  0  0
 13 14  1  0  0  0  0
 13 32  2  0  0  0  0
 14 15  1  0  0  0  0
 14 50  1  0  0  0  0
 15 16  2  0  0  0  0
 15 17  1  0  0  0  0
 17 18  2  0  0  0  0
 17 31  1  0  0  0  0
 18 19  1  0  0  0  0
 18 51  1  0  0  0  0
 19 20  2  0  0  0  0
 19 52  1  0  0  0  0
 20 21  1  0  0  0  0
 20 30  1  0  0  0  0
 21 22  1  0  0  0  0
 22 23  1  0  0  0  0
 22 53  1  0  0  0  0
 22 54  1  0  0  0  0
 23 24  1  0  0  0  0
 23 55  1  0  0  0  0
 23 56  1  0  0  0  0
 24 25  1  0  0  0  0
 24 29  1  0  0  0  0
 25 26  1  0  0  0  0
 25 57  1  0  0  0  0
 25 58  1  0  0  0  0
 26 27  1  0  0  0  0
 26 59  1  0  0  0  0
 26 60  1  0  0  0  0
 27 28  1  0  0  0  0
 28 29  1  0  0  0  0
 28 61  1  0  0  0  0
 28 62  1  0  0  0  0
 29 63  1  0  0  0  0
 29 64  1  0  0  0  0
 30 31  2  0  0  0  0
 30 65  1  0  0  0  0
 31 66  1  0  0  0  0
 32 33  1  0  0  0  0
 32 67  1  0  0  0  0
 33 34  2  0  0  0  0
 33 68  1  0  0  0  0
 34 69  1  0  0  0  0
 35 36  2  0  0  0  0
 36 70  1  0  0  0  0
 37 38  2  0  0  0  0
 37 41  1  0  0  0  0
 38 39  1  0  0  0  0
 39 40  1  0  0  0  0
 40 41  2  0  0  0  0
 41 42  1  0  0  0  0
 42 71  1  0  0  0  0
 42 72  1  0  0  0  0
M  END
>  <DRUGBANK_ID>
DB17030

>  <COMMON_NAME>
GSK-269962A

>  <CAS_NUMBER>
850664-21-0

>  <UNII>
F89KMM7TE2

>  <SYNONYMS>
Benzamide, n-(3-((2-(4-amino-1,2,5-oxadiazol-3-yl)-1-ethyl-1h-imidazo(4,5-c)pyridin-6-yl)oxy)phenyl)-4-(2-(4-morpholinyl)ethoxy)-; N-(3-((2-(4-amino-1,2,5-oxadiazol-3-yl)-1-ethyl-1h-imidazo(4,5-c)pyridin-6-yl)oxy)phenyl)-4-(2-(4-morpholinyl)ethoxy)benzamide

$$$$
