
 OpenBabel10282417072D

 66 67  0  0  0  0  0  0  0  0999 V2000
   -5.7168    0.6198    0.0000 C   0  0  0  0  0  0  0  0  0  0  0  0
   -5.7168   -0.2065    0.0000 C   0  0  0  0  0  0  0  0  0  0  0  0
   -5.0021   -0.6196    0.0000 C   0  0  0  0  0  0  0  0  0  0  0  0
   -4.2887   -0.2065    0.0000 C   0  0  0  0  0  0  0  0  0  0  0  0
   -4.2887    0.6198    0.0000 C   0  0  0  0  0  0  0  0  0  0  0  0
   -5.0021    1.0315    0.0000 C   0  0  0  0  0  0  0  0  0  0  0  0
   -3.5739   -0.6196    0.0000 O   0  0  0  0  0  0  0  0  0  0  0  0
   -2.8604   -0.2065    0.0000 C   0  0  3  0  0  0  0  0  0  0  0  0
   -2.8604    0.6198    0.0000 C   0  0  0  0  0  0  0  0  0  0  0  0
   -3.5739    1.0315    0.0000 C   0  0  0  0  0  0  0  0  0  0  0  0
   -2.1457   -0.6184    0.0000 C   0  0  0  0  0  0  0  0  0  0  0  0
   -1.4309   -0.2065    0.0000 C   0  0  0  0  0  0  0  0  0  0  0  0
   -0.7161   -0.6184    0.0000 C   0  0  0  0  0  0  0  0  0  0  0  0
   -0.0012   -0.2065    0.0000 C   0  0  0  0  0  0  0  0  0  0  0  0
    0.7134   -0.6184    0.0000 C   0  0  0  0  0  0  0  0  0  0  0  0
    1.4282   -0.2065    0.0000 C   0  0  0  0  0  0  0  0  0  0  0  0
    2.1429   -0.6184    0.0000 C   0  0  0  0  0  0  0  0  0  0  0  0
    2.8578   -0.2065    0.0000 C   0  0  0  0  0  0  0  0  0  0  0  0
    3.5726   -0.6184    0.0000 C   0  0  0  0  0  0  0  0  0  0  0  0
    4.2874   -0.2065    0.0000 C   0  0  0  0  0  0  0  0  0  0  0  0
    5.0022   -0.6184    0.0000 C   0  0  0  0  0  0  0  0  0  0  0  0
    5.7169   -0.2065    0.0000 C   0  0  0  0  0  0  0  0  0  0  0  0
    6.4317   -0.6184    0.0000 C   0  0  0  0  0  0  0  0  0  0  0  0
   -0.0012    0.6198    0.0000 C   0  0  0  0  0  0  0  0  0  0  0  0
    2.8578    0.6198    0.0000 C   0  0  0  0  0  0  0  0  0  0  0  0
    5.7169    0.6198    0.0000 C   0  0  0  0  0  0  0  0  0  0  0  0
   -2.8604   -1.0329    0.0000 C   0  0  0  0  0  0  0  0  0  0  0  0
   -6.4317    1.0329    0.0000 O   0  0  0  0  0  0  0  0  0  0  0  0
   -6.6107   -0.7223    0.0000 H   0  0  0  0  0  0  0  0  0  0  0  0
   -5.0017   -1.6516    0.0000 H   0  0  0  0  0  0  0  0  0  0  0  0
   -5.0017    2.0635    0.0000 H   0  0  0  0  0  0  0  0  0  0  0  0
   -1.9338    1.1549    0.0000 H   0  0  0  0  0  0  0  0  0  0  0  0
   -2.8606    1.6898    0.0000 H   0  0  0  0  0  0  0  0  0  0  0  0
   -3.5735    2.1015    0.0000 H   0  0  0  0  0  0  0  0  0  0  0  0
   -2.6472    1.5664    0.0000 H   0  0  0  0  0  0  0  0  0  0  0  0
   -2.1457   -1.6884    0.0000 H   0  0  0  0  0  0  0  0  0  0  0  0
   -1.2193   -1.1538    0.0000 H   0  0  0  0  0  0  0  0  0  0  0  0
   -1.4309    0.8635    0.0000 H   0  0  0  0  0  0  0  0  0  0  0  0
   -0.5045    0.3289    0.0000 H   0  0  0  0  0  0  0  0  0  0  0  0
   -0.7161   -1.6504    0.0000 H   0  0  0  0  0  0  0  0  0  0  0  0
    0.7133   -1.6884    0.0000 H   0  0  0  0  0  0  0  0  0  0  0  0
    1.6398   -1.1538    0.0000 H   0  0  0  0  0  0  0  0  0  0  0  0
    1.4282    0.8635    0.0000 H   0  0  0  0  0  0  0  0  0  0  0  0
    2.3546    0.3288    0.0000 H   0  0  0  0  0  0  0  0  0  0  0  0
    2.1428   -1.6504    0.0000 H   0  0  0  0  0  0  0  0  0  0  0  0
    3.5726   -1.6884    0.0000 H   0  0  0  0  0  0  0  0  0  0  0  0
    4.4990   -1.1538    0.0000 H   0  0  0  0  0  0  0  0  0  0  0  0
    4.2874    0.8635    0.0000 H   0  0  0  0  0  0  0  0  0  0  0  0
    5.2138    0.3289    0.0000 H   0  0  0  0  0  0  0  0  0  0  0  0
    5.0022   -1.6504    0.0000 H   0  0  0  0  0  0  0  0  0  0  0  0
    6.4326   -1.6884    0.0000 H   0  0  0  0  0  0  0  0  0  0  0  0
    7.3579   -0.0826    0.0000 H   0  0  0  0  0  0  0  0  0  0  0  0
    7.3588   -1.1526    0.0000 H   0  0  0  0  0  0  0  0  0  0  0  0
    0.9254    1.1548    0.0000 H   0  0  0  0  0  0  0  0  0  0  0  0
   -0.9278    1.1548    0.0000 H   0  0  0  0  0  0  0  0  0  0  0  0
   -0.0012    1.6898    0.0000 H   0  0  0  0  0  0  0  0  0  0  0  0
    3.7844    1.1548    0.0000 H   0  0  0  0  0  0  0  0  0  0  0  0
    1.9312    1.1548    0.0000 H   0  0  0  0  0  0  0  0  0  0  0  0
    2.8578    1.6898    0.0000 H   0  0  0  0  0  0  0  0  0  0  0  0
    6.6435    1.1548    0.0000 H   0  0  0  0  0  0  0  0  0  0  0  0
    4.7903    1.1548    0.0000 H   0  0  0  0  0  0  0  0  0  0  0  0
    5.7169    1.6898    0.0000 H   0  0  0  0  0  0  0  0  0  0  0  0
   -3.7870   -1.5679    0.0000 H   0  0  0  0  0  0  0  0  0  0  0  0
   -1.9338   -1.5679    0.0000 H   0  0  0  0  0  0  0  0  0  0  0  0
   -2.8604   -2.1029    0.0000 H   0  0  0  0  0  0  0  0  0  0  0  0
   -6.4314    1.9699    0.0000 H   0  0  0  0  0  0  0  0  0  0  0  0
  1  2  2  0  0  0  0
  1  6  1  0  0  0  0
  1 28  1  0  0  0  0
  2  3  1  0  0  0  0
  2 29  1  0  0  0  0
  3  4  2  0  0  0  0
  3 30  1  0  0  0  0
  4  5  1  0  0  0  0
  4  7  1  0  0  0  0
  5  6  2  0  0  0  0
  5 10  1  0  0  0  0
  6 31  1  0  0  0  0
  7  8  1  0  0  0  0
  8  9  1  0  0  0  0
  8 11  1  0  0  0  0
  8 27  1  0  0  0  0
  9 10  1  0  0  0  0
  9 32  1  0  0  0  0
  9 33  1  0  0  0  0
 10 34  1  0  0  0  0
 10 35  1  0  0  0  0
 11 12  1  0  0  0  0
 11 36  1  0  0  0  0
 11 37  1  0  0  0  0
 12 13  1  0  0  0  0
 12 38  1  0  0  0  0
 12 39  1  0  0  0  0
 13 14  2  0  0  0  0
 13 40  1  0  0  0  0
 14 15  1  0  0  0  0
 14 24  1  0  0  0  0
 15 16  1  0  0  0  0
 15 41  1  0  0  0  0
 15 42  1  0  0  0  0
 16 17  1  0  0  0  0
 16 43  1  0  0  0  0
 16 44  1  0  0  0  0
 17 18  2  0  0  0  0
 17 45  1  0  0  0  0
 18 19  1  0  0  0  0
 18 25  1  0  0  0  0
 19 20  1  0  0  0  0
 19 46  1  0  0  0  0
 19 47  1  0  0  0  0
 20 21  1  0  0  0  0
 20 48  1  0  0  0  0
 20 49  1  0  0  0  0
 21 22  2  0  0  0  0
 21 50  1  0  0  0  0
 22 23  1  0  0  0  0
 22 26  1  0  0  0  0
 23 51  1  0  0  0  0
 23 52  1  0  0  0  0
 23 53  1  0  0  0  0
 24 54  1  0  0  0  0
 24 55  1  0  0  0  0
 24 56  1  0  0  0  0
 25 57  1  0  0  0  0
 25 58  1  0  0  0  0
 25 59  1  0  0  0  0
 26 60  1  0  0  0  0
 26 61  1  0  0  0  0
 26 62  1  0  0  0  0
 27 63  1  0  0  0  0
 27 64  1  0  0  0  0
 27 65  1  0  0  0  0
 28 66  1  0  0  0  0
M  END
>  <DRUGBANK_ID>
DB12647

>  <COMMON_NAME>
Tocotrienol

>  <CAS_NUMBER>
6829-55-6

>  <UNII>
0867I0N41V

$$$$
