
 OpenBabel10282417072D

 40 43  0  0  0  0  0  0  0  0999 V2000
    1.7862   -0.5634    0.0000 C   0  0  3  0  0  0  0  0  0  0  0  0
    2.5007   -0.1511    0.0000 C   0  0  3  0  0  0  0  0  0  0  0  0
    3.2152   -0.5634    0.0000 C   0  0  0  0  0  0  0  0  0  0  0  0
    3.2152   -1.3885    0.0000 C   0  0  0  0  0  0  0  0  0  0  0  0
    2.5007   -1.8010    0.0000 C   0  0  3  0  0  0  0  0  0  0  0  0
    1.7862   -1.3885    0.0000 C   0  0  0  0  0  0  0  0  0  0  0  0
    2.1637   -0.9760    0.0000 C   0  0  0  0  0  0  0  0  0  0  0  0
    1.0717   -0.1511    0.0000 C   0  0  3  0  0  0  0  0  0  0  0  0
    1.0717    0.6738    0.0000 N   0  0  0  0  0  0  0  0  0  0  0  0
    0.3572    1.0864    0.0000 S   0  0  0  0  0  0  0  0  0  0  0  0
   -0.3572    0.6738    0.0000 C   0  0  0  0  0  0  0  0  0  0  0  0
   -0.3572   -0.1511    0.0000 C   0  0  0  0  0  0  0  0  0  0  0  0
    0.3572   -0.5634    0.0000 N   0  0  0  0  0  0  0  0  0  0  0  0
   -1.0717    1.0864    0.0000 C   0  0  0  0  0  0  0  0  0  0  0  0
   -1.7861    0.6738    0.0000 C   0  0  0  0  0  0  0  0  0  0  0  0
   -1.7861   -0.1511    0.0000 C   0  0  0  0  0  0  0  0  0  0  0  0
   -1.0717   -0.5634    0.0000 C   0  0  0  0  0  0  0  0  0  0  0  0
   -2.5008   -0.5634    0.0000 Cl  0  0  0  0  0  0  0  0  0  0  0  0
   -2.5008    1.0864    0.0000 S   0  0  0  0  0  0  0  0  0  0  0  0
   -0.0552    1.8010    0.0000 O   0  0  0  0  0  0  0  0  0  0  0  0
    0.7696    1.8010    0.0000 O   0  0  0  0  0  0  0  0  0  0  0  0
   -2.0883    1.8010    0.0000 O   0  0  0  0  0  0  0  0  0  0  0  0
   -2.9131    1.8010    0.0000 O   0  0  0  0  0  0  0  0  0  0  0  0
   -3.2152    0.6738    0.0000 N   0  0  0  0  0  0  0  0  0  0  0  0
    2.7128   -1.0985    0.0000 H   0  0  0  0  0  0  0  0  0  0  0  0
    2.5007   -1.2211    0.0000 H   0  0  0  0  0  0  0  0  0  0  0  0
    4.1089   -0.0473    0.0000 H   0  0  0  0  0  0  0  0  0  0  0  0
    4.1089   -1.9045    0.0000 H   0  0  0  0  0  0  0  0  0  0  0  0
    2.5007   -0.7310    0.0000 H   0  0  0  0  0  0  0  0  0  0  0  0
    0.8596   -1.9235    0.0000 H   0  0  0  0  0  0  0  0  0  0  0  0
    1.7862   -2.4585    0.0000 H   0  0  0  0  0  0  0  0  0  0  0  0
    1.0937   -0.9760    0.0000 H   0  0  0  0  0  0  0  0  0  0  0  0
    1.5671   -1.8642    0.0000 H   0  0  0  0  0  0  0  0  0  0  0  0
    1.9983    0.3840    0.0000 H   0  0  0  0  0  0  0  0  0  0  0  0
    1.9551    1.1838    0.0000 H   0  0  0  0  0  0  0  0  0  0  0  0
    0.3572   -1.5479    0.0000 H   0  0  0  0  0  0  0  0  0  0  0  0
   -1.0717    2.1184    0.0000 H   0  0  0  0  0  0  0  0  0  0  0  0
   -1.0717   -1.5954    0.0000 H   0  0  0  0  0  0  0  0  0  0  0  0
   -4.0986    1.1837    0.0000 H   0  0  0  0  0  0  0  0  0  0  0  0
   -3.2150   -0.3462    0.0000 H   0  0  0  0  0  0  0  0  0  0  0  0
  1  2  1  0  0  0  0
  1  6  1  0  0  0  0
  1  8  1  0  0  0  0
  1 25  1  0  0  0  0
  2  3  1  0  0  0  0
  2  7  1  0  0  0  0
  2 26  1  0  0  0  0
  3  4  2  0  0  0  0
  3 27  1  0  0  0  0
  4  5  1  0  0  0  0
  4 28  1  0  0  0  0
  5  6  1  0  0  0  0
  5  7  1  0  0  0  0
  5 29  1  0  0  0  0
  6 30  1  0  0  0  0
  6 31  1  0  0  0  0
  7 32  1  0  0  0  0
  7 33  1  0  0  0  0
  8  9  1  0  0  0  0
  8 13  1  0  0  0  0
  8 34  1  0  0  0  0
  9 10  1  0  0  0  0
  9 35  1  0  0  0  0
 10 11  1  0  0  0  0
 10 20  2  0  0  0  0
 10 21  2  0  0  0  0
 11 12  1  0  0  0  0
 11 14  2  0  0  0  0
 12 13  1  0  0  0  0
 12 17  2  0  0  0  0
 13 36  1  0  0  0  0
 14 15  1  0  0  0  0
 14 37  1  0  0  0  0
 15 16  2  0  0  0  0
 15 19  1  0  0  0  0
 16 17  1  0  0  0  0
 16 18  1  0  0  0  0
 17 38  1  0  0  0  0
 19 22  2  0  0  0  0
 19 23  2  0  0  0  0
 19 24  1  0  0  0  0
 24 39  1  0  0  0  0
 24 40  1  0  0  0  0
M  END
>  <DRUGBANK_ID>
DB00606

>  <SECONDARY_ACCESSION_NUMBERS>
APRD00895; EXPT01082

>  <COMMON_NAME>
Cyclothiazide

>  <CAS_NUMBER>
2259-96-3

>  <UNII>
P71U09G5BW

>  <SYNONYMS>
6-chloro-3-(2-norbornen-5-yl)-7-sulfamyl-3,4-dihydro-1,2,4-benzothiadiazine 1,1-dioxide; 6-chloro-3,4-dihydro-3-(2-norbornen-5-yl)-2H-1,2,4-benzothiadiazine-7-sulfonamide 1,1-dioxide; 6-chloro-3,4-dihydro-3-(2-norbornen-5-yl)-7-sulfamoyl-1,2,4-benzothiadiazine 1,1-dioxide; 6-chloro-3,4-dihydro-3-(5-norbornen-2-yl)-2H-1,2,4-benzothiadiazine-7-sulfonamide 1,1-dioxide; Ciclotiazida; Ciclotiazide; Cyclothiazide; Cyclothiazidum

$$$$
