
 OpenBabel10282417072D

 34 34  0  0  0  0  0  0  0  0999 V2000
    4.5080   -0.2063    0.0000 O   0  0  0  0  0  0  0  0  0  0  0  0
    2.3645   -3.0938    0.0000 O   0  0  0  0  0  0  0  0  0  0  0  0
    3.0791   -0.2063    0.0000 O   0  0  0  0  0  0  0  0  0  0  0  0
    5.9370    3.0938    0.0000 O   0  0  0  0  0  0  0  0  0  0  0  0
    1.6500   -4.3313    0.0000 O   0  5  0  0  0  0  0  0  0  0  0  0
    3.0791   -4.3313    0.0000 O   0  0  0  0  0  0  0  0  0  0  0  0
    4.5080    3.0938    0.0000 N   0  0  0  0  0  0  0  0  0  0  0  0
    2.3645   -3.9188    0.0000 N   0  3  0  0  0  0  0  0  0  0  0  0
    3.0791   -1.8563    0.0000 C   0  0  0  0  0  0  0  0  0  0  0  0
    3.7935   -1.4438    0.0000 C   0  0  0  0  0  0  0  0  0  0  0  0
    3.0791   -2.6813    0.0000 C   0  0  0  0  0  0  0  0  0  0  0  0
    3.7935   -0.6188    0.0000 C   0  0  0  0  0  0  0  0  0  0  0  0
    4.5080    0.6188    0.0000 C   0  0  0  0  0  0  0  0  0  0  0  0
    4.5080    2.2688    0.0000 C   0  0  0  0  0  0  0  0  0  0  0  0
    5.2224    1.0313    0.0000 C   0  0  0  0  0  0  0  0  0  0  0  0
    3.7935    1.0313    0.0000 C   0  0  0  0  0  0  0  0  0  0  0  0
    5.2224    1.8563    0.0000 C   0  0  0  0  0  0  0  0  0  0  0  0
    3.7935    1.8563    0.0000 C   0  0  0  0  0  0  0  0  0  0  0  0
    5.2224    3.5063    0.0000 C   0  0  0  0  0  0  0  0  0  0  0  0
    5.2224    4.3313    0.0000 C   0  0  0  0  0  0  0  0  0  0  0  0
    3.6554    3.5860    0.0000 H   0  0  0  0  0  0  0  0  0  0  0  0
    2.1524   -1.3213    0.0000 H   0  0  0  0  0  0  0  0  0  0  0  0
    2.1525   -2.3913    0.0000 H   0  0  0  0  0  0  0  0  0  0  0  0
    4.7202   -1.9788    0.0000 H   0  0  0  0  0  0  0  0  0  0  0  0
    4.7201   -0.9088    0.0000 H   0  0  0  0  0  0  0  0  0  0  0  0
    4.0057   -3.2163    0.0000 H   0  0  0  0  0  0  0  0  0  0  0  0
    4.0058   -2.1463    0.0000 H   0  0  0  0  0  0  0  0  0  0  0  0
    6.1161    0.5153    0.0000 H   0  0  0  0  0  0  0  0  0  0  0  0
    2.8998    0.5153    0.0000 H   0  0  0  0  0  0  0  0  0  0  0  0
    6.1161    2.3723    0.0000 H   0  0  0  0  0  0  0  0  0  0  0  0
    2.8998    2.3723    0.0000 H   0  0  0  0  0  0  0  0  0  0  0  0
    6.1490    4.8663    0.0000 H   0  0  0  0  0  0  0  0  0  0  0  0
    4.2958    4.8663    0.0000 H   0  0  0  0  0  0  0  0  0  0  0  0
    5.2224    5.4013    0.0000 H   0  0  0  0  0  0  0  0  0  0  0  0
  1 12  1  0  0  0  0
  1 13  1  0  0  0  0
  2  8  1  0  0  0  0
  2 11  1  0  0  0  0
  3 12  2  0  0  0  0
  4 19  2  0  0  0  0
  5  8  1  0  0  0  0
  6  8  2  0  0  0  0
  7 14  1  0  0  0  0
  7 19  1  0  0  0  0
  7 21  1  0  0  0  0
  9 10  1  0  0  0  0
  9 11  1  0  0  0  0
  9 22  1  0  0  0  0
  9 23  1  0  0  0  0
 10 12  1  0  0  0  0
 10 24  1  0  0  0  0
 10 25  1  0  0  0  0
 11 26  1  0  0  0  0
 11 27  1  0  0  0  0
 13 15  2  0  0  0  0
 13 16  1  0  0  0  0
 14 17  2  0  0  0  0
 14 18  1  0  0  0  0
 15 17  1  0  0  0  0
 15 28  1  0  0  0  0
 16 18  2  0  0  0  0
 16 29  1  0  0  0  0
 17 30  1  0  0  0  0
 18 31  1  0  0  0  0
 19 20  1  0  0  0  0
 20 32  1  0  0  0  0
 20 33  1  0  0  0  0
 20 34  1  0  0  0  0
M  CHG  2   5  -1   8   1
M  END
>  <DRUGBANK_ID>
DB05409

>  <COMMON_NAME>
NCX 701

>  <UNII>
F8Y1ZV5V9P

$$$$
