
 OpenBabel10282417072D

120128  0  0  1  0  0  0  0  0999 V2000
    4.0275    3.7689    0.0000 C   0  0  0  0  0  0  0  0  0  0  0  0
    3.2606    3.4649    0.0000 C   0  0  0  0  0  0  0  0  0  0  0  0
    2.6138    3.9771    0.0000 C   0  0  0  0  0  0  0  0  0  0  0  0
    3.1404    2.6487    0.0000 O   0  0  0  0  0  0  0  0  0  0  0  0
    2.3735    2.3447    0.0000 C   0  0  0  0  0  0  0  0  0  0  0  0
    2.2533    1.5285    0.0000 C   0  0  0  0  0  0  0  0  0  0  0  0
    1.4863    1.2245    0.0000 C   0  0  0  0  0  0  0  0  0  0  0  0
    0.8396    1.7367    0.0000 C   0  0  0  0  0  0  0  0  0  0  0  0
    0.9598    2.5529    0.0000 C   0  0  0  0  0  0  0  0  0  0  0  0
    1.7267    2.8569    0.0000 C   0  0  0  0  0  0  0  0  0  0  0  0
    0.0726    1.4327    0.0000 C   0  0  0  0  0  0  0  0  0  0  0  0
   -0.5741    1.9449    0.0000 N   0  0  0  0  0  0  0  0  0  0  0  0
   -1.3411    1.6408    0.0000 C   0  0  0  0  0  0  0  0  0  0  0  0
   -2.0802    2.0074    0.0000 C   0  0  0  0  0  0  0  0  0  0  0  0
   -2.3024    2.8019    0.0000 C   0  0  0  0  0  0  0  0  0  0  0  0
   -3.1015    3.0067    0.0000 C   0  0  0  0  0  0  0  0  0  0  0  0
   -3.6785    2.4171    0.0000 C   0  0  0  0  0  0  0  0  0  0  0  0
   -3.4563    1.6226    0.0000 C   0  0  0  0  0  0  0  0  0  0  0  0
   -2.6572    1.4177    0.0000 C   0  0  0  0  0  0  0  0  0  0  0  0
   -2.2747    0.6867    0.0000 O   0  0  0  0  0  0  0  0  0  0  0  0
   -1.4613    0.8247    0.0000 C   0  0  0  0  0  0  0  0  0  0  0  0
   -0.8145    0.3125    0.0000 C   0  0  0  0  0  0  0  0  0  0  0  0
   -0.0476    0.6165    0.0000 N   0  0  0  0  0  0  0  0  0  0  0  0
   -0.9347   -0.5037    0.0000 O   0  0  0  0  0  0  0  0  0  0  0  0
   -0.2880   -1.0159    0.0000 C   0  0  2  0  0  0  0  0  0  0  0  0
    0.5066   -0.7937    0.0000 C   0  0  0  0  0  0  0  0  0  0  0  0
    0.9634   -1.4807    0.0000 C   0  0  1  0  0  0  0  0  0  0  0  0
    1.6943   -1.0982    0.0000 C   0  0  0  0  0  0  0  0  0  0  0  0
    1.4722   -0.3037    0.0000 O   0  0  0  0  0  0  0  0  0  0  0  0
    2.5177   -1.0461    0.0000 N   0  0  0  0  0  0  0  0  0  0  0  0
    3.2911   -1.3333    0.0000 C   0  0  2  0  0  0  0  0  0  0  0  0
    4.0856   -1.1112    0.0000 C   0  0  0  0  0  0  0  0  0  0  0  0
    3.8807   -1.9103    0.0000 C   0  0  1  0  0  0  0  0  0  0  0  0
    4.1848   -2.6773    0.0000 C   0  0  0  0  0  0  0  0  0  0  0  0
    4.1505   -3.5016    0.0000 C   0  0  0  0  0  0  0  0  0  0  0  0
    3.7840   -4.2407    0.0000 C   0  0  0  0  0  0  0  0  0  0  0  0
    3.1485   -4.7668    0.0000 C   0  0  0  0  0  0  0  0  0  0  0  0
    2.3540   -4.9890    0.0000 C   0  0  0  0  0  0  0  0  0  0  0  0
    1.5378   -4.8688    0.0000 C   0  0  0  0  0  0  0  0  0  0  0  0
    0.8411   -4.4270    0.0000 C   0  0  0  0  0  0  0  0  0  0  0  0
    0.3843   -3.7400    0.0000 C   0  0  1  0  0  0  0  0  0  0  0  0
    0.2463   -2.9266    0.0000 C   0  0  0  0  0  0  0  0  0  0  0  0
   -0.5779   -2.8924    0.0000 O   0  0  0  0  0  0  0  0  0  0  0  0
    0.4512   -2.1275    0.0000 N   0  0  0  0  0  0  0  0  0  0  0  0
   -0.3222   -1.8402    0.0000 C   0  0  0  0  0  0  0  0  0  0  0  0
   -0.3827   -4.0440    0.0000 N   0  0  0  0  0  0  0  0  0  0  0  0
   -0.5029   -4.8602    0.0000 C   0  0  0  0  0  0  0  0  0  0  0  0
   -1.2698   -5.1642    0.0000 O   0  0  0  0  0  0  0  0  0  0  0  0
    0.1439   -5.3724    0.0000 O   0  0  0  0  0  0  0  0  0  0  0  0
    0.0237   -6.1886    0.0000 C   0  0  0  0  0  0  0  0  0  0  0  0
    0.6133   -6.7656    0.0000 C   0  0  0  0  0  0  0  0  0  0  0  0
    0.2468   -7.5047    0.0000 C   0  0  0  0  0  0  0  0  0  0  0  0
   -0.5694   -7.3845    0.0000 C   0  0  0  0  0  0  0  0  0  0  0  0
   -0.7073   -6.5711    0.0000 C   0  0  0  0  0  0  0  0  0  0  0  0
    3.3253   -0.5091    0.0000 C   0  0  0  0  0  0  0  0  0  0  0  0
    2.6285   -0.0673    0.0000 O   0  0  0  0  0  0  0  0  0  0  0  0
    4.0563   -0.1265    0.0000 N   0  0  0  0  0  0  0  0  0  0  0  0
    4.0905    0.6977    0.0000 S   0  0  0  0  0  0  0  0  0  0  0  0
    4.9148    0.6635    0.0000 O   0  0  0  0  0  0  0  0  0  0  0  0
    3.2662    0.7320    0.0000 O   0  0  0  0  0  0  0  0  0  0  0  0
    4.1247    1.5220    0.0000 C   0  0  0  0  0  0  0  0  0  0  0  0
    4.4388    2.2849    0.0000 C   0  0  0  0  0  0  0  0  0  0  0  0
    4.9424    1.6315    0.0000 C   0  0  0  0  0  0  0  0  0  0  0  0
    3.3189    1.6989    0.0000 C   0  0  0  0  0  0  0  0  0  0  0  0
    4.8663    3.1046    0.0000 H   0  0  0  0  0  0  0  0  0  0  0  0
    4.1834    4.8275    0.0000 H   0  0  0  0  0  0  0  0  0  0  0  0
    5.0222    4.1632    0.0000 H   0  0  0  0  0  0  0  0  0  0  0  0
    2.2659    3.0706    0.0000 H   0  0  0  0  0  0  0  0  0  0  0  0
    2.7697    5.0357    0.0000 H   0  0  0  0  0  0  0  0  0  0  0  0
    1.6191    3.5828    0.0000 H   0  0  0  0  0  0  0  0  0  0  0  0
    1.7750    4.6414    0.0000 H   0  0  0  0  0  0  0  0  0  0  0  0
    3.0623    0.8878    0.0000 H   0  0  0  0  0  0  0  0  0  0  0  0
    1.3359    0.2035    0.0000 H   0  0  0  0  0  0  0  0  0  0  0  0
    0.1508    3.1936    0.0000 H   0  0  0  0  0  0  0  0  0  0  0  0
    1.8770    3.8779    0.0000 H   0  0  0  0  0  0  0  0  0  0  0  0
   -1.5807    3.5396    0.0000 H   0  0  0  0  0  0  0  0  0  0  0  0
   -3.3794    4.0006    0.0000 H   0  0  0  0  0  0  0  0  0  0  0  0
   -4.6782    2.6734    0.0000 H   0  0  0  0  0  0  0  0  0  0  0  0
   -4.1781    0.8850    0.0000 H   0  0  0  0  0  0  0  0  0  0  0  0
   -0.0769    0.0331    0.0000 H   0  0  0  0  0  0  0  0  0  0  0  0
    0.8792    0.2093    0.0000 H   0  0  0  0  0  0  0  0  0  0  0  0
    1.5695   -0.6703    0.0000 H   0  0  0  0  0  0  0  0  0  0  0  0
   -0.1057   -1.4363    0.0000 H   0  0  0  0  0  0  0  0  0  0  0  0
    2.6611   -0.0721    0.0000 H   0  0  0  0  0  0  0  0  0  0  0  0
    4.8340   -0.3465    0.0000 H   0  0  0  0  0  0  0  0  0  0  0  0
    5.0180   -1.6362    0.0000 H   0  0  0  0  0  0  0  0  0  0  0  0
    3.5926   -0.8798    0.0000 H   0  0  0  0  0  0  0  0  0  0  0  0
    5.2023   -2.5048    0.0000 H   0  0  0  0  0  0  0  0  0  0  0  0
    5.1502   -3.7579    0.0000 H   0  0  0  0  0  0  0  0  0  0  0  0
    4.6228   -4.9050    0.0000 H   0  0  0  0  0  0  0  0  0  0  0  0
    3.7956   -5.3106    0.0000 H   0  0  0  0  0  0  0  0  0  0  0  0
    3.6446   -5.7148    0.0000 H   0  0  0  0  0  0  0  0  0  0  0  0
    2.7240   -5.7490    0.0000 H   0  0  0  0  0  0  0  0  0  0  0  0
    2.4216   -6.0569    0.0000 H   0  0  0  0  0  0  0  0  0  0  0  0
    1.5667   -5.7136    0.0000 H   0  0  0  0  0  0  0  0  0  0  0  0
    1.1652   -5.8718    0.0000 H   0  0  0  0  0  0  0  0  0  0  0  0
    0.5238   -5.2104    0.0000 H   0  0  0  0  0  0  0  0  0  0  0  0
    0.0927   -5.1918    0.0000 H   0  0  0  0  0  0  0  0  0  0  0  0
   -0.2242   -4.3267    0.0000 H   0  0  0  0  0  0  0  0  0  0  0  0
    0.0647   -4.7612    0.0000 H   0  0  0  0  0  0  0  0  0  0  0  0
   -1.2132   -2.4327    0.0000 H   0  0  0  0  0  0  0  0  0  0  0  0
   -1.2546   -1.3153    0.0000 H   0  0  0  0  0  0  0  0  0  0  0  0
   -1.1545   -3.4328    0.0000 H   0  0  0  0  0  0  0  0  0  0  0  0
   -0.1322   -7.2472    0.0000 H   0  0  0  0  0  0  0  0  0  0  0  0
    1.6682   -6.5868    0.0000 H   0  0  0  0  0  0  0  0  0  0  0  0
    1.2516   -7.6244    0.0000 H   0  0  0  0  0  0  0  0  0  0  0  0
    0.7429   -8.4527    0.0000 H   0  0  0  0  0  0  0  0  0  0  0  0
   -0.3727   -8.3771    0.0000 H   0  0  0  0  0  0  0  0  0  0  0  0
   -1.3177   -8.1493    0.0000 H   0  0  0  0  0  0  0  0  0  0  0  0
   -1.5906   -7.0649    0.0000 H   0  0  0  0  0  0  0  0  0  0  0  0
   -1.6659   -6.0957    0.0000 H   0  0  0  0  0  0  0  0  0  0  0  0
   -0.7189   -5.5012    0.0000 H   0  0  0  0  0  0  0  0  0  0  0  0
    4.8878   -0.6537    0.0000 H   0  0  0  0  0  0  0  0  0  0  0  0
    4.2969    3.3454    0.0000 H   0  0  0  0  0  0  0  0  0  0  0  0
    5.4265    2.6965    0.0000 H   0  0  0  0  0  0  0  0  0  0  0  0
    5.9318    1.2242    0.0000 H   0  0  0  0  0  0  0  0  0  0  0  0
    4.8051    0.5703    0.0000 H   0  0  0  0  0  0  0  0  0  0  0  0
    2.9950    2.7187    0.0000 H   0  0  0  0  0  0  0  0  0  0  0  0
    2.5976    0.9085    0.0000 H   0  0  0  0  0  0  0  0  0  0  0  0
    2.2738    1.9283    0.0000 H   0  0  0  0  0  0  0  0  0  0  0  0
  1  2  1  0  0  0  0
  1 65  1  0  0  0  0
  1 66  1  0  0  0  0
  1 67  1  0  0  0  0
  2  3  1  0  0  0  0
  2  4  1  0  0  0  0
  2 68  1  0  0  0  0
  3 69  1  0  0  0  0
  3 70  1  0  0  0  0
  3 71  1  0  0  0  0
  4  5  1  0  0  0  0
  5  6  2  0  0  0  0
  5 10  1  0  0  0  0
  6  7  1  0  0  0  0
  6 72  1  0  0  0  0
  7  8  2  0  0  0  0
  7 73  1  0  0  0  0
  8  9  1  0  0  0  0
  8 11  1  0  0  0  0
  9 10  2  0  0  0  0
  9 74  1  0  0  0  0
 10 75  1  0  0  0  0
 11 12  2  0  0  0  0
 11 23  1  0  0  0  0
 12 13  1  0  0  0  0
 13 14  1  0  0  0  0
 13 21  2  0  0  0  0
 14 15  1  0  0  0  0
 14 19  2  0  0  0  0
 15 16  2  0  0  0  0
 15 76  1  0  0  0  0
 16 17  1  0  0  0  0
 16 77  1  0  0  0  0
 17 18  2  0  0  0  0
 17 78  1  0  0  0  0
 18 19  1  0  0  0  0
 18 79  1  0  0  0  0
 19 20  1  0  0  0  0
 20 21  1  0  0  0  0
 21 22  1  0  0  0  0
 22 23  2  0  0  0  0
 22 24  1  0  0  0  0
 25 24  1  0  0  0  0
 25 26  1  0  0  0  0
 25 45  1  0  0  0  0
 25 80  1  1  0  0  0
 26 27  1  0  0  0  0
 26 81  1  0  0  0  0
 26 82  1  0  0  0  0
 27 28  1  0  0  0  0
 27 44  1  0  0  0  0
 27 83  1  6  0  0  0
 28 29  2  0  0  0  0
 28 30  1  0  0  0  0
 30 31  1  0  0  0  0
 30 84  1  0  0  0  0
 31 32  1  0  0  0  0
 31 33  1  0  0  0  0
 31 55  1  1  0  0  0
 32 85  1  0  0  0  0
 32 86  1  0  0  0  0
 33 32  1  0  0  0  0
 33 34  1  0  0  0  0
 33 87  1  6  0  0  0
 34 35  2  0  0  0  0
 34 88  1  0  0  0  0
 35 36  1  0  0  0  0
 35 89  1  0  0  0  0
 36 37  1  0  0  0  0
 36 90  1  0  0  0  0
 36 91  1  0  0  0  0
 37 38  1  0  0  0  0
 37 92  1  0  0  0  0
 37 93  1  0  0  0  0
 38 39  1  0  0  0  0
 38 94  1  0  0  0  0
 38 95  1  0  0  0  0
 39 40  1  0  0  0  0
 39 96  1  0  0  0  0
 39 97  1  0  0  0  0
 40 41  1  0  0  0  0
 40 98  1  0  0  0  0
 40 99  1  0  0  0  0
 41 42  1  0  0  0  0
 41 46  1  0  0  0  0
 41100  1  1  0  0  0
 42 43  2  0  0  0  0
 42 44  1  0  0  0  0
 44 45  1  0  0  0  0
 45101  1  0  0  0  0
 45102  1  0  0  0  0
 46 47  1  0  0  0  0
 46103  1  0  0  0  0
 47 48  2  0  0  0  0
 47 49  1  0  0  0  0
 49 50  1  0  0  0  0
 50 51  1  0  0  0  0
 50 54  1  0  0  0  0
 50104  1  0  0  0  0
 51 52  1  0  0  0  0
 51105  1  0  0  0  0
 51106  1  0  0  0  0
 52 53  1  0  0  0  0
 52107  1  0  0  0  0
 52108  1  0  0  0  0
 53 54  1  0  0  0  0
 53109  1  0  0  0  0
 53110  1  0  0  0  0
 54111  1  0  0  0  0
 54112  1  0  0  0  0
 55 56  2  0  0  0  0
 55 57  1  0  0  0  0
 57 58  1  0  0  0  0
 57113  1  0  0  0  0
 58 59  2  0  0  0  0
 58 60  2  0  0  0  0
 58 61  1  0  0  0  0
 61 62  1  0  0  0  0
 61 63  1  0  0  0  0
 61 64  1  0  0  0  0
 62 63  1  0  0  0  0
 62114  1  0  0  0  0
 62115  1  0  0  0  0
 63116  1  0  0  0  0
 63117  1  0  0  0  0
 64118  1  0  0  0  0
 64119  1  0  0  0  0
 64120  1  0  0  0  0
M  END
>  <DRUGBANK_ID>
DB12785

>  <COMMON_NAME>
Furaprevir

>  <CAS_NUMBER>
1435923-88-8

>  <UNII>
0UMM44REU9

>  <SYNONYMS>
Furaprevir

$$$$
