
 OpenBabel10282417072D

 48 50  0  0  0  0  0  0  0  0999 V2000
   -1.0716    0.8249    0.0000 N   0  0  0  0  0  0  0  0  0  0  0  0
   -0.3572    1.2375    0.0000 C   0  0  0  0  0  0  0  0  0  0  0  0
   -1.0716    2.4749    0.0000 S   0  0  0  0  0  0  0  0  0  0  0  0
   -0.3572    2.0625    0.0000 C   0  0  0  0  0  0  0  0  0  0  0  0
   -1.7861    1.2374    0.0000 C   0  0  0  0  0  0  0  0  0  0  0  0
   -1.7861    2.0624    0.0000 C   0  0  0  0  0  0  0  0  0  0  0  0
    0.3572    0.8250    0.0000 C   0  0  0  0  0  0  0  0  0  0  0  0
    1.0716    1.2375    0.0000 C   0  0  0  0  0  0  0  0  0  0  0  0
    1.7861    0.8250    0.0000 C   0  0  0  0  0  0  0  0  0  0  0  0
    0.3572    2.4749    0.0000 C   0  0  0  0  0  0  0  0  0  0  0  0
    1.0716    2.0625    0.0000 C   0  0  0  0  0  0  0  0  0  0  0  0
    1.7861    0.0000    0.0000 O   0  0  0  0  0  0  0  0  0  0  0  0
   -1.0716    0.0000    0.0000 C   0  0  0  0  0  0  0  0  0  0  0  0
   -1.7861   -0.4125    0.0000 C   0  0  0  0  0  0  0  0  0  0  0  0
   -2.5005   -1.6500    0.0000 N   0  0  0  0  0  0  0  0  0  0  0  0
   -2.5006    0.8249    0.0000 C   0  0  0  0  0  0  0  0  0  0  0  0
   -2.5006    2.4749    0.0000 C   0  0  0  0  0  0  0  0  0  0  0  0
   -1.7861   -1.2375    0.0000 C   0  0  0  0  0  0  0  0  0  0  0  0
    2.5006    1.2375    0.0000 C   0  0  0  0  0  0  0  0  0  0  0  0
   -2.5005   -2.4749    0.0000 C   0  0  0  0  0  0  0  0  0  0  0  0
   -3.2150   -1.2375    0.0000 C   0  0  0  0  0  0  0  0  0  0  0  0
    3.2150    0.8250    0.0000 C   0  0  0  0  0  0  0  0  0  0  0  0
   -3.2150    1.2374    0.0000 C   0  0  0  0  0  0  0  0  0  0  0  0
   -3.2150    2.0624    0.0000 C   0  0  0  0  0  0  0  0  0  0  0  0
    0.3572   -0.2070    0.0000 H   0  0  0  0  0  0  0  0  0  0  0  0
    0.3572    3.5069    0.0000 H   0  0  0  0  0  0  0  0  0  0  0  0
    1.9653    2.5785    0.0000 H   0  0  0  0  0  0  0  0  0  0  0  0
   -0.1450   -0.5350    0.0000 H   0  0  0  0  0  0  0  0  0  0  0  0
   -1.0716   -1.0700    0.0000 H   0  0  0  0  0  0  0  0  0  0  0  0
   -2.7127    0.1225    0.0000 H   0  0  0  0  0  0  0  0  0  0  0  0
   -2.7127   -0.9475    0.0000 H   0  0  0  0  0  0  0  0  0  0  0  0
   -2.5006   -0.2071    0.0000 H   0  0  0  0  0  0  0  0  0  0  0  0
   -2.5006    3.5069    0.0000 H   0  0  0  0  0  0  0  0  0  0  0  0
   -0.8594   -1.7725    0.0000 H   0  0  0  0  0  0  0  0  0  0  0  0
   -0.8595   -0.7025    0.0000 H   0  0  0  0  0  0  0  0  0  0  0  0
    2.5006    2.3075    0.0000 H   0  0  0  0  0  0  0  0  0  0  0  0
    3.4273    1.7725    0.0000 H   0  0  0  0  0  0  0  0  0  0  0  0
   -3.4271   -3.0099    0.0000 H   0  0  0  0  0  0  0  0  0  0  0  0
   -1.5739   -3.0099    0.0000 H   0  0  0  0  0  0  0  0  0  0  0  0
   -2.5005   -3.5449    0.0000 H   0  0  0  0  0  0  0  0  0  0  0  0
   -3.2150   -0.1675    0.0000 H   0  0  0  0  0  0  0  0  0  0  0  0
   -4.1416   -1.7725    0.0000 H   0  0  0  0  0  0  0  0  0  0  0  0
   -4.1417   -0.7025    0.0000 H   0  0  0  0  0  0  0  0  0  0  0  0
    3.2150   -0.2450    0.0000 H   0  0  0  0  0  0  0  0  0  0  0  0
    4.1417    1.3600    0.0000 H   0  0  0  0  0  0  0  0  0  0  0  0
    4.1416    0.2900    0.0000 H   0  0  0  0  0  0  0  0  0  0  0  0
   -4.1087    0.7214    0.0000 H   0  0  0  0  0  0  0  0  0  0  0  0
   -4.1087    2.5784    0.0000 H   0  0  0  0  0  0  0  0  0  0  0  0
  2  1  1  0  0  0  0
  3  6  1  0  0  0  0
  4  2  1  0  0  0  0
  4  3  1  0  0  0  0
  5  1  1  0  0  0  0
  6  5  2  0  0  0  0
  7  2  2  0  0  0  0
  7 25  1  0  0  0  0
  8  7  1  0  0  0  0
  9  8  1  0  0  0  0
 10  4  2  0  0  0  0
 10 11  1  0  0  0  0
 10 26  1  0  0  0  0
 11  8  2  0  0  0  0
 11 27  1  0  0  0  0
 12  9  2  0  0  0  0
 13  1  1  0  0  0  0
 13 28  1  0  0  0  0
 13 29  1  0  0  0  0
 14 13  1  0  0  0  0
 14 30  1  0  0  0  0
 14 31  1  0  0  0  0
 15 18  1  0  0  0  0
 16  5  1  0  0  0  0
 16 32  1  0  0  0  0
 17  6  1  0  0  0  0
 17 24  2  0  0  0  0
 17 33  1  0  0  0  0
 18 14  1  0  0  0  0
 18 34  1  0  0  0  0
 18 35  1  0  0  0  0
 19  9  1  0  0  0  0
 19 36  1  0  0  0  0
 19 37  1  0  0  0  0
 20 15  1  0  0  0  0
 20 38  1  0  0  0  0
 20 39  1  0  0  0  0
 20 40  1  0  0  0  0
 21 15  1  0  0  0  0
 21 41  1  0  0  0  0
 21 42  1  0  0  0  0
 21 43  1  0  0  0  0
 22 19  1  0  0  0  0
 22 44  1  0  0  0  0
 22 45  1  0  0  0  0
 22 46  1  0  0  0  0
 23 16  2  0  0  0  0
 23 47  1  0  0  0  0
 24 23  1  0  0  0  0
 24 48  1  0  0  0  0
M  END
>  <DRUGBANK_ID>
DB11540

>  <COMMON_NAME>
Propiopromazine

>  <CAS_NUMBER>
3568-24-9

>  <UNII>
Y1BCT334I7

>  <SYNONYMS>
Propionpromazine; Propionylpromazine; Propionylpromazone; Propiopromazine

$$$$
