
 OpenBabel10282417072D

 53 58  0  0  0  0  0  0  0  0999 V2000
   -3.9097   -7.0801    0.0000 C   0  0  0  0  0  0  0  0  0  0  0  0
   -3.3577   -6.4670    0.0000 C   0  0  0  0  0  0  0  0  0  0  0  0
   -2.5507   -6.6385    0.0000 N   0  0  0  0  0  0  0  0  0  0  0  0
   -2.2958   -7.4231    0.0000 C   0  0  0  0  0  0  0  0  0  0  0  0
   -2.8478   -8.0362    0.0000 C   0  0  0  0  0  0  0  0  0  0  0  0
   -3.6548   -7.8647    0.0000 N   0  0  0  0  0  0  0  0  0  0  0  0
   -1.9987   -6.0254    0.0000 C   0  0  0  0  0  0  0  0  0  0  0  0
   -2.2536   -5.2408    0.0000 C   0  0  0  0  0  0  0  0  0  0  0  0
   -1.7016   -4.6277    0.0000 C   0  0  0  0  0  0  0  0  0  0  0  0
   -0.8946   -4.7992    0.0000 C   0  0  0  0  0  0  0  0  0  0  0  0
   -0.6397   -5.5838    0.0000 C   0  0  0  0  0  0  0  0  0  0  0  0
   -1.1917   -6.1969    0.0000 C   0  0  0  0  0  0  0  0  0  0  0  0
   -0.3426   -4.1861    0.0000 C   0  0  0  0  0  0  0  0  0  0  0  0
   -0.5975   -3.4015    0.0000 C   0  0  0  0  0  0  0  0  0  0  0  0
   -0.0455   -2.7884    0.0000 N   0  0  0  0  0  0  0  0  0  0  0  0
    0.7615   -2.9599    0.0000 C   0  0  0  0  0  0  0  0  0  0  0  0
    1.4289   -2.4750    0.0000 C   0  0  0  0  0  0  0  0  0  0  0  0
    2.0964   -2.9599    0.0000 C   0  0  0  0  0  0  0  0  0  0  0  0
    1.8414   -3.7445    0.0000 N   0  0  0  0  0  0  0  0  0  0  0  0
    1.0164   -3.7445    0.0000 N   0  0  0  0  0  0  0  0  0  0  0  0
    0.4644   -4.3576    0.0000 C   0  0  0  0  0  0  0  0  0  0  0  0
    1.4289   -1.6500    0.0000 C   0  0  0  0  0  0  0  0  0  0  0  0
    0.7145   -1.2375    0.0000 C   0  0  0  0  0  0  0  0  0  0  0  0
    0.7145   -0.4125    0.0000 C   0  0  0  0  0  0  0  0  0  0  0  0
    1.4289    0.0000    0.0000 N   0  0  0  0  0  0  0  0  0  0  0  0
    2.1434   -0.4125    0.0000 C   0  0  0  0  0  0  0  0  0  0  0  0
    2.8579    0.0000    0.0000 C   0  0  0  0  0  0  0  0  0  0  0  0
    3.5724   -0.4125    0.0000 C   0  0  0  0  0  0  0  0  0  0  0  0
    3.5724   -1.2375    0.0000 C   0  0  0  0  0  0  0  0  0  0  0  0
    2.8579   -1.6500    0.0000 C   0  0  0  0  0  0  0  0  0  0  0  0
    2.1434   -1.2375    0.0000 C   0  0  0  0  0  0  0  0  0  0  0  0
   -4.9563   -6.8576    0.0000 H   0  0  0  0  0  0  0  0  0  0  0  0
   -4.6257   -7.8753    0.0000 H   0  0  0  0  0  0  0  0  0  0  0  0
   -3.6884   -5.4494    0.0000 H   0  0  0  0  0  0  0  0  0  0  0  0
   -2.6418   -5.6718    0.0000 H   0  0  0  0  0  0  0  0  0  0  0  0
   -1.2492   -7.6456    0.0000 H   0  0  0  0  0  0  0  0  0  0  0  0
   -1.9651   -8.4407    0.0000 H   0  0  0  0  0  0  0  0  0  0  0  0
   -2.5171   -9.0538    0.0000 H   0  0  0  0  0  0  0  0  0  0  0  0
   -3.5637   -8.8314    0.0000 H   0  0  0  0  0  0  0  0  0  0  0  0
   -4.3373   -8.6227    0.0000 H   0  0  0  0  0  0  0  0  0  0  0  0
   -3.2630   -5.0262    0.0000 H   0  0  0  0  0  0  0  0  0  0  0  0
   -2.0205   -3.6462    0.0000 H   0  0  0  0  0  0  0  0  0  0  0  0
    0.3697   -5.7984    0.0000 H   0  0  0  0  0  0  0  0  0  0  0  0
   -0.8728   -7.1784    0.0000 H   0  0  0  0  0  0  0  0  0  0  0  0
   -1.6069   -3.1869    0.0000 H   0  0  0  0  0  0  0  0  0  0  0  0
    3.0779   -2.6410    0.0000 H   0  0  0  0  0  0  0  0  0  0  0  0
    0.7833   -5.3391    0.0000 H   0  0  0  0  0  0  0  0  0  0  0  0
   -0.1792   -1.7535    0.0000 H   0  0  0  0  0  0  0  0  0  0  0  0
   -0.1792    0.1035    0.0000 H   0  0  0  0  0  0  0  0  0  0  0  0
    2.8579    1.0320    0.0000 H   0  0  0  0  0  0  0  0  0  0  0  0
    4.4661    0.1035    0.0000 H   0  0  0  0  0  0  0  0  0  0  0  0
    4.4661   -1.7535    0.0000 H   0  0  0  0  0  0  0  0  0  0  0  0
    2.8579   -2.6820    0.0000 H   0  0  0  0  0  0  0  0  0  0  0  0
  1  2  1  0  0  0  0
  1  6  1  0  0  0  0
  1 32  1  0  0  0  0
  1 33  1  0  0  0  0
  2  3  1  0  0  0  0
  2 34  1  0  0  0  0
  2 35  1  0  0  0  0
  3  4  1  0  0  0  0
  3  7  1  0  0  0  0
  4  5  1  0  0  0  0
  4 36  1  0  0  0  0
  4 37  1  0  0  0  0
  5  6  1  0  0  0  0
  5 38  1  0  0  0  0
  5 39  1  0  0  0  0
  6 40  1  0  0  0  0
  7  8  2  0  0  0  0
  7 12  1  0  0  0  0
  8  9  1  0  0  0  0
  8 41  1  0  0  0  0
  9 10  2  0  0  0  0
  9 42  1  0  0  0  0
 10 11  1  0  0  0  0
 10 13  1  0  0  0  0
 11 12  2  0  0  0  0
 11 43  1  0  0  0  0
 12 44  1  0  0  0  0
 13 14  1  0  0  0  0
 13 21  2  0  0  0  0
 14 15  2  0  0  0  0
 14 45  1  0  0  0  0
 15 16  1  0  0  0  0
 16 17  2  0  0  0  0
 16 20  1  0  0  0  0
 17 18  1  0  0  0  0
 17 22  1  0  0  0  0
 18 19  2  0  0  0  0
 18 46  1  0  0  0  0
 19 20  1  0  0  0  0
 20 21  1  0  0  0  0
 21 47  1  0  0  0  0
 22 23  2  0  0  0  0
 22 31  1  0  0  0  0
 23 24  1  0  0  0  0
 23 48  1  0  0  0  0
 24 25  2  0  0  0  0
 24 49  1  0  0  0  0
 25 26  1  0  0  0  0
 26 27  2  0  0  0  0
 26 31  1  0  0  0  0
 27 28  1  0  0  0  0
 27 50  1  0  0  0  0
 28 29  2  0  0  0  0
 28 51  1  0  0  0  0
 29 30  1  0  0  0  0
 29 52  1  0  0  0  0
 30 31  2  0  0  0  0
 30 53  1  0  0  0  0
M  END
>  <DRUGBANK_ID>
DB18051

>  <COMMON_NAME>
LDN-193189

>  <CAS_NUMBER>
1062368-24-4

>  <UNII>
W69H5YQU9O

>  <SYNONYMS>
4-(6-(4-(piperazin-1-yl)phenyl_pyrazolo[1,5-a]pyrimidin-3-yl)quinoline; Quinoline, 4-(6-(4-(1-piperazinyl)phenyl)pyrazolo(1,5-a)pyrimidin-3-yl)-

$$$$
