
 OpenBabel10282417072D

 43 44  0  0  0  0  0  0  0  0999 V2000
   -0.7144    0.2062    0.0000 C   0  0  0  0  0  0  0  0  0  0  0  0
    0.0000   -0.2062    0.0000 C   0  0  0  0  0  0  0  0  0  0  0  0
    0.7144    0.2062    0.0000 C   0  0  0  0  0  0  0  0  0  0  0  0
    0.7144    1.0312    0.0000 C   0  0  0  0  0  0  0  0  0  0  0  0
    1.4289    1.4437    0.0000 C   0  0  0  0  0  0  0  0  0  0  0  0
    2.1434    1.0312    0.0000 C   0  0  0  0  0  0  0  0  0  0  0  0
    2.8578    1.4437    0.0000 O   0  0  0  0  0  0  0  0  0  0  0  0
    3.5723    1.0312    0.0000 C   0  0  0  0  0  0  0  0  0  0  0  0
    2.1434    0.2062    0.0000 C   0  0  0  0  0  0  0  0  0  0  0  0
    1.4289   -0.2062    0.0000 C   0  0  0  0  0  0  0  0  0  0  0  0
    0.0000    1.4437    0.0000 C   0  0  0  0  0  0  0  0  0  0  0  0
   -0.7144    1.0312    0.0000 C   0  0  0  0  0  0  0  0  0  0  0  0
   -1.4289   -0.2062    0.0000 C   0  0  1  0  0  0  0  0  0  0  0  0
   -1.4289   -1.0312    0.0000 C   0  0  0  0  0  0  0  0  0  0  0  0
   -2.1434   -1.4437    0.0000 C   0  0  0  0  0  0  0  0  0  0  0  0
   -2.1434    0.2062    0.0000 C   0  0  0  0  0  0  0  0  0  0  0  0
   -2.8578    0.6187    0.0000 C   0  0  0  0  0  0  0  0  0  0  0  0
   -3.5723    0.2062    0.0000 O   0  0  0  0  0  0  0  0  0  0  0  0
   -2.8578    1.4437    0.0000 O   0  0  0  0  0  0  0  0  0  0  0  0
   -1.7309    0.9207    0.0000 C   0  0  0  0  0  0  0  0  0  0  0  0
   -2.5559   -0.5082    0.0000 C   0  0  0  0  0  0  0  0  0  0  0  0
    0.0000   -1.2382    0.0000 H   0  0  0  0  0  0  0  0  0  0  0  0
    1.4289    2.4757    0.0000 H   0  0  0  0  0  0  0  0  0  0  0  0
    3.5723   -0.0388    0.0000 H   0  0  0  0  0  0  0  0  0  0  0  0
    4.4989    1.5662    0.0000 H   0  0  0  0  0  0  0  0  0  0  0  0
    4.4990    0.4962    0.0000 H   0  0  0  0  0  0  0  0  0  0  0  0
    3.0371   -0.3099    0.0000 H   0  0  0  0  0  0  0  0  0  0  0  0
    1.4289   -1.2382    0.0000 H   0  0  0  0  0  0  0  0  0  0  0  0
    0.0000    2.4757    0.0000 H   0  0  0  0  0  0  0  0  0  0  0  0
   -1.6081    1.5472    0.0000 H   0  0  0  0  0  0  0  0  0  0  0  0
   -0.5023   -0.7413    0.0000 H   0  0  0  0  0  0  0  0  0  0  0  0
   -0.5023   -1.5662    0.0000 H   0  0  0  0  0  0  0  0  0  0  0  0
   -1.4289   -2.1012    0.0000 H   0  0  0  0  0  0  0  0  0  0  0  0
   -3.0700   -0.9087    0.0000 H   0  0  0  0  0  0  0  0  0  0  0  0
   -2.1434   -2.5137    0.0000 H   0  0  0  0  0  0  0  0  0  0  0  0
   -3.0701   -1.9787    0.0000 H   0  0  0  0  0  0  0  0  0  0  0  0
   -4.3838    0.6747    0.0000 H   0  0  0  0  0  0  0  0  0  0  0  0
   -0.6609    0.9207    0.0000 H   0  0  0  0  0  0  0  0  0  0  0  0
   -2.2659    1.8473    0.0000 H   0  0  0  0  0  0  0  0  0  0  0  0
   -1.1959    1.8474    0.0000 H   0  0  0  0  0  0  0  0  0  0  0  0
   -3.6259   -0.5082    0.0000 H   0  0  0  0  0  0  0  0  0  0  0  0
   -2.0209   -1.4349    0.0000 H   0  0  0  0  0  0  0  0  0  0  0  0
   -3.0909   -1.4348    0.0000 H   0  0  0  0  0  0  0  0  0  0  0  0
  1  2  1  0  0  0  0
  1 12  2  0  0  0  0
  1 13  1  0  0  0  0
  2  3  2  0  0  0  0
  2 22  1  0  0  0  0
  3  4  1  0  0  0  0
  3 10  1  0  0  0  0
  4  5  1  0  0  0  0
  4 11  2  0  0  0  0
  5  6  2  0  0  0  0
  5 23  1  0  0  0  0
  6  7  1  0  0  0  0
  6  9  1  0  0  0  0
  7  8  1  0  0  0  0
  8 24  1  0  0  0  0
  8 25  1  0  0  0  0
  8 26  1  0  0  0  0
  9 10  2  0  0  0  0
  9 27  1  0  0  0  0
 10 28  1  0  0  0  0
 11 12  1  0  0  0  0
 11 29  1  0  0  0  0
 12 30  1  0  0  0  0
 13 14  1  0  0  0  0
 13 16  1  0  0  0  0
 13 31  1  6  0  0  0
 14 15  1  0  0  0  0
 14 32  1  0  0  0  0
 14 33  1  0  0  0  0
 15 34  1  0  0  0  0
 15 35  1  0  0  0  0
 15 36  1  0  0  0  0
 16 17  1  0  0  0  0
 16 20  1  0  0  0  0
 16 21  1  0  0  0  0
 17 18  1  0  0  0  0
 17 19  2  0  0  0  0
 18 37  1  0  0  0  0
 20 38  1  0  0  0  0
 20 39  1  0  0  0  0
 20 40  1  0  0  0  0
 21 41  1  0  0  0  0
 21 42  1  0  0  0  0
 21 43  1  0  0  0  0
M  END
>  <DRUGBANK_ID>
DB13143

>  <COMMON_NAME>
Methallenestril

>  <CAS_NUMBER>
517-18-0

>  <UNII>
XL025389JS

>  <SYNONYMS>
Metalenestrilo; Methallenestril; Methallenestrilum

$$$$
