274
 OpenBabel10282417072D

 47 49  0  0  1  0  0  0  0  0999 V2000
    5.8137   -0.4708    0.0000 S   0  0  0  0  0  0  0  0  0  0  0  0
    3.6702    0.7667    0.0000 S   0  0  0  0  0  0  0  0  0  0  0  0
    9.8321   -1.4958    0.0000 S   0  0  0  0  0  0  0  0  0  0  0  0
    7.3583   -0.8868    0.0000 O   0  0  0  0  0  0  0  0  0  0  0  0
    7.9421    1.3547    0.0000 O   0  0  0  0  0  0  0  0  0  0  0  0
    5.0992    2.4167    0.0000 O   0  0  0  0  0  0  0  0  0  0  0  0
    6.5282    2.4167    0.0000 O   0  0  0  0  0  0  0  0  0  0  0  0
    8.1821   -1.4924    0.0000 O   0  0  0  0  0  0  0  0  0  0  0  0
    6.5282    0.7667    0.0000 N   0  0  0  0  0  0  0  0  0  0  0  0
    8.1850   -0.0634    0.0000 N   0  0  0  0  0  0  0  0  0  0  0  0
    2.2020    0.8436    0.0000 N   0  0  0  0  0  0  0  0  0  0  0  0
    2.8695    1.9997    0.0000 N   0  0  0  0  0  0  0  0  0  0  0  0
    1.6500    1.4567    0.0000 N   0  0  0  0  0  0  0  0  0  0  0  0
    2.0625    2.1712    0.0000 N   0  0  0  0  0  0  0  0  0  0  0  0
   11.4792   -2.9282    0.0000 N   0  0  0  0  0  0  0  0  0  0  0  0
    6.5282   -0.0583    0.0000 C   0  0  1  0  0  0  0  0  0  0  0  0
    7.3600   -0.0618    0.0000 C   0  0  2  0  0  0  0  0  0  0  0  0
    7.3600    0.7701    0.0000 C   0  0  0  0  0  0  0  0  0  0  0  0
    5.8137    1.1792    0.0000 C   0  0  0  0  0  0  0  0  0  0  0  0
    5.0992    0.7667    0.0000 C   0  0  0  0  0  0  0  0  0  0  0  0
    5.0992   -0.0583    0.0000 C   0  0  0  0  0  0  0  0  0  0  0  0
    4.3847    1.1792    0.0000 C   0  0  0  0  0  0  0  0  0  0  0  0
    5.8137    2.0042    0.0000 C   0  0  0  0  0  0  0  0  0  0  0  0
    8.5960   -0.7788    0.0000 C   0  0  0  0  0  0  0  0  0  0  0  0
    6.6430   -1.2978    0.0000 C   0  0  0  0  0  0  0  0  0  0  0  0
    9.4211   -0.7805    0.0000 C   0  0  0  0  0  0  0  0  0  0  0  0
    2.9558    1.1792    0.0000 C   0  0  0  0  0  0  0  0  0  0  0  0
   10.6571   -1.4976    0.0000 C   0  0  0  0  0  0  0  0  0  0  0  0
    2.0305    0.0366    0.0000 C   0  0  0  0  0  0  0  0  0  0  0  0
   11.0681   -2.2128    0.0000 C   0  0  0  0  0  0  0  0  0  0  0  0
    6.6977   -0.6962    0.0000 H   0  0  0  0  0  0  0  0  0  0  0  0
    5.0992    3.3537    0.0000 H   0  0  0  0  0  0  0  0  0  0  0  0
    8.6790    0.7882    0.0000 H   0  0  0  0  0  0  0  0  0  0  0  0
    4.1726   -0.5933    0.0000 H   0  0  0  0  0  0  0  0  0  0  0  0
    4.1726    0.4767    0.0000 H   0  0  0  0  0  0  0  0  0  0  0  0
    4.3847    2.2492    0.0000 H   0  0  0  0  0  0  0  0  0  0  0  0
    5.3113    1.7142    0.0000 H   0  0  0  0  0  0  0  0  0  0  0  0
    5.7175   -0.7609    0.0000 H   0  0  0  0  0  0  0  0  0  0  0  0
    6.6408   -2.3678    0.0000 H   0  0  0  0  0  0  0  0  0  0  0  0
    5.7152   -1.8309    0.0000 H   0  0  0  0  0  0  0  0  0  0  0  0
    9.9580    0.1450    0.0000 H   0  0  0  0  0  0  0  0  0  0  0  0
    8.8880    0.1472    0.0000 H   0  0  0  0  0  0  0  0  0  0  0  0
   11.1940   -0.5721    0.0000 H   0  0  0  0  0  0  0  0  0  0  0  0
   11.7271   -1.4998    0.0000 H   0  0  0  0  0  0  0  0  0  0  0  0
    1.0129   -0.2941    0.0000 H   0  0  0  0  0  0  0  0  0  0  0  0
    2.8257   -0.6793    0.0000 H   0  0  0  0  0  0  0  0  0  0  0  0
    1.8081   -1.0100    0.0000 H   0  0  0  0  0  0  0  0  0  0  0  0
  1 16  1  0  0  0  0
  1 21  1  0  0  0  0
  2 22  1  0  0  0  0
  2 27  1  0  0  0  0
  3 26  1  0  0  0  0
  3 28  1  0  0  0  0
  4 25  1  0  0  0  0
  5 18  2  0  0  0  0
  6 23  1  0  0  0  0
  6 32  1  0  0  0  0
  7 23  2  0  0  0  0
  8 24  2  0  0  0  0
  9 16  1  0  0  0  0
  9 18  1  0  0  0  0
  9 19  1  0  0  0  0
 10 24  1  0  0  0  0
 10 33  1  0  0  0  0
 11 13  1  0  0  0  0
 11 27  1  0  0  0  0
 11 29  1  0  0  0  0
 12 14  1  0  0  0  0
 12 27  2  0  0  0  0
 13 14  2  0  0  0  0
 15 30  3  0  0  0  0
 16 17  1  0  0  0  0
 16 31  1  6  0  0  0
 17  4  1  6  0  0  0
 17 10  1  0  0  0  0
 17 18  1  0  0  0  0
 19 20  2  0  0  0  0
 19 23  1  0  0  0  0
 20 21  1  0  0  0  0
 20 22  1  0  0  0  0
 21 34  1  0  0  0  0
 21 35  1  0  0  0  0
 22 36  1  0  0  0  0
 22 37  1  0  0  0  0
 24 26  1  0  0  0  0
 25 38  1  0  0  0  0
 25 39  1  0  0  0  0
 25 40  1  0  0  0  0
 26 41  1  0  0  0  0
 26 42  1  0  0  0  0
 28 30  1  0  0  0  0
 28 43  1  0  0  0  0
 28 44  1  0  0  0  0
 29 45  1  0  0  0  0
 29 46  1  0  0  0  0
 29 47  1  0  0  0  0
M  END
>  <DRUGBANK_ID>
DB00274

>  <SECONDARY_ACCESSION_NUMBERS>
APRD00852

>  <COMMON_NAME>
Cefmetazole

>  <CAS_NUMBER>
56796-20-4

>  <UNII>
3J962UJT8H

>  <SYNONYMS>
(6R,7S)-7-({[(cyanomethyl)sulfanyl]acetyl}amino)-7-methoxy-3-{[(1-methyl-1H-tetrazol-5-yl)sulfanyl]methyl}-8-oxo-5-thia-1-azabicyclo[4.2.0]oct-2-ene-2-carboxylic acid; Cefmetazole; Cefmetazolo; Cefmetazolum

$$$$
