
 OpenBabel10282417072D

 54 57  0  0  0  0  0  0  0  0999 V2000
   -4.9959    1.6463    0.0000 C   0  0  0  0  0  0  0  0  0  0  0  0
   -4.9971    0.8189    0.0000 C   0  0  0  0  0  0  0  0  0  0  0  0
   -4.2823    0.4060    0.0000 C   0  0  0  0  0  0  0  0  0  0  0  0
   -3.5658    0.8194    0.0000 C   0  0  0  0  0  0  0  0  0  0  0  0
   -3.5687    1.6499    0.0000 C   0  0  0  0  0  0  0  0  0  0  0  0
   -4.2841    2.0590    0.0000 C   0  0  0  0  0  0  0  0  0  0  0  0
   -2.8508    0.4080    0.0000 N   0  0  0  0  0  0  0  0  0  0  0  0
   -2.1370    0.8216    0.0000 C   0  0  0  0  0  0  0  0  0  0  0  0
   -1.4219    0.4102    0.0000 N   0  0  0  0  0  0  0  0  0  0  0  0
   -0.7081    0.8239    0.0000 C   0  0  0  0  0  0  0  0  0  0  0  0
   -2.1383    1.6466    0.0000 O   0  0  0  0  0  0  0  0  0  0  0  0
    0.0057    0.4111    0.0000 C   0  0  0  0  0  0  0  0  0  0  0  0
    0.7190    0.8241    0.0000 C   0  0  0  0  0  0  0  0  0  0  0  0
    0.7181    1.6499    0.0000 C   0  0  0  0  0  0  0  0  0  0  0  0
   -0.0020    2.0611    0.0000 C   0  0  0  0  0  0  0  0  0  0  0  0
   -0.7123    1.6459    0.0000 C   0  0  0  0  0  0  0  0  0  0  0  0
   -1.4289    2.0546    0.0000 F   0  0  0  0  0  0  0  0  0  0  0  0
    1.4314    2.0644    0.0000 Br  0  0  0  0  0  0  0  0  0  0  0  0
    1.4339    0.4123    0.0000 C   0  0  0  0  0  0  0  0  0  0  0  0
    1.4288   -0.4175    0.0000 C   0  0  0  0  0  0  0  0  0  0  0  0
    2.1396   -0.8291    0.0000 N   0  0  0  0  0  0  0  0  0  0  0  0
    2.1417    0.8227    0.0000 C   0  0  0  0  0  0  0  0  0  0  0  0
    2.8570    0.4065    0.0000 C   0  0  0  0  0  0  0  0  0  0  0  0
    2.8551   -0.4204    0.0000 C   0  0  0  0  0  0  0  0  0  0  0  0
    3.5663   -0.8333    0.0000 C   0  0  0  0  0  0  0  0  0  0  0  0
    4.2842   -0.4238    0.0000 C   0  0  0  0  0  0  0  0  0  0  0  0
    4.2862    0.4031    0.0000 N   0  0  0  0  0  0  0  0  0  0  0  0
    3.5703    0.8206    0.0000 C   0  0  0  0  0  0  0  0  0  0  0  0
    0.7128   -0.8273    0.0000 O   0  0  0  0  0  0  0  0  0  0  0  0
    2.1371   -1.6540    0.0000 C   0  0  0  0  0  0  0  0  0  0  0  0
    1.4214   -2.0644    0.0000 C   0  0  0  0  0  0  0  0  0  0  0  0
    4.9971   -0.8391    0.0000 N   0  0  0  0  0  0  0  0  0  0  0  0
    4.9939   -1.6641    0.0000 C   0  0  0  0  0  0  0  0  0  0  0  0
   -5.8897    2.1621    0.0000 H   0  0  0  0  0  0  0  0  0  0  0  0
   -5.8913    0.3036    0.0000 H   0  0  0  0  0  0  0  0  0  0  0  0
   -4.2826   -0.6260    0.0000 H   0  0  0  0  0  0  0  0  0  0  0  0
   -2.6769    2.1693    0.0000 H   0  0  0  0  0  0  0  0  0  0  0  0
   -4.2872    3.0910    0.0000 H   0  0  0  0  0  0  0  0  0  0  0  0
   -2.8493   -0.5765    0.0000 H   0  0  0  0  0  0  0  0  0  0  0  0
   -1.4203   -0.5743    0.0000 H   0  0  0  0  0  0  0  0  0  0  0  0
    0.0060   -0.6209    0.0000 H   0  0  0  0  0  0  0  0  0  0  0  0
   -0.0072    3.0931    0.0000 H   0  0  0  0  0  0  0  0  0  0  0  0
    2.1425    1.8547    0.0000 H   0  0  0  0  0  0  0  0  0  0  0  0
    3.5624   -1.8653    0.0000 H   0  0  0  0  0  0  0  0  0  0  0  0
    3.5713    1.8526    0.0000 H   0  0  0  0  0  0  0  0  0  0  0  0
    3.0621   -2.1918    0.0000 H   0  0  0  0  0  0  0  0  0  0  0  0
    2.1339   -2.7240    0.0000 H   0  0  0  0  0  0  0  0  0  0  0  0
    0.4963   -1.5267    0.0000 H   0  0  0  0  0  0  0  0  0  0  0  0
    1.4182   -3.1344    0.0000 H   0  0  0  0  0  0  0  0  0  0  0  0
    0.4932   -2.5967    0.0000 H   0  0  0  0  0  0  0  0  0  0  0  0
    5.8516   -0.3502    0.0000 H   0  0  0  0  0  0  0  0  0  0  0  0
    4.0652   -2.1955    0.0000 H   0  0  0  0  0  0  0  0  0  0  0  0
    5.9185   -2.2027    0.0000 H   0  0  0  0  0  0  0  0  0  0  0  0
    4.9897   -2.7341    0.0000 H   0  0  0  0  0  0  0  0  0  0  0  0
  1  2  2  0  0  0  0
  1 34  1  0  0  0  0
  2  3  1  0  0  0  0
  2 35  1  0  0  0  0
  3  4  2  0  0  0  0
  3 36  1  0  0  0  0
  4  5  1  0  0  0  0
  4  7  1  0  0  0  0
  5  6  2  0  0  0  0
  5 37  1  0  0  0  0
  6  1  1  0  0  0  0
  6 38  1  0  0  0  0
  7  8  1  0  0  0  0
  7 39  1  0  0  0  0
  8  9  1  0  0  0  0
  8 11  2  0  0  0  0
  9 10  1  0  0  0  0
  9 40  1  0  0  0  0
 10 12  2  0  0  0  0
 12 13  1  0  0  0  0
 12 41  1  0  0  0  0
 13 19  1  0  0  0  0
 13 14  2  0  0  0  0
 14 18  1  0  0  0  0
 14 15  1  0  0  0  0
 15 16  2  0  0  0  0
 15 42  1  0  0  0  0
 16 10  1  0  0  0  0
 16 17  1  0  0  0  0
 19 20  1  0  0  0  0
 19 22  2  0  0  0  0
 20 21  1  0  0  0  0
 20 29  2  0  0  0  0
 21 24  1  0  0  0  0
 21 30  1  0  0  0  0
 22 43  1  0  0  0  0
 23 22  1  0  0  0  0
 23 24  2  0  0  0  0
 23 28  1  0  0  0  0
 24 25  1  0  0  0  0
 25 26  2  0  0  0  0
 25 44  1  0  0  0  0
 26 27  1  0  0  0  0
 26 32  1  0  0  0  0
 27 28  2  0  0  0  0
 28 45  1  0  0  0  0
 30 31  1  0  0  0  0
 30 46  1  0  0  0  0
 30 47  1  0  0  0  0
 31 48  1  0  0  0  0
 31 49  1  0  0  0  0
 31 50  1  0  0  0  0
 32 33  1  0  0  0  0
 32 51  1  0  0  0  0
 33 52  1  0  0  0  0
 33 53  1  0  0  0  0
 33 54  1  0  0  0  0
M  END
>  <DRUGBANK_ID>
DB14840

>  <COMMON_NAME>
Ripretinib

>  <CAS_NUMBER>
1442472-39-0

>  <UNII>
9XW757O13D

>  <SYNONYMS>
Ripretinib

$$$$
