
 OpenBabel10282417072D

 30 30  0  0  0  0  0  0  0  0999 V2000
    0.7145   -0.8250    0.0000 O   0  0  0  0  0  0  0  0  0  0  0  0
   -1.4289    0.4125    0.0000 O   0  0  0  0  0  0  0  0  0  0  0  0
   -1.4289   -1.2375    0.0000 O   0  0  0  0  0  0  0  0  0  0  0  0
    1.4289    0.4125    0.0000 O   0  0  0  0  0  0  0  0  0  0  0  0
    0.7145   -2.4750    0.0000 O   0  0  0  0  0  0  0  0  0  0  0  0
    1.4289    1.2375    0.0000 O   0  0  0  0  0  0  0  0  0  0  0  0
    0.0000    1.2375    0.0000 N   0  0  0  0  0  0  0  0  0  0  0  0
   -0.7144    0.0000    0.0000 C   0  0  1  0  0  0  0  0  0  0  0  0
    0.0000    0.4125    0.0000 C   0  0  2  0  0  0  0  0  0  0  0  0
   -0.7144   -0.8250    0.0000 C   0  0  1  0  0  0  0  0  0  0  0  0
    0.0000   -1.2375    0.0000 C   0  0  1  0  0  0  0  0  0  0  0  0
    0.7145    0.0000    0.0000 C   0  0  1  0  0  0  0  0  0  0  0  0
    0.0000   -2.0625    0.0000 C   0  0  0  0  0  0  0  0  0  0  0  0
    0.7145    1.6500    0.0000 C   0  0  0  0  0  0  0  0  0  0  0  0
    0.7145    2.4750    0.0000 C   0  0  0  0  0  0  0  0  0  0  0  0
   -0.4429    1.4932    0.0000 H   0  0  0  0  0  0  0  0  0  0  0  0
   -1.4289    1.3825    0.0000 H   0  0  0  0  0  0  0  0  0  0  0  0
   -2.2689   -0.7525    0.0000 H   0  0  0  0  0  0  0  0  0  0  0  0
    2.2690   -0.0725    0.0000 H   0  0  0  0  0  0  0  0  0  0  0  0
    0.7145   -3.4450    0.0000 H   0  0  0  0  0  0  0  0  0  0  0  0
   -0.7144    1.0700    0.0000 H   0  0  0  0  0  0  0  0  0  0  0  0
   -0.9267    0.9475    0.0000 H   0  0  0  0  0  0  0  0  0  0  0  0
   -1.6410   -0.2900    0.0000 H   0  0  0  0  0  0  0  0  0  0  0  0
    0.9266   -1.7725    0.0000 H   0  0  0  0  0  0  0  0  0  0  0  0
    1.6412   -0.5350    0.0000 H   0  0  0  0  0  0  0  0  0  0  0  0
   -0.9266   -2.5975    0.0000 H   0  0  0  0  0  0  0  0  0  0  0  0
   -0.9266   -1.5275    0.0000 H   0  0  0  0  0  0  0  0  0  0  0  0
    1.6411    3.0100    0.0000 H   0  0  0  0  0  0  0  0  0  0  0  0
   -0.2121    3.0100    0.0000 H   0  0  0  0  0  0  0  0  0  0  0  0
    0.7145    3.5450    0.0000 H   0  0  0  0  0  0  0  0  0  0  0  0
  1 11  1  0  0  0  0
  1 12  1  0  0  0  0
  2 17  1  0  0  0  0
  3 18  1  0  0  0  0
  4 19  1  0  0  0  0
  5 13  1  0  0  0  0
  5 20  1  0  0  0  0
  6 14  2  0  0  0  0
  7 14  1  0  0  0  0
  7 16  1  0  0  0  0
  8  2  1  0  0  0  0
  8  9  1  0  0  0  0
  8 10  1  0  0  0  0
  8 21  1  6  0  0  0
  9  7  1  0  0  0  0
  9 12  1  0  0  0  0
  9 22  1  6  0  0  0
 10  3  1  0  0  0  0
 10 11  1  0  0  0  0
 10 23  1  6  0  0  0
 11 13  1  0  0  0  0
 11 24  1  1  0  0  0
 12  4  1  0  0  0  0
 12 25  1  1  0  0  0
 13 26  1  0  0  0  0
 13 27  1  0  0  0  0
 14 15  1  0  0  0  0
 15 28  1  0  0  0  0
 15 29  1  0  0  0  0
 15 30  1  0  0  0  0
M  END
>  <DRUGBANK_ID>
DB03109

>  <SECONDARY_ACCESSION_NUMBERS>
EXPT02281

>  <COMMON_NAME>
2-acetylamino-2-deoxy-b-D-allopyranose

>  <SYNONYMS>
N-acetyl-D-allosamine

$$$$
