
 OpenBabel10282417072D

 27 28  0  0  0  0  0  0  0  0999 V2000
   -0.5952   -0.4125    0.0000 C   0  0  0  0  0  0  0  0  0  0  0  0
   -0.1190   -1.2374    0.0000 C   0  0  3  0  0  0  0  0  0  0  0  0
   -0.1190    0.4125    0.0000 C   0  0  3  0  0  0  0  0  0  0  0  0
   -0.1190    1.2374    0.0000 C   0  0  0  0  0  0  0  0  0  0  0  0
    0.5953    0.0000    0.0000 C   0  0  0  0  0  0  0  0  0  0  0  0
    1.3097    0.4125    0.0000 O   0  0  0  0  0  0  0  0  0  0  0  0
    0.5953   -0.8250    0.0000 C   0  0  0  0  0  0  0  0  0  0  0  0
   -1.3097   -0.8250    0.0000 C   0  0  0  0  0  0  0  0  0  0  0  0
   -1.3097    0.0000    0.0000 C   0  0  0  0  0  0  0  0  0  0  0  0
   -0.8334   -0.8250    0.0000 C   0  0  0  0  0  0  0  0  0  0  0  0
   -0.8335    0.0000    0.0000 C   0  0  0  0  0  0  0  0  0  0  0  0
   -0.8756   -0.4808    0.0000 H   0  0  0  0  0  0  0  0  0  0  0  0
    0.8076    1.7724    0.0000 H   0  0  0  0  0  0  0  0  0  0  0  0
   -1.0456    1.7724    0.0000 H   0  0  0  0  0  0  0  0  0  0  0  0
   -0.1190    2.3074    0.0000 H   0  0  0  0  0  0  0  0  0  0  0  0
    1.5219   -1.3600    0.0000 H   0  0  0  0  0  0  0  0  0  0  0  0
    1.5219   -0.2900    0.0000 H   0  0  0  0  0  0  0  0  0  0  0  0
   -2.2363   -0.2900    0.0000 H   0  0  0  0  0  0  0  0  0  0  0  0
   -1.3097   -1.8950    0.0000 H   0  0  0  0  0  0  0  0  0  0  0  0
   -2.2364   -1.3600    0.0000 H   0  0  0  0  0  0  0  0  0  0  0  0
   -1.3097    1.0700    0.0000 H   0  0  0  0  0  0  0  0  0  0  0  0
   -2.2363   -0.5350    0.0000 H   0  0  0  0  0  0  0  0  0  0  0  0
   -2.2364    0.5350    0.0000 H   0  0  0  0  0  0  0  0  0  0  0  0
   -1.7600   -1.3601    0.0000 H   0  0  0  0  0  0  0  0  0  0  0  0
   -1.7601   -0.2901    0.0000 H   0  0  0  0  0  0  0  0  0  0  0  0
   -1.7602    0.5350    0.0000 H   0  0  0  0  0  0  0  0  0  0  0  0
   -0.8335    1.0700    0.0000 H   0  0  0  0  0  0  0  0  0  0  0  0
  2  1  1  0  0  0  0
  2 10  1  0  0  0  0
  2  7  1  0  0  0  0
  2 12  1  0  0  0  0
  3  1  1  0  0  0  0
  3  4  1  0  0  0  0
  3  5  1  0  0  0  0
  4 13  1  0  0  0  0
  4 14  1  0  0  0  0
  4 15  1  0  0  0  0
  5  6  2  0  0  0  0
  5  7  1  0  0  0  0
  7 16  1  0  0  0  0
  7 17  1  0  0  0  0
  8  1  1  0  0  0  0
  8 18  1  0  0  0  0
  8 19  1  0  0  0  0
  8 20  1  0  0  0  0
  9  1  1  0  0  0  0
  9 21  1  0  0  0  0
  9 22  1  0  0  0  0
  9 23  1  0  0  0  0
 10 11  1  0  0  0  0
 10 24  1  0  0  0  0
 10 25  1  0  0  0  0
 11  3  1  0  0  0  0
 11 26  1  0  0  0  0
 11 27  1  0  0  0  0
M  END
>  <DRUGBANK_ID>
DB14156

>  <COMMON_NAME>
Synthetic camphor

>  <CAS_NUMBER>
76-22-2

>  <UNII>
5TJD82A1ET

>  <SYNONYMS>
(+/-)-camphor; (1RS,4RS)-1,7,7-trimethylbicyclo(2.2.1)heptan-2-one; 1,7,7-trimethylbicyclo(2.2.1)heptan-2-one; 2-bornanone; 2-camphanone; Camphor (synthetic); Camphor, racemic; DL-camphor; Gum camphor

$$$$
