
 OpenBabel10282417072D

140144  0  0  0  0  0  0  0  0999 V2000
   -6.4134   -0.0982    0.0000 Mg  0  2  0  0  0  0  0  0  0  0  0  0
   -5.2599   -3.7097    0.0000 O   0  0  0  0  0  0  0  0  0  0  0  0
   -3.3590   -2.9724    0.0000 O   0  0  0  0  0  0  0  0  0  0  0  0
   -3.1894   -1.5536    0.0000 O   0  0  0  0  0  0  0  0  0  0  0  0
   -1.1269   -0.7971    0.0000 O   0  0  0  0  0  0  0  0  0  0  0  0
   -1.9871   -1.9380    0.0000 O   0  0  0  0  0  0  0  0  0  0  0  0
   -8.1166    2.8627    0.0000 O   0  0  0  0  0  0  0  0  0  0  0  0
   -6.3824   -1.1664    0.0000 N   0  5  0  0  0  0  0  0  0  0  0  0
   -5.1870   -0.0762    0.0000 N   0  0  0  0  0  0  0  0  0  0  0  0
   -6.4091    1.0139    0.0000 N   0  5  0  0  0  0  0  0  0  0  0  0
   -7.5794   -0.0762    0.0000 N   0  0  0  0  0  0  0  0  0  0  0  0
   -3.9634   -0.4481    0.0000 C   0  0  1  0  0  0  0  0  0  0  0  0
   -3.9634    0.3488    0.0000 C   0  0  1  0  0  0  0  0  0  0  0  0
   -4.7085   -0.6614    0.0000 C   0  0  0  0  0  0  0  0  0  0  0  0
   -4.9470   -1.4317    0.0000 C   0  0  0  0  0  0  0  0  0  0  0  0
   -5.7440   -1.6450    0.0000 C   0  0  0  0  0  0  0  0  0  0  0  0
   -4.5030   -2.1161    0.0000 C   0  0  2  0  0  0  0  0  0  0  0  0
   -3.3047   -0.9447    0.0000 C   0  0  0  0  0  0  0  0  0  0  0  0
   -4.7351    0.5621    0.0000 C   0  0  0  0  0  0  0  0  0  0  0  0
   -5.9840   -2.4154    0.0000 C   0  0  0  0  0  0  0  0  0  0  0  0
   -5.3182   -2.8867    0.0000 C   0  0  0  0  0  0  0  0  0  0  0  0
   -7.0210   -1.6717    0.0000 C   0  0  0  0  0  0  0  0  0  0  0  0
   -8.8015   -0.4747    0.0000 C   0  0  2  0  0  0  0  0  0  0  0  0
   -6.7811   -2.4154    0.0000 C   0  0  0  0  0  0  0  0  0  0  0  0
   -8.8015    0.3222    0.0000 C   0  0  2  0  0  0  0  0  0  0  0  0
   -3.3069    0.8484    0.0000 C   0  0  0  0  0  0  0  0  0  0  0  0
   -8.0312   -0.6880    0.0000 C   0  0  0  0  0  0  0  0  0  0  0  0
   -4.9737    1.3058    0.0000 C   0  0  0  0  0  0  0  0  0  0  0  0
   -2.5452   -0.6226    0.0000 C   0  0  0  0  0  0  0  0  0  0  0  0
   -5.7440    1.5458    0.0000 C   0  0  0  0  0  0  0  0  0  0  0  0
   -7.7914   -1.4317    0.0000 C   0  0  0  0  0  0  0  0  0  0  0  0
   -8.0312    0.5354    0.0000 C   0  0  0  0  0  0  0  0  0  0  0  0
   -7.0475    1.5191    0.0000 C   0  0  0  0  0  0  0  0  0  0  0  0
   -9.4581   -0.9742    0.0000 C   0  0  0  0  0  0  0  0  0  0  0  0
   -3.6838   -2.2140    0.0000 C   0  0  0  0  0  0  0  0  0  0  0  0
   -6.0106    2.2895    0.0000 C   0  0  0  0  0  0  0  0  0  0  0  0
   -7.8179    1.3058    0.0000 C   0  0  0  0  0  0  0  0  0  0  0  0
   -7.2667   -3.0823    0.0000 C   0  0  0  0  0  0  0  0  0  0  0  0
   -6.8076    2.2895    0.0000 C   0  0  0  0  0  0  0  0  0  0  0  0
   -9.4581    0.8217    0.0000 C   0  0  0  0  0  0  0  0  0  0  0  0
   -1.8864   -1.1192    0.0000 C   0  0  0  0  0  0  0  0  0  0  0  0
  -10.2190   -0.6553    0.0000 C   0  0  0  0  0  0  0  0  0  0  0  0
   -5.5357    2.9641    0.0000 C   0  0  0  0  0  0  0  0  0  0  0  0
   -7.2966    2.9540    0.0000 C   0  0  0  0  0  0  0  0  0  0  0  0
    6.6230   -2.1661    0.0000 C   0  0  1  0  0  0  0  0  0  0  0  0
    5.9642   -1.6694    0.0000 C   0  0  0  0  0  0  0  0  0  0  0  0
    3.7865   -1.8171    0.0000 C   0  0  2  0  0  0  0  0  0  0  0  0
    5.2047   -1.9916    0.0000 C   0  0  0  0  0  0  0  0  0  0  0  0
    4.5460   -1.4949    0.0000 C   0  0  0  0  0  0  0  0  0  0  0  0
    7.3825   -1.8439    0.0000 C   0  0  0  0  0  0  0  0  0  0  0  0
    3.1277   -1.3205    0.0000 C   0  0  0  0  0  0  0  0  0  0  0  0
    8.0413   -2.3406    0.0000 C   0  0  0  0  0  0  0  0  0  0  0  0
    2.3682   -1.6426    0.0000 C   0  0  0  0  0  0  0  0  0  0  0  0
   -6.9657    3.7097    0.0000 C   0  0  0  0  0  0  0  0  0  0  0  0
    8.8008   -2.0184    0.0000 C   0  0  0  0  0  0  0  0  0  0  0  0
    6.5223   -2.9849    0.0000 C   0  0  0  0  0  0  0  0  0  0  0  0
   -2.5399   -3.0704    0.0000 C   0  0  0  0  0  0  0  0  0  0  0  0
    3.6857   -2.6359    0.0000 C   0  0  0  0  0  0  0  0  0  0  0  0
    9.4595   -2.5151    0.0000 C   0  0  0  0  0  0  0  0  0  0  0  0
    1.7094   -1.1460    0.0000 C   0  0  0  0  0  0  0  0  0  0  0  0
   -0.4681   -1.2937    0.0000 C   0  0  0  0  0  0  0  0  0  0  0  0
    0.9499   -1.4682    0.0000 C   0  0  0  0  0  0  0  0  0  0  0  0
    0.2912   -0.9716    0.0000 C   0  0  0  0  0  0  0  0  0  0  0  0
    9.3588   -3.3339    0.0000 C   0  0  0  0  0  0  0  0  0  0  0  0
   10.2190   -2.1929    0.0000 C   0  0  0  0  0  0  0  0  0  0  0  0
    0.8492   -2.2870    0.0000 C   0  0  0  0  0  0  0  0  0  0  0  0
   -3.0058    0.0292    0.0000 H   0  0  0  0  0  0  0  0  0  0  0  0
   -3.0047   -0.1264    0.0000 H   0  0  0  0  0  0  0  0  0  0  0  0
   -3.9372   -1.2079    0.0000 H   0  0  0  0  0  0  0  0  0  0  0  0
   -3.4354   -2.0067    0.0000 H   0  0  0  0  0  0  0  0  0  0  0  0
   -2.4504   -1.5889    0.0000 H   0  0  0  0  0  0  0  0  0  0  0  0
   -9.7602    0.0005    0.0000 H   0  0  0  0  0  0  0  0  0  0  0  0
   -9.7602   -0.1530    0.0000 H   0  0  0  0  0  0  0  0  0  0  0  0
   -2.3200    0.4350    0.0000 H   0  0  0  0  0  0  0  0  0  0  0  0
   -3.4423    1.9098    0.0000 H   0  0  0  0  0  0  0  0  0  0  0  0
   -2.4554    1.4964    0.0000 H   0  0  0  0  0  0  0  0  0  0  0  0
   -4.2470    2.0386    0.0000 H   0  0  0  0  0  0  0  0  0  0  0  0
   -2.4145    0.4394    0.0000 H   0  0  0  0  0  0  0  0  0  0  0  0
   -1.5602   -0.2047    0.0000 H   0  0  0  0  0  0  0  0  0  0  0  0
   -8.5175   -2.1650    0.0000 H   0  0  0  0  0  0  0  0  0  0  0  0
   -9.3229   -2.0356    0.0000 H   0  0  0  0  0  0  0  0  0  0  0  0
  -10.3097   -1.6220    0.0000 H   0  0  0  0  0  0  0  0  0  0  0  0
   -8.5476    2.0355    0.0000 H   0  0  0  0  0  0  0  0  0  0  0  0
   -8.3307   -2.9693    0.0000 H   0  0  0  0  0  0  0  0  0  0  0  0
   -6.8325   -4.0602    0.0000 H   0  0  0  0  0  0  0  0  0  0  0  0
   -7.8965   -3.9473    0.0000 H   0  0  0  0  0  0  0  0  0  0  0  0
   -9.3229    1.8831    0.0000 H   0  0  0  0  0  0  0  0  0  0  0  0
  -10.4449    0.4081    0.0000 H   0  0  0  0  0  0  0  0  0  0  0  0
  -10.3097    1.4695    0.0000 H   0  0  0  0  0  0  0  0  0  0  0  0
  -10.3542    0.4061    0.0000 H   0  0  0  0  0  0  0  0  0  0  0  0
  -11.0706   -1.3031    0.0000 H   0  0  0  0  0  0  0  0  0  0  0  0
  -11.2058   -0.2417    0.0000 H   0  0  0  0  0  0  0  0  0  0  0  0
   -4.4700    2.8682    0.0000 H   0  0  0  0  0  0  0  0  0  0  0  0
   -5.9855    3.9350    0.0000 H   0  0  0  0  0  0  0  0  0  0  0  0
   -4.9198    3.8390    0.0000 H   0  0  0  0  0  0  0  0  0  0  0  0
    5.6380   -2.5840    0.0000 H   0  0  0  0  0  0  0  0  0  0  0  0
    6.0948   -0.6074    0.0000 H   0  0  0  0  0  0  0  0  0  0  0  0
    5.1098   -1.0253    0.0000 H   0  0  0  0  0  0  0  0  0  0  0  0
    4.6409   -2.4613    0.0000 H   0  0  0  0  0  0  0  0  0  0  0  0
    5.0740   -3.0536    0.0000 H   0  0  0  0  0  0  0  0  0  0  0  0
    4.2196   -2.4094    0.0000 H   0  0  0  0  0  0  0  0  0  0  0  0
    4.6767   -0.4329    0.0000 H   0  0  0  0  0  0  0  0  0  0  0  0
    5.5311   -1.0771    0.0000 H   0  0  0  0  0  0  0  0  0  0  0  0
    7.5131   -0.7819    0.0000 H   0  0  0  0  0  0  0  0  0  0  0  0
    8.3675   -1.4261    0.0000 H   0  0  0  0  0  0  0  0  0  0  0  0
    3.2584   -0.2585    0.0000 H   0  0  0  0  0  0  0  0  0  0  0  0
    2.2733   -0.6763    0.0000 H   0  0  0  0  0  0  0  0  0  0  0  0
    7.9107   -3.4026    0.0000 H   0  0  0  0  0  0  0  0  0  0  0  0
    8.8957   -2.9847    0.0000 H   0  0  0  0  0  0  0  0  0  0  0  0
    2.2375   -2.7046    0.0000 H   0  0  0  0  0  0  0  0  0  0  0  0
    1.3832   -2.0605    0.0000 H   0  0  0  0  0  0  0  0  0  0  0  0
   -5.9023    3.8281    0.0000 H   0  0  0  0  0  0  0  0  0  0  0  0
   -7.5999    4.5715    0.0000 H   0  0  0  0  0  0  0  0  0  0  0  0
   -6.5365    4.6899    0.0000 H   0  0  0  0  0  0  0  0  0  0  0  0
    8.9315   -0.9564    0.0000 H   0  0  0  0  0  0  0  0  0  0  0  0
    9.7859   -1.6006    0.0000 H   0  0  0  0  0  0  0  0  0  0  0  0
    5.5373   -3.4028    0.0000 H   0  0  0  0  0  0  0  0  0  0  0  0
    7.3767   -3.6290    0.0000 H   0  0  0  0  0  0  0  0  0  0  0  0
    6.3917   -4.0469    0.0000 H   0  0  0  0  0  0  0  0  0  0  0  0
   -2.1188   -4.0540    0.0000 H   0  0  0  0  0  0  0  0  0  0  0  0
   -1.8986   -2.2139    0.0000 H   0  0  0  0  0  0  0  0  0  0  0  0
   -1.4775   -3.1975    0.0000 H   0  0  0  0  0  0  0  0  0  0  0  0
    2.7006   -3.0537    0.0000 H   0  0  0  0  0  0  0  0  0  0  0  0
    4.5400   -3.2801    0.0000 H   0  0  0  0  0  0  0  0  0  0  0  0
    3.5550   -3.6979    0.0000 H   0  0  0  0  0  0  0  0  0  0  0  0
   10.3139   -3.1592    0.0000 H   0  0  0  0  0  0  0  0  0  0  0  0
    1.8400   -0.0840    0.0000 H   0  0  0  0  0  0  0  0  0  0  0  0
    0.8550   -0.5019    0.0000 H   0  0  0  0  0  0  0  0  0  0  0  0
   -0.5987   -2.3557    0.0000 H   0  0  0  0  0  0  0  0  0  0  0  0
    0.3863   -1.9378    0.0000 H   0  0  0  0  0  0  0  0  0  0  0  0
    0.4172    0.0527    0.0000 H   0  0  0  0  0  0  0  0  0  0  0  0
    8.3738   -3.7518    0.0000 H   0  0  0  0  0  0  0  0  0  0  0  0
   10.2132   -3.9780    0.0000 H   0  0  0  0  0  0  0  0  0  0  0  0
    9.2282   -4.3959    0.0000 H   0  0  0  0  0  0  0  0  0  0  0  0
   11.0734   -2.8370    0.0000 H   0  0  0  0  0  0  0  0  0  0  0  0
   10.3496   -1.1309    0.0000 H   0  0  0  0  0  0  0  0  0  0  0  0
   11.2040   -1.7750    0.0000 H   0  0  0  0  0  0  0  0  0  0  0  0
   -0.1358   -2.7049    0.0000 H   0  0  0  0  0  0  0  0  0  0  0  0
    1.7036   -2.9311    0.0000 H   0  0  0  0  0  0  0  0  0  0  0  0
    0.7186   -3.3490    0.0000 H   0  0  0  0  0  0  0  0  0  0  0  0
  2 21  2  0  0  0  0
  3 35  1  0  0  0  0
  3 57  1  0  0  0  0
  4 35  2  0  0  0  0
  5 41  1  0  0  0  0
  5 61  1  0  0  0  0
  6 41  2  0  0  0  0
  7 44  2  0  0  0  0
  8 16  1  0  0  0  0
  8 22  1  0  0  0  0
  9 14  2  0  0  0  0
  9 19  1  0  0  0  0
 10 30  1  0  0  0  0
 10 33  1  0  0  0  0
 11 27  2  0  0  0  0
 11 32  1  0  0  0  0
 12 13  1  0  0  0  0
 12 14  1  0  0  0  0
 12 18  1  0  0  0  0
 12 67  1  1  0  0  0
 13 19  1  0  0  0  0
 13 26  1  0  0  0  0
 13 68  1  6  0  0  0
 14 15  1  0  0  0  0
 15 16  2  0  0  0  0
 15 17  1  0  0  0  0
 16 20  1  0  0  0  0
 17 21  1  0  0  0  0
 17 35  1  0  0  0  0
 17 69  1  6  0  0  0
 18 29  1  0  0  0  0
 18 70  1  0  0  0  0
 18 71  1  0  0  0  0
 19 28  2  0  0  0  0
 20 21  1  0  0  0  0
 20 24  2  0  0  0  0
 22 24  1  0  0  0  0
 22 31  2  0  0  0  0
 23 25  1  0  0  0  0
 23 27  1  0  0  0  0
 23 34  1  0  0  0  0
 23 72  1  1  0  0  0
 24 38  1  0  0  0  0
 25 32  1  0  0  0  0
 25 40  1  0  0  0  0
 25 73  1  6  0  0  0
 26 74  1  0  0  0  0
 26 75  1  0  0  0  0
 26 76  1  0  0  0  0
 27 31  1  0  0  0  0
 28 30  1  0  0  0  0
 28 77  1  0  0  0  0
 29 41  1  0  0  0  0
 29 78  1  0  0  0  0
 29 79  1  0  0  0  0
 30 36  2  0  0  0  0
 31 80  1  0  0  0  0
 32 37  2  0  0  0  0
 33 37  1  0  0  0  0
 33 39  2  0  0  0  0
 34 42  1  0  0  0  0
 34 81  1  0  0  0  0
 34 82  1  0  0  0  0
 36 39  1  0  0  0  0
 36 43  1  0  0  0  0
 37 83  1  0  0  0  0
 38 84  1  0  0  0  0
 38 85  1  0  0  0  0
 38 86  1  0  0  0  0
 39 44  1  0  0  0  0
 40 87  1  0  0  0  0
 40 88  1  0  0  0  0
 40 89  1  0  0  0  0
 42 90  1  0  0  0  0
 42 91  1  0  0  0  0
 42 92  1  0  0  0  0
 43 93  1  0  0  0  0
 43 94  1  0  0  0  0
 43 95  1  0  0  0  0
 44 54  1  0  0  0  0
 45 46  1  0  0  0  0
 45 50  1  0  0  0  0
 45 56  1  0  0  0  0
 45 96  1  6  0  0  0
 46 48  1  0  0  0  0
 46 97  1  0  0  0  0
 46 98  1  0  0  0  0
 47 49  1  0  0  0  0
 47 51  1  0  0  0  0
 47 58  1  0  0  0  0
 47 99  1  6  0  0  0
 48 49  1  0  0  0  0
 48100  1  0  0  0  0
 48101  1  0  0  0  0
 49102  1  0  0  0  0
 49103  1  0  0  0  0
 50 52  1  0  0  0  0
 50104  1  0  0  0  0
 50105  1  0  0  0  0
 51 53  1  0  0  0  0
 51106  1  0  0  0  0
 51107  1  0  0  0  0
 52 55  1  0  0  0  0
 52108  1  0  0  0  0
 52109  1  0  0  0  0
 53 60  1  0  0  0  0
 53110  1  0  0  0  0
 53111  1  0  0  0  0
 54112  1  0  0  0  0
 54113  1  0  0  0  0
 54114  1  0  0  0  0
 55 59  1  0  0  0  0
 55115  1  0  0  0  0
 55116  1  0  0  0  0
 56117  1  0  0  0  0
 56118  1  0  0  0  0
 56119  1  0  0  0  0
 57120  1  0  0  0  0
 57121  1  0  0  0  0
 57122  1  0  0  0  0
 58123  1  0  0  0  0
 58124  1  0  0  0  0
 58125  1  0  0  0  0
 59 64  1  0  0  0  0
 59 65  1  0  0  0  0
 59126  1  0  0  0  0
 60 62  1  0  0  0  0
 60127  1  0  0  0  0
 60128  1  0  0  0  0
 61 63  1  0  0  0  0
 61129  1  0  0  0  0
 61130  1  0  0  0  0
 62 63  2  0  0  0  0
 62 66  1  0  0  0  0
 63131  1  0  0  0  0
 64132  1  0  0  0  0
 64133  1  0  0  0  0
 64134  1  0  0  0  0
 65135  1  0  0  0  0
 65136  1  0  0  0  0
 65137  1  0  0  0  0
 66138  1  0  0  0  0
 66139  1  0  0  0  0
 66140  1  0  0  0  0
M  CHG  3   1   2   8  -1  10  -1
M  END
>  <DRUGBANK_ID>
DB01853

>  <SECONDARY_ACCESSION_NUMBERS>
EXPT00640

>  <COMMON_NAME>
Bacteriochlorophyll A

>  <CAS_NUMBER>
17499-98-8

>  <SYNONYMS>
Bacterio-chlorophyll A

$$$$
