
 OpenBabel10282417072D

108112  0  0  1  0  0  0  0  0999 V2000
   -0.7145   -0.4125    0.0000 C   0  0  0  0  0  0  0  0  0  0  0  0
   -1.4289    2.4750    0.0000 C   0  0  0  0  0  0  0  0  0  0  0  0
   -2.1434    3.7125    0.0000 C   0  0  0  0  0  0  0  0  0  0  0  0
    0.7145    8.6625    0.0000 C   0  0  0  0  0  0  0  0  0  0  0  0
   -5.0013   -1.2375    0.0000 C   0  0  0  0  0  0  0  0  0  0  0  0
    2.1434    4.5375    0.0000 C   0  0  0  0  0  0  0  0  0  0  0  0
   -1.4289   -0.0000    0.0000 C   0  0  2  0  0  0  0  0  0  0  0  0
   -1.4289    3.3000    0.0000 C   0  0  0  0  0  0  0  0  0  0  0  0
   -0.7145    2.0625    0.0000 C   0  0  1  0  0  0  0  0  0  0  0  0
    1.4289    8.2500    0.0000 C   0  0  2  0  0  0  0  0  0  0  0  0
   -4.2868   -1.6500    0.0000 C   0  0  2  0  0  0  0  0  0  0  0  0
    1.4289    4.9500    0.0000 C   0  0  2  0  0  0  0  0  0  0  0  0
   -1.4289    0.8250    0.0000 C   0  0  2  0  0  0  0  0  0  0  0  0
   -0.0000    2.4750    0.0000 C   0  0  1  0  0  0  0  0  0  0  0  0
    2.1434    8.6625    0.0000 C   0  0  2  0  0  0  0  0  0  0  0  0
   -2.1434    1.2375    0.0000 C   0  0  1  0  0  0  0  0  0  0  0  0
    2.8579    8.2500    0.0000 C   0  0  1  0  0  0  0  0  0  0  0  0
   -0.0000    3.3000    0.0000 C   0  0  2  0  0  0  0  0  0  0  0  0
   -2.8579   -1.6500    0.0000 C   0  0  2  0  0  0  0  0  0  0  0  0
    0.7145    6.1875    0.0000 C   0  0  2  0  0  0  0  0  0  0  0  0
   -2.8579   -2.4750    0.0000 C   0  0  2  0  0  0  0  0  0  0  0  0
   -2.8579    0.8250    0.0000 C   0  0  2  0  0  0  0  0  0  0  0  0
    2.8579    7.4250    0.0000 C   0  0  2  0  0  0  0  0  0  0  0  0
   -0.0000    5.7750    0.0000 C   0  0  2  0  0  0  0  0  0  0  0  0
   -0.7145    3.7125    0.0000 C   0  0  2  0  0  0  0  0  0  0  0  0
   -3.5724   -1.2375    0.0000 C   0  0  2  0  0  0  0  0  0  0  0  0
    1.4289    5.7750    0.0000 C   0  0  2  0  0  0  0  0  0  0  0  0
   -3.5724   -2.8875    0.0000 C   0  0  1  0  0  0  0  0  0  0  0  0
   -2.8579   -0.0000    0.0000 C   0  0  2  0  0  0  0  0  0  0  0  0
    2.1434    7.0125    0.0000 C   0  0  2  0  0  0  0  0  0  0  0  0
   -0.0000    4.9500    0.0000 C   0  0  2  0  0  0  0  0  0  0  0  0
   -0.7145    1.2375    0.0000 N   0  0  0  0  0  0  0  0  0  0  0  0
   -2.1434    4.5375    0.0000 O   0  0  0  0  0  0  0  0  0  0  0  0
    0.7145    9.4875    0.0000 O   0  0  0  0  0  0  0  0  0  0  0  0
   -5.7158   -1.6500    0.0000 O   0  0  0  0  0  0  0  0  0  0  0  0
    2.1434    3.7125    0.0000 O   0  0  0  0  0  0  0  0  0  0  0  0
    0.7145    2.0625    0.0000 O   0  0  0  0  0  0  0  0  0  0  0  0
    2.1434    9.4875    0.0000 O   0  0  0  0  0  0  0  0  0  0  0  0
   -2.1434    2.0625    0.0000 O   0  0  0  0  0  0  0  0  0  0  0  0
    3.5724    8.6625    0.0000 O   0  0  0  0  0  0  0  0  0  0  0  0
    0.7145    3.7125    0.0000 O   0  0  0  0  0  0  0  0  0  0  0  0
   -2.1434   -1.2375    0.0000 O   0  0  0  0  0  0  0  0  0  0  0  0
    0.7145    7.0125    0.0000 O   0  0  0  0  0  0  0  0  0  0  0  0
   -2.1434   -2.8875    0.0000 O   0  0  0  0  0  0  0  0  0  0  0  0
   -3.5724    1.2375    0.0000 O   0  0  0  0  0  0  0  0  0  0  0  0
    3.5724    7.0125    0.0000 O   0  0  0  0  0  0  0  0  0  0  0  0
   -0.7145    6.1875    0.0000 O   0  0  0  0  0  0  0  0  0  0  0  0
   -3.5724   -3.7125    0.0000 O   0  0  0  0  0  0  0  0  0  0  0  0
   -2.1434   -0.4125    0.0000 O   0  0  0  0  0  0  0  0  0  0  0  0
   -4.2868   -2.4750    0.0000 O   0  0  0  0  0  0  0  0  0  0  0  0
    1.4289    7.4250    0.0000 O   0  0  0  0  0  0  0  0  0  0  0  0
    0.7145    4.5375    0.0000 O   0  0  0  0  0  0  0  0  0  0  0  0
   -0.7145    4.5375    0.0000 O   0  0  0  0  0  0  0  0  0  0  0  0
   -3.5724   -0.4125    0.0000 O   0  0  0  0  0  0  0  0  0  0  0  0
    2.1434    6.1875    0.0000 O   0  0  0  0  0  0  0  0  0  0  0  0
   -0.8986    0.6320    0.0000 H   0  0  0  0  0  0  0  0  0  0  0  0
   -1.2448    1.4305    0.0000 H   0  0  0  0  0  0  0  0  0  0  0  0
    1.1468    9.0252    0.0000 H   0  0  0  0  0  0  0  0  0  0  0  0
   -4.5690   -0.8748    0.0000 H   0  0  0  0  0  0  0  0  0  0  0  0
    1.9592    5.5820    0.0000 H   0  0  0  0  0  0  0  0  0  0  0  0
   -0.6165    0.6817    0.0000 H   0  0  0  0  0  0  0  0  0  0  0  0
   -0.0000    1.6500    0.0000 H   0  0  0  0  0  0  0  0  0  0  0  0
    1.6131    9.2945    0.0000 H   0  0  0  0  0  0  0  0  0  0  0  0
   -1.6131    1.8695    0.0000 H   0  0  0  0  0  0  0  0  0  0  0  0
    2.8579    9.0750    0.0000 H   0  0  0  0  0  0  0  0  0  0  0  0
    0.7145    2.8875    0.0000 H   0  0  0  0  0  0  0  0  0  0  0  0
   -2.0454   -1.7933    0.0000 H   0  0  0  0  0  0  0  0  0  0  0  0
   -0.0980    6.3308    0.0000 H   0  0  0  0  0  0  0  0  0  0  0  0
   -2.0454   -2.3317    0.0000 H   0  0  0  0  0  0  0  0  0  0  0  0
   -2.8579    1.6500    0.0000 H   0  0  0  0  0  0  0  0  0  0  0  0
    3.5724    7.8375    0.0000 H   0  0  0  0  0  0  0  0  0  0  0  0
   -0.2822    6.5502    0.0000 H   0  0  0  0  0  0  0  0  0  0  0  0
   -1.4289    4.1250    0.0000 H   0  0  0  0  0  0  0  0  0  0  0  0
   -4.1027   -0.6055    0.0000 H   0  0  0  0  0  0  0  0  0  0  0  0
    2.2414    5.6317    0.0000 H   0  0  0  0  0  0  0  0  0  0  0  0
   -2.8579   -3.3000    0.0000 H   0  0  0  0  0  0  0  0  0  0  0  0
   -3.5724    0.4125    0.0000 H   0  0  0  0  0  0  0  0  0  0  0  0
    2.8579    6.6000    0.0000 H   0  0  0  0  0  0  0  0  0  0  0  0
   -0.7145    5.3625    0.0000 H   0  0  0  0  0  0  0  0  0  0  0  0
   -0.7145   -1.4825    0.0000 H   0  0  0  0  0  0  0  0  0  0  0  0
    0.2122    0.1225    0.0000 H   0  0  0  0  0  0  0  0  0  0  0  0
    0.2121   -0.9475    0.0000 H   0  0  0  0  0  0  0  0  0  0  0  0
   -2.3226    1.9590    0.0000 H   0  0  0  0  0  0  0  0  0  0  0  0
   -3.0700    3.1775    0.0000 H   0  0  0  0  0  0  0  0  0  0  0  0
   -3.0700    4.2475    0.0000 H   0  0  0  0  0  0  0  0  0  0  0  0
   -0.2122    8.1275    0.0000 H   0  0  0  0  0  0  0  0  0  0  0  0
   -0.2121    9.1975    0.0000 H   0  0  0  0  0  0  0  0  0  0  0  0
   -5.0013   -0.1675    0.0000 H   0  0  0  0  0  0  0  0  0  0  0  0
   -5.9279   -0.7025    0.0000 H   0  0  0  0  0  0  0  0  0  0  0  0
    3.0700    5.0725    0.0000 H   0  0  0  0  0  0  0  0  0  0  0  0
    3.0700    4.0025    0.0000 H   0  0  0  0  0  0  0  0  0  0  0  0
    0.1689    0.7275    0.0000 H   0  0  0  0  0  0  0  0  0  0  0  0
   -1.3034    5.0225    0.0000 H   0  0  0  0  0  0  0  0  0  0  0  0
    1.5545    9.9725    0.0000 H   0  0  0  0  0  0  0  0  0  0  0  0
   -6.5558   -1.1650    0.0000 H   0  0  0  0  0  0  0  0  0  0  0  0
    1.3034    3.2275    0.0000 H   0  0  0  0  0  0  0  0  0  0  0  0
    0.7145    1.0925    0.0000 H   0  0  0  0  0  0  0  0  0  0  0  0
    2.9834    9.9725    0.0000 H   0  0  0  0  0  0  0  0  0  0  0  0
   -1.3034    2.5475    0.0000 H   0  0  0  0  0  0  0  0  0  0  0  0
    4.4124    8.1775    0.0000 H   0  0  0  0  0  0  0  0  0  0  0  0
    1.5545    3.2275    0.0000 H   0  0  0  0  0  0  0  0  0  0  0  0
   -1.3034   -1.7225    0.0000 H   0  0  0  0  0  0  0  0  0  0  0  0
    1.5545    7.4975    0.0000 H   0  0  0  0  0  0  0  0  0  0  0  0
   -2.1434   -3.8575    0.0000 H   0  0  0  0  0  0  0  0  0  0  0  0
   -3.5724    2.2075    0.0000 H   0  0  0  0  0  0  0  0  0  0  0  0
    3.5724    6.0425    0.0000 H   0  0  0  0  0  0  0  0  0  0  0  0
   -0.7145    7.1575    0.0000 H   0  0  0  0  0  0  0  0  0  0  0  0
   -4.4124   -4.1975    0.0000 H   0  0  0  0  0  0  0  0  0  0  0  0
  1 80  1  0  0  0  0
  1 81  1  0  0  0  0
  1 82  1  0  0  0  0
  2 83  1  0  0  0  0
  3 84  1  0  0  0  0
  3 85  1  0  0  0  0
  4 86  1  0  0  0  0
  4 87  1  0  0  0  0
  5 88  1  0  0  0  0
  5 89  1  0  0  0  0
  6 90  1  0  0  0  0
  6 91  1  0  0  0  0
  7  1  1  0  0  0  0
  7 56  1  6  0  0  0
  8  2  2  0  0  0  0
  8  3  1  0  0  0  0
  9  2  1  0  0  0  0
  9 32  1  0  0  0  0
  9 57  1  6  0  0  0
 10  4  1  0  0  0  0
 10 58  1  1  0  0  0
 11  5  1  0  0  0  0
 11 59  1  1  0  0  0
 12  6  1  0  0  0  0
 12 60  1  6  0  0  0
 13  7  1  0  0  0  0
 13 32  1  0  0  0  0
 13 61  1  1  0  0  0
 14  9  1  0  0  0  0
 14 37  1  0  0  0  0
 14 62  1  6  0  0  0
 15 10  1  0  0  0  0
 15 38  1  0  0  0  0
 15 63  1  6  0  0  0
 16 13  1  0  0  0  0
 16 39  1  0  0  0  0
 16 64  1  6  0  0  0
 17 15  1  0  0  0  0
 17 40  1  0  0  0  0
 17 65  1  1  0  0  0
 18 14  1  0  0  0  0
 18 41  1  0  0  0  0
 18 66  1  1  0  0  0
 19 42  1  0  0  0  0
 19 67  1  1  0  0  0
 20 43  1  0  0  0  0
 20 68  1  6  0  0  0
 21 19  1  0  0  0  0
 21 44  1  0  0  0  0
 21 69  1  6  0  0  0
 22 16  1  0  0  0  0
 22 45  1  0  0  0  0
 22 70  1  1  0  0  0
 23 17  1  0  0  0  0
 23 46  1  0  0  0  0
 23 71  1  6  0  0  0
 24 20  1  0  0  0  0
 24 47  1  0  0  0  0
 24 72  1  1  0  0  0
 25  8  1  0  0  0  0
 25 18  1  0  0  0  0
 25 53  1  0  0  0  0
 25 73  1  6  0  0  0
 26 11  1  0  0  0  0
 26 19  1  0  0  0  0
 26 54  1  0  0  0  0
 26 74  1  6  0  0  0
 27 12  1  0  0  0  0
 27 20  1  0  0  0  0
 27 55  1  0  0  0  0
 27 75  1  1  0  0  0
 28 21  1  0  0  0  0
 28 48  1  0  0  0  0
 28 76  1  6  0  0  0
 29 22  1  0  0  0  0
 29 54  1  0  0  0  0
 29 77  1  1  0  0  0
 30 23  1  0  0  0  0
 30 55  1  0  0  0  0
 30 78  1  6  0  0  0
 31 24  1  0  0  0  0
 31 53  1  0  0  0  0
 31 79  1  1  0  0  0
 32 92  1  0  0  0  0
 33  3  1  0  0  0  0
 33 93  1  0  0  0  0
 34  4  1  0  0  0  0
 34 94  1  0  0  0  0
 35  5  1  0  0  0  0
 35 95  1  0  0  0  0
 36  6  1  0  0  0  0
 36 96  1  0  0  0  0
 37 97  1  0  0  0  0
 38 98  1  0  0  0  0
 39 99  1  0  0  0  0
 40100  1  0  0  0  0
 41101  1  0  0  0  0
 42102  1  0  0  0  0
 43103  1  0  0  0  0
 44104  1  0  0  0  0
 45105  1  0  0  0  0
 46106  1  0  0  0  0
 47107  1  0  0  0  0
 48108  1  0  0  0  0
 49  7  1  0  0  0  0
 49 29  1  0  0  0  0
 50 11  1  0  0  0  0
 50 28  1  0  0  0  0
 51 10  1  0  0  0  0
 51 30  1  0  0  0  0
 52 12  1  0  0  0  0
 52 31  1  0  0  0  0
M  END
>  <DRUGBANK_ID>
DB04453

>  <SECONDARY_ACCESSION_NUMBERS>
EXPT00557

>  <COMMON_NAME>
4-O-(4,6-Dideoxy-4-{[4-[(4-O-Hexopyranosylhexopyranosyl)Oxy]-5,6-Dihydroxy-3-(Hydroxymethyl)Cyclohex-2-En-1-Yl]Amino}Hexopyranosyl)Hexopyranose

$$$$
