
 OpenBabel10282417072D

 25 26  0  0  0  0  0  0  0  0999 V2000
   -1.5356    7.2402    0.0000 N   0  0  0  0  0  0  0  0  0  0  0  0
   -0.8212    6.8277    0.0000 C   0  0  0  0  0  0  0  0  0  0  0  0
   -0.1067    7.2402    0.0000 C   0  0  0  0  0  0  0  0  0  0  0  0
    0.6078    6.8277    0.0000 C   0  0  0  0  0  0  0  0  0  0  0  0
    0.6078    6.0027    0.0000 C   0  0  0  0  0  0  0  0  0  0  0  0
   -0.1067    5.5902    0.0000 C   0  0  0  0  0  0  0  0  0  0  0  0
   -0.8212    6.0027    0.0000 C   0  0  0  0  0  0  0  0  0  0  0  0
    1.3222    5.5902    0.0000 S   0  0  0  0  0  0  0  0  0  0  0  0
    0.9097    4.8757    0.0000 O   0  0  0  0  0  0  0  0  0  0  0  0
    1.7347    6.3047    0.0000 O   0  0  0  0  0  0  0  0  0  0  0  0
    2.0367    5.1777    0.0000 N   0  0  0  0  0  0  0  0  0  0  0  0
    2.0367    4.3527    0.0000 C   0  0  0  0  0  0  0  0  0  0  0  0
    2.7041    3.8678    0.0000 N   0  0  0  0  0  0  0  0  0  0  0  0
    2.4492    3.0831    0.0000 C   0  0  0  0  0  0  0  0  0  0  0  0
    1.6242    3.0831    0.0000 C   0  0  0  0  0  0  0  0  0  0  0  0
    1.3693    3.8678    0.0000 S   0  0  0  0  0  0  0  0  0  0  0  0
   -1.5356    8.2247    0.0000 H   0  0  0  0  0  0  0  0  0  0  0  0
   -2.3882    6.7480    0.0000 H   0  0  0  0  0  0  0  0  0  0  0  0
   -0.1067    8.2722    0.0000 H   0  0  0  0  0  0  0  0  0  0  0  0
    1.5015    7.3437    0.0000 H   0  0  0  0  0  0  0  0  0  0  0  0
   -0.1067    4.5582    0.0000 H   0  0  0  0  0  0  0  0  0  0  0  0
   -1.7149    5.4867    0.0000 H   0  0  0  0  0  0  0  0  0  0  0  0
    2.8893    5.6700    0.0000 H   0  0  0  0  0  0  0  0  0  0  0  0
    3.0558    2.2482    0.0000 H   0  0  0  0  0  0  0  0  0  0  0  0
    1.0176    2.2482    0.0000 H   0  0  0  0  0  0  0  0  0  0  0  0
  1  2  1  0  0  0  0
  1 17  1  0  0  0  0
  1 18  1  0  0  0  0
  2  3  2  0  0  0  0
  2  7  1  0  0  0  0
  3  4  1  0  0  0  0
  3 19  1  0  0  0  0
  4  5  2  0  0  0  0
  4 20  1  0  0  0  0
  5  6  1  0  0  0  0
  5  8  1  0  0  0  0
  6  7  2  0  0  0  0
  6 21  1  0  0  0  0
  7 22  1  0  0  0  0
  8  9  2  0  0  0  0
  8 10  2  0  0  0  0
  8 11  1  0  0  0  0
 11 12  1  0  0  0  0
 11 23  1  0  0  0  0
 12 13  2  0  0  0  0
 12 16  1  0  0  0  0
 13 14  1  0  0  0  0
 14 15  2  0  0  0  0
 14 24  1  0  0  0  0
 15 16  1  0  0  0  0
 15 25  1  0  0  0  0
M  END
>  <DRUGBANK_ID>
DB06147

>  <COMMON_NAME>
Sulfathiazole

>  <CAS_NUMBER>
72-14-0

>  <UNII>
Y7FKS2XWQH

>  <SYNONYMS>
2-(p-Aminobenzenesulfonamido)thiazole; 2-(p-Aminobenzenesulphonamido)thiazole; 2-(Sulfanilylamino)thiazole; 2-Sulfanilamidothiazol; 2-Sulfanilamidothiazole; 2-Sulfonamidothiazole; 4-Amino-N-2-thiazolylbenzenesulfonamide; N(1)-2-Thiazolylsulfanilamide; N1-2-Thiazolylsulfanilamide; Sulfanilamidothiazole; Sulfathiazol; Sulfathiazole; Sulfathiazolum; Sulfatiazol; Sulphathiazole

$$$$
