
 OpenBabel10282417072D

 46 48  0  0  0  0  0  0  0  0999 V2000
    6.4302    4.5375    0.0000 C   0  0  0  0  0  0  0  0  0  0  0  0
    4.2868    0.8250    0.0000 C   0  0  0  0  0  0  0  0  0  0  0  0
    0.7145    4.5375    0.0000 C   0  0  0  0  0  0  0  0  0  0  0  0
    5.7158    4.9500    0.0000 C   0  0  0  0  0  0  0  0  0  0  0  0
    6.4302    3.7125    0.0000 C   0  0  0  0  0  0  0  0  0  0  0  0
    5.0013    1.2375    0.0000 C   0  0  0  0  0  0  0  0  0  0  0  0
    3.5724    1.2375    0.0000 C   0  0  0  0  0  0  0  0  0  0  0  0
    0.7145    3.7125    0.0000 C   0  0  0  0  0  0  0  0  0  0  0  0
    1.4289    4.9500    0.0000 C   0  0  0  0  0  0  0  0  0  0  0  0
    5.0013    4.5375    0.0000 C   0  0  0  0  0  0  0  0  0  0  0  0
    5.7158    3.3000    0.0000 C   0  0  0  0  0  0  0  0  0  0  0  0
    5.0013    2.0625    0.0000 C   0  0  0  0  0  0  0  0  0  0  0  0
    3.5724    2.0625    0.0000 C   0  0  0  0  0  0  0  0  0  0  0  0
    3.5724    3.7125    0.0000 C   0  0  0  0  0  0  0  0  0  0  0  0
    1.4289    3.3000    0.0000 C   0  0  0  0  0  0  0  0  0  0  0  0
    2.1434    4.5375    0.0000 C   0  0  0  0  0  0  0  0  0  0  0  0
    2.8579    3.3000    0.0000 C   0  0  0  0  0  0  0  0  0  0  0  0
    5.0013    3.7125    0.0000 C   0  0  0  0  0  0  0  0  0  0  0  0
    4.2868    2.4750    0.0000 C   0  0  0  0  0  0  0  0  0  0  0  0
    4.2868    3.3000    0.0000 C   0  0  0  0  0  0  0  0  0  0  0  0
    2.1434    3.7125    0.0000 N   0  0  0  0  0  0  0  0  0  0  0  0
    7.3239    5.0535    0.0000 H   0  0  0  0  0  0  0  0  0  0  0  0
    4.2868   -0.2070    0.0000 H   0  0  0  0  0  0  0  0  0  0  0  0
   -0.2122    5.0725    0.0000 H   0  0  0  0  0  0  0  0  0  0  0  0
    0.7145    5.6075    0.0000 H   0  0  0  0  0  0  0  0  0  0  0  0
    5.7158    5.9820    0.0000 H   0  0  0  0  0  0  0  0  0  0  0  0
    7.3239    3.1965    0.0000 H   0  0  0  0  0  0  0  0  0  0  0  0
    5.8950    0.7215    0.0000 H   0  0  0  0  0  0  0  0  0  0  0  0
    2.6787    0.7215    0.0000 H   0  0  0  0  0  0  0  0  0  0  0  0
   -0.2122    3.1775    0.0000 H   0  0  0  0  0  0  0  0  0  0  0  0
    0.7145    2.6425    0.0000 H   0  0  0  0  0  0  0  0  0  0  0  0
    1.4289    6.0200    0.0000 H   0  0  0  0  0  0  0  0  0  0  0  0
    2.3555    5.4850    0.0000 H   0  0  0  0  0  0  0  0  0  0  0  0
    4.1076    5.0535    0.0000 H   0  0  0  0  0  0  0  0  0  0  0  0
    5.7158    2.2680    0.0000 H   0  0  0  0  0  0  0  0  0  0  0  0
    5.8950    2.5785    0.0000 H   0  0  0  0  0  0  0  0  0  0  0  0
    2.6787    2.5785    0.0000 H   0  0  0  0  0  0  0  0  0  0  0  0
    3.5724    4.7825    0.0000 H   0  0  0  0  0  0  0  0  0  0  0  0
    4.4991    4.2475    0.0000 H   0  0  0  0  0  0  0  0  0  0  0  0
    1.4289    2.2300    0.0000 H   0  0  0  0  0  0  0  0  0  0  0  0
    2.3555    2.7650    0.0000 H   0  0  0  0  0  0  0  0  0  0  0  0
    3.0700    5.0725    0.0000 H   0  0  0  0  0  0  0  0  0  0  0  0
    3.0700    4.0025    0.0000 H   0  0  0  0  0  0  0  0  0  0  0  0
    2.8579    2.2300    0.0000 H   0  0  0  0  0  0  0  0  0  0  0  0
    1.9313    2.7650    0.0000 H   0  0  0  0  0  0  0  0  0  0  0  0
    5.2134    2.7650    0.0000 H   0  0  0  0  0  0  0  0  0  0  0  0
  1 22  1  0  0  0  0
  2 23  1  0  0  0  0
  3 24  1  0  0  0  0
  3 25  1  0  0  0  0
  4  1  2  0  0  0  0
  4 26  1  0  0  0  0
  5  1  1  0  0  0  0
  5 27  1  0  0  0  0
  6  2  2  0  0  0  0
  6 28  1  0  0  0  0
  7  2  1  0  0  0  0
  7 29  1  0  0  0  0
  8  3  1  0  0  0  0
  8 30  1  0  0  0  0
  8 31  1  0  0  0  0
  9  3  1  0  0  0  0
  9 32  1  0  0  0  0
  9 33  1  0  0  0  0
 10  4  1  0  0  0  0
 10 34  1  0  0  0  0
 11  5  2  0  0  0  0
 11 35  1  0  0  0  0
 12  6  1  0  0  0  0
 12 36  1  0  0  0  0
 13  7  2  0  0  0  0
 13 37  1  0  0  0  0
 14 38  1  0  0  0  0
 14 39  1  0  0  0  0
 15  8  1  0  0  0  0
 15 40  1  0  0  0  0
 15 41  1  0  0  0  0
 16  9  1  0  0  0  0
 16 42  1  0  0  0  0
 16 43  1  0  0  0  0
 17 14  1  0  0  0  0
 17 44  1  0  0  0  0
 17 45  1  0  0  0  0
 18 10  2  0  0  0  0
 18 11  1  0  0  0  0
 19 12  2  0  0  0  0
 19 13  1  0  0  0  0
 20 14  1  0  0  0  0
 20 18  1  0  0  0  0
 20 19  1  0  0  0  0
 20 46  1  0  0  0  0
 21 15  1  0  0  0  0
 21 16  1  0  0  0  0
 21 17  1  0  0  0  0
M  END
>  <DRUGBANK_ID>
DB13439

>  <COMMON_NAME>
Fenpiprane

>  <CAS_NUMBER>
3540-95-2

>  <UNII>
S2FVB1RL5X

>  <SYNONYMS>
Fenpiprane

$$$$
