
 OpenBabel10282417072D

 26 28  0  0  1  0  0  0  0  0999 V2000
    3.1844    0.6303    0.0000 C   0  0  0  0  0  0  0  0  0  0  0  0
    2.7719    1.3448    0.0000 C   0  0  0  0  0  0  0  0  0  0  0  0
    3.1844    2.0593    0.0000 C   0  0  0  0  0  0  0  0  0  0  0  0
    4.0094    2.0593    0.0000 N   0  0  0  0  0  0  0  0  0  0  0  0
    4.4219    1.3448    0.0000 C   0  0  0  0  0  0  0  0  0  0  0  0
    4.0094    0.6303    0.0000 C   0  0  0  0  0  0  0  0  0  0  0  0
    4.4219   -0.0842    0.0000 Cl  0  0  0  0  0  0  0  0  0  0  0  0
    5.2469    1.3448    0.0000 Cl  0  0  0  0  0  0  0  0  0  0  0  0
    1.9469    1.3448    0.0000 N   0  0  0  0  0  0  0  0  0  0  0  0
    1.4620    0.6773    0.0000 C   0  0  0  0  0  0  0  0  0  0  0  0
    0.6773    0.9323    0.0000 C   0  0  2  0  0  0  0  0  0  0  0  0
   -0.1477    0.9323    0.0000 C   0  0  0  0  0  0  0  0  0  0  0  0
   -0.1477    1.7573    0.0000 N   0  0  0  0  0  0  0  0  0  0  0  0
    0.6773    1.7573    0.0000 C   0  0  2  0  0  0  0  0  0  0  0  0
    1.4620    2.0122    0.0000 C   0  0  0  0  0  0  0  0  0  0  0  0
    2.6684   -0.2634    0.0000 H   0  0  0  0  0  0  0  0  0  0  0  0
    2.6684    2.9530    0.0000 H   0  0  0  0  0  0  0  0  0  0  0  0
    1.7927   -0.3403    0.0000 H   0  0  0  0  0  0  0  0  0  0  0  0
    0.7054   -0.0793    0.0000 H   0  0  0  0  0  0  0  0  0  0  0  0
    0.5099   -0.1245    0.0000 H   0  0  0  0  0  0  0  0  0  0  0  0
   -0.9043    0.1757    0.0000 H   0  0  0  0  0  0  0  0  0  0  0  0
   -1.1363    1.3418    0.0000 H   0  0  0  0  0  0  0  0  0  0  0  0
   -0.8689    2.4785    0.0000 H   0  0  0  0  0  0  0  0  0  0  0  0
   -0.0793    1.0007    0.0000 H   0  0  0  0  0  0  0  0  0  0  0  0
    1.7927    3.0298    0.0000 H   0  0  0  0  0  0  0  0  0  0  0  0
    2.5188    2.1796    0.0000 H   0  0  0  0  0  0  0  0  0  0  0  0
  1  2  2  0  0  0  0
  1  6  1  0  0  0  0
  1 16  1  0  0  0  0
  2  3  1  0  0  0  0
  2  9  1  0  0  0  0
  3  4  2  0  0  0  0
  3 17  1  0  0  0  0
  4  5  1  0  0  0  0
  5  6  2  0  0  0  0
  5  8  1  0  0  0  0
  6  7  1  0  0  0  0
  9 10  1  0  0  0  0
  9 15  1  0  0  0  0
 10 11  1  0  0  0  0
 10 18  1  0  0  0  0
 10 19  1  0  0  0  0
 11 12  1  0  0  0  0
 11 14  1  0  0  0  0
 11 20  1  1  0  0  0
 12 13  1  0  0  0  0
 12 21  1  0  0  0  0
 12 22  1  0  0  0  0
 13 23  1  0  0  0  0
 14 13  1  0  0  0  0
 14 15  1  0  0  0  0
 14 24  1  1  0  0  0
 15 25  1  0  0  0  0
 15 26  1  0  0  0  0
M  END
>  <DRUGBANK_ID>
DB12527

>  <COMMON_NAME>
Sofinicline

>  <CAS_NUMBER>
799279-80-4

>  <UNII>
SQC232V4YY

>  <SYNONYMS>
Sofinicline

$$$$
