
 OpenBabel10282417072D

 50 53  0  0  0  0  0  0  0  0999 V2000
   -1.3222    5.7134    0.0000 C   0  0  0  0  0  0  0  0  0  0  0  0
   -1.3222    4.8884    0.0000 C   0  0  0  0  0  0  0  0  0  0  0  0
   -0.6078    6.1259    0.0000 C   0  0  0  0  0  0  0  0  0  0  0  0
   -0.6078    4.4759    0.0000 C   0  0  0  0  0  0  0  0  0  0  0  0
    0.1067    5.7134    0.0000 C   0  0  0  0  0  0  0  0  0  0  0  0
    1.5356    2.4134    0.0000 C   0  0  0  0  0  0  0  0  0  0  0  0
    0.1067    2.4134    0.0000 C   0  0  0  0  0  0  0  0  0  0  0  0
   -1.3222   -1.7116    0.0000 C   0  0  0  0  0  0  0  0  0  0  0  0
    1.5356    3.2384    0.0000 C   0  0  0  0  0  0  0  0  0  0  0  0
    0.1067    3.2384    0.0000 C   0  0  0  0  0  0  0  0  0  0  0  0
   -0.6078   -1.2991    0.0000 C   0  0  0  0  0  0  0  0  0  0  0  0
    1.2337   -2.5687    0.0000 C   0  0  0  0  0  0  0  0  0  0  0  0
    1.4886   -1.7840    0.0000 C   0  0  0  0  0  0  0  0  0  0  0  0
   -2.0367   -0.4741    0.0000 C   0  0  0  0  0  0  0  0  0  0  0  0
    0.8212   -0.4741    0.0000 C   0  0  0  0  0  0  0  0  0  0  0  0
    0.8212    1.1759    0.0000 C   0  0  0  0  0  0  0  0  0  0  0  0
    0.1537   -1.7840    0.0000 C   0  0  0  0  0  0  0  0  0  0  0  0
    0.8212    2.0009    0.0000 C   0  0  0  0  0  0  0  0  0  0  0  0
   -2.0367   -1.2991    0.0000 C   0  0  0  0  0  0  0  0  0  0  0  0
    0.1067    4.8884    0.0000 C   0  0  0  0  0  0  0  0  0  0  0  0
    0.8212    3.6509    0.0000 C   0  0  0  0  0  0  0  0  0  0  0  0
   -0.6078   -0.4741    0.0000 C   0  0  0  0  0  0  0  0  0  0  0  0
   -1.3222   -0.0616    0.0000 C   0  0  0  0  0  0  0  0  0  0  0  0
    0.1067   -0.0616    0.0000 C   0  0  3  0  0  0  0  0  0  0  0  0
   -2.7512   -1.7116    0.0000 Cl  0  0  0  0  0  0  0  0  0  0  0  0
   -1.3222    0.7634    0.0000 Cl  0  0  0  0  0  0  0  0  0  0  0  0
    0.4087   -2.5687    0.0000 N   0  0  0  0  0  0  0  0  0  0  0  0
    0.8212   -1.2991    0.0000 N   0  0  0  0  0  0  0  0  0  0  0  0
    0.1067    0.7634    0.0000 O   0  0  0  0  0  0  0  0  0  0  0  0
    0.8212    4.4759    0.0000 S   0  0  0  0  0  0  0  0  0  0  0  0
   -2.2159    6.2294    0.0000 H   0  0  0  0  0  0  0  0  0  0  0  0
   -2.2159    4.3724    0.0000 H   0  0  0  0  0  0  0  0  0  0  0  0
   -0.6078    7.1579    0.0000 H   0  0  0  0  0  0  0  0  0  0  0  0
   -0.6078    3.4439    0.0000 H   0  0  0  0  0  0  0  0  0  0  0  0
    1.0004    6.2294    0.0000 H   0  0  0  0  0  0  0  0  0  0  0  0
    2.4293    1.8974    0.0000 H   0  0  0  0  0  0  0  0  0  0  0  0
   -0.7870    1.8974    0.0000 H   0  0  0  0  0  0  0  0  0  0  0  0
   -1.3222   -2.7436    0.0000 H   0  0  0  0  0  0  0  0  0  0  0  0
    2.4293    3.7544    0.0000 H   0  0  0  0  0  0  0  0  0  0  0  0
   -0.7870    3.7544    0.0000 H   0  0  0  0  0  0  0  0  0  0  0  0
    0.2859   -1.8151    0.0000 H   0  0  0  0  0  0  0  0  0  0  0  0
    1.8403   -3.4036    0.0000 H   0  0  0  0  0  0  0  0  0  0  0  0
    2.4701   -1.4651    0.0000 H   0  0  0  0  0  0  0  0  0  0  0  0
   -2.9304    0.0419    0.0000 H   0  0  0  0  0  0  0  0  0  0  0  0
    1.7478    0.0609    0.0000 H   0  0  0  0  0  0  0  0  0  0  0  0
    1.7478   -1.0091    0.0000 H   0  0  0  0  0  0  0  0  0  0  0  0
    1.7478    0.6409    0.0000 H   0  0  0  0  0  0  0  0  0  0  0  0
    0.8212    0.1059    0.0000 H   0  0  0  0  0  0  0  0  0  0  0  0
   -0.8278   -1.4651    0.0000 H   0  0  0  0  0  0  0  0  0  0  0  0
    0.1067   -1.1316    0.0000 H   0  0  0  0  0  0  0  0  0  0  0  0
  1 31  1  0  0  0  0
  2  1  2  0  0  0  0
  2 32  1  0  0  0  0
  3  1  1  0  0  0  0
  3 33  1  0  0  0  0
  4  2  1  0  0  0  0
  4 34  1  0  0  0  0
  5  3  2  0  0  0  0
  5 35  1  0  0  0  0
  6 36  1  0  0  0  0
  7 37  1  0  0  0  0
  8 38  1  0  0  0  0
  9  6  1  0  0  0  0
  9 39  1  0  0  0  0
 10  7  2  0  0  0  0
 10 40  1  0  0  0  0
 11  8  2  0  0  0  0
 11 41  1  0  0  0  0
 12 42  1  0  0  0  0
 13 12  2  0  0  0  0
 13 43  1  0  0  0  0
 14 44  1  0  0  0  0
 15 45  1  0  0  0  0
 15 46  1  0  0  0  0
 16 47  1  0  0  0  0
 16 48  1  0  0  0  0
 17 49  1  0  0  0  0
 18  6  2  0  0  0  0
 18  7  1  0  0  0  0
 18 16  1  0  0  0  0
 19  8  1  0  0  0  0
 19 14  2  0  0  0  0
 20  4  2  0  0  0  0
 20  5  1  0  0  0  0
 21  9  2  0  0  0  0
 21 10  1  0  0  0  0
 22 11  1  0  0  0  0
 23 14  1  0  0  0  0
 23 22  2  0  0  0  0
 24 15  1  0  0  0  0
 24 22  1  0  0  0  0
 24 50  1  0  0  0  0
 25 19  1  0  0  0  0
 26 23  1  0  0  0  0
 27 12  1  0  0  0  0
 27 17  2  0  0  0  0
 28 13  1  0  0  0  0
 28 15  1  0  0  0  0
 28 17  1  0  0  0  0
 29 16  1  0  0  0  0
 29 24  1  0  0  0  0
 30 20  1  0  0  0  0
 30 21  1  0  0  0  0
M  END
>  <DRUGBANK_ID>
DB13434

>  <COMMON_NAME>
Fenticonazole

>  <CAS_NUMBER>
72479-26-6

>  <UNII>
QG05NRB077

>  <SYNONYMS>
Fenticonazole

$$$$
