1188
 OpenBabel10282417072D

 32 33  0  0  0  0  0  0  0  0999 V2000
    4.5080   -1.4438    0.0000 O   0  0  0  0  0  0  0  0  0  0  0  0
    5.9370   -0.6188    0.0000 O   0  0  0  0  0  0  0  0  0  0  0  0
    4.5080   -0.6188    0.0000 N   0  0  0  0  0  0  0  0  0  0  0  0
    3.0791   -0.6188    0.0000 C   0  0  0  0  0  0  0  0  0  0  0  0
    3.0791   -1.4438    0.0000 C   0  0  0  0  0  0  0  0  0  0  0  0
    2.3645   -0.2063    0.0000 C   0  0  0  0  0  0  0  0  0  0  0  0
    2.3645   -1.8563    0.0000 C   0  0  0  0  0  0  0  0  0  0  0  0
    1.6500   -0.6188    0.0000 C   0  0  0  0  0  0  0  0  0  0  0  0
    1.6500   -1.4438    0.0000 C   0  0  0  0  0  0  0  0  0  0  0  0
    3.7935   -0.2063    0.0000 C   0  0  0  0  0  0  0  0  0  0  0  0
    3.7935    0.6188    0.0000 C   0  0  0  0  0  0  0  0  0  0  0  0
    4.5080    1.0313    0.0000 C   0  0  0  0  0  0  0  0  0  0  0  0
    5.2224   -0.2063    0.0000 C   0  0  0  0  0  0  0  0  0  0  0  0
    5.2224    0.6188    0.0000 C   0  0  0  0  0  0  0  0  0  0  0  0
    4.5080    1.8563    0.0000 C   0  0  0  0  0  0  0  0  0  0  0  0
    3.6965   -1.9123    0.0000 H   0  0  0  0  0  0  0  0  0  0  0  0
    3.0790    0.4512    0.0000 H   0  0  0  0  0  0  0  0  0  0  0  0
    4.0057   -1.9788    0.0000 H   0  0  0  0  0  0  0  0  0  0  0  0
    3.0790   -2.5138    0.0000 H   0  0  0  0  0  0  0  0  0  0  0  0
    2.3645    0.8637    0.0000 H   0  0  0  0  0  0  0  0  0  0  0  0
    1.4378    0.3287    0.0000 H   0  0  0  0  0  0  0  0  0  0  0  0
    2.3645   -2.9263    0.0000 H   0  0  0  0  0  0  0  0  0  0  0  0
    1.4378   -2.3913    0.0000 H   0  0  0  0  0  0  0  0  0  0  0  0
    0.7234   -0.0838    0.0000 H   0  0  0  0  0  0  0  0  0  0  0  0
    0.7234   -1.1538    0.0000 H   0  0  0  0  0  0  0  0  0  0  0  0
    0.7234   -1.9788    0.0000 H   0  0  0  0  0  0  0  0  0  0  0  0
    0.7234   -0.9088    0.0000 H   0  0  0  0  0  0  0  0  0  0  0  0
    2.8998    1.1348    0.0000 H   0  0  0  0  0  0  0  0  0  0  0  0
    6.1161    1.1348    0.0000 H   0  0  0  0  0  0  0  0  0  0  0  0
    5.4346    2.3913    0.0000 H   0  0  0  0  0  0  0  0  0  0  0  0
    3.5814    2.3913    0.0000 H   0  0  0  0  0  0  0  0  0  0  0  0
    4.5080    2.9263    0.0000 H   0  0  0  0  0  0  0  0  0  0  0  0
  1  3  1  0  0  0  0
  1 16  1  0  0  0  0
  2 13  2  0  0  0  0
  3 10  1  0  0  0  0
  3 13  1  0  0  0  0
  4  5  1  0  0  0  0
  4  6  1  0  0  0  0
  4 10  1  0  0  0  0
  4 17  1  0  0  0  0
  5  7  1  0  0  0  0
  5 18  1  0  0  0  0
  5 19  1  0  0  0  0
  6  8  1  0  0  0  0
  6 20  1  0  0  0  0
  6 21  1  0  0  0  0
  7  9  1  0  0  0  0
  7 22  1  0  0  0  0
  7 23  1  0  0  0  0
  8  9  1  0  0  0  0
  8 24  1  0  0  0  0
  8 25  1  0  0  0  0
  9 26  1  0  0  0  0
  9 27  1  0  0  0  0
 10 11  2  0  0  0  0
 11 12  1  0  0  0  0
 11 28  1  0  0  0  0
 12 14  2  0  0  0  0
 12 15  1  0  0  0  0
 13 14  1  0  0  0  0
 14 29  1  0  0  0  0
 15 30  1  0  0  0  0
 15 31  1  0  0  0  0
 15 32  1  0  0  0  0
M  END
>  <DRUGBANK_ID>
DB01188

>  <SECONDARY_ACCESSION_NUMBERS>
APRD00871

>  <COMMON_NAME>
Ciclopirox

>  <CAS_NUMBER>
29342-05-0

>  <UNII>
19W019ZDRJ

>  <SYNONYMS>
6-cyclohexyl-1-hydroxy-4-methyl-2(1H)-pyridinone; Ciclopirox; Ciclopiroxum

$$$$
