2BE
 OpenBabel10282417072D

 31 32  0  0  0  0  0  0  0  0999 V2000
    1.8111    0.1874    0.0000 C   0  0  0  0  0  0  0  0  0  0  0  0
    2.5256   -0.2251    0.0000 C   0  0  0  0  0  0  0  0  0  0  0  0
    2.5256   -1.0501    0.0000 C   0  0  0  0  0  0  0  0  0  0  0  0
    3.2401   -1.4626    0.0000 Cl  0  0  0  0  0  0  0  0  0  0  0  0
    1.8111   -1.4626    0.0000 C   0  0  0  0  0  0  0  0  0  0  0  0
    1.0967   -1.0501    0.0000 C   0  0  0  0  0  0  0  0  0  0  0  0
    1.0967   -0.2251    0.0000 C   0  0  0  0  0  0  0  0  0  0  0  0
    0.3822    0.1874    0.0000 C   0  0  0  0  0  0  0  0  0  0  0  0
    0.3822    1.0124    0.0000 O   0  0  0  0  0  0  0  0  0  0  0  0
   -0.3323   -0.2251    0.0000 N   0  0  0  0  0  0  0  0  0  0  0  0
   -1.0468    0.1874    0.0000 N   0  0  0  0  0  0  0  0  0  0  0  0
   -1.7612   -0.2251    0.0000 C   0  0  0  0  0  0  0  0  0  0  0  0
   -2.4757    0.1874    0.0000 C   0  0  0  0  0  0  0  0  0  0  0  0
   -3.1902   -0.2251    0.0000 C   0  0  0  0  0  0  0  0  0  0  0  0
   -3.9046    0.1874    0.0000 C   0  0  0  0  0  0  0  0  0  0  0  0
   -4.6191   -0.2251    0.0000 Br  0  0  0  0  0  0  0  0  0  0  0  0
   -3.9046    1.0124    0.0000 C   0  0  0  0  0  0  0  0  0  0  0  0
   -4.6191    1.4249    0.0000 O   0  0  0  0  0  0  0  0  0  0  0  0
   -3.1902    1.4249    0.0000 C   0  0  0  0  0  0  0  0  0  0  0  0
   -3.1902    2.2499    0.0000 Br  0  0  0  0  0  0  0  0  0  0  0  0
   -2.4757    1.0124    0.0000 C   0  0  0  0  0  0  0  0  0  0  0  0
   -1.7612    1.4249    0.0000 O   0  0  0  0  0  0  0  0  0  0  0  0
    1.8111    1.2194    0.0000 H   0  0  0  0  0  0  0  0  0  0  0  0
    3.4193    0.2909    0.0000 H   0  0  0  0  0  0  0  0  0  0  0  0
    1.8111   -2.4946    0.0000 H   0  0  0  0  0  0  0  0  0  0  0  0
    0.2030   -1.5661    0.0000 H   0  0  0  0  0  0  0  0  0  0  0  0
   -0.3323   -1.2096    0.0000 H   0  0  0  0  0  0  0  0  0  0  0  0
   -1.7612   -1.2571    0.0000 H   0  0  0  0  0  0  0  0  0  0  0  0
   -3.1902   -1.2571    0.0000 H   0  0  0  0  0  0  0  0  0  0  0  0
   -4.6191    2.3619    0.0000 H   0  0  0  0  0  0  0  0  0  0  0  0
   -0.9497    0.9564    0.0000 H   0  0  0  0  0  0  0  0  0  0  0  0
  1  2  2  0  0  0  0
  1  7  1  0  0  0  0
  1 23  1  0  0  0  0
  2  3  1  0  0  0  0
  2 24  1  0  0  0  0
  3  4  1  0  0  0  0
  3  5  2  0  0  0  0
  5  6  1  0  0  0  0
  5 25  1  0  0  0  0
  6  7  2  0  0  0  0
  6 26  1  0  0  0  0
  7  8  1  0  0  0  0
  8  9  2  0  0  0  0
  8 10  1  0  0  0  0
 10 11  1  0  0  0  0
 10 27  1  0  0  0  0
 11 12  2  0  0  0  0
 12 13  1  0  0  0  0
 12 28  1  0  0  0  0
 13 14  2  0  0  0  0
 13 21  1  0  0  0  0
 14 15  1  0  0  0  0
 14 29  1  0  0  0  0
 15 16  1  0  0  0  0
 15 17  2  0  0  0  0
 17 18  1  0  0  0  0
 17 19  1  0  0  0  0
 18 30  1  0  0  0  0
 19 20  1  0  0  0  0
 19 21  2  0  0  0  0
 21 22  1  0  0  0  0
 22 31  1  0  0  0  0
M  END
>  <DRUGBANK_ID>
DB06950

>  <COMMON_NAME>
4-chloro-N'-[(1E)-(3,5-dibromo-2,4-dihydroxyphenyl)methylidene]benzohydrazide

$$$$
