186
 OpenBabel10282417072D

 54 55  0  0  0  0  0  0  0  0999 V2000
   -1.3702    0.8056    0.0000 O   0  0  0  0  0  0  0  0  0  0  0  0
   -1.3702   -0.0194    0.0000 C   0  0  0  0  0  0  0  0  0  0  0  0
   -2.0847   -0.4319    0.0000 O   0  0  0  0  0  0  0  0  0  0  0  0
   -2.7991   -0.0194    0.0000 C   0  0  0  0  0  0  0  0  0  0  0  0
   -3.5136   -0.4319    0.0000 C   0  0  0  0  0  0  0  0  0  0  0  0
   -3.5136   -1.2569    0.0000 C   0  0  0  0  0  0  0  0  0  0  0  0
   -4.2281   -1.6694    0.0000 C   0  0  0  0  0  0  0  0  0  0  0  0
   -4.9426   -1.2569    0.0000 C   0  0  0  0  0  0  0  0  0  0  0  0
   -4.9426   -0.4319    0.0000 C   0  0  0  0  0  0  0  0  0  0  0  0
   -4.2281   -0.0194    0.0000 C   0  0  0  0  0  0  0  0  0  0  0  0
   -0.6557   -0.4319    0.0000 N   0  0  0  0  0  0  0  0  0  0  0  0
    0.0587   -0.0194    0.0000 C   0  0  2  0  0  0  0  0  0  0  0  0
    0.0587    0.8056    0.0000 C   0  0  0  0  0  0  0  0  0  0  0  0
    0.7732    1.2181    0.0000 C   0  0  0  0  0  0  0  0  0  0  0  0
    0.7732    2.0431    0.0000 C   0  0  0  0  0  0  0  0  0  0  0  0
    1.4877    2.4556    0.0000 C   0  0  0  0  0  0  0  0  0  0  0  0
    2.2021    2.0431    0.0000 C   0  0  0  0  0  0  0  0  0  0  0  0
    2.2021    1.2181    0.0000 C   0  0  0  0  0  0  0  0  0  0  0  0
    1.4877    0.8056    0.0000 C   0  0  0  0  0  0  0  0  0  0  0  0
    0.7732   -0.4319    0.0000 C   0  0  0  0  0  0  0  0  0  0  0  0
    0.7732   -1.2569    0.0000 O   0  0  0  0  0  0  0  0  0  0  0  0
    1.4877   -0.0194    0.0000 N   0  0  0  0  0  0  0  0  0  0  0  0
    2.2021   -0.4319    0.0000 C   0  0  1  0  0  0  0  0  0  0  0  0
    2.2021   -1.2569    0.0000 C   0  0  0  0  0  0  0  0  0  0  0  0
    2.9166   -0.0194    0.0000 C   0  0  0  0  0  0  0  0  0  0  0  0
    3.6311   -0.4319    0.0000 C   0  0  0  0  0  0  0  0  0  0  0  0
    4.3456   -0.0194    0.0000 C   0  0  0  0  0  0  0  0  0  0  0  0
    4.3456    0.8056    0.0000 O   0  0  0  0  0  0  0  0  0  0  0  0
    5.0600   -0.4319    0.0000 C   0  0  0  0  0  0  0  0  0  0  0  0
    5.7745   -0.0194    0.0000 O   0  0  0  0  0  0  0  0  0  0  0  0
   -0.4470    0.2726    0.0000 H   0  0  0  0  0  0  0  0  0  0  0  0
    1.6965   -0.7238    0.0000 H   0  0  0  0  0  0  0  0  0  0  0  0
   -2.7991    1.0506    0.0000 H   0  0  0  0  0  0  0  0  0  0  0  0
   -3.7257    0.5156    0.0000 H   0  0  0  0  0  0  0  0  0  0  0  0
   -2.6199   -1.7729    0.0000 H   0  0  0  0  0  0  0  0  0  0  0  0
   -4.2281   -2.7014    0.0000 H   0  0  0  0  0  0  0  0  0  0  0  0
   -5.8363   -1.7729    0.0000 H   0  0  0  0  0  0  0  0  0  0  0  0
   -5.8363    0.0841    0.0000 H   0  0  0  0  0  0  0  0  0  0  0  0
   -4.2281    1.0126    0.0000 H   0  0  0  0  0  0  0  0  0  0  0  0
   -0.6557   -1.4164    0.0000 H   0  0  0  0  0  0  0  0  0  0  0  0
   -0.8679    1.3406    0.0000 H   0  0  0  0  0  0  0  0  0  0  0  0
    0.0587    1.8756    0.0000 H   0  0  0  0  0  0  0  0  0  0  0  0
   -0.1205    2.5591    0.0000 H   0  0  0  0  0  0  0  0  0  0  0  0
    1.4877    3.4876    0.0000 H   0  0  0  0  0  0  0  0  0  0  0  0
    3.0958    2.5591    0.0000 H   0  0  0  0  0  0  0  0  0  0  0  0
    3.0958    0.7021    0.0000 H   0  0  0  0  0  0  0  0  0  0  0  0
    1.4877   -0.2264    0.0000 H   0  0  0  0  0  0  0  0  0  0  0  0
    1.4877    0.9651    0.0000 H   0  0  0  0  0  0  0  0  0  0  0  0
    1.2755   -1.7919    0.0000 H   0  0  0  0  0  0  0  0  0  0  0  0
    3.1287   -1.7919    0.0000 H   0  0  0  0  0  0  0  0  0  0  0  0
    2.2021   -2.3269    0.0000 H   0  0  0  0  0  0  0  0  0  0  0  0
    2.9166    1.0126    0.0000 H   0  0  0  0  0  0  0  0  0  0  0  0
    3.6311   -1.4639    0.0000 H   0  0  0  0  0  0  0  0  0  0  0  0
    5.0600   -1.4639    0.0000 H   0  0  0  0  0  0  0  0  0  0  0  0
  1  2  2  0  0  0  0
  2  3  1  0  0  0  0
  2 11  1  0  0  0  0
  3  4  1  0  0  0  0
  4  5  1  0  0  0  0
  4 33  1  0  0  0  0
  4 34  1  0  0  0  0
  5  6  2  0  0  0  0
  5 10  1  0  0  0  0
  6  7  1  0  0  0  0
  6 35  1  0  0  0  0
  7  8  2  0  0  0  0
  7 36  1  0  0  0  0
  8  9  1  0  0  0  0
  8 37  1  0  0  0  0
  9 10  2  0  0  0  0
  9 38  1  0  0  0  0
 10 39  1  0  0  0  0
 11 40  1  0  0  0  0
 12 11  1  0  0  0  0
 12 13  1  0  0  0  0
 12 20  1  0  0  0  0
 12 31  1  1  0  0  0
 13 14  1  0  0  0  0
 13 41  1  0  0  0  0
 13 42  1  0  0  0  0
 14 15  2  0  0  0  0
 14 19  1  0  0  0  0
 15 16  1  0  0  0  0
 15 43  1  0  0  0  0
 16 17  2  0  0  0  0
 16 44  1  0  0  0  0
 17 18  1  0  0  0  0
 17 45  1  0  0  0  0
 18 19  2  0  0  0  0
 18 46  1  0  0  0  0
 19 47  1  0  0  0  0
 20 21  2  0  0  0  0
 20 22  1  0  0  0  0
 22 23  1  0  0  0  0
 22 48  1  0  0  0  0
 23 24  1  0  0  0  0
 23 25  1  0  0  0  0
 23 32  1  1  0  0  0
 24 49  1  0  0  0  0
 24 50  1  0  0  0  0
 24 51  1  0  0  0  0
 25 26  2  0  0  0  0
 25 52  1  0  0  0  0
 26 27  1  0  0  0  0
 26 53  1  0  0  0  0
 27 28  2  0  0  0  0
 27 29  1  0  0  0  0
 29 30  2  0  0  0  0
 29 54  1  0  0  0  0
M  END
>  <DRUGBANK_ID>
DB01810

>  <SECONDARY_ACCESSION_NUMBERS>
EXPT00058

>  <COMMON_NAME>
[1-(1-Methyl-4,5-Dioxo-Pent-2-Enylcarbamoyl)-2-Phenyl-Ethyl]-Carbamic Acid Benzyl Ester

$$$$
