505
 OpenBabel10282417072D

 30 30  0  0  0  0  0  0  0  0999 V2000
   17.5358    5.5057    0.0000 C   0  0  0  0  0  0  0  0  0  0  0  0
   17.5358    4.6807    0.0000 C   0  0  1  0  0  0  0  0  0  0  0  0
   18.2502    4.2682    0.0000 N   0  0  0  0  0  0  0  0  0  0  0  0
   16.8213    4.2682    0.0000 C   0  0  0  0  0  0  0  0  0  0  0  0
   16.8213    3.4432    0.0000 O   0  0  0  0  0  0  0  0  0  0  0  0
   16.1068    3.0307    0.0000 C   0  0  0  0  0  0  0  0  0  0  0  0
   16.1068    2.2057    0.0000 C   0  0  0  0  0  0  0  0  0  0  0  0
   16.8213    1.7932    0.0000 C   0  0  0  0  0  0  0  0  0  0  0  0
   15.3924    1.7932    0.0000 C   0  0  0  0  0  0  0  0  0  0  0  0
   14.6779    2.2057    0.0000 C   0  0  0  0  0  0  0  0  0  0  0  0
   14.6779    3.0307    0.0000 C   0  0  0  0  0  0  0  0  0  0  0  0
   15.3924    3.4432    0.0000 C   0  0  0  0  0  0  0  0  0  0  0  0
   15.3924    4.2682    0.0000 C   0  0  0  0  0  0  0  0  0  0  0  0
   18.0415    4.9727    0.0000 H   0  0  0  0  0  0  0  0  0  0  0  0
   18.4624    6.0407    0.0000 H   0  0  0  0  0  0  0  0  0  0  0  0
   16.6092    6.0407    0.0000 H   0  0  0  0  0  0  0  0  0  0  0  0
   17.5358    6.5757    0.0000 H   0  0  0  0  0  0  0  0  0  0  0  0
   18.2502    3.2482    0.0000 H   0  0  0  0  0  0  0  0  0  0  0  0
   19.1336    4.7782    0.0000 H   0  0  0  0  0  0  0  0  0  0  0  0
   15.8947    4.8032    0.0000 H   0  0  0  0  0  0  0  0  0  0  0  0
   15.8947    3.7332    0.0000 H   0  0  0  0  0  0  0  0  0  0  0  0
   16.8213    0.7232    0.0000 H   0  0  0  0  0  0  0  0  0  0  0  0
   17.7479    2.3282    0.0000 H   0  0  0  0  0  0  0  0  0  0  0  0
   17.7480    1.2582    0.0000 H   0  0  0  0  0  0  0  0  0  0  0  0
   15.3924    0.7612    0.0000 H   0  0  0  0  0  0  0  0  0  0  0  0
   13.7842    1.6897    0.0000 H   0  0  0  0  0  0  0  0  0  0  0  0
   13.7842    3.5467    0.0000 H   0  0  0  0  0  0  0  0  0  0  0  0
   16.3190    4.8032    0.0000 H   0  0  0  0  0  0  0  0  0  0  0  0
   14.4658    4.8032    0.0000 H   0  0  0  0  0  0  0  0  0  0  0  0
   15.3924    5.3382    0.0000 H   0  0  0  0  0  0  0  0  0  0  0  0
  1  2  1  0  0  0  0
  1 15  1  0  0  0  0
  1 16  1  0  0  0  0
  1 17  1  0  0  0  0
  2  3  1  0  0  0  0
  2  4  1  0  0  0  0
  2 14  1  6  0  0  0
  3 18  1  0  0  0  0
  3 19  1  0  0  0  0
  4  5  1  0  0  0  0
  4 20  1  0  0  0  0
  4 21  1  0  0  0  0
  5  6  1  0  0  0  0
  6  7  1  0  0  0  0
  6 12  2  0  0  0  0
  7  8  1  0  0  0  0
  7  9  2  0  0  0  0
  8 22  1  0  0  0  0
  8 23  1  0  0  0  0
  8 24  1  0  0  0  0
  9 10  1  0  0  0  0
  9 25  1  0  0  0  0
 10 11  2  0  0  0  0
 10 26  1  0  0  0  0
 11 12  1  0  0  0  0
 11 27  1  0  0  0  0
 12 13  1  0  0  0  0
 13 28  1  0  0  0  0
 13 29  1  0  0  0  0
 13 30  1  0  0  0  0
M  END
>  <DRUGBANK_ID>
DB07129

>  <COMMON_NAME>
(2R)-1-(2,6-dimethylphenoxy)propan-2-amine

>  <UNII>
4KQ8G4M9DE

$$$$
