
 OpenBabel10282417072D

124123  0  0  0  0  0  0  0  0999 V2000
   16.5316   -8.5035    0.0000 C   0  0  0  0  0  0  0  0  0  0  0  0
   17.2460   -8.9160    0.0000 C   0  0  3  0  0  0  0  0  0  0  0  0
   15.1025   -8.5035    0.0000 P   0  0  3  0  0  0  0  0  0  0  0  0
   12.9592   -8.9160    0.0000 C   0  0  3  0  0  0  0  0  0  0  0  0
   12.2447   -8.5035    0.0000 C   0  0  0  0  0  0  0  0  0  0  0  0
   13.6735   -8.5035    0.0000 C   0  0  0  0  0  0  0  0  0  0  0  0
   10.8157   -8.5035    0.0000 C   0  0  0  0  0  0  0  0  0  0  0  0
   15.8169   -8.9160    0.0000 O   0  0  0  0  0  0  0  0  0  0  0  0
   11.5302   -8.9160    0.0000 O   0  0  0  0  0  0  0  0  0  0  0  0
   14.3881   -8.9160    0.0000 O   0  0  0  0  0  0  0  0  0  0  0  0
   10.1014   -8.9160    0.0000 C   0  0  0  0  0  0  0  0  0  0  0  0
   17.9605   -8.5035    0.0000 C   0  0  0  0  0  0  0  0  0  0  0  0
   12.2448  -10.1533    0.0000 C   0  0  0  0  0  0  0  0  0  0  0  0
   15.1026   -7.6786    0.0000 O   0  0  0  0  0  0  0  0  0  0  0  0
   12.9594   -9.7408    0.0000 O   0  0  0  0  0  0  0  0  0  0  0  0
   15.1025   -9.3285    0.0000 O   0  0  0  0  0  0  0  0  0  0  0  0
    9.3867   -8.5035    0.0000 C   0  0  0  0  0  0  0  0  0  0  0  0
    8.6724   -8.9160    0.0000 C   0  0  0  0  0  0  0  0  0  0  0  0
    7.9578   -8.5035    0.0000 C   0  0  0  0  0  0  0  0  0  0  0  0
    7.2434   -8.9160    0.0000 C   0  0  0  0  0  0  0  0  0  0  0  0
    6.5288   -8.5035    0.0000 C   0  0  0  0  0  0  0  0  0  0  0  0
    5.8144   -8.9160    0.0000 C   0  0  0  0  0  0  0  0  0  0  0  0
    5.0998   -8.5035    0.0000 C   0  0  0  0  0  0  0  0  0  0  0  0
   11.5303   -9.7408    0.0000 C   0  0  0  0  0  0  0  0  0  0  0  0
   10.8158  -10.1533    0.0000 C   0  0  0  0  0  0  0  0  0  0  0  0
   10.1014   -9.7408    0.0000 C   0  0  0  0  0  0  0  0  0  0  0  0
    9.3868  -10.1533    0.0000 C   0  0  0  0  0  0  0  0  0  0  0  0
    8.6724   -9.7408    0.0000 C   0  0  0  0  0  0  0  0  0  0  0  0
    7.9578  -10.1533    0.0000 C   0  0  0  0  0  0  0  0  0  0  0  0
    7.2434   -9.7408    0.0000 C   0  0  0  0  0  0  0  0  0  0  0  0
    6.5290  -10.1533    0.0000 C   0  0  0  0  0  0  0  0  0  0  0  0
   18.6751   -8.9160    0.0000 O   0  0  0  0  0  0  0  0  0  0  0  0
   17.2460   -9.7410    0.0000 O   0  0  0  0  0  0  0  0  0  0  0  0
    5.0998   -7.6786    0.0000 C   0  0  0  0  0  0  0  0  0  0  0  0
    5.8143   -7.2661    0.0000 C   0  0  0  0  0  0  0  0  0  0  0  0
    6.5288   -7.6786    0.0000 C   0  0  0  0  0  0  0  0  0  0  0  0
    7.2433   -7.2661    0.0000 C   0  0  0  0  0  0  0  0  0  0  0  0
    7.9577   -7.6786    0.0000 C   0  0  0  0  0  0  0  0  0  0  0  0
    6.5290  -10.9783    0.0000 C   0  0  0  0  0  0  0  0  0  0  0  0
    7.2435  -11.3907    0.0000 C   0  0  0  0  0  0  0  0  0  0  0  0
    7.9580  -10.9783    0.0000 C   0  0  0  0  0  0  0  0  0  0  0  0
    8.6724  -11.3907    0.0000 C   0  0  0  0  0  0  0  0  0  0  0  0
    9.3868  -10.9783    0.0000 C   0  0  0  0  0  0  0  0  0  0  0  0
   10.8156   -7.6786    0.0000 O   0  0  0  0  0  0  0  0  0  0  0  0
   12.2448  -10.9783    0.0000 O   0  0  0  0  0  0  0  0  0  0  0  0
    8.6721   -7.2661    0.0000 C   0  0  0  0  0  0  0  0  0  0  0  0
    9.3866   -7.6786    0.0000 C   0  0  0  0  0  0  0  0  0  0  0  0
   10.1013  -11.3908    0.0000 C   0  0  0  0  0  0  0  0  0  0  0  0
   10.8158  -10.9784    0.0000 C   0  0  0  0  0  0  0  0  0  0  0  0
   16.5317   -7.4335    0.0000 H   0  0  0  0  0  0  0  0  0  0  0  0
   15.6050   -7.9684    0.0000 H   0  0  0  0  0  0  0  0  0  0  0  0
   17.2460   -7.8460    0.0000 H   0  0  0  0  0  0  0  0  0  0  0  0
   12.0326   -9.4511    0.0000 H   0  0  0  0  0  0  0  0  0  0  0  0
   12.2447   -7.4335    0.0000 H   0  0  0  0  0  0  0  0  0  0  0  0
   11.3181   -7.9685    0.0000 H   0  0  0  0  0  0  0  0  0  0  0  0
   13.6734   -7.4335    0.0000 H   0  0  0  0  0  0  0  0  0  0  0  0
   14.6001   -7.9684    0.0000 H   0  0  0  0  0  0  0  0  0  0  0  0
   10.1015   -9.9860    0.0000 H   0  0  0  0  0  0  0  0  0  0  0  0
    9.1748   -9.4511    0.0000 H   0  0  0  0  0  0  0  0  0  0  0  0
   17.9605   -7.4335    0.0000 H   0  0  0  0  0  0  0  0  0  0  0  0
   18.8871   -7.9684    0.0000 H   0  0  0  0  0  0  0  0  0  0  0  0
   14.2625   -9.8135    0.0000 H   0  0  0  0  0  0  0  0  0  0  0  0
    9.3866   -7.4335    0.0000 H   0  0  0  0  0  0  0  0  0  0  0  0
    8.4600   -7.9686    0.0000 H   0  0  0  0  0  0  0  0  0  0  0  0
    8.6725   -9.9860    0.0000 H   0  0  0  0  0  0  0  0  0  0  0  0
    7.7458   -9.4511    0.0000 H   0  0  0  0  0  0  0  0  0  0  0  0
    7.9577   -7.4335    0.0000 H   0  0  0  0  0  0  0  0  0  0  0  0
    7.0311   -7.9685    0.0000 H   0  0  0  0  0  0  0  0  0  0  0  0
    7.2435   -9.9860    0.0000 H   0  0  0  0  0  0  0  0  0  0  0  0
    6.3168   -9.4511    0.0000 H   0  0  0  0  0  0  0  0  0  0  0  0
    6.5287   -7.4335    0.0000 H   0  0  0  0  0  0  0  0  0  0  0  0
    5.6021   -7.9685    0.0000 H   0  0  0  0  0  0  0  0  0  0  0  0
    5.8145   -9.9860    0.0000 H   0  0  0  0  0  0  0  0  0  0  0  0
    4.8878   -9.4511    0.0000 H   0  0  0  0  0  0  0  0  0  0  0  0
    4.1732   -9.0385    0.0000 H   0  0  0  0  0  0  0  0  0  0  0  0
    4.1731   -7.9685    0.0000 H   0  0  0  0  0  0  0  0  0  0  0  0
   11.5303   -8.6708    0.0000 H   0  0  0  0  0  0  0  0  0  0  0  0
   10.6037   -9.2058    0.0000 H   0  0  0  0  0  0  0  0  0  0  0  0
   10.8158  -11.2233    0.0000 H   0  0  0  0  0  0  0  0  0  0  0  0
    9.8891  -10.6883    0.0000 H   0  0  0  0  0  0  0  0  0  0  0  0
   10.1015   -8.6708    0.0000 H   0  0  0  0  0  0  0  0  0  0  0  0
    9.1748   -9.2057    0.0000 H   0  0  0  0  0  0  0  0  0  0  0  0
    9.3867  -11.2233    0.0000 H   0  0  0  0  0  0  0  0  0  0  0  0
    8.4601  -10.6883    0.0000 H   0  0  0  0  0  0  0  0  0  0  0  0
    8.6725   -8.6708    0.0000 H   0  0  0  0  0  0  0  0  0  0  0  0
    7.7458   -9.2057    0.0000 H   0  0  0  0  0  0  0  0  0  0  0  0
    7.9577  -11.2233    0.0000 H   0  0  0  0  0  0  0  0  0  0  0  0
    7.0311  -10.6883    0.0000 H   0  0  0  0  0  0  0  0  0  0  0  0
    7.2434   -8.6708    0.0000 H   0  0  0  0  0  0  0  0  0  0  0  0
    6.3167   -9.2058    0.0000 H   0  0  0  0  0  0  0  0  0  0  0  0
    5.6023   -9.6183    0.0000 H   0  0  0  0  0  0  0  0  0  0  0  0
    5.6024  -10.6883    0.0000 H   0  0  0  0  0  0  0  0  0  0  0  0
   18.6752   -9.8860    0.0000 H   0  0  0  0  0  0  0  0  0  0  0  0
   16.4060  -10.2260    0.0000 H   0  0  0  0  0  0  0  0  0  0  0  0
    4.1732   -7.1436    0.0000 H   0  0  0  0  0  0  0  0  0  0  0  0
    5.0998   -6.6086    0.0000 H   0  0  0  0  0  0  0  0  0  0  0  0
    5.8143   -6.1961    0.0000 H   0  0  0  0  0  0  0  0  0  0  0  0
    6.7409   -6.7311    0.0000 H   0  0  0  0  0  0  0  0  0  0  0  0
    6.5288   -8.7486    0.0000 H   0  0  0  0  0  0  0  0  0  0  0  0
    7.4554   -8.2136    0.0000 H   0  0  0  0  0  0  0  0  0  0  0  0
    7.2433   -6.1961    0.0000 H   0  0  0  0  0  0  0  0  0  0  0  0
    8.1700   -6.7311    0.0000 H   0  0  0  0  0  0  0  0  0  0  0  0
    7.9577   -8.7486    0.0000 H   0  0  0  0  0  0  0  0  0  0  0  0
    8.8844   -8.2136    0.0000 H   0  0  0  0  0  0  0  0  0  0  0  0
    5.6024  -11.5134    0.0000 H   0  0  0  0  0  0  0  0  0  0  0  0
    6.5291  -12.0483    0.0000 H   0  0  0  0  0  0  0  0  0  0  0  0
    7.2435  -12.4607    0.0000 H   0  0  0  0  0  0  0  0  0  0  0  0
    8.1701  -11.9258    0.0000 H   0  0  0  0  0  0  0  0  0  0  0  0
    7.9580   -9.9083    0.0000 H   0  0  0  0  0  0  0  0  0  0  0  0
    8.8846  -10.4433    0.0000 H   0  0  0  0  0  0  0  0  0  0  0  0
    8.6724  -12.4607    0.0000 H   0  0  0  0  0  0  0  0  0  0  0  0
    9.5990  -11.9257    0.0000 H   0  0  0  0  0  0  0  0  0  0  0  0
    9.3868   -9.9083    0.0000 H   0  0  0  0  0  0  0  0  0  0  0  0
   10.3134  -10.4433    0.0000 H   0  0  0  0  0  0  0  0  0  0  0  0
    8.6721   -6.1961    0.0000 H   0  0  0  0  0  0  0  0  0  0  0  0
    9.5987   -6.7311    0.0000 H   0  0  0  0  0  0  0  0  0  0  0  0
    9.3866   -8.7486    0.0000 H   0  0  0  0  0  0  0  0  0  0  0  0
   10.3132   -7.1436    0.0000 H   0  0  0  0  0  0  0  0  0  0  0  0
   10.3133   -8.2136    0.0000 H   0  0  0  0  0  0  0  0  0  0  0  0
   10.1012  -12.4608    0.0000 H   0  0  0  0  0  0  0  0  0  0  0  0
   11.0279  -11.9259    0.0000 H   0  0  0  0  0  0  0  0  0  0  0  0
   11.7424  -11.5135    0.0000 H   0  0  0  0  0  0  0  0  0  0  0  0
   10.8159   -9.9084    0.0000 H   0  0  0  0  0  0  0  0  0  0  0  0
   11.7425  -10.4435    0.0000 H   0  0  0  0  0  0  0  0  0  0  0  0
  1  8  1  0  0  0  0
  1 50  1  0  0  0  0
  1 51  1  0  0  0  0
  2  1  1  0  0  0  0
  2 33  1  0  0  0  0
  2 52  1  0  0  0  0
  3 16  1  0  0  0  0
  3 10  1  0  0  0  0
  4 15  1  0  0  0  0
  4  5  1  0  0  0  0
  4  6  1  0  0  0  0
  4 53  1  0  0  0  0
  5 54  1  0  0  0  0
  5 55  1  0  0  0  0
  6 56  1  0  0  0  0
  6 57  1  0  0  0  0
  7  9  1  0  0  0  0
  7 44  2  0  0  0  0
  8  3  1  0  0  0  0
  9  5  1  0  0  0  0
 10  6  1  0  0  0  0
 11  7  1  0  0  0  0
 11 17  1  0  0  0  0
 11 58  1  0  0  0  0
 11 59  1  0  0  0  0
 12  2  1  0  0  0  0
 12 32  1  0  0  0  0
 12 60  1  0  0  0  0
 12 61  1  0  0  0  0
 13 15  1  0  0  0  0
 13 45  2  0  0  0  0
 14  3  2  0  0  0  0
 16 62  1  0  0  0  0
 17 18  1  0  0  0  0
 17 63  1  0  0  0  0
 17 64  1  0  0  0  0
 18 19  1  0  0  0  0
 18 65  1  0  0  0  0
 18 66  1  0  0  0  0
 19 20  1  0  0  0  0
 19 67  1  0  0  0  0
 19 68  1  0  0  0  0
 20 21  1  0  0  0  0
 20 69  1  0  0  0  0
 20 70  1  0  0  0  0
 21 22  1  0  0  0  0
 21 71  1  0  0  0  0
 21 72  1  0  0  0  0
 22 23  1  0  0  0  0
 22 73  1  0  0  0  0
 22 74  1  0  0  0  0
 23 34  1  0  0  0  0
 23 75  1  0  0  0  0
 23 76  1  0  0  0  0
 24 13  1  0  0  0  0
 24 25  1  0  0  0  0
 24 77  1  0  0  0  0
 24 78  1  0  0  0  0
 25 26  1  0  0  0  0
 25 79  1  0  0  0  0
 25 80  1  0  0  0  0
 26 27  1  0  0  0  0
 26 81  1  0  0  0  0
 26 82  1  0  0  0  0
 27 28  1  0  0  0  0
 27 83  1  0  0  0  0
 27 84  1  0  0  0  0
 28 29  1  0  0  0  0
 28 85  1  0  0  0  0
 28 86  1  0  0  0  0
 29 30  1  0  0  0  0
 29 87  1  0  0  0  0
 29 88  1  0  0  0  0
 30 31  1  0  0  0  0
 30 89  1  0  0  0  0
 30 90  1  0  0  0  0
 31 39  1  0  0  0  0
 31 91  1  0  0  0  0
 31 92  1  0  0  0  0
 32 93  1  0  0  0  0
 33 94  1  0  0  0  0
 34 35  1  0  0  0  0
 34 95  1  0  0  0  0
 34 96  1  0  0  0  0
 35 36  1  0  0  0  0
 35 97  1  0  0  0  0
 35 98  1  0  0  0  0
 36 37  1  0  0  0  0
 36 99  1  0  0  0  0
 36100  1  0  0  0  0
 37 38  1  0  0  0  0
 37101  1  0  0  0  0
 37102  1  0  0  0  0
 38 46  1  0  0  0  0
 38103  1  0  0  0  0
 38104  1  0  0  0  0
 39 40  1  0  0  0  0
 39105  1  0  0  0  0
 39106  1  0  0  0  0
 40 41  1  0  0  0  0
 40107  1  0  0  0  0
 40108  1  0  0  0  0
 41 42  1  0  0  0  0
 41109  1  0  0  0  0
 41110  1  0  0  0  0
 42 43  1  0  0  0  0
 42111  1  0  0  0  0
 42112  1  0  0  0  0
 43 48  1  0  0  0  0
 43113  1  0  0  0  0
 43114  1  0  0  0  0
 46 47  1  0  0  0  0
 46115  1  0  0  0  0
 46116  1  0  0  0  0
 47117  1  0  0  0  0
 47118  1  0  0  0  0
 47119  1  0  0  0  0
 48 49  1  0  0  0  0
 48120  1  0  0  0  0
 48121  1  0  0  0  0
 49122  1  0  0  0  0
 49123  1  0  0  0  0
 49124  1  0  0  0  0
M  END
>  <DRUGBANK_ID>
DB02043

>  <SECONDARY_ACCESSION_NUMBERS>
EXPT02025

>  <COMMON_NAME>
1,2-Dipalmitoyl-Phosphatidyl-Glycerole

>  <UNII>
VA9U6BR3SB

$$$$
