1299
 OpenBabel10282417072D

 35 36  0  0  0  0  0  0  0  0999 V2000
    4.5080    0.7755    0.0000 S   0  0  0  0  0  0  0  0  0  0  0  0
    4.9205    0.0611    0.0000 O   0  0  0  0  0  0  0  0  0  0  0  0
    4.0955    1.4900    0.0000 O   0  0  0  0  0  0  0  0  0  0  0  0
    2.3645   -0.4620    0.0000 O   0  0  0  0  0  0  0  0  0  0  0  0
    2.3645   -2.1120    0.0000 O   0  0  0  0  0  0  0  0  0  0  0  0
    3.7935    0.3630    0.0000 N   0  0  0  0  0  0  0  0  0  0  0  0
    4.5080   -0.8745    0.0000 N   0  0  0  0  0  0  0  0  0  0  0  0
    7.3659    2.4256    0.0000 N   0  0  0  0  0  0  0  0  0  0  0  0
    3.7935   -2.1120    0.0000 N   0  0  0  0  0  0  0  0  0  0  0  0
    5.2224    1.1880    0.0000 C   0  0  0  0  0  0  0  0  0  0  0  0
    3.7935   -0.4620    0.0000 C   0  0  0  0  0  0  0  0  0  0  0  0
    5.9370    0.7755    0.0000 C   0  0  0  0  0  0  0  0  0  0  0  0
    5.2224    2.0130    0.0000 C   0  0  0  0  0  0  0  0  0  0  0  0
    3.0791   -0.8745    0.0000 C   0  0  0  0  0  0  0  0  0  0  0  0
    6.6515    1.1880    0.0000 C   0  0  0  0  0  0  0  0  0  0  0  0
    5.9370    2.4256    0.0000 C   0  0  0  0  0  0  0  0  0  0  0  0
    6.6515    2.0130    0.0000 C   0  0  0  0  0  0  0  0  0  0  0  0
    3.0791   -1.6995    0.0000 C   0  0  0  0  0  0  0  0  0  0  0  0
    4.5080   -1.6995    0.0000 C   0  0  0  0  0  0  0  0  0  0  0  0
    1.6500   -0.8745    0.0000 C   0  0  0  0  0  0  0  0  0  0  0  0
    2.3645   -2.9371    0.0000 C   0  0  0  0  0  0  0  0  0  0  0  0
    2.9409    0.8553    0.0000 H   0  0  0  0  0  0  0  0  0  0  0  0
    8.2186    1.9335    0.0000 H   0  0  0  0  0  0  0  0  0  0  0  0
    7.3658    3.4101    0.0000 H   0  0  0  0  0  0  0  0  0  0  0  0
    5.9370   -0.2565    0.0000 H   0  0  0  0  0  0  0  0  0  0  0  0
    4.3287    2.5290    0.0000 H   0  0  0  0  0  0  0  0  0  0  0  0
    7.5452    0.6720    0.0000 H   0  0  0  0  0  0  0  0  0  0  0  0
    5.9370    3.4576    0.0000 H   0  0  0  0  0  0  0  0  0  0  0  0
    5.4017   -2.2155    0.0000 H   0  0  0  0  0  0  0  0  0  0  0  0
    0.7234   -0.3395    0.0000 H   0  0  0  0  0  0  0  0  0  0  0  0
    1.6500   -1.9445    0.0000 H   0  0  0  0  0  0  0  0  0  0  0  0
    0.7233   -1.4095    0.0000 H   0  0  0  0  0  0  0  0  0  0  0  0
    1.4379   -3.4721    0.0000 H   0  0  0  0  0  0  0  0  0  0  0  0
    3.2911   -3.4721    0.0000 H   0  0  0  0  0  0  0  0  0  0  0  0
    2.3645   -4.0071    0.0000 H   0  0  0  0  0  0  0  0  0  0  0  0
  1  2  2  0  0  0  0
  1  3  2  0  0  0  0
  1  6  1  0  0  0  0
  1 10  1  0  0  0  0
  4 14  1  0  0  0  0
  4 20  1  0  0  0  0
  5 18  1  0  0  0  0
  5 21  1  0  0  0  0
  6 11  1  0  0  0  0
  6 22  1  0  0  0  0
  7 11  1  0  0  0  0
  7 19  2  0  0  0  0
  8 17  1  0  0  0  0
  8 23  1  0  0  0  0
  8 24  1  0  0  0  0
  9 18  2  0  0  0  0
  9 19  1  0  0  0  0
 10 12  2  0  0  0  0
 10 13  1  0  0  0  0
 11 14  2  0  0  0  0
 12 15  1  0  0  0  0
 12 25  1  0  0  0  0
 13 16  2  0  0  0  0
 13 26  1  0  0  0  0
 14 18  1  0  0  0  0
 15 17  2  0  0  0  0
 15 27  1  0  0  0  0
 16 17  1  0  0  0  0
 16 28  1  0  0  0  0
 19 29  1  0  0  0  0
 20 30  1  0  0  0  0
 20 31  1  0  0  0  0
 20 32  1  0  0  0  0
 21 33  1  0  0  0  0
 21 34  1  0  0  0  0
 21 35  1  0  0  0  0
M  END
>  <DRUGBANK_ID>
DB01299

>  <COMMON_NAME>
Sulfadoxine

>  <CAS_NUMBER>
2447-57-6

>  <UNII>
88463U4SM5

>  <SYNONYMS>
4-Sulfanilamido-5,6-dimethoxypyrimidine; Sulfadoxina; Sulfadoxine; Sulfadoxinum; Sulforthomidine; Sulphadoxine; Sulphormethoxine

$$$$
