473
 OpenBabel10282417072D

 42 43  0  0  1  0  0  0  0  0999 V2000
    3.0787   -0.4125    0.0000 O   0  0  0  0  0  0  0  0  0  0  0  0
    1.6498   -0.4125    0.0000 O   0  0  0  0  0  0  0  0  0  0  0  0
    3.7930    1.6498    0.0000 N   0  0  0  0  0  0  0  0  0  0  0  0
    4.5075    2.0623    0.0000 C   0  0  0  0  0  0  0  0  0  0  0  0
    5.2218    1.6498    0.0000 C   0  0  0  0  0  0  0  0  0  0  0  0
    4.5075    2.8873    0.0000 C   0  0  0  0  0  0  0  0  0  0  0  0
    5.9363    2.0623    0.0000 C   0  0  0  0  0  0  0  0  0  0  0  0
    5.2218    3.2997    0.0000 C   0  0  0  0  0  0  0  0  0  0  0  0
    5.9363    2.8873    0.0000 C   0  0  0  0  0  0  0  0  0  0  0  0
    3.7930    0.8249    0.0000 C   0  0  0  0  0  0  0  0  0  0  0  0
    3.0787    0.4125    0.0000 C   0  0  3  0  0  0  0  0  0  0  0  0
    2.3642    0.8249    0.0000 C   0  0  0  0  0  0  0  0  0  0  0  0
    2.3642   -0.8249    0.0000 C   0  0  0  0  0  0  0  0  0  0  0  0
    2.3642   -1.6498    0.0000 C   0  0  0  0  0  0  0  0  0  0  0  0
    3.0787   -2.0623    0.0000 C   0  0  0  0  0  0  0  0  0  0  0  0
    1.6498   -2.0623    0.0000 C   0  0  0  0  0  0  0  0  0  0  0  0
    3.0787   -2.8873    0.0000 C   0  0  0  0  0  0  0  0  0  0  0  0
    1.6498   -2.8873    0.0000 C   0  0  0  0  0  0  0  0  0  0  0  0
    2.3642   -3.2997    0.0000 C   0  0  0  0  0  0  0  0  0  0  0  0
    2.9097    2.1598    0.0000 H   0  0  0  0  0  0  0  0  0  0  0  0
    5.4342    2.5973    0.0000 H   0  0  0  0  0  0  0  0  0  0  0  0
    5.2217    0.5798    0.0000 H   0  0  0  0  0  0  0  0  0  0  0  0
    6.1484    1.1148    0.0000 H   0  0  0  0  0  0  0  0  0  0  0  0
    3.5809    3.4223    0.0000 H   0  0  0  0  0  0  0  0  0  0  0  0
    4.5075    3.9573    0.0000 H   0  0  0  0  0  0  0  0  0  0  0  0
    6.8629    1.5273    0.0000 H   0  0  0  0  0  0  0  0  0  0  0  0
    6.8629    2.5973    0.0000 H   0  0  0  0  0  0  0  0  0  0  0  0
    5.2217    4.3697    0.0000 H   0  0  0  0  0  0  0  0  0  0  0  0
    6.1484    3.8348    0.0000 H   0  0  0  0  0  0  0  0  0  0  0  0
    6.8629    3.4224    0.0000 H   0  0  0  0  0  0  0  0  0  0  0  0
    5.9362    3.9573    0.0000 H   0  0  0  0  0  0  0  0  0  0  0  0
    4.7196    0.2899    0.0000 H   0  0  0  0  0  0  0  0  0  0  0  0
    3.7930   -0.2451    0.0000 H   0  0  0  0  0  0  0  0  0  0  0  0
    4.0053   -0.1225    0.0000 H   0  0  0  0  0  0  0  0  0  0  0  0
    2.3641    1.8949    0.0000 H   0  0  0  0  0  0  0  0  0  0  0  0
    1.4376    0.2898    0.0000 H   0  0  0  0  0  0  0  0  0  0  0  0
    1.4375    1.3598    0.0000 H   0  0  0  0  0  0  0  0  0  0  0  0
    3.9724   -1.5463    0.0000 H   0  0  0  0  0  0  0  0  0  0  0  0
    0.7561   -1.5463    0.0000 H   0  0  0  0  0  0  0  0  0  0  0  0
    3.9724   -3.4034    0.0000 H   0  0  0  0  0  0  0  0  0  0  0  0
    0.7561   -3.4033    0.0000 H   0  0  0  0  0  0  0  0  0  0  0  0
    2.3642   -4.3317    0.0000 H   0  0  0  0  0  0  0  0  0  0  0  0
  1 11  1  0  0  0  0
  1 13  1  0  0  0  0
  2 13  2  0  0  0  0
  3  4  1  0  0  0  0
  3 10  1  0  0  0  0
  3 20  1  0  0  0  0
  4  5  1  0  0  0  0
  4  6  1  0  0  0  0
  4 21  1  0  0  0  0
  5  7  1  0  0  0  0
  5 22  1  0  0  0  0
  5 23  1  0  0  0  0
  6  8  1  0  0  0  0
  6 24  1  0  0  0  0
  6 25  1  0  0  0  0
  7  9  1  0  0  0  0
  7 26  1  0  0  0  0
  7 27  1  0  0  0  0
  8  9  1  0  0  0  0
  8 28  1  0  0  0  0
  8 29  1  0  0  0  0
  9 30  1  0  0  0  0
  9 31  1  0  0  0  0
 10 11  1  0  0  0  0
 10 32  1  0  0  0  0
 10 33  1  0  0  0  0
 11 12  1  0  0  0  0
 11 34  1  0  0  0  0
 12 35  1  0  0  0  0
 12 36  1  0  0  0  0
 12 37  1  0  0  0  0
 13 14  1  0  0  0  0
 14 15  2  0  0  0  0
 14 16  1  0  0  0  0
 15 17  1  0  0  0  0
 15 38  1  0  0  0  0
 16 18  2  0  0  0  0
 16 39  1  0  0  0  0
 17 19  2  0  0  0  0
 17 40  1  0  0  0  0
 18 19  1  0  0  0  0
 18 41  1  0  0  0  0
 19 42  1  0  0  0  0
M  END
>  <DRUGBANK_ID>
DB00473

>  <SECONDARY_ACCESSION_NUMBERS>
APRD01014

>  <COMMON_NAME>
Hexylcaine

>  <CAS_NUMBER>
532-77-4

>  <UNII>
511IU0826Z

>  <SYNONYMS>
Hexilcaina; Hexylcaine; Hexylcainum

$$$$
