
 OpenBabel10282417072D

 58 60  0  0  1  0  0  0  0  0999 V2000
   -3.1507   -2.7163    0.0000 C   0  0  0  0  0  0  0  0  0  0  0  0
   -3.6239   -2.0405    0.0000 C   0  0  0  0  0  0  0  0  0  0  0  0
   -4.4458   -2.1124    0.0000 C   0  0  0  0  0  0  0  0  0  0  0  0
   -4.7944   -2.8601    0.0000 C   0  0  0  0  0  0  0  0  0  0  0  0
   -5.6163   -2.9320    0.0000 O   0  0  0  0  0  0  0  0  0  0  0  0
   -4.3212   -3.5359    0.0000 O   0  0  0  0  0  0  0  0  0  0  0  0
   -3.2753   -1.2928    0.0000 C   0  0  0  0  0  0  0  0  0  0  0  0
   -2.4534   -1.2209    0.0000 C   0  0  0  0  0  0  0  0  0  0  0  0
   -2.1047   -0.4732    0.0000 C   0  0  2  0  0  0  0  0  0  0  0  0
   -2.1766    0.3487    0.0000 C   0  0  0  0  0  0  0  0  0  0  0  0
   -1.4289    0.0000    0.0000 C   0  0  1  0  0  0  0  0  0  0  0  0
   -0.7970    0.5303    0.0000 C   0  0  0  0  0  0  0  0  0  0  0  0
   -0.7145   -0.4125    0.0000 C   0  0  0  0  0  0  0  0  0  0  0  0
   -0.7145   -1.2375    0.0000 C   0  0  0  0  0  0  0  0  0  0  0  0
    0.0000   -1.6500    0.0000 C   0  0  0  0  0  0  0  0  0  0  0  0
    0.7145   -1.2375    0.0000 C   0  0  0  0  0  0  0  0  0  0  0  0
    0.7145   -0.4125    0.0000 C   0  0  0  0  0  0  0  0  0  0  0  0
    0.0000   -0.0000    0.0000 C   0  0  0  0  0  0  0  0  0  0  0  0
    1.4289   -0.0000    0.0000 C   0  0  0  0  0  0  0  0  0  0  0  0
    2.1434   -0.4125    0.0000 C   0  0  0  0  0  0  0  0  0  0  0  0
    2.1434   -1.2375    0.0000 C   0  0  0  0  0  0  0  0  0  0  0  0
    1.4289   -1.6500    0.0000 C   0  0  0  0  0  0  0  0  0  0  0  0
    1.8163   -2.3784    0.0000 C   0  0  0  0  0  0  0  0  0  0  0  0
    1.0416   -2.3784    0.0000 C   0  0  0  0  0  0  0  0  0  0  0  0
    1.0416    0.7284    0.0000 C   0  0  0  0  0  0  0  0  0  0  0  0
    1.8163    0.7284    0.0000 C   0  0  0  0  0  0  0  0  0  0  0  0
   -3.6029   -3.6860    0.0000 H   0  0  0  0  0  0  0  0  0  0  0  0
   -2.0848   -2.6230    0.0000 H   0  0  0  0  0  0  0  0  0  0  0  0
   -2.5370   -3.5928    0.0000 H   0  0  0  0  0  0  0  0  0  0  0  0
   -5.0378   -1.2671    0.0000 H   0  0  0  0  0  0  0  0  0  0  0  0
   -4.7172   -4.3851    0.0000 H   0  0  0  0  0  0  0  0  0  0  0  0
   -3.8673   -0.4475    0.0000 H   0  0  0  0  0  0  0  0  0  0  0  0
   -1.8615   -2.0663    0.0000 H   0  0  0  0  0  0  0  0  0  0  0  0
   -3.1584   -0.2874    0.0000 H   0  0  0  0  0  0  0  0  0  0  0  0
   -2.7903    1.2252    0.0000 H   0  0  0  0  0  0  0  0  0  0  0  0
   -1.4888    1.1683    0.0000 H   0  0  0  0  0  0  0  0  0  0  0  0
    0.2085    0.1644    0.0000 H   0  0  0  0  0  0  0  0  0  0  0  0
   -0.9829    1.5840    0.0000 H   0  0  0  0  0  0  0  0  0  0  0  0
    0.0226    1.2181    0.0000 H   0  0  0  0  0  0  0  0  0  0  0  0
   -1.6082   -1.7535    0.0000 H   0  0  0  0  0  0  0  0  0  0  0  0
    0.0000   -2.6820    0.0000 H   0  0  0  0  0  0  0  0  0  0  0  0
    0.0000    1.0320    0.0000 H   0  0  0  0  0  0  0  0  0  0  0  0
    3.0700    0.1225    0.0000 H   0  0  0  0  0  0  0  0  0  0  0  0
    3.0700   -0.9475    0.0000 H   0  0  0  0  0  0  0  0  0  0  0  0
    3.0700   -1.7725    0.0000 H   0  0  0  0  0  0  0  0  0  0  0  0
    2.1434   -2.3075    0.0000 H   0  0  0  0  0  0  0  0  0  0  0  0
    1.2494   -3.2859    0.0000 H   0  0  0  0  0  0  0  0  0  0  0  0
    2.8857   -2.4156    0.0000 H   0  0  0  0  0  0  0  0  0  0  0  0
    2.3187   -3.3231    0.0000 H   0  0  0  0  0  0  0  0  0  0  0  0
   -0.0277   -2.4157    0.0000 H   0  0  0  0  0  0  0  0  0  0  0  0
    1.6086   -3.2858    0.0000 H   0  0  0  0  0  0  0  0  0  0  0  0
    0.5393   -3.3232    0.0000 H   0  0  0  0  0  0  0  0  0  0  0  0
    1.6086    1.6358    0.0000 H   0  0  0  0  0  0  0  0  0  0  0  0
   -0.0277    0.7657    0.0000 H   0  0  0  0  0  0  0  0  0  0  0  0
    0.5393    1.6732    0.0000 H   0  0  0  0  0  0  0  0  0  0  0  0
    2.8857    0.7656    0.0000 H   0  0  0  0  0  0  0  0  0  0  0  0
    1.2494    1.6359    0.0000 H   0  0  0  0  0  0  0  0  0  0  0  0
    2.3187    1.6731    0.0000 H   0  0  0  0  0  0  0  0  0  0  0  0
  1  2  1  0  0  0  0
  1 27  1  0  0  0  0
  1 28  1  0  0  0  0
  1 29  1  0  0  0  0
  2  3  2  0  0  0  0
  2  7  1  0  0  0  0
  3  4  1  0  0  0  0
  3 30  1  0  0  0  0
  4  5  2  0  0  0  0
  4  6  1  0  0  0  0
  6 31  1  0  0  0  0
  7  8  2  0  0  0  0
  7 32  1  0  0  0  0
  8 33  1  0  0  0  0
  9  8  1  0  0  0  0
  9 10  1  0  0  0  0
  9 11  1  0  0  0  0
  9 34  1  1  0  0  0
 10 11  1  0  0  0  0
 10 35  1  0  0  0  0
 10 36  1  0  0  0  0
 11 12  1  1  0  0  0
 11 13  1  0  0  0  0
 12 37  1  0  0  0  0
 12 38  1  0  0  0  0
 12 39  1  0  0  0  0
 13 14  2  0  0  0  0
 13 18  1  0  0  0  0
 14 15  1  0  0  0  0
 14 40  1  0  0  0  0
 15 16  2  0  0  0  0
 15 41  1  0  0  0  0
 16 17  1  0  0  0  0
 16 22  1  0  0  0  0
 17 18  2  0  0  0  0
 17 19  1  0  0  0  0
 18 42  1  0  0  0  0
 19 20  1  0  0  0  0
 19 25  1  0  0  0  0
 19 26  1  0  0  0  0
 20 21  1  0  0  0  0
 20 43  1  0  0  0  0
 20 44  1  0  0  0  0
 21 22  1  0  0  0  0
 21 45  1  0  0  0  0
 21 46  1  0  0  0  0
 22 23  1  0  0  0  0
 22 24  1  0  0  0  0
 23 47  1  0  0  0  0
 23 48  1  0  0  0  0
 23 49  1  0  0  0  0
 24 50  1  0  0  0  0
 24 51  1  0  0  0  0
 24 52  1  0  0  0  0
 25 53  1  0  0  0  0
 25 54  1  0  0  0  0
 25 55  1  0  0  0  0
 26 56  1  0  0  0  0
 26 57  1  0  0  0  0
 26 58  1  0  0  0  0
M  END
>  <DRUGBANK_ID>
DB11806

>  <COMMON_NAME>
VTP-194204

>  <CAS_NUMBER>
220619-73-8

>  <UNII>
877M97Z38Y

$$$$
