
 OpenBabel10282417072D

 15 13  0  0  1  0  0  0  0  0999 V2000
    4.6184    1.8414    0.0000 C   0  0  2  0  0  0  0  0  0  0  0  0
    3.9039    1.4289    0.0000 C   0  0  2  0  0  0  0  0  0  0  0  0
    3.1895    1.8414    0.0000 C   0  0  0  0  0  0  0  0  0  0  0  0
    3.1895    2.6664    0.0000 O   0  0  0  0  0  0  0  0  0  0  0  0
    2.4750    1.4289    0.0000 O   0  5  0  0  0  0  0  0  0  0  0  0
    3.9039    0.6039    0.0000 O   0  0  0  0  0  0  0  0  0  0  0  0
    5.3329    1.4289    0.0000 C   0  0  0  0  0  0  0  0  0  0  0  0
    6.0474    1.8414    0.0000 O   0  0  0  0  0  0  0  0  0  0  0  0
    5.3329    0.6039    0.0000 O   0  5  0  0  0  0  0  0  0  0  0  0
    4.6184    2.6664    0.0000 O   0  0  0  0  0  0  0  0  0  0  0  0
    1.7605    1.0164    0.0000 Fe  0  2  0  0  0  0  0  0  0  0  0  0
    3.6918    2.3764    0.0000 H   0  0  0  0  0  0  0  0  0  0  0  0
    4.8305    0.8939    0.0000 H   0  0  0  0  0  0  0  0  0  0  0  0
    3.0639    0.1189    0.0000 H   0  0  0  0  0  0  0  0  0  0  0  0
    5.4584    3.1514    0.0000 H   0  0  0  0  0  0  0  0  0  0  0  0
  1  2  1  0  0  0  0
  1  7  1  0  0  0  0
  1 10  1  0  0  0  0
  1 12  1  6  0  0  0
  2  3  1  0  0  0  0
  2  6  1  0  0  0  0
  2 13  1  6  0  0  0
  3  4  2  0  0  0  0
  3  5  1  0  0  0  0
  6 14  1  0  0  0  0
  7  8  2  0  0  0  0
  7  9  1  0  0  0  0
 10 15  1  0  0  0  0
M  CHG  3   5  -1   9  -1  11   2
M  END
>  <DRUGBANK_ID>
DB13639

>  <COMMON_NAME>
Ferrous tartrate

>  <CAS_NUMBER>
2944-65-2

>  <UNII>
ZRW631PTZD

$$$$
