
 OpenBabel10282417072D

 29 28  0  0  0  0  0  0  0  0999 V2000
    2.2539    3.3000    0.0000 C   0  0  0  0  0  0  0  0  0  0  0  0
    0.8250   -0.8250    0.0000 C   0  0  0  0  0  0  0  0  0  0  0  0
    1.6500    0.0000    0.0000 C   0  0  0  0  0  0  0  0  0  0  0  0
    1.5395    1.2375    0.0000 C   0  0  0  0  0  0  0  0  0  0  0  0
    1.5395    2.0625    0.0000 C   0  0  0  0  0  0  0  0  0  0  0  0
    0.8250    0.8250    0.0000 C   0  0  0  0  0  0  0  0  0  0  0  0
    2.2539    2.4750    0.0000 C   0  0  3  0  0  0  0  0  0  0  0  0
    0.8250    0.0000    0.0000 C   0  0  0  0  0  0  0  0  0  0  0  0
    2.9684    2.0625    0.0000 N   0  0  0  0  0  0  0  0  0  0  0  0
    0.0000    0.0000    0.0000 O   0  0  0  0  0  0  0  0  0  0  0  0
    3.1805    3.8350    0.0000 H   0  0  0  0  0  0  0  0  0  0  0  0
    1.3273    3.8350    0.0000 H   0  0  0  0  0  0  0  0  0  0  0  0
    2.2539    4.3700    0.0000 H   0  0  0  0  0  0  0  0  0  0  0  0
   -0.1016   -1.3600    0.0000 H   0  0  0  0  0  0  0  0  0  0  0  0
    1.7516   -1.3600    0.0000 H   0  0  0  0  0  0  0  0  0  0  0  0
    0.8250   -1.8950    0.0000 H   0  0  0  0  0  0  0  0  0  0  0  0
    2.1850   -0.9266    0.0000 H   0  0  0  0  0  0  0  0  0  0  0  0
    2.1850    0.9266    0.0000 H   0  0  0  0  0  0  0  0  0  0  0  0
    2.7200    0.0000    0.0000 H   0  0  0  0  0  0  0  0  0  0  0  0
    2.4661    0.7025    0.0000 H   0  0  0  0  0  0  0  0  0  0  0  0
    1.5395    0.1675    0.0000 H   0  0  0  0  0  0  0  0  0  0  0  0
    0.6128    2.5975    0.0000 H   0  0  0  0  0  0  0  0  0  0  0  0
    1.5395    3.1325    0.0000 H   0  0  0  0  0  0  0  0  0  0  0  0
   -0.1016    1.3600    0.0000 H   0  0  0  0  0  0  0  0  0  0  0  0
   -0.1016    0.2900    0.0000 H   0  0  0  0  0  0  0  0  0  0  0  0
    1.3272    3.0100    0.0000 H   0  0  0  0  0  0  0  0  0  0  0  0
    2.9684    1.0425    0.0000 H   0  0  0  0  0  0  0  0  0  0  0  0
    3.8517    2.5725    0.0000 H   0  0  0  0  0  0  0  0  0  0  0  0
   -0.4850    0.8400    0.0000 H   0  0  0  0  0  0  0  0  0  0  0  0
  1 11  1  0  0  0  0
  1 12  1  0  0  0  0
  1 13  1  0  0  0  0
  2 14  1  0  0  0  0
  2 15  1  0  0  0  0
  2 16  1  0  0  0  0
  3 17  1  0  0  0  0
  3 18  1  0  0  0  0
  3 19  1  0  0  0  0
  4 20  1  0  0  0  0
  4 21  1  0  0  0  0
  5  4  1  0  0  0  0
  5 22  1  0  0  0  0
  5 23  1  0  0  0  0
  6  4  1  0  0  0  0
  6 24  1  0  0  0  0
  6 25  1  0  0  0  0
  7  1  1  0  0  0  0
  7  5  1  0  0  0  0
  7 26  1  0  0  0  0
  8  2  1  0  0  0  0
  8  3  1  0  0  0  0
  8  6  1  0  0  0  0
  9  7  1  0  0  0  0
  9 27  1  0  0  0  0
  9 28  1  0  0  0  0
 10  8  1  0  0  0  0
 10 29  1  0  0  0  0
M  END
>  <DRUGBANK_ID>
DB13574

>  <COMMON_NAME>
Heptaminol

>  <CAS_NUMBER>
372-66-7

>  <UNII>
3DQS188SY5

>  <SYNONYMS>
Heptaminol

$$$$
