256
 OpenBabel10282417072D

 22 22  0  0  0  0  0  0  0  0999 V2000
    1.2781    0.8840    0.0000 C   0  0  0  0  0  0  0  0  0  0  0  0
    1.2781    0.0590    0.0000 C   0  0  0  0  0  0  0  0  0  0  0  0
    0.5636   -0.3535    0.0000 C   0  0  0  0  0  0  0  0  0  0  0  0
   -0.1508    0.0590    0.0000 C   0  0  0  0  0  0  0  0  0  0  0  0
   -0.1508    0.8840    0.0000 C   0  0  0  0  0  0  0  0  0  0  0  0
    0.5636    1.2965    0.0000 C   0  0  0  0  0  0  0  0  0  0  0  0
   -0.8653   -0.3535    0.0000 C   0  0  2  0  0  0  0  0  0  0  0  0
   -1.5798    0.0590    0.0000 C   0  0  0  0  0  0  0  0  0  0  0  0
   -2.2942   -0.3535    0.0000 O   0  0  0  0  0  0  0  0  0  0  0  0
   -0.8653   -1.1785    0.0000 S   0  0  0  0  0  0  0  0  0  0  0  0
   -0.8653   -2.0035    0.0000 O   0  0  0  0  0  0  0  0  0  0  0  0
   -1.5798    0.8840    0.0000 O   0  0  0  0  0  0  0  0  0  0  0  0
   -1.6903   -1.1785    0.0000 O   0  0  0  0  0  0  0  0  0  0  0  0
   -0.0403   -1.1785    0.0000 O   0  0  0  0  0  0  0  0  0  0  0  0
   -0.8653    0.2304    0.0000 H   0  0  0  0  0  0  0  0  0  0  0  0
    2.1718    1.4000    0.0000 H   0  0  0  0  0  0  0  0  0  0  0  0
    2.1718   -0.4570    0.0000 H   0  0  0  0  0  0  0  0  0  0  0  0
    0.5636   -1.3855    0.0000 H   0  0  0  0  0  0  0  0  0  0  0  0
   -1.0445    1.4000    0.0000 H   0  0  0  0  0  0  0  0  0  0  0  0
    0.5636    2.3285    0.0000 H   0  0  0  0  0  0  0  0  0  0  0  0
   -3.1057    0.1150    0.0000 H   0  0  0  0  0  0  0  0  0  0  0  0
   -1.7053   -2.4885    0.0000 H   0  0  0  0  0  0  0  0  0  0  0  0
  1  2  2  0  0  0  0
  1  6  1  0  0  0  0
  1 16  1  0  0  0  0
  2  3  1  0  0  0  0
  2 17  1  0  0  0  0
  3  4  2  0  0  0  0
  3 18  1  0  0  0  0
  4  5  1  0  0  0  0
  4  7  1  0  0  0  0
  5  6  2  0  0  0  0
  5 19  1  0  0  0  0
  6 20  1  0  0  0  0
  7  8  1  0  0  0  0
  7 10  1  0  0  0  0
  7 15  1  6  0  0  0
  8  9  1  0  0  0  0
  8 12  2  0  0  0  0
  9 21  1  0  0  0  0
 10 11  1  0  0  0  0
 10 13  2  0  0  0  0
 10 14  2  0  0  0  0
 11 22  1  0  0  0  0
M  END
>  <DRUGBANK_ID>
DB01866

>  <SECONDARY_ACCESSION_NUMBERS>
EXPT00095

>  <COMMON_NAME>
RU79256

$$$$
