
 OpenBabel10282417072D

 43 44  0  0  0  0  0  0  0  0999 V2000
   -2.5087   -0.3939    0.0000 O   0  0  0  0  0  0  0  0  0  0  0  0
   -3.4487   -0.3278    0.0000 P   0  0  0  0  0  0  0  0  0  0  0  0
   -3.3963    0.5196    0.0000 O   0  0  0  0  0  0  0  0  0  0  0  0
   -3.5219   -1.1608    0.0000 O   0  0  0  0  0  0  0  0  0  0  0  0
   -4.2878   -0.2676    0.0000 O   0  0  0  0  0  0  0  0  0  0  0  0
   -1.3189   -0.8012    0.0000 O   0  0  0  0  0  0  0  0  0  0  0  0
   -2.0374   -1.2081    0.0000 P   0  0  3  0  0  0  0  0  0  0  0  0
   -1.6372   -1.9422    0.0000 O   0  0  0  0  0  0  0  0  0  0  0  0
   -2.7695   -1.6222    0.0000 O   0  0  0  0  0  0  0  0  0  0  0  0
    0.1333   -1.6170    0.0000 O   0  0  0  0  0  0  0  0  0  0  0  0
   -0.5853   -1.2105    0.0000 P   0  0  3  0  0  0  0  0  0  0  0  0
   -0.1746   -0.4677    0.0000 O   0  0  0  0  0  0  0  0  0  0  0  0
   -1.0085   -1.9318    0.0000 O   0  0  0  0  0  0  0  0  0  0  0  0
    2.1889   -0.9682    0.0000 O   0  0  0  0  0  0  0  0  0  0  0  0
    1.5570   -1.4746    0.0000 C   0  0  1  0  0  0  0  0  0  0  0  0
    2.8939   -1.4342    0.0000 C   0  0  2  0  0  0  0  0  0  0  0  0
    2.6654   -2.2351    0.0000 C   0  0  0  0  0  0  0  0  0  0  0  0
    1.8414   -2.2646    0.0000 C   0  0  0  0  0  0  0  0  0  0  0  0
    0.7811   -1.1942    0.0000 C   0  0  0  0  0  0  0  0  0  0  0  0
    2.9061   -0.1278    0.0000 N   0  0  0  0  0  0  0  0  0  0  0  0
    3.5786    1.0630    0.0000 C   0  0  0  0  0  0  0  0  0  0  0  0
    2.2052    0.2556    0.0000 C   0  0  0  0  0  0  0  0  0  0  0  0
    2.2053    1.0527    0.0000 N   0  0  0  0  0  0  0  0  0  0  0  0
    2.8921    1.4548    0.0000 C   0  0  0  0  0  0  0  0  0  0  0  0
    1.5034   -0.1566    0.0000 O   0  0  0  0  0  0  0  0  0  0  0  0
    2.8645    2.2646    0.0000 O   0  0  0  0  0  0  0  0  0  0  0  0
    3.5960    0.2814    0.0000 C   0  0  0  0  0  0  0  0  0  0  0  0
    4.2878    1.4752    0.0000 C   0  0  0  0  0  0  0  0  0  0  0  0
   -4.4012   -1.5704    0.0000 H   0  0  0  0  0  0  0  0  0  0  0  0
   -4.7114    0.6050    0.0000 H   0  0  0  0  0  0  0  0  0  0  0  0
   -2.1426   -2.7701    0.0000 H   0  0  0  0  0  0  0  0  0  0  0  0
   -1.9785   -1.9250    0.0000 H   0  0  0  0  0  0  0  0  0  0  0  0
    0.7999   -2.2307    0.0000 H   0  0  0  0  0  0  0  0  0  0  0  0
    2.3916   -0.4894    0.0000 H   0  0  0  0  0  0  0  0  0  0  0  0
    3.3017   -3.0476    0.0000 H   0  0  0  0  0  0  0  0  0  0  0  0
    1.2632   -3.1194    0.0000 H   0  0  0  0  0  0  0  0  0  0  0  0
    0.6575   -0.1314    0.0000 H   0  0  0  0  0  0  0  0  0  0  0  0
   -0.1877   -0.7400    0.0000 H   0  0  0  0  0  0  0  0  0  0  0  0
    1.3512    1.5424    0.0000 H   0  0  0  0  0  0  0  0  0  0  0  0
    4.4984   -0.2193    0.0000 H   0  0  0  0  0  0  0  0  0  0  0  0
    5.2160    0.9429    0.0000 H   0  0  0  0  0  0  0  0  0  0  0  0
    4.2847    2.5452    0.0000 H   0  0  0  0  0  0  0  0  0  0  0  0
    5.2129    2.0129    0.0000 H   0  0  0  0  0  0  0  0  0  0  0  0
  1  2  1  0  0  0  0
  2  4  1  0  0  0  0
  2  5  1  0  0  0  0
  2  3  2  0  0  0  0
  4 29  1  0  0  0  0
  5 30  1  0  0  0  0
  6  7  1  0  0  0  0
  7  8  1  0  0  0  0
  7  9  2  0  0  0  0
  7  1  1  0  0  0  0
  8 31  1  0  0  0  0
 10 11  1  0  0  0  0
 11 12  2  0  0  0  0
 11 13  1  0  0  0  0
 11  6  1  0  0  0  0
 13 32  1  0  0  0  0
 14 16  1  0  0  0  0
 15 19  1  0  0  0  0
 15 14  1  0  0  0  0
 15 33  1  6  0  0  0
 16 17  1  0  0  0  0
 16 20  1  0  0  0  0
 16 34  1  6  0  0  0
 17 18  2  0  0  0  0
 17 35  1  0  0  0  0
 18 15  1  0  0  0  0
 18 36  1  0  0  0  0
 19 10  1  0  0  0  0
 19 37  1  0  0  0  0
 19 38  1  0  0  0  0
 20 22  1  0  0  0  0
 20 27  1  0  0  0  0
 21 27  2  0  0  0  0
 21 24  1  0  0  0  0
 21 28  1  0  0  0  0
 22 23  1  0  0  0  0
 22 25  2  0  0  0  0
 23 24  1  0  0  0  0
 23 39  1  0  0  0  0
 24 26  2  0  0  0  0
 27 40  1  0  0  0  0
 28 41  1  0  0  0  0
 28 42  1  0  0  0  0
 28 43  1  0  0  0  0
M  END
>  <DRUGBANK_ID>
DB02887

>  <SECONDARY_ACCESSION_NUMBERS>
EXPT01098

>  <COMMON_NAME>
Stavudine triphosphate

>  <CAS_NUMBER>
26194-89-8

>  <UNII>
1ZP0VJ751G

>  <SYNONYMS>
2',3'-Dideoxy-2',3'-dehydrothymidine 5'-triphosphate; D4TTP

$$$$
