
 OpenBabel10282417072D

158163  0  0  0  0  0  0  0  0999 V2000
   -5.5899    3.0861    0.0000 C   0  0  1  0  0  0  0  0  0  0  0  0
   -6.2573    2.6012    0.0000 C   0  0  2  0  0  0  0  0  0  0  0  0
   -6.0024    1.8166    0.0000 C   0  0  0  0  0  0  0  0  0  0  0  0
   -5.1774    1.8166    0.0000 N   0  0  0  0  0  0  0  0  0  0  0  0
   -4.9225    2.6012    0.0000 C   0  0  2  0  0  0  0  0  0  0  0  0
   -4.7649    1.1021    0.0000 C   0  0  0  0  0  0  0  0  0  0  0  0
   -5.1774    0.3876    0.0000 C   0  0  1  0  0  0  0  0  0  0  0  0
   -4.7649   -0.3267    0.0000 N   0  0  0  0  0  0  0  0  0  0  0  0
   -5.1774   -1.0412    0.0000 C   0  0  0  0  0  0  0  0  0  0  0  0
   -4.7649   -1.7557    0.0000 C   0  0  1  0  0  0  0  0  0  0  0  0
   -3.9399    1.1021    0.0000 O   0  0  0  0  0  0  0  0  0  0  0  0
   -6.0024    0.3876    0.0000 C   0  0  0  0  0  0  0  0  0  0  0  0
   -6.4149   -0.3267    0.0000 O   0  0  0  0  0  0  0  0  0  0  0  0
   -6.0024   -1.0412    0.0000 O   0  0  0  0  0  0  0  0  0  0  0  0
   -7.0542    2.8147    0.0000 C   0  0  0  0  0  0  0  0  0  0  0  0
   -5.5899    3.9111    0.0000 O   0  0  0  0  0  0  0  0  0  0  0  0
   -4.3391    3.1845    0.0000 C   0  0  0  0  0  0  0  0  0  0  0  0
   -3.5141    3.1845    0.0000 N   0  0  0  0  0  0  0  0  0  0  0  0
   -4.5748    3.9285    0.0000 O   0  0  0  0  0  0  0  0  0  0  0  0
   -3.1016    3.8990    0.0000 C   0  0  0  0  0  0  0  0  0  0  0  0
   -2.2766    3.8990    0.0000 C   0  0  3  0  0  0  0  0  0  0  0  0
   -1.8641    3.1845    0.0000 C   0  0  0  0  0  0  0  0  0  0  0  0
   -2.2766    2.4701    0.0000 C   0  0  1  0  0  0  0  0  0  0  0  0
   -1.8641    1.7556    0.0000 C   0  0  0  0  0  0  0  0  0  0  0  0
   -1.0391    1.7556    0.0000 O   0  0  0  0  0  0  0  0  0  0  0  0
   -2.2766    1.0411    0.0000 N   0  0  0  0  0  0  0  0  0  0  0  0
   -1.8641    0.3266    0.0000 C   0  0  1  0  0  0  0  0  0  0  0  0
   -1.0391    0.3266    0.0000 C   0  0  1  0  0  0  0  0  0  0  0  0
   -0.6266   -0.3877    0.0000 C   0  0  0  0  0  0  0  0  0  0  0  0
   -0.6266    1.0411    0.0000 O   0  0  0  0  0  0  0  0  0  0  0  0
   -2.2766   -0.3877    0.0000 C   0  0  0  0  0  0  0  0  0  0  0  0
   -1.0391   -1.1022    0.0000 C   0  0  0  0  0  0  0  0  0  0  0  0
   -1.8641   -1.1022    0.0000 N   0  0  0  0  0  0  0  0  0  0  0  0
   -2.1190   -1.8868    0.0000 C   0  0  1  0  0  0  0  0  0  0  0  0
   -1.4516   -2.3717    0.0000 C   0  0  0  0  0  0  0  0  0  0  0  0
   -0.7842   -1.8868    0.0000 C   0  0  1  0  0  0  0  0  0  0  0  0
   -3.1016   -0.3877    0.0000 O   0  0  0  0  0  0  0  0  0  0  0  0
   -3.6158   -1.7262    0.0000 N   0  0  0  0  0  0  0  0  0  0  0  0
   -2.8335   -2.2109    0.0000 C   0  0  0  0  0  0  0  0  0  0  0  0
   -2.8335   -3.0359    0.0000 O   0  0  0  0  0  0  0  0  0  0  0  0
   -5.1774   -2.4701    0.0000 C   0  0  1  0  0  0  0  0  0  0  0  0
   -6.0024   -2.4701    0.0000 C   0  0  0  0  0  0  0  0  0  0  0  0
   -4.7649   -3.1846    0.0000 O   0  0  0  0  0  0  0  0  0  0  0  0
   -6.4149   -3.1846    0.0000 C   0  0  0  0  0  0  0  0  0  0  0  0
   -7.6524   -3.8991    0.0000 C   0  0  0  0  0  0  0  0  0  0  0  0
   -7.2399   -4.6135    0.0000 C   0  0  0  0  0  0  0  0  0  0  0  0
   -6.4149   -4.6135    0.0000 C   0  0  0  0  0  0  0  0  0  0  0  0
   -6.0024   -3.8991    0.0000 C   0  0  0  0  0  0  0  0  0  0  0  0
   -7.2399   -3.1846    0.0000 C   0  0  0  0  0  0  0  0  0  0  0  0
   -7.6524   -5.3280    0.0000 O   0  0  0  0  0  0  0  0  0  0  0  0
   -1.8641    4.6135    0.0000 N   0  0  0  0  0  0  0  0  0  0  0  0
   -0.9212    2.4701    0.0000 N   0  0  0  0  0  0  0  0  0  0  0  0
    0.0126   -2.1004    0.0000 O   0  0  0  0  0  0  0  0  0  0  0  0
   -0.2068    2.8826    0.0000 C   0  0  0  0  0  0  0  0  0  0  0  0
   -0.2068    3.7076    0.0000 O   0  0  0  0  0  0  0  0  0  0  0  0
    0.5076    2.4701    0.0000 C   0  0  0  0  0  0  0  0  0  0  0  0
    1.2221    2.8826    0.0000 C   0  0  0  0  0  0  0  0  0  0  0  0
    0.5076    1.6450    0.0000 C   0  0  0  0  0  0  0  0  0  0  0  0
    1.2221    1.2325    0.0000 C   0  0  0  0  0  0  0  0  0  0  0  0
    1.9365    1.6450    0.0000 C   0  0  0  0  0  0  0  0  0  0  0  0
    1.9365    2.4701    0.0000 C   0  0  0  0  0  0  0  0  0  0  0  0
    2.6510    1.2325    0.0000 C   0  0  0  0  0  0  0  0  0  0  0  0
    3.3655    1.6450    0.0000 C   0  0  0  0  0  0  0  0  0  0  0  0
    2.6510    0.4074    0.0000 C   0  0  0  0  0  0  0  0  0  0  0  0
    4.0800    1.2325    0.0000 C   0  0  0  0  0  0  0  0  0  0  0  0
    3.3655   -0.0049    0.0000 C   0  0  0  0  0  0  0  0  0  0  0  0
    4.0800    0.4075    0.0000 C   0  0  0  0  0  0  0  0  0  0  0  0
    4.7945   -0.0049    0.0000 O   0  0  0  0  0  0  0  0  0  0  0  0
    4.7945   -0.8299    0.0000 C   0  0  0  0  0  0  0  0  0  0  0  0
    5.5090   -1.2424    0.0000 C   0  0  0  0  0  0  0  0  0  0  0  0
    5.5090   -2.0674    0.0000 C   0  0  0  0  0  0  0  0  0  0  0  0
    6.2234   -2.4799    0.0000 C   0  0  0  0  0  0  0  0  0  0  0  0
    6.2234   -3.3049    0.0000 C   0  0  0  0  0  0  0  0  0  0  0  0
    6.9379   -3.7174    0.0000 C   0  0  0  0  0  0  0  0  0  0  0  0
    6.9379   -4.5424    0.0000 C   0  0  0  0  0  0  0  0  0  0  0  0
    7.6524   -4.9549    0.0000 C   0  0  0  0  0  0  0  0  0  0  0  0
   -1.0391    4.6135    0.0000 C   0  0  0  0  0  0  0  0  0  0  0  0
   -0.6266    5.3280    0.0000 C   0  0  0  0  0  0  0  0  0  0  0  0
    0.1983    5.3280    0.0000 N   0  0  0  0  0  0  0  0  0  0  0  0
   -6.5433    3.5719    0.0000 H   0  0  0  0  0  0  0  0  0  0  0  0
   -6.4523    3.6533    0.0000 H   0  0  0  0  0  0  0  0  0  0  0  0
   -6.6313    0.9510    0.0000 H   0  0  0  0  0  0  0  0  0  0  0  0
   -5.5166    0.8632    0.0000 H   0  0  0  0  0  0  0  0  0  0  0  0
   -4.0102    2.0421    0.0000 H   0  0  0  0  0  0  0  0  0  0  0  0
   -4.1074    0.3877    0.0000 H   0  0  0  0  0  0  0  0  0  0  0  0
   -3.7804   -0.3266    0.0000 H   0  0  0  0  0  0  0  0  0  0  0  0
   -4.2418   -0.8223    0.0000 H   0  0  0  0  0  0  0  0  0  0  0  0
   -6.5374    1.3143    0.0000 H   0  0  0  0  0  0  0  0  0  0  0  0
   -7.0724    0.3877    0.0000 H   0  0  0  0  0  0  0  0  0  0  0  0
   -7.3849   -0.3266    0.0000 H   0  0  0  0  0  0  0  0  0  0  0  0
   -7.3312    3.8482    0.0000 H   0  0  0  0  0  0  0  0  0  0  0  0
   -7.8108    2.0581    0.0000 H   0  0  0  0  0  0  0  0  0  0  0  0
   -8.0877    3.0916    0.0000 H   0  0  0  0  0  0  0  0  0  0  0  0
   -4.7499    4.3961    0.0000 H   0  0  0  0  0  0  0  0  0  0  0  0
   -3.0218    2.3319    0.0000 H   0  0  0  0  0  0  0  0  0  0  0  0
   -3.6366    4.8256    0.0000 H   0  0  0  0  0  0  0  0  0  0  0  0
   -2.5666    4.8256    0.0000 H   0  0  0  0  0  0  0  0  0  0  0  0
   -2.8116    2.9724    0.0000 H   0  0  0  0  0  0  0  0  0  0  0  0
   -0.7941    3.1845    0.0000 H   0  0  0  0  0  0  0  0  0  0  0  0
   -1.3291    2.2578    0.0000 H   0  0  0  0  0  0  0  0  0  0  0  0
   -1.3499    3.0051    0.0000 H   0  0  0  0  0  0  0  0  0  0  0  0
   -3.2611    1.0411    0.0000 H   0  0  0  0  0  0  0  0  0  0  0  0
   -1.3291    1.2532    0.0000 H   0  0  0  0  0  0  0  0  0  0  0  0
   -1.5741    1.2532    0.0000 H   0  0  0  0  0  0  0  0  0  0  0  0
   -1.1615   -1.3144    0.0000 H   0  0  0  0  0  0  0  0  0  0  0  0
    0.4434   -0.3876    0.0000 H   0  0  0  0  0  0  0  0  0  0  0  0
   -0.0915   -1.3143    0.0000 H   0  0  0  0  0  0  0  0  0  0  0  0
    0.3434    1.0411    0.0000 H   0  0  0  0  0  0  0  0  0  0  0  0
   -0.4102   -0.2366    0.0000 H   0  0  0  0  0  0  0  0  0  0  0  0
    0.0177   -1.2696    0.0000 H   0  0  0  0  0  0  0  0  0  0  0  0
   -2.9167   -1.1736    0.0000 H   0  0  0  0  0  0  0  0  0  0  0  0
   -1.4516   -3.4417    0.0000 H   0  0  0  0  0  0  0  0  0  0  0  0
   -0.4982   -2.8575    0.0000 H   0  0  0  0  0  0  0  0  0  0  0  0
   -0.5893   -2.9389    0.0000 H   0  0  0  0  0  0  0  0  0  0  0  0
   -3.3584   -0.7759    0.0000 H   0  0  0  0  0  0  0  0  0  0  0  0
   -4.1074   -2.4701    0.0000 H   0  0  0  0  0  0  0  0  0  0  0  0
   -6.5374   -1.5435    0.0000 H   0  0  0  0  0  0  0  0  0  0  0  0
   -7.0724   -2.4701    0.0000 H   0  0  0  0  0  0  0  0  0  0  0  0
   -5.2499   -4.0246    0.0000 H   0  0  0  0  0  0  0  0  0  0  0  0
   -8.6844   -3.8991    0.0000 H   0  0  0  0  0  0  0  0  0  0  0  0
   -5.8989   -5.5072    0.0000 H   0  0  0  0  0  0  0  0  0  0  0  0
   -4.9704   -3.8991    0.0000 H   0  0  0  0  0  0  0  0  0  0  0  0
   -7.7559   -2.2909    0.0000 H   0  0  0  0  0  0  0  0  0  0  0  0
   -8.5894   -5.3280    0.0000 H   0  0  0  0  0  0  0  0  0  0  0  0
   -2.3741    5.4968    0.0000 H   0  0  0  0  0  0  0  0  0  0  0  0
   -0.6664    1.5192    0.0000 H   0  0  0  0  0  0  0  0  0  0  0  0
    0.2635   -3.0374    0.0000 H   0  0  0  0  0  0  0  0  0  0  0  0
    1.2221    3.9146    0.0000 H   0  0  0  0  0  0  0  0  0  0  0  0
   -0.3861    1.1290    0.0000 H   0  0  0  0  0  0  0  0  0  0  0  0
    1.2221    0.2005    0.0000 H   0  0  0  0  0  0  0  0  0  0  0  0
    2.8302    2.9861    0.0000 H   0  0  0  0  0  0  0  0  0  0  0  0
    3.3655    2.6770    0.0000 H   0  0  0  0  0  0  0  0  0  0  0  0
    1.7573   -0.1087    0.0000 H   0  0  0  0  0  0  0  0  0  0  0  0
    4.9737    1.7485    0.0000 H   0  0  0  0  0  0  0  0  0  0  0  0
    3.3656   -1.0369    0.0000 H   0  0  0  0  0  0  0  0  0  0  0  0
    3.8679   -1.3649    0.0000 H   0  0  0  0  0  0  0  0  0  0  0  0
    4.7945   -1.8999    0.0000 H   0  0  0  0  0  0  0  0  0  0  0  0
    6.4356   -0.7074    0.0000 H   0  0  0  0  0  0  0  0  0  0  0  0
    6.4356   -1.7774    0.0000 H   0  0  0  0  0  0  0  0  0  0  0  0
    4.5823   -2.6024    0.0000 H   0  0  0  0  0  0  0  0  0  0  0  0
    5.5090   -3.1374    0.0000 H   0  0  0  0  0  0  0  0  0  0  0  0
    7.1501   -1.9449    0.0000 H   0  0  0  0  0  0  0  0  0  0  0  0
    7.1500   -3.0149    0.0000 H   0  0  0  0  0  0  0  0  0  0  0  0
    5.2968   -3.8399    0.0000 H   0  0  0  0  0  0  0  0  0  0  0  0
    6.2234   -4.3749    0.0000 H   0  0  0  0  0  0  0  0  0  0  0  0
    7.8645   -3.1824    0.0000 H   0  0  0  0  0  0  0  0  0  0  0  0
    7.8645   -4.2524    0.0000 H   0  0  0  0  0  0  0  0  0  0  0  0
    6.0113   -5.0774    0.0000 H   0  0  0  0  0  0  0  0  0  0  0  0
    6.9379   -5.6124    0.0000 H   0  0  0  0  0  0  0  0  0  0  0  0
    7.6524   -6.0249    0.0000 H   0  0  0  0  0  0  0  0  0  0  0  0
    8.5790   -4.4199    0.0000 H   0  0  0  0  0  0  0  0  0  0  0  0
    8.5791   -5.4899    0.0000 H   0  0  0  0  0  0  0  0  0  0  0  0
   -0.5041    3.6869    0.0000 H   0  0  0  0  0  0  0  0  0  0  0  0
    0.0309    4.6135    0.0000 H   0  0  0  0  0  0  0  0  0  0  0  0
   -1.1616    6.2546    0.0000 H   0  0  0  0  0  0  0  0  0  0  0  0
   -0.0916    6.2546    0.0000 H   0  0  0  0  0  0  0  0  0  0  0  0
    0.7083    4.4447    0.0000 H   0  0  0  0  0  0  0  0  0  0  0  0
    0.7083    6.2113    0.0000 H   0  0  0  0  0  0  0  0  0  0  0  0
  1  2  1  0  0  0  0
  1  5  1  0  0  0  0
  1 16  1  0  0  0  0
  1 80  1  1  0  0  0
  2  3  1  0  0  0  0
  2 15  1  0  0  0  0
  2 81  1  1  0  0  0
  3  4  1  0  0  0  0
  3 82  1  0  0  0  0
  3 83  1  0  0  0  0
  4  5  1  0  0  0  0
  4  6  1  0  0  0  0
  5 17  1  0  0  0  0
  5 84  1  6  0  0  0
  6  7  1  0  0  0  0
  6 11  2  0  0  0  0
  7  8  1  0  0  0  0
  7 12  1  0  0  0  0
  7 85  1  6  0  0  0
  8  9  1  0  0  0  0
  8 86  1  0  0  0  0
  9 10  1  0  0  0  0
  9 14  2  0  0  0  0
 10 38  1  0  0  0  0
 10 41  1  0  0  0  0
 10 87  1  6  0  0  0
 12 13  1  0  0  0  0
 12 88  1  0  0  0  0
 12 89  1  0  0  0  0
 13 90  1  0  0  0  0
 15 91  1  0  0  0  0
 15 92  1  0  0  0  0
 15 93  1  0  0  0  0
 16 94  1  0  0  0  0
 17 18  1  0  0  0  0
 17 19  2  0  0  0  0
 18 20  1  0  0  0  0
 18 95  1  0  0  0  0
 20 21  1  0  0  0  0
 20 96  1  0  0  0  0
 20 97  1  0  0  0  0
 21 22  1  0  0  0  0
 21 51  1  0  0  0  0
 21 98  1  0  0  0  0
 22 23  1  0  0  0  0
 22 99  1  0  0  0  0
 22100  1  0  0  0  0
 23 24  1  0  0  0  0
 23 52  1  0  0  0  0
 23101  1  1  0  0  0
 24 25  2  0  0  0  0
 24 26  1  0  0  0  0
 26102  1  0  0  0  0
 27 26  1  0  0  0  0
 27 28  1  0  0  0  0
 27 31  1  0  0  0  0
 27103  1  6  0  0  0
 28 29  1  0  0  0  0
 28 30  1  0  0  0  0
 28104  1  1  0  0  0
 29105  1  0  0  0  0
 29106  1  0  0  0  0
 29107  1  0  0  0  0
 30108  1  0  0  0  0
 31 33  1  0  0  0  0
 31 37  2  0  0  0  0
 32 33  1  0  0  0  0
 32 36  1  0  0  0  0
 32109  1  0  0  0  0
 32110  1  0  0  0  0
 33 34  1  0  0  0  0
 34 35  1  0  0  0  0
 34 39  1  0  0  0  0
 34111  1  6  0  0  0
 35 36  1  0  0  0  0
 35112  1  0  0  0  0
 35113  1  0  0  0  0
 36 53  1  0  0  0  0
 36114  1  1  0  0  0
 38 39  1  0  0  0  0
 38115  1  0  0  0  0
 39 40  2  0  0  0  0
 41 42  1  0  0  0  0
 41 43  1  0  0  0  0
 41116  1  1  0  0  0
 42 44  1  0  0  0  0
 42117  1  0  0  0  0
 42118  1  0  0  0  0
 43119  1  0  0  0  0
 44 49  1  0  0  0  0
 45 46  1  0  0  0  0
 45 49  2  0  0  0  0
 45120  1  0  0  0  0
 46 47  2  0  0  0  0
 46 50  1  0  0  0  0
 47 48  1  0  0  0  0
 47121  1  0  0  0  0
 48 44  2  0  0  0  0
 48122  1  0  0  0  0
 49123  1  0  0  0  0
 50124  1  0  0  0  0
 51 77  1  0  0  0  0
 51125  1  0  0  0  0
 52 54  1  0  0  0  0
 52126  1  0  0  0  0
 53127  1  0  0  0  0
 54 55  2  0  0  0  0
 54 56  1  0  0  0  0
 56 58  1  0  0  0  0
 57 56  2  0  0  0  0
 57 61  1  0  0  0  0
 57128  1  0  0  0  0
 58 59  2  0  0  0  0
 58129  1  0  0  0  0
 59 60  1  0  0  0  0
 59130  1  0  0  0  0
 60 61  2  0  0  0  0
 60 62  1  0  0  0  0
 61131  1  0  0  0  0
 63 62  1  0  0  0  0
 63132  1  0  0  0  0
 64 62  2  0  0  0  0
 64133  1  0  0  0  0
 65 63  2  0  0  0  0
 65134  1  0  0  0  0
 66 64  1  0  0  0  0
 66135  1  0  0  0  0
 67 65  1  0  0  0  0
 67 66  2  0  0  0  0
 67 68  1  0  0  0  0
 68 69  1  0  0  0  0
 69 70  1  0  0  0  0
 69136  1  0  0  0  0
 69137  1  0  0  0  0
 70 71  1  0  0  0  0
 70138  1  0  0  0  0
 70139  1  0  0  0  0
 71 72  1  0  0  0  0
 71140  1  0  0  0  0
 71141  1  0  0  0  0
 72 73  1  0  0  0  0
 72142  1  0  0  0  0
 72143  1  0  0  0  0
 73 74  1  0  0  0  0
 73144  1  0  0  0  0
 73145  1  0  0  0  0
 74 75  1  0  0  0  0
 74146  1  0  0  0  0
 74147  1  0  0  0  0
 75 76  1  0  0  0  0
 75148  1  0  0  0  0
 75149  1  0  0  0  0
 76150  1  0  0  0  0
 76151  1  0  0  0  0
 76152  1  0  0  0  0
 77 78  1  0  0  0  0
 77153  1  0  0  0  0
 77154  1  0  0  0  0
 78 79  1  0  0  0  0
 78155  1  0  0  0  0
 78156  1  0  0  0  0
 79157  1  0  0  0  0
 79158  1  0  0  0  0
M  END
>  <DRUGBANK_ID>
DB05128

>  <COMMON_NAME>
Aminocandin

>  <CAS_NUMBER>
227472-48-2

$$$$
