
 OpenBabel10282417072D

  1  0  0  0  0  0  0  0  0  0999 V2000
    0.0000    0.0000    0.0000 K   0  3  0  0  0  0  0  0  0  0  0  0
M  CHG  1   1   1
M  END
>  <DRUGBANK_ID>
DB01345

>  <COMMON_NAME>
Potassium cation

>  <CAS_NUMBER>
24203-36-9

>  <UNII>
295O53K152

>  <SYNONYMS>
Potassium (ion); Potassium ion; potassium(1+); potassium(1+) ion; potassium(I) cation

$$$$
