JCL
 OpenBabel10282417072D

 30 30  0  0  0  0  0  0  0  0999 V2000
   -2.8479   -0.1684    0.0000 N   0  0  0  0  0  0  0  0  0  0  0  0
   -2.1334    1.0691    0.0000 N   0  0  0  0  0  0  0  0  0  0  0  0
   -1.4189    0.6566    0.0000 C   0  0  0  0  0  0  0  0  0  0  0  0
   -0.7045    1.0691    0.0000 Cl  0  0  0  0  0  0  0  0  0  0  0  0
   -1.4189   -0.1684    0.0000 C   0  0  0  0  0  0  0  0  0  0  0  0
   -0.7045   -0.5809    0.0000 C   0  0  0  0  0  0  0  0  0  0  0  0
   -2.8479    0.6566    0.0000 C   0  0  0  0  0  0  0  0  0  0  0  0
   -2.1334   -0.5809    0.0000 C   0  0  0  0  0  0  0  0  0  0  0  0
   -3.5624    1.0691    0.0000 O   0  0  0  0  0  0  0  0  0  0  0  0
   -2.1334   -1.4059    0.0000 O   0  0  0  0  0  0  0  0  0  0  0  0
    0.0100   -0.1684    0.0000 C   0  0  0  0  0  0  0  0  0  0  0  0
    0.7245   -0.5809    0.0000 C   0  0  0  0  0  0  0  0  0  0  0  0
    1.4389   -0.1684    0.0000 C   0  0  0  0  0  0  0  0  0  0  0  0
    2.1534   -0.5809    0.0000 O   0  0  0  0  0  0  0  0  0  0  0  0
    2.8679   -0.1684    0.0000 P   0  0  0  0  0  0  0  0  0  0  0  0
    3.5823    0.2441    0.0000 O   0  0  0  0  0  0  0  0  0  0  0  0
    3.2804   -0.8829    0.0000 O   0  0  0  0  0  0  0  0  0  0  0  0
    2.4554    0.5460    0.0000 O   0  0  0  0  0  0  0  0  0  0  0  0
   -3.7005   -0.6607    0.0000 H   0  0  0  0  0  0  0  0  0  0  0  0
   -2.1334    2.0536    0.0000 H   0  0  0  0  0  0  0  0  0  0  0  0
   -0.7045   -1.6509    0.0000 H   0  0  0  0  0  0  0  0  0  0  0  0
    0.2221   -1.1159    0.0000 H   0  0  0  0  0  0  0  0  0  0  0  0
    0.0100    0.9016    0.0000 H   0  0  0  0  0  0  0  0  0  0  0  0
    0.9366    0.3666    0.0000 H   0  0  0  0  0  0  0  0  0  0  0  0
    0.7245   -1.6509    0.0000 H   0  0  0  0  0  0  0  0  0  0  0  0
    1.6512   -1.1159    0.0000 H   0  0  0  0  0  0  0  0  0  0  0  0
    1.4389    0.9016    0.0000 H   0  0  0  0  0  0  0  0  0  0  0  0
    2.3655    0.3666    0.0000 H   0  0  0  0  0  0  0  0  0  0  0  0
    4.4224   -0.2409    0.0000 H   0  0  0  0  0  0  0  0  0  0  0  0
    2.7954   -1.7229    0.0000 H   0  0  0  0  0  0  0  0  0  0  0  0
  1  7  1  0  0  0  0
  1  8  1  0  0  0  0
  1 19  1  0  0  0  0
  2  3  1  0  0  0  0
  2  7  1  0  0  0  0
  2 20  1  0  0  0  0
  3  4  1  0  0  0  0
  3  5  2  0  0  0  0
  5  6  1  0  0  0  0
  5  8  1  0  0  0  0
  6 11  1  0  0  0  0
  6 21  1  0  0  0  0
  6 22  1  0  0  0  0
  7  9  2  0  0  0  0
  8 10  2  0  0  0  0
 11 12  1  0  0  0  0
 11 23  1  0  0  0  0
 11 24  1  0  0  0  0
 12 13  1  0  0  0  0
 12 25  1  0  0  0  0
 12 26  1  0  0  0  0
 13 14  1  0  0  0  0
 13 27  1  0  0  0  0
 13 28  1  0  0  0  0
 14 15  1  0  0  0  0
 15 16  1  0  0  0  0
 15 17  1  0  0  0  0
 15 18  2  0  0  0  0
 16 29  1  0  0  0  0
 17 30  1  0  0  0  0
M  END
>  <DRUGBANK_ID>
DB08016

>  <COMMON_NAME>
4-(6-CHLORO-2,4-DIOXO-1,2,3,4-TETRAHYDROPYRIMIDIN-5-YL) BUTYL PHOSPHATE

$$$$
