
 OpenBabel10282417072D

 35 36  0  0  0  0  0  0  0  0999 V2000
   -0.1357    0.8250    0.0000 O   0  0  0  0  0  0  0  0  0  0  0  0
    0.5787   -0.4125    0.0000 O   0  0  0  0  0  0  0  0  0  0  0  0
    1.2932    1.6500    0.0000 O   0  0  0  0  0  0  0  0  0  0  0  0
    2.7221    0.8250    0.0000 O   0  0  0  0  0  0  0  0  0  0  0  0
    2.7221   -0.8250    0.0000 O   0  0  0  0  0  0  0  0  0  0  0  0
   -0.1357   -0.8250    0.0000 O   0  0  0  0  0  0  0  0  0  0  0  0
   -1.5646   -1.6500    0.0000 O   0  0  0  0  0  0  0  0  0  0  0  0
   -2.2792   -0.4125    0.0000 N   0  0  0  0  0  0  0  0  0  0  0  0
    1.2932    0.8250    0.0000 C   0  0  1  0  0  0  0  0  0  0  0  0
    0.5787    0.4125    0.0000 C   0  0  2  0  0  0  0  0  0  0  0  0
    2.0077    0.4125    0.0000 C   0  0  2  0  0  0  0  0  0  0  0  0
   -0.8502    0.4125    0.0000 C   0  0  2  0  0  0  0  0  0  0  0  0
    2.0077   -0.4125    0.0000 C   0  0  1  0  0  0  0  0  0  0  0  0
   -1.5646    0.8250    0.0000 C   0  0  0  0  0  0  0  0  0  0  0  0
   -0.8502   -0.4125    0.0000 C   0  0  1  0  0  0  0  0  0  0  0  0
    1.2932   -0.8250    0.0000 C   0  0  0  0  0  0  0  0  0  0  0  0
   -2.2792    0.4125    0.0000 C   0  0  0  0  0  0  0  0  0  0  0  0
   -1.5646   -0.8250    0.0000 C   0  0  0  0  0  0  0  0  0  0  0  0
   -2.7221   -0.6682    0.0000 H   0  0  0  0  0  0  0  0  0  0  0  0
    2.1332    2.1350    0.0000 H   0  0  0  0  0  0  0  0  0  0  0  0
    3.5622    0.3400    0.0000 H   0  0  0  0  0  0  0  0  0  0  0  0
    2.7221   -1.7950    0.0000 H   0  0  0  0  0  0  0  0  0  0  0  0
   -0.1357   -1.7950    0.0000 H   0  0  0  0  0  0  0  0  0  0  0  0
    0.3666    1.3600    0.0000 H   0  0  0  0  0  0  0  0  0  0  0  0
   -0.3480   -0.1225    0.0000 H   0  0  0  0  0  0  0  0  0  0  0  0
    2.0077    1.4825    0.0000 H   0  0  0  0  0  0  0  0  0  0  0  0
   -0.8502    1.4825    0.0000 H   0  0  0  0  0  0  0  0  0  0  0  0
    2.9344    0.1225    0.0000 H   0  0  0  0  0  0  0  0  0  0  0  0
   -1.5645    1.8950    0.0000 H   0  0  0  0  0  0  0  0  0  0  0  0
   -2.4912    1.3601    0.0000 H   0  0  0  0  0  0  0  0  0  0  0  0
    0.0764    0.1225    0.0000 H   0  0  0  0  0  0  0  0  0  0  0  0
    1.2932   -1.8950    0.0000 H   0  0  0  0  0  0  0  0  0  0  0  0
    2.2198   -1.3600    0.0000 H   0  0  0  0  0  0  0  0  0  0  0  0
   -3.2058    0.9475    0.0000 H   0  0  0  0  0  0  0  0  0  0  0  0
   -2.2791    1.4825    0.0000 H   0  0  0  0  0  0  0  0  0  0  0  0
  2 10  1  0  0  0  0
  2 16  1  0  0  0  0
  3 20  1  0  0  0  0
  4 21  1  0  0  0  0
  5 22  1  0  0  0  0
  6 23  1  0  0  0  0
  7 18  2  0  0  0  0
  8 17  1  0  0  0  0
  8 18  1  0  0  0  0
  8 19  1  0  0  0  0
  9  3  1  0  0  0  0
  9 10  1  0  0  0  0
  9 11  1  0  0  0  0
  9 24  1  1  0  0  0
 10  1  1  0  0  0  0
 10 25  1  6  0  0  0
 11  4  1  0  0  0  0
 11 13  1  0  0  0  0
 11 26  1  6  0  0  0
 12  1  1  0  0  0  0
 12 14  1  0  0  0  0
 12 15  1  0  0  0  0
 12 27  1  6  0  0  0
 13  5  1  0  0  0  0
 13 16  1  0  0  0  0
 13 28  1  1  0  0  0
 14 17  1  0  0  0  0
 14 29  1  0  0  0  0
 14 30  1  0  0  0  0
 15  6  1  0  0  0  0
 15 18  1  0  0  0  0
 15 31  1  1  0  0  0
 16 32  1  0  0  0  0
 16 33  1  0  0  0  0
 17 34  1  0  0  0  0
 17 35  1  0  0  0  0
M  END
>  <DRUGBANK_ID>
DB03717

>  <SECONDARY_ACCESSION_NUMBERS>
EXPT03258

>  <COMMON_NAME>
3-Hydroxy-4-(3,4,5-trihydroxy-tetrahydro-pyran-2-yloxy)-piperidin-2-one

>  <CAS_NUMBER>
284045-95-0

$$$$
