744
 OpenBabel10282417072D

 28 29  0  0  1  0  0  0  0  0999 V2000
    3.8597    1.1874    0.0000 S   0  0  0  0  0  0  0  0  0  0  0  0
    5.1662   -0.9055    0.0000 O   0  0  0  0  0  0  0  0  0  0  0  0
    6.8162    0.5235    0.0000 O   0  0  0  0  0  0  0  0  0  0  0  0
    5.5787   -0.1910    0.0000 N   0  0  0  0  0  0  0  0  0  0  0  0
    6.8162   -0.9055    0.0000 N   0  0  0  0  0  0  0  0  0  0  0  0
    5.1662    0.5235    0.0000 C   0  0  3  0  0  0  0  0  0  0  0  0
    4.3412    0.5235    0.0000 C   0  0  0  0  0  0  0  0  0  0  0  0
    3.0791    0.1110    0.0000 C   0  0  0  0  0  0  0  0  0  0  0  0
    3.8597   -0.1404    0.0000 C   0  0  0  0  0  0  0  0  0  0  0  0
    3.0791    0.9360    0.0000 C   0  0  0  0  0  0  0  0  0  0  0  0
    5.5787    1.2379    0.0000 C   0  0  0  0  0  0  0  0  0  0  0  0
    2.3645   -0.3015    0.0000 C   0  0  0  0  0  0  0  0  0  0  0  0
    2.3645    1.3485    0.0000 C   0  0  0  0  0  0  0  0  0  0  0  0
    1.6500    0.1110    0.0000 C   0  0  0  0  0  0  0  0  0  0  0  0
    1.6500    0.9360    0.0000 C   0  0  0  0  0  0  0  0  0  0  0  0
    6.4037   -0.1910    0.0000 C   0  0  0  0  0  0  0  0  0  0  0  0
    4.1962   -0.9055    0.0000 H   0  0  0  0  0  0  0  0  0  0  0  0
    6.3239   -1.7581    0.0000 H   0  0  0  0  0  0  0  0  0  0  0  0
    7.8007   -0.9055    0.0000 H   0  0  0  0  0  0  0  0  0  0  0  0
    4.6312   -0.4031    0.0000 H   0  0  0  0  0  0  0  0  0  0  0  0
    4.1803   -1.1213    0.0000 H   0  0  0  0  0  0  0  0  0  0  0  0
    6.6487    1.2379    0.0000 H   0  0  0  0  0  0  0  0  0  0  0  0
    5.0437    2.1646    0.0000 H   0  0  0  0  0  0  0  0  0  0  0  0
    6.1137    2.1645    0.0000 H   0  0  0  0  0  0  0  0  0  0  0  0
    2.3645   -1.3335    0.0000 H   0  0  0  0  0  0  0  0  0  0  0  0
    2.3645    2.3805    0.0000 H   0  0  0  0  0  0  0  0  0  0  0  0
    0.7563   -0.4050    0.0000 H   0  0  0  0  0  0  0  0  0  0  0  0
    0.7563    1.4520    0.0000 H   0  0  0  0  0  0  0  0  0  0  0  0
  1  7  1  0  0  0  0
  1 10  1  0  0  0  0
  2  4  1  0  0  0  0
  2 17  1  0  0  0  0
  3 16  2  0  0  0  0
  4  6  1  0  0  0  0
  4 16  1  0  0  0  0
  5 16  1  0  0  0  0
  5 18  1  0  0  0  0
  5 19  1  0  0  0  0
  6  7  1  0  0  0  0
  6 11  1  0  0  0  0
  6 20  1  0  0  0  0
  7  9  2  0  0  0  0
  8  9  1  0  0  0  0
  8 10  1  0  0  0  0
  8 12  2  0  0  0  0
  9 21  1  0  0  0  0
 10 13  2  0  0  0  0
 11 22  1  0  0  0  0
 11 23  1  0  0  0  0
 11 24  1  0  0  0  0
 12 14  1  0  0  0  0
 12 25  1  0  0  0  0
 13 15  1  0  0  0  0
 13 26  1  0  0  0  0
 14 15  2  0  0  0  0
 14 27  1  0  0  0  0
 15 28  1  0  0  0  0
M  END
>  <DRUGBANK_ID>
DB00744

>  <SECONDARY_ACCESSION_NUMBERS>
APRD00265

>  <COMMON_NAME>
Zileuton

>  <CAS_NUMBER>
111406-87-2

>  <UNII>
V1L22WVE2S

>  <SYNONYMS>
(±)-1-(1-Benzo[b]thien-2-ylethyl)-1-hydroxyurea; Leutrol; N-(1-Benzo(b)thien-2-ylethyl)-N-hydroxyurea; N-[1-(benzo[b]thiophen-2-yl)ethyl]-N-hydroxyurea; Zileuton; Zileutón; Zileutonum

$$$$
