711
 OpenBabel10282417072D

 35 35  0  0  0  0  0  0  0  0999 V2000
    4.5080   -1.2375    0.0000 O   0  0  0  0  0  0  0  0  0  0  0  0
    3.7935    0.0000    0.0000 N   0  0  0  0  0  0  0  0  0  0  0  0
    3.7935    1.6500    0.0000 N   0  0  0  0  0  0  0  0  0  0  0  0
    3.0791   -1.2375    0.0000 N   0  0  0  0  0  0  0  0  0  0  0  0
    4.5080    0.4125    0.0000 C   0  0  0  0  0  0  0  0  0  0  0  0
    3.0791    0.4125    0.0000 C   0  0  0  0  0  0  0  0  0  0  0  0
    4.5080    1.2375    0.0000 C   0  0  0  0  0  0  0  0  0  0  0  0
    3.0791    1.2375    0.0000 C   0  0  0  0  0  0  0  0  0  0  0  0
    3.7935   -0.8250    0.0000 C   0  0  0  0  0  0  0  0  0  0  0  0
    3.7935    2.4751    0.0000 C   0  0  0  0  0  0  0  0  0  0  0  0
    3.0791   -2.0625    0.0000 C   0  0  0  0  0  0  0  0  0  0  0  0
    2.3645   -0.8250    0.0000 C   0  0  0  0  0  0  0  0  0  0  0  0
    2.3645   -2.4751    0.0000 C   0  0  0  0  0  0  0  0  0  0  0  0
    1.6500   -1.2375    0.0000 C   0  0  0  0  0  0  0  0  0  0  0  0
    5.4346   -0.1225    0.0000 H   0  0  0  0  0  0  0  0  0  0  0  0
    5.4346    0.9475    0.0000 H   0  0  0  0  0  0  0  0  0  0  0  0
    2.1524   -0.1225    0.0000 H   0  0  0  0  0  0  0  0  0  0  0  0
    2.1525    0.9475    0.0000 H   0  0  0  0  0  0  0  0  0  0  0  0
    5.4346    1.7725    0.0000 H   0  0  0  0  0  0  0  0  0  0  0  0
    5.4346    0.7025    0.0000 H   0  0  0  0  0  0  0  0  0  0  0  0
    2.1524    1.7725    0.0000 H   0  0  0  0  0  0  0  0  0  0  0  0
    2.1525    0.7025    0.0000 H   0  0  0  0  0  0  0  0  0  0  0  0
    4.7201    3.0101    0.0000 H   0  0  0  0  0  0  0  0  0  0  0  0
    2.8669    3.0101    0.0000 H   0  0  0  0  0  0  0  0  0  0  0  0
    3.7935    3.5451    0.0000 H   0  0  0  0  0  0  0  0  0  0  0  0
    4.0058   -2.5975    0.0000 H   0  0  0  0  0  0  0  0  0  0  0  0
    3.0791   -3.1325    0.0000 H   0  0  0  0  0  0  0  0  0  0  0  0
    2.3645    0.2450    0.0000 H   0  0  0  0  0  0  0  0  0  0  0  0
    1.4378   -0.2900    0.0000 H   0  0  0  0  0  0  0  0  0  0  0  0
    1.4378   -1.9401    0.0000 H   0  0  0  0  0  0  0  0  0  0  0  0
    2.3645   -3.5451    0.0000 H   0  0  0  0  0  0  0  0  0  0  0  0
    1.4379   -3.0101    0.0000 H   0  0  0  0  0  0  0  0  0  0  0  0
    0.7234   -0.7025    0.0000 H   0  0  0  0  0  0  0  0  0  0  0  0
    1.6500   -2.3075    0.0000 H   0  0  0  0  0  0  0  0  0  0  0  0
    0.7233   -1.7725    0.0000 H   0  0  0  0  0  0  0  0  0  0  0  0
  1  9  2  0  0  0  0
  2  5  1  0  0  0  0
  2  6  1  0  0  0  0
  2  9  1  0  0  0  0
  3  7  1  0  0  0  0
  3  8  1  0  0  0  0
  3 10  1  0  0  0  0
  4  9  1  0  0  0  0
  4 11  1  0  0  0  0
  4 12  1  0  0  0  0
  5  7  1  0  0  0  0
  5 15  1  0  0  0  0
  5 16  1  0  0  0  0
  6  8  1  0  0  0  0
  6 17  1  0  0  0  0
  6 18  1  0  0  0  0
  7 19  1  0  0  0  0
  7 20  1  0  0  0  0
  8 21  1  0  0  0  0
  8 22  1  0  0  0  0
 10 23  1  0  0  0  0
 10 24  1  0  0  0  0
 10 25  1  0  0  0  0
 11 13  1  0  0  0  0
 11 26  1  0  0  0  0
 11 27  1  0  0  0  0
 12 14  1  0  0  0  0
 12 28  1  0  0  0  0
 12 29  1  0  0  0  0
 13 30  1  0  0  0  0
 13 31  1  0  0  0  0
 13 32  1  0  0  0  0
 14 33  1  0  0  0  0
 14 34  1  0  0  0  0
 14 35  1  0  0  0  0
M  END
>  <DRUGBANK_ID>
DB00711

>  <SECONDARY_ACCESSION_NUMBERS>
APRD00918

>  <COMMON_NAME>
Diethylcarbamazine

>  <CAS_NUMBER>
90-89-1

>  <UNII>
V867Q8X3ZD

>  <SYNONYMS>
Diethylcarbamazin; Di√©thylcarbamazine; Diethylcarbamazine; Diethylcarbamazinum; Dietilcarbamazina

$$$$
