
 OpenBabel10282417072D

202212  0  0  0  0  0  0  0  0999 V2000
   -2.8578    1.4028    0.0000 Cl  0  0  0  0  0  0  0  0  0  0  0  0
    2.8578    1.4028    0.0000 Cl  0  0  0  0  0  0  0  0  0  0  0  0
   -2.4033    3.1554    0.0000 O   0  0  0  0  0  0  0  0  0  0  0  0
   -1.0605    2.6668    0.0000 O   0  0  0  0  0  0  0  0  0  0  0  0
   -3.1818    5.1946    0.0000 O   0  0  0  0  0  0  0  0  0  0  0  0
   -6.2504   -0.8586    0.0000 O   0  0  0  0  0  0  0  0  0  0  0  0
    1.0946    2.3213    0.0000 O   0  0  0  0  0  0  0  0  0  0  0  0
   -4.8701   -0.4888    0.0000 O   0  0  0  0  0  0  0  0  0  0  0  0
   -8.0577    0.3653    0.0000 O   0  0  0  0  0  0  0  0  0  0  0  0
    0.0000    1.4028    0.0000 O   0  0  0  0  0  0  0  0  0  0  0  0
   -0.4962    4.2172    0.0000 O   0  0  0  0  0  0  0  0  0  0  0  0
    1.1286    4.5038    0.0000 O   0  0  0  0  0  0  0  0  0  0  0  0
    2.4714    4.0151    0.0000 O   0  0  0  0  0  0  0  0  0  0  0  0
   -1.4289    0.5778    0.0000 O   0  0  0  0  0  0  0  0  0  0  0  0
    1.4289    0.5778    0.0000 O   0  0  0  0  0  0  0  0  0  0  0  0
   -5.8262   -2.3096    0.0000 O   0  0  0  0  0  0  0  0  0  0  0  0
   -2.1457   -1.4807    0.0000 O   0  0  0  0  0  0  0  0  0  0  0  0
   -0.7155   -3.1346    0.0000 O   0  0  0  0  0  0  0  0  0  0  0  0
   -2.9459   -4.0410    0.0000 O   0  0  0  0  0  0  0  0  0  0  0  0
   -2.9410   -2.7771    0.0000 O   0  0  0  0  0  0  0  0  0  0  0  0
   -2.1433   -5.6096    0.0000 O   0  0  0  0  0  0  0  0  0  0  0  0
    1.4289   -1.0721    0.0000 O   0  0  0  0  0  0  0  0  0  0  0  0
   -2.8578   -6.0221    0.0000 O   0  0  0  0  0  0  0  0  0  0  0  0
   -5.7158   -6.0221    0.0000 O   0  0  0  0  0  0  0  0  0  0  0  0
    4.8701   -0.4888    0.0000 O   0  0  0  0  0  0  0  0  0  0  0  0
    3.5723   -3.1346    0.0000 O   0  0  0  0  0  0  0  0  0  0  0  0
    4.7138   -3.4909    0.0000 O   0  0  0  0  0  0  0  0  0  0  0  0
    0.9766   -3.4763    0.0000 O   0  0  0  0  0  0  0  0  0  0  0  0
   -1.9822    5.5184    0.0000 N   0  3  0  0  0  0  0  0  0  0  0  0
   -7.2608    1.3185    0.0000 N   0  3  0  0  0  0  0  0  0  0  0  0
   -3.5723   -2.3096    0.0000 N   0  0  0  0  0  0  0  0  0  0  0  0
   -5.0012   -3.1346    0.0000 N   0  0  0  0  0  0  0  0  0  0  0  0
   -1.4289   -1.8971    0.0000 N   0  0  0  0  0  0  0  0  0  0  0  0
    0.7144   -2.3096    0.0000 N   0  0  0  0  0  0  0  0  0  0  0  0
    2.8579   -1.8971    0.0000 N   0  0  0  0  0  0  0  0  0  0  0  0
    5.0836   -2.1106    0.0000 N   0  0  0  0  0  0  0  0  0  0  0  0
    6.3076   -3.9180    0.0000 N   0  3  0  0  0  0  0  0  0  0  0  0
    1.9871   -4.4868    0.0000 N   0  0  0  0  0  0  0  0  0  0  0  0
   -1.8390    4.7059    0.0000 C   0  0  2  0  0  0  0  0  0  0  0  0
   -2.6515    4.5627    0.0000 C   0  0  2  0  0  0  0  0  0  0  0  0
   -1.3087    4.0740    0.0000 C   0  0  0  0  0  0  0  0  0  0  0  0
   -1.5908    3.2987    0.0000 C   0  0  1  0  0  0  0  0  0  0  0  0
   -2.9336    3.7874    0.0000 C   0  0  2  0  0  0  0  0  0  0  0  0
   -6.6775    0.7351    0.0000 C   0  0  2  0  0  0  0  0  0  0  0  0
   -1.1245    5.1184    0.0000 C   0  0  0  0  0  0  0  0  0  0  0  0
   -7.2608    0.1518    0.0000 C   0  0  2  0  0  0  0  0  0  0  0  0
   -0.2481    2.8100    0.0000 C   0  0  2  0  0  0  0  0  0  0  0  0
   -5.8805    0.5215    0.0000 C   0  0  0  0  0  0  0  0  0  0  0  0
    0.0340    3.5852    0.0000 C   0  0  2  0  0  0  0  0  0  0  0  0
   -7.0473   -0.6450    0.0000 C   0  0  2  0  0  0  0  0  0  0  0  0
   -5.6670   -0.2752    0.0000 C   0  0  1  0  0  0  0  0  0  0  0  0
   -3.7461    3.6441    0.0000 C   0  0  0  0  0  0  0  0  0  0  0  0
    0.2821    2.1780    0.0000 C   0  0  1  0  0  0  0  0  0  0  0  0
    0.8464    3.7285    0.0000 C   0  0  1  0  0  0  0  0  0  0  0  0
   -6.0941    1.3185    0.0000 C   0  0  0  0  0  0  0  0  0  0  0  0
    1.3768    3.0965    0.0000 C   0  0  1  0  0  0  0  0  0  0  0  0
   -7.6307   -1.2285    0.0000 C   0  0  0  0  0  0  0  0  0  0  0  0
    2.1892    3.2398    0.0000 C   0  0  0  0  0  0  0  0  0  0  0  0
   -4.2868   -1.0721    0.0000 C   0  0  1  0  0  0  0  0  0  0  0  0
   -4.2868   -1.8971    0.0000 C   0  0  1  0  0  0  0  0  0  0  0  0
   -3.5723   -0.6596    0.0000 C   0  0  0  0  0  0  0  0  0  0  0  0
    0.0000    0.5778    0.0000 C   0  0  0  0  0  0  0  0  0  0  0  0
   -5.0012   -2.3096    0.0000 C   0  0  0  0  0  0  0  0  0  0  0  0
   -0.7144    0.1653    0.0000 C   0  0  0  0  0  0  0  0  0  0  0  0
    0.7144    0.1653    0.0000 C   0  0  0  0  0  0  0  0  0  0  0  0
   -3.5723    0.1653    0.0000 C   0  0  0  0  0  0  0  0  0  0  0  0
   -2.8578   -1.0721    0.0000 C   0  0  0  0  0  0  0  0  0  0  0  0
   -2.8578   -1.8971    0.0000 C   0  0  0  0  0  0  0  0  0  0  0  0
   -0.7144   -0.6596    0.0000 C   0  0  0  0  0  0  0  0  0  0  0  0
    0.0000   -1.0721    0.0000 C   0  0  0  0  0  0  0  0  0  0  0  0
   -2.1433    0.1653    0.0000 C   0  0  0  0  0  0  0  0  0  0  0  0
    0.7144   -0.6596    0.0000 C   0  0  0  0  0  0  0  0  0  0  0  0
   -2.8578    0.5778    0.0000 C   0  0  0  0  0  0  0  0  0  0  0  0
   -2.1433   -0.6596    0.0000 C   0  0  0  0  0  0  0  0  0  0  0  0
   -2.1433   -2.3096    0.0000 C   0  0  1  0  0  0  0  0  0  0  0  0
    0.0000   -1.8971    0.0000 C   0  0  2  0  0  0  0  0  0  0  0  0
   -4.2868   -3.5471    0.0000 C   0  0  1  0  0  0  0  0  0  0  0  0
   -0.7144   -2.3096    0.0000 C   0  0  0  0  0  0  0  0  0  0  0  0
   -2.1433   -3.1346    0.0000 C   0  0  0  0  0  0  0  0  0  0  0  0
   -4.2868   -4.3721    0.0000 C   0  0  0  0  0  0  0  0  0  0  0  0
   -3.5723   -4.7846    0.0000 C   0  0  0  0  0  0  0  0  0  0  0  0
   -2.8578   -3.5471    0.0000 C   0  0  0  0  0  0  0  0  0  0  0  0
   -2.8578   -4.3721    0.0000 C   0  0  0  0  0  0  0  0  0  0  0  0
    2.1433    0.1653    0.0000 C   0  0  0  0  0  0  0  0  0  0  0  0
   -3.4737   -3.4070    0.0000 C   0  0  0  0  0  0  0  0  0  0  0  0
   -1.4289   -3.5471    0.0000 C   0  0  0  0  0  0  0  0  0  0  0  0
    1.4289   -1.8971    0.0000 C   0  0  0  0  0  0  0  0  0  0  0  0
   -5.0012   -4.7846    0.0000 C   0  0  0  0  0  0  0  0  0  0  0  0
   -2.1433   -4.7846    0.0000 C   0  0  0  0  0  0  0  0  0  0  0  0
    2.1433   -2.3096    0.0000 C   0  0  2  0  0  0  0  0  0  0  0  0
   -1.4289   -4.3721    0.0000 C   0  0  0  0  0  0  0  0  0  0  0  0
   -3.5723   -5.6096    0.0000 C   0  0  0  0  0  0  0  0  0  0  0  0
    2.8579    0.5778    0.0000 C   0  0  0  0  0  0  0  0  0  0  0  0
    2.1433   -0.6596    0.0000 C   0  0  0  0  0  0  0  0  0  0  0  0
   -5.0012   -5.6096    0.0000 C   0  0  0  0  0  0  0  0  0  0  0  0
    3.5723   -0.6596    0.0000 C   0  0  0  0  0  0  0  0  0  0  0  0
    4.2868   -1.8971    0.0000 C   0  0  2  0  0  0  0  0  0  0  0  0
    4.2868   -1.0721    0.0000 C   0  0  2  0  0  0  0  0  0  0  0  0
   -4.2868   -6.0221    0.0000 C   0  0  0  0  0  0  0  0  0  0  0  0
    3.5723    0.1653    0.0000 C   0  0  0  0  0  0  0  0  0  0  0  0
    2.8579   -1.0721    0.0000 C   0  0  0  0  0  0  0  0  0  0  0  0
    2.3569   -3.1066    0.0000 C   0  0  0  0  0  0  0  0  0  0  0  0
    3.5723   -2.3096    0.0000 C   0  0  0  0  0  0  0  0  0  0  0  0
    6.0941   -3.1211    0.0000 C   0  0  2  0  0  0  0  0  0  0  0  0
    6.6775   -2.5377    0.0000 C   0  0  0  0  0  0  0  0  0  0  0  0
    5.2972   -2.9076    0.0000 C   0  0  0  0  0  0  0  0  0  0  0  0
    7.4743   -2.7512    0.0000 C   0  0  0  0  0  0  0  0  0  0  0  0
    1.7735   -3.6899    0.0000 C   0  0  0  0  0  0  0  0  0  0  0  0
    7.6878   -3.5481    0.0000 C   0  0  0  0  0  0  0  0  0  0  0  0
    8.0577   -2.1679    0.0000 C   0  0  0  0  0  0  0  0  0  0  0  0
    6.5211   -4.7148    0.0000 C   0  0  0  0  0  0  0  0  0  0  0  0
   -2.0711    6.0221    0.0000 H   0  0  0  0  0  0  0  0  0  0  0  0
   -1.5016    5.6934    0.0000 H   0  0  0  0  0  0  0  0  0  0  0  0
   -2.4860    5.4296    0.0000 H   0  0  0  0  0  0  0  0  0  0  0  0
   -7.6224    0.9568    0.0000 H   0  0  0  0  0  0  0  0  0  0  0  0
   -6.8991    1.6801    0.0000 H   0  0  0  0  0  0  0  0  0  0  0  0
   -7.6225    1.6801    0.0000 H   0  0  0  0  0  0  0  0  0  0  0  0
   -4.8583   -1.5671    0.0000 H   0  0  0  0  0  0  0  0  0  0  0  0
   -3.5723   -2.8211    0.0000 H   0  0  0  0  0  0  0  0  0  0  0  0
   -5.4442   -3.3904    0.0000 H   0  0  0  0  0  0  0  0  0  0  0  0
   -1.6276   -2.7214    0.0000 H   0  0  0  0  0  0  0  0  0  0  0  0
    0.0000   -2.5571    0.0000 H   0  0  0  0  0  0  0  0  0  0  0  0
   -1.4289   -1.3856    0.0000 H   0  0  0  0  0  0  0  0  0  0  0  0
    0.7144   -2.8211    0.0000 H   0  0  0  0  0  0  0  0  0  0  0  0
    2.4494   -1.5891    0.0000 H   0  0  0  0  0  0  0  0  0  0  0  0
    5.4453   -1.7490    0.0000 H   0  0  0  0  0  0  0  0  0  0  0  0
    6.8017   -3.7855    0.0000 H   0  0  0  0  0  0  0  0  0  0  0  0
    5.8135   -4.0504    0.0000 H   0  0  0  0  0  0  0  0  0  0  0  0
    1.6254   -4.8485    0.0000 H   0  0  0  0  0  0  0  0  0  0  0  0
    2.4811   -4.6192    0.0000 H   0  0  0  0  0  0  0  0  0  0  0  0
   -2.8501    6.1061    0.0000 H   0  0  0  0  0  0  0  0  0  0  0  0
   -8.3088    1.3022    0.0000 H   0  0  0  0  0  0  0  0  0  0  0  0
   -0.1643    5.1287    0.0000 H   0  0  0  0  0  0  0  0  0  0  0  0
    2.0839    4.6722    0.0000 H   0  0  0  0  0  0  0  0  0  0  0  0
    3.4267    4.1835    0.0000 H   0  0  0  0  0  0  0  0  0  0  0  0
   -3.2698   -4.9202    0.0000 H   0  0  0  0  0  0  0  0  0  0  0  0
   -2.9548   -6.0781    0.0000 H   0  0  0  0  0  0  0  0  0  0  0  0
   -2.8578   -6.9591    0.0000 H   0  0  0  0  0  0  0  0  0  0  0  0
   -6.5272   -5.5535    0.0000 H   0  0  0  0  0  0  0  0  0  0  0  0
    5.8070   -0.7399    0.0000 H   0  0  0  0  0  0  0  0  0  0  0  0
   -2.2855    5.5682    0.0000 H   0  0  0  0  0  0  0  0  0  0  0  0
   -0.2550    4.2599    0.0000 H   0  0  0  0  0  0  0  0  0  0  0  0
   -0.6208    3.2544    0.0000 H   0  0  0  0  0  0  0  0  0  0  0  0
   -1.9567    2.2932    0.0000 H   0  0  0  0  0  0  0  0  0  0  0  0
   -3.2995    2.7819    0.0000 H   0  0  0  0  0  0  0  0  0  0  0  0
   -0.1979    4.5834    0.0000 H   0  0  0  0  0  0  0  0  0  0  0  0
   -1.1245    6.1884    0.0000 H   0  0  0  0  0  0  0  0  0  0  0  0
   -0.1978    5.6534    0.0000 H   0  0  0  0  0  0  0  0  0  0  0  0
   -7.5378    1.1853    0.0000 H   0  0  0  0  0  0  0  0  0  0  0  0
   -0.9359    3.6297    0.0000 H   0  0  0  0  0  0  0  0  0  0  0  0
   -5.1239    1.2781    0.0000 H   0  0  0  0  0  0  0  0  0  0  0  0
   -4.8470    0.2446    0.0000 H   0  0  0  0  0  0  0  0  0  0  0  0
   -1.0197    3.3994    0.0000 H   0  0  0  0  0  0  0  0  0  0  0  0
   -6.7704   -1.6785    0.0000 H   0  0  0  0  0  0  0  0  0  0  0  0
   -5.3901   -1.3088    0.0000 H   0  0  0  0  0  0  0  0  0  0  0  0
   -4.4339    4.4637    0.0000 H   0  0  0  0  0  0  0  0  0  0  0  0
   -4.1120    2.6386    0.0000 H   0  0  0  0  0  0  0  0  0  0  0  0
   -4.7998    3.4583    0.0000 H   0  0  0  0  0  0  0  0  0  0  0  0
    0.9699    1.3584    0.0000 H   0  0  0  0  0  0  0  0  0  0  0  0
    0.1586    4.5482    0.0000 H   0  0  0  0  0  0  0  0  0  0  0  0
   -5.0606    1.0416    0.0000 H   0  0  0  0  0  0  0  0  0  0  0  0
   -6.3710    2.3520    0.0000 H   0  0  0  0  0  0  0  0  0  0  0  0
   -5.3375    2.0751    0.0000 H   0  0  0  0  0  0  0  0  0  0  0  0
    2.0646    2.2768    0.0000 H   0  0  0  0  0  0  0  0  0  0  0  0
   -8.6643   -0.9517    0.0000 H   0  0  0  0  0  0  0  0  0  0  0  0
   -7.3537   -2.2620    0.0000 H   0  0  0  0  0  0  0  0  0  0  0  0
   -8.3872   -1.9852    0.0000 H   0  0  0  0  0  0  0  0  0  0  0  0
    2.8770    2.4201    0.0000 H   0  0  0  0  0  0  0  0  0  0  0  0
    1.8233    2.2343    0.0000 H   0  0  0  0  0  0  0  0  0  0  0  0
   -5.2754   -1.4816    0.0000 H   0  0  0  0  0  0  0  0  0  0  0  0
   -4.4660    0.6813    0.0000 H   0  0  0  0  0  0  0  0  0  0  0  0
   -2.8578   -2.1041    0.0000 H   0  0  0  0  0  0  0  0  0  0  0  0
   -1.6081   -1.1756    0.0000 H   0  0  0  0  0  0  0  0  0  0  0  0
    1.6081   -1.1756    0.0000 H   0  0  0  0  0  0  0  0  0  0  0  0
   -1.2496   -1.1756    0.0000 H   0  0  0  0  0  0  0  0  0  0  0  0
   -4.0989   -2.4937    0.0000 H   0  0  0  0  0  0  0  0  0  0  0  0
   -3.7515   -3.0311    0.0000 H   0  0  0  0  0  0  0  0  0  0  0  0
   -0.5352   -3.0311    0.0000 H   0  0  0  0  0  0  0  0  0  0  0  0
   -5.8949   -4.2686    0.0000 H   0  0  0  0  0  0  0  0  0  0  0  0
    3.1318   -2.7191    0.0000 H   0  0  0  0  0  0  0  0  0  0  0  0
   -0.5352   -4.8881    0.0000 H   0  0  0  0  0  0  0  0  0  0  0  0
    1.2496   -1.1756    0.0000 H   0  0  0  0  0  0  0  0  0  0  0  0
    5.1357   -1.2457    0.0000 H   0  0  0  0  0  0  0  0  0  0  0  0
    4.1471   -0.0113    0.0000 H   0  0  0  0  0  0  0  0  0  0  0  0
   -4.2868   -7.0541    0.0000 H   0  0  0  0  0  0  0  0  0  0  0  0
    4.4660    0.6813    0.0000 H   0  0  0  0  0  0  0  0  0  0  0  0
    2.8580   -2.1041    0.0000 H   0  0  0  0  0  0  0  0  0  0  0  0
    3.3904   -3.3836    0.0000 H   0  0  0  0  0  0  0  0  0  0  0  0
    2.6338   -4.1402    0.0000 H   0  0  0  0  0  0  0  0  0  0  0  0
    7.1276   -3.3981    0.0000 H   0  0  0  0  0  0  0  0  0  0  0  0
    6.4006   -1.5042    0.0000 H   0  0  0  0  0  0  0  0  0  0  0  0
    7.4341   -1.7811    0.0000 H   0  0  0  0  0  0  0  0  0  0  0  0
    8.5078   -3.0282    0.0000 H   0  0  0  0  0  0  0  0  0  0  0  0
    6.9312   -4.3047    0.0000 H   0  0  0  0  0  0  0  0  0  0  0  0
    8.7213   -3.8251    0.0000 H   0  0  0  0  0  0  0  0  0  0  0  0
    7.9647   -4.5816    0.0000 H   0  0  0  0  0  0  0  0  0  0  0  0
    9.0912   -2.4449    0.0000 H   0  0  0  0  0  0  0  0  0  0  0  0
    7.7809   -1.1343    0.0000 H   0  0  0  0  0  0  0  0  0  0  0  0
    8.8144   -1.4114    0.0000 H   0  0  0  0  0  0  0  0  0  0  0  0
    5.7645   -5.4714    0.0000 H   0  0  0  0  0  0  0  0  0  0  0  0
    7.5546   -4.9917    0.0000 H   0  0  0  0  0  0  0  0  0  0  0  0
    6.7980   -5.7483    0.0000 H   0  0  0  0  0  0  0  0  0  0  0  0
  1 73  1  0  0  0  0
  2 93  1  0  0  0  0
  3 42  1  0  0  0  0
  3 43  1  0  0  0  0
  5131  1  0  0  0  0
  6 50  1  0  0  0  0
  6 51  1  0  0  0  0
  7 53  1  0  0  0  0
  7 56  1  0  0  0  0
  9132  1  0  0  0  0
 10 62  1  0  0  0  0
 11133  1  0  0  0  0
 12134  1  0  0  0  0
 13 58  1  0  0  0  0
 13135  1  0  0  0  0
 14 64  1  0  0  0  0
 14 71  1  0  0  0  0
 15 65  1  0  0  0  0
 15 84  1  0  0  0  0
 16 63  2  0  0  0  0
 17 68  2  0  0  0  0
 18 78  2  0  0  0  0
 19 85  1  0  0  0  0
 19136  1  0  0  0  0
 20 85  2  0  0  0  0
 21 89  1  0  0  0  0
 21137  1  0  0  0  0
 22 87  2  0  0  0  0
 23 92  1  0  0  0  0
 23138  1  0  0  0  0
 24 95  1  0  0  0  0
 24139  1  0  0  0  0
 25140  1  0  0  0  0
 26103  2  0  0  0  0
 27106  2  0  0  0  0
 28108  2  0  0  0  0
 29112  1  0  0  0  0
 29113  1  0  0  0  0
 29114  1  0  0  0  0
 30115  1  0  0  0  0
 30116  1  0  0  0  0
 30117  1  0  0  0  0
 31 60  1  0  0  0  0
 31 68  1  0  0  0  0
 31119  1  0  0  0  0
 32 63  1  0  0  0  0
 32 77  1  0  0  0  0
 32120  1  0  0  0  0
 33 75  1  0  0  0  0
 33 78  1  0  0  0  0
 33123  1  0  0  0  0
 34 76  1  0  0  0  0
 34 87  1  0  0  0  0
 34124  1  0  0  0  0
 35 90  1  0  0  0  0
 35103  1  0  0  0  0
 35125  1  0  0  0  0
 36106  1  0  0  0  0
 36126  1  0  0  0  0
 37111  1  0  0  0  0
 37127  1  0  0  0  0
 37128  1  0  0  0  0
 38108  1  0  0  0  0
 38129  1  0  0  0  0
 38130  1  0  0  0  0
 39 29  1  0  0  0  0
 39 40  1  0  0  0  0
 39 41  1  0  0  0  0
 39 45  1  6  0  0  0
 40  5  1  0  0  0  0
 40 43  1  0  0  0  0
 40141  1  1  0  0  0
 41 42  1  0  0  0  0
 41142  1  0  0  0  0
 41143  1  0  0  0  0
 42  4  1  0  0  0  0
 42144  1  1  0  0  0
 43 52  1  0  0  0  0
 43145  1  6  0  0  0
 44 30  1  0  0  0  0
 44 46  1  0  0  0  0
 44 48  1  0  0  0  0
 44 55  1  6  0  0  0
 45146  1  0  0  0  0
 45147  1  0  0  0  0
 45148  1  0  0  0  0
 46  9  1  0  0  0  0
 46 50  1  0  0  0  0
 46149  1  1  0  0  0
 47  4  1  0  0  0  0
 47 49  1  0  0  0  0
 47 53  1  0  0  0  0
 47150  1  1  0  0  0
 48 51  1  0  0  0  0
 48151  1  0  0  0  0
 48152  1  0  0  0  0
 49 11  1  0  0  0  0
 49 54  1  0  0  0  0
 49153  1  6  0  0  0
 50 57  1  0  0  0  0
 50154  1  6  0  0  0
 51  8  1  0  0  0  0
 51155  1  1  0  0  0
 52156  1  0  0  0  0
 52157  1  0  0  0  0
 52158  1  0  0  0  0
 53 10  1  0  0  0  0
 53159  1  6  0  0  0
 54 12  1  0  0  0  0
 54 56  1  0  0  0  0
 54160  1  1  0  0  0
 55161  1  0  0  0  0
 55162  1  0  0  0  0
 55163  1  0  0  0  0
 56 58  1  0  0  0  0
 56164  1  6  0  0  0
 57165  1  0  0  0  0
 57166  1  0  0  0  0
 57167  1  0  0  0  0
 58168  1  0  0  0  0
 58169  1  0  0  0  0
 59  8  1  0  0  0  0
 59 60  1  0  0  0  0
 59 61  1  0  0  0  0
 59170  1  1  0  0  0
 60 63  1  0  0  0  0
 60118  1  1  0  0  0
 61 66  2  0  0  0  0
 61 67  1  0  0  0  0
 62 64  1  0  0  0  0
 62 65  2  0  0  0  0
 64 69  2  0  0  0  0
 65 72  1  0  0  0  0
 66 73  1  0  0  0  0
 66171  1  0  0  0  0
 67 74  2  0  0  0  0
 67172  1  0  0  0  0
 68 75  1  0  0  0  0
 69 70  1  0  0  0  0
 69173  1  0  0  0  0
 70 72  2  0  0  0  0
 70 76  1  0  0  0  0
 71 73  2  0  0  0  0
 71 74  1  0  0  0  0
 72174  1  0  0  0  0
 74175  1  0  0  0  0
 75 79  1  0  0  0  0
 75121  1  1  0  0  0
 76 78  1  0  0  0  0
 76122  1  6  0  0  0
 77 80  1  0  0  0  0
 77 85  1  0  0  0  0
 77176  1  1  0  0  0
 79 82  2  0  0  0  0
 79 86  1  0  0  0  0
 80 81  2  0  0  0  0
 80 88  1  0  0  0  0
 81 83  1  0  0  0  0
 81 92  1  0  0  0  0
 82 83  1  0  0  0  0
 82177  1  0  0  0  0
 83 89  2  0  0  0  0
 84 93  2  0  0  0  0
 84 94  1  0  0  0  0
 86 91  2  0  0  0  0
 86178  1  0  0  0  0
 87 90  1  0  0  0  0
 88 95  2  0  0  0  0
 88179  1  0  0  0  0
 89 91  1  0  0  0  0
 90102  1  0  0  0  0
 90180  1  6  0  0  0
 91181  1  0  0  0  0
 92 99  2  0  0  0  0
 93100  1  0  0  0  0
 94101  2  0  0  0  0
 94182  1  0  0  0  0
 95 99  1  0  0  0  0
 96 98  1  0  0  0  0
 96100  2  0  0  0  0
 96101  1  0  0  0  0
 97 36  1  0  0  0  0
 97 98  1  0  0  0  0
 97103  1  0  0  0  0
 97183  1  6  0  0  0
 98 25  1  0  0  0  0
 98184  1  6  0  0  0
 99185  1  0  0  0  0
100186  1  0  0  0  0
101187  1  0  0  0  0
102108  1  0  0  0  0
102188  1  0  0  0  0
102189  1  0  0  0  0
104 37  1  0  0  0  0
104105  1  0  0  0  0
104106  1  0  0  0  0
104190  1  6  0  0  0
105107  1  0  0  0  0
105191  1  0  0  0  0
105192  1  0  0  0  0
107109  1  0  0  0  0
107110  1  0  0  0  0
107193  1  0  0  0  0
109194  1  0  0  0  0
109195  1  0  0  0  0
109196  1  0  0  0  0
110197  1  0  0  0  0
110198  1  0  0  0  0
110199  1  0  0  0  0
111200  1  0  0  0  0
111201  1  0  0  0  0
111202  1  0  0  0  0
M  CHG  3  29   1  30   1  37   1
M  END
>  <DRUGBANK_ID>
DB04431

>  <SECONDARY_ACCESSION_NUMBERS>
EXPT03218

>  <COMMON_NAME>
4-epi-vancosaminyl derivative of vancomycin

$$$$
