
 OpenBabel10282417072D

 40 40  0  0  0  0  0  0  0  0999 V2000
   -0.1787   -0.3609    0.0000 O   0  0  0  0  0  0  0  0  0  0  0  0
   -1.0877   -1.0213    0.0000 O   0  0  0  0  0  0  0  0  0  0  0  0
    2.4450    1.0401    0.0000 O   0  0  0  0  0  0  0  0  0  0  0  0
    1.4889    2.1020    0.0000 O   0  0  0  0  0  0  0  0  0  0  0  0
    2.9596   -1.3805    0.0000 O   0  0  0  0  0  0  0  0  0  0  0  0
    1.5619   -1.6776    0.0000 O   0  0  0  0  0  0  0  0  0  0  0  0
   -1.8022    0.2160    0.0000 N   0  0  0  0  0  0  0  0  0  0  0  0
    0.2628    0.9980    0.0000 N   0  0  0  0  0  0  0  0  0  0  0  0
   -2.5167   -1.8463    0.0000 N   0  0  0  0  0  0  0  0  0  0  0  0
   -1.1348    0.7009    0.0000 C   0  0  1  0  0  0  0  0  0  0  0  0
   -1.3897    1.4855    0.0000 C   0  0  0  0  0  0  0  0  0  0  0  0
   -2.2146    1.4855    0.0000 C   0  0  0  0  0  0  0  0  0  0  0  0
   -2.4696    0.7009    0.0000 C   0  0  0  0  0  0  0  0  0  0  0  0
   -0.3502    0.4460    0.0000 C   0  0  0  0  0  0  0  0  0  0  0  0
   -1.8022   -0.6089    0.0000 C   0  0  0  0  0  0  0  0  0  0  0  0
    1.0473    0.7431    0.0000 C   0  0  1  0  0  0  0  0  0  0  0  0
    1.2188   -0.0637    0.0000 C   0  0  0  0  0  0  0  0  0  0  0  0
   -2.5167   -1.0213    0.0000 C   0  0  0  0  0  0  0  0  0  0  0  0
    2.0034   -0.3187    0.0000 C   0  0  0  0  0  0  0  0  0  0  0  0
    1.6604    1.2951    0.0000 C   0  0  0  0  0  0  0  0  0  0  0  0
    2.1750   -1.1256    0.0000 C   0  0  0  0  0  0  0  0  0  0  0  0
    0.1564    1.4983    0.0000 H   0  0  0  0  0  0  0  0  0  0  0  0
   -2.0737   -2.1020    0.0000 H   0  0  0  0  0  0  0  0  0  0  0  0
   -2.9596   -2.1020    0.0000 H   0  0  0  0  0  0  0  0  0  0  0  0
    2.6397    0.1236    0.0000 H   0  0  0  0  0  0  0  0  0  0  0  0
    3.1544   -2.2970    0.0000 H   0  0  0  0  0  0  0  0  0  0  0  0
   -0.9674   -0.3559    0.0000 H   0  0  0  0  0  0  0  0  0  0  0  0
   -0.7608    2.3511    0.0000 H   0  0  0  0  0  0  0  0  0  0  0  0
   -1.8755    2.4389    0.0000 H   0  0  0  0  0  0  0  0  0  0  0  0
   -2.8435    2.3512    0.0000 H   0  0  0  0  0  0  0  0  0  0  0  0
   -3.2714    1.3182    0.0000 H   0  0  0  0  0  0  0  0  0  0  0  0
   -3.4872    0.3703    0.0000 H   0  0  0  0  0  0  0  0  0  0  0  0
   -3.2262    1.4575    0.0000 H   0  0  0  0  0  0  0  0  0  0  0  0
    0.2521    0.0271    0.0000 H   0  0  0  0  0  0  0  0  0  0  0  0
    0.4236   -0.7796    0.0000 H   0  0  0  0  0  0  0  0  0  0  0  0
    1.4412   -1.1103    0.0000 H   0  0  0  0  0  0  0  0  0  0  0  0
   -3.4433   -0.4862    0.0000 H   0  0  0  0  0  0  0  0  0  0  0  0
   -2.5166    0.0487    0.0000 H   0  0  0  0  0  0  0  0  0  0  0  0
    2.7986    0.3973    0.0000 H   0  0  0  0  0  0  0  0  0  0  0  0
    3.0210   -0.6493    0.0000 H   0  0  0  0  0  0  0  0  0  0  0  0
  1 14  2  0  0  0  0
  2 15  2  0  0  0  0
  3 20  1  0  0  0  0
  3 25  1  0  0  0  0
  4 20  2  0  0  0  0
  5 21  1  0  0  0  0
  5 26  1  0  0  0  0
  6 21  2  0  0  0  0
  7 10  1  0  0  0  0
  7 13  1  0  0  0  0
  7 15  1  0  0  0  0
  8 14  1  0  0  0  0
  8 22  1  0  0  0  0
  9 18  1  0  0  0  0
  9 23  1  0  0  0  0
  9 24  1  0  0  0  0
 10 11  1  0  0  0  0
 10 14  1  0  0  0  0
 10 27  1  6  0  0  0
 11 12  1  0  0  0  0
 11 28  1  0  0  0  0
 11 29  1  0  0  0  0
 12 13  1  0  0  0  0
 12 30  1  0  0  0  0
 12 31  1  0  0  0  0
 13 32  1  0  0  0  0
 13 33  1  0  0  0  0
 15 18  1  0  0  0  0
 16  8  1  0  0  0  0
 16 17  1  0  0  0  0
 16 20  1  0  0  0  0
 16 34  1  1  0  0  0
 17 19  1  0  0  0  0
 17 35  1  0  0  0  0
 17 36  1  0  0  0  0
 18 37  1  0  0  0  0
 18 38  1  0  0  0  0
 19 21  1  0  0  0  0
 19 39  1  0  0  0  0
 19 40  1  0  0  0  0
M  END
>  <DRUGBANK_ID>
DB05633

>  <COMMON_NAME>
Glypromate

>  <CAS_NUMBER>
32302-76-4

>  <UNII>
ZYK4RVV5LS

>  <SYNONYMS>
Gly-pro-glu; Glycyl-prolyl-glutamic acid; GPE

$$$$
