
 OpenBabel10282417072D

 20 20  0  0  0  0  0  0  0  0999 V2000
    0.7120    1.1579    0.0000 C   0  0  0  0  0  0  0  0  0  0  0  0
    0.0010    1.5846    0.0000 C   0  0  0  0  0  0  0  0  0  0  0  0
   -0.7099    1.1579    0.0000 C   0  0  0  0  0  0  0  0  0  0  0  0
   -0.7099    0.3580    0.0000 C   0  0  0  0  0  0  0  0  0  0  0  0
    0.0010   -0.0863    0.0000 C   0  0  0  0  0  0  0  0  0  0  0  0
    0.7120    0.3580    0.0000 C   0  0  0  0  0  0  0  0  0  0  0  0
    1.4231    1.5668    0.0000 O   0  0  0  0  0  0  0  0  0  0  0  0
    1.4231   -0.0508    0.0000 O   0  0  0  0  0  0  0  0  0  0  0  0
   -1.4210   -0.0508    0.0000 N   0  3  0  0  0  0  0  0  0  0  0  0
   -2.1320    0.3580    0.0000 O   0  5  0  0  0  0  0  0  0  0  0  0
   -1.4387   -0.8685    0.0000 O   0  0  0  0  0  0  0  0  0  0  0  0
    1.4205   -0.8758    0.0000 S   0  0  0  0  0  0  0  0  0  0  0  0
    2.1320   -1.2910    0.0000 O   0  0  0  0  0  0  0  0  0  0  0  0
    1.0077   -1.5846    0.0000 O   0  0  0  0  0  0  0  0  0  0  0  0
    0.6004   -0.8726    0.0000 O   0  0  0  0  0  0  0  0  0  0  0  0
    0.0010    2.6166    0.0000 H   0  0  0  0  0  0  0  0  0  0  0  0
   -1.6080    1.6663    0.0000 H   0  0  0  0  0  0  0  0  0  0  0  0
    0.0010   -1.1183    0.0000 H   0  0  0  0  0  0  0  0  0  0  0  0
    2.2337    1.0969    0.0000 H   0  0  0  0  0  0  0  0  0  0  0  0
    2.1275   -2.2610    0.0000 H   0  0  0  0  0  0  0  0  0  0  0  0
  2  1  2  0  0  0  0
  2 16  1  0  0  0  0
  3  2  1  0  0  0  0
  3 17  1  0  0  0  0
  4  3  2  0  0  0  0
  5  4  1  0  0  0  0
  5 18  1  0  0  0  0
  6  1  1  0  0  0  0
  6  5  2  0  0  0  0
  7  1  1  0  0  0  0
  7 19  1  0  0  0  0
  8  6  1  0  0  0  0
  8 12  1  0  0  0  0
  9  4  1  0  0  0  0
 10  9  1  0  0  0  0
 11  9  2  0  0  0  0
 12 13  1  0  0  0  0
 13 20  1  0  0  0  0
 14 12  2  0  0  0  0
 15 12  2  0  0  0  0
M  CHG  2   9   1  10  -1
M  END
>  <DRUGBANK_ID>
DB01800

>  <SECONDARY_ACCESSION_NUMBERS>
EXPT01034

>  <COMMON_NAME>
4-Nitrocatechol sulfate

>  <CAS_NUMBER>
10485-66-2

>  <UNII>
HD9MHQ536A

>  <SYNONYMS>
2-hydroxy-5-nitrophenyl hydrogen sulfate; 2-Hydroxy-5-nitrophenyl sulfate; p-Nitrocatechol sulfate; para-Nitrocatechol sulfate

$$$$
