AAP
 OpenBabel10282417072D

 39 40  0  0  0  0  0  0  0  0999 V2000
    1.0631   -0.1060    0.0000 C   0  0  0  0  0  0  0  0  0  0  0  0
    0.3486   -0.5185    0.0000 C   0  0  2  0  0  0  0  0  0  0  0  0
    1.7776   -0.5185    0.0000 O   0  0  0  0  0  0  0  0  0  0  0  0
    1.0631    0.7190    0.0000 N   0  0  0  0  0  0  0  0  0  0  0  0
    0.3486   -1.3435    0.0000 C   0  0  0  0  0  0  0  0  0  0  0  0
    1.0631   -1.7560    0.0000 C   0  0  0  0  0  0  0  0  0  0  0  0
    1.0631   -2.5810    0.0000 C   0  0  0  0  0  0  0  0  0  0  0  0
    0.3486   -2.9935    0.0000 C   0  0  0  0  0  0  0  0  0  0  0  0
   -0.3658   -2.5810    0.0000 C   0  0  0  0  0  0  0  0  0  0  0  0
   -0.3658   -1.7560    0.0000 C   0  0  0  0  0  0  0  0  0  0  0  0
    1.7776   -1.3435    0.0000 Cl  0  0  0  0  0  0  0  0  0  0  0  0
   -1.0803   -1.3435    0.0000 Cl  0  0  0  0  0  0  0  0  0  0  0  0
   -0.3658   -0.1060    0.0000 N   0  0  0  0  0  0  0  0  0  0  0  0
   -0.3658    0.7190    0.0000 C   0  0  0  0  0  0  0  0  0  0  0  0
   -1.0803    1.1315    0.0000 C   0  0  0  0  0  0  0  0  0  0  0  0
   -1.0803    1.9565    0.0000 C   0  0  0  0  0  0  0  0  0  0  0  0
   -0.3658    2.3690    0.0000 C   0  0  0  0  0  0  0  0  0  0  0  0
    0.3486    1.9565    0.0000 C   0  0  0  0  0  0  0  0  0  0  0  0
    0.3486    1.1315    0.0000 C   0  0  0  0  0  0  0  0  0  0  0  0
   -1.7948    0.7190    0.0000 C   0  0  0  0  0  0  0  0  0  0  0  0
   -2.5093    1.1315    0.0000 O   0  0  0  0  0  0  0  0  0  0  0  0
   -1.7948   -0.1060    0.0000 C   0  0  0  0  0  0  0  0  0  0  0  0
    1.0631    2.3690    0.0000 C   0  0  0  0  0  0  0  0  0  0  0  0
    0.8543   -0.8105    0.0000 H   0  0  0  0  0  0  0  0  0  0  0  0
    1.9157    1.2113    0.0000 H   0  0  0  0  0  0  0  0  0  0  0  0
    0.2105    1.2112    0.0000 H   0  0  0  0  0  0  0  0  0  0  0  0
    1.9568   -3.0970    0.0000 H   0  0  0  0  0  0  0  0  0  0  0  0
    0.3486   -4.0255    0.0000 H   0  0  0  0  0  0  0  0  0  0  0  0
   -1.2595   -3.0970    0.0000 H   0  0  0  0  0  0  0  0  0  0  0  0
   -1.2184   -0.5982    0.0000 H   0  0  0  0  0  0  0  0  0  0  0  0
   -1.9740    2.4725    0.0000 H   0  0  0  0  0  0  0  0  0  0  0  0
   -0.3658    3.4010    0.0000 H   0  0  0  0  0  0  0  0  0  0  0  0
    1.2423    0.6155    0.0000 H   0  0  0  0  0  0  0  0  0  0  0  0
   -2.7214   -0.6410    0.0000 H   0  0  0  0  0  0  0  0  0  0  0  0
   -0.8682   -0.6410    0.0000 H   0  0  0  0  0  0  0  0  0  0  0  0
   -1.7948   -1.1760    0.0000 H   0  0  0  0  0  0  0  0  0  0  0  0
    1.9897    1.8340    0.0000 H   0  0  0  0  0  0  0  0  0  0  0  0
    1.0631    3.4390    0.0000 H   0  0  0  0  0  0  0  0  0  0  0  0
    1.9898    2.9040    0.0000 H   0  0  0  0  0  0  0  0  0  0  0  0
  1  2  1  0  0  0  0
  1  3  2  0  0  0  0
  1  4  1  0  0  0  0
  2  5  1  0  0  0  0
  2 13  1  0  0  0  0
  2 24  1  1  0  0  0
  4 25  1  0  0  0  0
  4 26  1  0  0  0  0
  5  6  2  0  0  0  0
  5 10  1  0  0  0  0
  6  7  1  0  0  0  0
  6 11  1  0  0  0  0
  7  8  2  0  0  0  0
  7 27  1  0  0  0  0
  8  9  1  0  0  0  0
  8 28  1  0  0  0  0
  9 10  2  0  0  0  0
  9 29  1  0  0  0  0
 10 12  1  0  0  0  0
 13 14  1  0  0  0  0
 13 30  1  0  0  0  0
 14 15  2  0  0  0  0
 14 19  1  0  0  0  0
 15 16  1  0  0  0  0
 15 20  1  0  0  0  0
 16 17  2  0  0  0  0
 16 31  1  0  0  0  0
 17 18  1  0  0  0  0
 17 32  1  0  0  0  0
 18 19  2  0  0  0  0
 18 23  1  0  0  0  0
 19 33  1  0  0  0  0
 20 21  2  0  0  0  0
 20 22  1  0  0  0  0
 22 34  1  0  0  0  0
 22 35  1  0  0  0  0
 22 36  1  0  0  0  0
 23 37  1  0  0  0  0
 23 38  1  0  0  0  0
 23 39  1  0  0  0  0
M  END
>  <DRUGBANK_ID>
DB07332

>  <COMMON_NAME>
ALPHA-(2,6-DICHLOROPHENYL)-ALPHA-(2-ACETYL-5-METHYLANILINO)ACETAMIDE

$$$$
