
 OpenBabel10282417072D

 31 32  0  0  0  0  0  0  0  0999 V2000
    1.0326   -5.6833    0.0000 C   0  0  0  0  0  0  0  0  0  0  0  0
    0.7776   -6.4679    0.0000 C   0  0  0  0  0  0  0  0  0  0  0  0
   -0.0474   -6.4679    0.0000 C   0  0  0  0  0  0  0  0  0  0  0  0
   -0.3023   -5.6833    0.0000 O   0  0  0  0  0  0  0  0  0  0  0  0
    0.3651   -5.1984    0.0000 C   0  0  0  0  0  0  0  0  0  0  0  0
    0.3651   -4.3734    0.0000 C   0  0  0  0  0  0  0  0  0  0  0  0
    1.0796   -3.9609    0.0000 C   0  0  0  0  0  0  0  0  0  0  0  0
    1.0796   -3.1359    0.0000 C   0  0  0  0  0  0  0  0  0  0  0  0
    1.7941   -2.7234    0.0000 N   0  0  0  0  0  0  0  0  0  0  0  0
    1.7941   -1.8984    0.0000 N   0  0  0  0  0  0  0  0  0  0  0  0
    2.5086   -1.4859    0.0000 C   0  0  0  0  0  0  0  0  0  0  0  0
    3.2230   -1.8984    0.0000 O   0  0  0  0  0  0  0  0  0  0  0  0
    2.5086   -0.6609    0.0000 C   0  0  0  0  0  0  0  0  0  0  0  0
    1.8411   -0.1759    0.0000 C   0  0  0  0  0  0  0  0  0  0  0  0
    2.0961    0.6087    0.0000 C   0  0  0  0  0  0  0  0  0  0  0  0
    2.9211    0.6087    0.0000 C   0  0  0  0  0  0  0  0  0  0  0  0
    3.1760   -0.1759    0.0000 S   0  0  0  0  0  0  0  0  0  0  0  0
    3.4060    1.2761    0.0000 N   0  3  0  0  0  0  0  0  0  0  0  0
    3.0704    2.0298    0.0000 O   0  0  0  0  0  0  0  0  0  0  0  0
    4.2265    1.1899    0.0000 O   0  5  0  0  0  0  0  0  0  0  0  0
   -0.5323   -7.1353    0.0000 N   0  3  0  0  0  0  0  0  0  0  0  0
   -0.1967   -7.8890    0.0000 O   0  0  0  0  0  0  0  0  0  0  0  0
   -1.3528   -7.0491    0.0000 O   0  5  0  0  0  0  0  0  0  0  0  0
    2.0141   -5.3644    0.0000 H   0  0  0  0  0  0  0  0  0  0  0  0
    1.3842   -7.3028    0.0000 H   0  0  0  0  0  0  0  0  0  0  0  0
   -0.5286   -3.8574    0.0000 H   0  0  0  0  0  0  0  0  0  0  0  0
    1.9733   -4.4769    0.0000 H   0  0  0  0  0  0  0  0  0  0  0  0
    0.1859   -2.6199    0.0000 H   0  0  0  0  0  0  0  0  0  0  0  0
    0.9415   -1.4061    0.0000 H   0  0  0  0  0  0  0  0  0  0  0  0
    0.8596   -0.4948    0.0000 H   0  0  0  0  0  0  0  0  0  0  0  0
    1.4895    1.4436    0.0000 H   0  0  0  0  0  0  0  0  0  0  0  0
  1  2  1  0  0  0  0
  1  5  2  0  0  0  0
  1 24  1  0  0  0  0
  2  3  2  0  0  0  0
  2 25  1  0  0  0  0
  3  4  1  0  0  0  0
  3 21  1  0  0  0  0
  4  5  1  0  0  0  0
  5  6  1  0  0  0  0
  6  7  2  0  0  0  0
  6 26  1  0  0  0  0
  7  8  1  0  0  0  0
  7 27  1  0  0  0  0
  8  9  2  0  0  0  0
  8 28  1  0  0  0  0
  9 10  1  0  0  0  0
 10 11  1  0  0  0  0
 10 29  1  0  0  0  0
 11 12  2  0  0  0  0
 11 13  1  0  0  0  0
 13 14  2  0  0  0  0
 13 17  1  0  0  0  0
 14 15  1  0  0  0  0
 14 30  1  0  0  0  0
 15 16  2  0  0  0  0
 15 31  1  0  0  0  0
 16 17  1  0  0  0  0
 16 18  1  0  0  0  0
 18 19  2  0  0  0  0
 18 20  1  0  0  0  0
 21 22  2  0  0  0  0
 21 23  1  0  0  0  0
M  CHG  4  18   1  20  -1  21   1  23  -1
M  END
>  <DRUGBANK_ID>
DB13325

>  <COMMON_NAME>
Nifurzide

>  <CAS_NUMBER>
39978-42-2

>  <UNII>
Z35R6K4C26

>  <SYNONYMS>
Nifurzide

$$$$
