45U
 OpenBabel10282417072D

 55 57  0  0  0  0  0  0  0  0999 V2000
    1.2077   -0.8018    0.0000 O   0  0  0  0  0  0  0  0  0  0  0  0
    0.4932   -1.2143    0.0000 C   0  0  0  0  0  0  0  0  0  0  0  0
    0.4932   -2.0393    0.0000 C   0  0  0  0  0  0  0  0  0  0  0  0
    1.2077   -2.4518    0.0000 O   0  0  0  0  0  0  0  0  0  0  0  0
    1.2077   -3.2768    0.0000 C   0  0  0  0  0  0  0  0  0  0  0  0
    1.8751   -3.7617    0.0000 C   0  0  0  0  0  0  0  0  0  0  0  0
    1.6202   -4.5463    0.0000 C   0  0  0  0  0  0  0  0  0  0  0  0
    0.7952   -4.5463    0.0000 C   0  0  0  0  0  0  0  0  0  0  0  0
    0.5403   -3.7617    0.0000 C   0  0  0  0  0  0  0  0  0  0  0  0
   -0.2212   -0.8018    0.0000 N   0  0  0  0  0  0  0  0  0  0  0  0
   -0.3075    0.0187    0.0000 C   0  0  1  0  0  0  0  0  0  0  0  0
   -1.1144    0.1902    0.0000 C   0  0  0  0  0  0  0  0  0  0  0  0
   -1.5269   -0.5242    0.0000 C   0  0  0  0  0  0  0  0  0  0  0  0
   -0.9749   -1.1373    0.0000 C   0  0  0  0  0  0  0  0  0  0  0  0
    0.3056    0.5707    0.0000 C   0  0  0  0  0  0  0  0  0  0  0  0
    1.0902    0.3158    0.0000 O   0  0  0  0  0  0  0  0  0  0  0  0
    0.1341    1.3777    0.0000 N   0  0  0  0  0  0  0  0  0  0  0  0
    0.7472    1.9297    0.0000 C   0  0  0  0  0  0  0  0  0  0  0  0
    0.5757    2.7367    0.0000 C   0  0  0  0  0  0  0  0  0  0  0  0
    1.1888    3.2887    0.0000 C   0  0  0  0  0  0  0  0  0  0  0  0
    1.0172    4.0957    0.0000 C   0  0  0  0  0  0  0  0  0  0  0  0
    0.2326    4.3506    0.0000 C   0  0  0  0  0  0  0  0  0  0  0  0
    0.0611    5.1576    0.0000 C   0  0  0  0  0  0  0  0  0  0  0  0
   -0.7235    5.4126    0.0000 N   0  0  0  0  0  0  0  0  0  0  0  0
    0.6742    5.7097    0.0000 N   0  0  0  0  0  0  0  0  0  0  0  0
   -0.3805    3.7986    0.0000 C   0  0  0  0  0  0  0  0  0  0  0  0
   -0.2090    2.9916    0.0000 C   0  0  0  0  0  0  0  0  0  0  0  0
    0.2377   -0.1906    0.0000 H   0  0  0  0  0  0  0  0  0  0  0  0
   -0.4334   -2.5743    0.0000 H   0  0  0  0  0  0  0  0  0  0  0  0
    0.4932   -3.1093    0.0000 H   0  0  0  0  0  0  0  0  0  0  0  0
    1.2077   -4.3468    0.0000 H   0  0  0  0  0  0  0  0  0  0  0  0
    2.8927   -3.4310    0.0000 H   0  0  0  0  0  0  0  0  0  0  0  0
    2.6317   -4.5183    0.0000 H   0  0  0  0  0  0  0  0  0  0  0  0
    2.2491   -5.4119    0.0000 H   0  0  0  0  0  0  0  0  0  0  0  0
    1.1344   -5.4997    0.0000 H   0  0  0  0  0  0  0  0  0  0  0  0
    0.1663   -5.4119    0.0000 H   0  0  0  0  0  0  0  0  0  0  0  0
   -0.2616   -4.3789    0.0000 H   0  0  0  0  0  0  0  0  0  0  0  0
   -0.4773   -3.4310    0.0000 H   0  0  0  0  0  0  0  0  0  0  0  0
   -0.2163   -4.5183    0.0000 H   0  0  0  0  0  0  0  0  0  0  0  0
   -1.5496    1.1677    0.0000 H   0  0  0  0  0  0  0  0  0  0  0  0
   -0.4410    1.0217    0.0000 H   0  0  0  0  0  0  0  0  0  0  0  0
   -2.5910   -0.6360    0.0000 H   0  0  0  0  0  0  0  0  0  0  0  0
   -1.9104   -1.5231    0.0000 H   0  0  0  0  0  0  0  0  0  0  0  0
   -1.1974   -2.1839    0.0000 H   0  0  0  0  0  0  0  0  0  0  0  0
   -0.1434   -1.8107    0.0000 H   0  0  0  0  0  0  0  0  0  0  0  0
   -0.8022    1.6820    0.0000 H   0  0  0  0  0  0  0  0  0  0  0  0
    1.7648    1.5990    0.0000 H   0  0  0  0  0  0  0  0  0  0  0  0
    1.5424    2.6456    0.0000 H   0  0  0  0  0  0  0  0  0  0  0  0
    2.1703    2.9698    0.0000 H   0  0  0  0  0  0  0  0  0  0  0  0
    1.7841    4.7863    0.0000 H   0  0  0  0  0  0  0  0  0  0  0  0
   -0.9281    6.3756    0.0000 H   0  0  0  0  0  0  0  0  0  0  0  0
   -1.4552    4.7539    0.0000 H   0  0  0  0  0  0  0  0  0  0  0  0
    1.6105    5.4055    0.0000 H   0  0  0  0  0  0  0  0  0  0  0  0
   -1.3620    4.1175    0.0000 H   0  0  0  0  0  0  0  0  0  0  0  0
   -0.9759    2.3010    0.0000 H   0  0  0  0  0  0  0  0  0  0  0  0
  2  1  2  0  0  0  0
  2  3  1  0  0  0  0
  3  4  1  0  0  0  0
  3 29  1  0  0  0  0
  3 30  1  0  0  0  0
  4  5  1  0  0  0  0
  5  6  1  0  0  0  0
  5 31  1  0  0  0  0
  6  7  1  0  0  0  0
  6 32  1  0  0  0  0
  6 33  1  0  0  0  0
  7 34  1  0  0  0  0
  7 35  1  0  0  0  0
  8  7  1  0  0  0  0
  8 36  1  0  0  0  0
  8 37  1  0  0  0  0
  9  5  1  0  0  0  0
  9  8  1  0  0  0  0
  9 38  1  0  0  0  0
  9 39  1  0  0  0  0
 10  2  1  0  0  0  0
 11 10  1  0  0  0  0
 11 28  1  6  0  0  0
 11 15  1  0  0  0  0
 12 13  1  0  0  0  0
 12 11  1  0  0  0  0
 12 40  1  0  0  0  0
 12 41  1  0  0  0  0
 13 14  1  0  0  0  0
 13 42  1  0  0  0  0
 13 43  1  0  0  0  0
 14 10  1  0  0  0  0
 14 44  1  0  0  0  0
 14 45  1  0  0  0  0
 15 16  2  0  0  0  0
 17 15  1  0  0  0  0
 17 46  1  0  0  0  0
 18 17  1  0  0  0  0
 18 19  1  0  0  0  0
 18 47  1  0  0  0  0
 18 48  1  0  0  0  0
 19 27  1  0  0  0  0
 20 19  2  0  0  0  0
 20 21  1  0  0  0  0
 20 49  1  0  0  0  0
 21 22  2  0  0  0  0
 21 50  1  0  0  0  0
 22 26  1  0  0  0  0
 22 23  1  0  0  0  0
 23 25  2  0  0  0  0
 24 23  1  0  0  0  0
 24 51  1  0  0  0  0
 24 52  1  0  0  0  0
 25 53  1  0  0  0  0
 26 54  1  0  0  0  0
 27 26  2  0  0  0  0
 27 55  1  0  0  0  0
M  END
>  <DRUGBANK_ID>
DB07088

>  <COMMON_NAME>
(S)-N-(4-carbamimidoylbenzyl)-1-(2-(cyclopentyloxy)ethanoyl)pyrrolidine-2-carboxamide

$$$$
