
 OpenBabel10282417072D

 30 30  0  0  0  0  0  0  0  0999 V2000
   -2.8579   -2.4750    0.0000 O   0  0  0  0  0  0  0  0  0  0  0  0
   -2.1434   -2.0625    0.0000 S   0  0  0  0  0  0  0  0  0  0  0  0
   -1.7309   -2.7770    0.0000 O   0  0  0  0  0  0  0  0  0  0  0  0
   -2.5559   -1.3480    0.0000 O   0  0  0  0  0  0  0  0  0  0  0  0
   -1.4289   -1.6500    0.0000 C   0  0  0  0  0  0  0  0  0  0  0  0
   -0.7145   -2.0625    0.0000 C   0  0  0  0  0  0  0  0  0  0  0  0
    0.0000   -1.6500    0.0000 N   0  0  0  0  0  0  0  0  0  0  0  0
    0.7145   -2.0625    0.0000 C   0  0  0  0  0  0  0  0  0  0  0  0
    1.4289   -1.6500    0.0000 C   0  0  0  0  0  0  0  0  0  0  0  0
    2.1434   -2.0625    0.0000 C   0  0  0  0  0  0  0  0  0  0  0  0
    2.1434   -2.8875    0.0000 C   0  0  0  0  0  0  0  0  0  0  0  0
    1.4289   -3.3000    0.0000 C   0  0  0  0  0  0  0  0  0  0  0  0
    0.7145   -2.8875    0.0000 C   0  0  0  0  0  0  0  0  0  0  0  0
   -3.6979   -1.9900    0.0000 H   0  0  0  0  0  0  0  0  0  0  0  0
   -1.4289   -0.5800    0.0000 H   0  0  0  0  0  0  0  0  0  0  0  0
   -0.5022   -1.1150    0.0000 H   0  0  0  0  0  0  0  0  0  0  0  0
   -0.7145   -3.1325    0.0000 H   0  0  0  0  0  0  0  0  0  0  0  0
    0.2121   -2.5975    0.0000 H   0  0  0  0  0  0  0  0  0  0  0  0
    0.0000   -0.6300    0.0000 H   0  0  0  0  0  0  0  0  0  0  0  0
    1.6412   -2.5975    0.0000 H   0  0  0  0  0  0  0  0  0  0  0  0
    1.4289   -0.5800    0.0000 H   0  0  0  0  0  0  0  0  0  0  0  0
    2.3555   -1.1150    0.0000 H   0  0  0  0  0  0  0  0  0  0  0  0
    3.0700   -1.5275    0.0000 H   0  0  0  0  0  0  0  0  0  0  0  0
    3.0700   -2.5975    0.0000 H   0  0  0  0  0  0  0  0  0  0  0  0
    3.0700   -3.4225    0.0000 H   0  0  0  0  0  0  0  0  0  0  0  0
    2.1434   -3.9575    0.0000 H   0  0  0  0  0  0  0  0  0  0  0  0
    1.4289   -4.3700    0.0000 H   0  0  0  0  0  0  0  0  0  0  0  0
    0.5022   -3.8350    0.0000 H   0  0  0  0  0  0  0  0  0  0  0  0
   -0.2122   -3.4225    0.0000 H   0  0  0  0  0  0  0  0  0  0  0  0
   -0.2121   -2.3525    0.0000 H   0  0  0  0  0  0  0  0  0  0  0  0
  1  2  1  0  0  0  0
  1 14  1  0  0  0  0
  2  3  2  0  0  0  0
  2  4  2  0  0  0  0
  2  5  1  0  0  0  0
  5  6  1  0  0  0  0
  5 15  1  0  0  0  0
  5 16  1  0  0  0  0
  6  7  1  0  0  0  0
  6 17  1  0  0  0  0
  6 18  1  0  0  0  0
  7  8  1  0  0  0  0
  7 19  1  0  0  0  0
  8  9  1  0  0  0  0
  8 13  1  0  0  0  0
  8 20  1  0  0  0  0
  9 10  1  0  0  0  0
  9 21  1  0  0  0  0
  9 22  1  0  0  0  0
 10 11  1  0  0  0  0
 10 23  1  0  0  0  0
 10 24  1  0  0  0  0
 11 12  1  0  0  0  0
 11 25  1  0  0  0  0
 11 26  1  0  0  0  0
 12 13  1  0  0  0  0
 12 27  1  0  0  0  0
 12 28  1  0  0  0  0
 13 29  1  0  0  0  0
 13 30  1  0  0  0  0
M  END
>  <DRUGBANK_ID>
DB03309

>  <SECONDARY_ACCESSION_NUMBERS>
EXPT02344

>  <COMMON_NAME>
N-cyclohexyltaurine

>  <CAS_NUMBER>
103-47-9

>  <UNII>
71X53V3RZ1

>  <SYNONYMS>
2-(cyclohexylamino)ethanesulfonic acid; CHES

$$$$
