
 OpenBabel10282417072D

 61 66  0  0  0  0  0  0  0  0999 V2000
   -3.4566    1.4280    0.0000 C   0  0  0  0  0  0  0  0  0  0  0  0
   -3.5305    0.6063    0.0000 C   0  0  0  0  0  0  0  0  0  0  0  0
   -2.7081    1.7749    0.0000 C   0  0  0  0  0  0  0  0  0  0  0  0
    1.7887   -1.6977    0.0000 C   0  0  0  0  0  0  0  0  0  0  0  0
    1.2503   -2.3229    0.0000 C   0  0  0  0  0  0  0  0  0  0  0  0
   -2.9297   -0.6901    0.0000 C   0  0  0  0  0  0  0  0  0  0  0  0
   -2.2550   -1.1649    0.0000 C   0  0  0  0  0  0  0  0  0  0  0  0
    1.8959    2.0818    0.0000 C   0  0  0  0  0  0  0  0  0  0  0  0
   -1.1388    3.4194    0.0000 C   0  0  0  0  0  0  0  0  0  0  0  0
    1.3051    2.6577    0.0000 C   0  0  0  0  0  0  0  0  0  0  0  0
   -1.8544    3.0088    0.0000 C   0  0  0  0  0  0  0  0  0  0  0  0
    0.7059   -0.7653    0.0000 C   0  0  0  0  0  0  0  0  0  0  0  0
   -1.4326    0.0036    0.0000 C   0  0  0  0  0  0  0  0  0  0  0  0
   -0.0985   -2.7943    0.0000 C   0  0  0  0  0  0  0  0  0  0  0  0
    3.0070    1.6322    0.0000 C   0  0  0  0  0  0  0  0  0  0  0  0
    2.0354   -0.2775    0.0000 C   0  0  0  0  0  0  0  0  0  0  0  0
    3.0858    0.2997    0.0000 C   0  0  0  0  0  0  0  0  0  0  0  0
    1.5165   -0.9189    0.0000 C   0  0  0  0  0  0  0  0  0  0  0  0
   -2.8558    0.1315    0.0000 C   0  0  0  0  0  0  0  0  0  0  0  0
    0.4398   -2.1692    0.0000 C   0  0  2  0  0  0  0  0  0  0  0  0
    2.2388    1.3315    0.0000 C   0  0  0  0  0  0  0  0  0  0  0  0
   -1.5065   -0.8180    0.0000 C   0  0  0  0  0  0  0  0  0  0  0  0
   -2.1073    0.4784    0.0000 C   0  0  0  0  0  0  0  0  0  0  0  0
   -0.5272    2.8658    0.0000 C   0  0  1  0  0  0  0  0  0  0  0  0
   -2.0334    1.3001    0.0000 C   0  0  0  0  0  0  0  0  0  0  0  0
    0.1676   -1.3904    0.0000 C   0  0  3  0  0  0  0  0  0  0  0  0
   -0.8647    2.1130    0.0000 C   0  0  0  0  0  0  0  0  0  0  0  0
   -0.6369   -3.4194    0.0000 N   0  0  0  0  0  0  0  0  0  0  0  0
    3.5305    0.9946    0.0000 N   0  0  0  0  0  0  0  0  0  0  0  0
    0.5462    2.9812    0.0000 N   0  0  0  0  0  0  0  0  0  0  0  0
    2.2875    0.5079    0.0000 N   0  0  0  0  0  0  0  0  0  0  0  0
   -1.6849    2.2014    0.0000 N   0  0  0  0  0  0  0  0  0  0  0  0
   -0.4540    1.3975    0.0000 O   0  0  0  0  0  0  0  0  0  0  0  0
   -0.8199   -1.2755    0.0000 O   0  0  0  0  0  0  0  0  0  0  0  0
    0.7120   -2.9480    0.0000 H   0  0  0  0  0  0  0  0  0  0  0  0
   -0.0423    2.1983    0.0000 H   0  0  0  0  0  0  0  0  0  0  0  0
   -0.3480   -2.0344    0.0000 H   0  0  0  0  0  0  0  0  0  0  0  0
   -4.3006    2.0219    0.0000 H   0  0  0  0  0  0  0  0  0  0  0  0
   -4.4668    0.1724    0.0000 H   0  0  0  0  0  0  0  0  0  0  0  0
   -2.6157    2.8028    0.0000 H   0  0  0  0  0  0  0  0  0  0  0  0
    2.8026   -1.8899    0.0000 H   0  0  0  0  0  0  0  0  0  0  0  0
    1.6033   -3.3330    0.0000 H   0  0  0  0  0  0  0  0  0  0  0  0
    0.5520   -3.1337    0.0000 H   0  0  0  0  0  0  0  0  0  0  0  0
   -3.8661   -1.1240    0.0000 H   0  0  0  0  0  0  0  0  0  0  0  0
   -2.3474   -2.1928    0.0000 H   0  0  0  0  0  0  0  0  0  0  0  0
    2.7708    2.6978    0.0000 H   0  0  0  0  0  0  0  0  0  0  0  0
    2.9287    1.8022    0.0000 H   0  0  0  0  0  0  0  0  0  0  0  0
   -1.0241    4.4832    0.0000 H   0  0  0  0  0  0  0  0  0  0  0  0
   -0.1389    3.8002    0.0000 H   0  0  0  0  0  0  0  0  0  0  0  0
    1.8984    3.5481    0.0000 H   0  0  0  0  0  0  0  0  0  0  0  0
    0.9991    3.6830    0.0000 H   0  0  0  0  0  0  0  0  0  0  0  0
   -2.8308    3.4465    0.0000 H   0  0  0  0  0  0  0  0  0  0  0  0
   -2.6877    2.3376    0.0000 H   0  0  0  0  0  0  0  0  0  0  0  0
    0.3528    0.2448    0.0000 H   0  0  0  0  0  0  0  0  0  0  0  0
   -0.3454   -0.5660    0.0000 H   0  0  0  0  0  0  0  0  0  0  0  0
   -0.4962    0.4375    0.0000 H   0  0  0  0  0  0  0  0  0  0  0  0
    3.2674    2.6308    0.0000 H   0  0  0  0  0  0  0  0  0  0  0  0
    2.9768   -0.7862    0.0000 H   0  0  0  0  0  0  0  0  0  0  0  0
    3.0281    0.1218    0.0000 H   0  0  0  0  0  0  0  0  0  0  0  0
    3.4621   -0.6613    0.0000 H   0  0  0  0  0  0  0  0  0  0  0  0
    0.6965    3.9901    0.0000 H   0  0  0  0  0  0  0  0  0  0  0  0
  1 38  1  0  0  0  0
  2  1  2  0  0  0  0
  2 39  1  0  0  0  0
  3  1  1  0  0  0  0
  3 40  1  0  0  0  0
  4 41  1  0  0  0  0
  5  4  1  0  0  0  0
  5 42  1  0  0  0  0
  5 43  1  0  0  0  0
  6 44  1  0  0  0  0
  7  6  2  0  0  0  0
  7 45  1  0  0  0  0
  8 46  1  0  0  0  0
  8 47  1  0  0  0  0
  9 48  1  0  0  0  0
  9 49  1  0  0  0  0
 10  8  1  0  0  0  0
 10 50  1  0  0  0  0
 10 51  1  0  0  0  0
 11  9  1  0  0  0  0
 11 52  1  0  0  0  0
 11 53  1  0  0  0  0
 12 54  1  0  0  0  0
 12 55  1  0  0  0  0
 13 56  1  0  0  0  0
 15 57  1  0  0  0  0
 16 58  1  0  0  0  0
 16 59  1  0  0  0  0
 17 60  1  0  0  0  0
 18  4  2  0  0  0  0
 18 12  1  0  0  0  0
 18 16  1  0  0  0  0
 19  2  1  0  0  0  0
 19  6  1  0  0  0  0
 20  5  1  0  0  0  0
 20 14  1  0  0  0  0
 20 26  1  0  0  0  0
 20 35  1  1  0  0  0
 21  8  1  0  0  0  0
 21 15  2  0  0  0  0
 22  7  1  0  0  0  0
 22 13  2  0  0  0  0
 23 13  1  0  0  0  0
 23 19  2  0  0  0  0
 24  9  1  0  0  0  0
 24 27  1  0  0  0  0
 24 30  1  0  0  0  0
 24 36  1  1  0  0  0
 25  3  2  0  0  0  0
 25 23  1  0  0  0  0
 26 12  1  0  0  0  0
 28 14  3  0  0  0  0
 29 15  1  0  0  0  0
 29 17  2  0  0  0  0
 30 10  1  0  0  0  0
 30 61  1  0  0  0  0
 31 16  1  0  0  0  0
 31 17  1  0  0  0  0
 31 21  1  0  0  0  0
 32 11  1  0  0  0  0
 32 25  1  0  0  0  0
 32 27  1  0  0  0  0
 33 27  2  0  0  0  0
 34 22  1  0  0  0  0
 34 26  1  0  0  0  0
 37 26  1  0  0  0  0
M  END
>  <DRUGBANK_ID>
DB08676

>  <COMMON_NAME>
(20S)-19,20,22,23-TETRAHYDRO-19-OXO-5H,21H-18,20-ETHANO-12,14-ETHENO-6,10-METHENOBENZ[D]IMIDAZO[4,3-L][1,6,9,13]OXATRIAZACYCLONOADECOSINE-9-CARBONITRILE

$$$$
