ZAM
 OpenBabel10282417072D

 54 56  0  0  0  0  0  0  0  0999 V2000
   -1.0527    1.6779    0.0000 C   0  0  0  0  0  0  0  0  0  0  0  0
   -1.0527    3.1069    0.0000 C   0  0  0  0  0  0  0  0  0  0  0  0
   -1.0527   -1.1799    0.0000 C   0  0  0  0  0  0  0  0  0  0  0  0
    0.1848   -1.8944    0.0000 C   0  0  0  0  0  0  0  0  0  0  0  0
    0.1848   -0.4655    0.0000 C   0  0  0  0  0  0  0  0  0  0  0  0
   -2.2902    0.9635    0.0000 C   0  0  0  0  0  0  0  0  0  0  0  0
   -1.4652    0.9635    0.0000 C   0  0  0  0  0  0  0  0  0  0  0  0
   -1.0527    0.2490    0.0000 C   0  0  0  0  0  0  0  0  0  0  0  0
   -1.4652   -0.4655    0.0000 C   0  0  0  0  0  0  0  0  0  0  0  0
   -2.2902   -0.4655    0.0000 C   0  0  0  0  0  0  0  0  0  0  0  0
   -2.7027    0.2490    0.0000 C   0  0  0  0  0  0  0  0  0  0  0  0
   -2.7027    1.6779    0.0000 N   0  0  0  0  0  0  0  0  0  0  0  0
   -1.4652    2.3924    0.0000 N   0  0  0  0  0  0  0  0  0  0  0  0
   -2.2902    2.3924    0.0000 C   0  0  0  0  0  0  0  0  0  0  0  0
   -1.4652    3.8213    0.0000 O   0  0  0  0  0  0  0  0  0  0  0  0
   -0.2277    3.1069    0.0000 C   0  0  0  0  0  0  0  0  0  0  0  0
   -0.2277   -1.1799    0.0000 N   0  0  0  0  0  0  0  0  0  0  0  0
   -1.4652   -1.8944    0.0000 O   0  0  0  0  0  0  0  0  0  0  0  0
    1.0098   -1.8944    0.0000 C   0  0  0  0  0  0  0  0  0  0  0  0
    1.4947   -2.5619    0.0000 C   0  0  0  0  0  0  0  0  0  0  0  0
    2.2793   -2.3069    0.0000 C   0  0  0  0  0  0  0  0  0  0  0  0
    2.2793   -1.4819    0.0000 C   0  0  0  0  0  0  0  0  0  0  0  0
    1.4947   -1.2270    0.0000 N   0  0  0  0  0  0  0  0  0  0  0  0
    1.2397   -0.4424    0.0000 C   0  0  0  0  0  0  0  0  0  0  0  0
    2.9938   -2.7194    0.0000 C   0  0  0  0  0  0  0  0  0  0  0  0
    3.7082   -2.3069    0.0000 C   0  0  0  0  0  0  0  0  0  0  0  0
    2.9938   -1.0694    0.0000 C   0  0  0  0  0  0  0  0  0  0  0  0
    3.7082   -1.4819    0.0000 C   0  0  0  0  0  0  0  0  0  0  0  0
    0.0173    1.6779    0.0000 H   0  0  0  0  0  0  0  0  0  0  0  0
   -0.5177    2.6045    0.0000 H   0  0  0  0  0  0  0  0  0  0  0  0
   -0.3502   -2.8210    0.0000 H   0  0  0  0  0  0  0  0  0  0  0  0
    0.7198   -2.8210    0.0000 H   0  0  0  0  0  0  0  0  0  0  0  0
    1.2548   -0.4655    0.0000 H   0  0  0  0  0  0  0  0  0  0  0  0
   -0.3502    0.4612    0.0000 H   0  0  0  0  0  0  0  0  0  0  0  0
    0.7198    0.4611    0.0000 H   0  0  0  0  0  0  0  0  0  0  0  0
   -0.0207    0.2490    0.0000 H   0  0  0  0  0  0  0  0  0  0  0  0
   -2.8062   -1.3592    0.0000 H   0  0  0  0  0  0  0  0  0  0  0  0
   -3.7347    0.2490    0.0000 H   0  0  0  0  0  0  0  0  0  0  0  0
   -2.2105    2.5305    0.0000 H   0  0  0  0  0  0  0  0  0  0  0  0
   -3.6872    1.6779    0.0000 H   0  0  0  0  0  0  0  0  0  0  0  0
   -2.8252    3.3190    0.0000 H   0  0  0  0  0  0  0  0  0  0  0  0
   -2.8252    1.4658    0.0000 H   0  0  0  0  0  0  0  0  0  0  0  0
   -3.3602    2.3924    0.0000 H   0  0  0  0  0  0  0  0  0  0  0  0
    0.3073    2.1803    0.0000 H   0  0  0  0  0  0  0  0  0  0  0  0
    0.3073    4.0335    0.0000 H   0  0  0  0  0  0  0  0  0  0  0  0
    0.8423    3.1069    0.0000 H   0  0  0  0  0  0  0  0  0  0  0  0
    1.1758   -3.5434    0.0000 H   0  0  0  0  0  0  0  0  0  0  0  0
    1.9556    0.3528    0.0000 H   0  0  0  0  0  0  0  0  0  0  0  0
    0.1931   -0.2200    0.0000 H   0  0  0  0  0  0  0  0  0  0  0  0
    0.9090    0.5752    0.0000 H   0  0  0  0  0  0  0  0  0  0  0  0
    2.9938   -3.7514    0.0000 H   0  0  0  0  0  0  0  0  0  0  0  0
    4.6019   -2.8229    0.0000 H   0  0  0  0  0  0  0  0  0  0  0  0
    2.9938   -0.0374    0.0000 H   0  0  0  0  0  0  0  0  0  0  0  0
    4.6019   -0.9659    0.0000 H   0  0  0  0  0  0  0  0  0  0  0  0
  1  7  1  0  0  0  0
  1 13  1  0  0  0  0
  1 29  1  0  0  0  0
  1 30  1  0  0  0  0
  2 13  1  0  0  0  0
  2 15  2  0  0  0  0
  2 16  1  0  0  0  0
  3  9  1  0  0  0  0
  3 17  1  0  0  0  0
  3 18  2  0  0  0  0
  4 17  1  0  0  0  0
  4 19  1  0  0  0  0
  4 31  1  0  0  0  0
  4 32  1  0  0  0  0
  5 17  1  0  0  0  0
  5 33  1  0  0  0  0
  5 34  1  0  0  0  0
  5 35  1  0  0  0  0
  6  7  2  0  0  0  0
  6 11  1  0  0  0  0
  6 12  1  0  0  0  0
  7  8  1  0  0  0  0
  8  9  2  0  0  0  0
  8 36  1  0  0  0  0
  9 10  1  0  0  0  0
 10 11  2  0  0  0  0
 10 37  1  0  0  0  0
 11 38  1  0  0  0  0
 12 39  1  0  0  0  0
 12 40  1  0  0  0  0
 13 14  1  0  0  0  0
 14 41  1  0  0  0  0
 14 42  1  0  0  0  0
 14 43  1  0  0  0  0
 16 44  1  0  0  0  0
 16 45  1  0  0  0  0
 16 46  1  0  0  0  0
 19 20  2  0  0  0  0
 19 23  1  0  0  0  0
 20 21  1  0  0  0  0
 20 47  1  0  0  0  0
 21 22  2  0  0  0  0
 21 25  1  0  0  0  0
 22 23  1  0  0  0  0
 22 27  1  0  0  0  0
 23 24  1  0  0  0  0
 24 48  1  0  0  0  0
 24 49  1  0  0  0  0
 24 50  1  0  0  0  0
 25 26  2  0  0  0  0
 25 51  1  0  0  0  0
 26 28  1  0  0  0  0
 26 52  1  0  0  0  0
 27 28  2  0  0  0  0
 27 53  1  0  0  0  0
 28 54  1  0  0  0  0
M  END
>  <DRUGBANK_ID>
DB03534

>  <SECONDARY_ACCESSION_NUMBERS>
EXPT03283

>  <COMMON_NAME>
3-[(Acetyl-Methyl-Amino)-Methyl]-4-Amino-N-Methyl-N-(1-Methyl-1h-Indol-2-Ylmethyl)-Benzamide

$$$$
