
 OpenBabel10282417072D

 56 60  0  0  0  0  0  0  0  0999 V2000
    0.1536   -2.7631    0.0000 C   0  0  0  0  0  0  0  0  0  0  0  0
   -0.3984   -2.1500    0.0000 C   0  0  0  0  0  0  0  0  0  0  0  0
   -0.1435   -1.3654    0.0000 N   0  0  0  0  0  0  0  0  0  0  0  0
    0.6411   -1.1104    0.0000 C   0  0  0  0  0  0  0  0  0  0  0  0
    0.6411   -0.2854    0.0000 C   0  0  0  0  0  0  0  0  0  0  0  0
   -0.1435   -0.0305    0.0000 C   0  0  0  0  0  0  0  0  0  0  0  0
   -0.6284   -0.6979    0.0000 N   0  0  0  0  0  0  0  0  0  0  0  0
    1.3556    0.1271    0.0000 C   0  0  0  0  0  0  0  0  0  0  0  0
    2.0701   -0.2854    0.0000 C   0  0  0  0  0  0  0  0  0  0  0  0
    2.0701   -1.1104    0.0000 C   0  0  0  0  0  0  0  0  0  0  0  0
    1.3556   -1.5229    0.0000 N   0  0  0  0  0  0  0  0  0  0  0  0
    2.7845    0.1271    0.0000 C   0  0  0  0  0  0  0  0  0  0  0  0
    2.8708    0.9475    0.0000 N   0  0  0  0  0  0  0  0  0  0  0  0
    3.6777    1.1191    0.0000 N   0  0  0  0  0  0  0  0  0  0  0  0
    4.0902    0.4046    0.0000 C   0  0  0  0  0  0  0  0  0  0  0  0
    3.5382   -0.2085    0.0000 O   0  0  0  0  0  0  0  0  0  0  0  0
    4.9107    0.3184    0.0000 C   0  0  0  0  0  0  0  0  0  0  0  0
    5.3956    0.9858    0.0000 C   0  0  0  0  0  0  0  0  0  0  0  0
    5.1407    1.7704    0.0000 C   0  0  0  0  0  0  0  0  0  0  0  0
    5.8081    2.2553    0.0000 N   0  0  0  0  0  0  0  0  0  0  0  0
    6.4756    1.7704    0.0000 C   0  0  0  0  0  0  0  0  0  0  0  0
    6.2206    0.9858    0.0000 S   0  0  0  0  0  0  0  0  0  0  0  0
    7.2602    2.0254    0.0000 C   0  0  0  0  0  0  0  0  0  0  0  0
    4.3561    2.0254    0.0000 C   0  0  0  0  0  0  0  0  0  0  0  0
    1.3556    0.9521    0.0000 N   0  0  0  0  0  0  0  0  0  0  0  0
    0.6411    1.3646    0.0000 C   0  0  0  0  0  0  0  0  0  0  0  0
   -0.0734    0.9521    0.0000 C   0  0  0  0  0  0  0  0  0  0  0  0
   -0.7878    1.3646    0.0000 C   0  0  0  0  0  0  0  0  0  0  0  0
   -0.7878    2.1896    0.0000 O   0  0  0  0  0  0  0  0  0  0  0  0
   -0.0734    2.6021    0.0000 C   0  0  0  0  0  0  0  0  0  0  0  0
    0.6411    2.1896    0.0000 C   0  0  0  0  0  0  0  0  0  0  0  0
   -0.1771   -3.7807    0.0000 H   0  0  0  0  0  0  0  0  0  0  0  0
    1.2002   -2.5407    0.0000 H   0  0  0  0  0  0  0  0  0  0  0  0
    0.8695   -3.5583    0.0000 H   0  0  0  0  0  0  0  0  0  0  0  0
   -1.4450   -2.3725    0.0000 H   0  0  0  0  0  0  0  0  0  0  0  0
   -1.1144   -1.3548    0.0000 H   0  0  0  0  0  0  0  0  0  0  0  0
   -0.4624    0.9510    0.0000 H   0  0  0  0  0  0  0  0  0  0  0  0
    2.9638   -1.6264    0.0000 H   0  0  0  0  0  0  0  0  0  0  0  0
    5.3459   -0.6591    0.0000 H   0  0  0  0  0  0  0  0  0  0  0  0
    5.9748    0.2066    0.0000 H   0  0  0  0  0  0  0  0  0  0  0  0
    8.0554    1.3095    0.0000 H   0  0  0  0  0  0  0  0  0  0  0  0
    7.4826    3.0720    0.0000 H   0  0  0  0  0  0  0  0  0  0  0  0
    8.2778    2.3561    0.0000 H   0  0  0  0  0  0  0  0  0  0  0  0
    4.1337    3.0720    0.0000 H   0  0  0  0  0  0  0  0  0  0  0  0
    3.5609    1.3095    0.0000 H   0  0  0  0  0  0  0  0  0  0  0  0
    3.3385    2.3561    0.0000 H   0  0  0  0  0  0  0  0  0  0  0  0
    2.2082    1.4444    0.0000 H   0  0  0  0  0  0  0  0  0  0  0  0
   -0.2855    1.8996    0.0000 H   0  0  0  0  0  0  0  0  0  0  0  0
   -0.0734   -0.1179    0.0000 H   0  0  0  0  0  0  0  0  0  0  0  0
   -1.0001    0.4171    0.0000 H   0  0  0  0  0  0  0  0  0  0  0  0
   -1.7145    0.8296    0.0000 H   0  0  0  0  0  0  0  0  0  0  0  0
   -1.7144    1.8996    0.0000 H   0  0  0  0  0  0  0  0  0  0  0  0
   -0.0734    3.6721    0.0000 H   0  0  0  0  0  0  0  0  0  0  0  0
    0.8532    3.1371    0.0000 H   0  0  0  0  0  0  0  0  0  0  0  0
    1.5677    2.7246    0.0000 H   0  0  0  0  0  0  0  0  0  0  0  0
    1.5677    1.6546    0.0000 H   0  0  0  0  0  0  0  0  0  0  0  0
  1  2  1  0  0  0  0
  1 32  1  0  0  0  0
  1 33  1  0  0  0  0
  1 34  1  0  0  0  0
  2  3  1  0  0  0  0
  2 35  1  0  0  0  0
  2 36  1  0  0  0  0
  3  4  1  0  0  0  0
  3  7  1  0  0  0  0
  4  5  1  0  0  0  0
  4 11  2  0  0  0  0
  5  6  1  0  0  0  0
  5  8  2  0  0  0  0
  6  7  2  0  0  0  0
  6 37  1  0  0  0  0
  8  9  1  0  0  0  0
  8 25  1  0  0  0  0
  9 10  2  0  0  0  0
  9 12  1  0  0  0  0
 10 11  1  0  0  0  0
 10 38  1  0  0  0  0
 12 13  2  0  0  0  0
 12 16  1  0  0  0  0
 13 14  1  0  0  0  0
 14 15  2  0  0  0  0
 15 16  1  0  0  0  0
 15 17  1  0  0  0  0
 17 18  1  0  0  0  0
 17 39  1  0  0  0  0
 17 40  1  0  0  0  0
 18 19  2  0  0  0  0
 18 22  1  0  0  0  0
 19 20  1  0  0  0  0
 19 24  1  0  0  0  0
 20 21  2  0  0  0  0
 21 22  1  0  0  0  0
 21 23  1  0  0  0  0
 23 41  1  0  0  0  0
 23 42  1  0  0  0  0
 23 43  1  0  0  0  0
 24 44  1  0  0  0  0
 24 45  1  0  0  0  0
 24 46  1  0  0  0  0
 25 26  1  0  0  0  0
 25 47  1  0  0  0  0
 26 27  1  0  0  0  0
 26 31  1  0  0  0  0
 26 48  1  0  0  0  0
 27 28  1  0  0  0  0
 27 49  1  0  0  0  0
 27 50  1  0  0  0  0
 28 29  1  0  0  0  0
 28 51  1  0  0  0  0
 28 52  1  0  0  0  0
 29 30  1  0  0  0  0
 30 31  1  0  0  0  0
 30 53  1  0  0  0  0
 30 54  1  0  0  0  0
 31 55  1  0  0  0  0
 31 56  1  0  0  0  0
M  END
>  <DRUGBANK_ID>
DB12542

>  <COMMON_NAME>
GSK-356278

>  <CAS_NUMBER>
720704-34-7

>  <UNII>
1QTA9P992C

$$$$
