692
 OpenBabel10282417072D

 27 28  0  0  0  0  0  0  0  0999 V2000
    2.0869    0.2528    0.0000 C   0  0  0  0  0  0  0  0  0  0  0  0
    1.3724    0.6653    0.0000 N   0  0  0  0  0  0  0  0  0  0  0  0
    0.6580    0.2528    0.0000 C   0  0  0  0  0  0  0  0  0  0  0  0
   -0.0565    0.6653    0.0000 C   0  0  0  0  0  0  0  0  0  0  0  0
   -0.0565    1.4903    0.0000 C   0  0  0  0  0  0  0  0  0  0  0  0
   -0.7710    1.9028    0.0000 C   0  0  0  0  0  0  0  0  0  0  0  0
   -1.4855    1.4903    0.0000 C   0  0  0  0  0  0  0  0  0  0  0  0
   -1.4855    0.6653    0.0000 C   0  0  0  0  0  0  0  0  0  0  0  0
   -0.7710    0.2528    0.0000 C   0  0  0  0  0  0  0  0  0  0  0  0
   -0.7710   -0.5722    0.0000 C   0  0  0  0  0  0  0  0  0  0  0  0
   -1.4384   -1.0571    0.0000 C   0  0  0  0  0  0  0  0  0  0  0  0
   -1.1835   -1.8418    0.0000 C   0  0  0  0  0  0  0  0  0  0  0  0
   -0.3585   -1.8418    0.0000 C   0  0  0  0  0  0  0  0  0  0  0  0
   -0.1035   -1.0571    0.0000 S   0  0  0  0  0  0  0  0  0  0  0  0
    2.0869   -0.8172    0.0000 H   0  0  0  0  0  0  0  0  0  0  0  0
    3.0135    0.7878    0.0000 H   0  0  0  0  0  0  0  0  0  0  0  0
    3.0136   -0.2822    0.0000 H   0  0  0  0  0  0  0  0  0  0  0  0
    1.3724    1.6853    0.0000 H   0  0  0  0  0  0  0  0  0  0  0  0
    0.6580   -0.8172    0.0000 H   0  0  0  0  0  0  0  0  0  0  0  0
   -0.2686   -0.2822    0.0000 H   0  0  0  0  0  0  0  0  0  0  0  0
    0.8372    2.0063    0.0000 H   0  0  0  0  0  0  0  0  0  0  0  0
   -0.7710    2.9348    0.0000 H   0  0  0  0  0  0  0  0  0  0  0  0
   -2.3792    2.0063    0.0000 H   0  0  0  0  0  0  0  0  0  0  0  0
   -2.3792    0.1493    0.0000 H   0  0  0  0  0  0  0  0  0  0  0  0
   -2.4199   -0.7382    0.0000 H   0  0  0  0  0  0  0  0  0  0  0  0
   -1.7901   -2.6767    0.0000 H   0  0  0  0  0  0  0  0  0  0  0  0
    0.2481   -2.6767    0.0000 H   0  0  0  0  0  0  0  0  0  0  0  0
  1  2  1  0  0  0  0
  1 15  1  0  0  0  0
  1 16  1  0  0  0  0
  1 17  1  0  0  0  0
  2  3  1  0  0  0  0
  2 18  1  0  0  0  0
  3  4  1  0  0  0  0
  3 19  1  0  0  0  0
  3 20  1  0  0  0  0
  4  9  1  0  0  0  0
  5  4  2  0  0  0  0
  5  6  1  0  0  0  0
  5 21  1  0  0  0  0
  6  7  2  0  0  0  0
  6 22  1  0  0  0  0
  7  8  1  0  0  0  0
  7 23  1  0  0  0  0
  8 24  1  0  0  0  0
  9  8  2  0  0  0  0
  9 10  1  0  0  0  0
 10 14  1  0  0  0  0
 11 10  2  0  0  0  0
 11 12  1  0  0  0  0
 11 25  1  0  0  0  0
 12 13  2  0  0  0  0
 12 26  1  0  0  0  0
 13 27  1  0  0  0  0
 14 13  1  0  0  0  0
M  END
>  <DRUGBANK_ID>
DB07196

>  <COMMON_NAME>
N-methyl-1-(2-thiophen-2-ylphenyl)methanamine

>  <UNII>
JXK7BCF78O

$$$$
