
 OpenBabel10282417072D

 24 25  0  0  0  0  0  0  0  0999 V2000
    3.8167   -0.7667    0.0000 O   0  0  0  0  0  0  0  0  0  0  0  0
    3.1042   -1.1792    0.0000 C   0  0  0  0  0  0  0  0  0  0  0  0
    4.5292   -1.1750    0.0000 C   0  0  0  0  0  0  0  0  0  0  0  0
    2.3792   -0.7667    0.0000 C   0  0  0  0  0  0  0  0  0  0  0  0
    5.2375   -0.7542    0.0000 C   0  0  0  0  0  0  0  0  0  0  0  0
    1.6750   -1.1875    0.0000 C   0  0  0  0  0  0  0  0  0  0  0  0
    5.9542   -1.1625    0.0000 C   0  0  0  0  0  0  0  0  0  0  0  0
    3.1042   -2.0125    0.0000 C   0  0  0  0  0  0  0  0  0  0  0  0
    4.5292   -2.0000    0.0000 C   0  0  0  0  0  0  0  0  0  0  0  0
    1.6750   -2.0125    0.0000 C   0  0  0  0  0  0  0  0  0  0  0  0
    5.9625   -1.9917    0.0000 C   0  0  0  0  0  0  0  0  0  0  0  0
    2.3792    0.0583    0.0000 Cl  0  0  0  0  0  0  0  0  0  0  0  0
    5.2291    0.0625    0.0000 O   0  0  0  0  0  0  0  0  0  0  0  0
    2.3792   -2.4250    0.0000 C   0  0  0  0  0  0  0  0  0  0  0  0
    5.2417   -2.4042    0.0000 C   0  0  0  0  0  0  0  0  0  0  0  0
    0.9542   -2.4250    0.0000 Cl  0  0  0  0  0  0  0  0  0  0  0  0
    6.6792   -2.4042    0.0000 Cl  0  0  0  0  0  0  0  0  0  0  0  0
    0.7774   -0.6782    0.0000 H   0  0  0  0  0  0  0  0  0  0  0  0
    6.8438   -0.6395    0.0000 H   0  0  0  0  0  0  0  0  0  0  0  0
    3.9963   -2.5313    0.0000 H   0  0  0  0  0  0  0  0  0  0  0  0
    3.6374   -2.5194    0.0000 H   0  0  0  0  0  0  0  0  0  0  0  0
    6.0357    0.5393    0.0000 H   0  0  0  0  0  0  0  0  0  0  0  0
    2.3727   -3.4570    0.0000 H   0  0  0  0  0  0  0  0  0  0  0  0
    5.2436   -3.4362    0.0000 H   0  0  0  0  0  0  0  0  0  0  0  0
  2  1  1  0  0  0  0
  3  1  1  0  0  0  0
  4  2  2  0  0  0  0
  5  3  1  0  0  0  0
  6  4  1  0  0  0  0
  6 10  2  0  0  0  0
  6 18  1  0  0  0  0
  7  5  2  0  0  0  0
  7 11  1  0  0  0  0
  7 19  1  0  0  0  0
  8  2  1  0  0  0  0
  8 20  1  0  0  0  0
  9  3  2  0  0  0  0
  9 21  1  0  0  0  0
 10 14  1  0  0  0  0
 11 15  2  0  0  0  0
 12  4  1  0  0  0  0
 13  5  1  0  0  0  0
 13 22  1  0  0  0  0
 14  8  2  0  0  0  0
 14 23  1  0  0  0  0
 15  9  1  0  0  0  0
 15 24  1  0  0  0  0
 16 10  1  0  0  0  0
 17 11  1  0  0  0  0
M  END
>  <DRUGBANK_ID>
DB08604

>  <COMMON_NAME>
Triclosan

>  <CAS_NUMBER>
3380-34-5

>  <UNII>
4NM5039Y5X

>  <SYNONYMS>
2,4,4'-Trichloro-2'-hydroxydiphenyl ether; 5-Chloro-2-(2,4-dichloro-phenoxy)-phenol; Triclos√°n; Triclosan; Triclosanum

$$$$
