
 OpenBabel10282417072D

 37 39  0  0  1  0  0  0  0  0999 V2000
   -0.5683   -1.4940    0.0000 C   0  0  0  0  0  0  0  0  0  0  0  0
    3.3523    1.1104    0.0000 C   0  0  0  0  0  0  0  0  0  0  0  0
    0.0992   -1.0091    0.0000 C   0  0  2  0  0  0  0  0  0  0  0  0
    1.9233    1.9354    0.0000 C   0  0  0  0  0  0  0  0  0  0  0  0
    0.8838   -1.2640    0.0000 C   0  0  2  0  0  0  0  0  0  0  0  0
    1.3687   -0.5966    0.0000 C   0  0  2  0  0  0  0  0  0  0  0  0
    2.6378    2.3479    0.0000 C   0  0  0  0  0  0  0  0  0  0  0  0
    1.9233    1.1104    0.0000 C   0  0  0  0  0  0  0  0  0  0  0  0
    0.8838    0.0709    0.0000 C   0  0  2  0  0  0  0  0  0  0  0  0
    0.6538    1.5229    0.0000 C   0  0  0  0  0  0  0  0  0  0  0  0
   -0.1712    1.5229    0.0000 Br  0  0  0  0  0  0  0  0  0  0  0  0
    2.6378    3.1729    0.0000 N   0  0  0  0  0  0  0  0  0  0  0  0
    3.3523    1.9354    0.0000 N   0  0  0  0  0  0  0  0  0  0  0  0
    2.6378    0.6979    0.0000 N   0  0  0  0  0  0  0  0  0  0  0  0
    1.1387    2.1904    0.0000 N   0  0  0  0  0  0  0  0  0  0  0  0
    1.1387    0.8555    0.0000 N   0  0  0  0  0  0  0  0  0  0  0  0
    1.1387   -2.0486    0.0000 O   0  0  0  0  0  0  0  0  0  0  0  0
    2.1937   -0.5966    0.0000 O   0  0  0  0  0  0  0  0  0  0  0  0
   -2.6568   -2.1283    0.0000 O   0  0  0  0  0  0  0  0  0  0  0  0
   -2.4743   -0.9759    0.0000 O   0  0  0  0  0  0  0  0  0  0  0  0
   -1.5045   -2.3108    0.0000 O   0  0  0  0  0  0  0  0  0  0  0  0
   -1.3220   -1.1584    0.0000 O   0  0  0  0  0  0  0  0  0  0  0  0
    0.0992   -0.1841    0.0000 O   0  0  0  0  0  0  0  0  0  0  0  0
   -1.9894   -1.6433    0.0000 P   0  0  0  0  0  0  0  0  0  0  0  0
    0.4991   -1.7306    0.0000 H   0  0  0  0  0  0  0  0  0  0  0  0
    0.5351   -2.0117    0.0000 H   0  0  0  0  0  0  0  0  0  0  0  0
    1.7432   -1.3316    0.0000 H   0  0  0  0  0  0  0  0  0  0  0  0
    1.6986    0.1999    0.0000 H   0  0  0  0  0  0  0  0  0  0  0  0
   -0.4565   -2.5581    0.0000 H   0  0  0  0  0  0  0  0  0  0  0  0
   -1.4340   -2.1229    0.0000 H   0  0  0  0  0  0  0  0  0  0  0  0
    4.2460    0.5944    0.0000 H   0  0  0  0  0  0  0  0  0  0  0  0
    3.4904    3.6651    0.0000 H   0  0  0  0  0  0  0  0  0  0  0  0
    1.7852    3.6651    0.0000 H   0  0  0  0  0  0  0  0  0  0  0  0
    0.4896   -2.7694    0.0000 H   0  0  0  0  0  0  0  0  0  0  0  0
    2.6787   -1.4366    0.0000 H   0  0  0  0  0  0  0  0  0  0  0  0
   -3.5430   -1.7339    0.0000 H   0  0  0  0  0  0  0  0  0  0  0  0
   -2.0798   -0.0898    0.0000 H   0  0  0  0  0  0  0  0  0  0  0  0
  1 29  1  0  0  0  0
  1 30  1  0  0  0  0
  2 31  1  0  0  0  0
  3  1  1  0  0  0  0
  3 25  1  6  0  0  0
  5  3  1  0  0  0  0
  5 17  1  0  0  0  0
  5 26  1  1  0  0  0
  6  5  1  0  0  0  0
  6 18  1  0  0  0  0
  6 27  1  1  0  0  0
  7  4  2  0  0  0  0
  8  4  1  0  0  0  0
  9  6  1  0  0  0  0
  9 16  1  0  0  0  0
  9 28  1  6  0  0  0
 11 10  1  0  0  0  0
 12  7  1  0  0  0  0
 12 32  1  0  0  0  0
 12 33  1  0  0  0  0
 13  2  2  0  0  0  0
 13  7  1  0  0  0  0
 14  2  1  0  0  0  0
 14  8  2  0  0  0  0
 15  4  1  0  0  0  0
 15 10  2  0  0  0  0
 16  8  1  0  0  0  0
 16 10  1  0  0  0  0
 17 34  1  0  0  0  0
 18 35  1  0  0  0  0
 19 36  1  0  0  0  0
 20 37  1  0  0  0  0
 22  1  1  0  0  0  0
 23  3  1  0  0  0  0
 23  9  1  0  0  0  0
 24 19  1  0  0  0  0
 24 20  1  0  0  0  0
 24 21  2  0  0  0  0
 24 22  1  0  0  0  0
M  END
>  <DRUGBANK_ID>
DB03349

>  <SECONDARY_ACCESSION_NUMBERS>
EXPT00332

>  <COMMON_NAME>
8-Bromo-Adenosine-5'-Monophosphate

$$$$
