
 OpenBabel10282417072D

158166  0  0  1  0  0  0  0  0999 V2000
   -7.6951   -2.9368    0.0000 C   0  0  0  0  0  0  0  0  0  0  0  0
   -6.9784   -2.5277    0.0000 N   0  0  0  0  0  0  0  0  0  0  0  0
   -6.2663   -2.9361    0.0000 C   0  0  0  0  0  0  0  0  0  0  0  0
   -6.2663   -3.7601    0.0000 C   0  0  0  0  0  0  0  0  0  0  0  0
   -6.9755   -4.1730    0.0000 N   0  0  0  0  0  0  0  0  0  0  0  0
   -7.6951   -3.7661    0.0000 C   0  0  0  0  0  0  0  0  0  0  0  0
   -8.4085   -4.1756    0.0000 N   0  0  0  0  0  0  0  0  0  0  0  0
   -9.1254   -3.7634    0.0000 C   0  0  0  0  0  0  0  0  0  0  0  0
   -9.1254   -2.9408    0.0000 N   0  0  0  0  0  0  0  0  0  0  0  0
   -8.4120   -2.5221    0.0000 C   0  0  0  0  0  0  0  0  0  0  0  0
   -8.4120   -1.6938    0.0000 O   0  0  0  0  0  0  0  0  0  0  0  0
   -9.8419   -4.1775    0.0000 N   0  0  0  0  0  0  0  0  0  0  0  0
   -5.5500   -2.5268    0.0000 C   0  0  0  0  0  0  0  0  0  0  0  0
   -4.8383   -2.9361    0.0000 N   0  0  0  0  0  0  0  0  0  0  0  0
   -4.1220   -2.5268    0.0000 C   0  0  0  0  0  0  0  0  0  0  0  0
   -4.1220   -1.6984    0.0000 C   0  0  0  0  0  0  0  0  0  0  0  0
   -3.4081   -1.2875    0.0000 C   0  0  0  0  0  0  0  0  0  0  0  0
   -2.6915   -1.6971    0.0000 C   0  0  0  0  0  0  0  0  0  0  0  0
   -2.6915   -2.5233    0.0000 C   0  0  0  0  0  0  0  0  0  0  0  0
   -3.4054   -2.9390    0.0000 C   0  0  0  0  0  0  0  0  0  0  0  0
   -1.9799   -1.2876    0.0000 C   0  0  0  0  0  0  0  0  0  0  0  0
   -1.2682   -1.6971    0.0000 N   0  0  0  0  0  0  0  0  0  0  0  0
   -0.5519   -1.2876    0.0000 C   0  0  1  0  0  0  0  0  0  0  0  0
    0.1595   -1.6971    0.0000 C   0  0  0  0  0  0  0  0  0  0  0  0
    0.8805   -1.2876    0.0000 C   0  0  0  0  0  0  0  0  0  0  0  0
    0.8805   -0.4593    0.0000 C   0  0  0  0  0  0  0  0  0  0  0  0
    1.5898   -0.0529    0.0000 C   0  0  0  0  0  0  0  0  0  0  0  0
    2.3063   -0.4625    0.0000 C   0  0  0  0  0  0  0  0  0  0  0  0
    2.3063   -1.2842    0.0000 C   0  0  0  0  0  0  0  0  0  0  0  0
    1.5926   -1.6999    0.0000 C   0  0  0  0  0  0  0  0  0  0  0  0
    3.0181   -0.0531    0.0000 O   0  0  0  0  0  0  0  0  0  0  0  0
    3.7344   -0.4625    0.0000 C   0  0  0  0  0  0  0  0  0  0  0  0
    4.4507   -0.0531    0.0000 C   0  0  0  0  0  0  0  0  0  0  0  0
    5.1668   -0.4625    0.0000 C   0  0  0  0  0  0  0  0  0  0  0  0
    5.1668   -1.2861    0.0000 C   0  0  0  0  0  0  0  0  0  0  0  0
    4.4507   -1.7002    0.0000 C   0  0  0  0  0  0  0  0  0  0  0  0
    3.7344   -1.2861    0.0000 C   0  0  0  0  0  0  0  0  0  0  0  0
    3.0181   -1.7002    0.0000 C   0  0  0  0  0  0  0  0  0  0  0  0
    3.0181   -2.5285    0.0000 C   0  0  0  0  0  0  0  0  0  0  0  0
    2.3015   -2.9296    0.0000 C   0  0  0  0  0  0  0  0  0  0  0  0
    1.5388   -2.6036    0.0000 C   0  0  0  0  0  0  0  0  0  0  0  0
    1.0029   -3.2138    0.0000 C   0  0  0  0  0  0  0  0  0  0  0  0
    1.4198   -3.9299    0.0000 C   0  0  0  0  0  0  0  0  0  0  0  0
    2.2153   -3.7508    0.0000 N   0  3  0  0  0  0  0  0  0  0  0  0
    2.8007   -4.3316    0.0000 C   0  0  0  0  0  0  0  0  0  0  0  0
    3.5979   -4.1199    0.0000 C   0  0  0  0  0  0  0  0  0  0  0  0
    4.1832   -4.7006    0.0000 C   0  0  0  0  0  0  0  0  0  0  0  0
    4.9757   -4.4890    0.0000 C   0  0  0  0  0  0  0  0  0  0  0  0
    5.9019   -5.4150    0.0000 S   0  0  0  0  0  0  0  0  0  0  0  0
    6.6804   -4.8673    0.0000 O   0  0  0  0  0  0  0  0  0  0  0  0
    5.1138   -5.8831    0.0000 O   0  0  0  0  0  0  0  0  0  0  0  0
    6.4476   -6.0657    0.0000 O   0  0  0  0  0  0  0  0  0  0  0  0
    1.0146   -4.6462    0.0000 C   0  0  0  0  0  0  0  0  0  0  0  0
    0.1907   -4.6462    0.0000 C   0  0  0  0  0  0  0  0  0  0  0  0
   -0.2253   -3.9073    0.0000 C   0  0  0  0  0  0  0  0  0  0  0  0
    0.1737   -3.2138    0.0000 C   0  0  0  0  0  0  0  0  0  0  0  0
   -0.8388   -3.9073    0.0000 S   0  0  0  0  0  0  0  0  0  0  0  0
   -1.4956   -3.7928    0.0000 O   0  5  0  0  0  0  0  0  0  0  0  0
   -0.7699   -3.1512    0.0000 O   0  0  0  0  0  0  0  0  0  0  0  0
   -0.7421   -4.7985    0.0000 O   0  0  0  0  0  0  0  0  0  0  0  0
    1.3271   -1.8064    0.0000 C   0  0  0  0  0  0  0  0  0  0  0  0
    2.1657   -2.0645    0.0000 C   0  0  0  0  0  0  0  0  0  0  0  0
    4.4507    0.7703    0.0000 C   0  0  0  0  0  0  0  0  0  0  0  0
    5.1669    1.1844    0.0000 C   0  0  0  0  0  0  0  0  0  0  0  0
    5.1669    2.0125    0.0000 C   0  0  0  0  0  0  0  0  0  0  0  0
    4.4507    2.4220    0.0000 C   0  0  0  0  0  0  0  0  0  0  0  0
    4.6359    3.2443    0.0000 C   0  0  0  0  0  0  0  0  0  0  0  0
    5.4354    3.3272    0.0000 C   0  0  0  0  0  0  0  0  0  0  0  0
    5.7673    2.5617    0.0000 N   0  0  0  0  0  0  0  0  0  0  0  0
    6.5688    2.3547    0.0000 C   0  0  0  0  0  0  0  0  0  0  0  0
    6.7760    1.5575    0.0000 C   0  0  0  0  0  0  0  0  0  0  0  0
    7.5731    1.3412    0.0000 C   0  0  0  0  0  0  0  0  0  0  0  0
    7.7895    0.5486    0.0000 C   0  0  0  0  0  0  0  0  0  0  0  0
    8.8931    0.4436    0.0000 S   0  0  0  0  0  0  0  0  0  0  0  0
    9.1760   -0.4046    0.0000 O   0  0  0  0  0  0  0  0  0  0  0  0
    8.6557    1.4321    0.0000 O   0  0  0  0  0  0  0  0  0  0  0  0
    9.8419    0.9214    0.0000 O   0  0  0  0  0  0  0  0  0  0  0  0
    5.7669    4.0620    0.0000 C   0  0  0  0  0  0  0  0  0  0  0  0
    5.2908    4.7172    0.0000 C   0  0  0  0  0  0  0  0  0  0  0  0
    4.4982    4.6321    0.0000 C   0  0  0  0  0  0  0  0  0  0  0  0
    4.1688    3.8975    0.0000 C   0  0  0  0  0  0  0  0  0  0  0  0
    4.0838    5.3437    0.0000 S   0  0  0  0  0  0  0  0  0  0  0  0
    4.4968    6.0657    0.0000 O   0  0  0  0  0  0  0  0  0  0  0  0
    3.3674    5.7626    0.0000 O   0  0  0  0  0  0  0  0  0  0  0  0
    3.6699    4.6320    0.0000 O   0  0  0  0  0  0  0  0  0  0  0  0
    3.7344    2.0125    0.0000 C   0  0  0  0  0  0  0  0  0  0  0  0
    3.7867    2.9122    0.0000 C   0  0  0  0  0  0  0  0  0  0  0  0
   -0.5519   -0.4593    0.0000 C   0  0  0  0  0  0  0  0  0  0  0  0
   -1.2682   -0.0500    0.0000 O   0  0  0  0  0  0  0  0  0  0  0  0
    0.1595   -0.0500    0.0000 O   0  0  0  0  0  0  0  0  0  0  0  0
   -1.9799   -0.4593    0.0000 O   0  0  0  0  0  0  0  0  0  0  0  0
   -5.3716   -4.2745    0.0000 H   0  0  0  0  0  0  0  0  0  0  0  0
   -9.9798   -2.4516    0.0000 H   0  0  0  0  0  0  0  0  0  0  0  0
  -10.6947   -3.6856    0.0000 H   0  0  0  0  0  0  0  0  0  0  0  0
   -9.8415   -5.1620    0.0000 H   0  0  0  0  0  0  0  0  0  0  0  0
   -5.5485   -1.4568    0.0000 H   0  0  0  0  0  0  0  0  0  0  0  0
   -4.6234   -1.9917    0.0000 H   0  0  0  0  0  0  0  0  0  0  0  0
   -4.8397   -3.9206    0.0000 H   0  0  0  0  0  0  0  0  0  0  0  0
   -5.0154   -1.1818    0.0000 H   0  0  0  0  0  0  0  0  0  0  0  0
   -3.4096   -0.2555    0.0000 H   0  0  0  0  0  0  0  0  0  0  0  0
   -1.7968   -3.0376    0.0000 H   0  0  0  0  0  0  0  0  0  0  0  0
   -3.4027   -3.9710    0.0000 H   0  0  0  0  0  0  0  0  0  0  0  0
   -1.2696   -2.6816    0.0000 H   0  0  0  0  0  0  0  0  0  0  0  0
   -1.4774   -0.7506    0.0000 H   0  0  0  0  0  0  0  0  0  0  0  0
    0.1564   -2.7671    0.0000 H   0  0  0  0  0  0  0  0  0  0  0  0
    1.0835   -2.2367    0.0000 H   0  0  0  0  0  0  0  0  0  0  0  0
   -0.0124    0.0582    0.0000 H   0  0  0  0  0  0  0  0  0  0  0  0
    1.5893    0.9791    0.0000 H   0  0  0  0  0  0  0  0  0  0  0  0
    3.2010   -1.7985    0.0000 H   0  0  0  0  0  0  0  0  0  0  0  0
    1.5939   -2.7319    0.0000 H   0  0  0  0  0  0  0  0  0  0  0  0
    6.0923    0.0745    0.0000 H   0  0  0  0  0  0  0  0  0  0  0  0
    6.0940   -0.9965    0.0000 H   0  0  0  0  0  0  0  0  0  0  0  0
    6.0936   -1.8208    0.0000 H   0  0  0  0  0  0  0  0  0  0  0  0
    5.1674   -2.3561    0.0000 H   0  0  0  0  0  0  0  0  0  0  0  0
    4.4508   -2.7702    0.0000 H   0  0  0  0  0  0  0  0  0  0  0  0
    3.5239   -2.2350    0.0000 H   0  0  0  0  0  0  0  0  0  0  0  0
    2.1242   -1.1845    0.0000 H   0  0  0  0  0  0  0  0  0  0  0  0
    3.9084   -3.0504    0.0000 H   0  0  0  0  0  0  0  0  0  0  0  0
    2.5246   -5.3654    0.0000 H   0  0  0  0  0  0  0  0  0  0  0  0
    3.5568   -5.0887    0.0000 H   0  0  0  0  0  0  0  0  0  0  0  0
    3.8740   -3.0861    0.0000 H   0  0  0  0  0  0  0  0  0  0  0  0
    4.6308   -3.8405    0.0000 H   0  0  0  0  0  0  0  0  0  0  0  0
    3.9078   -5.7346    0.0000 H   0  0  0  0  0  0  0  0  0  0  0  0
    4.9400   -5.4570    0.0000 H   0  0  0  0  0  0  0  0  0  0  0  0
    5.2530   -3.4556    0.0000 H   0  0  0  0  0  0  0  0  0  0  0  0
    6.0093   -4.2122    0.0000 H   0  0  0  0  0  0  0  0  0  0  0  0
    6.1156   -6.9771    0.0000 H   0  0  0  0  0  0  0  0  0  0  0  0
    1.5345   -5.5377    0.0000 H   0  0  0  0  0  0  0  0  0  0  0  0
   -0.3301   -5.5371    0.0000 H   0  0  0  0  0  0  0  0  0  0  0  0
   -0.3430   -2.3205    0.0000 H   0  0  0  0  0  0  0  0  0  0  0  0
    2.0854   -1.0515    0.0000 H   0  0  0  0  0  0  0  0  0  0  0  0
    0.2942   -1.5272    0.0000 H   0  0  0  0  0  0  0  0  0  0  0  0
    1.0525   -0.7722    0.0000 H   0  0  0  0  0  0  0  0  0  0  0  0
    3.1755   -2.4183    0.0000 H   0  0  0  0  0  0  0  0  0  0  0  0
    1.9672   -1.0131    0.0000 H   0  0  0  0  0  0  0  0  0  0  0  0
    2.9770   -1.3668    0.0000 H   0  0  0  0  0  0  0  0  0  0  0  0
    3.5568    1.2860    0.0000 H   0  0  0  0  0  0  0  0  0  0  0  0
    6.0608    0.6687    0.0000 H   0  0  0  0  0  0  0  0  0  0  0  0
    7.3248    3.1119    0.0000 H   0  0  0  0  0  0  0  0  0  0  0  0
    7.6014    2.0743    0.0000 H   0  0  0  0  0  0  0  0  0  0  0  0
    6.0154    0.8050    0.0000 H   0  0  0  0  0  0  0  0  0  0  0  0
    7.0485    0.5228    0.0000 H   0  0  0  0  0  0  0  0  0  0  0  0
    8.3291    2.0984    0.0000 H   0  0  0  0  0  0  0  0  0  0  0  0
    8.6074    1.0671    0.0000 H   0  0  0  0  0  0  0  0  0  0  0  0
    7.1005   -0.2701    0.0000 H   0  0  0  0  0  0  0  0  0  0  0  0
    8.1945   -0.4418    0.0000 H   0  0  0  0  0  0  0  0  0  0  0  0
    8.5326   -1.1305    0.0000 H   0  0  0  0  0  0  0  0  0  0  0  0
    6.7935    4.1674    0.0000 H   0  0  0  0  0  0  0  0  0  0  0  0
    5.7095    5.6605    0.0000 H   0  0  0  0  0  0  0  0  0  0  0  0
    3.1419    3.7949    0.0000 H   0  0  0  0  0  0  0  0  0  0  0  0
    5.4668    6.0696    0.0000 H   0  0  0  0  0  0  0  0  0  0  0  0
    2.8100    2.5514    0.0000 H   0  0  0  0  0  0  0  0  0  0  0  0
    3.7298    0.9425    0.0000 H   0  0  0  0  0  0  0  0  0  0  0  0
    2.8055    1.4814    0.0000 H   0  0  0  0  0  0  0  0  0  0  0  0
    3.9067    3.9755    0.0000 H   0  0  0  0  0  0  0  0  0  0  0  0
    2.8059    2.4845    0.0000 H   0  0  0  0  0  0  0  0  0  0  0  0
    2.9259    3.5477    0.0000 H   0  0  0  0  0  0  0  0  0  0  0  0
    0.9703   -0.5197    0.0000 H   0  0  0  0  0  0  0  0  0  0  0  0
  1  6  1  0  0  0  0
  1 10  1  0  0  0  0
  2  1  2  0  0  0  0
  3  2  1  0  0  0  0
  3 13  1  0  0  0  0
  4  3  2  0  0  0  0
  4 92  1  0  0  0  0
  5  4  1  0  0  0  0
  6  5  2  0  0  0  0
  6  7  1  0  0  0  0
  8  7  2  0  0  0  0
  8 12  1  0  0  0  0
  9  8  1  0  0  0  0
  9 93  1  0  0  0  0
 10  9  1  0  0  0  0
 10 11  2  0  0  0  0
 12 94  1  0  0  0  0
 12 95  1  0  0  0  0
 13 14  1  0  0  0  0
 13 96  1  0  0  0  0
 13 97  1  0  0  0  0
 14 15  1  0  0  0  0
 14 98  1  0  0  0  0
 15 20  1  0  0  0  0
 16 15  2  0  0  0  0
 16 99  1  0  0  0  0
 17 16  1  0  0  0  0
 17100  1  0  0  0  0
 18 17  2  0  0  0  0
 18 21  1  0  0  0  0
 19 18  1  0  0  0  0
 19101  1  0  0  0  0
 20 19  2  0  0  0  0
 20102  1  0  0  0  0
 21 22  1  0  0  0  0
 21 91  2  0  0  0  0
 22 23  1  0  0  0  0
 22103  1  0  0  0  0
 23 24  1  0  0  0  0
 23 88  1  0  0  0  0
 23104  1  1  0  0  0
 24 25  1  0  0  0  0
 24105  1  0  0  0  0
 24106  1  0  0  0  0
 25 30  1  0  0  0  0
 26 25  2  0  0  0  0
 26107  1  0  0  0  0
 27 26  1  0  0  0  0
 27108  1  0  0  0  0
 28 27  2  0  0  0  0
 28 31  1  0  0  0  0
 29 28  1  0  0  0  0
 29109  1  0  0  0  0
 30 29  2  0  0  0  0
 30110  1  0  0  0  0
 31 32  1  0  0  0  0
 32 37  2  0  0  0  0
 33 32  1  0  0  0  0
 33 63  2  0  0  0  0
 34 33  1  0  0  0  0
 34111  1  0  0  0  0
 34112  1  0  0  0  0
 35 34  1  0  0  0  0
 35113  1  0  0  0  0
 35114  1  0  0  0  0
 36 35  1  0  0  0  0
 36115  1  0  0  0  0
 36116  1  0  0  0  0
 37 36  1  0  0  0  0
 37 38  1  0  0  0  0
 38 39  2  0  0  0  0
 38117  1  0  0  0  0
 39 40  1  0  0  0  0
 39118  1  0  0  0  0
 41 40  1  0  0  0  0
 41 42  1  0  0  0  0
 41 61  1  0  0  0  0
 41 62  1  0  0  0  0
 42 43  2  0  0  0  0
 42 56  1  0  0  0  0
 43 44  1  0  0  0  0
 43 53  1  0  0  0  0
 44 40  2  0  0  0  0
 44 45  1  0  0  0  0
 45 46  1  0  0  0  0
 45119  1  0  0  0  0
 45120  1  0  0  0  0
 46 47  1  0  0  0  0
 46121  1  0  0  0  0
 46122  1  0  0  0  0
 47 48  1  0  0  0  0
 47123  1  0  0  0  0
 47124  1  0  0  0  0
 48 49  1  0  0  0  0
 48125  1  0  0  0  0
 48126  1  0  0  0  0
 49 50  2  0  0  0  0
 49 51  2  0  0  0  0
 49 52  1  0  0  0  0
 52127  1  0  0  0  0
 53128  1  0  0  0  0
 54 53  2  0  0  0  0
 54129  1  0  0  0  0
 55 54  1  0  0  0  0
 55 57  1  0  0  0  0
 56 55  2  0  0  0  0
 56130  1  0  0  0  0
 57 58  1  0  0  0  0
 57 59  2  0  0  0  0
 57 60  2  0  0  0  0
 61131  1  0  0  0  0
 61132  1  0  0  0  0
 61133  1  0  0  0  0
 62134  1  0  0  0  0
 62135  1  0  0  0  0
 62136  1  0  0  0  0
 63 64  1  0  0  0  0
 63137  1  0  0  0  0
 64 65  2  0  0  0  0
 64138  1  0  0  0  0
 65 69  1  0  0  0  0
 66 65  1  0  0  0  0
 66 67  1  0  0  0  0
 66 86  1  0  0  0  0
 66 87  1  0  0  0  0
 67 68  2  0  0  0  0
 67 81  1  0  0  0  0
 68 78  1  0  0  0  0
 69 68  1  0  0  0  0
 69 70  1  0  0  0  0
 70 71  1  0  0  0  0
 70139  1  0  0  0  0
 70140  1  0  0  0  0
 71 72  1  0  0  0  0
 71141  1  0  0  0  0
 71142  1  0  0  0  0
 72 73  1  0  0  0  0
 72143  1  0  0  0  0
 72144  1  0  0  0  0
 73 74  1  0  0  0  0
 73145  1  0  0  0  0
 73146  1  0  0  0  0
 74 75  1  0  0  0  0
 74 76  2  0  0  0  0
 74 77  2  0  0  0  0
 75147  1  0  0  0  0
 78 79  2  0  0  0  0
 78148  1  0  0  0  0
 79 80  1  0  0  0  0
 79149  1  0  0  0  0
 80 81  2  0  0  0  0
 80 82  1  0  0  0  0
 81150  1  0  0  0  0
 82 83  1  0  0  0  0
 82 84  2  0  0  0  0
 82 85  2  0  0  0  0
 83151  1  0  0  0  0
 86152  1  0  0  0  0
 86153  1  0  0  0  0
 86154  1  0  0  0  0
 87155  1  0  0  0  0
 87156  1  0  0  0  0
 87157  1  0  0  0  0
 88 89  2  0  0  0  0
 88 90  1  0  0  0  0
 90158  1  0  0  0  0
M  CHG  2  44   1  58  -1
M  END
>  <DRUGBANK_ID>
DB15413

>  <COMMON_NAME>
Pafolacianine

>  <CAS_NUMBER>
1628423-76-6

>  <UNII>
F7BD3Z4X8L

$$$$
