
 OpenBabel10282417072D

 41 43  0  0  0  0  0  0  0  0999 V2000
    3.2134   -3.6036    0.0000 C   0  0  0  0  0  0  0  0  0  0  0  0
    2.6003   -3.0516    0.0000 C   0  0  0  0  0  0  0  0  0  0  0  0
    1.7934   -3.2231    0.0000 O   0  0  0  0  0  0  0  0  0  0  0  0
    1.3809   -2.5086    0.0000 C   0  0  0  0  0  0  0  0  0  0  0  0
    0.5739   -2.3371    0.0000 C   0  0  0  0  0  0  0  0  0  0  0  0
    0.0219   -2.9502    0.0000 C   0  0  0  0  0  0  0  0  0  0  0  0
    0.3190   -1.5525    0.0000 C   0  0  0  0  0  0  0  0  0  0  0  0
   -0.4880   -1.3810    0.0000 O   0  0  0  0  0  0  0  0  0  0  0  0
   -0.7430   -0.5963    0.0000 C   0  0  0  0  0  0  0  0  0  0  0  0
   -1.5499   -0.4248    0.0000 O   0  0  0  0  0  0  0  0  0  0  0  0
   -0.1909    0.0168    0.0000 C   0  0  0  0  0  0  0  0  0  0  0  0
    0.6160   -0.1548    0.0000 C   0  0  0  0  0  0  0  0  0  0  0  0
    1.1681    0.4583    0.0000 C   0  0  0  0  0  0  0  0  0  0  0  0
    0.8710   -0.9394    0.0000 C   0  0  0  0  0  0  0  0  0  0  0  0
    1.6780   -1.1109    0.0000 C   0  0  0  0  0  0  0  0  0  0  0  0
    1.9329   -1.8955    0.0000 C   0  0  0  0  0  0  0  0  0  0  0  0
    2.6866   -2.2311    0.0000 C   0  0  0  0  0  0  0  0  0  0  0  0
    3.4010   -1.8186    0.0000 C   0  0  0  0  0  0  0  0  0  0  0  0
    4.1155   -2.2311    0.0000 O   0  0  0  0  0  0  0  0  0  0  0  0
    4.8300   -1.8186    0.0000 C   0  0  0  0  0  0  0  0  0  0  0  0
    5.5445   -2.2311    0.0000 C   0  0  0  0  0  0  0  0  0  0  0  0
    6.2589   -1.8186    0.0000 N   0  0  0  0  0  0  0  0  0  0  0  0
    2.9910   -4.6502    0.0000 H   0  0  0  0  0  0  0  0  0  0  0  0
    4.2310   -3.2729    0.0000 H   0  0  0  0  0  0  0  0  0  0  0  0
    4.0086   -4.3195    0.0000 H   0  0  0  0  0  0  0  0  0  0  0  0
   -1.0247   -2.7278    0.0000 H   0  0  0  0  0  0  0  0  0  0  0  0
    0.3526   -3.9678    0.0000 H   0  0  0  0  0  0  0  0  0  0  0  0
   -0.6940   -3.7454    0.0000 H   0  0  0  0  0  0  0  0  0  0  0  0
   -0.5097    0.9983    0.0000 H   0  0  0  0  0  0  0  0  0  0  0  0
    2.2147    0.2358    0.0000 H   0  0  0  0  0  0  0  0  0  0  0  0
    0.8375    1.4759    0.0000 H   0  0  0  0  0  0  0  0  0  0  0  0
    1.8841    1.2534    0.0000 H   0  0  0  0  0  0  0  0  0  0  0  0
    2.3685   -0.3440    0.0000 H   0  0  0  0  0  0  0  0  0  0  0  0
    3.4010   -0.7486    0.0000 H   0  0  0  0  0  0  0  0  0  0  0  0
    4.3276   -1.2836    0.0000 H   0  0  0  0  0  0  0  0  0  0  0  0
    4.8300   -0.7486    0.0000 H   0  0  0  0  0  0  0  0  0  0  0  0
    5.7566   -1.2836    0.0000 H   0  0  0  0  0  0  0  0  0  0  0  0
    5.5445   -3.3011    0.0000 H   0  0  0  0  0  0  0  0  0  0  0  0
    6.4712   -2.7661    0.0000 H   0  0  0  0  0  0  0  0  0  0  0  0
    7.1423   -2.3286    0.0000 H   0  0  0  0  0  0  0  0  0  0  0  0
    6.2589   -0.7986    0.0000 H   0  0  0  0  0  0  0  0  0  0  0  0
  1  2  1  0  0  0  0
  1 23  1  0  0  0  0
  1 24  1  0  0  0  0
  1 25  1  0  0  0  0
  2  3  1  0  0  0  0
  2 17  2  0  0  0  0
  3  4  1  0  0  0  0
  4  5  2  0  0  0  0
  4 16  1  0  0  0  0
  5  6  1  0  0  0  0
  5  7  1  0  0  0  0
  6 26  1  0  0  0  0
  6 27  1  0  0  0  0
  6 28  1  0  0  0  0
  7  8  1  0  0  0  0
  7 14  2  0  0  0  0
  8  9  1  0  0  0  0
  9 10  2  0  0  0  0
  9 11  1  0  0  0  0
 11 12  2  0  0  0  0
 11 29  1  0  0  0  0
 12 13  1  0  0  0  0
 12 14  1  0  0  0  0
 13 30  1  0  0  0  0
 13 31  1  0  0  0  0
 13 32  1  0  0  0  0
 14 15  1  0  0  0  0
 15 16  2  0  0  0  0
 15 33  1  0  0  0  0
 16 17  1  0  0  0  0
 17 18  1  0  0  0  0
 18 19  1  0  0  0  0
 18 34  1  0  0  0  0
 18 35  1  0  0  0  0
 19 20  1  0  0  0  0
 20 21  1  0  0  0  0
 20 36  1  0  0  0  0
 20 37  1  0  0  0  0
 21 22  1  0  0  0  0
 21 38  1  0  0  0  0
 21 39  1  0  0  0  0
 22 40  1  0  0  0  0
 22 41  1  0  0  0  0
M  END
>  <DRUGBANK_ID>
DB17693

>  <COMMON_NAME>
Amotosalen

>  <CAS_NUMBER>
161262-29-9

>  <UNII>
K1LDZ0VBC0

>  <SYNONYMS>
3-((2-aminoethoxy)methyl)-2,5,9-trimethyl-7h-furo(3,2-g)chromen-7-one; 7h-furo(3,2-g)(1)benzopyran-7-one, 3-((2-aminoethoxy)methyl)-2,5,9-trimethyl-; Amotosalen

$$$$
