DBS
 OpenBabel10282417072D

 28 28  0  0  0  0  0  0  0  0999 V2000
   -2.5868    0.4279    0.0000 O   0  0  0  0  0  0  0  0  0  0  0  0
   -1.8723    0.8404    0.0000 C   0  0  0  0  0  0  0  0  0  0  0  0
   -1.8723    1.6654    0.0000 C   0  0  0  0  0  0  0  0  0  0  0  0
   -1.1578    0.4279    0.0000 C   0  0  0  0  0  0  0  0  0  0  0  0
   -1.1578   -0.3971    0.0000 O   0  0  0  0  0  0  0  0  0  0  0  0
   -0.4434    0.8404    0.0000 C   0  0  0  0  0  0  0  0  0  0  0  0
   -0.4434    1.6654    0.0000 C   0  0  0  0  0  0  0  0  0  0  0  0
   -1.1578    2.0779    0.0000 C   0  0  0  0  0  0  0  0  0  0  0  0
    0.2711    0.4279    0.0000 C   0  0  0  0  0  0  0  0  0  0  0  0
    0.9856    0.8404    0.0000 O   0  0  0  0  0  0  0  0  0  0  0  0
    0.2711   -0.3971    0.0000 N   0  0  0  0  0  0  0  0  0  0  0  0
    0.9856   -0.8096    0.0000 C   0  0  1  0  0  0  0  0  0  0  0  0
    0.9856   -1.6346    0.0000 C   0  0  0  0  0  0  0  0  0  0  0  0
    1.7000   -2.0471    0.0000 O   0  0  0  0  0  0  0  0  0  0  0  0
    1.7000   -0.3971    0.0000 C   0  0  0  0  0  0  0  0  0  0  0  0
    1.7000    0.4279    0.0000 O   0  0  0  0  0  0  0  0  0  0  0  0
    2.4145   -0.8096    0.0000 O   0  0  0  0  0  0  0  0  0  0  0  0
    0.4799   -1.1016    0.0000 H   0  0  0  0  0  0  0  0  0  0  0  0
   -3.3983    0.8964    0.0000 H   0  0  0  0  0  0  0  0  0  0  0  0
   -2.7660    2.1814    0.0000 H   0  0  0  0  0  0  0  0  0  0  0  0
   -1.9693   -0.8656    0.0000 H   0  0  0  0  0  0  0  0  0  0  0  0
    0.4503    2.1814    0.0000 H   0  0  0  0  0  0  0  0  0  0  0  0
   -1.1578    3.1099    0.0000 H   0  0  0  0  0  0  0  0  0  0  0  0
   -0.5815   -0.8894    0.0000 H   0  0  0  0  0  0  0  0  0  0  0  0
    0.0589   -2.1696    0.0000 H   0  0  0  0  0  0  0  0  0  0  0  0
    0.9856   -2.7046    0.0000 H   0  0  0  0  0  0  0  0  0  0  0  0
    1.7000   -3.0171    0.0000 H   0  0  0  0  0  0  0  0  0  0  0  0
    2.4145   -1.7466    0.0000 H   0  0  0  0  0  0  0  0  0  0  0  0
  1  2  1  0  0  0  0
  1 19  1  0  0  0  0
  2  3  2  0  0  0  0
  2  4  1  0  0  0  0
  3  8  1  0  0  0  0
  3 20  1  0  0  0  0
  4  5  1  0  0  0  0
  4  6  2  0  0  0  0
  5 21  1  0  0  0  0
  6  7  1  0  0  0  0
  6  9  1  0  0  0  0
  7  8  2  0  0  0  0
  7 22  1  0  0  0  0
  8 23  1  0  0  0  0
  9 10  2  0  0  0  0
  9 11  1  0  0  0  0
 11 24  1  0  0  0  0
 12 11  1  0  0  0  0
 12 13  1  0  0  0  0
 12 15  1  0  0  0  0
 12 18  1  1  0  0  0
 13 14  1  0  0  0  0
 13 25  1  0  0  0  0
 13 26  1  0  0  0  0
 14 27  1  0  0  0  0
 15 16  2  0  0  0  0
 15 17  1  0  0  0  0
 17 28  1  0  0  0  0
M  END
>  <DRUGBANK_ID>
DB02710

>  <SECONDARY_ACCESSION_NUMBERS>
EXPT01126

>  <COMMON_NAME>
2,3,-Dihydroxybenzoylserine

>  <CAS_NUMBER>
127658-43-9

$$$$
