324
 OpenBabel10282417072D

 56 59  0  0  1  0  0  0  0  0999 V2000
    4.1400    0.7077    0.0000 F   0  0  0  0  0  0  0  0  0  0  0  0
    6.6263    1.9371    0.0000 O   0  0  0  0  0  0  0  0  0  0  0  0
    3.9559    1.3132    0.0000 O   0  0  0  0  0  0  0  0  0  0  0  0
    7.4634    2.4564    0.0000 O   0  0  0  0  0  0  0  0  0  0  0  0
    1.6500   -1.6175    0.0000 O   0  0  0  0  0  0  0  0  0  0  0  0
    6.0993    0.9007    0.0000 C   0  0  1  0  0  0  0  0  0  0  0  0
    6.0993    0.0757    0.0000 C   0  0  2  0  0  0  0  0  0  0  0  0
    5.3849   -0.3368    0.0000 C   0  0  1  0  0  0  0  0  0  0  0  0
    4.6703    0.0757    0.0000 C   0  0  1  0  0  0  0  0  0  0  0  0
    6.8799    1.1521    0.0000 C   0  0  1  0  0  0  0  0  0  0  0  0
    5.3849    1.3132    0.0000 C   0  0  0  0  0  0  0  0  0  0  0  0
    4.6703    0.9007    0.0000 C   0  0  2  0  0  0  0  0  0  0  0  0
    6.8799   -0.1757    0.0000 C   0  0  0  0  0  0  0  0  0  0  0  0
    3.9196   -0.3425    0.0000 C   0  0  1  0  0  0  0  0  0  0  0  0
    7.3614    0.4882    0.0000 C   0  0  0  0  0  0  0  0  0  0  0  0
    5.3981   -1.1961    0.0000 C   0  0  0  0  0  0  0  0  0  0  0  0
    4.6572   -1.6314    0.0000 C   0  0  1  0  0  0  0  0  0  0  0  0
    6.0993    1.7257    0.0000 C   0  0  0  0  0  0  0  0  0  0  0  0
    3.9130   -1.2018    0.0000 C   0  0  0  0  0  0  0  0  0  0  0  0
    7.5482    1.6358    0.0000 C   0  0  0  0  0  0  0  0  0  0  0  0
    3.6434    0.4349    0.0000 C   0  0  0  0  0  0  0  0  0  0  0  0
    3.1550    0.1229    0.0000 C   0  0  0  0  0  0  0  0  0  0  0  0
    4.6603   -2.4564    0.0000 C   0  0  0  0  0  0  0  0  0  0  0  0
    3.1413   -1.6554    0.0000 C   0  0  0  0  0  0  0  0  0  0  0  0
    2.3729   -0.3127    0.0000 C   0  0  0  0  0  0  0  0  0  0  0  0
    8.3013    1.2990    0.0000 C   0  0  0  0  0  0  0  0  0  0  0  0
    2.3660   -1.2078    0.0000 C   0  0  0  0  0  0  0  0  0  0  0  0
    6.1691   -0.5806    0.0000 H   0  0  0  0  0  0  0  0  0  0  0  0
    5.9589   -0.6624    0.0000 H   0  0  0  0  0  0  0  0  0  0  0  0
    7.2766    2.6569    0.0000 H   0  0  0  0  0  0  0  0  0  0  0  0
    3.9559    2.2832    0.0000 H   0  0  0  0  0  0  0  0  0  0  0  0
    5.3850    2.3832    0.0000 H   0  0  0  0  0  0  0  0  0  0  0  0
    4.4583    1.8483    0.0000 H   0  0  0  0  0  0  0  0  0  0  0  0
    3.7436    0.3657    0.0000 H   0  0  0  0  0  0  0  0  0  0  0  0
    7.2123   -1.1928    0.0000 H   0  0  0  0  0  0  0  0  0  0  0  0
    7.9369   -0.3417    0.0000 H   0  0  0  0  0  0  0  0  0  0  0  0
    8.4314    0.4882    0.0000 H   0  0  0  0  0  0  0  0  0  0  0  0
    7.8476   -0.4650    0.0000 H   0  0  0  0  0  0  0  0  0  0  0  0
    6.3308   -1.7204    0.0000 H   0  0  0  0  0  0  0  0  0  0  0  0
    5.4083   -2.2661    0.0000 H   0  0  0  0  0  0  0  0  0  0  0  0
    5.5869   -2.1611    0.0000 H   0  0  0  0  0  0  0  0  0  0  0  0
    7.0259    2.2607    0.0000 H   0  0  0  0  0  0  0  0  0  0  0  0
    5.1727    2.2607    0.0000 H   0  0  0  0  0  0  0  0  0  0  0  0
    6.0993    2.7957    0.0000 H   0  0  0  0  0  0  0  0  0  0  0  0
    4.3375    1.2493    0.0000 H   0  0  0  0  0  0  0  0  0  0  0  0
    2.5911    0.6288    0.0000 H   0  0  0  0  0  0  0  0  0  0  0  0
    3.2852    1.4432    0.0000 H   0  0  0  0  0  0  0  0  0  0  0  0
    3.1749    1.1547    0.0000 H   0  0  0  0  0  0  0  0  0  0  0  0
    3.7357   -2.9949    0.0000 H   0  0  0  0  0  0  0  0  0  0  0  0
    5.5890   -2.9879    0.0000 H   0  0  0  0  0  0  0  0  0  0  0  0
    4.6643   -3.5264    0.0000 H   0  0  0  0  0  0  0  0  0  0  0  0
    3.1453   -2.6874    0.0000 H   0  0  0  0  0  0  0  0  0  0  0  0
    1.4852    0.2136    0.0000 H   0  0  0  0  0  0  0  0  0  0  0  0
    8.4114    0.2347    0.0000 H   0  0  0  0  0  0  0  0  0  0  0  0
    9.1680    1.9265    0.0000 H   0  0  0  0  0  0  0  0  0  0  0  0
    9.2781    0.8622    0.0000 H   0  0  0  0  0  0  0  0  0  0  0  0
  2 30  1  0  0  0  0
  3 31  1  0  0  0  0
  4 20  2  0  0  0  0
  5 27  2  0  0  0  0
  6  7  1  0  0  0  0
  6 10  1  0  0  0  0
  6 11  1  0  0  0  0
  6 18  1  1  0  0  0
  7  8  1  0  0  0  0
  7 13  1  0  0  0  0
  7 28  1  6  0  0  0
  8  9  1  0  0  0  0
  8 16  1  0  0  0  0
  8 29  1  1  0  0  0
  9  1  1  6  0  0  0
  9 12  1  0  0  0  0
  9 14  1  0  0  0  0
 10  2  1  6  0  0  0
 10 15  1  0  0  0  0
 10 20  1  0  0  0  0
 11 12  1  0  0  0  0
 11 32  1  0  0  0  0
 11 33  1  0  0  0  0
 12  3  1  0  0  0  0
 12 34  1  6  0  0  0
 13 15  1  0  0  0  0
 13 35  1  0  0  0  0
 13 36  1  0  0  0  0
 14 19  1  0  0  0  0
 14 21  1  1  0  0  0
 14 22  1  0  0  0  0
 15 37  1  0  0  0  0
 15 38  1  0  0  0  0
 16 17  1  0  0  0  0
 16 39  1  0  0  0  0
 16 40  1  0  0  0  0
 17 19  1  0  0  0  0
 17 23  1  0  0  0  0
 17 41  1  1  0  0  0
 18 42  1  0  0  0  0
 18 43  1  0  0  0  0
 18 44  1  0  0  0  0
 19 24  2  0  0  0  0
 20 26  1  0  0  0  0
 21 45  1  0  0  0  0
 21 46  1  0  0  0  0
 21 47  1  0  0  0  0
 22 25  2  0  0  0  0
 22 48  1  0  0  0  0
 23 49  1  0  0  0  0
 23 50  1  0  0  0  0
 23 51  1  0  0  0  0
 24 27  1  0  0  0  0
 24 52  1  0  0  0  0
 25 27  1  0  0  0  0
 25 53  1  0  0  0  0
 26 54  1  0  0  0  0
 26 55  1  0  0  0  0
 26 56  1  0  0  0  0
M  END
>  <DRUGBANK_ID>
DB00324

>  <SECONDARY_ACCESSION_NUMBERS>
APRD00980

>  <COMMON_NAME>
Fluorometholone

>  <CAS_NUMBER>
426-13-1

>  <UNII>
SV0CSG527L

>  <SYNONYMS>
(1R,2S,8S,10S,11S,14R,15S,17S)-14-acetyl-1-fluoro-14,17-dihydroxy-2,8,15-trimethyltetracyclo[8.7.0.02,7.011,15]heptadeca-3,6-dien-5-one; 9-Fluoro-11beta,17-dihydroxy-6alpha-methylpregna-1,4-diene-3,20-dione; Fluorometholon; Fluorom√©tholone; Fluorometholone; Fluorometholonum; Fluorometolona

$$$$
