RP4
 OpenBabel10282417072D

 43 45  0  0  0  0  0  0  0  0999 V2000
    1.4800    2.1089    0.0000 O   0  0  0  0  0  0  0  0  0  0  0  0
    1.7622    1.3336    0.0000 C   0  0  0  0  0  0  0  0  0  0  0  0
    2.5747    1.1904    0.0000 O   0  0  0  0  0  0  0  0  0  0  0  0
    1.2319    0.7016    0.0000 C   0  0  1  0  0  0  0  0  0  0  0  0
    0.7016    1.3336    0.0000 O   0  0  0  0  0  0  0  0  0  0  0  0
    1.9464    0.2891    0.0000 C   0  0  0  0  0  0  0  0  0  0  0  0
    1.9464   -0.5359    0.0000 C   0  0  1  0  0  0  0  0  0  0  0  0
    2.6608   -0.9484    0.0000 O   0  0  0  0  0  0  0  0  0  0  0  0
    1.2319   -0.9484    0.0000 C   0  0  2  0  0  0  0  0  0  0  0  0
    1.2319   -1.7734    0.0000 O   0  0  0  0  0  0  0  0  0  0  0  0
    0.5174   -0.5359    0.0000 C   0  0  0  0  0  0  0  0  0  0  0  0
    0.5174    0.2891    0.0000 C   0  0  0  0  0  0  0  0  0  0  0  0
   -0.1971   -0.9484    0.0000 C   0  0  0  0  0  0  0  0  0  0  0  0
   -0.1971   -1.7734    0.0000 C   0  0  0  0  0  0  0  0  0  0  0  0
   -0.9115   -2.1859    0.0000 C   0  0  0  0  0  0  0  0  0  0  0  0
   -1.6260   -1.7734    0.0000 C   0  0  0  0  0  0  0  0  0  0  0  0
   -1.6260   -0.9484    0.0000 C   0  0  0  0  0  0  0  0  0  0  0  0
   -0.9115   -0.5359    0.0000 C   0  0  0  0  0  0  0  0  0  0  0  0
   -2.3405   -0.5359    0.0000 S   0  0  0  0  0  0  0  0  0  0  0  0
   -2.3405    0.2891    0.0000 C   0  0  0  0  0  0  0  0  0  0  0  0
   -3.0549    0.7016    0.0000 C   0  0  0  0  0  0  0  0  0  0  0  0
   -3.0549    1.5266    0.0000 C   0  0  0  0  0  0  0  0  0  0  0  0
   -2.3405    1.9391    0.0000 C   0  0  0  0  0  0  0  0  0  0  0  0
   -1.6260    1.5266    0.0000 C   0  0  0  0  0  0  0  0  0  0  0  0
   -1.6260    0.7016    0.0000 C   0  0  0  0  0  0  0  0  0  0  0  0
    2.4521   -0.2439    0.0000 H   0  0  0  0  0  0  0  0  0  0  0  0
    1.7376   -1.2403    0.0000 H   0  0  0  0  0  0  0  0  0  0  0  0
    2.8952    0.3099    0.0000 H   0  0  0  0  0  0  0  0  0  0  0  0
    1.0334    2.2451    0.0000 H   0  0  0  0  0  0  0  0  0  0  0  0
    2.8730    0.8241    0.0000 H   0  0  0  0  0  0  0  0  0  0  0  0
    2.8730   -0.2459    0.0000 H   0  0  0  0  0  0  0  0  0  0  0  0
    2.6608   -1.9184    0.0000 H   0  0  0  0  0  0  0  0  0  0  0  0
    0.3919   -2.2584    0.0000 H   0  0  0  0  0  0  0  0  0  0  0  0
   -0.3763    0.8051    0.0000 H   0  0  0  0  0  0  0  0  0  0  0  0
    0.6966   -2.2894    0.0000 H   0  0  0  0  0  0  0  0  0  0  0  0
   -0.9115   -3.2179    0.0000 H   0  0  0  0  0  0  0  0  0  0  0  0
   -2.5197   -2.2894    0.0000 H   0  0  0  0  0  0  0  0  0  0  0  0
   -0.9115    0.4961    0.0000 H   0  0  0  0  0  0  0  0  0  0  0  0
   -3.9486    0.1856    0.0000 H   0  0  0  0  0  0  0  0  0  0  0  0
   -3.9486    2.0426    0.0000 H   0  0  0  0  0  0  0  0  0  0  0  0
   -2.3405    2.9711    0.0000 H   0  0  0  0  0  0  0  0  0  0  0  0
   -0.7323    2.0426    0.0000 H   0  0  0  0  0  0  0  0  0  0  0  0
   -0.7323    0.1856    0.0000 H   0  0  0  0  0  0  0  0  0  0  0  0
  1  2  2  0  0  0  0
  2  3  1  0  0  0  0
  3 28  1  0  0  0  0
  4  2  1  1  0  0  0
  4  5  1  0  0  0  0
  4  6  1  0  0  0  0
  4 12  1  0  0  0  0
  5 29  1  0  0  0  0
  6  7  1  0  0  0  0
  6 30  1  0  0  0  0
  6 31  1  0  0  0  0
  7  8  1  0  0  0  0
  7  9  1  0  0  0  0
  7 26  1  6  0  0  0
  8 32  1  0  0  0  0
  9 10  1  0  0  0  0
  9 11  1  0  0  0  0
  9 27  1  1  0  0  0
 10 33  1  0  0  0  0
 11 12  2  0  0  0  0
 11 13  1  0  0  0  0
 12 34  1  0  0  0  0
 13 14  2  0  0  0  0
 13 18  1  0  0  0  0
 14 15  1  0  0  0  0
 14 35  1  0  0  0  0
 15 16  2  0  0  0  0
 15 36  1  0  0  0  0
 16 17  1  0  0  0  0
 16 37  1  0  0  0  0
 17 18  2  0  0  0  0
 17 19  1  0  0  0  0
 18 38  1  0  0  0  0
 19 20  1  0  0  0  0
 20 21  2  0  0  0  0
 20 25  1  0  0  0  0
 21 22  1  0  0  0  0
 21 39  1  0  0  0  0
 22 23  2  0  0  0  0
 22 40  1  0  0  0  0
 23 24  1  0  0  0  0
 23 41  1  0  0  0  0
 24 25  2  0  0  0  0
 24 42  1  0  0  0  0
 25 43  1  0  0  0  0
M  END
>  <DRUGBANK_ID>
DB08485

>  <COMMON_NAME>
(1S,4S,5S)-1,4,5-TRIHYDROXY-3-[3-(PHENYLTHIO)PHENYL]CYCLOHEX-2-ENE-1-CARBOXYLIC ACID

$$$$
