PDZ
 OpenBabel10282417072D

 35 37  0  0  0  0  0  0  0  0999 V2000
    1.7930    2.4655    0.0000 C   0  0  0  0  0  0  0  0  0  0  0  0
    2.5075    2.0530    0.0000 C   0  0  0  0  0  0  0  0  0  0  0  0
    2.5075    1.2280    0.0000 C   0  0  0  0  0  0  0  0  0  0  0  0
    1.7930    0.8155    0.0000 C   0  0  0  0  0  0  0  0  0  0  0  0
    1.0786    1.2280    0.0000 C   0  0  0  0  0  0  0  0  0  0  0  0
    1.0786    2.0530    0.0000 C   0  0  0  0  0  0  0  0  0  0  0  0
    0.3641    0.8155    0.0000 O   0  0  0  0  0  0  0  0  0  0  0  0
    0.3641   -0.0095    0.0000 C   0  0  0  0  0  0  0  0  0  0  0  0
    1.0786   -0.4220    0.0000 C   0  0  0  0  0  0  0  0  0  0  0  0
    1.0786   -1.2470    0.0000 C   0  0  0  0  0  0  0  0  0  0  0  0
    0.3641   -1.6595    0.0000 C   0  0  0  0  0  0  0  0  0  0  0  0
   -0.3504   -1.2470    0.0000 C   0  0  0  0  0  0  0  0  0  0  0  0
   -0.3504   -0.4220    0.0000 C   0  0  0  0  0  0  0  0  0  0  0  0
   -1.0649   -1.6595    0.0000 C   0  0  0  0  0  0  0  0  0  0  0  0
    1.7930   -0.0095    0.0000 Cl  0  0  0  0  0  0  0  0  0  0  0  0
   -1.0649   -0.0095    0.0000 F   0  0  0  0  0  0  0  0  0  0  0  0
   -1.7793   -1.2470    0.0000 C   0  0  0  0  0  0  0  0  0  0  0  0
   -2.4938   -1.6595    0.0000 C   0  0  0  0  0  0  0  0  0  0  0  0
   -3.2083   -1.2470    0.0000 C   0  0  0  0  0  0  0  0  0  0  0  0
   -3.2083   -0.4220    0.0000 C   0  0  0  0  0  0  0  0  0  0  0  0
   -2.4938   -0.0095    0.0000 N   0  0  0  0  0  0  0  0  0  0  0  0
   -1.7793   -0.4220    0.0000 N   0  0  0  0  0  0  0  0  0  0  0  0
   -3.9227   -0.0095    0.0000 O   0  0  0  0  0  0  0  0  0  0  0  0
    1.7930    3.4975    0.0000 H   0  0  0  0  0  0  0  0  0  0  0  0
    3.4012    2.5690    0.0000 H   0  0  0  0  0  0  0  0  0  0  0  0
    3.4012    0.7120    0.0000 H   0  0  0  0  0  0  0  0  0  0  0  0
    1.7930   -0.2165    0.0000 H   0  0  0  0  0  0  0  0  0  0  0  0
    0.1849    2.5690    0.0000 H   0  0  0  0  0  0  0  0  0  0  0  0
    1.9723   -1.7630    0.0000 H   0  0  0  0  0  0  0  0  0  0  0  0
    0.3641   -2.6915    0.0000 H   0  0  0  0  0  0  0  0  0  0  0  0
   -1.0649   -2.7295    0.0000 H   0  0  0  0  0  0  0  0  0  0  0  0
   -1.9916   -2.1945    0.0000 H   0  0  0  0  0  0  0  0  0  0  0  0
   -2.4938   -2.6915    0.0000 H   0  0  0  0  0  0  0  0  0  0  0  0
   -4.1020   -1.7630    0.0000 H   0  0  0  0  0  0  0  0  0  0  0  0
   -2.4938    0.9750    0.0000 H   0  0  0  0  0  0  0  0  0  0  0  0
  1  2  2  0  0  0  0
  1  6  1  0  0  0  0
  1 24  1  0  0  0  0
  2  3  1  0  0  0  0
  2 25  1  0  0  0  0
  3  4  2  0  0  0  0
  3 26  1  0  0  0  0
  4  5  1  0  0  0  0
  4 27  1  0  0  0  0
  5  6  2  0  0  0  0
  5  7  1  0  0  0  0
  6 28  1  0  0  0  0
  7  8  1  0  0  0  0
  8  9  2  0  0  0  0
  8 13  1  0  0  0  0
  9 10  1  0  0  0  0
  9 15  1  0  0  0  0
 10 11  2  0  0  0  0
 10 29  1  0  0  0  0
 11 12  1  0  0  0  0
 11 30  1  0  0  0  0
 12 13  2  0  0  0  0
 12 14  1  0  0  0  0
 13 16  1  0  0  0  0
 14 17  1  0  0  0  0
 14 31  1  0  0  0  0
 14 32  1  0  0  0  0
 17 18  1  0  0  0  0
 17 22  2  0  0  0  0
 18 19  2  0  0  0  0
 18 33  1  0  0  0  0
 19 20  1  0  0  0  0
 19 34  1  0  0  0  0
 20 21  1  0  0  0  0
 20 23  2  0  0  0  0
 21 22  1  0  0  0  0
 21 35  1  0  0  0  0
M  END
>  <DRUGBANK_ID>
DB08379

>  <COMMON_NAME>
6-(4-chloro-2-fluoro-3-phenoxybenzyl)pyridazin-3(2H)-one

$$$$
