
 OpenBabel10282417072D

 19 16  0  0  0  0  0  0  0  0999 V2000
    2.0696   -0.3580    0.0000 Cu  0  2  0  0  0  0  0  0  0  0  0  0
    0.0000   -0.3580    0.0000 O   0  0  0  0  0  0  0  0  0  0  0  0
    0.8278   -0.3580    0.0000 C   0  0  0  0  0  0  0  0  0  0  0  0
    1.2376   -1.0740    0.0000 O   0  5  0  0  0  0  0  0  0  0  0  0
    1.2376    0.3580    0.0000 C   0  0  0  0  0  0  0  0  0  0  0  0
    0.8278    1.0740    0.0000 N   0  0  0  0  0  0  0  0  0  0  0  0
   -2.0696   -0.3580    0.0000 O   0  5  0  0  0  0  0  0  0  0  0  0
   -1.2417   -0.3580    0.0000 C   0  0  0  0  0  0  0  0  0  0  0  0
   -0.8319   -1.0740    0.0000 O   0  0  0  0  0  0  0  0  0  0  0  0
   -0.8319    0.3580    0.0000 C   0  0  0  0  0  0  0  0  0  0  0  0
   -1.2417    1.0740    0.0000 N   0  0  0  0  0  0  0  0  0  0  0  0
    2.3076    0.3580    0.0000 H   0  0  0  0  0  0  0  0  0  0  0  0
    1.7743    1.2836    0.0000 H   0  0  0  0  0  0  0  0  0  0  0  0
    1.3411    1.9554    0.0000 H   0  0  0  0  0  0  0  0  0  0  0  0
   -0.1922    1.0778    0.0000 H   0  0  0  0  0  0  0  0  0  0  0  0
    0.2381    0.3580    0.0000 H   0  0  0  0  0  0  0  0  0  0  0  0
   -0.2952    1.2836    0.0000 H   0  0  0  0  0  0  0  0  0  0  0  0
   -0.7284    1.9554    0.0000 H   0  0  0  0  0  0  0  0  0  0  0  0
   -2.2617    1.0778    0.0000 H   0  0  0  0  0  0  0  0  0  0  0  0
  2  3  2  0  0  0  0
  3  4  1  0  0  0  0
  3  5  1  0  0  0  0
  5  6  1  0  0  0  0
  5 12  1  0  0  0  0
  5 13  1  0  0  0  0
  6 14  1  0  0  0  0
  6 15  1  0  0  0  0
  7  8  1  0  0  0  0
  8  9  2  0  0  0  0
  8 10  1  0  0  0  0
 10 11  1  0  0  0  0
 10 16  1  0  0  0  0
 10 17  1  0  0  0  0
 11 18  1  0  0  0  0
 11 19  1  0  0  0  0
M  CHG  3   1   2   4  -1   7  -1
M  END
>  <DRUGBANK_ID>
DB11509

>  <COMMON_NAME>
Cupric glycinate

>  <CAS_NUMBER>
13479-54-4

>  <UNII>
68VAV8QID7

>  <SYNONYMS>
Copper glycinate; Copper(II) biglycinate; Copper(II) diglycinate; Copper(II) glycinate; Cupric aminoacetate; Cupric glycinate

$$$$
