
 OpenBabel10282417072D

 32 32  0  0  0  0  0  0  0  0999 V2000
    1.0718    1.2376    0.0000 C   0  0  0  0  0  0  0  0  0  0  0  0
    0.3573    1.6500    0.0000 C   0  0  0  0  0  0  0  0  0  0  0  0
    1.0720    0.4125    0.0000 C   0  0  0  0  0  0  0  0  0  0  0  0
    1.7863    1.6503    0.0000 C   0  0  0  0  0  0  0  0  0  0  0  0
   -0.3571    1.2374    0.0000 C   0  0  0  0  0  0  0  0  0  0  0  0
    0.3571    2.4751    0.0000 I   0  0  0  0  0  0  0  0  0  0  0  0
    0.3574    0.0000    0.0000 C   0  0  0  0  0  0  0  0  0  0  0  0
    1.7865    0.0002    0.0000 I   0  0  0  0  0  0  0  0  0  0  0  0
    1.7863    2.4752    0.0000 O   0  0  0  0  0  0  0  0  0  0  0  0
    2.5008    1.2377    0.0000 O   0  0  0  0  0  0  0  0  0  0  0  0
   -0.3571    0.4125    0.0000 C   0  0  0  0  0  0  0  0  0  0  0  0
   -1.0718    1.6500    0.0000 N   0  0  0  0  0  0  0  0  0  0  0  0
    0.3575   -0.8250    0.0000 C   0  0  0  0  0  0  0  0  0  0  0  0
   -1.0717   -0.0001    0.0000 I   0  0  0  0  0  0  0  0  0  0  0  0
   -1.7862    1.2374    0.0000 C   0  0  0  0  0  0  0  0  0  0  0  0
   -0.3569   -1.2375    0.0000 N   0  0  0  0  0  0  0  0  0  0  0  0
   -1.7862    0.4124    0.0000 O   0  0  0  0  0  0  0  0  0  0  0  0
   -2.5008    1.6500    0.0000 C   0  0  0  0  0  0  0  0  0  0  0  0
   -0.3568   -2.0628    0.0000 C   0  0  0  0  0  0  0  0  0  0  0  0
   -1.0714   -2.4752    0.0000 O   0  0  0  0  0  0  0  0  0  0  0  0
    0.3577   -2.4751    0.0000 C   0  0  0  0  0  0  0  0  0  0  0  0
    2.5007    0.3007    0.0000 H   0  0  0  0  0  0  0  0  0  0  0  0
   -1.0719    2.6345    0.0000 H   0  0  0  0  0  0  0  0  0  0  0  0
    1.2842   -1.3599    0.0000 H   0  0  0  0  0  0  0  0  0  0  0  0
    0.3576   -1.8950    0.0000 H   0  0  0  0  0  0  0  0  0  0  0  0
   -1.2095   -0.7453    0.0000 H   0  0  0  0  0  0  0  0  0  0  0  0
   -2.5008    2.7200    0.0000 H   0  0  0  0  0  0  0  0  0  0  0  0
   -3.4275    1.1150    0.0000 H   0  0  0  0  0  0  0  0  0  0  0  0
   -3.4274    2.1850    0.0000 H   0  0  0  0  0  0  0  0  0  0  0  0
    0.3579   -3.5451    0.0000 H   0  0  0  0  0  0  0  0  0  0  0  0
    1.2842   -1.9399    0.0000 H   0  0  0  0  0  0  0  0  0  0  0  0
    1.2845   -3.0099    0.0000 H   0  0  0  0  0  0  0  0  0  0  0  0
  1  2  1  0  0  0  0
  1  3  2  0  0  0  0
  1  4  1  0  0  0  0
  2  5  2  0  0  0  0
  2  6  1  0  0  0  0
  3  7  1  0  0  0  0
  3  8  1  0  0  0  0
  4  9  2  0  0  0  0
  4 10  1  0  0  0  0
  5 11  1  0  0  0  0
  5 12  1  0  0  0  0
  7 11  2  0  0  0  0
  7 13  1  0  0  0  0
 10 22  1  0  0  0  0
 11 14  1  0  0  0  0
 12 15  1  0  0  0  0
 12 23  1  0  0  0  0
 13 16  1  0  0  0  0
 13 24  1  0  0  0  0
 13 25  1  0  0  0  0
 15 17  2  0  0  0  0
 15 18  1  0  0  0  0
 16 19  1  0  0  0  0
 16 26  1  0  0  0  0
 18 27  1  0  0  0  0
 18 28  1  0  0  0  0
 18 29  1  0  0  0  0
 19 20  2  0  0  0  0
 19 21  1  0  0  0  0
 21 30  1  0  0  0  0
 21 31  1  0  0  0  0
 21 32  1  0  0  0  0
M  END
>  <DRUGBANK_ID>
DB08948

>  <COMMON_NAME>
Iodamide

>  <CAS_NUMBER>
440-58-4

>  <UNII>
4RII332O0R

>  <SYNONYMS>
Ametriiodic acid; Ametriiodinic acid; Ametriodinic acid; Iodamida; Iodamide; Iodamidum; Urombrine

$$$$
