SBZ
 OpenBabel10282417072D

 30 31  0  0  0  0  0  0  0  0999 V2000
   -1.4616    1.2489    0.0000 B   0  0  0  0  0  0  0  0  0  0  0  0
   -0.9767    0.5815    0.0000 O   0  0  0  0  0  0  0  0  0  0  0  0
   -2.2866    1.2489    0.0000 O   0  0  0  0  0  0  0  0  0  0  0  0
   -1.2067    2.0335    0.0000 O   0  0  0  0  0  0  0  0  0  0  0  0
   -2.5416    2.0335    0.0000 C   0  0  0  0  0  0  0  0  0  0  0  0
   -1.8741    2.5184    0.0000 C   0  0  0  0  0  0  0  0  0  0  0  0
   -0.1562    0.6677    0.0000 C   0  0  0  0  0  0  0  0  0  0  0  0
    0.3287    0.0002    0.0000 C   0  0  0  0  0  0  0  0  0  0  0  0
    1.1492    0.0865    0.0000 C   0  0  0  0  0  0  0  0  0  0  0  0
   -0.0069   -0.7534    0.0000 C   0  0  0  0  0  0  0  0  0  0  0  0
    1.6341   -0.5810    0.0000 C   0  0  0  0  0  0  0  0  0  0  0  0
    0.4781   -1.4209    0.0000 C   0  0  0  0  0  0  0  0  0  0  0  0
    1.2985   -1.3346    0.0000 C   0  0  0  0  0  0  0  0  0  0  0  0
    1.7835   -2.0021    0.0000 C   0  0  0  0  0  0  0  0  0  0  0  0
    2.6039   -1.9158    0.0000 N   0  3  0  0  0  0  0  0  0  0  0  0
    1.4479   -2.7557    0.0000 N   0  0  0  0  0  0  0  0  0  0  0  0
   -3.5592    2.3641    0.0000 H   0  0  0  0  0  0  0  0  0  0  0  0
   -2.7090    3.0903    0.0000 H   0  0  0  0  0  0  0  0  0  0  0  0
   -1.8741    3.5884    0.0000 H   0  0  0  0  0  0  0  0  0  0  0  0
   -2.8275    3.0042    0.0000 H   0  0  0  0  0  0  0  0  0  0  0  0
    0.2791    1.6452    0.0000 H   0  0  0  0  0  0  0  0  0  0  0  0
    0.9079    0.7795    0.0000 H   0  0  0  0  0  0  0  0  0  0  0  0
    1.5689    1.0293    0.0000 H   0  0  0  0  0  0  0  0  0  0  0  0
   -1.0332   -0.8612    0.0000 H   0  0  0  0  0  0  0  0  0  0  0  0
    2.6605   -0.4732    0.0000 H   0  0  0  0  0  0  0  0  0  0  0  0
    0.0584   -2.3637    0.0000 H   0  0  0  0  0  0  0  0  0  0  0  0
    3.1826   -2.7122    0.0000 H   0  0  0  0  0  0  0  0  0  0  0  0
    3.0043   -1.0164    0.0000 H   0  0  0  0  0  0  0  0  0  0  0  0
    0.4688   -2.8585    0.0000 H   0  0  0  0  0  0  0  0  0  0  0  0
    2.0265   -3.5522    0.0000 H   0  0  0  0  0  0  0  0  0  0  0  0
  1  2  1  0  0  0  0
  1  3  1  0  0  0  0
  1  4  1  0  0  0  0
  2  7  1  0  0  0  0
  3  5  1  0  0  0  0
  4  6  1  0  0  0  0
  5  6  1  0  0  0  0
  5 17  1  0  0  0  0
  5 18  1  0  0  0  0
  6 19  1  0  0  0  0
  6 20  1  0  0  0  0
  7  8  1  0  0  0  0
  7 21  1  0  0  0  0
  7 22  1  0  0  0  0
  8  9  2  0  0  0  0
  8 10  1  0  0  0  0
  9 11  1  0  0  0  0
  9 23  1  0  0  0  0
 10 12  2  0  0  0  0
 10 24  1  0  0  0  0
 11 13  2  0  0  0  0
 11 25  1  0  0  0  0
 12 13  1  0  0  0  0
 12 26  1  0  0  0  0
 13 14  1  0  0  0  0
 14 15  2  0  0  0  0
 14 16  1  0  0  0  0
 15 27  1  0  0  0  0
 15 28  1  0  0  0  0
 16 29  1  0  0  0  0
 16 30  1  0  0  0  0
M  CHG  1  15   1
M  END
>  <DRUGBANK_ID>
DB04109

>  <SECONDARY_ACCESSION_NUMBERS>
EXPT02862

>  <COMMON_NAME>
[4-(1,3,2-Dioxaborolan-2-Yloxy)Methyl]Benzamidine

$$$$
