639
 OpenBabel10282417072D

 42 44  0  0  1  0  0  0  0  0999 V2000
    4.5080   -0.9085    0.0000 Cl  0  0  0  0  0  0  0  0  0  0  0  0
    1.6500   -0.9085    0.0000 Cl  0  0  0  0  0  0  0  0  0  0  0  0
    8.0804   -1.3210    0.0000 Cl  0  0  0  0  0  0  0  0  0  0  0  0
    3.0791   -0.0835    0.0000 S   0  0  0  0  0  0  0  0  0  0  0  0
    4.5080    1.5665    0.0000 N   0  0  0  0  0  0  0  0  0  0  0  0
    5.4012    2.5585    0.0000 N   0  0  0  0  0  0  0  0  0  0  0  0
    3.7935    0.3290    0.0000 C   0  0  3  0  0  0  0  0  0  0  0  0
    4.5080   -0.0835    0.0000 C   0  0  0  0  0  0  0  0  0  0  0  0
    3.7935    1.1540    0.0000 C   0  0  0  0  0  0  0  0  0  0  0  0
    5.2224    0.3290    0.0000 C   0  0  0  0  0  0  0  0  0  0  0  0
    5.9370   -0.0835    0.0000 C   0  0  0  0  0  0  0  0  0  0  0  0
    3.0791   -0.9085    0.0000 C   0  0  0  0  0  0  0  0  0  0  0  0
    5.2616    1.2309    0.0000 C   0  0  0  0  0  0  0  0  0  0  0  0
    4.5942    2.3870    0.0000 C   0  0  0  0  0  0  0  0  0  0  0  0
    6.6515    0.3290    0.0000 C   0  0  0  0  0  0  0  0  0  0  0  0
    5.9370   -0.9085    0.0000 C   0  0  0  0  0  0  0  0  0  0  0  0
    5.8137    1.8441    0.0000 C   0  0  0  0  0  0  0  0  0  0  0  0
    7.3659   -0.0835    0.0000 C   0  0  0  0  0  0  0  0  0  0  0  0
    6.6515   -1.3210    0.0000 C   0  0  0  0  0  0  0  0  0  0  0  0
    3.7935   -1.3210    0.0000 C   0  0  0  0  0  0  0  0  0  0  0  0
    2.3645   -1.3210    0.0000 C   0  0  0  0  0  0  0  0  0  0  0  0
    7.3659   -0.9085    0.0000 C   0  0  0  0  0  0  0  0  0  0  0  0
    3.7935   -2.1460    0.0000 C   0  0  0  0  0  0  0  0  0  0  0  0
    2.3645   -2.1460    0.0000 C   0  0  0  0  0  0  0  0  0  0  0  0
    3.0791   -2.5585    0.0000 C   0  0  0  0  0  0  0  0  0  0  0  0
    3.7935   -0.7410    0.0000 H   0  0  0  0  0  0  0  0  0  0  0  0
    4.5080   -1.1535    0.0000 H   0  0  0  0  0  0  0  0  0  0  0  0
    5.4347   -0.6185    0.0000 H   0  0  0  0  0  0  0  0  0  0  0  0
    2.8669    1.6890    0.0000 H   0  0  0  0  0  0  0  0  0  0  0  0
    2.8669    0.6190    0.0000 H   0  0  0  0  0  0  0  0  0  0  0  0
    5.2223    1.3990    0.0000 H   0  0  0  0  0  0  0  0  0  0  0  0
    6.1490    0.8641    0.0000 H   0  0  0  0  0  0  0  0  0  0  0  0
    5.4761    0.2214    0.0000 H   0  0  0  0  0  0  0  0  0  0  0  0
    3.8273    3.0775    0.0000 H   0  0  0  0  0  0  0  0  0  0  0  0
    6.6515    1.3610    0.0000 H   0  0  0  0  0  0  0  0  0  0  0  0
    5.0433   -1.4245    0.0000 H   0  0  0  0  0  0  0  0  0  0  0  0
    6.8401    1.7363    0.0000 H   0  0  0  0  0  0  0  0  0  0  0  0
    8.2596    0.4325    0.0000 H   0  0  0  0  0  0  0  0  0  0  0  0
    6.6515   -2.3530    0.0000 H   0  0  0  0  0  0  0  0  0  0  0  0
    4.6872   -2.6620    0.0000 H   0  0  0  0  0  0  0  0  0  0  0  0
    1.4708   -2.6620    0.0000 H   0  0  0  0  0  0  0  0  0  0  0  0
    3.0792   -3.5905    0.0000 H   0  0  0  0  0  0  0  0  0  0  0  0
  1 20  1  0  0  0  0
  2 21  1  0  0  0  0
  3 22  1  0  0  0  0
  4  7  1  0  0  0  0
  4 12  1  0  0  0  0
  5  9  1  0  0  0  0
  5 13  1  0  0  0  0
  5 14  1  0  0  0  0
  6 14  2  0  0  0  0
  6 17  1  0  0  0  0
  7  8  1  0  0  0  0
  7  9  1  0  0  0  0
  7 26  1  0  0  0  0
  8 10  1  0  0  0  0
  8 27  1  0  0  0  0
  8 28  1  0  0  0  0
  9 29  1  0  0  0  0
  9 30  1  0  0  0  0
 10 11  1  0  0  0  0
 10 31  1  0  0  0  0
 10 32  1  0  0  0  0
 11 15  2  0  0  0  0
 11 16  1  0  0  0  0
 12 20  2  0  0  0  0
 12 21  1  0  0  0  0
 13 17  2  0  0  0  0
 13 33  1  0  0  0  0
 14 34  1  0  0  0  0
 15 18  1  0  0  0  0
 15 35  1  0  0  0  0
 16 19  2  0  0  0  0
 16 36  1  0  0  0  0
 17 37  1  0  0  0  0
 18 22  2  0  0  0  0
 18 38  1  0  0  0  0
 19 22  1  0  0  0  0
 19 39  1  0  0  0  0
 20 23  1  0  0  0  0
 21 24  2  0  0  0  0
 23 25  2  0  0  0  0
 23 40  1  0  0  0  0
 24 25  1  0  0  0  0
 24 41  1  0  0  0  0
 25 42  1  0  0  0  0
M  END
>  <DRUGBANK_ID>
DB00639

>  <SECONDARY_ACCESSION_NUMBERS>
APRD00834

>  <COMMON_NAME>
Butoconazole

>  <CAS_NUMBER>
64872-76-0

>  <UNII>
0Q771797PH

>  <SYNONYMS>
1-[4-(4-Chloro-phenyl)-2-(2,6-dichloro-phenylsulfanyl)-butyl]-1H-imidazole; Butoconazol; Butoconazole; Butoconazolum

$$$$
