
 OpenBabel10282417072D

 68 67  0  0  1  0  0  0  0  0999 V2000
    7.8100    0.4130    0.0000 C   0  0  0  0  0  0  0  0  0  0  0  0
    7.0400    0.7094    0.0000 C   0  0  0  0  0  0  0  0  0  0  0  0
    6.3984    0.1907    0.0000 C   0  0  0  0  0  0  0  0  0  0  0  0
    6.9117    1.5243    0.0000 C   0  0  0  0  0  0  0  0  0  0  0  0
    7.5533    2.0429    0.0000 C   0  0  2  0  0  0  0  0  0  0  0  0
    7.4250    2.8579    0.0000 N   0  0  0  0  0  0  0  0  0  0  0  0
    6.6551    3.1542    0.0000 C   0  0  0  0  0  0  0  0  0  0  0  0
    6.0134    2.6356    0.0000 C   0  0  0  0  0  0  0  0  0  0  0  0
    6.5267    3.9692    0.0000 O   0  0  0  0  0  0  0  0  0  0  0  0
    8.3233    1.7466    0.0000 C   0  0  0  0  0  0  0  0  0  0  0  0
    8.4516    0.9316    0.0000 O   0  0  0  0  0  0  0  0  0  0  0  0
    8.9649    2.2652    0.0000 N   0  0  0  0  0  0  0  0  0  0  0  0
    9.7348    1.9688    0.0000 C   0  0  1  0  0  0  0  0  0  0  0  0
    9.8631    1.1539    0.0000 C   0  0  0  0  0  0  0  0  0  0  0  0
   10.6331    0.8575    0.0000 C   0  0  0  0  0  0  0  0  0  0  0  0
   11.2747    1.3761    0.0000 C   0  0  0  0  0  0  0  0  0  0  0  0
   10.7614    0.0426    0.0000 C   0  0  0  0  0  0  0  0  0  0  0  0
   10.3764    2.4874    0.0000 C   0  0  0  0  0  0  0  0  0  0  0  0
   10.2481    3.3024    0.0000 O   0  0  0  0  0  0  0  0  0  0  0  0
   11.1464    2.1911    0.0000 N   0  0  0  0  0  0  0  0  0  0  0  0
   11.7880    2.7097    0.0000 C   0  0  1  0  0  0  0  0  0  0  0  0
   12.5579    2.4134    0.0000 C   0  0  0  0  0  0  0  0  0  0  0  0
   13.1995    2.9320    0.0000 C   0  0  0  0  0  0  0  0  0  0  0  0
   13.9695    2.6356    0.0000 C   0  0  0  0  0  0  0  0  0  0  0  0
   14.6111    3.1542    0.0000 N   0  0  0  0  0  0  0  0  0  0  0  0
   15.3810    2.8579    0.0000 C   0  0  0  0  0  0  0  0  0  0  0  0
   16.0226    3.3765    0.0000 N   0  0  0  0  0  0  0  0  0  0  0  0
   15.5093    2.0429    0.0000 N   0  0  0  0  0  0  0  0  0  0  0  0
   11.6597    3.5247    0.0000 C   0  0  0  0  0  0  0  0  0  0  0  0
   12.3013    4.0433    0.0000 O   0  0  0  0  0  0  0  0  0  0  0  0
    7.9764   -0.6440    0.0000 H   0  0  0  0  0  0  0  0  0  0  0  0
    8.6422    1.0856    0.0000 H   0  0  0  0  0  0  0  0  0  0  0  0
    8.8086    0.0286    0.0000 H   0  0  0  0  0  0  0  0  0  0  0  0
    6.0414    1.0937    0.0000 H   0  0  0  0  0  0  0  0  0  0  0  0
    5.3998    0.5750    0.0000 H   0  0  0  0  0  0  0  0  0  0  0  0
    6.5649   -0.8663    0.0000 H   0  0  0  0  0  0  0  0  0  0  0  0
    5.5663   -0.4820    0.0000 H   0  0  0  0  0  0  0  0  0  0  0  0
    5.9131    1.9087    0.0000 H   0  0  0  0  0  0  0  0  0  0  0  0
    6.7453    2.5813    0.0000 H   0  0  0  0  0  0  0  0  0  0  0  0
    6.5547    2.4273    0.0000 H   0  0  0  0  0  0  0  0  0  0  0  0
    8.1907    3.4768    0.0000 H   0  0  0  0  0  0  0  0  0  0  0  0
    5.0148    3.0200    0.0000 H   0  0  0  0  0  0  0  0  0  0  0  0
    6.1798    1.5786    0.0000 H   0  0  0  0  0  0  0  0  0  0  0  0
    5.1812    1.9630    0.0000 H   0  0  0  0  0  0  0  0  0  0  0  0
    8.8118    3.2377    0.0000 H   0  0  0  0  0  0  0  0  0  0  0  0
    8.9026    1.2962    0.0000 H   0  0  0  0  0  0  0  0  0  0  0  0
    9.0309    0.4813    0.0000 H   0  0  0  0  0  0  0  0  0  0  0  0
   10.0295    0.0969    0.0000 H   0  0  0  0  0  0  0  0  0  0  0  0
   11.6317    0.4731    0.0000 H   0  0  0  0  0  0  0  0  0  0  0  0
   12.2733    0.9917    0.0000 H   0  0  0  0  0  0  0  0  0  0  0  0
   11.1083    2.4331    0.0000 H   0  0  0  0  0  0  0  0  0  0  0  0
   12.1069    2.0487    0.0000 H   0  0  0  0  0  0  0  0  0  0  0  0
    9.9292   -0.6300    0.0000 H   0  0  0  0  0  0  0  0  0  0  0  0
   11.7600   -0.3418    0.0000 H   0  0  0  0  0  0  0  0  0  0  0  0
   10.9278   -1.0144    0.0000 H   0  0  0  0  0  0  0  0  0  0  0  0
   11.2996    1.2186    0.0000 H   0  0  0  0  0  0  0  0  0  0  0  0
   11.9545    1.6527    0.0000 H   0  0  0  0  0  0  0  0  0  0  0  0
   12.7244    1.3564    0.0000 H   0  0  0  0  0  0  0  0  0  0  0  0
   13.5565    2.0291    0.0000 H   0  0  0  0  0  0  0  0  0  0  0  0
   13.0331    3.9890    0.0000 H   0  0  0  0  0  0  0  0  0  0  0  0
   14.0317    3.6046    0.0000 H   0  0  0  0  0  0  0  0  0  0  0  0
   14.1359    1.5786    0.0000 H   0  0  0  0  0  0  0  0  0  0  0  0
   14.9681    2.2512    0.0000 H   0  0  0  0  0  0  0  0  0  0  0  0
   14.4579    4.1267    0.0000 H   0  0  0  0  0  0  0  0  0  0  0  0
   16.9414    3.0229    0.0000 H   0  0  0  0  0  0  0  0  0  0  0  0
   15.8695    4.3490    0.0000 H   0  0  0  0  0  0  0  0  0  0  0  0
   14.7436    1.4241    0.0000 H   0  0  0  0  0  0  0  0  0  0  0  0
   10.6966    3.8954    0.0000 H   0  0  0  0  0  0  0  0  0  0  0  0
  1  2  1  0  0  0  0
  1 31  1  0  0  0  0
  1 32  1  0  0  0  0
  1 33  1  0  0  0  0
  2  3  1  0  0  0  0
  2  4  1  0  0  0  0
  2 34  1  0  0  0  0
  3 35  1  0  0  0  0
  3 36  1  0  0  0  0
  3 37  1  0  0  0  0
  4 38  1  0  0  0  0
  4 39  1  0  0  0  0
  5  4  1  0  0  0  0
  5  6  1  0  0  0  0
  5 10  1  0  0  0  0
  5 40  1  1  0  0  0
  6  7  1  0  0  0  0
  6 41  1  0  0  0  0
  7  8  1  0  0  0  0
  7  9  2  0  0  0  0
  8 42  1  0  0  0  0
  8 43  1  0  0  0  0
  8 44  1  0  0  0  0
 10 11  2  0  0  0  0
 10 12  1  0  0  0  0
 12 45  1  0  0  0  0
 13 12  1  0  0  0  0
 13 14  1  0  0  0  0
 13 18  1  0  0  0  0
 13 46  1  1  0  0  0
 14 15  1  0  0  0  0
 14 47  1  0  0  0  0
 14 48  1  0  0  0  0
 15 16  1  0  0  0  0
 15 17  1  0  0  0  0
 15 49  1  0  0  0  0
 16 50  1  0  0  0  0
 16 51  1  0  0  0  0
 16 52  1  0  0  0  0
 17 53  1  0  0  0  0
 17 54  1  0  0  0  0
 17 55  1  0  0  0  0
 18 19  2  0  0  0  0
 18 20  1  0  0  0  0
 20 56  1  0  0  0  0
 21 20  1  0  0  0  0
 21 22  1  0  0  0  0
 21 29  1  0  0  0  0
 21 57  1  1  0  0  0
 22 23  1  0  0  0  0
 22 58  1  0  0  0  0
 22 59  1  0  0  0  0
 23 24  1  0  0  0  0
 23 60  1  0  0  0  0
 23 61  1  0  0  0  0
 24 25  1  0  0  0  0
 24 62  1  0  0  0  0
 24 63  1  0  0  0  0
 25 26  1  0  0  0  0
 25 64  1  0  0  0  0
 26 27  1  0  0  0  0
 26 28  2  0  0  0  0
 27 65  1  0  0  0  0
 27 66  1  0  0  0  0
 28 67  1  0  0  0  0
 29 30  2  0  0  0  0
 29 68  1  0  0  0  0
M  END
>  <DRUGBANK_ID>
DB16961

>  <COMMON_NAME>
Leupeptin

>  <CAS_NUMBER>
55123-66-5

>  <UNII>
J97339NR3V

>  <SYNONYMS>
Acetyl-l-leucyl-l-leucyl-l-argininal; Acetyl-leucyl-leucyl-argininal; L-leucinamide, n-acetyl-l-leucyl-n-((1s)-4-((aminoiminomethyl)amino)-1-formylbutyl)-; L-leucinamide, n-acetyl-l-leucyl-n-(4-((aminoiminomethyl)amino)-1-formylbutyl)-, (s)-; Leupeptins

$$$$
