
 OpenBabel10282417072D

 33 36  0  0  0  0  0  0  0  0999 V2000
    3.4623    2.3118    0.0000 C   0  0  0  0  0  0  0  0  0  0  0  0
    3.2997    1.5030    0.0000 C   0  0  0  0  0  0  0  0  0  0  0  0
    3.9189    0.9577    0.0000 C   0  0  0  0  0  0  0  0  0  0  0  0
    4.7006    1.2213    0.0000 C   0  0  0  0  0  0  0  0  0  0  0  0
    5.3198    0.6761    0.0000 C   0  0  0  0  0  0  0  0  0  0  0  0
    5.1571   -0.1327    0.0000 N   0  0  0  0  0  0  0  0  0  0  0  0
    4.3754   -0.3963    0.0000 C   0  0  0  0  0  0  0  0  0  0  0  0
    3.7562    0.1489    0.0000 C   0  0  0  0  0  0  0  0  0  0  0  0
    2.9745   -0.1146    0.0000 C   0  0  0  0  0  0  0  0  0  0  0  0
    2.8119   -0.9235    0.0000 C   0  0  0  0  0  0  0  0  0  0  0  0
    2.3553    0.4306    0.0000 C   0  0  0  0  0  0  0  0  0  0  0  0
    2.5180    1.2394    0.0000 C   0  0  0  0  0  0  0  0  0  0  0  0
    1.7990    1.6440    0.0000 N   0  0  0  0  0  0  0  0  0  0  0  0
    1.1920    1.0852    0.0000 C   0  0  0  0  0  0  0  0  0  0  0  0
    1.5359    0.3353    0.0000 C   0  0  0  0  0  0  0  0  0  0  0  0
    1.0583   -0.3374    0.0000 C   0  0  0  0  0  0  0  0  0  0  0  0
    0.2369   -0.2602    0.0000 C   0  0  0  0  0  0  0  0  0  0  0  0
   -0.1069    0.4897    0.0000 C   0  0  0  0  0  0  0  0  0  0  0  0
    0.3706    1.1624    0.0000 C   0  0  0  0  0  0  0  0  0  0  0  0
    4.4762    2.6537    0.0000 H   0  0  0  0  0  0  0  0  0  0  0  0
    2.6593    3.0189    0.0000 H   0  0  0  0  0  0  0  0  0  0  0  0
    3.6732    3.3608    0.0000 H   0  0  0  0  0  0  0  0  0  0  0  0
    4.9040    2.2331    0.0000 H   0  0  0  0  0  0  0  0  0  0  0  0
    6.2977    1.0058    0.0000 H   0  0  0  0  0  0  0  0  0  0  0  0
    4.1720   -1.4081    0.0000 H   0  0  0  0  0  0  0  0  0  0  0  0
    1.7980   -1.2654    0.0000 H   0  0  0  0  0  0  0  0  0  0  0  0
    3.6149   -1.6306    0.0000 H   0  0  0  0  0  0  0  0  0  0  0  0
    2.6010   -1.9725    0.0000 H   0  0  0  0  0  0  0  0  0  0  0  0
    1.6853    2.6219    0.0000 H   0  0  0  0  0  0  0  0  0  0  0  0
    1.4884   -1.2755    0.0000 H   0  0  0  0  0  0  0  0  0  0  0  0
   -0.3605   -1.1017    0.0000 H   0  0  0  0  0  0  0  0  0  0  0  0
   -1.1344    0.5863    0.0000 H   0  0  0  0  0  0  0  0  0  0  0  0
   -0.0595    2.1005    0.0000 H   0  0  0  0  0  0  0  0  0  0  0  0
  1  2  1  0  0  0  0
  1 20  1  0  0  0  0
  1 21  1  0  0  0  0
  1 22  1  0  0  0  0
  2  3  2  0  0  0  0
  2 12  1  0  0  0  0
  3  4  1  0  0  0  0
  3  8  1  0  0  0  0
  4  5  2  0  0  0  0
  4 23  1  0  0  0  0
  5  6  1  0  0  0  0
  5 24  1  0  0  0  0
  6  7  2  0  0  0  0
  7  8  1  0  0  0  0
  7 25  1  0  0  0  0
  8  9  2  0  0  0  0
  9 10  1  0  0  0  0
  9 11  1  0  0  0  0
 10 26  1  0  0  0  0
 10 27  1  0  0  0  0
 10 28  1  0  0  0  0
 11 12  2  0  0  0  0
 11 15  1  0  0  0  0
 12 13  1  0  0  0  0
 13 14  1  0  0  0  0
 13 29  1  0  0  0  0
 14 15  2  0  0  0  0
 14 19  1  0  0  0  0
 15 16  1  0  0  0  0
 16 17  2  0  0  0  0
 16 30  1  0  0  0  0
 17 18  1  0  0  0  0
 17 31  1  0  0  0  0
 18 19  2  0  0  0  0
 18 32  1  0  0  0  0
 19 33  1  0  0  0  0
M  END
>  <DRUGBANK_ID>
DB17026

>  <COMMON_NAME>
Ellipticine

>  <CAS_NUMBER>
519-23-3

>  <UNII>
117VLW7484

>  <SYNONYMS>
5,11-dimethyl-6h-pyrido(4,3-b)carbazole

$$$$
