1463
 OpenBabel10282417072D

 37 39  0  0  1  0  0  0  0  0999 V2000
    2.6602    0.9070    0.0000 N   0  0  0  0  0  0  0  0  0  0  0  0
    5.2984    0.8040    0.0000 C   0  0  3  0  0  0  0  0  0  0  0  0
    5.5119    1.6008    0.0000 C   0  0  3  0  0  0  0  0  0  0  0  0
    3.8696   -0.0210    0.0000 C   0  0  3  0  0  0  0  0  0  0  0  0
    3.4571    0.6934    0.0000 C   0  0  3  0  0  0  0  0  0  0  0  0
    4.9042    2.4115    0.0000 C   0  0  0  0  0  0  0  0  0  0  0  0
    6.8097    0.1780    0.0000 C   0  0  0  0  0  0  0  0  0  0  0  0
    7.0231    0.9748    0.0000 C   0  0  0  0  0  0  0  0  0  0  0  0
    3.6561   -0.8177    0.0000 C   0  0  0  0  0  0  0  0  0  0  0  0
    2.4467    1.7039    0.0000 C   0  0  0  0  0  0  0  0  0  0  0  0
    2.8592   -1.0312    0.0000 C   0  0  0  0  0  0  0  0  0  0  0  0
    4.2394   -1.4011    0.0000 C   0  0  0  0  0  0  0  0  0  0  0  0
    1.6499    1.9173    0.0000 C   0  0  0  0  0  0  0  0  0  0  0  0
    2.6457   -1.8282    0.0000 C   0  0  0  0  0  0  0  0  0  0  0  0
    4.0258   -2.1979    0.0000 C   0  0  0  0  0  0  0  0  0  0  0  0
    3.2289   -2.4115    0.0000 C   0  0  0  0  0  0  0  0  0  0  0  0
    1.9389    0.1858    0.0000 H   0  0  0  0  0  0  0  0  0  0  0  0
    4.3143    1.2240    0.0000 H   0  0  0  0  0  0  0  0  0  0  0  0
    4.4767    1.8716    0.0000 H   0  0  0  0  0  0  0  0  0  0  0  0
    4.1465    1.0126    0.0000 H   0  0  0  0  0  0  0  0  0  0  0  0
    3.3748    1.7602    0.0000 H   0  0  0  0  0  0  0  0  0  0  0  0
    4.4466    3.3787    0.0000 H   0  0  0  0  0  0  0  0  0  0  0  0
    5.8205    2.9640    0.0000 H   0  0  0  0  0  0  0  0  0  0  0  0
    7.2830   -0.7816    0.0000 H   0  0  0  0  0  0  0  0  0  0  0  0
    7.8745    0.2830    0.0000 H   0  0  0  0  0  0  0  0  0  0  0  0
    7.9827    1.4481    0.0000 H   0  0  0  0  0  0  0  0  0  0  0  0
    7.8503    0.2961    0.0000 H   0  0  0  0  0  0  0  0  0  0  0  0
    3.2033    2.4605    0.0000 H   0  0  0  0  0  0  0  0  0  0  0  0
    2.1697    2.7374    0.0000 H   0  0  0  0  0  0  0  0  0  0  0  0
    2.1295   -0.3015    0.0000 H   0  0  0  0  0  0  0  0  0  0  0  0
    5.2363   -1.1341    0.0000 H   0  0  0  0  0  0  0  0  0  0  0  0
    1.3728    2.9508    0.0000 H   0  0  0  0  0  0  0  0  0  0  0  0
    0.8934    1.1606    0.0000 H   0  0  0  0  0  0  0  0  0  0  0  0
    0.6163    2.1941    0.0000 H   0  0  0  0  0  0  0  0  0  0  0  0
    1.6489   -2.0953    0.0000 H   0  0  0  0  0  0  0  0  0  0  0  0
    4.7555   -2.9276    0.0000 H   0  0  0  0  0  0  0  0  0  0  0  0
    2.9618   -3.4083    0.0000 H   0  0  0  0  0  0  0  0  0  0  0  0
  1  5  1  0  0  0  0
  1 10  1  0  0  0  0
  1 17  1  0  0  0  0
  2  4  1  0  0  0  0
  2  6  1  0  0  0  0
  2  7  1  0  0  0  0
  2 18  1  0  0  0  0
  3  5  1  0  0  0  0
  3  6  1  0  0  0  0
  3  8  1  0  0  0  0
  3 19  1  0  0  0  0
  4  5  1  0  0  0  0
  4  9  1  0  0  0  0
  4 20  1  0  0  0  0
  5 21  1  0  0  0  0
  6 22  1  0  0  0  0
  6 23  1  0  0  0  0
  7  8  1  0  0  0  0
  7 24  1  0  0  0  0
  7 25  1  0  0  0  0
  8 26  1  0  0  0  0
  8 27  1  0  0  0  0
  9 11  2  0  0  0  0
  9 12  1  0  0  0  0
 10 13  1  0  0  0  0
 10 28  1  0  0  0  0
 10 29  1  0  0  0  0
 11 14  1  0  0  0  0
 11 30  1  0  0  0  0
 12 15  2  0  0  0  0
 12 31  1  0  0  0  0
 13 32  1  0  0  0  0
 13 33  1  0  0  0  0
 13 34  1  0  0  0  0
 14 16  2  0  0  0  0
 14 35  1  0  0  0  0
 15 16  1  0  0  0  0
 15 36  1  0  0  0  0
 16 37  1  0  0  0  0
M  END
>  <DRUGBANK_ID>
DB01463

>  <COMMON_NAME>
Fencamfamin

>  <CAS_NUMBER>
1209-98-9

>  <UNII>
NME1I5IGBK

>  <SYNONYMS>
Fencamfamin; Fencamfamina; Fencamfamine; Fencamfaminum; Fencanfamina; Phencamphamine

$$$$
