BP7
 OpenBabel10282417072D

 24 25  0  0  0  0  0  0  0  0999 V2000
   -0.2358   -0.1300    0.0000 C   0  0  0  0  0  0  0  0  0  0  0  0
    0.4786   -0.5425    0.0000 C   0  0  0  0  0  0  0  0  0  0  0  0
    0.4786   -1.3675    0.0000 C   0  0  0  0  0  0  0  0  0  0  0  0
    1.1931   -1.7800    0.0000 O   0  0  0  0  0  0  0  0  0  0  0  0
   -0.2358   -1.7800    0.0000 C   0  0  0  0  0  0  0  0  0  0  0  0
   -0.2358   -2.6050    0.0000 O   0  0  0  0  0  0  0  0  0  0  0  0
   -0.9503   -1.3675    0.0000 C   0  0  0  0  0  0  0  0  0  0  0  0
   -0.9503   -0.5425    0.0000 C   0  0  0  0  0  0  0  0  0  0  0  0
   -0.2358    0.6950    0.0000 C   0  0  0  0  0  0  0  0  0  0  0  0
   -0.9503    1.1075    0.0000 C   0  0  0  0  0  0  0  0  0  0  0  0
   -0.9503    1.9325    0.0000 C   0  0  0  0  0  0  0  0  0  0  0  0
   -0.2358    2.3450    0.0000 C   0  0  0  0  0  0  0  0  0  0  0  0
    0.4786    1.9325    0.0000 C   0  0  0  0  0  0  0  0  0  0  0  0
    0.4786    1.1075    0.0000 C   0  0  0  0  0  0  0  0  0  0  0  0
    1.3723   -0.0265    0.0000 H   0  0  0  0  0  0  0  0  0  0  0  0
    1.1931   -2.7170    0.0000 H   0  0  0  0  0  0  0  0  0  0  0  0
   -1.0473   -3.0735    0.0000 H   0  0  0  0  0  0  0  0  0  0  0  0
   -1.8440   -1.8835    0.0000 H   0  0  0  0  0  0  0  0  0  0  0  0
   -1.8440   -0.0265    0.0000 H   0  0  0  0  0  0  0  0  0  0  0  0
   -1.8440    0.5915    0.0000 H   0  0  0  0  0  0  0  0  0  0  0  0
   -1.8440    2.4485    0.0000 H   0  0  0  0  0  0  0  0  0  0  0  0
   -0.2358    3.3770    0.0000 H   0  0  0  0  0  0  0  0  0  0  0  0
    1.3723    2.4485    0.0000 H   0  0  0  0  0  0  0  0  0  0  0  0
    1.3723    0.5915    0.0000 H   0  0  0  0  0  0  0  0  0  0  0  0
  1  2  2  0  0  0  0
  1  8  1  0  0  0  0
  1  9  1  0  0  0  0
  2  3  1  0  0  0  0
  2 15  1  0  0  0  0
  3  4  1  0  0  0  0
  3  5  2  0  0  0  0
  4 16  1  0  0  0  0
  5  6  1  0  0  0  0
  5  7  1  0  0  0  0
  6 17  1  0  0  0  0
  7  8  2  0  0  0  0
  7 18  1  0  0  0  0
  8 19  1  0  0  0  0
  9 10  1  0  0  0  0
  9 14  2  0  0  0  0
 10 11  2  0  0  0  0
 10 20  1  0  0  0  0
 11 12  1  0  0  0  0
 11 21  1  0  0  0  0
 12 13  2  0  0  0  0
 12 22  1  0  0  0  0
 13 14  1  0  0  0  0
 13 23  1  0  0  0  0
 14 24  1  0  0  0  0
M  END
>  <DRUGBANK_ID>
DB07478

>  <COMMON_NAME>
3,4-Biphenyldiol

>  <CAS_NUMBER>
92-05-7

>  <UNII>
T7L7XJ8RU1

>  <SYNONYMS>
4-Phenyl-1,2-benzenediol; 4-Phenylcatechol; 4-Phenylpyrocatechol; Biphenyl-3,4-diol

$$$$
