
 OpenBabel10282417072D

 51 54  0  0  1  0  0  0  0  0999 V2000
   20.0052   -3.2205    0.0000 O   0  0  0  0  0  0  0  0  0  0  0  0
   14.5192   -6.7741    0.0000 O   0  0  0  0  0  0  0  0  0  0  0  0
   18.2539   -5.4935    0.0000 C   0  0  2  0  0  0  0  0  0  0  0  0
   17.5394   -5.0810    0.0000 C   0  0  1  0  0  0  0  0  0  0  0  0
   18.9683   -5.0810    0.0000 C   0  0  1  0  0  0  0  0  0  0  0  0
   18.9683   -4.2561    0.0000 C   0  0  2  0  0  0  0  0  0  0  0  0
   16.7887   -5.4991    0.0000 C   0  0  2  0  0  0  0  0  0  0  0  0
   16.7820   -6.3584    0.0000 C   0  0  2  0  0  0  0  0  0  0  0  0
   17.5394   -4.2561    0.0000 C   0  0  0  0  0  0  0  0  0  0  0  0
   18.2539   -3.8436    0.0000 C   0  0  0  0  0  0  0  0  0  0  0  0
   18.2671   -6.3527    0.0000 C   0  0  0  0  0  0  0  0  0  0  0  0
   19.7489   -5.3324    0.0000 C   0  0  0  0  0  0  0  0  0  0  0  0
   19.7489   -4.0046    0.0000 C   0  0  2  0  0  0  0  0  0  0  0  0
   17.5262   -6.7881    0.0000 C   0  0  0  0  0  0  0  0  0  0  0  0
   20.2303   -4.6686    0.0000 C   0  0  0  0  0  0  0  0  0  0  0  0
   16.0241   -5.0338    0.0000 C   0  0  0  0  0  0  0  0  0  0  0  0
   18.9683   -3.4311    0.0000 C   0  0  0  0  0  0  0  0  0  0  0  0
   16.7950   -4.6741    0.0000 C   0  0  0  0  0  0  0  0  0  0  0  0
   16.0104   -6.8119    0.0000 C   0  0  0  0  0  0  0  0  0  0  0  0
   15.2421   -5.4693    0.0000 C   0  0  0  0  0  0  0  0  0  0  0  0
   15.2352   -6.3644    0.0000 C   0  0  0  0  0  0  0  0  0  0  0  0
   18.2642   -4.5816    0.0000 H   0  0  0  0  0  0  0  0  0  0  0  0
   17.5473   -5.9060    0.0000 H   0  0  0  0  0  0  0  0  0  0  0  0
   19.0793   -5.9023    0.0000 H   0  0  0  0  0  0  0  0  0  0  0  0
   16.7846   -7.0184    0.0000 H   0  0  0  0  0  0  0  0  0  0  0  0
   20.9544   -3.0205    0.0000 H   0  0  0  0  0  0  0  0  0  0  0  0
   16.6128   -3.7211    0.0000 H   0  0  0  0  0  0  0  0  0  0  0  0
   17.5394   -3.1861    0.0000 H   0  0  0  0  0  0  0  0  0  0  0  0
   18.2539   -2.7736    0.0000 H   0  0  0  0  0  0  0  0  0  0  0  0
   17.3273   -3.3086    0.0000 H   0  0  0  0  0  0  0  0  0  0  0  0
   19.1999   -6.8770    0.0000 H   0  0  0  0  0  0  0  0  0  0  0  0
   18.2774   -7.4227    0.0000 H   0  0  0  0  0  0  0  0  0  0  0  0
   20.0813   -6.3495    0.0000 H   0  0  0  0  0  0  0  0  0  0  0  0
   20.8059   -5.4984    0.0000 H   0  0  0  0  0  0  0  0  0  0  0  0
   18.9939   -3.2464    0.0000 H   0  0  0  0  0  0  0  0  0  0  0  0
   17.5303   -7.8581    0.0000 H   0  0  0  0  0  0  0  0  0  0  0  0
   18.4559   -7.3177    0.0000 H   0  0  0  0  0  0  0  0  0  0  0  0
   21.3003   -4.6687    0.0000 H   0  0  0  0  0  0  0  0  0  0  0  0
   20.7166   -3.7155    0.0000 H   0  0  0  0  0  0  0  0  0  0  0  0
   16.0447   -3.9640    0.0000 H   0  0  0  0  0  0  0  0  0  0  0  0
   15.1069   -4.4828    0.0000 H   0  0  0  0  0  0  0  0  0  0  0  0
   19.8949   -2.8961    0.0000 H   0  0  0  0  0  0  0  0  0  0  0  0
   18.0417   -2.8961    0.0000 H   0  0  0  0  0  0  0  0  0  0  0  0
   18.9683   -2.3611    0.0000 H   0  0  0  0  0  0  0  0  0  0  0  0
   17.7257   -4.1462    0.0000 H   0  0  0  0  0  0  0  0  0  0  0  0
   15.8725   -4.1320    0.0000 H   0  0  0  0  0  0  0  0  0  0  0  0
   16.8032   -3.6041    0.0000 H   0  0  0  0  0  0  0  0  0  0  0  0
   16.0146   -7.8819    0.0000 H   0  0  0  0  0  0  0  0  0  0  0  0
   15.0848   -7.3487    0.0000 H   0  0  0  0  0  0  0  0  0  0  0  0
   14.3217   -4.9236    0.0000 H   0  0  0  0  0  0  0  0  0  0  0  0
   14.3103   -5.9953    0.0000 H   0  0  0  0  0  0  0  0  0  0  0  0
  1 26  1  0  0  0  0
  2 21  2  0  0  0  0
  3  4  1  0  0  0  0
  3  5  1  0  0  0  0
  3 11  1  0  0  0  0
  3 22  1  1  0  0  0
  4  7  1  0  0  0  0
  4  9  1  0  0  0  0
  4 23  1  6  0  0  0
  5  6  1  0  0  0  0
  5 12  1  0  0  0  0
  5 24  1  6  0  0  0
  6 10  1  0  0  0  0
  6 13  1  0  0  0  0
  6 17  1  1  0  0  0
  7  8  1  0  0  0  0
  7 16  1  0  0  0  0
  7 18  1  1  0  0  0
  8 14  1  0  0  0  0
  8 19  1  0  0  0  0
  8 25  1  1  0  0  0
  9 10  1  0  0  0  0
  9 27  1  0  0  0  0
  9 28  1  0  0  0  0
 10 29  1  0  0  0  0
 10 30  1  0  0  0  0
 11 14  1  0  0  0  0
 11 31  1  0  0  0  0
 11 32  1  0  0  0  0
 12 15  1  0  0  0  0
 12 33  1  0  0  0  0
 12 34  1  0  0  0  0
 13  1  1  0  0  0  0
 13 15  1  0  0  0  0
 13 35  1  6  0  0  0
 14 36  1  0  0  0  0
 14 37  1  0  0  0  0
 15 38  1  0  0  0  0
 15 39  1  0  0  0  0
 16 20  1  0  0  0  0
 16 40  1  0  0  0  0
 16 41  1  0  0  0  0
 17 42  1  0  0  0  0
 17 43  1  0  0  0  0
 17 44  1  0  0  0  0
 18 45  1  0  0  0  0
 18 46  1  0  0  0  0
 18 47  1  0  0  0  0
 19 21  1  0  0  0  0
 19 48  1  0  0  0  0
 19 49  1  0  0  0  0
 20 21  1  0  0  0  0
 20 50  1  0  0  0  0
 20 51  1  0  0  0  0
M  END
>  <DRUGBANK_ID>
DB07447

>  <COMMON_NAME>
5beta-dihydrotestosterone

>  <CAS_NUMBER>
571-22-2

>  <UNII>
SVX1G0C5VD

>  <SYNONYMS>
(5β,17β)-17-hydroxyandrostan-3-one; (5β,8α,17β)-17-hydroxyandrostan-3-one; 17β-hydroxyetiocholan-3-one; 5-beta-DHT; 5β-androstan-17β-ol-3-one; 5β-dihydrotestosterone; 5β,17β-hydroxyandrostan-3-one; etiocholan-17-beta-ol-3-one

$$$$
