
 OpenBabel10282417072D

 36 36  0  0  0  0  0  0  0  0999 V2000
    2.4959   -1.4528    0.0000 C   0  0  0  0  0  0  0  0  0  0  0  0
    2.9084   -2.1672    0.0000 C   0  0  0  0  0  0  0  0  0  0  0  0
    3.7334   -2.1672    0.0000 C   0  0  0  0  0  0  0  0  0  0  0  0
    4.1459   -2.8817    0.0000 C   0  0  0  0  0  0  0  0  0  0  0  0
    4.9709   -2.8817    0.0000 C   0  0  3  0  0  0  0  0  0  0  0  0
    5.3834   -2.1672    0.0000 C   0  0  0  0  0  0  0  0  0  0  0  0
    6.2084   -2.1672    0.0000 C   0  0  0  0  0  0  0  0  0  0  0  0
    5.3834   -3.5962    0.0000 C   0  0  3  0  0  0  0  0  0  0  0  0
    6.2039   -3.6824    0.0000 C   0  0  0  0  0  0  0  0  0  0  0  0
    6.7560   -3.0693    0.0000 O   0  0  0  0  0  0  0  0  0  0  0  0
    6.3755   -4.4894    0.0000 N   0  0  0  0  0  0  0  0  0  0  0  0
    5.6610   -4.9019    0.0000 C   0  0  0  0  0  0  0  0  0  0  0  0
    5.5747   -5.7224    0.0000 O   0  0  0  0  0  0  0  0  0  0  0  0
    5.0479   -4.3499    0.0000 N   0  0  0  0  0  0  0  0  0  0  0  0
    7.1291   -4.8249    0.0000 S   0  0  0  0  0  0  0  0  0  0  0  0
    7.7966   -4.3400    0.0000 C   0  0  0  0  0  0  0  0  0  0  0  0
    8.4640   -3.8551    0.0000 Cl  0  0  0  0  0  0  0  0  0  0  0  0
    8.2815   -5.0075    0.0000 Cl  0  0  0  0  0  0  0  0  0  0  0  0
    7.3116   -3.6726    0.0000 Cl  0  0  0  0  0  0  0  0  0  0  0  0
    3.0309   -0.5261    0.0000 H   0  0  0  0  0  0  0  0  0  0  0  0
    1.4259   -1.4528    0.0000 H   0  0  0  0  0  0  0  0  0  0  0  0
    1.9609   -0.5262    0.0000 H   0  0  0  0  0  0  0  0  0  0  0  0
    2.3734   -3.0939    0.0000 H   0  0  0  0  0  0  0  0  0  0  0  0
    3.4434   -3.0938    0.0000 H   0  0  0  0  0  0  0  0  0  0  0  0
    4.2684   -1.2406    0.0000 H   0  0  0  0  0  0  0  0  0  0  0  0
    4.8034   -2.1672    0.0000 H   0  0  0  0  0  0  0  0  0  0  0  0
    3.6109   -3.8083    0.0000 H   0  0  0  0  0  0  0  0  0  0  0  0
    4.6809   -3.8083    0.0000 H   0  0  0  0  0  0  0  0  0  0  0  0
    4.4359   -1.9551    0.0000 H   0  0  0  0  0  0  0  0  0  0  0  0
    4.8484   -1.2406    0.0000 H   0  0  0  0  0  0  0  0  0  0  0  0
    5.9184   -1.2406    0.0000 H   0  0  0  0  0  0  0  0  0  0  0  0
    6.7434   -3.0938    0.0000 H   0  0  0  0  0  0  0  0  0  0  0  0
    6.7434   -1.2406    0.0000 H   0  0  0  0  0  0  0  0  0  0  0  0
    7.2784   -2.1672    0.0000 H   0  0  0  0  0  0  0  0  0  0  0  0
    5.9662   -2.6988    0.0000 H   0  0  0  0  0  0  0  0  0  0  0  0
    4.0849   -4.5546    0.0000 H   0  0  0  0  0  0  0  0  0  0  0  0
  1  2  1  0  0  0  0
  1 20  1  0  0  0  0
  1 21  1  0  0  0  0
  1 22  1  0  0  0  0
  2  3  1  0  0  0  0
  2 23  1  0  0  0  0
  2 24  1  0  0  0  0
  3  4  1  0  0  0  0
  3 25  1  0  0  0  0
  3 26  1  0  0  0  0
  4  5  1  0  0  0  0
  4 27  1  0  0  0  0
  4 28  1  0  0  0  0
  5  6  1  0  0  0  0
  5  8  1  0  0  0  0
  5 29  1  0  0  0  0
  6  7  1  0  0  0  0
  6 30  1  0  0  0  0
  6 31  1  0  0  0  0
  7 32  1  0  0  0  0
  7 33  1  0  0  0  0
  7 34  1  0  0  0  0
  8  9  1  0  0  0  0
  8 14  1  0  0  0  0
  8 35  1  0  0  0  0
  9 10  2  0  0  0  0
  9 11  1  0  0  0  0
 11 12  1  0  0  0  0
 11 15  1  0  0  0  0
 12 13  2  0  0  0  0
 12 14  1  0  0  0  0
 14 36  1  0  0  0  0
 15 16  1  0  0  0  0
 16 17  1  0  0  0  0
 16 18  1  0  0  0  0
 16 19  1  0  0  0  0
M  END
>  <DRUGBANK_ID>
DB13516

>  <COMMON_NAME>
Clodantoin

>  <CAS_NUMBER>
5588-20-5

>  <UNII>
W14Z7581PA

>  <SYNONYMS>
Chlordantoin; Clodantoin

$$$$
