
 OpenBabel10282417072D

 54 54  0  0  0  0  0  0  0  0999 V2000
   -1.7861    0.8250    0.0000 C   0  0  0  0  0  0  0  0  0  0  0  0
   -2.5006    0.4125    0.0000 C   0  0  0  0  0  0  0  0  0  0  0  0
   -2.5006   -0.4125    0.0000 C   0  0  0  0  0  0  0  0  0  0  0  0
   -1.7861   -0.8250    0.0000 C   0  0  0  0  0  0  0  0  0  0  0  0
   -1.0717   -0.4125    0.0000 C   0  0  0  0  0  0  0  0  0  0  0  0
   -1.0717    0.4125    0.0000 C   0  0  0  0  0  0  0  0  0  0  0  0
   -1.7861    1.6500    0.0000 O   0  0  0  0  0  0  0  0  0  0  0  0
   -1.7861   -1.6500    0.0000 C   0  0  0  0  0  0  0  0  0  0  0  0
   -1.0717    2.0625    0.0000 C   0  0  0  0  0  0  0  0  0  0  0  0
   -0.3572    1.6500    0.0000 C   0  0  3  0  0  0  0  0  0  0  0  0
    0.3572    2.0625    0.0000 C   0  0  0  0  0  0  0  0  0  0  0  0
    1.0717    1.6500    0.0000 N   0  0  0  0  0  0  0  0  0  0  0  0
    1.7861    2.0625    0.0000 C   0  0  0  0  0  0  0  0  0  0  0  0
    2.5006    1.6500    0.0000 C   0  0  0  0  0  0  0  0  0  0  0  0
    1.7861    2.8875    0.0000 C   0  0  0  0  0  0  0  0  0  0  0  0
   -1.0717   -2.0625    0.0000 O   0  0  0  0  0  0  0  0  0  0  0  0
   -0.3572   -1.6500    0.0000 C   0  0  0  0  0  0  0  0  0  0  0  0
    0.3572   -2.0625    0.0000 C   0  0  0  0  0  0  0  0  0  0  0  0
    1.0717   -1.6500    0.0000 O   0  0  0  0  0  0  0  0  0  0  0  0
    1.7861   -2.0625    0.0000 C   0  0  0  0  0  0  0  0  0  0  0  0
    2.5006   -1.6500    0.0000 C   0  0  0  0  0  0  0  0  0  0  0  0
    1.7861   -2.8875    0.0000 C   0  0  0  0  0  0  0  0  0  0  0  0
   -0.3572    0.8250    0.0000 O   0  0  0  0  0  0  0  0  0  0  0  0
   -3.3943    0.9285    0.0000 H   0  0  0  0  0  0  0  0  0  0  0  0
   -3.3943   -0.9285    0.0000 H   0  0  0  0  0  0  0  0  0  0  0  0
   -0.1780   -0.9285    0.0000 H   0  0  0  0  0  0  0  0  0  0  0  0
   -0.1780    0.9285    0.0000 H   0  0  0  0  0  0  0  0  0  0  0  0
   -2.7128   -2.1850    0.0000 H   0  0  0  0  0  0  0  0  0  0  0  0
   -1.7861   -2.7200    0.0000 H   0  0  0  0  0  0  0  0  0  0  0  0
   -1.0717    3.1325    0.0000 H   0  0  0  0  0  0  0  0  0  0  0  0
   -0.1451    2.5975    0.0000 H   0  0  0  0  0  0  0  0  0  0  0  0
   -0.3572    2.7200    0.0000 H   0  0  0  0  0  0  0  0  0  0  0  0
    0.3572    3.1325    0.0000 H   0  0  0  0  0  0  0  0  0  0  0  0
    1.2838    2.5975    0.0000 H   0  0  0  0  0  0  0  0  0  0  0  0
    1.0717    0.6300    0.0000 H   0  0  0  0  0  0  0  0  0  0  0  0
    2.7127    2.5975    0.0000 H   0  0  0  0  0  0  0  0  0  0  0  0
    2.5006    0.5800    0.0000 H   0  0  0  0  0  0  0  0  0  0  0  0
    3.4272    2.1850    0.0000 H   0  0  0  0  0  0  0  0  0  0  0  0
    3.4273    1.1150    0.0000 H   0  0  0  0  0  0  0  0  0  0  0  0
    2.7127    3.4225    0.0000 H   0  0  0  0  0  0  0  0  0  0  0  0
    0.8595    3.4225    0.0000 H   0  0  0  0  0  0  0  0  0  0  0  0
    1.7861    3.9575    0.0000 H   0  0  0  0  0  0  0  0  0  0  0  0
   -0.3572   -0.5800    0.0000 H   0  0  0  0  0  0  0  0  0  0  0  0
    0.5695   -1.1150    0.0000 H   0  0  0  0  0  0  0  0  0  0  0  0
    0.3572   -3.1325    0.0000 H   0  0  0  0  0  0  0  0  0  0  0  0
    1.2838   -2.5975    0.0000 H   0  0  0  0  0  0  0  0  0  0  0  0
    2.7127   -2.5975    0.0000 H   0  0  0  0  0  0  0  0  0  0  0  0
    3.4272   -2.1850    0.0000 H   0  0  0  0  0  0  0  0  0  0  0  0
    2.5006   -0.5800    0.0000 H   0  0  0  0  0  0  0  0  0  0  0  0
    3.4273   -1.1150    0.0000 H   0  0  0  0  0  0  0  0  0  0  0  0
    0.8595   -3.4225    0.0000 H   0  0  0  0  0  0  0  0  0  0  0  0
    2.7127   -3.4225    0.0000 H   0  0  0  0  0  0  0  0  0  0  0  0
    1.7861   -3.9575    0.0000 H   0  0  0  0  0  0  0  0  0  0  0  0
   -1.1972    0.3400    0.0000 H   0  0  0  0  0  0  0  0  0  0  0  0
  1  2  1  0  0  0  0
  1  6  2  0  0  0  0
  1  7  1  0  0  0  0
  2  3  2  0  0  0  0
  2 24  1  0  0  0  0
  3  4  1  0  0  0  0
  3 25  1  0  0  0  0
  4  5  2  0  0  0  0
  4  8  1  0  0  0  0
  5  6  1  0  0  0  0
  5 26  1  0  0  0  0
  6 27  1  0  0  0  0
  7  9  1  0  0  0  0
  8 16  1  0  0  0  0
  8 28  1  0  0  0  0
  8 29  1  0  0  0  0
  9 10  1  0  0  0  0
  9 30  1  0  0  0  0
  9 31  1  0  0  0  0
 10 11  1  0  0  0  0
 10 23  1  0  0  0  0
 10 32  1  0  0  0  0
 11 12  1  0  0  0  0
 11 33  1  0  0  0  0
 11 34  1  0  0  0  0
 12 13  1  0  0  0  0
 12 35  1  0  0  0  0
 13 14  1  0  0  0  0
 13 15  1  0  0  0  0
 13 36  1  0  0  0  0
 14 37  1  0  0  0  0
 14 38  1  0  0  0  0
 14 39  1  0  0  0  0
 15 40  1  0  0  0  0
 15 41  1  0  0  0  0
 15 42  1  0  0  0  0
 16 17  1  0  0  0  0
 17 18  1  0  0  0  0
 17 43  1  0  0  0  0
 17 44  1  0  0  0  0
 18 19  1  0  0  0  0
 18 45  1  0  0  0  0
 18 46  1  0  0  0  0
 19 20  1  0  0  0  0
 20 21  1  0  0  0  0
 20 22  1  0  0  0  0
 20 47  1  0  0  0  0
 21 48  1  0  0  0  0
 21 49  1  0  0  0  0
 21 50  1  0  0  0  0
 22 51  1  0  0  0  0
 22 52  1  0  0  0  0
 22 53  1  0  0  0  0
 23 54  1  0  0  0  0
M  END
>  <DRUGBANK_ID>
DB00612

>  <SECONDARY_ACCESSION_NUMBERS>
APRD00257

>  <COMMON_NAME>
Bisoprolol

>  <CAS_NUMBER>
66722-44-9

>  <UNII>
Y41JS2NL6U

>  <SYNONYMS>
(+-)-1-((alpha-(2-Isopropoxyethoxy)-p-tolyl)oxy)-3-(isopropylamino)-2-propanol; (RS)-1-(4-(2-Isopropoxyethoxymethyl)phenoxy)-3-(isopropylamino)-2-propanol; Bisoprolol; Bisoprololum

$$$$
