
 OpenBabel10282417072D

 44 44  0  0  0  0  0  0  0  0999 V2000
   -2.8579   -0.0000    0.0000 C   0  0  0  0  0  0  0  0  0  0  0  0
   -2.1434    0.4125    0.0000 O   0  0  0  0  0  0  0  0  0  0  0  0
   -2.1434    1.2375    0.0000 C   0  0  0  0  0  0  0  0  0  0  0  0
   -2.8579    1.6500    0.0000 O   0  0  0  0  0  0  0  0  0  0  0  0
   -1.4289    1.6500    0.0000 C   0  0  0  0  0  0  0  0  0  0  0  0
   -1.4289    2.4750    0.0000 C   0  0  0  0  0  0  0  0  0  0  0  0
   -0.7145    2.8875    0.0000 C   0  0  0  0  0  0  0  0  0  0  0  0
    0.0000    2.4750    0.0000 C   0  0  0  0  0  0  0  0  0  0  0  0
    0.7145    2.8875    0.0000 O   0  0  0  0  0  0  0  0  0  0  0  0
    1.4289    2.4750    0.0000 C   0  0  0  0  0  0  0  0  0  0  0  0
    1.4289    1.6500    0.0000 O   0  0  0  0  0  0  0  0  0  0  0  0
    2.1434    2.8875    0.0000 C   0  0  0  0  0  0  0  0  0  0  0  0
    2.8579    2.4750    0.0000 C   0  0  0  0  0  0  0  0  0  0  0  0
    3.5724    2.8875    0.0000 C   0  0  0  0  0  0  0  0  0  0  0  0
    4.2868    2.4750    0.0000 C   0  0  0  0  0  0  0  0  0  0  0  0
    5.0013    2.8875    0.0000 C   0  0  0  0  0  0  0  0  0  0  0  0
    5.7158    2.4750    0.0000 C   0  0  0  0  0  0  0  0  0  0  0  0
    6.4302    2.8875    0.0000 C   0  0  0  0  0  0  0  0  0  0  0  0
    6.4302    3.7125    0.0000 O   0  0  0  0  0  0  0  0  0  0  0  0
    7.1447    2.4750    0.0000 N   0  0  0  0  0  0  0  0  0  0  0  0
    7.8592    2.8875    0.0000 O   0  0  0  0  0  0  0  0  0  0  0  0
    0.0000    1.6500    0.0000 C   0  0  0  0  0  0  0  0  0  0  0  0
   -0.7145    1.2375    0.0000 C   0  0  0  0  0  0  0  0  0  0  0  0
   -3.7845    0.5350    0.0000 H   0  0  0  0  0  0  0  0  0  0  0  0
   -2.8579   -1.0700    0.0000 H   0  0  0  0  0  0  0  0  0  0  0  0
   -3.7846   -0.5350    0.0000 H   0  0  0  0  0  0  0  0  0  0  0  0
   -2.3226    2.9910    0.0000 H   0  0  0  0  0  0  0  0  0  0  0  0
   -0.7145    3.9195    0.0000 H   0  0  0  0  0  0  0  0  0  0  0  0
    2.1434    3.9575    0.0000 H   0  0  0  0  0  0  0  0  0  0  0  0
    3.0700    3.4225    0.0000 H   0  0  0  0  0  0  0  0  0  0  0  0
    2.8579    1.4050    0.0000 H   0  0  0  0  0  0  0  0  0  0  0  0
    3.7845    1.9400    0.0000 H   0  0  0  0  0  0  0  0  0  0  0  0
    3.5724    3.9575    0.0000 H   0  0  0  0  0  0  0  0  0  0  0  0
    4.4991    3.4225    0.0000 H   0  0  0  0  0  0  0  0  0  0  0  0
    4.2868    1.4050    0.0000 H   0  0  0  0  0  0  0  0  0  0  0  0
    5.2134    1.9400    0.0000 H   0  0  0  0  0  0  0  0  0  0  0  0
    5.0013    3.9575    0.0000 H   0  0  0  0  0  0  0  0  0  0  0  0
    5.9279    3.4225    0.0000 H   0  0  0  0  0  0  0  0  0  0  0  0
    5.7158    1.4050    0.0000 H   0  0  0  0  0  0  0  0  0  0  0  0
    6.6425    1.9400    0.0000 H   0  0  0  0  0  0  0  0  0  0  0  0
    7.1447    1.4905    0.0000 H   0  0  0  0  0  0  0  0  0  0  0  0
    8.6992    2.4025    0.0000 H   0  0  0  0  0  0  0  0  0  0  0  0
    0.8937    1.1340    0.0000 H   0  0  0  0  0  0  0  0  0  0  0  0
   -0.7145    0.2055    0.0000 H   0  0  0  0  0  0  0  0  0  0  0  0
  1  2  1  0  0  0  0
  1 24  1  0  0  0  0
  1 25  1  0  0  0  0
  1 26  1  0  0  0  0
  2  3  1  0  0  0  0
  3  4  2  0  0  0  0
  3  5  1  0  0  0  0
  5  6  2  0  0  0  0
  5 23  1  0  0  0  0
  6  7  1  0  0  0  0
  6 27  1  0  0  0  0
  7  8  2  0  0  0  0
  7 28  1  0  0  0  0
  8  9  1  0  0  0  0
  8 22  1  0  0  0  0
  9 10  1  0  0  0  0
 10 11  2  0  0  0  0
 10 12  1  0  0  0  0
 12 13  1  0  0  0  0
 12 29  1  0  0  0  0
 12 30  1  0  0  0  0
 13 14  1  0  0  0  0
 13 31  1  0  0  0  0
 13 32  1  0  0  0  0
 14 15  1  0  0  0  0
 14 33  1  0  0  0  0
 14 34  1  0  0  0  0
 15 16  1  0  0  0  0
 15 35  1  0  0  0  0
 15 36  1  0  0  0  0
 16 17  1  0  0  0  0
 16 37  1  0  0  0  0
 16 38  1  0  0  0  0
 17 18  1  0  0  0  0
 17 39  1  0  0  0  0
 17 40  1  0  0  0  0
 18 19  2  0  0  0  0
 18 20  1  0  0  0  0
 20 21  1  0  0  0  0
 20 41  1  0  0  0  0
 21 42  1  0  0  0  0
 22 23  2  0  0  0  0
 22 43  1  0  0  0  0
 23 44  1  0  0  0  0
M  END
>  <DRUGBANK_ID>
DB14869

>  <COMMON_NAME>
Remetinostat

>  <CAS_NUMBER>
946150-57-8

>  <UNII>
37NT056AT4

>  <SYNONYMS>
Remetinostat

$$$$
