
 OpenBabel10282417072D

 66 69  0  0  0  0  0  0  0  0999 V2000
    5.2520   -0.3020    0.0000 C   0  0  0  0  0  0  0  0  0  0  0  0
    4.8395    0.4125    0.0000 O   0  0  0  0  0  0  0  0  0  0  0  0
    4.0145    0.4125    0.0000 C   0  0  0  0  0  0  0  0  0  0  0  0
    3.6020    1.1270    0.0000 C   0  0  0  0  0  0  0  0  0  0  0  0
    4.0145    1.8414    0.0000 O   0  0  0  0  0  0  0  0  0  0  0  0
    3.6020    2.5559    0.0000 C   0  0  0  0  0  0  0  0  0  0  0  0
    2.7770    1.1270    0.0000 C   0  0  0  0  0  0  0  0  0  0  0  0
    2.3645    0.4125    0.0000 C   0  0  0  0  0  0  0  0  0  0  0  0
    2.7770   -0.3020    0.0000 C   0  0  0  0  0  0  0  0  0  0  0  0
    2.3645   -1.0164    0.0000 C   0  0  0  0  0  0  0  0  0  0  0  0
    1.5395   -1.0164    0.0000 C   0  0  0  0  0  0  0  0  0  0  0  0
    1.1270   -0.3020    0.0000 N   0  0  0  0  0  0  0  0  0  0  0  0
    0.3020   -0.3020    0.0000 C   0  0  0  0  0  0  0  0  0  0  0  0
   -0.1105   -1.0164    0.0000 O   0  0  0  0  0  0  0  0  0  0  0  0
   -0.1105    0.4125    0.0000 N   0  0  0  0  0  0  0  0  0  0  0  0
   -0.9355    0.4125    0.0000 C   0  0  0  0  0  0  0  0  0  0  0  0
   -1.3480    1.1270    0.0000 C   0  0  0  0  0  0  0  0  0  0  0  0
   -2.1730    1.1270    0.0000 N   0  0  0  0  0  0  0  0  0  0  0  0
   -2.5855    1.8414    0.0000 C   0  0  0  0  0  0  0  0  0  0  0  0
   -3.4105    1.8414    0.0000 N   0  0  0  0  0  0  0  0  0  0  0  0
   -2.1730    2.5559    0.0000 O   0  0  0  0  0  0  0  0  0  0  0  0
    0.3020    1.1270    0.0000 C   0  0  0  0  0  0  0  0  0  0  0  0
    1.1270    1.1270    0.0000 C   0  0  0  0  0  0  0  0  0  0  0  0
    1.5395    0.4125    0.0000 C   0  0  0  0  0  0  0  0  0  0  0  0
   -0.1105    1.8414    0.0000 N   0  0  0  0  0  0  0  0  0  0  0  0
    0.3020    2.5559    0.0000 C   0  0  0  0  0  0  0  0  0  0  0  0
   -0.1105    3.2704    0.0000 C   0  0  0  0  0  0  0  0  0  0  0  0
   -0.9355    3.2704    0.0000 C   0  0  0  0  0  0  0  0  0  0  0  0
    0.3020    3.9849    0.0000 C   0  0  0  0  0  0  0  0  0  0  0  0
    1.1270    3.9849    0.0000 C   0  0  0  0  0  0  0  0  0  0  0  0
    1.5395    4.6993    0.0000 C   0  0  0  0  0  0  0  0  0  0  0  0
    1.5395    3.2704    0.0000 C   0  0  0  0  0  0  0  0  0  0  0  0
    1.1270    2.5559    0.0000 C   0  0  0  0  0  0  0  0  0  0  0  0
    1.5395    1.8414    0.0000 C   0  0  0  0  0  0  0  0  0  0  0  0
    3.6020   -0.3020    0.0000 C   0  0  0  0  0  0  0  0  0  0  0  0
    4.7170   -1.2286    0.0000 H   0  0  0  0  0  0  0  0  0  0  0  0
    6.3220   -0.3020    0.0000 H   0  0  0  0  0  0  0  0  0  0  0  0
    5.7870   -1.2287    0.0000 H   0  0  0  0  0  0  0  0  0  0  0  0
    4.1370    3.4825    0.0000 H   0  0  0  0  0  0  0  0  0  0  0  0
    2.5320    2.5559    0.0000 H   0  0  0  0  0  0  0  0  0  0  0  0
    3.0670    3.4826    0.0000 H   0  0  0  0  0  0  0  0  0  0  0  0
    2.2610    2.0207    0.0000 H   0  0  0  0  0  0  0  0  0  0  0  0
    2.8995   -1.9431    0.0000 H   0  0  0  0  0  0  0  0  0  0  0  0
    1.8295   -1.9430    0.0000 H   0  0  0  0  0  0  0  0  0  0  0  0
    1.0045   -1.9431    0.0000 H   0  0  0  0  0  0  0  0  0  0  0  0
    0.4695   -1.0164    0.0000 H   0  0  0  0  0  0  0  0  0  0  0  0
   -1.4705   -0.5141    0.0000 H   0  0  0  0  0  0  0  0  0  0  0  0
   -2.0055    0.4125    0.0000 H   0  0  0  0  0  0  0  0  0  0  0  0
   -0.8130    2.0536    0.0000 H   0  0  0  0  0  0  0  0  0  0  0  0
   -1.8830    2.0536    0.0000 H   0  0  0  0  0  0  0  0  0  0  0  0
   -2.6652    0.2744    0.0000 H   0  0  0  0  0  0  0  0  0  0  0  0
   -3.9028    2.6940    0.0000 H   0  0  0  0  0  0  0  0  0  0  0  0
   -3.9027    0.9888    0.0000 H   0  0  0  0  0  0  0  0  0  0  0  0
    1.6430    2.0207    0.0000 H   0  0  0  0  0  0  0  0  0  0  0  0
   -1.4705    4.1970    0.0000 H   0  0  0  0  0  0  0  0  0  0  0  0
   -1.4705    2.3438    0.0000 H   0  0  0  0  0  0  0  0  0  0  0  0
   -2.0055    3.2704    0.0000 H   0  0  0  0  0  0  0  0  0  0  0  0
   -0.2140    4.8786    0.0000 H   0  0  0  0  0  0  0  0  0  0  0  0
    2.6095    4.6993    0.0000 H   0  0  0  0  0  0  0  0  0  0  0  0
    1.0045    5.6260    0.0000 H   0  0  0  0  0  0  0  0  0  0  0  0
    2.0745    5.6259    0.0000 H   0  0  0  0  0  0  0  0  0  0  0  0
    2.5715    3.2704    0.0000 H   0  0  0  0  0  0  0  0  0  0  0  0
    1.0045    0.9148    0.0000 H   0  0  0  0  0  0  0  0  0  0  0  0
    2.6095    1.8414    0.0000 H   0  0  0  0  0  0  0  0  0  0  0  0
    2.0745    0.9147    0.0000 H   0  0  0  0  0  0  0  0  0  0  0  0
    4.1180   -1.1957    0.0000 H   0  0  0  0  0  0  0  0  0  0  0  0
  1  2  1  0  0  0  0
  1 36  1  0  0  0  0
  1 37  1  0  0  0  0
  1 38  1  0  0  0  0
  2  3  1  0  0  0  0
  3  4  2  0  0  0  0
  3 35  1  0  0  0  0
  4  5  1  0  0  0  0
  4  7  1  0  0  0  0
  5  6  1  0  0  0  0
  6 39  1  0  0  0  0
  6 40  1  0  0  0  0
  6 41  1  0  0  0  0
  7  8  2  0  0  0  0
  7 42  1  0  0  0  0
  8  9  1  0  0  0  0
  8 24  1  0  0  0  0
  9 10  1  0  0  0  0
  9 35  2  0  0  0  0
 10 11  1  0  0  0  0
 10 43  1  0  0  0  0
 10 44  1  0  0  0  0
 11 12  1  0  0  0  0
 11 45  1  0  0  0  0
 11 46  1  0  0  0  0
 12 13  1  0  0  0  0
 12 24  1  0  0  0  0
 13 14  2  0  0  0  0
 13 15  1  0  0  0  0
 15 16  1  0  0  0  0
 15 22  1  0  0  0  0
 16 17  1  0  0  0  0
 16 47  1  0  0  0  0
 16 48  1  0  0  0  0
 17 18  1  0  0  0  0
 17 49  1  0  0  0  0
 17 50  1  0  0  0  0
 18 19  1  0  0  0  0
 18 51  1  0  0  0  0
 19 20  1  0  0  0  0
 19 21  2  0  0  0  0
 20 52  1  0  0  0  0
 20 53  1  0  0  0  0
 22 23  1  0  0  0  0
 22 25  2  0  0  0  0
 23 24  2  0  0  0  0
 23 54  1  0  0  0  0
 25 26  1  0  0  0  0
 26 27  2  0  0  0  0
 26 33  1  0  0  0  0
 27 28  1  0  0  0  0
 27 29  1  0  0  0  0
 28 55  1  0  0  0  0
 28 56  1  0  0  0  0
 28 57  1  0  0  0  0
 29 30  2  0  0  0  0
 29 58  1  0  0  0  0
 30 31  1  0  0  0  0
 30 32  1  0  0  0  0
 31 59  1  0  0  0  0
 31 60  1  0  0  0  0
 31 61  1  0  0  0  0
 32 33  2  0  0  0  0
 32 62  1  0  0  0  0
 33 34  1  0  0  0  0
 34 63  1  0  0  0  0
 34 64  1  0  0  0  0
 34 65  1  0  0  0  0
 35 66  1  0  0  0  0
M  END
>  <DRUGBANK_ID>
DB16157

>  <COMMON_NAME>
Ensifentrine

>  <CAS_NUMBER>
1884461-72-6

>  <UNII>
3E3D8T1GIX

>  <SYNONYMS>
Ensifentrine

$$$$
