
 OpenBabel10282417072D

 85 89  0  0  0  0  0  0  0  0999 V2000
    1.8626   -0.7145    0.0000 C   0  0  0  0  0  0  0  0  0  0  0  0
    2.2714   -1.4269    0.0000 C   0  0  0  0  0  0  0  0  0  0  0  0
    3.0879   -1.4291    0.0000 N   0  0  0  0  0  0  0  0  0  0  0  0
    3.5022   -0.7207    0.0000 C   0  0  1  0  0  0  0  0  0  0  0  0
    3.0935   -0.0083    0.0000 C   0  0  0  0  0  0  0  0  0  0  0  0
    2.2706   -0.0044    0.0000 N   0  0  0  0  0  0  0  0  0  0  0  0
   -4.3067    2.8615    0.0000 C   0  0  0  0  0  0  0  0  0  0  0  0
   -4.7232    2.1513    0.0000 C   0  0  0  0  0  0  0  0  0  0  0  0
   -4.3166    1.4376    0.0000 C   0  0  0  0  0  0  0  0  0  0  0  0
   -3.4934    1.4327    0.0000 C   0  0  0  0  0  0  0  0  0  0  0  0
   -3.0787    2.1477    0.0000 C   0  0  0  0  0  0  0  0  0  0  0  0
   -3.4877    2.8585    0.0000 C   0  0  0  0  0  0  0  0  0  0  0  0
   -2.2535    2.1463    0.0000 O   0  0  0  0  0  0  0  0  0  0  0  0
   -1.8422    1.4309    0.0000 C   0  0  0  0  0  0  0  0  0  0  0  0
   -2.2581    0.7207    0.0000 C   0  0  0  0  0  0  0  0  0  0  0  0
   -1.8474    0.0059    0.0000 C   0  0  0  0  0  0  0  0  0  0  0  0
   -1.0213    0.0040    0.0000 C   0  0  0  0  0  0  0  0  0  0  0  0
   -0.6076    0.7229    0.0000 C   0  0  0  0  0  0  0  0  0  0  0  0
   -1.0207    1.4349    0.0000 C   0  0  0  0  0  0  0  0  0  0  0  0
   -0.6089   -0.7107    0.0000 C   0  0  0  0  0  0  0  0  0  0  0  0
    0.2161   -0.7110    0.0000 N   0  0  0  0  0  0  0  0  0  0  0  0
    0.6269   -1.4274    0.0000 C   0  0  0  0  0  0  0  0  0  0  0  0
    1.4485   -1.4296    0.0000 C   0  0  0  0  0  0  0  0  0  0  0  0
    1.4541   -0.0004    0.0000 C   0  0  0  0  0  0  0  0  0  0  0  0
    0.6264    0.0035    0.0000 C   0  0  0  0  0  0  0  0  0  0  0  0
    1.8568   -2.1403    0.0000 O   0  0  0  0  0  0  0  0  0  0  0  0
    3.5087    0.7047    0.0000 O   0  0  0  0  0  0  0  0  0  0  0  0
    4.3274   -0.7239    0.0000 C   0  0  1  0  0  0  0  0  0  0  0  0
    4.7371   -1.4403    0.0000 C   0  0  0  0  0  0  0  0  0  0  0  0
    1.8590    0.7106    0.0000 C   0  0  0  0  0  0  0  0  0  0  0  0
    2.2724    1.4248    0.0000 C   0  0  0  0  0  0  0  0  0  0  0  0
    1.8607    2.1399    0.0000 C   0  0  0  0  0  0  0  0  0  0  0  0
    2.2744    2.8540    0.0000 C   0  0  0  0  0  0  0  0  0  0  0  0
    4.7429   -0.0111    0.0000 O   0  0  0  0  0  0  0  0  0  0  0  0
    3.9101   -0.0023    0.0000 H   0  0  0  0  0  0  0  0  0  0  0  0
    4.3187   -2.1503    0.0000 C   0  0  0  0  0  0  0  0  0  0  0  0
    4.7248   -2.8644    0.0000 C   0  0  0  0  0  0  0  0  0  0  0  0
    5.5502   -2.8720    0.0000 C   0  0  0  0  0  0  0  0  0  0  0  0
    5.9680   -2.1592    0.0000 C   0  0  0  0  0  0  0  0  0  0  0  0
    5.5602   -1.4388    0.0000 C   0  0  0  0  0  0  0  0  0  0  0  0
   -5.5510    2.1549    0.0000 C   0  0  0  0  0  0  0  0  0  0  0  0
   -5.9590    2.8719    0.0000 O   0  0  0  0  0  0  0  0  0  0  0  0
   -5.9679    1.4428    0.0000 O   0  0  0  0  0  0  0  0  0  0  0  0
    3.5766   -2.2837    0.0000 H   0  0  0  0  0  0  0  0  0  0  0  0
   -4.8180    3.7579    0.0000 H   0  0  0  0  0  0  0  0  0  0  0  0
   -4.8378    0.5469    0.0000 H   0  0  0  0  0  0  0  0  0  0  0  0
   -2.9810    0.5369    0.0000 H   0  0  0  0  0  0  0  0  0  0  0  0
   -2.9694    3.7509    0.0000 H   0  0  0  0  0  0  0  0  0  0  0  0
   -3.2901    0.7250    0.0000 H   0  0  0  0  0  0  0  0  0  0  0  0
   -2.3654   -0.8867    0.0000 H   0  0  0  0  0  0  0  0  0  0  0  0
    0.4244    0.7247    0.0000 H   0  0  0  0  0  0  0  0  0  0  0  0
   -0.5078    2.3304    0.0000 H   0  0  0  0  0  0  0  0  0  0  0  0
   -1.1442   -1.6372    0.0000 H   0  0  0  0  0  0  0  0  0  0  0  0
   -1.6789   -0.7104    0.0000 H   0  0  0  0  0  0  0  0  0  0  0  0
    0.0893   -2.3525    0.0000 H   0  0  0  0  0  0  0  0  0  0  0  0
    1.1594   -2.3555    0.0000 H   0  0  0  0  0  0  0  0  0  0  0  0
    1.9817   -2.3573    0.0000 H   0  0  0  0  0  0  0  0  0  0  0  0
    2.5185   -1.4314    0.0000 H   0  0  0  0  0  0  0  0  0  0  0  0
    1.9931    0.9239    0.0000 H   0  0  0  0  0  0  0  0  0  0  0  0
    0.9233    0.9287    0.0000 H   0  0  0  0  0  0  0  0  0  0  0  0
    0.0925    0.9308    0.0000 H   0  0  0  0  0  0  0  0  0  0  0  0
    1.1641    0.9286    0.0000 H   0  0  0  0  0  0  0  0  0  0  0  0
    3.7961    0.2049    0.0000 H   0  0  0  0  0  0  0  0  0  0  0  0
    5.2688   -2.3688    0.0000 H   0  0  0  0  0  0  0  0  0  0  0  0
    0.7890    0.7119    0.0000 H   0  0  0  0  0  0  0  0  0  0  0  0
    1.3251    1.6379    0.0000 H   0  0  0  0  0  0  0  0  0  0  0  0
    3.3424    1.4236    0.0000 H   0  0  0  0  0  0  0  0  0  0  0  0
    2.8085    2.3508    0.0000 H   0  0  0  0  0  0  0  0  0  0  0  0
    0.7907    2.1413    0.0000 H   0  0  0  0  0  0  0  0  0  0  0  0
    1.3270    3.0673    0.0000 H   0  0  0  0  0  0  0  0  0  0  0  0
    3.3444    2.8524    0.0000 H   0  0  0  0  0  0  0  0  0  0  0  0
    1.7408    3.7814    0.0000 H   0  0  0  0  0  0  0  0  0  0  0  0
    2.8108    3.7799    0.0000 H   0  0  0  0  0  0  0  0  0  0  0  0
    5.7129   -0.0151    0.0000 H   0  0  0  0  0  0  0  0  0  0  0  0
    3.2487   -2.1420    0.0000 H   0  0  0  0  0  0  0  0  0  0  0  0
    3.7771   -3.0731    0.0000 H   0  0  0  0  0  0  0  0  0  0  0  0
    4.1825   -3.7868    0.0000 H   0  0  0  0  0  0  0  0  0  0  0  0
    5.2519   -3.7956    0.0000 H   0  0  0  0  0  0  0  0  0  0  0  0
    6.0779   -3.8028    0.0000 H   0  0  0  0  0  0  0  0  0  0  0  0
    6.6202   -2.8797    0.0000 H   0  0  0  0  0  0  0  0  0  0  0  0
    7.0380   -2.1673    0.0000 H   0  0  0  0  0  0  0  0  0  0  0  0
    6.5104   -1.2369    0.0000 H   0  0  0  0  0  0  0  0  0  0  0  0
    6.0983   -0.5139    0.0000 H   0  0  0  0  0  0  0  0  0  0  0  0
    6.6302   -1.4451    0.0000 H   0  0  0  0  0  0  0  0  0  0  0  0
   -5.4854    3.6804    0.0000 H   0  0  0  0  0  0  0  0  0  0  0  0
  1 24  1  0  0  0  0
  1  2  1  0  0  0  0
  1  6  1  0  0  0  0
  2 26  2  0  0  0  0
  2  3  1  0  0  0  0
  3 44  1  0  0  0  0
  4  5  1  0  0  0  0
  4 28  1  0  0  0  0
  4 35  1  6  0  0  0
  4  3  1  0  0  0  0
  5  6  1  0  0  0  0
  5 27  2  0  0  0  0
  6 30  1  0  0  0  0
  7  8  2  0  0  0  0
  7 45  1  0  0  0  0
  8  9  1  0  0  0  0
  8 41  1  0  0  0  0
  9 10  2  0  0  0  0
  9 46  1  0  0  0  0
 10 11  1  0  0  0  0
 10 47  1  0  0  0  0
 11 12  2  0  0  0  0
 11 13  1  0  0  0  0
 12  7  1  0  0  0  0
 12 48  1  0  0  0  0
 13 14  1  0  0  0  0
 14 15  2  0  0  0  0
 15 16  1  0  0  0  0
 15 49  1  0  0  0  0
 16 17  2  0  0  0  0
 16 50  1  0  0  0  0
 17 18  1  0  0  0  0
 17 20  1  0  0  0  0
 18 19  2  0  0  0  0
 18 51  1  0  0  0  0
 19 14  1  0  0  0  0
 19 52  1  0  0  0  0
 20 21  1  0  0  0  0
 20 53  1  0  0  0  0
 20 54  1  0  0  0  0
 21 22  1  0  0  0  0
 21 25  1  0  0  0  0
 22 23  1  0  0  0  0
 22 55  1  0  0  0  0
 22 56  1  0  0  0  0
 23  1  1  0  0  0  0
 23 57  1  0  0  0  0
 23 58  1  0  0  0  0
 24 25  1  0  0  0  0
 24 59  1  0  0  0  0
 24 60  1  0  0  0  0
 25 61  1  0  0  0  0
 25 62  1  0  0  0  0
 28 29  1  0  0  0  0
 28 34  1  0  0  0  0
 28 63  1  1  0  0  0
 29 36  1  0  0  0  0
 29 40  1  0  0  0  0
 29 64  1  0  0  0  0
 30 31  1  0  0  0  0
 30 65  1  0  0  0  0
 30 66  1  0  0  0  0
 31 32  1  0  0  0  0
 31 67  1  0  0  0  0
 31 68  1  0  0  0  0
 32 33  1  0  0  0  0
 32 69  1  0  0  0  0
 32 70  1  0  0  0  0
 33 71  1  0  0  0  0
 33 72  1  0  0  0  0
 33 73  1  0  0  0  0
 34 74  1  0  0  0  0
 36 37  1  0  0  0  0
 36 75  1  0  0  0  0
 36 76  1  0  0  0  0
 37 38  1  0  0  0  0
 37 77  1  0  0  0  0
 37 78  1  0  0  0  0
 38 39  1  0  0  0  0
 38 79  1  0  0  0  0
 38 80  1  0  0  0  0
 39 40  1  0  0  0  0
 39 81  1  0  0  0  0
 39 82  1  0  0  0  0
 40 83  1  0  0  0  0
 40 84  1  0  0  0  0
 41 42  1  0  0  0  0
 41 43  2  0  0  0  0
 42 85  1  0  0  0  0
M  END
>  <DRUGBANK_ID>
DB06497

>  <COMMON_NAME>
Aplaviroc

>  <CAS_NUMBER>
461443-59-4

>  <UNII>
98B425P30V

>  <SYNONYMS>
Aplaviroc

$$$$
