
 OpenBabel10282417072D

 70 73  0  0  1  0  0  0  0  0999 V2000
   12.1370   -9.5610    0.0000 C   0  0  1  0  0  0  0  0  0  0  0  0
   11.4226   -9.9735    0.0000 C   0  0  0  0  0  0  0  0  0  0  0  0
   11.4226  -10.7986    0.0000 C   0  0  1  0  0  0  0  0  0  0  0  0
   12.1370  -11.2111    0.0000 C   0  0  0  0  0  0  0  0  0  0  0  0
   12.8515  -10.7986    0.0000 C   0  0  0  0  0  0  0  0  0  0  0  0
   12.8515   -9.9735    0.0000 C   0  0  0  0  0  0  0  0  0  0  0  0
   13.5660   -9.5610    0.0000 C   0  0  0  0  0  0  0  0  0  0  0  0
   13.5660  -11.2111    0.0000 C   0  0  0  0  0  0  0  0  0  0  0  0
   14.2804  -10.7986    0.0000 C   0  0  0  0  0  0  0  0  0  0  0  0
   14.2804   -9.9735    0.0000 C   0  0  0  0  0  0  0  0  0  0  0  0
   14.2804   -8.3235    0.0000 C   0  0  0  0  0  0  0  0  0  0  0  0
   13.5660   -8.7360    0.0000 C   0  0  0  0  0  0  0  0  0  0  0  0
   14.9949   -9.5610    0.0000 C   0  0  1  0  0  0  0  0  0  0  0  0
   14.9949   -8.7360    0.0000 C   0  0  1  0  0  0  0  0  0  0  0  0
   15.7795   -8.4811    0.0000 C   0  0  2  0  0  0  0  0  0  0  0  0
   15.7795   -9.8159    0.0000 C   0  0  0  0  0  0  0  0  0  0  0  0
   16.2644   -9.1485    0.0000 C   0  0  0  0  0  0  0  0  0  0  0  0
   15.7795   -7.6561    0.0000 C   0  0  1  0  0  0  0  0  0  0  0  0
   16.4940   -7.2436    0.0000 C   0  0  0  0  0  0  0  0  0  0  0  0
   17.2085   -7.6561    0.0000 C   0  0  0  0  0  0  0  0  0  0  0  0
   17.9229   -7.2436    0.0000 C   0  0  1  0  0  0  0  0  0  0  0  0
   17.9229   -6.4186    0.0000 O   0  0  0  0  0  0  0  0  0  0  0  0
   18.6374   -7.6561    0.0000 C   0  0  0  0  0  0  0  0  0  0  0  0
   19.0499   -8.3705    0.0000 C   0  0  0  0  0  0  0  0  0  0  0  0
   19.4624   -7.6561    0.0000 C   0  0  0  0  0  0  0  0  0  0  0  0
   10.7081  -11.2111    0.0000 O   0  0  0  0  0  0  0  0  0  0  0  0
   14.9949   -7.9110    0.0000 C   0  0  0  0  0  0  0  0  0  0  0  0
   12.1370   -8.7360    0.0000 O   0  0  0  0  0  0  0  0  0  0  0  0
   14.9949  -10.3860    0.0000 H   0  0  0  0  0  0  0  0  0  0  0  0
   16.4940   -8.0686    0.0000 H   0  0  0  0  0  0  0  0  0  0  0  0
   15.0651   -7.2436    0.0000 C   0  0  0  0  0  0  0  0  0  0  0  0
   12.8515   -9.1485    0.0000 C   0  0  0  0  0  0  0  0  0  0  0  0
   11.2103   -9.0260    0.0000 H   0  0  0  0  0  0  0  0  0  0  0  0
   10.4959   -9.4385    0.0000 H   0  0  0  0  0  0  0  0  0  0  0  0
   10.4960  -10.5085    0.0000 H   0  0  0  0  0  0  0  0  0  0  0  0
   10.4960  -10.2636    0.0000 H   0  0  0  0  0  0  0  0  0  0  0  0
   12.1370  -12.2811    0.0000 H   0  0  0  0  0  0  0  0  0  0  0  0
   13.0636  -11.7461    0.0000 H   0  0  0  0  0  0  0  0  0  0  0  0
   12.6393  -10.0960    0.0000 H   0  0  0  0  0  0  0  0  0  0  0  0
   12.6394   -9.0260    0.0000 H   0  0  0  0  0  0  0  0  0  0  0  0
   13.5660  -12.2431    0.0000 H   0  0  0  0  0  0  0  0  0  0  0  0
   15.1741  -11.3146    0.0000 H   0  0  0  0  0  0  0  0  0  0  0  0
   14.2804   -7.2535    0.0000 H   0  0  0  0  0  0  0  0  0  0  0  0
   15.2070   -7.7885    0.0000 H   0  0  0  0  0  0  0  0  0  0  0  0
   12.6393   -8.2010    0.0000 H   0  0  0  0  0  0  0  0  0  0  0  0
   13.5660   -7.6660    0.0000 H   0  0  0  0  0  0  0  0  0  0  0  0
   16.1102  -10.8335    0.0000 H   0  0  0  0  0  0  0  0  0  0  0  0
   16.8363   -9.9833    0.0000 H   0  0  0  0  0  0  0  0  0  0  0  0
   17.3344   -9.1485    0.0000 H   0  0  0  0  0  0  0  0  0  0  0  0
   16.7502   -8.1951    0.0000 H   0  0  0  0  0  0  0  0  0  0  0  0
   14.8528   -8.1911    0.0000 H   0  0  0  0  0  0  0  0  0  0  0  0
   16.4940   -6.2116    0.0000 H   0  0  0  0  0  0  0  0  0  0  0  0
   17.2085   -8.6881    0.0000 H   0  0  0  0  0  0  0  0  0  0  0  0
   16.9962   -6.7086    0.0000 H   0  0  0  0  0  0  0  0  0  0  0  0
   18.7629   -5.9336    0.0000 H   0  0  0  0  0  0  0  0  0  0  0  0
   19.5641   -8.1911    0.0000 H   0  0  0  0  0  0  0  0  0  0  0  0
   19.0499   -9.4405    0.0000 H   0  0  0  0  0  0  0  0  0  0  0  0
   20.0834   -8.6475    0.0000 H   0  0  0  0  0  0  0  0  0  0  0  0
   20.3891   -7.1211    0.0000 H   0  0  0  0  0  0  0  0  0  0  0  0
   20.2190   -8.4127    0.0000 H   0  0  0  0  0  0  0  0  0  0  0  0
    9.8681  -10.7261    0.0000 H   0  0  0  0  0  0  0  0  0  0  0  0
   15.9215   -7.3760    0.0000 H   0  0  0  0  0  0  0  0  0  0  0  0
   14.0683   -7.3760    0.0000 H   0  0  0  0  0  0  0  0  0  0  0  0
   14.9949   -6.8410    0.0000 H   0  0  0  0  0  0  0  0  0  0  0  0
   12.9770   -8.2510    0.0000 H   0  0  0  0  0  0  0  0  0  0  0  0
   15.0651   -6.1736    0.0000 H   0  0  0  0  0  0  0  0  0  0  0  0
   14.1384   -7.7786    0.0000 H   0  0  0  0  0  0  0  0  0  0  0  0
   14.1385   -6.7086    0.0000 H   0  0  0  0  0  0  0  0  0  0  0  0
   13.7452   -8.6325    0.0000 H   0  0  0  0  0  0  0  0  0  0  0  0
   11.9578   -8.6325    0.0000 H   0  0  0  0  0  0  0  0  0  0  0  0
  1  2  1  0  0  0  0
  1  6  1  0  0  0  0
  1 28  1  0  0  0  0
  1 33  1  1  0  0  0
  2  3  1  0  0  0  0
  2 34  1  0  0  0  0
  2 35  1  0  0  0  0
  3  4  1  0  0  0  0
  3 26  1  0  0  0  0
  3 36  1  6  0  0  0
  4  5  1  0  0  0  0
  4 37  1  0  0  0  0
  4 38  1  0  0  0  0
  5  8  2  0  0  0  0
  6  5  1  0  0  0  0
  6 32  2  0  0  0  0
  7 10  1  0  0  0  0
  7 39  1  0  0  0  0
  7 40  1  0  0  0  0
  8  9  1  0  0  0  0
  8 41  1  0  0  0  0
  9 10  2  0  0  0  0
  9 42  1  0  0  0  0
 10 13  1  0  0  0  0
 11 12  1  0  0  0  0
 11 14  1  0  0  0  0
 11 43  1  0  0  0  0
 11 44  1  0  0  0  0
 12  7  1  0  0  0  0
 12 45  1  0  0  0  0
 12 46  1  0  0  0  0
 13 16  1  0  0  0  0
 13 29  1  6  0  0  0
 14 13  1  0  0  0  0
 14 27  1  1  0  0  0
 15 14  1  0  0  0  0
 15 17  1  0  0  0  0
 15 18  1  0  0  0  0
 15 30  1  6  0  0  0
 16 17  1  0  0  0  0
 16 47  1  0  0  0  0
 16 48  1  0  0  0  0
 17 49  1  0  0  0  0
 17 50  1  0  0  0  0
 18 19  1  0  0  0  0
 18 31  1  0  0  0  0
 18 51  1  1  0  0  0
 19 20  2  0  0  0  0
 19 52  1  0  0  0  0
 20 21  1  0  0  0  0
 20 53  1  0  0  0  0
 21 22  1  0  0  0  0
 21 23  1  0  0  0  0
 21 54  1  6  0  0  0
 22 55  1  0  0  0  0
 23 24  1  0  0  0  0
 23 25  1  0  0  0  0
 23 56  1  0  0  0  0
 24 57  1  0  0  0  0
 24 58  1  0  0  0  0
 25 24  1  0  0  0  0
 25 59  1  0  0  0  0
 25 60  1  0  0  0  0
 26 61  1  0  0  0  0
 27 62  1  0  0  0  0
 27 63  1  0  0  0  0
 27 64  1  0  0  0  0
 28 65  1  0  0  0  0
 31 66  1  0  0  0  0
 31 67  1  0  0  0  0
 31 68  1  0  0  0  0
 32 69  1  0  0  0  0
 32 70  1  0  0  0  0
M  END
>  <DRUGBANK_ID>
DB02300

>  <SECONDARY_ACCESSION_NUMBERS>
EXPT02131

>  <COMMON_NAME>
Calcipotriol

>  <CAS_NUMBER>
112965-21-6

>  <UNII>
143NQ3779B

>  <SYNONYMS>
Calcipotriene; Calcipotriol

$$$$
