
 OpenBabel10282417072D

 86 86  0  0  0  0  0  0  0  0999 V2000
   -0.7144   -1.3257    0.0000 N   0  0  0  0  0  0  0  0  0  0  0  0
   -1.3819   -1.8106    0.0000 C   0  0  0  0  0  0  0  0  0  0  0  0
   -1.1269   -2.5952    0.0000 C   0  0  0  0  0  0  0  0  0  0  0  0
   -0.3019   -2.5952    0.0000 C   0  0  0  0  0  0  0  0  0  0  0  0
   -0.0470   -1.8106    0.0000 C   0  0  1  0  0  0  0  0  0  0  0  0
    0.7375   -1.5557    0.0000 C   0  0  0  0  0  0  0  0  0  0  0  0
    0.9091   -0.7488    0.0000 O   0  0  0  0  0  0  0  0  0  0  0  0
    1.3506   -2.1078    0.0000 N   0  0  0  0  0  0  0  0  0  0  0  0
    2.1353   -1.8527    0.0000 C   0  0  2  0  0  0  0  0  0  0  0  0
    2.7483   -2.4049    0.0000 C   0  0  0  0  0  0  0  0  0  0  0  0
    2.3068   -1.0458    0.0000 C   0  0  0  0  0  0  0  0  0  0  0  0
    3.5330   -2.1499    0.0000 N   0  0  0  0  0  0  0  0  0  0  0  0
    2.5768   -3.2118    0.0000 O   0  0  0  0  0  0  0  0  0  0  0  0
   -0.7144   -0.5007    0.0000 C   0  0  0  0  0  0  0  0  0  0  0  0
    0.0000   -0.0881    0.0000 O   0  0  0  0  0  0  0  0  0  0  0  0
   -1.4289   -0.0881    0.0000 C   0  0  1  0  0  0  0  0  0  0  0  0
   -1.4289    0.7368    0.0000 N   0  0  0  0  0  0  0  0  0  0  0  0
   -2.1435    1.1492    0.0000 C   0  0  0  0  0  0  0  0  0  0  0  0
   -2.1435   -0.5007    0.0000 C   0  0  0  0  0  0  0  0  0  0  0  0
   -2.8578   -0.0881    0.0000 C   0  0  0  0  0  0  0  0  0  0  0  0
   -2.1435   -1.3257    0.0000 C   0  0  0  0  0  0  0  0  0  0  0  0
   -2.1435    1.9742    0.0000 C   0  0  3  0  0  0  0  0  0  0  0  0
   -2.8578    0.7368    0.0000 O   0  0  0  0  0  0  0  0  0  0  0  0
   -2.8578    2.3868    0.0000 C   0  0  1  0  0  0  0  0  0  0  0  0
   -2.8578    3.2118    0.0000 C   0  0  0  0  0  0  0  0  0  0  0  0
   -1.4289    2.3868    0.0000 N   0  0  0  0  0  0  0  0  0  0  0  0
   -0.7144    1.9742    0.0000 C   0  0  0  0  0  0  0  0  0  0  0  0
   -3.5723    1.9742    0.0000 C   0  0  0  0  0  0  0  0  0  0  0  0
   -4.2868    2.3868    0.0000 C   0  0  0  0  0  0  0  0  0  0  0  0
    0.0000    2.3868    0.0000 C   0  0  2  0  0  0  0  0  0  0  0  0
   -0.7144    1.1492    0.0000 O   0  0  0  0  0  0  0  0  0  0  0  0
    0.7144    1.9742    0.0000 C   0  0  0  0  0  0  0  0  0  0  0  0
    0.0000    3.2118    0.0000 N   0  0  0  0  0  0  0  0  0  0  0  0
    1.4289    2.3868    0.0000 C   0  0  0  0  0  0  0  0  0  0  0  0
    2.1435    1.9742    0.0000 C   0  0  0  0  0  0  0  0  0  0  0  0
    2.8578    2.3868    0.0000 N   0  0  0  0  0  0  0  0  0  0  0  0
    3.5723    1.9742    0.0000 C   0  0  0  0  0  0  0  0  0  0  0  0
    4.2868    2.3868    0.0000 N   0  0  0  0  0  0  0  0  0  0  0  0
    3.5723    1.1492    0.0000 N   0  0  0  0  0  0  0  0  0  0  0  0
   -2.3995   -1.4800    0.0000 H   0  0  0  0  0  0  0  0  0  0  0  0
   -2.1385   -2.5672    0.0000 H   0  0  0  0  0  0  0  0  0  0  0  0
   -1.7558   -3.4609    0.0000 H   0  0  0  0  0  0  0  0  0  0  0  0
   -0.6411   -3.5486    0.0000 H   0  0  0  0  0  0  0  0  0  0  0  0
    0.3270   -3.4608    0.0000 H   0  0  0  0  0  0  0  0  0  0  0  0
    0.7549   -2.4278    0.0000 H   0  0  0  0  0  0  0  0  0  0  0  0
    0.7096   -2.5672    0.0000 H   0  0  0  0  0  0  0  0  0  0  0  0
    1.1460   -3.0708    0.0000 H   0  0  0  0  0  0  0  0  0  0  0  0
    1.3401   -1.1368    0.0000 H   0  0  0  0  0  0  0  0  0  0  0  0
    3.3244   -0.7151    0.0000 H   0  0  0  0  0  0  0  0  0  0  0  0
    1.5116   -0.3298    0.0000 H   0  0  0  0  0  0  0  0  0  0  0  0
    2.5293    0.0008    0.0000 H   0  0  0  0  0  0  0  0  0  0  0  0
    4.2647   -2.8086    0.0000 H   0  0  0  0  0  0  0  0  0  0  0  0
    3.7376   -1.1869    0.0000 H   0  0  0  0  0  0  0  0  0  0  0  0
   -0.5022    0.4469    0.0000 H   0  0  0  0  0  0  0  0  0  0  0  0
   -0.5763    1.2291    0.0000 H   0  0  0  0  0  0  0  0  0  0  0  0
   -3.0702   -1.0356    0.0000 H   0  0  0  0  0  0  0  0  0  0  0  0
   -2.8576    0.9819    0.0000 H   0  0  0  0  0  0  0  0  0  0  0  0
   -3.7846   -0.6229    0.0000 H   0  0  0  0  0  0  0  0  0  0  0  0
   -3.7843    0.4471    0.0000 H   0  0  0  0  0  0  0  0  0  0  0  0
   -3.0701   -1.8607    0.0000 H   0  0  0  0  0  0  0  0  0  0  0  0
   -1.2169   -1.8607    0.0000 H   0  0  0  0  0  0  0  0  0  0  0  0
   -2.1435   -2.3957    0.0000 H   0  0  0  0  0  0  0  0  0  0  0  0
   -3.0702    1.4393    0.0000 H   0  0  0  0  0  0  0  0  0  0  0  0
   -1.9311    2.9217    0.0000 H   0  0  0  0  0  0  0  0  0  0  0  0
   -1.9312    3.7468    0.0000 H   0  0  0  0  0  0  0  0  0  0  0  0
   -3.7844    3.7468    0.0000 H   0  0  0  0  0  0  0  0  0  0  0  0
   -2.8578    4.2818    0.0000 H   0  0  0  0  0  0  0  0  0  0  0  0
   -1.4289    3.3713    0.0000 H   0  0  0  0  0  0  0  0  0  0  0  0
   -3.5723    0.9042    0.0000 H   0  0  0  0  0  0  0  0  0  0  0  0
   -4.4990    1.4392    0.0000 H   0  0  0  0  0  0  0  0  0  0  0  0
   -4.2867    3.4568    0.0000 H   0  0  0  0  0  0  0  0  0  0  0  0
   -5.2135    1.8519    0.0000 H   0  0  0  0  0  0  0  0  0  0  0  0
   -5.2134    2.9219    0.0000 H   0  0  0  0  0  0  0  0  0  0  0  0
   -0.9267    2.9217    0.0000 H   0  0  0  0  0  0  0  0  0  0  0  0
    0.7144    0.9042    0.0000 H   0  0  0  0  0  0  0  0  0  0  0  0
    1.6411    1.4392    0.0000 H   0  0  0  0  0  0  0  0  0  0  0  0
    0.8833    3.7218    0.0000 H   0  0  0  0  0  0  0  0  0  0  0  0
   -0.8833    3.7218    0.0000 H   0  0  0  0  0  0  0  0  0  0  0  0
    1.4289    3.4568    0.0000 H   0  0  0  0  0  0  0  0  0  0  0  0
    2.3555    2.9218    0.0000 H   0  0  0  0  0  0  0  0  0  0  0  0
    2.1436    0.9042    0.0000 H   0  0  0  0  0  0  0  0  0  0  0  0
    3.0702    1.4393    0.0000 H   0  0  0  0  0  0  0  0  0  0  0  0
    2.8577    3.3713    0.0000 H   0  0  0  0  0  0  0  0  0  0  0  0
    5.1394    1.8946    0.0000 H   0  0  0  0  0  0  0  0  0  0  0  0
    4.2867    3.3713    0.0000 H   0  0  0  0  0  0  0  0  0  0  0  0
    2.7197    0.6569    0.0000 H   0  0  0  0  0  0  0  0  0  0  0  0
  1  2  1  0  0  0  0
  1  5  1  0  0  0  0
  1 14  1  0  0  0  0
  2  3  1  0  0  0  0
  2 40  1  0  0  0  0
  2 41  1  0  0  0  0
  3  4  1  0  0  0  0
  3 42  1  0  0  0  0
  3 43  1  0  0  0  0
  4  5  1  0  0  0  0
  4 44  1  0  0  0  0
  4 45  1  0  0  0  0
  5  6  1  0  0  0  0
  5 46  1  1  0  0  0
  6  7  2  0  0  0  0
  6  8  1  0  0  0  0
  8  9  1  0  0  0  0
  8 47  1  0  0  0  0
  9 10  1  0  0  0  0
  9 11  1  0  0  0  0
  9 48  1  6  0  0  0
 10 12  1  0  0  0  0
 10 13  2  0  0  0  0
 11 49  1  0  0  0  0
 11 50  1  0  0  0  0
 11 51  1  0  0  0  0
 12 52  1  0  0  0  0
 12 53  1  0  0  0  0
 14 15  2  0  0  0  0
 14 16  1  0  0  0  0
 16 17  1  0  0  0  0
 16 19  1  0  0  0  0
 16 54  1  1  0  0  0
 17 18  1  0  0  0  0
 17 55  1  0  0  0  0
 18 22  1  0  0  0  0
 18 23  2  0  0  0  0
 19 20  1  0  0  0  0
 19 21  1  0  0  0  0
 19 56  1  0  0  0  0
 20 57  1  0  0  0  0
 20 58  1  0  0  0  0
 20 59  1  0  0  0  0
 21 60  1  0  0  0  0
 21 61  1  0  0  0  0
 21 62  1  0  0  0  0
 22 24  1  0  0  0  0
 22 26  1  0  0  0  0
 22 63  1  0  0  0  0
 24 25  1  0  0  0  0
 24 28  1  0  0  0  0
 24 64  1  1  0  0  0
 25 65  1  0  0  0  0
 25 66  1  0  0  0  0
 25 67  1  0  0  0  0
 26 27  1  0  0  0  0
 26 68  1  0  0  0  0
 27 30  1  0  0  0  0
 27 31  2  0  0  0  0
 28 29  1  0  0  0  0
 28 69  1  0  0  0  0
 28 70  1  0  0  0  0
 29 71  1  0  0  0  0
 29 72  1  0  0  0  0
 29 73  1  0  0  0  0
 30 32  1  0  0  0  0
 30 33  1  0  0  0  0
 30 74  1  6  0  0  0
 32 34  1  0  0  0  0
 32 75  1  0  0  0  0
 32 76  1  0  0  0  0
 33 77  1  0  0  0  0
 33 78  1  0  0  0  0
 34 35  1  0  0  0  0
 34 79  1  0  0  0  0
 34 80  1  0  0  0  0
 35 36  1  0  0  0  0
 35 81  1  0  0  0  0
 35 82  1  0  0  0  0
 36 37  1  0  0  0  0
 36 83  1  0  0  0  0
 37 38  1  0  0  0  0
 37 39  2  0  0  0  0
 38 84  1  0  0  0  0
 38 85  1  0  0  0  0
 39 86  1  0  0  0  0
M  END
>  <DRUGBANK_ID>
DB11879

>  <COMMON_NAME>
Dusquetide

>  <CAS_NUMBER>
931395-42-5

>  <UNII>
IKX7W49NLN

>  <SYNONYMS>
ARG-ILE-VAL-PRO-ALA-NH2; Dusquetide; L-ALANINAMIDE, L-ARGINYL-L-ISOLEUCYL-L-VALYL-L-PROLYL-; L-ARGINYL-L-ISOLEUCYL-L-VALYL-L-PROLYL-L-ALANINAMIDE; L-arginyl-L-isoleucyl-L-valyl-L-prolyl-L-alanine-amide

$$$$
