LKM
 OpenBabel10282417072D

 53 55  0  0  0  0  0  0  0  0999 V2000
   -5.5660   -8.0493    0.0000 N   0  0  0  0  0  0  0  0  0  0  0  0
   -4.8515   -8.4618    0.0000 C   0  0  0  0  0  0  0  0  0  0  0  0
   -4.1370   -8.8743    0.0000 C   0  0  0  0  0  0  0  0  0  0  0  0
   -3.4225   -8.4618    0.0000 C   0  0  0  0  0  0  0  0  0  0  0  0
   -2.7081   -8.8743    0.0000 C   0  0  0  0  0  0  0  0  0  0  0  0
   -4.1370   -9.6993    0.0000 C   0  0  0  0  0  0  0  0  0  0  0  0
   -3.4225  -10.1118    0.0000 C   0  0  0  0  0  0  0  0  0  0  0  0
   -2.7081   -9.6993    0.0000 C   0  0  0  0  0  0  0  0  0  0  0  0
   -1.9936  -10.1118    0.0000 C   0  0  0  0  0  0  0  0  0  0  0  0
   -1.2791   -9.6993    0.0000 O   0  0  0  0  0  0  0  0  0  0  0  0
   -0.5647  -10.1118    0.0000 C   0  0  0  0  0  0  0  0  0  0  0  0
    0.1498   -9.6993    0.0000 C   0  0  0  0  0  0  0  0  0  0  0  0
    0.8643  -10.1118    0.0000 C   0  0  0  0  0  0  0  0  0  0  0  0
   -0.5647  -10.9368    0.0000 C   0  0  0  0  0  0  0  0  0  0  0  0
    0.1498  -11.3493    0.0000 C   0  0  0  0  0  0  0  0  0  0  0  0
    0.8643  -10.9368    0.0000 C   0  0  0  0  0  0  0  0  0  0  0  0
    1.5788  -11.3493    0.0000 C   0  0  0  0  0  0  0  0  0  0  0  0
    0.1498  -12.1743    0.0000 C   0  0  0  0  0  0  0  0  0  0  0  0
    0.8643  -12.5868    0.0000 C   0  0  0  0  0  0  0  0  0  0  0  0
    1.5788  -12.1743    0.0000 C   0  0  0  0  0  0  0  0  0  0  0  0
    2.2932  -12.5868    0.0000 S   0  0  0  0  0  0  0  0  0  0  0  0
    1.8807  -13.3013    0.0000 O   0  0  0  0  0  0  0  0  0  0  0  0
    2.7057  -11.8724    0.0000 O   0  0  0  0  0  0  0  0  0  0  0  0
    3.0077  -12.9993    0.0000 N   0  0  0  0  0  0  0  0  0  0  0  0
    3.7222  -12.5868    0.0000 C   0  0  1  0  0  0  0  0  0  0  0  0
    3.7222  -11.7618    0.0000 C   0  0  0  0  0  0  0  0  0  0  0  0
    4.4366  -11.3493    0.0000 O   0  0  0  0  0  0  0  0  0  0  0  0
    3.0077  -11.3493    0.0000 O   0  0  0  0  0  0  0  0  0  0  0  0
    4.4366  -12.9993    0.0000 C   0  0  0  0  0  0  0  0  0  0  0  0
    5.1511  -12.5868    0.0000 C   0  0  0  0  0  0  0  0  0  0  0  0
    5.8656  -12.9993    0.0000 C   0  0  0  0  0  0  0  0  0  0  0  0
    6.5800  -12.5868    0.0000 O   0  0  0  0  0  0  0  0  0  0  0  0
    5.8656  -13.8243    0.0000 O   0  0  0  0  0  0  0  0  0  0  0  0
   -3.4225  -10.9368    0.0000 F   0  0  0  0  0  0  0  0  0  0  0  0
    3.2165  -12.2949    0.0000 H   0  0  0  0  0  0  0  0  0  0  0  0
   -3.4225   -7.4298    0.0000 H   0  0  0  0  0  0  0  0  0  0  0  0
   -1.8144   -8.3583    0.0000 H   0  0  0  0  0  0  0  0  0  0  0  0
   -5.0307  -10.2153    0.0000 H   0  0  0  0  0  0  0  0  0  0  0  0
   -1.9936  -11.1818    0.0000 H   0  0  0  0  0  0  0  0  0  0  0  0
   -1.0670  -10.6468    0.0000 H   0  0  0  0  0  0  0  0  0  0  0  0
    0.1498   -8.6673    0.0000 H   0  0  0  0  0  0  0  0  0  0  0  0
    1.7580   -9.5958    0.0000 H   0  0  0  0  0  0  0  0  0  0  0  0
   -1.4584  -11.4528    0.0000 H   0  0  0  0  0  0  0  0  0  0  0  0
    2.4725  -10.8333    0.0000 H   0  0  0  0  0  0  0  0  0  0  0  0
   -0.7439  -12.6903    0.0000 H   0  0  0  0  0  0  0  0  0  0  0  0
    0.8643  -13.6188    0.0000 H   0  0  0  0  0  0  0  0  0  0  0  0
    3.0077  -14.0193    0.0000 H   0  0  0  0  0  0  0  0  0  0  0  0
    5.2481  -11.8178    0.0000 H   0  0  0  0  0  0  0  0  0  0  0  0
    4.4366  -14.0693    0.0000 H   0  0  0  0  0  0  0  0  0  0  0  0
    5.3632  -13.5343    0.0000 H   0  0  0  0  0  0  0  0  0  0  0  0
    5.1511  -11.5168    0.0000 H   0  0  0  0  0  0  0  0  0  0  0  0
    6.0777  -12.0518    0.0000 H   0  0  0  0  0  0  0  0  0  0  0  0
    7.3915  -13.0553    0.0000 H   0  0  0  0  0  0  0  0  0  0  0  0
  1  2  3  0  0  0  0
  2  3  1  0  0  0  0
  3  4  1  0  0  0  0
  3  6  2  0  0  0  0
  4  5  2  0  0  0  0
  4 36  1  0  0  0  0
  5  8  1  0  0  0  0
  5 37  1  0  0  0  0
  6  7  1  0  0  0  0
  6 38  1  0  0  0  0
  7  8  2  0  0  0  0
  7 34  1  0  0  0  0
  8  9  1  0  0  0  0
  9 10  1  0  0  0  0
  9 39  1  0  0  0  0
  9 40  1  0  0  0  0
 10 11  1  0  0  0  0
 11 12  1  0  0  0  0
 11 14  2  0  0  0  0
 12 13  2  0  0  0  0
 12 41  1  0  0  0  0
 13 16  1  0  0  0  0
 13 42  1  0  0  0  0
 14 15  1  0  0  0  0
 14 43  1  0  0  0  0
 15 16  2  0  0  0  0
 15 18  1  0  0  0  0
 16 17  1  0  0  0  0
 17 20  2  0  0  0  0
 17 44  1  0  0  0  0
 18 19  2  0  0  0  0
 18 45  1  0  0  0  0
 19 20  1  0  0  0  0
 19 46  1  0  0  0  0
 20 21  1  0  0  0  0
 21 22  2  0  0  0  0
 21 23  2  0  0  0  0
 21 24  1  0  0  0  0
 24 47  1  0  0  0  0
 25 24  1  0  0  0  0
 25 26  1  0  0  0  0
 25 29  1  0  0  0  0
 25 35  1  6  0  0  0
 26 27  1  0  0  0  0
 26 28  2  0  0  0  0
 27 48  1  0  0  0  0
 29 30  1  0  0  0  0
 29 49  1  0  0  0  0
 29 50  1  0  0  0  0
 30 31  1  0  0  0  0
 30 51  1  0  0  0  0
 30 52  1  0  0  0  0
 31 32  1  0  0  0  0
 31 33  2  0  0  0  0
 32 53  1  0  0  0  0
M  END
>  <DRUGBANK_ID>
DB08112

>  <COMMON_NAME>
N-({6-[(4-CYANO-2-FLUOROBENZYL)OXY]NAPHTHALEN-2-YL}SULFONYL)-D-GLUTAMIC ACID

$$$$
