
 OpenBabel10282417072D

 37 39  0  0  0  0  0  0  0  0999 V2000
    0.8073    2.5225    0.0000 S   0  0  0  0  0  0  0  0  0  0  0  0
    1.9571   -0.4420    0.0000 O   0  0  0  0  0  0  0  0  0  0  0  0
    1.9603    1.3528    0.0000 O   0  0  0  0  0  0  0  0  0  0  0  0
   -1.2458   -3.3075    0.0000 O   0  0  0  0  0  0  0  0  0  0  0  0
    0.0217    0.4587    0.0000 N   0  3  0  0  0  0  0  0  0  0  0  0
    0.2492   -2.3215    0.0000 N   0  0  0  0  0  0  0  0  0  0  0  0
   -1.2458   -0.8325    0.0000 N   0  0  0  0  0  0  0  0  0  0  0  0
   -1.9603   -2.0700    0.0000 N   0  0  0  0  0  0  0  0  0  0  0  0
    0.5055   -0.2095    0.0000 C   0  0  2  0  0  0  0  0  0  0  0  0
    0.5078    1.1253    0.0000 C   0  0  1  0  0  0  0  0  0  0  0  0
    1.2905    0.0440    0.0000 C   0  0  1  0  0  0  0  0  0  0  0  0
    1.2920    0.8690    0.0000 C   0  0  2  0  0  0  0  0  0  0  0  0
    0.2492   -0.9937    0.0000 C   0  0  0  0  0  0  0  0  0  0  0  0
    0.2543    1.9103    0.0000 C   0  0  0  0  0  0  0  0  0  0  0  0
   -0.5313   -1.2450    0.0000 C   0  0  0  0  0  0  0  0  0  0  0  0
    0.7307   -1.6575    0.0000 C   0  0  0  0  0  0  0  0  0  0  0  0
   -0.5313   -2.0700    0.0000 C   0  0  0  0  0  0  0  0  0  0  0  0
   -1.2458   -2.4825    0.0000 C   0  0  0  0  0  0  0  0  0  0  0  0
    0.5537    3.3075    0.0000 C   0  0  0  0  0  0  0  0  0  0  0  0
   -1.9603   -1.2450    0.0000 C   0  0  0  0  0  0  0  0  0  0  0  0
   -0.3915    0.7601    0.0000 H   0  0  0  0  0  0  0  0  0  0  0  0
   -0.3925    0.1588    0.0000 H   0  0  0  0  0  0  0  0  0  0  0  0
    0.4081   -2.8077    0.0000 H   0  0  0  0  0  0  0  0  0  0  0  0
   -1.2458   -0.3210    0.0000 H   0  0  0  0  0  0  0  0  0  0  0  0
    1.8541   -1.4065    0.0000 H   0  0  0  0  0  0  0  0  0  0  0  0
    2.8458    0.9567    0.0000 H   0  0  0  0  0  0  0  0  0  0  0  0
   -0.5516   -0.3751    0.0000 H   0  0  0  0  0  0  0  0  0  0  0  0
   -0.5487    1.2946    0.0000 H   0  0  0  0  0  0  0  0  0  0  0  0
    1.1213   -1.0125    0.0000 H   0  0  0  0  0  0  0  0  0  0  0  0
    1.1264    1.9261    0.0000 H   0  0  0  0  0  0  0  0  0  0  0  0
   -0.7919    2.1345    0.0000 H   0  0  0  0  0  0  0  0  0  0  0  0
   -0.4631    1.1164    0.0000 H   0  0  0  0  0  0  0  0  0  0  0  0
    1.7627   -1.6574    0.0000 H   0  0  0  0  0  0  0  0  0  0  0  0
    1.2710    4.1015    0.0000 H   0  0  0  0  0  0  0  0  0  0  0  0
   -0.4925    3.5317    0.0000 H   0  0  0  0  0  0  0  0  0  0  0  0
    0.2248    4.3257    0.0000 H   0  0  0  0  0  0  0  0  0  0  0  0
   -2.8540   -0.7290    0.0000 H   0  0  0  0  0  0  0  0  0  0  0  0
  1 14  1  0  0  0  0
  1 19  1  0  0  0  0
  2 25  1  0  0  0  0
  3 26  1  0  0  0  0
  4 18  2  0  0  0  0
  5  9  1  0  0  0  0
  5 10  1  0  0  0  0
  5 21  1  0  0  0  0
  5 22  1  0  0  0  0
  6 16  1  0  0  0  0
  6 17  1  0  0  0  0
  6 23  1  0  0  0  0
  7 15  1  0  0  0  0
  7 20  1  0  0  0  0
  7 24  1  0  0  0  0
  8 18  1  0  0  0  0
  8 20  2  0  0  0  0
  9 11  1  0  0  0  0
  9 13  1  0  0  0  0
  9 27  1  1  0  0  0
 10 12  1  0  0  0  0
 10 14  1  0  0  0  0
 10 28  1  1  0  0  0
 11  2  1  0  0  0  0
 11 12  1  0  0  0  0
 11 29  1  6  0  0  0
 12  3  1  0  0  0  0
 12 30  1  6  0  0  0
 13 15  1  0  0  0  0
 13 16  2  0  0  0  0
 14 31  1  0  0  0  0
 14 32  1  0  0  0  0
 15 17  2  0  0  0  0
 16 33  1  0  0  0  0
 17 18  1  0  0  0  0
 19 34  1  0  0  0  0
 19 35  1  0  0  0  0
 19 36  1  0  0  0  0
 20 37  1  0  0  0  0
M  CHG  1   5   1
M  END
>  <DRUGBANK_ID>
DB03881

>  <SECONDARY_ACCESSION_NUMBERS>
EXPT02245

>  <COMMON_NAME>
(2S,3R,4S,5S)-3,4-Dihydroxy-2-[(methylsulfanyl)methyl]-5-(4-oxo-4,5-dihydro-1H-pyrrolo[3,2-d]pyrimidin-7-yl)pyrrolidinium

$$$$
