
 OpenBabel10282417072D

 64 69  0  0  1  0  0  0  0  0999 V2000
    3.4566    2.1433    0.0000 C   0  0  0  0  0  0  0  0  0  0  0  0
    3.8691    2.8578    0.0000 C   0  0  0  0  0  0  0  0  0  0  0  0
    4.6941    2.8578    0.0000 C   0  0  0  0  0  0  0  0  0  0  0  0
    5.1066    2.1433    0.0000 C   0  0  0  0  0  0  0  0  0  0  0  0
    4.6941    1.4288    0.0000 C   0  0  0  0  0  0  0  0  0  0  0  0
    3.8691    1.4288    0.0000 C   0  0  0  0  0  0  0  0  0  0  0  0
    3.4566    0.7144    0.0000 C   0  0  0  0  0  0  0  0  0  0  0  0
    3.8691   -0.0001    0.0000 N   0  0  0  0  0  0  0  0  0  0  0  0
    3.4566   -0.7146    0.0000 C   0  0  0  0  0  0  0  0  0  0  0  0
    2.6316   -0.7146    0.0000 N   0  0  0  0  0  0  0  0  0  0  0  0
    2.0215   -0.1243    0.0000 C   0  0  0  0  0  0  0  0  0  0  0  0
    2.6316    0.7144    0.0000 N   0  0  0  0  0  0  0  0  0  0  0  0
    1.3941   -0.0001    0.0000 N   0  0  0  0  0  0  0  0  0  0  0  0
    1.1624    0.9268    0.0000 C   0  0  2  0  0  0  0  0  0  0  0  0
    0.5174    0.4124    0.0000 C   0  0  0  0  0  0  0  0  0  0  0  0
    0.5174   -0.4126    0.0000 C   0  0  0  0  0  0  0  0  0  0  0  0
    1.1624   -0.9270    0.0000 C   0  0  1  0  0  0  0  0  0  0  0  0
    1.9667   -0.7434    0.0000 C   0  0  0  0  0  0  0  0  0  0  0  0
    2.3247   -0.0001    0.0000 O   0  0  0  0  0  0  0  0  0  0  0  0
    1.9667    0.7432    0.0000 C   0  0  0  0  0  0  0  0  0  0  0  0
    3.8691   -1.4290    0.0000 N   0  0  0  0  0  0  0  0  0  0  0  0
    4.6941   -1.4290    0.0000 C   0  0  0  0  0  0  0  0  0  0  0  0
    5.1066   -2.1435    0.0000 C   0  0  0  0  0  0  0  0  0  0  0  0
    4.6941   -2.8580    0.0000 O   0  0  0  0  0  0  0  0  0  0  0  0
    3.8691   -2.8580    0.0000 C   0  0  0  0  0  0  0  0  0  0  0  0
    3.4566   -2.1435    0.0000 C   0  0  0  0  0  0  0  0  0  0  0  0
    5.1066    3.5723    0.0000 N   0  0  0  0  0  0  0  0  0  0  0  0
    5.9316    3.5723    0.0000 C   0  0  0  0  0  0  0  0  0  0  0  0
    6.3441    2.8578    0.0000 O   0  0  0  0  0  0  0  0  0  0  0  0
    6.3441    4.2867    0.0000 N   0  0  0  0  0  0  0  0  0  0  0  0
    7.1691    4.2867    0.0000 C   0  0  0  0  0  0  0  0  0  0  0  0
    7.5816    5.0012    0.0000 C   0  0  0  0  0  0  0  0  0  0  0  0
    8.4066    5.0012    0.0000 C   0  0  0  0  0  0  0  0  0  0  0  0
    8.8191    4.2867    0.0000 N   0  0  0  0  0  0  0  0  0  0  0  0
    8.4066    3.5723    0.0000 C   0  0  0  0  0  0  0  0  0  0  0  0
    7.5816    3.5723    0.0000 C   0  0  0  0  0  0  0  0  0  0  0  0
    2.4246    2.1433    0.0000 H   0  0  0  0  0  0  0  0  0  0  0  0
    3.3531    3.7515    0.0000 H   0  0  0  0  0  0  0  0  0  0  0  0
    6.1386    2.1433    0.0000 H   0  0  0  0  0  0  0  0  0  0  0  0
    5.2101    0.5351    0.0000 H   0  0  0  0  0  0  0  0  0  0  0  0
    0.8194   -0.0867    0.0000 H   0  0  0  0  0  0  0  0  0  0  0  0
   -0.4466    0.8766    0.0000 H   0  0  0  0  0  0  0  0  0  0  0  0
   -0.3886   -0.1569    0.0000 H   0  0  0  0  0  0  0  0  0  0  0  0
   -0.4466   -0.8768    0.0000 H   0  0  0  0  0  0  0  0  0  0  0  0
    0.3976   -1.4759    0.0000 H   0  0  0  0  0  0  0  0  0  0  0  0
    0.8194    0.0865    0.0000 H   0  0  0  0  0  0  0  0  0  0  0  0
    2.6338   -1.5800    0.0000 H   0  0  0  0  0  0  0  0  0  0  0  0
    3.0300   -0.6236    0.0000 H   0  0  0  0  0  0  0  0  0  0  0  0
    2.6338    1.5798    0.0000 H   0  0  0  0  0  0  0  0  0  0  0  0
    1.6133    1.7532    0.0000 H   0  0  0  0  0  0  0  0  0  0  0  0
    5.2291   -0.5024    0.0000 H   0  0  0  0  0  0  0  0  0  0  0  0
    5.7641   -1.4290    0.0000 H   0  0  0  0  0  0  0  0  0  0  0  0
    6.1766   -2.1435    0.0000 H   0  0  0  0  0  0  0  0  0  0  0  0
    5.6416   -3.0701    0.0000 H   0  0  0  0  0  0  0  0  0  0  0  0
    3.3341   -3.7846    0.0000 H   0  0  0  0  0  0  0  0  0  0  0  0
    2.7991   -2.8580    0.0000 H   0  0  0  0  0  0  0  0  0  0  0  0
    2.3866   -2.1435    0.0000 H   0  0  0  0  0  0  0  0  0  0  0  0
    2.9216   -1.2169    0.0000 H   0  0  0  0  0  0  0  0  0  0  0  0
    4.6143    4.4249    0.0000 H   0  0  0  0  0  0  0  0  0  0  0  0
    5.8519    5.1393    0.0000 H   0  0  0  0  0  0  0  0  0  0  0  0
    7.0656    5.8949    0.0000 H   0  0  0  0  0  0  0  0  0  0  0  0
    8.9226    5.8949    0.0000 H   0  0  0  0  0  0  0  0  0  0  0  0
    8.9226    2.6786    0.0000 H   0  0  0  0  0  0  0  0  0  0  0  0
    7.0656    2.6786    0.0000 H   0  0  0  0  0  0  0  0  0  0  0  0
  1  2  2  0  0  0  0
  1  6  1  0  0  0  0
  1 37  1  0  0  0  0
  2  3  1  0  0  0  0
  2 38  1  0  0  0  0
  3  4  2  0  0  0  0
  3 27  1  0  0  0  0
  4  5  1  0  0  0  0
  4 39  1  0  0  0  0
  5  6  2  0  0  0  0
  5 40  1  0  0  0  0
  6  7  1  0  0  0  0
  7  8  2  0  0  0  0
  7 12  1  0  0  0  0
  8  9  1  0  0  0  0
  9 10  2  0  0  0  0
  9 21  1  0  0  0  0
 10 11  1  0  0  0  0
 11 12  2  0  0  0  0
 11 13  1  0  0  0  0
 14 13  1  0  0  0  0
 14 15  1  0  0  0  0
 14 20  1  0  0  0  0
 14 41  1  1  0  0  0
 15 16  1  0  0  0  0
 15 42  1  0  0  0  0
 15 43  1  0  0  0  0
 16 17  1  0  0  0  0
 16 44  1  0  0  0  0
 16 45  1  0  0  0  0
 17 13  1  0  0  0  0
 17 18  1  0  0  0  0
 17 46  1  1  0  0  0
 18 19  1  0  0  0  0
 18 47  1  0  0  0  0
 18 48  1  0  0  0  0
 19 20  1  0  0  0  0
 20 49  1  0  0  0  0
 20 50  1  0  0  0  0
 21 22  1  0  0  0  0
 21 26  1  0  0  0  0
 22 23  1  0  0  0  0
 22 51  1  0  0  0  0
 22 52  1  0  0  0  0
 23 24  1  0  0  0  0
 23 53  1  0  0  0  0
 23 54  1  0  0  0  0
 24 25  1  0  0  0  0
 25 26  1  0  0  0  0
 25 55  1  0  0  0  0
 25 56  1  0  0  0  0
 26 57  1  0  0  0  0
 26 58  1  0  0  0  0
 27 28  1  0  0  0  0
 27 59  1  0  0  0  0
 28 29  2  0  0  0  0
 28 30  1  0  0  0  0
 30 31  1  0  0  0  0
 30 60  1  0  0  0  0
 31 32  2  0  0  0  0
 31 36  1  0  0  0  0
 32 33  1  0  0  0  0
 32 61  1  0  0  0  0
 33 34  2  0  0  0  0
 33 62  1  0  0  0  0
 34 35  1  0  0  0  0
 35 36  2  0  0  0  0
 35 63  1  0  0  0  0
 36 64  1  0  0  0  0
M  END
>  <DRUGBANK_ID>
DB13109

>  <COMMON_NAME>
PKI-179

>  <CAS_NUMBER>
1197160-28-3

>  <UNII>
CNN7Y60164

$$$$
