916
 OpenBabel10282417072D

 21 21  0  0  0  0  0  0  0  0999 V2000
    2.3876   -1.5382    0.0000 O   0  0  0  0  0  0  0  0  0  0  0  0
    5.1674    1.3064    0.0000 O   0  5  0  0  0  0  0  0  0  0  0  0
    4.7258   -0.0526    0.0000 O   0  0  0  0  0  0  0  0  0  0  0  0
    3.1022    0.5244    0.0000 N   0  0  0  0  0  0  0  0  0  0  0  0
    2.6897    1.7939    0.0000 N   0  0  0  0  0  0  0  0  0  0  0  0
    4.5542    0.7543    0.0000 N   0  3  0  0  0  0  0  0  0  0  0  0
    3.1022   -0.3006    0.0000 C   0  0  0  0  0  0  0  0  0  0  0  0
    2.4347    1.0093    0.0000 C   0  0  0  0  0  0  0  0  0  0  0  0
    3.7696    1.0093    0.0000 C   0  0  0  0  0  0  0  0  0  0  0  0
    2.3876   -0.7132    0.0000 C   0  0  0  0  0  0  0  0  0  0  0  0
    3.5147    1.7939    0.0000 C   0  0  0  0  0  0  0  0  0  0  0  0
    1.6500    0.7543    0.0000 C   0  0  0  0  0  0  0  0  0  0  0  0
    1.5476   -2.0232    0.0000 H   0  0  0  0  0  0  0  0  0  0  0  0
    4.0289   -0.8356    0.0000 H   0  0  0  0  0  0  0  0  0  0  0  0
    3.1022   -1.3706    0.0000 H   0  0  0  0  0  0  0  0  0  0  0  0
    1.4609   -0.1782    0.0000 H   0  0  0  0  0  0  0  0  0  0  0  0
    2.3876    0.3568    0.0000 H   0  0  0  0  0  0  0  0  0  0  0  0
    4.1213    2.6288    0.0000 H   0  0  0  0  0  0  0  0  0  0  0  0
    0.8548    1.4702    0.0000 H   0  0  0  0  0  0  0  0  0  0  0  0
    1.4276   -0.2923    0.0000 H   0  0  0  0  0  0  0  0  0  0  0  0
    0.6324    0.4236    0.0000 H   0  0  0  0  0  0  0  0  0  0  0  0
  1 10  1  0  0  0  0
  1 13  1  0  0  0  0
  2  6  1  0  0  0  0
  3  6  2  0  0  0  0
  4  7  1  0  0  0  0
  4  8  1  0  0  0  0
  4  9  1  0  0  0  0
  5  8  2  0  0  0  0
  5 11  1  0  0  0  0
  6  9  1  0  0  0  0
  7 10  1  0  0  0  0
  7 14  1  0  0  0  0
  7 15  1  0  0  0  0
  8 12  1  0  0  0  0
  9 11  2  0  0  0  0
 10 16  1  0  0  0  0
 10 17  1  0  0  0  0
 11 18  1  0  0  0  0
 12 19  1  0  0  0  0
 12 20  1  0  0  0  0
 12 21  1  0  0  0  0
M  CHG  2   2  -1   6   1
M  END
>  <DRUGBANK_ID>
DB00916

>  <SECONDARY_ACCESSION_NUMBERS>
APRD00631

>  <COMMON_NAME>
Metronidazole

>  <CAS_NUMBER>
443-48-1

>  <UNII>
140QMO216E

>  <SYNONYMS>
1-(2-hydroxy-1-ethyl)-2-methyl-5-nitroimidazole; 1-(2-hydroxyethyl)-2-methyl-5-nitroimidazole; 1-(β-ethylol)-2-methyl-5-nitro-3-azapyrrole; 1-(β-hydroxyethyl)-2-methyl-5-nitroimidazole; 1-(β-oxyethyl)-2-methyl-5-nitroimidazole; 2-methyl-1-(2-hydroxyethyl)-5-nitroimidazole; 2-methyl-3-(2-hydroxyethyl)-4-nitroimidazole; 2-methyl-5-nitroimidazole-1-ethanol; Metronidazol; Métronidazole; Metronidazole; Metronidazolum

$$$$
