GA0
 OpenBabel10282417072D

 51 53  0  0  0  0  0  0  0  0999 V2000
   -3.8189    0.8843    0.0000 N   0  0  0  0  0  0  0  0  0  0  0  0
   -3.1045    0.4718    0.0000 C   0  0  0  0  0  0  0  0  0  0  0  0
   -2.3900    0.8843    0.0000 C   0  0  0  0  0  0  0  0  0  0  0  0
   -2.3900    1.7093    0.0000 O   0  0  0  0  0  0  0  0  0  0  0  0
   -1.6755    0.4718    0.0000 N   0  0  0  0  0  0  0  0  0  0  0  0
   -0.9610    0.8843    0.0000 C   0  0  1  0  0  0  0  0  0  0  0  0
   -0.9610    1.7093    0.0000 C   0  0  0  0  0  0  0  0  0  0  0  0
   -0.2466    0.4718    0.0000 C   0  0  0  0  0  0  0  0  0  0  0  0
   -0.2466   -0.3532    0.0000 O   0  0  0  0  0  0  0  0  0  0  0  0
    0.4679    0.8843    0.0000 N   0  0  0  0  0  0  0  0  0  0  0  0
    0.5541    1.7048    0.0000 C   0  0  0  0  0  0  0  0  0  0  0  0
    1.2216    0.5488    0.0000 C   0  0  1  0  0  0  0  0  0  0  0  0
    1.7736    1.1619    0.0000 C   0  0  0  0  0  0  0  0  0  0  0  0
    1.3611    1.8763    0.0000 C   0  0  0  0  0  0  0  0  0  0  0  0
    1.3931   -0.2582    0.0000 C   0  0  0  0  0  0  0  0  0  0  0  0
    2.1777   -0.5131    0.0000 O   0  0  0  0  0  0  0  0  0  0  0  0
    0.7800   -0.8102    0.0000 N   0  0  0  0  0  0  0  0  0  0  0  0
    0.9515   -1.6172    0.0000 C   0  0  0  0  0  0  0  0  0  0  0  0
    0.3384   -2.1692    0.0000 C   0  0  0  0  0  0  0  0  0  0  0  0
    0.5100   -2.9762    0.0000 C   0  0  0  0  0  0  0  0  0  0  0  0
    1.2946   -3.2312    0.0000 C   0  0  0  0  0  0  0  0  0  0  0  0
    1.4661   -4.0381    0.0000 C   0  0  0  0  0  0  0  0  0  0  0  0
    0.8530   -4.5902    0.0000 C   0  0  0  0  0  0  0  0  0  0  0  0
    0.0684   -4.3352    0.0000 C   0  0  0  0  0  0  0  0  0  0  0  0
   -0.1031   -3.5283    0.0000 C   0  0  0  0  0  0  0  0  0  0  0  0
    1.9077   -2.6791    0.0000 C   0  0  0  0  0  0  0  0  0  0  0  0
    1.7362   -1.8722    0.0000 C   0  0  0  0  0  0  0  0  0  0  0  0
   -1.4667    1.1763    0.0000 H   0  0  0  0  0  0  0  0  0  0  0  0
    0.7678    0.1813    0.0000 H   0  0  0  0  0  0  0  0  0  0  0  0
   -3.8189    1.9043    0.0000 H   0  0  0  0  0  0  0  0  0  0  0  0
   -4.7023    0.3743    0.0000 H   0  0  0  0  0  0  0  0  0  0  0  0
   -3.1045   -0.5982    0.0000 H   0  0  0  0  0  0  0  0  0  0  0  0
   -2.1779   -0.0632    0.0000 H   0  0  0  0  0  0  0  0  0  0  0  0
   -1.6755   -0.5127    0.0000 H   0  0  0  0  0  0  0  0  0  0  0  0
   -0.0344    2.2443    0.0000 H   0  0  0  0  0  0  0  0  0  0  0  0
   -1.8876    2.2443    0.0000 H   0  0  0  0  0  0  0  0  0  0  0  0
   -0.9610    2.7793    0.0000 H   0  0  0  0  0  0  0  0  0  0  0  0
   -0.2411    2.4208    0.0000 H   0  0  0  0  0  0  0  0  0  0  0  0
    0.8311    2.7383    0.0000 H   0  0  0  0  0  0  0  0  0  0  0  0
    2.8377    1.0501    0.0000 H   0  0  0  0  0  0  0  0  0  0  0  0
    2.3563    2.0593    0.0000 H   0  0  0  0  0  0  0  0  0  0  0  0
    1.7963    2.8538    0.0000 H   0  0  0  0  0  0  0  0  0  0  0  0
    2.4296    1.9323    0.0000 H   0  0  0  0  0  0  0  0  0  0  0  0
   -0.1563   -0.5059    0.0000 H   0  0  0  0  0  0  0  0  0  0  0  0
   -0.6431   -1.8503    0.0000 H   0  0  0  0  0  0  0  0  0  0  0  0
    2.4476   -4.3570    0.0000 H   0  0  0  0  0  0  0  0  0  0  0  0
    1.0676   -5.5997    0.0000 H   0  0  0  0  0  0  0  0  0  0  0  0
   -0.6986   -5.0257    0.0000 H   0  0  0  0  0  0  0  0  0  0  0  0
   -1.0846   -3.2094    0.0000 H   0  0  0  0  0  0  0  0  0  0  0  0
    2.8892   -2.9980    0.0000 H   0  0  0  0  0  0  0  0  0  0  0  0
    2.5031   -1.1817    0.0000 H   0  0  0  0  0  0  0  0  0  0  0  0
  1  2  1  0  0  0  0
  1 30  1  0  0  0  0
  1 31  1  0  0  0  0
  2  3  1  0  0  0  0
  2 32  1  0  0  0  0
  2 33  1  0  0  0  0
  3  4  2  0  0  0  0
  3  5  1  0  0  0  0
  5  6  1  0  0  0  0
  5 34  1  0  0  0  0
  6  7  1  0  0  0  0
  6  8  1  0  0  0  0
  6 28  1  6  0  0  0
  7 35  1  0  0  0  0
  7 36  1  0  0  0  0
  7 37  1  0  0  0  0
  8  9  2  0  0  0  0
  8 10  1  0  0  0  0
 10 11  1  0  0  0  0
 10 12  1  0  0  0  0
 11 14  1  0  0  0  0
 11 38  1  0  0  0  0
 11 39  1  0  0  0  0
 12 13  1  0  0  0  0
 12 15  1  0  0  0  0
 12 29  1  6  0  0  0
 13 14  1  0  0  0  0
 13 40  1  0  0  0  0
 13 41  1  0  0  0  0
 14 42  1  0  0  0  0
 14 43  1  0  0  0  0
 15 16  2  0  0  0  0
 15 17  1  0  0  0  0
 17 18  1  0  0  0  0
 17 44  1  0  0  0  0
 18 19  1  0  0  0  0
 18 27  2  0  0  0  0
 19 20  2  0  0  0  0
 19 45  1  0  0  0  0
 20 21  1  0  0  0  0
 20 25  1  0  0  0  0
 21 22  1  0  0  0  0
 21 26  2  0  0  0  0
 22 23  2  0  0  0  0
 22 46  1  0  0  0  0
 23 24  1  0  0  0  0
 23 47  1  0  0  0  0
 24 25  2  0  0  0  0
 24 48  1  0  0  0  0
 25 49  1  0  0  0  0
 26 27  1  0  0  0  0
 26 50  1  0  0  0  0
 27 51  1  0  0  0  0
M  END
>  <DRUGBANK_ID>
DB07813

>  <COMMON_NAME>
GLYCYLALANYL-N-2-NAPHTHYL-L-PROLINEAMIDE

$$$$
