
 OpenBabel10282417072D

 65 67  0  0  1  0  0  0  0  0999 V2000
    5.0352    1.6103    0.0000 C   0  0  0  0  0  0  0  0  0  0  0  0
    5.5201    0.9429    0.0000 C   0  0  0  0  0  0  0  0  0  0  0  0
    6.3406    1.0291    0.0000 C   0  0  0  0  0  0  0  0  0  0  0  0
    5.1846    0.1892    0.0000 O   0  0  0  0  0  0  0  0  0  0  0  0
    5.6695   -0.4783    0.0000 C   0  0  0  0  0  0  0  0  0  0  0  0
    6.4900   -0.3920    0.0000 O   0  0  0  0  0  0  0  0  0  0  0  0
    5.3339   -1.2319    0.0000 C   0  0  1  0  0  0  0  0  0  0  0  0
    4.5135   -1.3182    0.0000 C   0  0  0  0  0  0  0  0  0  0  0  0
    5.8189   -1.8994    0.0000 N   0  0  0  0  0  0  0  0  0  0  0  0
    5.4833   -2.6531    0.0000 P   0  0  1  0  0  0  0  0  0  0  0  0
    4.7296   -2.3175    0.0000 O   0  0  0  0  0  0  0  0  0  0  0  0
    5.1477   -3.4067    0.0000 O   0  0  0  0  0  0  0  0  0  0  0  0
    4.3273   -3.4930    0.0000 C   0  0  0  0  0  0  0  0  0  0  0  0
    3.8423   -2.8255    0.0000 C   0  0  1  0  0  0  0  0  0  0  0  0
    3.0173   -2.8255    0.0000 O   0  0  0  0  0  0  0  0  0  0  0  0
    2.7624   -2.0409    0.0000 C   0  0  1  0  0  0  0  0  0  0  0  0
    1.9778   -1.7860    0.0000 N   0  0  0  0  0  0  0  0  0  0  0  0
    1.3647   -2.3380    0.0000 C   0  0  0  0  0  0  0  0  0  0  0  0
    0.5801   -2.0831    0.0000 C   0  0  0  0  0  0  0  0  0  0  0  0
    0.4085   -1.2761    0.0000 C   0  0  0  0  0  0  0  0  0  0  0  0
   -0.3761   -1.0211    0.0000 O   0  0  0  0  0  0  0  0  0  0  0  0
    1.0216   -0.7241    0.0000 N   0  0  0  0  0  0  0  0  0  0  0  0
    1.8062   -0.9790    0.0000 C   0  0  0  0  0  0  0  0  0  0  0  0
    2.4193   -0.4270    0.0000 O   0  0  0  0  0  0  0  0  0  0  0  0
    3.4298   -1.5560    0.0000 C   0  0  2  0  0  0  0  0  0  0  0  0
    2.8778   -0.9429    0.0000 C   0  0  0  0  0  0  0  0  0  0  0  0
    3.9819   -0.9429    0.0000 Cl  0  0  0  0  0  0  0  0  0  0  0  0
    4.0973   -2.0409    0.0000 C   0  0  2  0  0  0  0  0  0  0  0  0
    4.8819   -1.7860    0.0000 O   0  0  0  0  0  0  0  0  0  0  0  0
    6.2370   -2.9886    0.0000 O   0  0  0  0  0  0  0  0  0  0  0  0
    6.3232   -3.8091    0.0000 C   0  0  0  0  0  0  0  0  0  0  0  0
    7.0769   -4.1446    0.0000 C   0  0  0  0  0  0  0  0  0  0  0  0
    7.1631   -4.9651    0.0000 C   0  0  0  0  0  0  0  0  0  0  0  0
    6.4957   -5.4501    0.0000 C   0  0  0  0  0  0  0  0  0  0  0  0
    5.7420   -5.1145    0.0000 C   0  0  0  0  0  0  0  0  0  0  0  0
    5.6558   -4.2940    0.0000 C   0  0  0  0  0  0  0  0  0  0  0  0
    5.4704    2.5878    0.0000 H   0  0  0  0  0  0  0  0  0  0  0  0
    3.9711    1.4984    0.0000 H   0  0  0  0  0  0  0  0  0  0  0  0
    4.4063    2.4759    0.0000 H   0  0  0  0  0  0  0  0  0  0  0  0
    6.1490    0.0773    0.0000 H   0  0  0  0  0  0  0  0  0  0  0  0
    6.9695    0.1634    0.0000 H   0  0  0  0  0  0  0  0  0  0  0  0
    6.7759    2.0066    0.0000 H   0  0  0  0  0  0  0  0  0  0  0  0
    7.4047    1.1409    0.0000 H   0  0  0  0  0  0  0  0  0  0  0  0
    4.7050   -0.3663    0.0000 H   0  0  0  0  0  0  0  0  0  0  0  0
    3.8845   -0.4526    0.0000 H   0  0  0  0  0  0  0  0  0  0  0  0
    4.0784   -2.2957    0.0000 H   0  0  0  0  0  0  0  0  0  0  0  0
    3.4494   -1.4301    0.0000 H   0  0  0  0  0  0  0  0  0  0  0  0
    6.8333   -1.7928    0.0000 H   0  0  0  0  0  0  0  0  0  0  0  0
    3.8922   -4.4705    0.0000 H   0  0  0  0  0  0  0  0  0  0  0  0
    3.2632   -3.6049    0.0000 H   0  0  0  0  0  0  0  0  0  0  0  0
    3.3565   -3.7789    0.0000 H   0  0  0  0  0  0  0  0  0  0  0  0
    2.0058   -2.7975    0.0000 H   0  0  0  0  0  0  0  0  0  0  0  0
    1.5793   -3.3474    0.0000 H   0  0  0  0  0  0  0  0  0  0  0  0
   -0.1868   -2.7737    0.0000 H   0  0  0  0  0  0  0  0  0  0  0  0
    0.8169    0.2389    0.0000 H   0  0  0  0  0  0  0  0  0  0  0  0
    3.2085    0.0747    0.0000 H   0  0  0  0  0  0  0  0  0  0  0  0
    1.8312   -1.1653    0.0000 H   0  0  0  0  0  0  0  0  0  0  0  0
    2.1619   -0.1477    0.0000 H   0  0  0  0  0  0  0  0  0  0  0  0
    4.2647   -0.9841    0.0000 H   0  0  0  0  0  0  0  0  0  0  0  0
    5.6027   -2.4351    0.0000 H   0  0  0  0  0  0  0  0  0  0  0  0
    7.9118   -3.5380    0.0000 H   0  0  0  0  0  0  0  0  0  0  0  0
    8.1059   -5.3848    0.0000 H   0  0  0  0  0  0  0  0  0  0  0  0
    6.6036   -6.4764    0.0000 H   0  0  0  0  0  0  0  0  0  0  0  0
    4.9071   -5.7211    0.0000 H   0  0  0  0  0  0  0  0  0  0  0  0
    4.7130   -3.8742    0.0000 H   0  0  0  0  0  0  0  0  0  0  0  0
  1  2  1  0  0  0  0
  1 37  1  0  0  0  0
  1 38  1  0  0  0  0
  1 39  1  0  0  0  0
  2  3  1  0  0  0  0
  2  4  1  0  0  0  0
  2 40  1  0  0  0  0
  3 41  1  0  0  0  0
  3 42  1  0  0  0  0
  3 43  1  0  0  0  0
  4  5  1  0  0  0  0
  5  6  2  0  0  0  0
  7  5  1  0  0  0  0
  7  8  1  0  0  0  0
  7  9  1  0  0  0  0
  7 44  1  1  0  0  0
  8 45  1  0  0  0  0
  8 46  1  0  0  0  0
  8 47  1  0  0  0  0
  9 48  1  0  0  0  0
 10  9  1  0  0  0  0
 10 11  2  1  0  0  0
 10 12  1  0  0  0  0
 10 30  1  0  0  0  0
 12 13  1  0  0  0  0
 13 49  1  0  0  0  0
 13 50  1  0  0  0  0
 14 13  1  0  0  0  0
 14 15  1  0  0  0  0
 14 51  1  6  0  0  0
 16 15  1  0  0  0  0
 16 17  1  0  0  0  0
 16 52  1  6  0  0  0
 17 18  1  0  0  0  0
 17 23  1  0  0  0  0
 18 19  2  0  0  0  0
 18 53  1  0  0  0  0
 19 20  1  0  0  0  0
 19 54  1  0  0  0  0
 20 21  2  0  0  0  0
 20 22  1  0  0  0  0
 22 23  1  0  0  0  0
 22 55  1  0  0  0  0
 23 24  2  0  0  0  0
 25 16  1  0  0  0  0
 25 26  1  0  0  0  0
 25 27  1  6  0  0  0
 25 28  1  0  0  0  0
 26 56  1  0  0  0  0
 26 57  1  0  0  0  0
 26 58  1  0  0  0  0
 28 14  1  0  0  0  0
 28 29  1  0  0  0  0
 28 59  1  1  0  0  0
 29 60  1  0  0  0  0
 30 31  1  0  0  0  0
 31 32  2  0  0  0  0
 31 36  1  0  0  0  0
 32 33  1  0  0  0  0
 32 61  1  0  0  0  0
 33 34  2  0  0  0  0
 33 62  1  0  0  0  0
 34 35  1  0  0  0  0
 34 63  1  0  0  0  0
 35 36  2  0  0  0  0
 35 64  1  0  0  0  0
 36 65  1  0  0  0  0
M  END
>  <DRUGBANK_ID>
DB15206

>  <COMMON_NAME>
Uprifosbuvir

>  <CAS_NUMBER>
1496551-77-9

>  <UNII>
JW31KPS26S

>  <SYNONYMS>
Uprifosbuvir

$$$$
