HOC
 OpenBabel10282417072D

 27 26  0  0  0  0  0  0  0  0999 V2000
   -2.0779    0.1218    0.0000 C   0  0  0  0  0  0  0  0  0  0  0  0
   -1.3634   -0.2907    0.0000 C   0  0  0  0  0  0  0  0  0  0  0  0
    2.2093    0.9469    0.0000 O   0  0  0  0  0  0  0  0  0  0  0  0
    2.9238   -0.2907    0.0000 C   0  0  0  0  0  0  0  0  0  0  0  0
    2.2093    0.1218    0.0000 C   0  0  2  0  0  0  0  0  0  0  0  0
    1.4947   -0.2907    0.0000 C   0  0  0  0  0  0  0  0  0  0  0  0
    0.7802    0.1218    0.0000 C   0  0  0  0  0  0  0  0  0  0  0  0
    0.0657   -0.2907    0.0000 C   0  0  0  0  0  0  0  0  0  0  0  0
   -0.6488    0.1218    0.0000 C   0  0  0  0  0  0  0  0  0  0  0  0
    3.6383    0.1218    0.0000 O   0  0  0  0  0  0  0  0  0  0  0  0
    2.9238   -1.1158    0.0000 O   0  0  0  0  0  0  0  0  0  0  0  0
    2.7150    0.4137    0.0000 H   0  0  0  0  0  0  0  0  0  0  0  0
   -2.0779    1.1918    0.0000 H   0  0  0  0  0  0  0  0  0  0  0  0
   -3.0045   -0.4132    0.0000 H   0  0  0  0  0  0  0  0  0  0  0  0
   -3.0046    0.6568    0.0000 H   0  0  0  0  0  0  0  0  0  0  0  0
   -1.3634   -1.3607    0.0000 H   0  0  0  0  0  0  0  0  0  0  0  0
   -0.4368   -0.8258    0.0000 H   0  0  0  0  0  0  0  0  0  0  0  0
    3.0493    1.4319    0.0000 H   0  0  0  0  0  0  0  0  0  0  0  0
    1.4947   -1.3607    0.0000 H   0  0  0  0  0  0  0  0  0  0  0  0
    0.5680   -0.8257    0.0000 H   0  0  0  0  0  0  0  0  0  0  0  0
    0.7802    1.1918    0.0000 H   0  0  0  0  0  0  0  0  0  0  0  0
   -0.1464    0.6568    0.0000 H   0  0  0  0  0  0  0  0  0  0  0  0
    0.0657   -1.3607    0.0000 H   0  0  0  0  0  0  0  0  0  0  0  0
   -0.8609   -0.8257    0.0000 H   0  0  0  0  0  0  0  0  0  0  0  0
   -0.6488    1.1918    0.0000 H   0  0  0  0  0  0  0  0  0  0  0  0
    0.2779    0.6568    0.0000 H   0  0  0  0  0  0  0  0  0  0  0  0
    4.4498   -0.3467    0.0000 H   0  0  0  0  0  0  0  0  0  0  0  0
  1  2  1  0  0  0  0
  1 13  1  0  0  0  0
  1 14  1  0  0  0  0
  1 15  1  0  0  0  0
  2  9  1  0  0  0  0
  2 16  1  0  0  0  0
  2 17  1  0  0  0  0
  3 18  1  0  0  0  0
  4  5  1  0  0  0  0
  4 10  1  0  0  0  0
  4 11  2  0  0  0  0
  5  3  1  0  0  0  0
  5  6  1  0  0  0  0
  5 12  1  1  0  0  0
  6  7  1  0  0  0  0
  6 19  1  0  0  0  0
  6 20  1  0  0  0  0
  7  8  1  0  0  0  0
  7 21  1  0  0  0  0
  7 22  1  0  0  0  0
  8  9  1  0  0  0  0
  8 23  1  0  0  0  0
  8 24  1  0  0  0  0
  9 25  1  0  0  0  0
  9 26  1  0  0  0  0
 10 27  1  0  0  0  0
M  END
>  <DRUGBANK_ID>
DB07907

>  <COMMON_NAME>
(2S)-2-HYDROXYOCTANOIC ACID

$$$$
