
 OpenBabel10282417072D

 70 75  0  0  0  0  0  0  0  0999 V2000
   -1.7021   -8.5808    0.0000 C   0  0  0  0  0  0  0  0  0  0  0  0
   -2.1146   -7.8664    0.0000 O   0  0  0  0  0  0  0  0  0  0  0  0
   -1.7021   -7.1519    0.0000 C   0  0  0  0  0  0  0  0  0  0  0  0
   -2.1146   -6.4374    0.0000 N   0  0  0  0  0  0  0  0  0  0  0  0
   -1.7021   -5.7229    0.0000 C   0  0  0  0  0  0  0  0  0  0  0  0
   -0.8771   -5.7229    0.0000 C   0  0  0  0  0  0  0  0  0  0  0  0
   -0.4646   -5.0085    0.0000 C   0  0  0  0  0  0  0  0  0  0  0  0
    0.3604   -5.0085    0.0000 N   0  0  0  0  0  0  0  0  0  0  0  0
    0.7729   -4.2940    0.0000 C   0  0  3  0  0  0  0  0  0  0  0  0
    0.9516   -5.0085    0.0000 C   0  0  0  0  0  0  0  0  0  0  0  0
    0.7729   -5.7229    0.0000 C   0  0  3  0  0  0  0  0  0  0  0  0
    1.5979   -5.7229    0.0000 C   0  0  0  0  0  0  0  0  0  0  0  0
    2.0104   -5.0085    0.0000 N   0  0  0  0  0  0  0  0  0  0  0  0
    1.5979   -4.2940    0.0000 C   0  0  0  0  0  0  0  0  0  0  0  0
    2.8354   -5.0085    0.0000 C   0  0  0  0  0  0  0  0  0  0  0  0
    3.2479   -4.2940    0.0000 C   0  0  0  0  0  0  0  0  0  0  0  0
    4.0729   -4.2940    0.0000 C   0  0  0  0  0  0  0  0  0  0  0  0
    4.4854   -5.0085    0.0000 C   0  0  0  0  0  0  0  0  0  0  0  0
    4.0729   -5.7229    0.0000 C   0  0  0  0  0  0  0  0  0  0  0  0
    3.2479   -5.7229    0.0000 N   0  0  0  0  0  0  0  0  0  0  0  0
    5.3104   -5.0085    0.0000 C   0  0  0  0  0  0  0  0  0  0  0  0
    5.7229   -4.2940    0.0000 C   0  0  0  0  0  0  0  0  0  0  0  0
    6.5479   -4.2940    0.0000 C   0  0  0  0  0  0  0  0  0  0  0  0
    6.9604   -3.5795    0.0000 O   0  0  0  0  0  0  0  0  0  0  0  0
    7.7854   -3.5795    0.0000 C   0  0  0  0  0  0  0  0  0  0  0  0
    8.1979   -2.8651    0.0000 C   0  0  0  0  0  0  0  0  0  0  0  0
    8.6104   -2.1506    0.0000 C   0  0  0  0  0  0  0  0  0  0  0  0
    8.9124   -3.2776    0.0000 C   0  0  0  0  0  0  0  0  0  0  0  0
    7.4835   -2.4526    0.0000 O   0  0  0  0  0  0  0  0  0  0  0  0
    6.9604   -5.0085    0.0000 C   0  0  0  0  0  0  0  0  0  0  0  0
    6.5479   -5.7229    0.0000 N   0  0  0  0  0  0  0  0  0  0  0  0
    6.8029   -6.5076    0.0000 N   0  0  0  0  0  0  0  0  0  0  0  0
    6.1354   -6.9925    0.0000 C   0  0  0  0  0  0  0  0  0  0  0  0
    5.4680   -6.5076    0.0000 C   0  0  0  0  0  0  0  0  0  0  0  0
    4.6834   -6.7625    0.0000 C   0  0  0  0  0  0  0  0  0  0  0  0
    3.8988   -7.0174    0.0000 N   0  0  0  0  0  0  0  0  0  0  0  0
    5.7229   -5.7229    0.0000 C   0  0  0  0  0  0  0  0  0  0  0  0
   -0.4646   -6.4374    0.0000 C   0  0  0  0  0  0  0  0  0  0  0  0
   -0.8771   -7.1519    0.0000 C   0  0  0  0  0  0  0  0  0  0  0  0
   -2.2371   -9.5075    0.0000 H   0  0  0  0  0  0  0  0  0  0  0  0
   -0.6321   -8.5808    0.0000 H   0  0  0  0  0  0  0  0  0  0  0  0
   -1.1671   -9.5074    0.0000 H   0  0  0  0  0  0  0  0  0  0  0  0
   -2.2181   -4.8292    0.0000 H   0  0  0  0  0  0  0  0  0  0  0  0
   -0.9996   -4.0818    0.0000 H   0  0  0  0  0  0  0  0  0  0  0  0
    0.0704   -4.0819    0.0000 H   0  0  0  0  0  0  0  0  0  0  0  0
    0.6244   -5.3536    0.0000 H   0  0  0  0  0  0  0  0  0  0  0  0
    2.0216   -5.0085    0.0000 H   0  0  0  0  0  0  0  0  0  0  0  0
    1.6100   -5.8519    0.0000 H   0  0  0  0  0  0  0  0  0  0  0  0
    0.6244   -4.6633    0.0000 H   0  0  0  0  0  0  0  0  0  0  0  0
    2.1329   -6.6496    0.0000 H   0  0  0  0  0  0  0  0  0  0  0  0
    2.6679   -5.7229    0.0000 H   0  0  0  0  0  0  0  0  0  0  0  0
    2.1329   -3.3674    0.0000 H   0  0  0  0  0  0  0  0  0  0  0  0
    1.0629   -3.3674    0.0000 H   0  0  0  0  0  0  0  0  0  0  0  0
    2.7319   -3.4003    0.0000 H   0  0  0  0  0  0  0  0  0  0  0  0
    4.5889   -3.4003    0.0000 H   0  0  0  0  0  0  0  0  0  0  0  0
    4.5889   -6.6166    0.0000 H   0  0  0  0  0  0  0  0  0  0  0  0
    5.2069   -3.4003    0.0000 H   0  0  0  0  0  0  0  0  0  0  0  0
    8.3204   -4.5062    0.0000 H   0  0  0  0  0  0  0  0  0  0  0  0
    8.8554   -3.5795    0.0000 H   0  0  0  0  0  0  0  0  0  0  0  0
    9.6804   -2.1506    0.0000 H   0  0  0  0  0  0  0  0  0  0  0  0
    8.0754   -1.2240    0.0000 H   0  0  0  0  0  0  0  0  0  0  0  0
    9.1454   -1.2239    0.0000 H   0  0  0  0  0  0  0  0  0  0  0  0
    8.9124   -4.3476    0.0000 H   0  0  0  0  0  0  0  0  0  0  0  0
    9.8390   -2.7426    0.0000 H   0  0  0  0  0  0  0  0  0  0  0  0
    9.8391   -3.8126    0.0000 H   0  0  0  0  0  0  0  0  0  0  0  0
    7.4835   -1.4826    0.0000 H   0  0  0  0  0  0  0  0  0  0  0  0
    7.9924   -5.0085    0.0000 H   0  0  0  0  0  0  0  0  0  0  0  0
    6.1354   -8.0245    0.0000 H   0  0  0  0  0  0  0  0  0  0  0  0
    0.5674   -6.4374    0.0000 H   0  0  0  0  0  0  0  0  0  0  0  0
   -0.3611   -8.0456    0.0000 H   0  0  0  0  0  0  0  0  0  0  0  0
  1  2  1  0  0  0  0
  1 40  1  0  0  0  0
  1 41  1  0  0  0  0
  1 42  1  0  0  0  0
  2  3  1  0  0  0  0
  3  4  2  0  0  0  0
  3 39  1  0  0  0  0
  4  5  1  0  0  0  0
  5  6  2  0  0  0  0
  5 43  1  0  0  0  0
  6  7  1  0  0  0  0
  6 38  1  0  0  0  0
  7  8  1  0  0  0  0
  7 44  1  0  0  0  0
  7 45  1  0  0  0  0
  8  9  1  0  0  0  0
  8 11  1  0  0  0  0
  9 10  1  0  0  0  0
  9 14  1  0  0  0  0
  9 46  1  0  0  0  0
 10 11  1  0  0  0  0
 10 47  1  0  0  0  0
 10 48  1  0  0  0  0
 11 12  1  0  0  0  0
 11 49  1  0  0  0  0
 12 13  1  0  0  0  0
 12 50  1  0  0  0  0
 12 51  1  0  0  0  0
 13 14  1  0  0  0  0
 13 15  1  0  0  0  0
 14 52  1  0  0  0  0
 14 53  1  0  0  0  0
 15 16  2  0  0  0  0
 15 20  1  0  0  0  0
 16 17  1  0  0  0  0
 16 54  1  0  0  0  0
 17 18  2  0  0  0  0
 17 55  1  0  0  0  0
 18 19  1  0  0  0  0
 18 21  1  0  0  0  0
 19 20  2  0  0  0  0
 19 56  1  0  0  0  0
 21 22  2  0  0  0  0
 21 37  1  0  0  0  0
 22 23  1  0  0  0  0
 22 57  1  0  0  0  0
 23 24  1  0  0  0  0
 23 30  2  0  0  0  0
 24 25  1  0  0  0  0
 25 26  1  0  0  0  0
 25 58  1  0  0  0  0
 25 59  1  0  0  0  0
 26 27  1  0  0  0  0
 26 28  1  0  0  0  0
 26 29  1  0  0  0  0
 27 60  1  0  0  0  0
 27 61  1  0  0  0  0
 27 62  1  0  0  0  0
 28 63  1  0  0  0  0
 28 64  1  0  0  0  0
 28 65  1  0  0  0  0
 29 66  1  0  0  0  0
 30 31  1  0  0  0  0
 30 67  1  0  0  0  0
 31 32  1  0  0  0  0
 31 37  1  0  0  0  0
 32 33  2  0  0  0  0
 33 34  1  0  0  0  0
 33 68  1  0  0  0  0
 34 35  1  0  0  0  0
 34 37  2  0  0  0  0
 35 36  3  0  0  0  0
 38 39  2  0  0  0  0
 38 69  1  0  0  0  0
 39 70  1  0  0  0  0
M  END
>  <DRUGBANK_ID>
DB15685

>  <COMMON_NAME>
Selpercatinib

>  <CAS_NUMBER>
2152628-33-4

>  <UNII>
CEGM9YBNGD

>  <SYNONYMS>
6-(2-hydroxy-2-methylpropoxy)-4-(6-(6-((6-methoxypyridin-3-yl)methyl)-3,6-diazabicyclo[3.1.1]heptan-3-yl)pyridin-3-yl)pyrazolo[1,5-a]pyridine-3-carbonitrile; Selpercatinib

$$$$
