
 OpenBabel10282417072D

 37 39  0  0  0  0  0  0  0  0999 V2000
    3.4479    2.8253    0.0000 C   0  0  0  0  0  0  0  0  0  0  0  0
    3.0808   -2.2457    0.0000 C   0  0  0  0  0  0  0  0  0  0  0  0
    3.8691   -2.0025    0.0000 C   0  0  0  0  0  0  0  0  0  0  0  0
    2.4760   -1.6845    0.0000 C   0  0  0  0  0  0  0  0  0  0  0  0
    4.0527   -1.1982    0.0000 C   0  0  0  0  0  0  0  0  0  0  0  0
    2.6596   -0.8802    0.0000 C   0  0  0  0  0  0  0  0  0  0  0  0
    1.5575    1.5066    0.0000 C   0  0  0  0  0  0  0  0  0  0  0  0
    2.2720    1.9191    0.0000 C   0  0  0  0  0  0  0  0  0  0  0  0
    2.2720    0.2691    0.0000 C   0  0  0  0  0  0  0  0  0  0  0  0
    4.7938    1.0941    0.0000 C   0  0  0  0  0  0  0  0  0  0  0  0
    3.4479   -0.6370    0.0000 C   0  0  0  0  0  0  0  0  0  0  0  0
    1.5575    0.6816    0.0000 C   0  0  0  0  0  0  0  0  0  0  0  0
    2.9865    0.6816    0.0000 C   0  0  0  0  0  0  0  0  0  0  0  0
    2.9865    1.5066    0.0000 C   0  0  0  0  0  0  0  0  0  0  0  0
    4.4358    1.8374    0.0000 C   0  0  0  0  0  0  0  0  0  0  0  0
    3.6315    0.1673    0.0000 C   0  0  0  0  0  0  0  0  0  0  0  0
    0.8431    0.2691    0.0000 Cl  0  0  0  0  0  0  0  0  0  0  0  0
    4.4358    0.3508    0.0000 N   0  0  0  0  0  0  0  0  0  0  0  0
    3.6315    2.0210    0.0000 N   0  0  0  0  0  0  0  0  0  0  0  0
    4.9502    2.4825    0.0000 O   0  0  0  0  0  0  0  0  0  0  0  0
    4.2322    3.5531    0.0000 H   0  0  0  0  0  0  0  0  0  0  0  0
    2.4254    3.1407    0.0000 H   0  0  0  0  0  0  0  0  0  0  0  0
    3.2098    3.8685    0.0000 H   0  0  0  0  0  0  0  0  0  0  0  0
    2.8427   -3.2889    0.0000 H   0  0  0  0  0  0  0  0  0  0  0  0
    2.0583   -2.5611    0.0000 H   0  0  0  0  0  0  0  0  0  0  0  0
    4.6535   -2.7303    0.0000 H   0  0  0  0  0  0  0  0  0  0  0  0
    4.8916   -1.6871    0.0000 H   0  0  0  0  0  0  0  0  0  0  0  0
    1.4535   -1.9999    0.0000 H   0  0  0  0  0  0  0  0  0  0  0  0
    1.6917   -0.9567    0.0000 H   0  0  0  0  0  0  0  0  0  0  0  0
    5.0389   -0.8940    0.0000 H   0  0  0  0  0  0  0  0  0  0  0  0
    1.8752   -0.1524    0.0000 H   0  0  0  0  0  0  0  0  0  0  0  0
    2.8977    0.1630    0.0000 H   0  0  0  0  0  0  0  0  0  0  0  0
    0.6638    2.0226    0.0000 H   0  0  0  0  0  0  0  0  0  0  0  0
    2.2720    2.9511    0.0000 H   0  0  0  0  0  0  0  0  0  0  0  0
    2.2720   -0.7629    0.0000 H   0  0  0  0  0  0  0  0  0  0  0  0
    5.8638    1.0941    0.0000 H   0  0  0  0  0  0  0  0  0  0  0  0
    5.3631    0.1881    0.0000 H   0  0  0  0  0  0  0  0  0  0  0  0
  1 21  1  0  0  0  0
  1 22  1  0  0  0  0
  1 23  1  0  0  0  0
  2 24  1  0  0  0  0
  2 25  1  0  0  0  0
  3  2  1  0  0  0  0
  3 26  1  0  0  0  0
  3 27  1  0  0  0  0
  4  2  1  0  0  0  0
  4 28  1  0  0  0  0
  4 29  1  0  0  0  0
  5  3  1  0  0  0  0
  5 30  1  0  0  0  0
  6  4  1  0  0  0  0
  6 31  1  0  0  0  0
  6 32  1  0  0  0  0
  7 33  1  0  0  0  0
  8  7  2  0  0  0  0
  8 34  1  0  0  0  0
  9 35  1  0  0  0  0
 10 36  1  0  0  0  0
 10 37  1  0  0  0  0
 11  5  2  0  0  0  0
 11  6  1  0  0  0  0
 12  7  1  0  0  0  0
 12  9  2  0  0  0  0
 13  9  1  0  0  0  0
 14  8  1  0  0  0  0
 14 13  2  0  0  0  0
 15 10  1  0  0  0  0
 16 11  1  0  0  0  0
 16 13  1  0  0  0  0
 17 12  1  0  0  0  0
 18 10  1  0  0  0  0
 18 16  2  0  0  0  0
 19  1  1  0  0  0  0
 19 14  1  0  0  0  0
 19 15  1  0  0  0  0
 20 15  2  0  0  0  0
M  END
>  <DRUGBANK_ID>
DB13324

>  <COMMON_NAME>
Tetrazepam

>  <CAS_NUMBER>
10379-14-3

>  <UNII>
FO92091VP8

>  <SYNONYMS>
Tetrazepam

$$$$
