
 OpenBabel10282417072D

 45 45  0  0  0  0  0  0  0  0999 V2000
    0.3572   -0.8250    0.0000 O   0  0  0  0  0  0  0  0  0  0  0  0
    1.0717    1.2375    0.0000 O   0  0  0  0  0  0  0  0  0  0  0  0
    1.7861   -0.8250    0.0000 O   0  0  0  0  0  0  0  0  0  0  0  0
   -1.0717   -2.4750    0.0000 O   0  0  0  0  0  0  0  0  0  0  0  0
    3.2151    0.0000    0.0000 O   0  0  0  0  0  0  0  0  0  0  0  0
    0.3572   -2.4750    0.0000 O   0  0  0  0  0  0  0  0  0  0  0  0
   -1.7861    1.2375    0.0000 O   0  0  0  0  0  0  0  0  0  0  0  0
   -0.3572    1.2375    0.0000 N   0  0  0  0  0  0  0  0  0  0  0  0
   -1.7861    0.4125    0.0000 N   0  0  0  0  0  0  0  0  0  0  0  0
   -3.2151    0.4125    0.0000 N   0  0  0  0  0  0  0  0  0  0  0  0
   -2.5006   -0.8250    0.0000 N   0  0  0  0  0  0  0  0  0  0  0  0
   -0.3572    0.4125    0.0000 C   0  0  1  0  0  0  0  0  0  0  0  0
    0.3572    0.0000    0.0000 C   0  0  2  0  0  0  0  0  0  0  0  0
   -1.0717    0.0000    0.0000 C   0  0  2  0  0  0  0  0  0  0  0  0
   -1.0717   -0.8250    0.0000 C   0  0  0  0  0  0  0  0  0  0  0  0
    1.0717    0.4125    0.0000 C   0  0  1  0  0  0  0  0  0  0  0  0
   -0.3572   -1.2375    0.0000 C   0  0  2  0  0  0  0  0  0  0  0  0
    1.7861    0.0000    0.0000 C   0  0  1  0  0  0  0  0  0  0  0  0
   -0.3572   -2.0625    0.0000 C   0  0  0  0  0  0  0  0  0  0  0  0
    2.5006    0.4125    0.0000 C   0  0  0  0  0  0  0  0  0  0  0  0
   -1.0717    1.6500    0.0000 C   0  0  0  0  0  0  0  0  0  0  0  0
   -2.5006    0.0000    0.0000 C   0  0  0  0  0  0  0  0  0  0  0  0
   -1.0717    2.4750    0.0000 C   0  0  0  0  0  0  0  0  0  0  0  0
    1.0247   -0.4849    0.0000 H   0  0  0  0  0  0  0  0  0  0  0  0
    1.9117    1.7225    0.0000 H   0  0  0  0  0  0  0  0  0  0  0  0
    0.9461   -1.3100    0.0000 H   0  0  0  0  0  0  0  0  0  0  0  0
   -1.8832   -2.0065    0.0000 H   0  0  0  0  0  0  0  0  0  0  0  0
    3.2151   -0.9700    0.0000 H   0  0  0  0  0  0  0  0  0  0  0  0
    0.4954    1.7298    0.0000 H   0  0  0  0  0  0  0  0  0  0  0  0
   -3.2151    1.3970    0.0000 H   0  0  0  0  0  0  0  0  0  0  0  0
   -4.0677   -0.0798    0.0000 H   0  0  0  0  0  0  0  0  0  0  0  0
   -3.3532   -1.3173    0.0000 H   0  0  0  0  0  0  0  0  0  0  0  0
   -1.6480   -1.3173    0.0000 H   0  0  0  0  0  0  0  0  0  0  0  0
    0.5695    0.9475    0.0000 H   0  0  0  0  0  0  0  0  0  0  0  0
   -1.0717    1.0700    0.0000 H   0  0  0  0  0  0  0  0  0  0  0  0
   -1.9983   -1.3600    0.0000 H   0  0  0  0  0  0  0  0  0  0  0  0
   -1.0717   -1.8950    0.0000 H   0  0  0  0  0  0  0  0  0  0  0  0
    0.1451    0.9475    0.0000 H   0  0  0  0  0  0  0  0  0  0  0  0
    0.5695   -1.7725    0.0000 H   0  0  0  0  0  0  0  0  0  0  0  0
    0.8594   -0.5350    0.0000 H   0  0  0  0  0  0  0  0  0  0  0  0
    2.5006    1.4825    0.0000 H   0  0  0  0  0  0  0  0  0  0  0  0
    1.5740    0.9475    0.0000 H   0  0  0  0  0  0  0  0  0  0  0  0
   -0.1451    3.0100    0.0000 H   0  0  0  0  0  0  0  0  0  0  0  0
   -1.9983    3.0100    0.0000 H   0  0  0  0  0  0  0  0  0  0  0  0
   -1.0717    3.5450    0.0000 H   0  0  0  0  0  0  0  0  0  0  0  0
  1 13  1  0  0  0  0
  1 17  1  0  0  0  0
  2 25  1  0  0  0  0
  3 26  1  0  0  0  0
  4 19  1  0  0  0  0
  4 27  1  0  0  0  0
  5 20  1  0  0  0  0
  5 28  1  0  0  0  0
  6 19  2  0  0  0  0
  7 21  2  0  0  0  0
  8 21  1  0  0  0  0
  8 29  1  0  0  0  0
  9 22  2  0  0  0  0
 10 22  1  0  0  0  0
 10 30  1  0  0  0  0
 10 31  1  0  0  0  0
 11 22  1  0  0  0  0
 11 32  1  0  0  0  0
 11 33  1  0  0  0  0
 12  8  1  0  0  0  0
 12 13  1  0  0  0  0
 12 14  1  0  0  0  0
 12 34  1  6  0  0  0
 13 16  1  0  0  0  0
 13 24  1  1  0  0  0
 14  9  1  0  0  0  0
 14 15  1  0  0  0  0
 14 35  1  1  0  0  0
 15 17  1  0  0  0  0
 15 36  1  0  0  0  0
 15 37  1  0  0  0  0
 16  2  1  0  0  0  0
 16 18  1  0  0  0  0
 16 38  1  1  0  0  0
 17 19  1  0  0  0  0
 17 39  1  6  0  0  0
 18  3  1  0  0  0  0
 18 20  1  0  0  0  0
 18 40  1  6  0  0  0
 20 41  1  0  0  0  0
 20 42  1  0  0  0  0
 21 23  1  0  0  0  0
 23 43  1  0  0  0  0
 23 44  1  0  0  0  0
 23 45  1  0  0  0  0
M  END
>  <DRUGBANK_ID>
DB03420

>  <SECONDARY_ACCESSION_NUMBERS>
EXPT01624

>  <COMMON_NAME>
2,4-deoxy-4-guanidino-5-N-acetyl-neuraminic acid

>  <SYNONYMS>
(2R,4S,5R,6R)-5-Acetamido-4-(diaminomethylideneamino)-6-[(1R,2R)-1,2,3-trihydroxypropyl]oxane-2-carboxylic acid

$$$$
