
 OpenBabel10282417072D

 32 32  0  0  1  0  0  0  0  0999 V2000
    1.4289    0.8250    0.0000 C   0  0  0  0  0  0  0  0  0  0  0  0
    0.7145   -0.4125    0.0000 C   0  0  0  0  0  0  0  0  0  0  0  0
    0.7145    2.0625    0.0000 C   0  0  0  0  0  0  0  0  0  0  0  0
    0.7145    1.2375    0.0000 C   0  0  2  0  0  0  0  0  0  0  0  0
    0.0000    0.0000    0.0000 C   0  0  2  0  0  0  0  0  0  0  0  0
    0.0000    0.8250    0.0000 C   0  0  2  0  0  0  0  0  0  0  0  0
    2.2534   -0.0288    0.0000 C   0  0  0  0  0  0  0  0  0  0  0  0
    1.4289   -0.0000    0.0000 C   0  0  2  0  0  0  0  0  0  0  0  0
   -0.7145   -0.4125    0.0000 O   0  0  0  0  0  0  0  0  0  0  0  0
   -0.7145    1.2375    0.0000 O   0  0  0  0  0  0  0  0  0  0  0  0
    2.6906    0.6708    0.0000 O   0  0  0  0  0  0  0  0  0  0  0  0
    2.6408   -0.7572    0.0000 O   0  0  0  0  0  0  0  0  0  0  0  0
    1.8661   -0.6996    0.0000 O   0  0  0  0  0  0  0  0  0  0  0  0
   -0.7145    2.8875    0.0000 O   0  0  0  0  0  0  0  0  0  0  0  0
    0.4125    3.1895    0.0000 O   0  0  0  0  0  0  0  0  0  0  0  0
   -0.4125    1.7605    0.0000 O   0  0  0  0  0  0  0  0  0  0  0  0
    0.0000    2.4750    0.0000 P   0  0  0  0  0  0  0  0  0  0  0  0
    1.4289    1.6500    0.0000 H   0  0  0  0  0  0  0  0  0  0  0  0
   -0.0000   -0.8250    0.0000 H   0  0  0  0  0  0  0  0  0  0  0  0
    0.0000    1.6500    0.0000 H   0  0  0  0  0  0  0  0  0  0  0  0
    2.3556    1.3600    0.0000 H   0  0  0  0  0  0  0  0  0  0  0  0
    2.3555    0.2900    0.0000 H   0  0  0  0  0  0  0  0  0  0  0  0
    0.7145   -1.4825    0.0000 H   0  0  0  0  0  0  0  0  0  0  0  0
    1.6412   -0.9475    0.0000 H   0  0  0  0  0  0  0  0  0  0  0  0
    1.6411    2.5975    0.0000 H   0  0  0  0  0  0  0  0  0  0  0  0
    0.7145    3.1325    0.0000 H   0  0  0  0  0  0  0  0  0  0  0  0
   -1.5545    0.0725    0.0000 H   0  0  0  0  0  0  0  0  0  0  0  0
   -0.7145    2.2075    0.0000 H   0  0  0  0  0  0  0  0  0  0  0  0
    2.1444   -1.5519    0.0000 H   0  0  0  0  0  0  0  0  0  0  0  0
    1.4107   -1.5561    0.0000 H   0  0  0  0  0  0  0  0  0  0  0  0
   -0.7145    3.8575    0.0000 H   0  0  0  0  0  0  0  0  0  0  0  0
    1.3825    3.1895    0.0000 H   0  0  0  0  0  0  0  0  0  0  0  0
  1 21  1  0  0  0  0
  1 22  1  0  0  0  0
  2 23  1  0  0  0  0
  2 24  1  0  0  0  0
  3 25  1  0  0  0  0
  3 26  1  0  0  0  0
  4  1  1  0  0  0  0
  4  3  1  0  0  0  0
  4 18  1  6  0  0  0
  5  2  1  0  0  0  0
  5  9  1  0  0  0  0
  5 19  1  6  0  0  0
  6  4  1  0  0  0  0
  6  5  1  0  0  0  0
  6 10  1  0  0  0  0
  6 20  1  1  0  0  0
  8  1  1  0  0  0  0
  8  2  1  0  0  0  0
  8  7  1  1  0  0  0
  8 13  1  0  0  0  0
  9 27  1  0  0  0  0
 10 28  1  0  0  0  0
 11  7  2  0  0  0  0
 12  7  1  0  0  0  0
 12 29  1  0  0  0  0
 13 30  1  0  0  0  0
 14 31  1  0  0  0  0
 15 32  1  0  0  0  0
 17  3  1  0  0  0  0
 17 14  1  0  0  0  0
 17 15  1  0  0  0  0
 17 16  2  0  0  0  0
M  END
>  <DRUGBANK_ID>
DB02592

>  <SECONDARY_ACCESSION_NUMBERS>
EXPT01018

>  <COMMON_NAME>
Carbaphosphonate

$$$$
