
 OpenBabel10282417072D

 33 32  0  0  1  0  0  0  0  0999 V2000
    3.9482    1.9393    0.0000 C   0  0  0  0  0  0  0  0  0  0  0  0
    4.7143    1.6331    0.0000 C   0  0  0  0  0  0  0  0  0  0  0  0
    4.8321    0.8165    0.0000 O   0  0  0  0  0  0  0  0  0  0  0  0
    5.3625    2.1434    0.0000 O   0  0  0  0  0  0  0  0  0  0  0  0
    6.1286    1.8372    0.0000 C   0  0  0  0  0  0  0  0  0  0  0  0
    6.7768    2.3475    0.0000 C   0  0  2  0  0  0  0  0  0  0  0  0
    6.6589    3.1641    0.0000 O   0  0  0  0  0  0  0  0  0  0  0  0
    7.5429    2.0413    0.0000 C   0  0  0  0  0  0  0  0  0  0  0  0
    8.1911    2.5517    0.0000 O   0  0  0  0  0  0  0  0  0  0  0  0
    8.9571    2.2455    0.0000 P   0  0  2  0  0  0  0  0  0  0  0  0
    8.6509    1.4794    0.0000 O   0  0  0  0  0  0  0  0  0  0  0  0
    9.2633    3.0116    0.0000 O   0  0  0  0  0  0  0  0  0  0  0  0
    9.7232    1.9393    0.0000 O   0  0  0  0  0  0  0  0  0  0  0  0
   10.3714    2.4496    0.0000 C   0  0  0  0  0  0  0  0  0  0  0  0
   11.1375    2.1434    0.0000 C   0  0  0  0  0  0  0  0  0  0  0  0
   11.7857    2.6537    0.0000 N   0  3  0  0  0  0  0  0  0  0  0  0
    3.7953    2.9983    0.0000 H   0  0  0  0  0  0  0  0  0  0  0  0
    3.1075    1.2774    0.0000 H   0  0  0  0  0  0  0  0  0  0  0  0
    2.9546    2.3364    0.0000 H   0  0  0  0  0  0  0  0  0  0  0  0
    6.2815    0.7782    0.0000 H   0  0  0  0  0  0  0  0  0  0  0  0
    7.1222    1.4401    0.0000 H   0  0  0  0  0  0  0  0  0  0  0  0
    5.7832    2.7446    0.0000 H   0  0  0  0  0  0  0  0  0  0  0  0
    7.4210    3.7642    0.0000 H   0  0  0  0  0  0  0  0  0  0  0  0
    7.6958    0.9823    0.0000 H   0  0  0  0  0  0  0  0  0  0  0  0
    8.5365    1.6442    0.0000 H   0  0  0  0  0  0  0  0  0  0  0  0
    7.6909    1.3408    0.0000 H   0  0  0  0  0  0  0  0  0  0  0  0
   10.2185    3.5086    0.0000 H   0  0  0  0  0  0  0  0  0  0  0  0
   11.2121    3.1115    0.0000 H   0  0  0  0  0  0  0  0  0  0  0  0
   11.2904    1.0844    0.0000 H   0  0  0  0  0  0  0  0  0  0  0  0
   12.1311    1.7463    0.0000 H   0  0  0  0  0  0  0  0  0  0  0  0
   12.7328    2.2751    0.0000 H   0  0  0  0  0  0  0  0  0  0  0  0
   11.6400    3.6632    0.0000 H   0  0  0  0  0  0  0  0  0  0  0  0
   12.5871    3.2846    0.0000 H   0  0  0  0  0  0  0  0  0  0  0  0
  1  2  1  0  0  0  0
  1 17  1  0  0  0  0
  1 18  1  0  0  0  0
  1 19  1  0  0  0  0
  2  3  2  0  0  0  0
  2  4  1  0  0  0  0
  4  5  1  0  0  0  0
  5  6  1  0  0  0  0
  5 20  1  0  0  0  0
  5 21  1  0  0  0  0
  6  7  1  0  0  0  0
  6  8  1  0  0  0  0
  6 22  1  1  0  0  0
  7 23  1  0  0  0  0
  8  9  1  0  0  0  0
  8 24  1  0  0  0  0
  8 25  1  0  0  0  0
 10  9  1  0  0  0  0
 10 11  1  0  0  0  0
 10 12  2  1  0  0  0
 10 13  1  0  0  0  0
 11 26  1  0  0  0  0
 13 14  1  0  0  0  0
 14 15  1  0  0  0  0
 14 27  1  0  0  0  0
 14 28  1  0  0  0  0
 15 16  1  0  0  0  0
 15 29  1  0  0  0  0
 15 30  1  0  0  0  0
 16 31  1  0  0  0  0
 16 32  1  0  0  0  0
 16 33  1  0  0  0  0
M  CHG  1  16   1
M  END
>  <DRUGBANK_ID>
DB04731

>  <COMMON_NAME>
1-ACETYL-2-LYSO-SN-GLYCERO-3-PHOSPHOETHANOLAMINE

$$$$
