
 OpenBabel10282417072D

 49 51  0  0  1  0  0  0  0  0999 V2000
   -5.7158    2.4750    0.0000 C   0  0  0  0  0  0  0  0  0  0  0  0
   -5.0013    2.0625    0.0000 C   0  0  1  0  0  0  0  0  0  0  0  0
   -4.2868    2.4750    0.0000 C   0  0  0  0  0  0  0  0  0  0  0  0
   -3.5724    2.8875    0.0000 F   0  0  0  0  0  0  0  0  0  0  0  0
   -4.6993    3.1895    0.0000 F   0  0  0  0  0  0  0  0  0  0  0  0
   -3.8743    1.7605    0.0000 F   0  0  0  0  0  0  0  0  0  0  0  0
   -5.0013    1.2375    0.0000 N   0  0  0  0  0  0  0  0  0  0  0  0
   -5.7158    0.8250    0.0000 C   0  0  0  0  0  0  0  0  0  0  0  0
   -5.7158   -0.0000    0.0000 C   0  0  0  0  0  0  0  0  0  0  0  0
   -6.4302   -0.4125    0.0000 C   0  0  0  0  0  0  0  0  0  0  0  0
   -7.1447   -0.0000    0.0000 N   0  0  0  0  0  0  0  0  0  0  0  0
   -7.1447    0.8250    0.0000 C   0  0  0  0  0  0  0  0  0  0  0  0
   -6.4302    1.2375    0.0000 N   0  0  0  0  0  0  0  0  0  0  0  0
   -6.6018    2.0445    0.0000 N   0  0  0  0  0  0  0  0  0  0  0  0
   -7.4222    2.1307    0.0000 C   0  0  0  0  0  0  0  0  0  0  0  0
   -7.7578    1.3770    0.0000 N   0  0  0  0  0  0  0  0  0  0  0  0
   -6.4302   -1.2375    0.0000 Cl  0  0  0  0  0  0  0  0  0  0  0  0
   -5.0013   -0.4125    0.0000 C   0  0  0  0  0  0  0  0  0  0  0  0
   -4.2868   -0.0000    0.0000 C   0  0  0  0  0  0  0  0  0  0  0  0
   -3.5724   -0.4125    0.0000 C   0  0  0  0  0  0  0  0  0  0  0  0
   -3.5724   -1.2375    0.0000 C   0  0  0  0  0  0  0  0  0  0  0  0
   -4.2868   -1.6500    0.0000 C   0  0  0  0  0  0  0  0  0  0  0  0
   -5.0013   -1.2375    0.0000 C   0  0  0  0  0  0  0  0  0  0  0  0
   -5.7158   -1.6500    0.0000 F   0  0  0  0  0  0  0  0  0  0  0  0
   -2.8579   -1.6500    0.0000 O   0  0  0  0  0  0  0  0  0  0  0  0
   -2.1434   -1.2375    0.0000 C   0  0  0  0  0  0  0  0  0  0  0  0
   -1.4289   -1.6500    0.0000 C   0  0  0  0  0  0  0  0  0  0  0  0
   -0.7145   -1.2375    0.0000 C   0  0  0  0  0  0  0  0  0  0  0  0
   -0.0000   -1.6500    0.0000 N   0  0  0  0  0  0  0  0  0  0  0  0
    0.7145   -1.2375    0.0000 C   0  0  0  0  0  0  0  0  0  0  0  0
   -4.2868    0.8250    0.0000 F   0  0  0  0  0  0  0  0  0  0  0  0
   -5.7158    3.5450    0.0000 H   0  0  0  0  0  0  0  0  0  0  0  0
   -6.6424    1.9400    0.0000 H   0  0  0  0  0  0  0  0  0  0  0  0
   -6.6425    3.0100    0.0000 H   0  0  0  0  0  0  0  0  0  0  0  0
   -5.0013    3.1325    0.0000 H   0  0  0  0  0  0  0  0  0  0  0  0
   -4.1487    0.7452    0.0000 H   0  0  0  0  0  0  0  0  0  0  0  0
   -7.9382    3.0244    0.0000 H   0  0  0  0  0  0  0  0  0  0  0  0
   -2.6787    0.1035    0.0000 H   0  0  0  0  0  0  0  0  0  0  0  0
   -4.2868   -2.6820    0.0000 H   0  0  0  0  0  0  0  0  0  0  0  0
   -2.1434   -0.1675    0.0000 H   0  0  0  0  0  0  0  0  0  0  0  0
   -1.2168   -0.7025    0.0000 H   0  0  0  0  0  0  0  0  0  0  0  0
   -1.4289   -2.7200    0.0000 H   0  0  0  0  0  0  0  0  0  0  0  0
   -0.5022   -2.1850    0.0000 H   0  0  0  0  0  0  0  0  0  0  0  0
   -0.7145   -0.1675    0.0000 H   0  0  0  0  0  0  0  0  0  0  0  0
    0.2121   -0.7025    0.0000 H   0  0  0  0  0  0  0  0  0  0  0  0
    0.0000   -2.6700    0.0000 H   0  0  0  0  0  0  0  0  0  0  0  0
    1.6411   -1.7725    0.0000 H   0  0  0  0  0  0  0  0  0  0  0  0
    0.7145   -0.1675    0.0000 H   0  0  0  0  0  0  0  0  0  0  0  0
    1.6412   -0.7025    0.0000 H   0  0  0  0  0  0  0  0  0  0  0  0
  1 32  1  0  0  0  0
  1 33  1  0  0  0  0
  1 34  1  0  0  0  0
  2  1  1  0  0  0  0
  2  3  1  0  0  0  0
  2  7  1  0  0  0  0
  2 35  1  6  0  0  0
  3  4  1  0  0  0  0
  3  5  1  0  0  0  0
  3  6  1  0  0  0  0
  7  8  1  0  0  0  0
  7 36  1  0  0  0  0
  8  9  2  0  0  0  0
  8 13  1  0  0  0  0
  9 10  1  0  0  0  0
  9 18  1  0  0  0  0
 10 11  2  0  0  0  0
 10 17  1  0  0  0  0
 11 12  1  0  0  0  0
 12 13  1  0  0  0  0
 12 16  2  0  0  0  0
 13 14  1  0  0  0  0
 14 15  2  0  0  0  0
 15 16  1  0  0  0  0
 15 37  1  0  0  0  0
 18 19  2  0  0  0  0
 18 23  1  0  0  0  0
 19 20  1  0  0  0  0
 19 31  1  0  0  0  0
 20 21  2  0  0  0  0
 20 38  1  0  0  0  0
 21 22  1  0  0  0  0
 21 25  1  0  0  0  0
 22 23  2  0  0  0  0
 22 39  1  0  0  0  0
 23 24  1  0  0  0  0
 25 26  1  0  0  0  0
 26 27  1  0  0  0  0
 26 40  1  0  0  0  0
 26 41  1  0  0  0  0
 27 28  1  0  0  0  0
 27 42  1  0  0  0  0
 27 43  1  0  0  0  0
 28 29  1  0  0  0  0
 28 44  1  0  0  0  0
 28 45  1  0  0  0  0
 29 30  1  0  0  0  0
 29 46  1  0  0  0  0
 30 47  1  0  0  0  0
 30 48  1  0  0  0  0
 30 49  1  0  0  0  0
M  END
>  <DRUGBANK_ID>
DB12533

>  <COMMON_NAME>
Cevipabulin

>  <CAS_NUMBER>
849550-05-6

>  <UNII>
P14M0DWS2J

>  <SYNONYMS>
Cevipabulin

$$$$
