
 OpenBabel10282417072D

197194  0  0  1  0  0  0  0  0999 V2000
  -15.8215   -8.4171    0.0000 C   0  0  0  0  0  0  0  0  0  0  0  0
  -15.4090   -7.7026    0.0000 C   0  0  0  0  0  0  0  0  0  0  0  0
  -14.5840   -7.7026    0.0000 C   0  0  0  0  0  0  0  0  0  0  0  0
  -14.1715   -6.9881    0.0000 C   0  0  0  0  0  0  0  0  0  0  0  0
  -13.3465   -6.9881    0.0000 C   0  0  0  0  0  0  0  0  0  0  0  0
  -12.9340   -6.2737    0.0000 C   0  0  0  0  0  0  0  0  0  0  0  0
  -12.1090   -6.2737    0.0000 C   0  0  0  0  0  0  0  0  0  0  0  0
  -11.6965   -5.5592    0.0000 C   0  0  0  0  0  0  0  0  0  0  0  0
  -10.8715   -5.5592    0.0000 C   0  0  0  0  0  0  0  0  0  0  0  0
  -10.4590   -4.8447    0.0000 C   0  0  0  0  0  0  0  0  0  0  0  0
   -9.6340   -4.8447    0.0000 C   0  0  0  0  0  0  0  0  0  0  0  0
   -9.2215   -4.1303    0.0000 C   0  0  0  0  0  0  0  0  0  0  0  0
   -8.3965   -4.1303    0.0000 C   0  0  0  0  0  0  0  0  0  0  0  0
   -7.9840   -3.4158    0.0000 C   0  0  0  0  0  0  0  0  0  0  0  0
   -7.1590   -3.4158    0.0000 C   0  0  0  0  0  0  0  0  0  0  0  0
   -6.7465   -2.7013    0.0000 C   0  0  0  0  0  0  0  0  0  0  0  0
   -7.1590   -1.9868    0.0000 O   0  0  0  0  0  0  0  0  0  0  0  0
   -5.9215   -2.7013    0.0000 O   0  0  0  0  0  0  0  0  0  0  0  0
   -5.5090   -1.9868    0.0000 C   0  0  0  0  0  0  0  0  0  0  0  0
   -4.6840   -1.9868    0.0000 C   0  0  2  0  0  0  0  0  0  0  0  0
   -4.2715   -1.2724    0.0000 C   0  0  0  0  0  0  0  0  0  0  0  0
   -3.4465   -1.2724    0.0000 O   0  0  0  0  0  0  0  0  0  0  0  0
   -3.0340   -0.5579    0.0000 P   0  0  3  0  0  0  0  0  0  0  0  0
   -2.3195   -0.9704    0.0000 O   0  0  0  0  0  0  0  0  0  0  0  0
   -3.7484   -0.1454    0.0000 O   0  5  0  0  0  0  0  0  0  0  0  0
   -2.6215    0.1566    0.0000 O   0  0  0  0  0  0  0  0  0  0  0  0
   -1.7965    0.1566    0.0000 C   0  0  0  0  0  0  0  0  0  0  0  0
   -1.3840    0.8710    0.0000 C   0  0  0  0  0  0  0  0  0  0  0  0
   -0.5590    0.8710    0.0000 N   0  0  0  0  0  0  0  0  0  0  0  0
   -0.1465    1.5855    0.0000 C   0  0  0  0  0  0  0  0  0  0  0  0
   -0.5590    2.3000    0.0000 O   0  0  0  0  0  0  0  0  0  0  0  0
    0.6785    1.5855    0.0000 C   0  0  2  0  0  0  0  0  0  0  0  0
    1.0910    0.8710    0.0000 C   0  0  0  0  0  0  0  0  0  0  0  0
    1.0910    2.3000    0.0000 N   0  0  0  0  0  0  0  0  0  0  0  0
    1.9160    2.3000    0.0000 C   0  0  0  0  0  0  0  0  0  0  0  0
    2.3285    1.5855    0.0000 O   0  0  0  0  0  0  0  0  0  0  0  0
    2.3285    3.0144    0.0000 C   0  0  0  0  0  0  0  0  0  0  0  0
    3.1535    3.0144    0.0000 C   0  0  0  0  0  0  0  0  0  0  0  0
    3.5660    3.7289    0.0000 C   0  0  2  0  0  0  0  0  0  0  0  0
    3.1535    4.4434    0.0000 C   0  0  0  0  0  0  0  0  0  0  0  0
    3.5660    5.1579    0.0000 O   0  0  0  0  0  0  0  0  0  0  0  0
    2.3285    4.4434    0.0000 N   0  0  0  0  0  0  0  0  0  0  0  0
    4.3910    3.7289    0.0000 N   0  0  0  0  0  0  0  0  0  0  0  0
    4.8035    4.4434    0.0000 C   0  0  0  0  0  0  0  0  0  0  0  0
    4.3910    5.1579    0.0000 O   0  0  0  0  0  0  0  0  0  0  0  0
    5.6285    4.4434    0.0000 C   0  0  2  0  0  0  0  0  0  0  0  0
    6.0410    3.7289    0.0000 C   0  0  0  0  0  0  0  0  0  0  0  0
    6.0410    5.1579    0.0000 N   0  0  0  0  0  0  0  0  0  0  0  0
    6.8660    5.1579    0.0000 C   0  0  0  0  0  0  0  0  0  0  0  0
    7.2785    4.4434    0.0000 O   0  0  0  0  0  0  0  0  0  0  0  0
    7.2785    5.8723    0.0000 C   0  0  1  0  0  0  0  0  0  0  0  0
    6.8660    6.5868    0.0000 C   0  0  0  0  0  0  0  0  0  0  0  0
    8.1035    5.8723    0.0000 O   0  0  0  0  0  0  0  0  0  0  0  0
    8.5160    6.5868    0.0000 C   0  0  2  0  0  0  0  0  0  0  0  0
    9.3410    6.5868    0.0000 C   0  0  2  0  0  0  0  0  0  0  0  0
    9.7535    5.8723    0.0000 C   0  0  0  0  0  0  0  0  0  0  0  0
    9.3410    5.1579    0.0000 O   0  0  0  0  0  0  0  0  0  0  0  0
    9.7535    7.3013    0.0000 N   0  0  0  0  0  0  0  0  0  0  0  0
   10.5785    7.3013    0.0000 C   0  0  0  0  0  0  0  0  0  0  0  0
   10.9910    8.0157    0.0000 O   0  0  0  0  0  0  0  0  0  0  0  0
   10.9910    6.5868    0.0000 C   0  0  0  0  0  0  0  0  0  0  0  0
    8.1035    7.3013    0.0000 C   0  0  1  0  0  0  0  0  0  0  0  0
    8.5160    8.0157    0.0000 C   0  0  1  0  0  0  0  0  0  0  0  0
    8.1035    8.7302    0.0000 C   0  0  0  0  0  0  0  0  0  0  0  0
    8.5160    9.4447    0.0000 O   0  0  0  0  0  0  0  0  0  0  0  0
    9.3410    8.0157    0.0000 O   0  0  0  0  0  0  0  0  0  0  0  0
    7.2785    7.3013    0.0000 O   0  0  0  0  0  0  0  0  0  0  0  0
   -4.2715   -2.7013    0.0000 O   0  0  0  0  0  0  0  0  0  0  0  0
   -3.4465   -2.7013    0.0000 C   0  0  0  0  0  0  0  0  0  0  0  0
   -3.0340   -1.9868    0.0000 O   0  0  0  0  0  0  0  0  0  0  0  0
   -3.0340   -3.4158    0.0000 C   0  0  0  0  0  0  0  0  0  0  0  0
   -2.2090   -3.4158    0.0000 C   0  0  0  0  0  0  0  0  0  0  0  0
   -1.7965   -4.1303    0.0000 C   0  0  0  0  0  0  0  0  0  0  0  0
   -0.9715   -4.1303    0.0000 C   0  0  0  0  0  0  0  0  0  0  0  0
   -0.5590   -4.8447    0.0000 C   0  0  0  0  0  0  0  0  0  0  0  0
    0.2660   -4.8447    0.0000 C   0  0  0  0  0  0  0  0  0  0  0  0
    0.6785   -5.5592    0.0000 C   0  0  0  0  0  0  0  0  0  0  0  0
    1.5035   -5.5592    0.0000 C   0  0  0  0  0  0  0  0  0  0  0  0
    1.9160   -6.2737    0.0000 C   0  0  0  0  0  0  0  0  0  0  0  0
    2.7410   -6.2737    0.0000 C   0  0  0  0  0  0  0  0  0  0  0  0
    3.1535   -6.9881    0.0000 C   0  0  0  0  0  0  0  0  0  0  0  0
    3.9785   -6.9881    0.0000 C   0  0  0  0  0  0  0  0  0  0  0  0
    4.3910   -7.7026    0.0000 C   0  0  0  0  0  0  0  0  0  0  0  0
    5.2160   -7.7026    0.0000 C   0  0  0  0  0  0  0  0  0  0  0  0
    5.6285   -8.4171    0.0000 C   0  0  0  0  0  0  0  0  0  0  0  0
   13.3482    0.0000    0.0000 O   0  0  0  0  0  0  0  0  0  0  0  0
   -4.4629    0.2671    0.0000 Na  0  3  0  0  0  0  0  0  0  0  0  0
  -16.8915   -8.4171    0.0000 H   0  0  0  0  0  0  0  0  0  0  0  0
  -15.2865   -9.3437    0.0000 H   0  0  0  0  0  0  0  0  0  0  0  0
  -16.3565   -9.3438    0.0000 H   0  0  0  0  0  0  0  0  0  0  0  0
  -15.9440   -6.7760    0.0000 H   0  0  0  0  0  0  0  0  0  0  0  0
  -14.8740   -6.7760    0.0000 H   0  0  0  0  0  0  0  0  0  0  0  0
  -14.0490   -8.6292    0.0000 H   0  0  0  0  0  0  0  0  0  0  0  0
  -13.5140   -7.7026    0.0000 H   0  0  0  0  0  0  0  0  0  0  0  0
  -14.7065   -6.0615    0.0000 H   0  0  0  0  0  0  0  0  0  0  0  0
  -13.6365   -6.0615    0.0000 H   0  0  0  0  0  0  0  0  0  0  0  0
  -12.8115   -7.9148    0.0000 H   0  0  0  0  0  0  0  0  0  0  0  0
  -12.2765   -6.9881    0.0000 H   0  0  0  0  0  0  0  0  0  0  0  0
  -13.4690   -5.3470    0.0000 H   0  0  0  0  0  0  0  0  0  0  0  0
  -12.3990   -5.3471    0.0000 H   0  0  0  0  0  0  0  0  0  0  0  0
  -11.5740   -7.2003    0.0000 H   0  0  0  0  0  0  0  0  0  0  0  0
  -11.0390   -6.2737    0.0000 H   0  0  0  0  0  0  0  0  0  0  0  0
  -12.2315   -4.6326    0.0000 H   0  0  0  0  0  0  0  0  0  0  0  0
  -11.1615   -4.6326    0.0000 H   0  0  0  0  0  0  0  0  0  0  0  0
  -10.3365   -6.4858    0.0000 H   0  0  0  0  0  0  0  0  0  0  0  0
   -9.8015   -5.5592    0.0000 H   0  0  0  0  0  0  0  0  0  0  0  0
  -10.9940   -3.9181    0.0000 H   0  0  0  0  0  0  0  0  0  0  0  0
   -9.9240   -3.9181    0.0000 H   0  0  0  0  0  0  0  0  0  0  0  0
   -9.0990   -5.7714    0.0000 H   0  0  0  0  0  0  0  0  0  0  0  0
   -8.5640   -4.8447    0.0000 H   0  0  0  0  0  0  0  0  0  0  0  0
   -9.7565   -3.2036    0.0000 H   0  0  0  0  0  0  0  0  0  0  0  0
   -8.6865   -3.2037    0.0000 H   0  0  0  0  0  0  0  0  0  0  0  0
   -7.8615   -5.0569    0.0000 H   0  0  0  0  0  0  0  0  0  0  0  0
   -7.3265   -4.1303    0.0000 H   0  0  0  0  0  0  0  0  0  0  0  0
   -8.5190   -2.4892    0.0000 H   0  0  0  0  0  0  0  0  0  0  0  0
   -7.4490   -2.4892    0.0000 H   0  0  0  0  0  0  0  0  0  0  0  0
   -6.6240   -4.3424    0.0000 H   0  0  0  0  0  0  0  0  0  0  0  0
   -6.0890   -3.4158    0.0000 H   0  0  0  0  0  0  0  0  0  0  0  0
   -6.0440   -1.0602    0.0000 H   0  0  0  0  0  0  0  0  0  0  0  0
   -4.9740   -1.0602    0.0000 H   0  0  0  0  0  0  0  0  0  0  0  0
   -5.2190   -2.9134    0.0000 H   0  0  0  0  0  0  0  0  0  0  0  0
   -4.8065   -0.3457    0.0000 H   0  0  0  0  0  0  0  0  0  0  0  0
   -3.7365   -0.3458    0.0000 H   0  0  0  0  0  0  0  0  0  0  0  0
   -1.2615   -0.7701    0.0000 H   0  0  0  0  0  0  0  0  0  0  0  0
   -0.7265    0.1566    0.0000 H   0  0  0  0  0  0  0  0  0  0  0  0
   -1.9190    1.7977    0.0000 H   0  0  0  0  0  0  0  0  0  0  0  0
   -0.8490    1.7976    0.0000 H   0  0  0  0  0  0  0  0  0  0  0  0
   -0.0667    0.0184    0.0000 H   0  0  0  0  0  0  0  0  0  0  0  0
    0.1435    0.6589    0.0000 H   0  0  0  0  0  0  0  0  0  0  0  0
    0.5560   -0.0556    0.0000 H   0  0  0  0  0  0  0  0  0  0  0  0
    2.1610    0.8710    0.0000 H   0  0  0  0  0  0  0  0  0  0  0  0
    1.6260   -0.0557    0.0000 H   0  0  0  0  0  0  0  0  0  0  0  0
    0.5987    3.1526    0.0000 H   0  0  0  0  0  0  0  0  0  0  0  0
    1.7935    3.9411    0.0000 H   0  0  0  0  0  0  0  0  0  0  0  0
    2.8635    3.9410    0.0000 H   0  0  0  0  0  0  0  0  0  0  0  0
    3.6885    2.0878    0.0000 H   0  0  0  0  0  0  0  0  0  0  0  0
    4.2235    3.0144    0.0000 H   0  0  0  0  0  0  0  0  0  0  0  0
    4.1010    2.8023    0.0000 H   0  0  0  0  0  0  0  0  0  0  0  0
    1.8362    5.2960    0.0000 H   0  0  0  0  0  0  0  0  0  0  0  0
    1.8363    3.5908    0.0000 H   0  0  0  0  0  0  0  0  0  0  0  0
    4.8833    2.8763    0.0000 H   0  0  0  0  0  0  0  0  0  0  0  0
    5.0935    3.5168    0.0000 H   0  0  0  0  0  0  0  0  0  0  0  0
    5.5060    2.8023    0.0000 H   0  0  0  0  0  0  0  0  0  0  0  0
    7.1110    3.7289    0.0000 H   0  0  0  0  0  0  0  0  0  0  0  0
    6.5760    2.8022    0.0000 H   0  0  0  0  0  0  0  0  0  0  0  0
    5.5487    6.0105    0.0000 H   0  0  0  0  0  0  0  0  0  0  0  0
    6.2085    5.8723    0.0000 H   0  0  0  0  0  0  0  0  0  0  0  0
    7.4010    7.5134    0.0000 H   0  0  0  0  0  0  0  0  0  0  0  0
    5.7960    6.5868    0.0000 H   0  0  0  0  0  0  0  0  0  0  0  0
    6.3310    7.5135    0.0000 H   0  0  0  0  0  0  0  0  0  0  0  0
    9.0510    5.6602    0.0000 H   0  0  0  0  0  0  0  0  0  0  0  0
    8.8060    7.5134    0.0000 H   0  0  0  0  0  0  0  0  0  0  0  0
   10.7855    5.8723    0.0000 H   0  0  0  0  0  0  0  0  0  0  0  0
    9.2612    8.1539    0.0000 H   0  0  0  0  0  0  0  0  0  0  0  0
   10.4560    5.6602    0.0000 H   0  0  0  0  0  0  0  0  0  0  0  0
   12.0610    6.5868    0.0000 H   0  0  0  0  0  0  0  0  0  0  0  0
   11.5260    5.6601    0.0000 H   0  0  0  0  0  0  0  0  0  0  0  0
    7.5685    6.3747    0.0000 H   0  0  0  0  0  0  0  0  0  0  0  0
    9.0510    7.0890    0.0000 H   0  0  0  0  0  0  0  0  0  0  0  0
    7.0335    8.7302    0.0000 H   0  0  0  0  0  0  0  0  0  0  0  0
    7.5685    9.6568    0.0000 H   0  0  0  0  0  0  0  0  0  0  0  0
    9.4860    9.4447    0.0000 H   0  0  0  0  0  0  0  0  0  0  0  0
    9.8260    7.1757    0.0000 H   0  0  0  0  0  0  0  0  0  0  0  0
    6.7935    8.1413    0.0000 H   0  0  0  0  0  0  0  0  0  0  0  0
   -3.5690   -4.3424    0.0000 H   0  0  0  0  0  0  0  0  0  0  0  0
   -2.4990   -4.3424    0.0000 H   0  0  0  0  0  0  0  0  0  0  0  0
   -1.6740   -2.4892    0.0000 H   0  0  0  0  0  0  0  0  0  0  0  0
   -1.1390   -3.4158    0.0000 H   0  0  0  0  0  0  0  0  0  0  0  0
   -2.3315   -5.0569    0.0000 H   0  0  0  0  0  0  0  0  0  0  0  0
   -1.2615   -5.0569    0.0000 H   0  0  0  0  0  0  0  0  0  0  0  0
   -0.4365   -3.2036    0.0000 H   0  0  0  0  0  0  0  0  0  0  0  0
    0.0985   -4.1303    0.0000 H   0  0  0  0  0  0  0  0  0  0  0  0
   -1.0940   -5.7714    0.0000 H   0  0  0  0  0  0  0  0  0  0  0  0
   -0.0240   -5.7713    0.0000 H   0  0  0  0  0  0  0  0  0  0  0  0
    0.8010   -3.9181    0.0000 H   0  0  0  0  0  0  0  0  0  0  0  0
    1.3360   -4.8447    0.0000 H   0  0  0  0  0  0  0  0  0  0  0  0
    0.1435   -6.4858    0.0000 H   0  0  0  0  0  0  0  0  0  0  0  0
    1.2135   -6.4858    0.0000 H   0  0  0  0  0  0  0  0  0  0  0  0
    2.0385   -4.6326    0.0000 H   0  0  0  0  0  0  0  0  0  0  0  0
    2.5735   -5.5592    0.0000 H   0  0  0  0  0  0  0  0  0  0  0  0
    1.3810   -7.2003    0.0000 H   0  0  0  0  0  0  0  0  0  0  0  0
    2.4510   -7.2003    0.0000 H   0  0  0  0  0  0  0  0  0  0  0  0
    3.2760   -5.3470    0.0000 H   0  0  0  0  0  0  0  0  0  0  0  0
    3.8110   -6.2737    0.0000 H   0  0  0  0  0  0  0  0  0  0  0  0
    2.6185   -7.9148    0.0000 H   0  0  0  0  0  0  0  0  0  0  0  0
    3.6885   -7.9147    0.0000 H   0  0  0  0  0  0  0  0  0  0  0  0
    4.5135   -6.0615    0.0000 H   0  0  0  0  0  0  0  0  0  0  0  0
    5.0485   -6.9881    0.0000 H   0  0  0  0  0  0  0  0  0  0  0  0
    3.8560   -8.6292    0.0000 H   0  0  0  0  0  0  0  0  0  0  0  0
    4.9260   -8.6292    0.0000 H   0  0  0  0  0  0  0  0  0  0  0  0
    5.7510   -6.7760    0.0000 H   0  0  0  0  0  0  0  0  0  0  0  0
    6.2860   -7.7026    0.0000 H   0  0  0  0  0  0  0  0  0  0  0  0
    5.0935   -9.3437    0.0000 H   0  0  0  0  0  0  0  0  0  0  0  0
    6.6985   -8.4171    0.0000 H   0  0  0  0  0  0  0  0  0  0  0  0
    6.1635   -9.3438    0.0000 H   0  0  0  0  0  0  0  0  0  0  0  0
   14.3182    0.0000    0.0000 H   0  0  0  0  0  0  0  0  0  0  0  0
   12.8632    0.8400    0.0000 H   0  0  0  0  0  0  0  0  0  0  0  0
  1  2  1  0  0  0  0
  1 88  1  0  0  0  0
  1 89  1  0  0  0  0
  1 90  1  0  0  0  0
  2  3  1  0  0  0  0
  2 91  1  0  0  0  0
  2 92  1  0  0  0  0
  3  4  1  0  0  0  0
  3 93  1  0  0  0  0
  3 94  1  0  0  0  0
  4  5  1  0  0  0  0
  4 95  1  0  0  0  0
  4 96  1  0  0  0  0
  5  6  1  0  0  0  0
  5 97  1  0  0  0  0
  5 98  1  0  0  0  0
  6  7  1  0  0  0  0
  6 99  1  0  0  0  0
  6100  1  0  0  0  0
  7  8  1  0  0  0  0
  7101  1  0  0  0  0
  7102  1  0  0  0  0
  8  9  1  0  0  0  0
  8103  1  0  0  0  0
  8104  1  0  0  0  0
  9 10  1  0  0  0  0
  9105  1  0  0  0  0
  9106  1  0  0  0  0
 10 11  1  0  0  0  0
 10107  1  0  0  0  0
 10108  1  0  0  0  0
 11 12  1  0  0  0  0
 11109  1  0  0  0  0
 11110  1  0  0  0  0
 12 13  1  0  0  0  0
 12111  1  0  0  0  0
 12112  1  0  0  0  0
 13 14  1  0  0  0  0
 13113  1  0  0  0  0
 13114  1  0  0  0  0
 14 15  1  0  0  0  0
 14115  1  0  0  0  0
 14116  1  0  0  0  0
 15 16  1  0  0  0  0
 15117  1  0  0  0  0
 15118  1  0  0  0  0
 16 17  2  0  0  0  0
 16 18  1  0  0  0  0
 18 19  1  0  0  0  0
 19 20  1  0  0  0  0
 19119  1  0  0  0  0
 19120  1  0  0  0  0
 20 21  1  0  0  0  0
 20 68  1  0  0  0  0
 20121  1  1  0  0  0
 21 22  1  0  0  0  0
 21122  1  0  0  0  0
 21123  1  0  0  0  0
 22 23  1  0  0  0  0
 23 24  2  0  0  0  0
 23 25  1  0  0  0  0
 23 26  1  0  0  0  0
 26 27  1  0  0  0  0
 27 28  1  0  0  0  0
 27124  1  0  0  0  0
 27125  1  0  0  0  0
 28 29  1  0  0  0  0
 28126  1  0  0  0  0
 28127  1  0  0  0  0
 29 30  1  0  0  0  0
 29128  1  0  0  0  0
 30 31  2  0  0  0  0
 30 32  1  0  0  0  0
 32 33  1  0  0  0  0
 32 34  1  0  0  0  0
 32129  1  6  0  0  0
 33130  1  0  0  0  0
 33131  1  0  0  0  0
 33132  1  0  0  0  0
 34 35  1  0  0  0  0
 34133  1  0  0  0  0
 35 36  2  0  0  0  0
 35 37  1  0  0  0  0
 37 38  1  0  0  0  0
 37134  1  0  0  0  0
 37135  1  0  0  0  0
 38 39  1  0  0  0  0
 38136  1  0  0  0  0
 38137  1  0  0  0  0
 39 40  1  0  0  0  0
 39 43  1  0  0  0  0
 39138  1  1  0  0  0
 40 41  2  0  0  0  0
 40 42  1  0  0  0  0
 42139  1  0  0  0  0
 42140  1  0  0  0  0
 43 44  1  0  0  0  0
 43141  1  0  0  0  0
 44 45  2  0  0  0  0
 44 46  1  0  0  0  0
 46 47  1  0  0  0  0
 46 48  1  0  0  0  0
 46142  1  6  0  0  0
 47143  1  0  0  0  0
 47144  1  0  0  0  0
 47145  1  0  0  0  0
 48 49  1  0  0  0  0
 48146  1  0  0  0  0
 49 50  2  0  0  0  0
 49 51  1  0  0  0  0
 51 52  1  0  0  0  0
 51 53  1  0  0  0  0
 51147  1  6  0  0  0
 52148  1  0  0  0  0
 52149  1  0  0  0  0
 52150  1  0  0  0  0
 54 53  1  0  0  0  0
 54 55  1  0  0  0  0
 54 62  1  0  0  0  0
 54151  1  6  0  0  0
 55 56  1  0  0  0  0
 55 58  1  0  0  0  0
 55152  1  6  0  0  0
 56 57  2  0  0  0  0
 56153  1  0  0  0  0
 58 59  1  0  0  0  0
 58154  1  0  0  0  0
 59 60  2  0  0  0  0
 59 61  1  0  0  0  0
 61155  1  0  0  0  0
 61156  1  0  0  0  0
 61157  1  0  0  0  0
 62 63  1  0  0  0  0
 62 67  1  0  0  0  0
 62158  1  1  0  0  0
 63 64  1  0  0  0  0
 63 66  1  0  0  0  0
 63159  1  6  0  0  0
 64 65  1  0  0  0  0
 64160  1  0  0  0  0
 64161  1  0  0  0  0
 65162  1  0  0  0  0
 66163  1  0  0  0  0
 67164  1  0  0  0  0
 68 69  1  0  0  0  0
 69 70  2  0  0  0  0
 69 71  1  0  0  0  0
 71 72  1  0  0  0  0
 71165  1  0  0  0  0
 71166  1  0  0  0  0
 72 73  1  0  0  0  0
 72167  1  0  0  0  0
 72168  1  0  0  0  0
 73 74  1  0  0  0  0
 73169  1  0  0  0  0
 73170  1  0  0  0  0
 74 75  1  0  0  0  0
 74171  1  0  0  0  0
 74172  1  0  0  0  0
 75 76  1  0  0  0  0
 75173  1  0  0  0  0
 75174  1  0  0  0  0
 76 77  1  0  0  0  0
 76175  1  0  0  0  0
 76176  1  0  0  0  0
 77 78  1  0  0  0  0
 77177  1  0  0  0  0
 77178  1  0  0  0  0
 78 79  1  0  0  0  0
 78179  1  0  0  0  0
 78180  1  0  0  0  0
 79 80  1  0  0  0  0
 79181  1  0  0  0  0
 79182  1  0  0  0  0
 80 81  1  0  0  0  0
 80183  1  0  0  0  0
 80184  1  0  0  0  0
 81 82  1  0  0  0  0
 81185  1  0  0  0  0
 81186  1  0  0  0  0
 82 83  1  0  0  0  0
 82187  1  0  0  0  0
 82188  1  0  0  0  0
 83 84  1  0  0  0  0
 83189  1  0  0  0  0
 83190  1  0  0  0  0
 84 85  1  0  0  0  0
 84191  1  0  0  0  0
 84192  1  0  0  0  0
 85193  1  0  0  0  0
 85194  1  0  0  0  0
 85195  1  0  0  0  0
 86196  1  0  0  0  0
 86197  1  0  0  0  0
M  CHG  2  25  -1  87   1
M  END
>  <DRUGBANK_ID>
DB13615

>  <COMMON_NAME>
Mifamurtide

>  <CAS_NUMBER>
83461-56-7

>  <UNII>
1LM890Q4FY

>  <SYNONYMS>
Mifamurtida; Mifamurtide

$$$$
