3SC
 OpenBabel10282417072D

 40 43  0  0  0  0  0  0  0  0999 V2000
   -2.2779    1.0636    0.0000 C   0  0  0  0  0  0  0  0  0  0  0  0
   -1.4933    0.8086    0.0000 C   0  0  0  0  0  0  0  0  0  0  0  0
   -1.4933   -0.0164    0.0000 N   0  0  0  0  0  0  0  0  0  0  0  0
   -2.2779   -0.2713    0.0000 N   0  0  0  0  0  0  0  0  0  0  0  0
   -2.7628    0.3961    0.0000 C   0  0  0  0  0  0  0  0  0  0  0  0
   -0.7788    1.2211    0.0000 N   0  0  0  0  0  0  0  0  0  0  0  0
   -0.0644    0.8086    0.0000 C   0  0  0  0  0  0  0  0  0  0  0  0
   -0.0644   -0.0164    0.0000 C   0  0  0  0  0  0  0  0  0  0  0  0
   -0.7788   -0.4289    0.0000 C   0  0  0  0  0  0  0  0  0  0  0  0
   -0.7788   -1.2539    0.0000 N   0  0  0  0  0  0  0  0  0  0  0  0
    0.6501    1.2211    0.0000 C   0  0  0  0  0  0  0  0  0  0  0  0
   -1.4933   -1.6664    0.0000 C   0  0  0  0  0  0  0  0  0  0  0  0
   -1.4933   -2.4914    0.0000 C   0  0  0  0  0  0  0  0  0  0  0  0
   -2.2078   -2.9039    0.0000 C   0  0  0  0  0  0  0  0  0  0  0  0
   -2.2078   -3.7289    0.0000 C   0  0  0  0  0  0  0  0  0  0  0  0
   -1.4933   -4.1414    0.0000 N   0  0  0  0  0  0  0  0  0  0  0  0
   -0.7788   -3.7289    0.0000 C   0  0  0  0  0  0  0  0  0  0  0  0
   -0.7788   -2.9039    0.0000 C   0  0  0  0  0  0  0  0  0  0  0  0
    0.6501    2.0461    0.0000 C   0  0  0  0  0  0  0  0  0  0  0  0
    1.3646    2.4586    0.0000 C   0  0  0  0  0  0  0  0  0  0  0  0
    2.0791    2.0461    0.0000 C   0  0  0  0  0  0  0  0  0  0  0  0
    2.0791    1.2211    0.0000 C   0  0  0  0  0  0  0  0  0  0  0  0
    1.3646    0.8086    0.0000 C   0  0  0  0  0  0  0  0  0  0  0  0
   -2.5329    1.8482    0.0000 S   0  0  0  0  0  0  0  0  0  0  0  0
   -1.9808    2.4613    0.0000 C   0  0  0  0  0  0  0  0  0  0  0  0
   -1.4288    3.0744    0.0000 N   0  0  0  0  0  0  0  0  0  0  0  0
   -0.0644    2.4586    0.0000 Cl  0  0  0  0  0  0  0  0  0  0  0  0
    1.3646    3.2836    0.0000 Cl  0  0  0  0  0  0  0  0  0  0  0  0
   -3.7948    0.3961    0.0000 H   0  0  0  0  0  0  0  0  0  0  0  0
    0.8293   -0.5324    0.0000 H   0  0  0  0  0  0  0  0  0  0  0  0
    0.0738   -1.7462    0.0000 H   0  0  0  0  0  0  0  0  0  0  0  0
   -2.4199   -1.1314    0.0000 H   0  0  0  0  0  0  0  0  0  0  0  0
   -2.4199   -2.2014    0.0000 H   0  0  0  0  0  0  0  0  0  0  0  0
   -3.1015   -2.3879    0.0000 H   0  0  0  0  0  0  0  0  0  0  0  0
   -3.1015   -4.2449    0.0000 H   0  0  0  0  0  0  0  0  0  0  0  0
    0.1149   -4.2449    0.0000 H   0  0  0  0  0  0  0  0  0  0  0  0
    0.1149   -2.3879    0.0000 H   0  0  0  0  0  0  0  0  0  0  0  0
    2.9728    2.5621    0.0000 H   0  0  0  0  0  0  0  0  0  0  0  0
    2.9728    0.7051    0.0000 H   0  0  0  0  0  0  0  0  0  0  0  0
    1.3646   -0.2234    0.0000 H   0  0  0  0  0  0  0  0  0  0  0  0
  1  2  2  0  0  0  0
  1 24  1  0  0  0  0
  2  6  1  0  0  0  0
  3  9  1  0  0  0  0
  3  2  1  0  0  0  0
  4  5  2  0  0  0  0
  4  3  1  0  0  0  0
  5  1  1  0  0  0  0
  5 29  1  0  0  0  0
  6  7  2  0  0  0  0
  7 11  1  0  0  0  0
  8  7  1  0  0  0  0
  8 30  1  0  0  0  0
  9  8  2  0  0  0  0
 10 12  1  0  0  0  0
 10  9  1  0  0  0  0
 10 31  1  0  0  0  0
 11 19  1  0  0  0  0
 12 32  1  0  0  0  0
 12 33  1  0  0  0  0
 13 18  1  0  0  0  0
 13 12  1  0  0  0  0
 14 13  2  0  0  0  0
 14 34  1  0  0  0  0
 15 16  2  0  0  0  0
 15 14  1  0  0  0  0
 15 35  1  0  0  0  0
 16 17  1  0  0  0  0
 17 18  2  0  0  0  0
 17 36  1  0  0  0  0
 18 37  1  0  0  0  0
 19 27  1  0  0  0  0
 19 20  2  0  0  0  0
 20 28  1  0  0  0  0
 21 20  1  0  0  0  0
 21 38  1  0  0  0  0
 22 21  2  0  0  0  0
 22 39  1  0  0  0  0
 23 11  2  0  0  0  0
 23 22  1  0  0  0  0
 23 40  1  0  0  0  0
 24 25  1  0  0  0  0
 25 26  3  0  0  0  0
M  END
>  <DRUGBANK_ID>
DB07065

>  <COMMON_NAME>
5-(2,3-dichlorophenyl)-N-(pyridin-4-ylmethyl)-3-thiocyanatopyrazolo[1,5-a]pyrimidin-7-amine

$$$$
