
 OpenBabel10282417072D

 38 38  0  0  0  0  0  0  0  0999 V2000
   24.3844  -17.6218    0.0000 C   0  0  0  0  0  0  0  0  0  0  0  0
   24.3844  -18.4583    0.0000 C   0  0  0  0  0  0  0  0  0  0  0  0
   25.1373  -18.8766    0.0000 C   0  0  0  0  0  0  0  0  0  0  0  0
   25.8483  -18.4583    0.0000 C   0  0  0  0  0  0  0  0  0  0  0  0
   25.8483  -17.6218    0.0000 C   0  0  0  0  0  0  0  0  0  0  0  0
   25.1373  -17.2035    0.0000 C   0  0  0  0  0  0  0  0  0  0  0  0
   26.5595  -18.8766    0.0000 C   0  0  0  0  0  0  0  0  0  0  0  0
   27.3123  -18.4583    0.0000 O   0  0  0  0  0  0  0  0  0  0  0  0
   28.0233  -18.8766    0.0000 C   0  0  3  0  0  0  0  0  0  0  0  0
   28.7345  -18.4583    0.0000 C   0  0  0  0  0  0  0  0  0  0  0  0
   29.4873  -18.8766    0.0000 N   0  0  0  0  0  0  0  0  0  0  0  0
   30.1983  -18.4583    0.0000 C   0  0  0  0  0  0  0  0  0  0  0  0
   26.5595  -19.7131    0.0000 O   0  0  0  0  0  0  0  0  0  0  0  0
   27.3123  -19.2948    0.0000 C   0  0  0  0  0  0  0  0  0  0  0  0
   28.7345  -19.2948    0.0000 C   0  0  0  0  0  0  0  0  0  0  0  0
   29.4873  -19.7131    0.0000 C   0  0  0  0  0  0  0  0  0  0  0  0
   27.3123  -20.1314    0.0000 C   0  0  0  0  0  0  0  0  0  0  0  0
   23.4949  -17.0985    0.0000 H   0  0  0  0  0  0  0  0  0  0  0  0
   23.4949  -18.9816    0.0000 H   0  0  0  0  0  0  0  0  0  0  0  0
   25.1500  -19.9085    0.0000 H   0  0  0  0  0  0  0  0  0  0  0  0
   26.7441  -17.1095    0.0000 H   0  0  0  0  0  0  0  0  0  0  0  0
   25.1500  -16.1716    0.0000 H   0  0  0  0  0  0  0  0  0  0  0  0
   28.7214  -17.3884    0.0000 H   0  0  0  0  0  0  0  0  0  0  0  0
   29.6534  -17.9101    0.0000 H   0  0  0  0  0  0  0  0  0  0  0  0
   31.1293  -18.9857    0.0000 H   0  0  0  0  0  0  0  0  0  0  0  0
   30.1895  -17.3883    0.0000 H   0  0  0  0  0  0  0  0  0  0  0  0
   31.1205  -17.9157    0.0000 H   0  0  0  0  0  0  0  0  0  0  0  0
   26.3835  -18.7636    0.0000 H   0  0  0  0  0  0  0  0  0  0  0  0
   26.3867  -19.8317    0.0000 H   0  0  0  0  0  0  0  0  0  0  0  0
   28.7260  -20.3648    0.0000 H   0  0  0  0  0  0  0  0  0  0  0  0
   29.6654  -18.7672    0.0000 H   0  0  0  0  0  0  0  0  0  0  0  0
   29.6569  -19.8372    0.0000 H   0  0  0  0  0  0  0  0  0  0  0  0
   28.5607  -20.2481    0.0000 H   0  0  0  0  0  0  0  0  0  0  0  0
   30.4139  -20.2481    0.0000 H   0  0  0  0  0  0  0  0  0  0  0  0
   29.4873  -20.7831    0.0000 H   0  0  0  0  0  0  0  0  0  0  0  0
   26.3857  -20.6664    0.0000 H   0  0  0  0  0  0  0  0  0  0  0  0
   28.2389  -20.6664    0.0000 H   0  0  0  0  0  0  0  0  0  0  0  0
   27.3123  -21.2014    0.0000 H   0  0  0  0  0  0  0  0  0  0  0  0
  1  2  2  0  0  0  0
  1  6  1  0  0  0  0
  1 18  1  0  0  0  0
  2  3  1  0  0  0  0
  2 19  1  0  0  0  0
  3  4  2  0  0  0  0
  3 20  1  0  0  0  0
  4  5  1  0  0  0  0
  4  7  1  0  0  0  0
  5  6  2  0  0  0  0
  5 21  1  0  0  0  0
  6 22  1  0  0  0  0
  7  8  1  0  0  0  0
  7 13  2  0  0  0  0
  8  9  1  0  0  0  0
  9 10  1  0  0  0  0
  9 14  1  0  0  0  0
  9 15  1  0  0  0  0
 10 11  1  0  0  0  0
 10 23  1  0  0  0  0
 10 24  1  0  0  0  0
 11 12  1  0  0  0  0
 11 16  1  0  0  0  0
 12 25  1  0  0  0  0
 12 26  1  0  0  0  0
 12 27  1  0  0  0  0
 14 17  1  0  0  0  0
 14 28  1  0  0  0  0
 14 29  1  0  0  0  0
 15 30  1  0  0  0  0
 15 31  1  0  0  0  0
 15 32  1  0  0  0  0
 16 33  1  0  0  0  0
 16 34  1  0  0  0  0
 16 35  1  0  0  0  0
 17 36  1  0  0  0  0
 17 37  1  0  0  0  0
 17 38  1  0  0  0  0
M  END
>  <DRUGBANK_ID>
DB09088

>  <COMMON_NAME>
Amylocaine

>  <CAS_NUMBER>
644-26-8

>  <UNII>
QRW683O56T

>  <SYNONYMS>
1-(Dimethylamino)-2-methyl-2-butanol benzoate; Amyl√©ine; Amylocaine; Stovaine

$$$$
