
 OpenBabel10282417072D

 49 52  0  0  0  0  0  0  0  0999 V2000
   -3.0985    3.1282    0.0000 C   0  0  0  0  0  0  0  0  0  0  0  0
   -2.3840    4.3657    0.0000 C   0  0  0  0  0  0  0  0  0  0  0  0
   -0.2406    3.1282    0.0000 C   0  0  0  0  0  0  0  0  0  0  0  0
   -0.9551    3.5407    0.0000 C   0  0  0  0  0  0  0  0  0  0  0  0
    0.4738    3.5407    0.0000 C   0  0  0  0  0  0  0  0  0  0  0  0
    3.8543    5.5876    0.0000 C   0  0  0  0  0  0  0  0  0  0  0  0
    3.5112    3.9736    0.0000 C   0  0  0  0  0  0  0  0  0  0  0  0
    0.9775    0.9100    0.0000 C   0  0  0  0  0  0  0  0  0  0  0  0
    5.6234    4.3681    0.0000 C   0  0  0  0  0  0  0  0  0  0  0  0
   -2.3840    3.5407    0.0000 C   0  0  0  0  0  0  0  0  0  0  0  0
    3.0697    5.3326    0.0000 C   0  0  0  0  0  0  0  0  0  0  0  0
    4.4674    5.0355    0.0000 C   0  0  0  0  0  0  0  0  0  0  0  0
    4.2959    4.2286    0.0000 C   0  0  0  0  0  0  0  0  0  0  0  0
    2.8981    4.5257    0.0000 C   0  0  0  0  0  0  0  0  0  0  0  0
    2.0815    2.1362    0.0000 C   0  0  0  0  0  0  0  0  0  0  0  0
    2.3365    1.3516    0.0000 C   0  0  0  0  0  0  0  0  0  0  0  0
    1.2745    2.3077    0.0000 C   0  0  0  0  0  0  0  0  0  0  0  0
    1.9420    3.4638    0.0000 C   0  0  0  0  0  0  0  0  0  0  0  0
    2.4566    5.8847    0.0000 I   0  0  0  0  0  0  0  0  0  0  0  0
    3.1434    1.1800    0.0000 N   0  0  0  0  0  0  0  0  0  0  0  0
   -1.6696    3.1282    0.0000 N   0  0  0  0  0  0  0  0  0  0  0  0
    1.7844    0.7385    0.0000 N   0  0  0  0  0  0  0  0  0  0  0  0
    0.7225    1.6946    0.0000 N   0  0  0  0  0  0  0  0  0  0  0  0
    2.4940    2.8507    0.0000 N   0  0  0  0  0  0  0  0  0  0  0  0
    1.1883    3.1282    0.0000 N   0  0  0  0  0  0  0  0  0  0  0  0
    5.2879    5.1218    0.0000 O   0  0  0  0  0  0  0  0  0  0  0  0
    5.0103    3.8161    0.0000 O   0  0  0  0  0  0  0  0  0  0  0  0
    2.1135    4.2707    0.0000 S   0  0  0  0  0  0  0  0  0  0  0  0
   -4.0251    3.6632    0.0000 H   0  0  0  0  0  0  0  0  0  0  0  0
   -3.0985    2.0582    0.0000 H   0  0  0  0  0  0  0  0  0  0  0  0
   -4.0252    2.5932    0.0000 H   0  0  0  0  0  0  0  0  0  0  0  0
   -1.4574    4.9007    0.0000 H   0  0  0  0  0  0  0  0  0  0  0  0
   -3.3106    4.9007    0.0000 H   0  0  0  0  0  0  0  0  0  0  0  0
   -2.3840    5.4357    0.0000 H   0  0  0  0  0  0  0  0  0  0  0  0
   -0.2406    2.0582    0.0000 H   0  0  0  0  0  0  0  0  0  0  0  0
    0.6861    2.5932    0.0000 H   0  0  0  0  0  0  0  0  0  0  0  0
   -0.9551    4.6107    0.0000 H   0  0  0  0  0  0  0  0  0  0  0  0
   -1.8817    4.0757    0.0000 H   0  0  0  0  0  0  0  0  0  0  0  0
    0.4738    4.6107    0.0000 H   0  0  0  0  0  0  0  0  0  0  0  0
    1.4004    4.0757    0.0000 H   0  0  0  0  0  0  0  0  0  0  0  0
    4.0689    6.5971    0.0000 H   0  0  0  0  0  0  0  0  0  0  0  0
    3.2966    2.9642    0.0000 H   0  0  0  0  0  0  0  0  0  0  0  0
    0.2870    0.1430    0.0000 H   0  0  0  0  0  0  0  0  0  0  0  0
    6.6700    4.1456    0.0000 H   0  0  0  0  0  0  0  0  0  0  0  0
    5.9003    3.3345    0.0000 H   0  0  0  0  0  0  0  0  0  0  0  0
   -1.4573    4.0757    0.0000 H   0  0  0  0  0  0  0  0  0  0  0  0
    3.4475    0.2437    0.0000 H   0  0  0  0  0  0  0  0  0  0  0  0
    3.8022    1.9116    0.0000 H   0  0  0  0  0  0  0  0  0  0  0  0
   -1.6696    2.1082    0.0000 H   0  0  0  0  0  0  0  0  0  0  0  0
  1 29  1  0  0  0  0
  1 30  1  0  0  0  0
  1 31  1  0  0  0  0
  2 32  1  0  0  0  0
  2 33  1  0  0  0  0
  2 34  1  0  0  0  0
  3 35  1  0  0  0  0
  3 36  1  0  0  0  0
  4  3  1  0  0  0  0
  4 37  1  0  0  0  0
  4 38  1  0  0  0  0
  5  3  1  0  0  0  0
  5 39  1  0  0  0  0
  5 40  1  0  0  0  0
  6 41  1  0  0  0  0
  7 42  1  0  0  0  0
  8 43  1  0  0  0  0
  9 44  1  0  0  0  0
  9 45  1  0  0  0  0
 10  1  1  0  0  0  0
 10  2  1  0  0  0  0
 10 46  1  0  0  0  0
 11  6  1  0  0  0  0
 12  6  2  0  0  0  0
 13  7  2  0  0  0  0
 13 12  1  0  0  0  0
 14  7  1  0  0  0  0
 14 11  2  0  0  0  0
 16 15  2  0  0  0  0
 17 15  1  0  0  0  0
 19 11  1  0  0  0  0
 20 16  1  0  0  0  0
 20 47  1  0  0  0  0
 20 48  1  0  0  0  0
 21  4  1  0  0  0  0
 21 10  1  0  0  0  0
 21 49  1  0  0  0  0
 22  8  2  0  0  0  0
 22 16  1  0  0  0  0
 23  8  1  0  0  0  0
 23 17  2  0  0  0  0
 24 15  1  0  0  0  0
 24 18  2  0  0  0  0
 25  5  1  0  0  0  0
 25 17  1  0  0  0  0
 25 18  1  0  0  0  0
 26  9  1  0  0  0  0
 26 12  1  0  0  0  0
 27  9  1  0  0  0  0
 27 13  1  0  0  0  0
 28 14  1  0  0  0  0
 28 18  1  0  0  0  0
M  END
>  <DRUGBANK_ID>
DB12638

>  <COMMON_NAME>
Zelavespib

>  <CAS_NUMBER>
873436-91-0

>  <UNII>
06IVK87M04

>  <SYNONYMS>
8-((6-Iodobenzo[d][1,3]dioxol-5-yl)thio)-9-(3-(isopropylamino)propyl)-9H-purin-6-amine; 8-(6-iodo-benzo[1,3]dioxol-5-ylsulfanyl)-9-(3-isopropylamino-propyl)adenine; 9H-purine-9-propanamine, 6-amino-8-((6-iodo-1,3-benzodioxol-5-yl)thio)-N-(1-methylethyl)-

$$$$
