3BA
 OpenBabel10282417072D

 48 50  0  0  0  0  0  0  0  0999 V2000
   -1.8271   -1.8823    0.0000 N   0  0  0  0  0  0  0  0  0  0  0  0
   -1.8271   -0.2323    0.0000 C   0  0  0  0  0  0  0  0  0  0  0  0
    0.3163   -0.6448    0.0000 N   0  0  0  0  0  0  0  0  0  0  0  0
   -1.1127   -1.4698    0.0000 C   0  0  0  0  0  0  0  0  0  0  0  0
    1.7452   -2.2948    0.0000 C   0  0  0  0  0  0  0  0  0  0  0  0
    1.0307   -1.8823    0.0000 C   0  0  0  0  0  0  0  0  0  0  0  0
    0.3163   -1.4698    0.0000 C   0  0  0  0  0  0  0  0  0  0  0  0
   -0.3982   -0.2323    0.0000 C   0  0  0  0  0  0  0  0  0  0  0  0
   -1.1127   -0.6448    0.0000 C   0  0  0  0  0  0  0  0  0  0  0  0
    0.6182   -2.5968    0.0000 C   0  0  0  0  0  0  0  0  0  0  0  0
   -3.2561   -0.2323    0.0000 C   0  0  0  0  0  0  0  0  0  0  0  0
    0.3163    1.0052    0.0000 C   0  0  0  0  0  0  0  0  0  0  0  0
    0.3163    1.8302    0.0000 C   0  0  0  0  0  0  0  0  0  0  0  0
    1.0307    2.2427    0.0000 C   0  0  0  0  0  0  0  0  0  0  0  0
    2.3365    2.5202    0.0000 C   0  0  0  0  0  0  0  0  0  0  0  0
    1.1170    3.0632    0.0000 C   0  0  0  0  0  0  0  0  0  0  0  0
   -2.5416   -1.4698    0.0000 C   0  0  0  0  0  0  0  0  0  0  0  0
   -2.5416   -0.6448    0.0000 C   0  0  0  0  0  0  0  0  0  0  0  0
   -0.3982   -1.8823    0.0000 N   0  0  0  0  0  0  0  0  0  0  0  0
   -3.2561   -1.8823    0.0000 N   0  0  0  0  0  0  0  0  0  0  0  0
    1.4432   -1.1678    0.0000 C   0  0  0  0  0  0  0  0  0  0  0  0
   -3.9705   -0.6448    0.0000 O   0  0  0  0  0  0  0  0  0  0  0  0
   -3.2561    0.5927    0.0000 N   0  0  0  0  0  0  0  0  0  0  0  0
   -0.3982    0.5927    0.0000 N   0  0  0  0  0  0  0  0  0  0  0  0
    1.7844    1.9071    0.0000 N   0  0  0  0  0  0  0  0  0  0  0  0
    1.9240    3.2347    0.0000 N   0  0  0  0  0  0  0  0  0  0  0  0
   -1.8271    0.7997    0.0000 H   0  0  0  0  0  0  0  0  0  0  0  0
    1.7452   -3.3648    0.0000 H   0  0  0  0  0  0  0  0  0  0  0  0
    2.6718   -1.7598    0.0000 H   0  0  0  0  0  0  0  0  0  0  0  0
    2.6719   -2.8298    0.0000 H   0  0  0  0  0  0  0  0  0  0  0  0
   -0.4518   -2.5968    0.0000 H   0  0  0  0  0  0  0  0  0  0  0  0
    1.1532   -3.5234    0.0000 H   0  0  0  0  0  0  0  0  0  0  0  0
    0.0832   -3.5235    0.0000 H   0  0  0  0  0  0  0  0  0  0  0  0
    1.2429    0.4702    0.0000 H   0  0  0  0  0  0  0  0  0  0  0  0
    0.3163   -0.0648    0.0000 H   0  0  0  0  0  0  0  0  0  0  0  0
   -0.6104    2.3652    0.0000 H   0  0  0  0  0  0  0  0  0  0  0  0
    0.3163    2.9002    0.0000 H   0  0  0  0  0  0  0  0  0  0  0  0
    3.3628    2.4123    0.0000 H   0  0  0  0  0  0  0  0  0  0  0  0
    0.3501    3.7538    0.0000 H   0  0  0  0  0  0  0  0  0  0  0  0
   -4.1087   -1.3900    0.0000 H   0  0  0  0  0  0  0  0  0  0  0  0
   -3.2561   -2.8668    0.0000 H   0  0  0  0  0  0  0  0  0  0  0  0
    2.5132   -1.1678    0.0000 H   0  0  0  0  0  0  0  0  0  0  0  0
    0.9082   -0.2412    0.0000 H   0  0  0  0  0  0  0  0  0  0  0  0
    1.9782   -0.2411    0.0000 H   0  0  0  0  0  0  0  0  0  0  0  0
   -2.4035    1.0850    0.0000 H   0  0  0  0  0  0  0  0  0  0  0  0
   -4.1087    1.0850    0.0000 H   0  0  0  0  0  0  0  0  0  0  0  0
   -1.2508    1.0850    0.0000 H   0  0  0  0  0  0  0  0  0  0  0  0
    2.3245    4.1341    0.0000 H   0  0  0  0  0  0  0  0  0  0  0  0
  1  4  2  0  0  0  0
  1 17  1  0  0  0  0
  2  9  2  0  0  0  0
  2 18  1  0  0  0  0
  2 27  1  0  0  0  0
  3  7  1  0  0  0  0
  3  8  2  0  0  0  0
  4  9  1  0  0  0  0
  4 19  1  0  0  0  0
  5  6  1  0  0  0  0
  5 28  1  0  0  0  0
  5 29  1  0  0  0  0
  5 30  1  0  0  0  0
  6  7  1  0  0  0  0
  6 10  1  0  0  0  0
  6 21  1  0  0  0  0
  7 19  2  0  0  0  0
  8  9  1  0  0  0  0
  8 24  1  0  0  0  0
 10 31  1  0  0  0  0
 10 32  1  0  0  0  0
 10 33  1  0  0  0  0
 11 18  1  0  0  0  0
 11 22  2  0  0  0  0
 11 23  1  0  0  0  0
 12 13  1  0  0  0  0
 12 24  1  0  0  0  0
 12 34  1  0  0  0  0
 12 35  1  0  0  0  0
 13 14  1  0  0  0  0
 13 36  1  0  0  0  0
 13 37  1  0  0  0  0
 14 16  2  0  0  0  0
 14 25  1  0  0  0  0
 15 25  2  0  0  0  0
 15 26  1  0  0  0  0
 15 38  1  0  0  0  0
 16 26  1  0  0  0  0
 16 39  1  0  0  0  0
 17 18  2  0  0  0  0
 17 20  1  0  0  0  0
 20 40  1  0  0  0  0
 20 41  1  0  0  0  0
 21 42  1  0  0  0  0
 21 43  1  0  0  0  0
 21 44  1  0  0  0  0
 23 45  1  0  0  0  0
 23 46  1  0  0  0  0
 24 47  1  0  0  0  0
 26 48  1  0  0  0  0
M  END
>  <DRUGBANK_ID>
DB07042

>  <COMMON_NAME>
7-amino-2-tert-butyl-4-{[2-(1H-imidazol-4-yl)ethyl]amino}pyrido[2,3-d]pyrimidine-6-carboxamide

$$$$
