
 OpenBabel10282417072D

 14 13  0  0  0  0  0  0  0  0999 V2000
    0.0000   -0.6187    0.0000 N   0  0  0  0  0  0  0  0  0  0  0  0
    0.7146    0.6187    0.0000 N   0  0  0  0  0  0  0  0  0  0  0  0
    0.7146   -0.2062    0.0000 C   0  0  0  0  0  0  0  0  0  0  0  0
    1.4290   -0.6187    0.0000 N   0  0  0  0  0  0  0  0  0  0  0  0
   -0.7146   -0.2062    0.0000 C   0  0  0  0  0  0  0  0  0  0  0  0
   -0.7146    0.6187    0.0000 N   0  0  0  0  0  0  0  0  0  0  0  0
   -1.4290   -0.6187    0.0000 N   0  0  0  0  0  0  0  0  0  0  0  0
    0.0000   -1.6032    0.0000 H   0  0  0  0  0  0  0  0  0  0  0  0
    1.5672    1.1110    0.0000 H   0  0  0  0  0  0  0  0  0  0  0  0
    1.4290   -1.6032    0.0000 H   0  0  0  0  0  0  0  0  0  0  0  0
    2.2816   -0.1265    0.0000 H   0  0  0  0  0  0  0  0  0  0  0  0
    0.1380    1.1110    0.0000 H   0  0  0  0  0  0  0  0  0  0  0  0
   -2.2816   -0.1265    0.0000 H   0  0  0  0  0  0  0  0  0  0  0  0
   -1.4290   -1.6032    0.0000 H   0  0  0  0  0  0  0  0  0  0  0  0
  1  5  1  0  0  0  0
  1  8  1  0  0  0  0
  2  3  2  0  0  0  0
  2  9  1  0  0  0  0
  3  1  1  0  0  0  0
  3  4  1  0  0  0  0
  4 10  1  0  0  0  0
  4 11  1  0  0  0  0
  5  6  2  0  0  0  0
  5  7  1  0  0  0  0
  6 12  1  0  0  0  0
  7 13  1  0  0  0  0
  7 14  1  0  0  0  0
M  END
>  <DRUGBANK_ID>
DB13100

>  <COMMON_NAME>
Biguanide

>  <CAS_NUMBER>
56-03-1

>  <UNII>
FB4Q52I9K2

$$$$
