
 OpenBabel10282417072D

 51 54  0  0  0  0  0  0  0  0999 V2000
   -0.7145    7.9651    0.0000 C   0  0  0  0  0  0  0  0  0  0  0  0
   -0.0000    7.5526    0.0000 C   0  0  0  0  0  0  0  0  0  0  0  0
   -0.0000    6.7276    0.0000 C   0  0  0  0  0  0  0  0  0  0  0  0
   -0.7145    6.3151    0.0000 C   0  0  0  0  0  0  0  0  0  0  0  0
   -1.4289    6.7276    0.0000 C   0  0  0  0  0  0  0  0  0  0  0  0
   -1.4289    7.5526    0.0000 C   0  0  0  0  0  0  0  0  0  0  0  0
   -2.1434    7.9651    0.0000 C   0  0  0  0  0  0  0  0  0  0  0  0
   -2.8579    7.5526    0.0000 N   0  0  0  0  0  0  0  0  0  0  0  0
   -2.8579    6.7276    0.0000 C   0  0  0  0  0  0  0  0  0  0  0  0
   -3.5724    6.3151    0.0000 C   0  0  0  0  0  0  0  0  0  0  0  0
   -4.2868    6.7276    0.0000 O   0  0  0  0  0  0  0  0  0  0  0  0
   -4.2868    7.5526    0.0000 C   0  0  0  0  0  0  0  0  0  0  0  0
   -3.5724    7.9651    0.0000 C   0  0  0  0  0  0  0  0  0  0  0  0
    0.7145    6.3151    0.0000 C   0  0  0  0  0  0  0  0  0  0  0  0
    1.4289    6.7276    0.0000 O   0  0  0  0  0  0  0  0  0  0  0  0
    0.7145    5.4901    0.0000 N   0  0  0  0  0  0  0  0  0  0  0  0
    1.4289    5.0776    0.0000 C   0  0  0  0  0  0  0  0  0  0  0  0
    1.4289    4.2526    0.0000 C   0  0  0  0  0  0  0  0  0  0  0  0
    0.7145    3.8401    0.0000 N   0  0  0  0  0  0  0  0  0  0  0  0
    0.0000    4.2526    0.0000 C   0  0  0  0  0  0  0  0  0  0  0  0
   -0.0000    5.0776    0.0000 C   0  0  0  0  0  0  0  0  0  0  0  0
    0.7145    3.0151    0.0000 C   0  0  0  0  0  0  0  0  0  0  0  0
    1.1270    2.3007    0.0000 C   0  0  0  0  0  0  0  0  0  0  0  0
    0.3020    2.3007    0.0000 C   0  0  0  0  0  0  0  0  0  0  0  0
   -0.7145    8.9971    0.0000 H   0  0  0  0  0  0  0  0  0  0  0  0
    0.8937    8.0686    0.0000 H   0  0  0  0  0  0  0  0  0  0  0  0
   -0.7145    5.2831    0.0000 H   0  0  0  0  0  0  0  0  0  0  0  0
   -2.3226    6.2116    0.0000 H   0  0  0  0  0  0  0  0  0  0  0  0
   -2.1434    9.0351    0.0000 H   0  0  0  0  0  0  0  0  0  0  0  0
   -3.0700    8.5001    0.0000 H   0  0  0  0  0  0  0  0  0  0  0  0
   -1.9313    6.1926    0.0000 H   0  0  0  0  0  0  0  0  0  0  0  0
   -2.8579    5.6576    0.0000 H   0  0  0  0  0  0  0  0  0  0  0  0
   -3.5724    5.2451    0.0000 H   0  0  0  0  0  0  0  0  0  0  0  0
   -4.4991    5.7801    0.0000 H   0  0  0  0  0  0  0  0  0  0  0  0
   -5.2135    8.0876    0.0000 H   0  0  0  0  0  0  0  0  0  0  0  0
   -4.2868    8.6226    0.0000 H   0  0  0  0  0  0  0  0  0  0  0  0
   -3.5724    9.0351    0.0000 H   0  0  0  0  0  0  0  0  0  0  0  0
   -2.6458    8.5001    0.0000 H   0  0  0  0  0  0  0  0  0  0  0  0
    2.3556    5.6126    0.0000 H   0  0  0  0  0  0  0  0  0  0  0  0
    2.3555    4.5426    0.0000 H   0  0  0  0  0  0  0  0  0  0  0  0
    2.3556    3.7176    0.0000 H   0  0  0  0  0  0  0  0  0  0  0  0
    1.4289    3.1826    0.0000 H   0  0  0  0  0  0  0  0  0  0  0  0
   -0.9266    3.7176    0.0000 H   0  0  0  0  0  0  0  0  0  0  0  0
   -0.9266    4.7876    0.0000 H   0  0  0  0  0  0  0  0  0  0  0  0
   -0.9266    5.6126    0.0000 H   0  0  0  0  0  0  0  0  0  0  0  0
    0.0000    6.1476    0.0000 H   0  0  0  0  0  0  0  0  0  0  0  0
    0.7145    1.9451    0.0000 H   0  0  0  0  0  0  0  0  0  0  0  0
    2.0537    1.7657    0.0000 H   0  0  0  0  0  0  0  0  0  0  0  0
    0.8501    1.2672    0.0000 H   0  0  0  0  0  0  0  0  0  0  0  0
   -0.6247    1.7657    0.0000 H   0  0  0  0  0  0  0  0  0  0  0  0
   -0.4546    3.0573    0.0000 H   0  0  0  0  0  0  0  0  0  0  0  0
  1  2  2  0  0  0  0
  1  6  1  0  0  0  0
  1 25  1  0  0  0  0
  2  3  1  0  0  0  0
  2 26  1  0  0  0  0
  3  4  2  0  0  0  0
  3 14  1  0  0  0  0
  4  5  1  0  0  0  0
  4 27  1  0  0  0  0
  5  6  2  0  0  0  0
  5 28  1  0  0  0  0
  6  7  1  0  0  0  0
  7  8  1  0  0  0  0
  7 29  1  0  0  0  0
  7 30  1  0  0  0  0
  8  9  1  0  0  0  0
  8 13  1  0  0  0  0
  9 10  1  0  0  0  0
  9 31  1  0  0  0  0
  9 32  1  0  0  0  0
 10 11  1  0  0  0  0
 10 33  1  0  0  0  0
 10 34  1  0  0  0  0
 11 12  1  0  0  0  0
 12 13  1  0  0  0  0
 12 35  1  0  0  0  0
 12 36  1  0  0  0  0
 13 37  1  0  0  0  0
 13 38  1  0  0  0  0
 14 15  2  0  0  0  0
 14 16  1  0  0  0  0
 16 17  1  0  0  0  0
 16 21  1  0  0  0  0
 17 18  1  0  0  0  0
 17 39  1  0  0  0  0
 17 40  1  0  0  0  0
 18 19  1  0  0  0  0
 18 41  1  0  0  0  0
 18 42  1  0  0  0  0
 19 20  1  0  0  0  0
 19 22  1  0  0  0  0
 20 21  1  0  0  0  0
 20 43  1  0  0  0  0
 20 44  1  0  0  0  0
 21 45  1  0  0  0  0
 21 46  1  0  0  0  0
 22 23  1  0  0  0  0
 22 24  1  0  0  0  0
 22 47  1  0  0  0  0
 23 24  1  0  0  0  0
 23 48  1  0  0  0  0
 23 49  1  0  0  0  0
 24 50  1  0  0  0  0
 24 51  1  0  0  0  0
M  END
>  <DRUGBANK_ID>
DB12299

>  <COMMON_NAME>
Bavisant

>  <CAS_NUMBER>
929622-08-2

>  <UNII>
9827P7LFVH

>  <SYNONYMS>
Bavisant

$$$$
