
 OpenBabel10282417072D

 52 51  0  0  0  0  0  0  0  0999 V2000
   -0.2215   -0.6187    0.0000 O   0  0  0  0  0  0  0  0  0  0  0  0
   -0.9359    3.0938    0.0000 O   0  0  0  0  0  0  0  0  0  0  0  0
   -0.2215    4.3313    0.0000 O   0  0  0  0  0  0  0  0  0  0  0  0
   -3.0794   -1.4437    0.0000 O   0  0  0  0  0  0  0  0  0  0  0  0
    1.9219    2.2687    0.0000 O   0  0  0  0  0  0  0  0  0  0  0  0
   -3.7939   -4.3313    0.0000 O   0  0  0  0  0  0  0  0  0  0  0  0
   -2.3649   -4.3313    0.0000 O   0  0  0  0  0  0  0  0  0  0  0  0
    1.2074    3.5063    0.0000 N   0  0  0  0  0  0  0  0  0  0  0  0
   -1.6504   -0.6187    0.0000 N   0  0  0  0  0  0  0  0  0  0  0  0
   -2.3649   -2.6813    0.0000 N   0  0  0  0  0  0  0  0  0  0  0  0
    3.3509    3.0938    0.0000 N   0  0  0  0  0  0  0  0  0  0  0  0
   -0.2215    1.8562    0.0000 C   0  0  0  0  0  0  0  0  0  0  0  0
    0.4930    2.2687    0.0000 C   0  0  0  0  0  0  0  0  0  0  0  0
   -0.2215    1.0312    0.0000 C   0  0  0  0  0  0  0  0  0  0  0  0
    0.4930    3.0938    0.0000 C   0  0  1  0  0  0  0  0  0  0  0  0
   -0.9359    0.6187    0.0000 C   0  0  0  0  0  0  0  0  0  0  0  0
   -0.9359   -0.2062    0.0000 C   0  0  0  0  0  0  0  0  0  0  0  0
   -1.6504   -1.4437    0.0000 C   0  0  1  0  0  0  0  0  0  0  0  0
   -0.2215    3.5063    0.0000 C   0  0  0  0  0  0  0  0  0  0  0  0
   -2.3649   -1.8562    0.0000 C   0  0  0  0  0  0  0  0  0  0  0  0
   -0.9359   -1.8562    0.0000 C   0  0  0  0  0  0  0  0  0  0  0  0
    1.9219    3.0938    0.0000 C   0  0  0  0  0  0  0  0  0  0  0  0
   -3.0794   -3.0938    0.0000 C   0  0  2  0  0  0  0  0  0  0  0  0
    2.6364    3.5063    0.0000 C   0  0  0  0  0  0  0  0  0  0  0  0
   -3.7939   -2.6813    0.0000 C   0  0  0  0  0  0  0  0  0  0  0  0
   -3.0794   -3.9188    0.0000 C   0  0  0  0  0  0  0  0  0  0  0  0
    1.2074    4.0178    0.0000 H   0  0  0  0  0  0  0  0  0  0  0  0
   -2.0934   -0.3630    0.0000 H   0  0  0  0  0  0  0  0  0  0  0  0
   -1.9219   -2.9370    0.0000 H   0  0  0  0  0  0  0  0  0  0  0  0
    3.3509    2.5823    0.0000 H   0  0  0  0  0  0  0  0  0  0  0  0
    3.7939    3.3495    0.0000 H   0  0  0  0  0  0  0  0  0  0  0  0
   -1.7474    3.5623    0.0000 H   0  0  0  0  0  0  0  0  0  0  0  0
   -4.6054   -3.8628    0.0000 H   0  0  0  0  0  0  0  0  0  0  0  0
   -1.1481    2.3912    0.0000 H   0  0  0  0  0  0  0  0  0  0  0  0
   -1.1481    1.3212    0.0000 H   0  0  0  0  0  0  0  0  0  0  0  0
    1.4196    1.7337    0.0000 H   0  0  0  0  0  0  0  0  0  0  0  0
    1.4196    2.8037    0.0000 H   0  0  0  0  0  0  0  0  0  0  0  0
    0.7052    0.4962    0.0000 H   0  0  0  0  0  0  0  0  0  0  0  0
   -0.2215   -0.0388    0.0000 H   0  0  0  0  0  0  0  0  0  0  0  0
    1.4197    2.5588    0.0000 H   0  0  0  0  0  0  0  0  0  0  0  0
   -1.8626    1.1537    0.0000 H   0  0  0  0  0  0  0  0  0  0  0  0
   -1.8625    0.0837    0.0000 H   0  0  0  0  0  0  0  0  0  0  0  0
   -2.5770   -0.9087    0.0000 H   0  0  0  0  0  0  0  0  0  0  0  0
   -0.9359   -2.9262    0.0000 H   0  0  0  0  0  0  0  0  0  0  0  0
   -0.0093   -1.3212    0.0000 H   0  0  0  0  0  0  0  0  0  0  0  0
   -0.0092   -2.3912    0.0000 H   0  0  0  0  0  0  0  0  0  0  0  0
   -3.0794   -2.0238    0.0000 H   0  0  0  0  0  0  0  0  0  0  0  0
    2.6364    4.5763    0.0000 H   0  0  0  0  0  0  0  0  0  0  0  0
    1.7098    4.0413    0.0000 H   0  0  0  0  0  0  0  0  0  0  0  0
   -3.7939   -1.6113    0.0000 H   0  0  0  0  0  0  0  0  0  0  0  0
   -4.7205   -3.2163    0.0000 H   0  0  0  0  0  0  0  0  0  0  0  0
   -4.7206   -2.1463    0.0000 H   0  0  0  0  0  0  0  0  0  0  0  0
  1 17  2  0  0  0  0
  2 19  1  0  0  0  0
  2 32  1  0  0  0  0
  3 19  2  0  0  0  0
  4 20  2  0  0  0  0
  5 22  2  0  0  0  0
  6 26  1  0  0  0  0
  6 33  1  0  0  0  0
  7 26  2  0  0  0  0
  8 22  1  0  0  0  0
  8 27  1  0  0  0  0
  9 17  1  0  0  0  0
  9 28  1  0  0  0  0
 10 20  1  0  0  0  0
 10 29  1  0  0  0  0
 11 24  1  0  0  0  0
 11 30  1  0  0  0  0
 11 31  1  0  0  0  0
 12 13  1  0  0  0  0
 12 14  1  0  0  0  0
 12 34  1  0  0  0  0
 12 35  1  0  0  0  0
 13 15  1  0  0  0  0
 13 36  1  0  0  0  0
 13 37  1  0  0  0  0
 14 16  1  0  0  0  0
 14 38  1  0  0  0  0
 14 39  1  0  0  0  0
 15  8  1  0  0  0  0
 15 19  1  0  0  0  0
 15 40  1  6  0  0  0
 16 17  1  0  0  0  0
 16 41  1  0  0  0  0
 16 42  1  0  0  0  0
 18  9  1  0  0  0  0
 18 20  1  0  0  0  0
 18 21  1  0  0  0  0
 18 43  1  1  0  0  0
 21 44  1  0  0  0  0
 21 45  1  0  0  0  0
 21 46  1  0  0  0  0
 22 24  1  0  0  0  0
 23 10  1  0  0  0  0
 23 25  1  0  0  0  0
 23 26  1  0  0  0  0
 23 47  1  6  0  0  0
 24 48  1  0  0  0  0
 24 49  1  0  0  0  0
 25 50  1  0  0  0  0
 25 51  1  0  0  0  0
 25 52  1  0  0  0  0
M  END
>  <DRUGBANK_ID>
DB02578

>  <SECONDARY_ACCESSION_NUMBERS>
EXPT02773

>  <COMMON_NAME>
N-[(6S)-6-Carboxy-6-(glycylamino)hexanoyl]-D-alanyl-D-alanine

>  <SYNONYMS>
Glycyl-L-alpha-amino-epsilon-pimelyl-D-alanyl-D-alanine

$$$$
