
 OpenBabel10282417072D

 56 55  0  0  0  0  0  0  0  0999 V2000
    5.4730    3.9849    0.0000 C   0  0  0  0  0  0  0  0  0  0  0  0
    6.1875    3.5724    0.0000 C   0  0  0  0  0  0  0  0  0  0  0  0
    6.9020    3.9849    0.0000 C   0  0  0  0  0  0  0  0  0  0  0  0
    7.6164    3.5724    0.0000 C   0  0  0  0  0  0  0  0  0  0  0  0
    8.3309    3.9849    0.0000 C   0  0  0  0  0  0  0  0  0  0  0  0
    9.0454    3.5724    0.0000 C   0  0  0  0  0  0  0  0  0  0  0  0
    9.7599    3.9849    0.0000 C   0  0  0  0  0  0  0  0  0  0  0  0
   10.4743    3.5724    0.0000 C   0  0  0  0  0  0  0  0  0  0  0  0
   11.1888    3.9849    0.0000 C   0  0  0  0  0  0  0  0  0  0  0  0
   11.9033    3.5724    0.0000 C   0  0  0  0  0  0  0  0  0  0  0  0
   12.6177    3.9849    0.0000 C   0  0  0  0  0  0  0  0  0  0  0  0
   13.3322    3.5724    0.0000 C   0  0  0  0  0  0  0  0  0  0  0  0
   14.0467    3.9849    0.0000 C   0  0  0  0  0  0  0  0  0  0  0  0
   14.7612    3.5724    0.0000 C   0  0  0  0  0  0  0  0  0  0  0  0
   15.4756    3.9849    0.0000 N   0  3  0  0  0  0  0  0  0  0  0  0
   16.1901    4.3974    0.0000 C   0  0  0  0  0  0  0  0  0  0  0  0
   15.8881    3.2704    0.0000 C   0  0  0  0  0  0  0  0  0  0  0  0
   15.0631    4.6993    0.0000 C   0  0  0  0  0  0  0  0  0  0  0  0
    5.4730    5.0549    0.0000 H   0  0  0  0  0  0  0  0  0  0  0  0
    4.5464    3.4499    0.0000 H   0  0  0  0  0  0  0  0  0  0  0  0
    4.5463    4.5199    0.0000 H   0  0  0  0  0  0  0  0  0  0  0  0
    6.1875    2.5024    0.0000 H   0  0  0  0  0  0  0  0  0  0  0  0
    7.1141    3.0374    0.0000 H   0  0  0  0  0  0  0  0  0  0  0  0
    6.9020    5.0549    0.0000 H   0  0  0  0  0  0  0  0  0  0  0  0
    7.8287    4.5199    0.0000 H   0  0  0  0  0  0  0  0  0  0  0  0
    7.6164    2.5024    0.0000 H   0  0  0  0  0  0  0  0  0  0  0  0
    8.5430    3.0374    0.0000 H   0  0  0  0  0  0  0  0  0  0  0  0
    8.3309    5.0549    0.0000 H   0  0  0  0  0  0  0  0  0  0  0  0
    9.2575    4.5199    0.0000 H   0  0  0  0  0  0  0  0  0  0  0  0
    9.0454    2.5024    0.0000 H   0  0  0  0  0  0  0  0  0  0  0  0
    9.9720    3.0374    0.0000 H   0  0  0  0  0  0  0  0  0  0  0  0
    9.7599    5.0549    0.0000 H   0  0  0  0  0  0  0  0  0  0  0  0
   10.6866    4.5199    0.0000 H   0  0  0  0  0  0  0  0  0  0  0  0
   10.4743    2.5024    0.0000 H   0  0  0  0  0  0  0  0  0  0  0  0
   11.4009    3.0374    0.0000 H   0  0  0  0  0  0  0  0  0  0  0  0
   11.1888    5.0549    0.0000 H   0  0  0  0  0  0  0  0  0  0  0  0
   12.1154    4.5199    0.0000 H   0  0  0  0  0  0  0  0  0  0  0  0
   11.9033    2.5024    0.0000 H   0  0  0  0  0  0  0  0  0  0  0  0
   12.8300    3.0374    0.0000 H   0  0  0  0  0  0  0  0  0  0  0  0
   12.6177    5.0549    0.0000 H   0  0  0  0  0  0  0  0  0  0  0  0
   13.5443    4.5199    0.0000 H   0  0  0  0  0  0  0  0  0  0  0  0
   13.3322    2.5024    0.0000 H   0  0  0  0  0  0  0  0  0  0  0  0
   14.2588    3.0374    0.0000 H   0  0  0  0  0  0  0  0  0  0  0  0
   14.0467    5.0549    0.0000 H   0  0  0  0  0  0  0  0  0  0  0  0
   14.9733    4.5199    0.0000 H   0  0  0  0  0  0  0  0  0  0  0  0
   14.7612    2.5024    0.0000 H   0  0  0  0  0  0  0  0  0  0  0  0
   15.6879    3.0374    0.0000 H   0  0  0  0  0  0  0  0  0  0  0  0
   17.1167    3.8624    0.0000 H   0  0  0  0  0  0  0  0  0  0  0  0
   16.1901    5.4674    0.0000 H   0  0  0  0  0  0  0  0  0  0  0  0
   17.1168    4.9324    0.0000 H   0  0  0  0  0  0  0  0  0  0  0  0
   15.3531    2.3438    0.0000 H   0  0  0  0  0  0  0  0  0  0  0  0
   16.9581    3.2704    0.0000 H   0  0  0  0  0  0  0  0  0  0  0  0
   16.4231    2.3437    0.0000 H   0  0  0  0  0  0  0  0  0  0  0  0
   15.5981    5.6260    0.0000 H   0  0  0  0  0  0  0  0  0  0  0  0
   13.9931    4.6993    0.0000 H   0  0  0  0  0  0  0  0  0  0  0  0
   14.5281    5.6259    0.0000 H   0  0  0  0  0  0  0  0  0  0  0  0
  1  2  1  0  0  0  0
  1 19  1  0  0  0  0
  1 20  1  0  0  0  0
  1 21  1  0  0  0  0
  2  3  1  0  0  0  0
  2 22  1  0  0  0  0
  2 23  1  0  0  0  0
  3  4  1  0  0  0  0
  3 24  1  0  0  0  0
  3 25  1  0  0  0  0
  4  5  1  0  0  0  0
  4 26  1  0  0  0  0
  4 27  1  0  0  0  0
  5  6  1  0  0  0  0
  5 28  1  0  0  0  0
  5 29  1  0  0  0  0
  6  7  1  0  0  0  0
  6 30  1  0  0  0  0
  6 31  1  0  0  0  0
  7  8  1  0  0  0  0
  7 32  1  0  0  0  0
  7 33  1  0  0  0  0
  8  9  1  0  0  0  0
  8 34  1  0  0  0  0
  8 35  1  0  0  0  0
  9 10  1  0  0  0  0
  9 36  1  0  0  0  0
  9 37  1  0  0  0  0
 10 11  1  0  0  0  0
 10 38  1  0  0  0  0
 10 39  1  0  0  0  0
 11 12  1  0  0  0  0
 11 40  1  0  0  0  0
 11 41  1  0  0  0  0
 12 13  1  0  0  0  0
 12 42  1  0  0  0  0
 12 43  1  0  0  0  0
 13 14  1  0  0  0  0
 13 44  1  0  0  0  0
 13 45  1  0  0  0  0
 14 15  1  0  0  0  0
 14 46  1  0  0  0  0
 14 47  1  0  0  0  0
 15 16  1  0  0  0  0
 15 17  1  0  0  0  0
 15 18  1  0  0  0  0
 16 48  1  0  0  0  0
 16 49  1  0  0  0  0
 16 50  1  0  0  0  0
 17 51  1  0  0  0  0
 17 52  1  0  0  0  0
 17 53  1  0  0  0  0
 18 54  1  0  0  0  0
 18 55  1  0  0  0  0
 18 56  1  0  0  0  0
M  CHG  1  15   1
M  END
>  <DRUGBANK_ID>
DB17342

>  <COMMON_NAME>
Trimethyltetradecylammonium

>  <CAS_NUMBER>
10182-92-0

>  <UNII>
Y3IR7RCT6J

>  <SYNONYMS>
1-tetradecanaminium, n,n,n-trimethyl-; Ammonium, trimethyltetradecyl-; Myristyltrimethylammonium; Tetradecyltrimethylammonium; Tetradonium; Tetradonium cation; Tetradonium ion

$$$$
