DUX
 OpenBabel10282417072D

 60 64  0  0  0  0  0  0  0  0999 V2000
    1.7406    1.6153    0.0000 F   0  0  0  0  0  0  0  0  0  0  0  0
    1.7406    0.7903    0.0000 C   0  0  1  0  0  0  0  0  0  0  0  0
    2.4080    0.3054    0.0000 C   0  0  0  0  0  0  0  0  0  0  0  0
    2.1531   -0.4793    0.0000 C   0  0  2  0  0  0  0  0  0  0  0  0
    2.6380   -1.1467    0.0000 N   0  0  0  0  0  0  0  0  0  0  0  0
    3.4585   -1.0605    0.0000 C   0  0  0  0  0  0  0  0  0  0  0  0
    3.9434   -1.7279    0.0000 N   0  0  0  0  0  0  0  0  0  0  0  0
    3.6079   -2.4816    0.0000 C   0  0  0  0  0  0  0  0  0  0  0  0
    2.7874   -2.5678    0.0000 C   0  0  0  0  0  0  0  0  0  0  0  0
    2.3025   -1.9004    0.0000 C   0  0  0  0  0  0  0  0  0  0  0  0
    4.0928   -3.1490    0.0000 O   0  0  0  0  0  0  0  0  0  0  0  0
    3.7941   -0.3068    0.0000 O   0  0  0  0  0  0  0  0  0  0  0  0
    1.3281   -0.4793    0.0000 O   0  0  0  0  0  0  0  0  0  0  0  0
    1.0732    0.3054    0.0000 C   0  0  2  0  0  0  0  0  0  0  0  0
    0.2885    0.5603    0.0000 C   0  0  0  0  0  0  0  0  0  0  0  0
   -0.3245    0.0083    0.0000 O   0  0  0  0  0  0  0  0  0  0  0  0
   -1.1092    0.2632    0.0000 C   0  0  0  0  0  0  0  0  0  0  0  0
   -1.8938    0.5181    0.0000 C   0  0  0  0  0  0  0  0  0  0  0  0
   -2.5069   -0.0339    0.0000 C   0  0  0  0  0  0  0  0  0  0  0  0
   -3.2915    0.2211    0.0000 C   0  0  0  0  0  0  0  0  0  0  0  0
   -3.4630    1.0280    0.0000 C   0  0  0  0  0  0  0  0  0  0  0  0
   -2.8499    1.5801    0.0000 C   0  0  0  0  0  0  0  0  0  0  0  0
   -2.0653    1.3251    0.0000 C   0  0  0  0  0  0  0  0  0  0  0  0
   -0.8542    1.0478    0.0000 C   0  0  0  0  0  0  0  0  0  0  0  0
   -1.4063    1.6609    0.0000 C   0  0  0  0  0  0  0  0  0  0  0  0
   -1.1513    2.4455    0.0000 C   0  0  0  0  0  0  0  0  0  0  0  0
   -0.3444    2.6171    0.0000 C   0  0  0  0  0  0  0  0  0  0  0  0
    0.2077    2.0040    0.0000 C   0  0  0  0  0  0  0  0  0  0  0  0
   -0.0473    1.2194    0.0000 C   0  0  0  0  0  0  0  0  0  0  0  0
   -1.3641   -0.5214    0.0000 C   0  0  0  0  0  0  0  0  0  0  0  0
   -0.8121   -1.1345    0.0000 C   0  0  0  0  0  0  0  0  0  0  0  0
   -1.0670   -1.9191    0.0000 C   0  0  0  0  0  0  0  0  0  0  0  0
   -1.8740   -2.0907    0.0000 C   0  0  0  0  0  0  0  0  0  0  0  0
   -2.4260   -1.4776    0.0000 C   0  0  0  0  0  0  0  0  0  0  0  0
   -2.1711   -0.6929    0.0000 C   0  0  0  0  0  0  0  0  0  0  0  0
    2.2609    1.0554    0.0000 H   0  0  0  0  0  0  0  0  0  0  0  0
    2.7298   -0.3879    0.0000 H   0  0  0  0  0  0  0  0  0  0  0  0
    0.9818    0.8821    0.0000 H   0  0  0  0  0  0  0  0  0  0  0  0
    3.4256    0.6361    0.0000 H   0  0  0  0  0  0  0  0  0  0  0  0
    3.1646   -0.4512    0.0000 H   0  0  0  0  0  0  0  0  0  0  0  0
    4.9225   -1.6250    0.0000 H   0  0  0  0  0  0  0  0  0  0  0  0
    2.3676   -3.5106    0.0000 H   0  0  0  0  0  0  0  0  0  0  0  0
    1.2762   -2.0083    0.0000 H   0  0  0  0  0  0  0  0  0  0  0  0
    0.0660    1.6069    0.0000 H   0  0  0  0  0  0  0  0  0  0  0  0
   -0.7291    0.8909    0.0000 H   0  0  0  0  0  0  0  0  0  0  0  0
   -2.2924   -1.0434    0.0000 H   0  0  0  0  0  0  0  0  0  0  0  0
   -4.0585   -0.4694    0.0000 H   0  0  0  0  0  0  0  0  0  0  0  0
   -4.4445    1.3469    0.0000 H   0  0  0  0  0  0  0  0  0  0  0  0
   -3.0645    2.5896    0.0000 H   0  0  0  0  0  0  0  0  0  0  0  0
   -1.2983    2.0156    0.0000 H   0  0  0  0  0  0  0  0  0  0  0  0
   -2.4158    1.4463    0.0000 H   0  0  0  0  0  0  0  0  0  0  0  0
   -1.8419    3.2124    0.0000 H   0  0  0  0  0  0  0  0  0  0  0  0
   -0.0256    3.5986    0.0000 H   0  0  0  0  0  0  0  0  0  0  0  0
    1.2172    2.2186    0.0000 H   0  0  0  0  0  0  0  0  0  0  0  0
    0.6433    0.4525    0.0000 H   0  0  0  0  0  0  0  0  0  0  0  0
    0.1973   -0.9199    0.0000 H   0  0  0  0  0  0  0  0  0  0  0  0
   -0.3764   -2.6860    0.0000 H   0  0  0  0  0  0  0  0  0  0  0  0
   -2.1929   -3.0722    0.0000 H   0  0  0  0  0  0  0  0  0  0  0  0
   -3.4354   -1.6922    0.0000 H   0  0  0  0  0  0  0  0  0  0  0  0
   -2.8617    0.0740    0.0000 H   0  0  0  0  0  0  0  0  0  0  0  0
  2  1  1  0  0  0  0
  2  3  1  0  0  0  0
  2 14  1  0  0  0  0
  2 36  1  6  0  0  0
  3  4  1  0  0  0  0
  3 39  1  0  0  0  0
  3 40  1  0  0  0  0
  4  5  1  0  0  0  0
  4 13  1  0  0  0  0
  4 37  1  1  0  0  0
  5  6  1  0  0  0  0
  5 10  1  0  0  0  0
  6  7  1  0  0  0  0
  6 12  2  0  0  0  0
  7  8  1  0  0  0  0
  7 41  1  0  0  0  0
  8  9  1  0  0  0  0
  8 11  2  0  0  0  0
  9 10  2  0  0  0  0
  9 42  1  0  0  0  0
 10 43  1  0  0  0  0
 13 14  1  0  0  0  0
 14 15  1  0  0  0  0
 14 38  1  1  0  0  0
 15 16  1  0  0  0  0
 15 44  1  0  0  0  0
 15 45  1  0  0  0  0
 16 17  1  0  0  0  0
 17 18  1  0  0  0  0
 17 24  1  0  0  0  0
 17 30  1  0  0  0  0
 18 19  2  0  0  0  0
 18 23  1  0  0  0  0
 19 20  1  0  0  0  0
 19 46  1  0  0  0  0
 20 21  2  0  0  0  0
 20 47  1  0  0  0  0
 21 22  1  0  0  0  0
 21 48  1  0  0  0  0
 22 23  2  0  0  0  0
 22 49  1  0  0  0  0
 23 50  1  0  0  0  0
 24 25  2  0  0  0  0
 24 29  1  0  0  0  0
 25 26  1  0  0  0  0
 25 51  1  0  0  0  0
 26 27  2  0  0  0  0
 26 52  1  0  0  0  0
 27 28  1  0  0  0  0
 27 53  1  0  0  0  0
 28 29  2  0  0  0  0
 28 54  1  0  0  0  0
 29 55  1  0  0  0  0
 30 31  2  0  0  0  0
 30 35  1  0  0  0  0
 31 32  1  0  0  0  0
 31 56  1  0  0  0  0
 32 33  2  0  0  0  0
 32 57  1  0  0  0  0
 33 34  1  0  0  0  0
 33 58  1  0  0  0  0
 34 35  2  0  0  0  0
 34 59  1  0  0  0  0
 35 60  1  0  0  0  0
M  END
>  <DRUGBANK_ID>
DB04685

>  <COMMON_NAME>
1-{(2S,5S)-4-FLUORO-5-[(TRITYLOXY)METHYL]TETRAHYDROFURAN-2-YL}PYRIMIDINE-2,4(1H,3H)-DIONE

$$$$
