
 OpenBabel10282417072D

 69 73  0  0  0  0  0  0  0  0999 V2000
    0.0000    0.8250    0.0000 C   0  0  0  0  0  0  0  0  0  0  0  0
    0.0000    0.0000    0.0000 C   0  0  0  0  0  0  0  0  0  0  0  0
    0.7145   -0.4125    0.0000 C   0  0  0  0  0  0  0  0  0  0  0  0
    0.7145   -1.2375    0.0000 N   0  0  0  0  0  0  0  0  0  0  0  0
    1.3819   -1.7224    0.0000 C   0  0  0  0  0  0  0  0  0  0  0  0
    1.1270   -2.5070    0.0000 N   0  0  0  0  0  0  0  0  0  0  0  0
    0.3020   -2.5070    0.0000 C   0  0  0  0  0  0  0  0  0  0  0  0
   -0.1830   -3.1745    0.0000 C   0  0  0  0  0  0  0  0  0  0  0  0
    0.1526   -3.9282    0.0000 C   0  0  0  0  0  0  0  0  0  0  0  0
   -0.3323   -4.5956    0.0000 C   0  0  0  0  0  0  0  0  0  0  0  0
   -1.1528   -4.5094    0.0000 C   0  0  0  0  0  0  0  0  0  0  0  0
   -1.6377   -5.1768    0.0000 Cl  0  0  0  0  0  0  0  0  0  0  0  0
   -1.4884   -3.7557    0.0000 C   0  0  0  0  0  0  0  0  0  0  0  0
   -2.3088   -3.6695    0.0000 Cl  0  0  0  0  0  0  0  0  0  0  0  0
   -1.0034   -3.0882    0.0000 C   0  0  0  0  0  0  0  0  0  0  0  0
    0.0470   -1.7224    0.0000 C   0  0  0  0  0  0  0  0  0  0  0  0
   -0.7376   -1.4675    0.0000 C   0  0  0  0  0  0  0  0  0  0  0  0
   -1.3507   -2.0195    0.0000 C   0  0  0  0  0  0  0  0  0  0  0  0
   -2.1353   -1.7646    0.0000 C   0  0  0  0  0  0  0  0  0  0  0  0
   -2.3068   -0.9576    0.0000 N   0  0  0  0  0  0  0  0  0  0  0  0
   -1.6937   -0.4056    0.0000 C   0  0  0  0  0  0  0  0  0  0  0  0
   -1.8653    0.4014    0.0000 N   0  0  0  0  0  0  0  0  0  0  0  0
   -1.2522    0.9534    0.0000 C   0  0  0  0  0  0  0  0  0  0  0  0
   -1.4237    1.7604    0.0000 C   0  0  0  0  0  0  0  0  0  0  0  0
   -0.8106    2.3124    0.0000 C   0  0  0  0  0  0  0  0  0  0  0  0
   -0.0260    2.0575    0.0000 C   0  0  0  0  0  0  0  0  0  0  0  0
    0.1455    1.2505    0.0000 C   0  0  0  0  0  0  0  0  0  0  0  0
   -0.4675    0.6985    0.0000 C   0  0  0  0  0  0  0  0  0  0  0  0
   -0.9091   -0.6605    0.0000 N   0  0  0  0  0  0  0  0  0  0  0  0
    2.1665   -1.4675    0.0000 C   0  0  0  0  0  0  0  0  0  0  0  0
    2.3381   -0.6605    0.0000 C   0  0  0  0  0  0  0  0  0  0  0  0
    3.1227   -0.4056    0.0000 C   0  0  0  0  0  0  0  0  0  0  0  0
    3.7358   -0.9576    0.0000 N   0  0  0  0  0  0  0  0  0  0  0  0
    3.5642   -1.7646    0.0000 C   0  0  0  0  0  0  0  0  0  0  0  0
    2.7796   -2.0195    0.0000 C   0  0  0  0  0  0  0  0  0  0  0  0
    0.9266    1.3600    0.0000 H   0  0  0  0  0  0  0  0  0  0  0  0
   -0.9266    1.3600    0.0000 H   0  0  0  0  0  0  0  0  0  0  0  0
   -0.0000    1.8950    0.0000 H   0  0  0  0  0  0  0  0  0  0  0  0
   -0.9266   -0.5350    0.0000 H   0  0  0  0  0  0  0  0  0  0  0  0
    0.0000   -1.0700    0.0000 H   0  0  0  0  0  0  0  0  0  0  0  0
    1.6411    0.1225    0.0000 H   0  0  0  0  0  0  0  0  0  0  0  0
    1.6411   -0.9475    0.0000 H   0  0  0  0  0  0  0  0  0  0  0  0
    1.1789   -4.0361    0.0000 H   0  0  0  0  0  0  0  0  0  0  0  0
    0.0875   -5.5384    0.0000 H   0  0  0  0  0  0  0  0  0  0  0  0
   -1.4231   -2.1454    0.0000 H   0  0  0  0  0  0  0  0  0  0  0  0
   -1.1361   -3.0289    0.0000 H   0  0  0  0  0  0  0  0  0  0  0  0
   -2.9022   -2.4551    0.0000 H   0  0  0  0  0  0  0  0  0  0  0  0
   -2.8016    0.7056    0.0000 H   0  0  0  0  0  0  0  0  0  0  0  0
   -0.4570    1.6694    0.0000 H   0  0  0  0  0  0  0  0  0  0  0  0
   -2.4413    2.0911    0.0000 H   0  0  0  0  0  0  0  0  0  0  0  0
   -1.6461    2.8070    0.0000 H   0  0  0  0  0  0  0  0  0  0  0  0
   -1.0331    3.3590    0.0000 H   0  0  0  0  0  0  0  0  0  0  0  0
   -0.0154    3.0284    0.0000 H   0  0  0  0  0  0  0  0  0  0  0  0
    0.7692    2.7735    0.0000 H   0  0  0  0  0  0  0  0  0  0  0  0
    0.9916    1.7268    0.0000 H   0  0  0  0  0  0  0  0  0  0  0  0
    1.1631    0.9199    0.0000 H   0  0  0  0  0  0  0  0  0  0  0  0
    0.3680    0.2039    0.0000 H   0  0  0  0  0  0  0  0  0  0  0  0
   -0.2450   -0.3481    0.0000 H   0  0  0  0  0  0  0  0  0  0  0  0
   -1.2626   -0.0175    0.0000 H   0  0  0  0  0  0  0  0  0  0  0  0
    3.1841   -1.1369    0.0000 H   0  0  0  0  0  0  0  0  0  0  0  0
    1.5430    0.0555    0.0000 H   0  0  0  0  0  0  0  0  0  0  0  0
    2.5606    0.3861    0.0000 H   0  0  0  0  0  0  0  0  0  0  0  0
    3.3452    0.6410    0.0000 H   0  0  0  0  0  0  0  0  0  0  0  0
    4.1403   -0.0749    0.0000 H   0  0  0  0  0  0  0  0  0  0  0  0
    4.7059   -0.6424    0.0000 H   0  0  0  0  0  0  0  0  0  0  0  0
    4.3593   -2.4806    0.0000 H   0  0  0  0  0  0  0  0  0  0  0  0
    3.3417   -2.8112    0.0000 H   0  0  0  0  0  0  0  0  0  0  0  0
    2.5571   -3.0661    0.0000 H   0  0  0  0  0  0  0  0  0  0  0  0
    1.7620   -2.3502    0.0000 H   0  0  0  0  0  0  0  0  0  0  0  0
  1  2  1  0  0  0  0
  1 36  1  0  0  0  0
  1 37  1  0  0  0  0
  1 38  1  0  0  0  0
  2  3  1  0  0  0  0
  2 39  1  0  0  0  0
  2 40  1  0  0  0  0
  3  4  1  0  0  0  0
  3 41  1  0  0  0  0
  3 42  1  0  0  0  0
  4  5  1  0  0  0  0
  4 16  1  0  0  0  0
  5  6  2  0  0  0  0
  5 30  1  0  0  0  0
  6  7  1  0  0  0  0
  7  8  1  0  0  0  0
  7 16  2  0  0  0  0
  8  9  2  0  0  0  0
  8 15  1  0  0  0  0
  9 10  1  0  0  0  0
  9 43  1  0  0  0  0
 10 11  2  0  0  0  0
 10 44  1  0  0  0  0
 11 12  1  0  0  0  0
 11 13  1  0  0  0  0
 13 14  1  0  0  0  0
 13 15  2  0  0  0  0
 15 45  1  0  0  0  0
 16 17  1  0  0  0  0
 17 18  2  0  0  0  0
 17 29  1  0  0  0  0
 18 19  1  0  0  0  0
 18 46  1  0  0  0  0
 19 20  2  0  0  0  0
 19 47  1  0  0  0  0
 20 21  1  0  0  0  0
 21 22  1  0  0  0  0
 21 29  2  0  0  0  0
 22 23  1  0  0  0  0
 22 48  1  0  0  0  0
 23 24  1  0  0  0  0
 23 28  1  0  0  0  0
 23 49  1  0  0  0  0
 24 25  1  0  0  0  0
 24 50  1  0  0  0  0
 24 51  1  0  0  0  0
 25 26  1  0  0  0  0
 25 52  1  0  0  0  0
 25 53  1  0  0  0  0
 26 27  1  0  0  0  0
 26 54  1  0  0  0  0
 26 55  1  0  0  0  0
 27 28  1  0  0  0  0
 27 56  1  0  0  0  0
 27 57  1  0  0  0  0
 28 58  1  0  0  0  0
 28 59  1  0  0  0  0
 30 31  1  0  0  0  0
 30 35  1  0  0  0  0
 30 60  1  0  0  0  0
 31 32  1  0  0  0  0
 31 61  1  0  0  0  0
 31 62  1  0  0  0  0
 32 33  1  0  0  0  0
 32 63  1  0  0  0  0
 32 64  1  0  0  0  0
 33 34  1  0  0  0  0
 33 65  1  0  0  0  0
 34 35  1  0  0  0  0
 34 66  1  0  0  0  0
 34 67  1  0  0  0  0
 35 68  1  0  0  0  0
 35 69  1  0  0  0  0
M  END
>  <DRUGBANK_ID>
DB02388

>  <SECONDARY_ACCESSION_NUMBERS>
EXPT00330

>  <COMMON_NAME>
Cyclohexyl-{4-[5-(3,4-Dichlorophenyl)-2-Piperidin-4-Yl-3-Propyl-3h-Imidazol-4-Yl]-Pyrimidin-2-Yl}Amine

$$$$
