
 OpenBabel10282417072D

 64 67  0  0  1  0  0  0  0  0999 V2000
    8.5737   -1.6500    0.0000 C   0  0  0  0  0  0  0  0  0  0  0  0
    8.5737   -2.4750    0.0000 C   0  0  1  0  0  0  0  0  0  0  0  0
    9.2881   -2.8875    0.0000 C   0  0  0  0  0  0  0  0  0  0  0  0
    9.2881   -3.7125    0.0000 N   0  0  0  0  0  0  0  0  0  0  0  0
    8.5737   -4.1250    0.0000 C   0  0  0  0  0  0  0  0  0  0  0  0
    7.8592   -3.7125    0.0000 C   0  0  0  0  0  0  0  0  0  0  0  0
    7.8592   -2.8875    0.0000 N   0  0  0  0  0  0  0  0  0  0  0  0
   10.0026   -4.1250    0.0000 C   0  0  0  0  0  0  0  0  0  0  0  0
   10.0026   -4.9500    0.0000 C   0  0  0  0  0  0  0  0  0  0  0  0
   10.7171   -5.3625    0.0000 C   0  0  0  0  0  0  0  0  0  0  0  0
   10.7171   -6.1875    0.0000 C   0  0  0  0  0  0  0  0  0  0  0  0
   10.0026   -6.6000    0.0000 C   0  0  0  0  0  0  0  0  0  0  0  0
    9.2881   -6.1875    0.0000 C   0  0  0  0  0  0  0  0  0  0  0  0
    9.2881   -5.3625    0.0000 C   0  0  0  0  0  0  0  0  0  0  0  0
   10.0026   -7.4250    0.0000 C   0  0  0  0  0  0  0  0  0  0  0  0
   10.7171   -7.8375    0.0000 C   0  0  0  0  0  0  0  0  0  0  0  0
   11.4315   -7.4250    0.0000 O   0  0  0  0  0  0  0  0  0  0  0  0
   10.7171   -8.6625    0.0000 N   0  0  0  0  0  0  0  0  0  0  0  0
   11.4315   -9.0750    0.0000 C   0  0  0  0  0  0  0  0  0  0  0  0
   11.4315   -9.9000    0.0000 C   0  0  0  0  0  0  0  0  0  0  0  0
   10.7171  -10.3125    0.0000 C   0  0  3  0  0  0  0  0  0  0  0  0
   10.0026   -9.9000    0.0000 C   0  0  0  0  0  0  0  0  0  0  0  0
   10.0026   -9.0750    0.0000 C   0  0  0  0  0  0  0  0  0  0  0  0
   10.7171  -11.1375    0.0000 N   0  0  0  0  0  0  0  0  0  0  0  0
   10.0026  -11.5500    0.0000 C   0  0  0  0  0  0  0  0  0  0  0  0
   10.0026  -12.3750    0.0000 C   0  0  0  0  0  0  0  0  0  0  0  0
    9.2881  -12.7875    0.0000 C   0  0  0  0  0  0  0  0  0  0  0  0
    8.5737  -12.3750    0.0000 C   0  0  0  0  0  0  0  0  0  0  0  0
    8.5737  -11.5500    0.0000 C   0  0  0  0  0  0  0  0  0  0  0  0
    9.2881  -11.1375    0.0000 C   0  0  0  0  0  0  0  0  0  0  0  0
    7.8592  -11.1375    0.0000 F   0  0  0  0  0  0  0  0  0  0  0  0
    9.5003   -1.1150    0.0000 H   0  0  0  0  0  0  0  0  0  0  0  0
    7.6471   -1.1150    0.0000 H   0  0  0  0  0  0  0  0  0  0  0  0
    8.5737   -0.5800    0.0000 H   0  0  0  0  0  0  0  0  0  0  0  0
    9.5004   -1.9400    0.0000 H   0  0  0  0  0  0  0  0  0  0  0  0
   10.2148   -2.3525    0.0000 H   0  0  0  0  0  0  0  0  0  0  0  0
   10.2147   -3.4225    0.0000 H   0  0  0  0  0  0  0  0  0  0  0  0
    8.5737   -5.1950    0.0000 H   0  0  0  0  0  0  0  0  0  0  0  0
    7.6471   -4.6600    0.0000 H   0  0  0  0  0  0  0  0  0  0  0  0
    6.9326   -4.2475    0.0000 H   0  0  0  0  0  0  0  0  0  0  0  0
    6.9326   -3.1775    0.0000 H   0  0  0  0  0  0  0  0  0  0  0  0
    6.9759   -2.3775    0.0000 H   0  0  0  0  0  0  0  0  0  0  0  0
   10.9292   -3.5900    0.0000 H   0  0  0  0  0  0  0  0  0  0  0  0
   10.9292   -4.6600    0.0000 H   0  0  0  0  0  0  0  0  0  0  0  0
   11.6108   -4.8465    0.0000 H   0  0  0  0  0  0  0  0  0  0  0  0
   11.6108   -6.7035    0.0000 H   0  0  0  0  0  0  0  0  0  0  0  0
    8.3944   -6.7035    0.0000 H   0  0  0  0  0  0  0  0  0  0  0  0
    8.3944   -4.8465    0.0000 H   0  0  0  0  0  0  0  0  0  0  0  0
    9.0760   -7.9600    0.0000 H   0  0  0  0  0  0  0  0  0  0  0  0
   10.0026   -8.4950    0.0000 H   0  0  0  0  0  0  0  0  0  0  0  0
   12.3582   -8.5400    0.0000 H   0  0  0  0  0  0  0  0  0  0  0  0
   12.3581   -9.6100    0.0000 H   0  0  0  0  0  0  0  0  0  0  0  0
   12.3582  -10.4350    0.0000 H   0  0  0  0  0  0  0  0  0  0  0  0
   11.4315  -10.9700    0.0000 H   0  0  0  0  0  0  0  0  0  0  0  0
   10.7171   -9.2425    0.0000 H   0  0  0  0  0  0  0  0  0  0  0  0
    9.0760  -10.4350    0.0000 H   0  0  0  0  0  0  0  0  0  0  0  0
    9.0760   -9.3650    0.0000 H   0  0  0  0  0  0  0  0  0  0  0  0
    9.0760   -8.5400    0.0000 H   0  0  0  0  0  0  0  0  0  0  0  0
   10.0026   -8.0050    0.0000 H   0  0  0  0  0  0  0  0  0  0  0  0
   11.5697  -11.6298    0.0000 H   0  0  0  0  0  0  0  0  0  0  0  0
   10.8963  -12.8910    0.0000 H   0  0  0  0  0  0  0  0  0  0  0  0
    9.2881  -13.8195    0.0000 H   0  0  0  0  0  0  0  0  0  0  0  0
    7.6800  -12.8910    0.0000 H   0  0  0  0  0  0  0  0  0  0  0  0
    9.2881  -10.1055    0.0000 H   0  0  0  0  0  0  0  0  0  0  0  0
  1 32  1  0  0  0  0
  1 33  1  0  0  0  0
  1 34  1  0  0  0  0
  2  1  1  0  0  0  0
  2  3  1  0  0  0  0
  2  7  1  0  0  0  0
  2 35  1  6  0  0  0
  3  4  1  0  0  0  0
  3 36  1  0  0  0  0
  3 37  1  0  0  0  0
  4  5  1  0  0  0  0
  4  8  1  0  0  0  0
  5  6  1  0  0  0  0
  5 38  1  0  0  0  0
  5 39  1  0  0  0  0
  6  7  1  0  0  0  0
  6 40  1  0  0  0  0
  6 41  1  0  0  0  0
  7 42  1  0  0  0  0
  8  9  1  0  0  0  0
  8 43  1  0  0  0  0
  8 44  1  0  0  0  0
  9 10  2  0  0  0  0
  9 14  1  0  0  0  0
 10 11  1  0  0  0  0
 10 45  1  0  0  0  0
 11 12  2  0  0  0  0
 11 46  1  0  0  0  0
 12 13  1  0  0  0  0
 12 15  1  0  0  0  0
 13 14  2  0  0  0  0
 13 47  1  0  0  0  0
 14 48  1  0  0  0  0
 15 16  1  0  0  0  0
 15 49  1  0  0  0  0
 15 50  1  0  0  0  0
 16 17  2  0  0  0  0
 16 18  1  0  0  0  0
 18 19  1  0  0  0  0
 18 23  1  0  0  0  0
 19 20  1  0  0  0  0
 19 51  1  0  0  0  0
 19 52  1  0  0  0  0
 20 21  1  0  0  0  0
 20 53  1  0  0  0  0
 20 54  1  0  0  0  0
 21 22  1  0  0  0  0
 21 24  1  0  0  0  0
 21 55  1  0  0  0  0
 22 23  1  0  0  0  0
 22 56  1  0  0  0  0
 22 57  1  0  0  0  0
 23 58  1  0  0  0  0
 23 59  1  0  0  0  0
 24 25  1  0  0  0  0
 24 60  1  0  0  0  0
 25 26  2  0  0  0  0
 25 30  1  0  0  0  0
 26 27  1  0  0  0  0
 26 61  1  0  0  0  0
 27 28  2  0  0  0  0
 27 62  1  0  0  0  0
 28 29  1  0  0  0  0
 28 63  1  0  0  0  0
 29 30  2  0  0  0  0
 29 31  1  0  0  0  0
 30 64  1  0  0  0  0
M  END
>  <DRUGBANK_ID>
DB12567

>  <COMMON_NAME>
Camicinal

>  <CAS_NUMBER>
923565-21-3

>  <UNII>
3C8348951H

>  <SYNONYMS>
Camicinal

$$$$
