232
 OpenBabel10282417072D

 31 32  0  0  1  0  0  0  0  0999 V2000
    1.6498    1.7106    0.0000 Cl  0  0  0  0  0  0  0  0  0  0  0  0
    5.9905    0.9057    0.0000 Cl  0  0  0  0  0  0  0  0  0  0  0  0
    3.0786   -0.7641    0.0000 S   0  0  0  0  0  0  0  0  0  0  0  0
    5.9905   -0.7840    0.0000 S   0  0  0  0  0  0  0  0  0  0  0  0
    3.4910   -1.4784    0.0000 O   0  0  0  0  0  0  0  0  0  0  0  0
    2.6661   -1.4784    0.0000 O   0  0  0  0  0  0  0  0  0  0  0  0
    6.4056   -0.0712    0.0000 O   0  0  0  0  0  0  0  0  0  0  0  0
    5.5752   -1.4968    0.0000 O   0  0  0  0  0  0  0  0  0  0  0  0
    2.3641   -0.3517    0.0000 N   0  0  0  0  0  0  0  0  0  0  0  0
    3.0786    0.8857    0.0000 N   0  0  0  0  0  0  0  0  0  0  0  0
    6.7033   -1.1991    0.0000 N   0  0  0  0  0  0  0  0  0  0  0  0
    2.3641    0.4732    0.0000 C   0  0  3  0  0  0  0  0  0  0  0  0
    3.7929   -0.3517    0.0000 C   0  0  0  0  0  0  0  0  0  0  0  0
    3.7929    0.4732    0.0000 C   0  0  0  0  0  0  0  0  0  0  0  0
    1.6498    0.8857    0.0000 C   0  0  0  0  0  0  0  0  0  0  0  0
    4.5303   -0.7926    0.0000 C   0  0  0  0  0  0  0  0  0  0  0  0
    1.6498   -0.7641    0.0000 C   0  0  0  0  0  0  0  0  0  0  0  0
    4.5303    0.9143    0.0000 C   0  0  0  0  0  0  0  0  0  0  0  0
    5.2777   -0.3689    0.0000 C   0  0  0  0  0  0  0  0  0  0  0  0
    5.2777    0.4904    0.0000 C   0  0  0  0  0  0  0  0  0  0  0  0
    3.0787    1.8702    0.0000 H   0  0  0  0  0  0  0  0  0  0  0  0
    6.6995   -2.2191    0.0000 H   0  0  0  0  0  0  0  0  0  0  0  0
    7.5885   -0.6924    0.0000 H   0  0  0  0  0  0  0  0  0  0  0  0
    3.2907   -0.0618    0.0000 H   0  0  0  0  0  0  0  0  0  0  0  0
    0.7231    0.3507    0.0000 H   0  0  0  0  0  0  0  0  0  0  0  0
    1.6497   -0.1843    0.0000 H   0  0  0  0  0  0  0  0  0  0  0  0
    4.5184   -1.8245    0.0000 H   0  0  0  0  0  0  0  0  0  0  0  0
    0.7232   -0.2291    0.0000 H   0  0  0  0  0  0  0  0  0  0  0  0
    1.6498   -1.8341    0.0000 H   0  0  0  0  0  0  0  0  0  0  0  0
    0.7232   -1.2991    0.0000 H   0  0  0  0  0  0  0  0  0  0  0  0
    4.5184    1.9462    0.0000 H   0  0  0  0  0  0  0  0  0  0  0  0
  1 15  1  0  0  0  0
  2 20  1  0  0  0  0
  3  5  2  0  0  0  0
  3  6  2  0  0  0  0
  3  9  1  0  0  0  0
  3 13  1  0  0  0  0
  4  7  2  0  0  0  0
  4  8  2  0  0  0  0
  4 11  1  0  0  0  0
  4 19  1  0  0  0  0
  9 12  1  0  0  0  0
  9 17  1  0  0  0  0
 10 12  1  0  0  0  0
 10 14  1  0  0  0  0
 10 21  1  0  0  0  0
 11 22  1  0  0  0  0
 11 23  1  0  0  0  0
 12 15  1  0  0  0  0
 12 24  1  0  0  0  0
 13 14  1  0  0  0  0
 13 16  2  0  0  0  0
 14 18  2  0  0  0  0
 15 25  1  0  0  0  0
 15 26  1  0  0  0  0
 16 19  1  0  0  0  0
 16 27  1  0  0  0  0
 17 28  1  0  0  0  0
 17 29  1  0  0  0  0
 17 30  1  0  0  0  0
 18 20  1  0  0  0  0
 18 31  1  0  0  0  0
 19 20  2  0  0  0  0
M  END
>  <DRUGBANK_ID>
DB00232

>  <SECONDARY_ACCESSION_NUMBERS>
APRD01104

>  <COMMON_NAME>
Methyclothiazide

>  <CAS_NUMBER>
135-07-9

>  <UNII>
L3H46UAC61

>  <SYNONYMS>
Methyclothiazide

$$$$
