
 OpenBabel10282417072D

 44 47  0  0  1  0  0  0  0  0999 V2000
    6.6779    3.2067    0.0000 C   0  0  0  0  0  0  0  0  0  0  0  0
    6.1929    2.5392    0.0000 C   0  0  0  0  0  0  0  0  0  0  0  0
    5.3725    2.6255    0.0000 C   0  0  0  0  0  0  0  0  0  0  0  0
    4.8204    2.0124    0.0000 N   0  0  0  0  0  0  0  0  0  0  0  0
    4.0668    2.3479    0.0000 C   0  0  0  0  0  0  0  0  0  0  0  0
    4.1530    3.1684    0.0000 N   0  0  0  0  0  0  0  0  0  0  0  0
    4.9600    3.3400    0.0000 O   0  0  0  0  0  0  0  0  0  0  0  0
    3.3523    1.9354    0.0000 C   0  0  0  0  0  0  0  0  0  0  0  0
    3.3523    1.1104    0.0000 C   0  0  0  0  0  0  0  0  0  0  0  0
    2.6378    0.6979    0.0000 C   0  0  0  0  0  0  0  0  0  0  0  0
    1.9233    1.1104    0.0000 C   0  0  0  0  0  0  0  0  0  0  0  0
    1.1387    0.8555    0.0000 C   0  0  1  0  0  0  0  0  0  0  0  0
    0.6538    1.5229    0.0000 C   0  0  0  0  0  0  0  0  0  0  0  0
    1.1387    2.1904    0.0000 C   0  0  0  0  0  0  0  0  0  0  0  0
    1.9233    1.9354    0.0000 C   0  0  0  0  0  0  0  0  0  0  0  0
    2.6378    2.3479    0.0000 C   0  0  0  0  0  0  0  0  0  0  0  0
    0.8838    0.0709    0.0000 N   0  0  0  0  0  0  0  0  0  0  0  0
    0.0768   -0.1006    0.0000 C   0  0  0  0  0  0  0  0  0  0  0  0
   -0.4752    0.5124    0.0000 O   0  0  0  0  0  0  0  0  0  0  0  0
   -0.1781   -0.8853    0.0000 C   0  0  0  0  0  0  0  0  0  0  0  0
    0.3068   -1.5527    0.0000 C   0  0  0  0  0  0  0  0  0  0  0  0
   -0.1781   -2.2201    0.0000 N   0  0  0  0  0  0  0  0  0  0  0  0
   -0.9628   -1.9652    0.0000 N   0  0  0  0  0  0  0  0  0  0  0  0
   -1.6302   -2.4501    0.0000 C   0  0  0  0  0  0  0  0  0  0  0  0
   -0.9628   -1.1402    0.0000 C   0  0  0  0  0  0  0  0  0  0  0  0
    7.7420    3.0948    0.0000 H   0  0  0  0  0  0  0  0  0  0  0  0
    6.2427    4.1842    0.0000 H   0  0  0  0  0  0  0  0  0  0  0  0
    7.3069    4.0723    0.0000 H   0  0  0  0  0  0  0  0  0  0  0  0
    6.6280    1.5617    0.0000 H   0  0  0  0  0  0  0  0  0  0  0  0
    5.5639    1.6736    0.0000 H   0  0  0  0  0  0  0  0  0  0  0  0
    4.2460    0.5944    0.0000 H   0  0  0  0  0  0  0  0  0  0  0  0
    2.6378   -0.3341    0.0000 H   0  0  0  0  0  0  0  0  0  0  0  0
    1.8953    0.0989    0.0000 H   0  0  0  0  0  0  0  0  0  0  0  0
   -0.4162    1.5229    0.0000 H   0  0  0  0  0  0  0  0  0  0  0  0
    0.1680    2.4763    0.0000 H   0  0  0  0  0  0  0  0  0  0  0  0
    0.8081    3.2080    0.0000 H   0  0  0  0  0  0  0  0  0  0  0  0
    1.8953    2.9470    0.0000 H   0  0  0  0  0  0  0  0  0  0  0  0
    2.6378    3.3799    0.0000 H   0  0  0  0  0  0  0  0  0  0  0  0
    1.5426   -0.6607    0.0000 H   0  0  0  0  0  0  0  0  0  0  0  0
    1.3388   -1.5527    0.0000 H   0  0  0  0  0  0  0  0  0  0  0  0
   -2.6077   -2.0149    0.0000 H   0  0  0  0  0  0  0  0  0  0  0  0
   -1.5183   -3.5142    0.0000 H   0  0  0  0  0  0  0  0  0  0  0  0
   -2.4958   -3.0790    0.0000 H   0  0  0  0  0  0  0  0  0  0  0  0
   -1.7977   -0.5336    0.0000 H   0  0  0  0  0  0  0  0  0  0  0  0
  1  2  1  0  0  0  0
  1 26  1  0  0  0  0
  1 27  1  0  0  0  0
  1 28  1  0  0  0  0
  2  3  1  0  0  0  0
  2 29  1  0  0  0  0
  2 30  1  0  0  0  0
  3  4  2  0  0  0  0
  3  7  1  0  0  0  0
  4  5  1  0  0  0  0
  5  6  2  0  0  0  0
  5  8  1  0  0  0  0
  6  7  1  0  0  0  0
  8  9  2  0  0  0  0
  8 16  1  0  0  0  0
  9 10  1  0  0  0  0
  9 31  1  0  0  0  0
 10 11  2  0  0  0  0
 10 32  1  0  0  0  0
 11 15  1  0  0  0  0
 12 11  1  0  0  0  0
 12 13  1  0  0  0  0
 12 17  1  0  0  0  0
 12 33  1  1  0  0  0
 13 14  1  0  0  0  0
 13 34  1  0  0  0  0
 13 35  1  0  0  0  0
 14 15  1  0  0  0  0
 14 36  1  0  0  0  0
 14 37  1  0  0  0  0
 15 16  2  0  0  0  0
 16 38  1  0  0  0  0
 17 18  1  0  0  0  0
 17 39  1  0  0  0  0
 18 19  2  0  0  0  0
 18 20  1  0  0  0  0
 20 21  1  0  0  0  0
 20 25  2  0  0  0  0
 21 22  2  0  0  0  0
 21 40  1  0  0  0  0
 22 23  1  0  0  0  0
 23 24  1  0  0  0  0
 23 25  1  0  0  0  0
 24 41  1  0  0  0  0
 24 42  1  0  0  0  0
 24 43  1  0  0  0  0
 25 44  1  0  0  0  0
M  END
>  <DRUGBANK_ID>
DB18490

>  <COMMON_NAME>
Aficamten

>  <CAS_NUMBER>
2364554-48-1

>  <UNII>
B1I77MH6K1

>  <SYNONYMS>
1h-pyrazole-4-carboxamide, n-((1r)-5-(5-ethyl-1,2,4-oxadiazol-3-yl)-2,3-dihydro-1h-inden-1-yl)-1-methyl-; N-((1r)-5-(5-ethyl-1,2,4-oxadiazol-3-yl)-2,3-dihydro-1h-inden-1-yl)- 1-methyl-1h-pyrazole-4-carboxamide

$$$$
