
 OpenBabel10282417072D

 82 84  0  0  0  0  0  0  0  0999 V2000
   -0.2025    0.3997    0.0000 C   0  0  1  0  0  0  0  0  0  0  0  0
   -0.6193   -0.3128    0.0000 C   0  0  1  0  0  0  0  0  0  0  0  0
   -0.2127   -1.0259    0.0000 C   0  0  2  0  0  0  0  0  0  0  0  0
    0.6119   -1.0328    0.0000 C   0  0  1  0  0  0  0  0  0  0  0  0
    1.0286   -0.3203    0.0000 C   0  0  2  0  0  0  0  0  0  0  0  0
    0.6205    0.3991    0.0000 C   0  0  0  0  0  0  0  0  0  0  0  0
   -0.6128    1.1155    0.0000 N   0  0  0  0  0  0  0  0  0  0  0  0
   -1.4443   -0.3082    0.0000 O   0  0  0  0  0  0  0  0  0  0  0  0
   -0.6303   -1.7375    0.0000 O   0  0  0  0  0  0  0  0  0  0  0  0
    1.0195   -1.7501    0.0000 O   0  0  0  0  0  0  0  0  0  0  0  0
    1.8536   -0.3257    0.0000 N   0  0  0  0  0  0  0  0  0  0  0  0
   -0.1980    1.8286    0.0000 C   0  0  0  0  0  0  0  0  0  0  0  0
   -0.6082    2.5444    0.0000 C   0  0  1  0  0  0  0  0  0  0  0  0
    0.6269    1.8260    0.0000 O   0  0  0  0  0  0  0  0  0  0  0  0
   -0.1935    3.2576    0.0000 O   0  0  0  0  0  0  0  0  0  0  0  0
   -1.4333    2.5470    0.0000 C   0  0  0  0  0  0  0  0  0  0  0  0
   -1.8435    3.2628    0.0000 N   0  0  0  0  0  0  0  0  0  0  0  0
    1.8444   -1.7559    0.0000 C   0  0  2  0  0  0  0  0  0  0  0  0
    2.2488   -2.4743    0.0000 C   0  0  1  0  0  0  0  0  0  0  0  0
    3.0703   -2.4820    0.0000 C   0  0  2  0  0  0  0  0  0  0  0  0
    3.4915   -1.7723    0.0000 C   0  0  1  0  0  0  0  0  0  0  0  0
    3.0853   -1.0531    0.0000 C   0  0  2  0  0  0  0  0  0  0  0  0
    2.2576   -1.0437    0.0000 O   0  0  0  0  0  0  0  0  0  0  0  0
    3.5051   -0.3430    0.0000 C   0  0  0  0  0  0  0  0  0  0  0  0
    4.3301   -0.3515    0.0000 N   0  0  0  0  0  0  0  0  0  0  0  0
    4.3165   -1.7811    0.0000 O   0  0  0  0  0  0  0  0  0  0  0  0
    3.4750   -3.2008    0.0000 O   0  0  0  0  0  0  0  0  0  0  0  0
    1.8291   -3.1846    0.0000 O   0  0  0  0  0  0  0  0  0  0  0  0
   -1.8607   -1.0204    0.0000 C   0  0  2  0  0  0  0  0  0  0  0  0
   -2.6829   -1.0136    0.0000 C   0  0  1  0  0  0  0  0  0  0  0  0
   -3.0994   -1.7217    0.0000 C   0  0  2  0  0  0  0  0  0  0  0  0
   -2.6943   -2.4409    0.0000 C   0  0  1  0  0  0  0  0  0  0  0  0
   -1.8684   -2.4474    0.0000 C   0  0  0  0  0  0  0  0  0  0  0  0
   -1.4474   -1.7348    0.0000 O   0  0  0  0  0  0  0  0  0  0  0  0
   -3.0897   -0.2957    0.0000 O   0  0  0  0  0  0  0  0  0  0  0  0
   -3.9242   -1.7139    0.0000 N   0  0  0  0  0  0  0  0  0  0  0  0
   -3.5234   -2.4337    0.0000 C   0  0  0  0  0  0  0  0  0  0  0  0
   -2.7026   -3.2628    0.0000 O   0  0  0  0  0  0  0  0  0  0  0  0
   -4.3301   -0.9956    0.0000 C   0  0  0  0  0  0  0  0  0  0  0  0
    1.4266   -1.0378    0.0000 H   0  0  0  0  0  0  0  0  0  0  0  0
   -1.0651   -1.2295    0.0000 H   0  0  0  0  0  0  0  0  0  0  0  0
   -1.2725    0.4044    0.0000 H   0  0  0  0  0  0  0  0  0  0  0  0
   -1.1491    0.6169    0.0000 H   0  0  0  0  0  0  0  0  0  0  0  0
    0.3151   -1.9567    0.0000 H   0  0  0  0  0  0  0  0  0  0  0  0
    0.0699   -1.9553    0.0000 H   0  0  0  0  0  0  0  0  0  0  0  0
    1.5580   -1.2502    0.0000 H   0  0  0  0  0  0  0  0  0  0  0  0
    1.1593    1.3235    0.0000 H   0  0  0  0  0  0  0  0  0  0  0  0
    0.0878    1.3271    0.0000 H   0  0  0  0  0  0  0  0  0  0  0  0
   -1.5973    1.1186    0.0000 H   0  0  0  0  0  0  0  0  0  0  0  0
   -1.6003   -1.7306    0.0000 H   0  0  0  0  0  0  0  0  0  0  0  0
    2.3578   -1.2124    0.0000 H   0  0  0  0  0  0  0  0  0  0  0  0
    2.3694    0.5543    0.0000 H   0  0  0  0  0  0  0  0  0  0  0  0
    0.4618    2.5410    0.0000 H   0  0  0  0  0  0  0  0  0  0  0  0
    0.7765    3.2546    0.0000 H   0  0  0  0  0  0  0  0  0  0  0  0
   -1.9712    1.6221    0.0000 H   0  0  0  0  0  0  0  0  0  0  0  0
   -2.5033    2.5504    0.0000 H   0  0  0  0  0  0  0  0  0  0  0  0
   -1.3307    4.1445    0.0000 H   0  0  0  0  0  0  0  0  0  0  0  0
   -2.8635    3.2661    0.0000 H   0  0  0  0  0  0  0  0  0  0  0  0
    2.7748   -3.4061    0.0000 H   0  0  0  0  0  0  0  0  0  0  0  0
    2.5260   -3.4032    0.0000 H   0  0  0  0  0  0  0  0  0  0  0  0
    4.0160   -2.7050    0.0000 H   0  0  0  0  0  0  0  0  0  0  0  0
    4.1552   -1.0637    0.0000 H   0  0  0  0  0  0  0  0  0  0  0  0
    2.9797    0.5891    0.0000 H   0  0  0  0  0  0  0  0  0  0  0  0
    4.0496    0.5781    0.0000 H   0  0  0  0  0  0  0  0  0  0  0  0
    4.8310   -1.2401    0.0000 H   0  0  0  0  0  0  0  0  0  0  0  0
    4.8492    0.5265    0.0000 H   0  0  0  0  0  0  0  0  0  0  0  0
    4.7925   -2.6263    0.0000 H   0  0  0  0  0  0  0  0  0  0  0  0
    2.9809   -4.0356    0.0000 H   0  0  0  0  0  0  0  0  0  0  0  0
    0.8591   -3.1748    0.0000 H   0  0  0  0  0  0  0  0  0  0  0  0
   -2.1404   -0.0914    0.0000 H   0  0  0  0  0  0  0  0  0  0  0  0
   -3.6262   -0.7904    0.0000 H   0  0  0  0  0  0  0  0  0  0  0  0
   -1.3417   -3.3788    0.0000 H   0  0  0  0  0  0  0  0  0  0  0  0
   -0.7984   -2.4575    0.0000 H   0  0  0  0  0  0  0  0  0  0  0  0
   -2.5979    0.5404    0.0000 H   0  0  0  0  0  0  0  0  0  0  0  0
   -4.4424   -2.5924    0.0000 H   0  0  0  0  0  0  0  0  0  0  0  0
   -4.0503   -1.5024    0.0000 H   0  0  0  0  0  0  0  0  0  0  0  0
   -4.0664   -3.3557    0.0000 H   0  0  0  0  0  0  0  0  0  0  0  0
   -4.5934   -2.4244    0.0000 H   0  0  0  0  0  0  0  0  0  0  0  0
   -3.5475   -3.7393    0.0000 H   0  0  0  0  0  0  0  0  0  0  0  0
   -3.7866   -0.0739    0.0000 H   0  0  0  0  0  0  0  0  0  0  0  0
   -5.4001   -0.9857    0.0000 H   0  0  0  0  0  0  0  0  0  0  0  0
   -4.8565   -0.0640    0.0000 H   0  0  0  0  0  0  0  0  0  0  0  0
  1  7  1  0  0  0  0
  1  2  1  0  0  0  0
  1  6  1  0  0  0  0
  1 42  1  1  0  0  0
  2  8  1  0  0  0  0
  2  3  1  0  0  0  0
  2 43  1  6  0  0  0
  3  4  1  0  0  0  0
  3  9  1  0  0  0  0
  3 44  1  1  0  0  0
  4  5  1  0  0  0  0
  4 10  1  0  0  0  0
  4 45  1  6  0  0  0
  5 11  1  0  0  0  0
  5  6  1  0  0  0  0
  5 46  1  1  0  0  0
  6 47  1  0  0  0  0
  6 48  1  0  0  0  0
  7 12  1  0  0  0  0
  7 49  1  0  0  0  0
  8 29  1  0  0  0  0
  9 50  1  0  0  0  0
 10 18  1  0  0  0  0
 11 51  1  0  0  0  0
 11 52  1  0  0  0  0
 12 13  1  0  0  0  0
 12 14  2  0  0  0  0
 13 15  1  0  0  0  0
 13 16  1  0  0  0  0
 13 53  1  1  0  0  0
 15 54  1  0  0  0  0
 16 17  1  0  0  0  0
 16 55  1  0  0  0  0
 16 56  1  0  0  0  0
 17 57  1  0  0  0  0
 17 58  1  0  0  0  0
 18 23  1  0  0  0  0
 18 19  1  0  0  0  0
 18 40  1  6  0  0  0
 19 20  1  0  0  0  0
 19 28  1  0  0  0  0
 19 59  1  6  0  0  0
 20 21  1  0  0  0  0
 20 27  1  0  0  0  0
 20 60  1  1  0  0  0
 21 22  1  0  0  0  0
 21 26  1  0  0  0  0
 21 61  1  6  0  0  0
 22 23  1  0  0  0  0
 22 24  1  0  0  0  0
 22 62  1  1  0  0  0
 24 25  1  0  0  0  0
 24 63  1  0  0  0  0
 24 64  1  0  0  0  0
 25 65  1  0  0  0  0
 25 66  1  0  0  0  0
 26 67  1  0  0  0  0
 27 68  1  0  0  0  0
 28 69  1  0  0  0  0
 29 30  1  0  0  0  0
 29 34  1  0  0  0  0
 29 41  1  6  0  0  0
 30 31  1  0  0  0  0
 30 35  1  0  0  0  0
 30 70  1  6  0  0  0
 31 32  1  0  0  0  0
 31 36  1  0  0  0  0
 31 71  1  1  0  0  0
 32 33  1  0  0  0  0
 32 37  1  0  0  0  0
 32 38  1  6  0  0  0
 33 34  1  0  0  0  0
 33 72  1  0  0  0  0
 33 73  1  0  0  0  0
 35 74  1  0  0  0  0
 36 39  1  0  0  0  0
 36 75  1  0  0  0  0
 37 76  1  0  0  0  0
 37 77  1  0  0  0  0
 37 78  1  0  0  0  0
 38 79  1  0  0  0  0
 39 80  1  0  0  0  0
 39 81  1  0  0  0  0
 39 82  1  0  0  0  0
M  END
>  <DRUGBANK_ID>
DB13540

>  <COMMON_NAME>
Isepamicin

>  <CAS_NUMBER>
58152-03-7

>  <UNII>
G7K224460P

>  <SYNONYMS>
HAPA-B; HAPA-gentamycin B; Isepamicin; Isepamicina; Isepamicinum

$$$$
