1124
 OpenBabel10282417072D

 36 36  0  0  0  0  0  0  0  0999 V2000
    2.4751   -0.6188    0.0000 S   0  0  0  0  0  0  0  0  0  0  0  0
    1.6500   -0.6188    0.0000 O   0  0  0  0  0  0  0  0  0  0  0  0
    3.3001   -0.6188    0.0000 O   0  0  0  0  0  0  0  0  0  0  0  0
    3.9041    0.2063    0.0000 O   0  0  0  0  0  0  0  0  0  0  0  0
    3.1895    1.4438    0.0000 N   0  0  0  0  0  0  0  0  0  0  0  0
    2.4751    0.2063    0.0000 N   0  0  0  0  0  0  0  0  0  0  0  0
    3.9041    2.6813    0.0000 C   0  0  0  0  0  0  0  0  0  0  0  0
    3.9041    1.8563    0.0000 C   0  0  0  0  0  0  0  0  0  0  0  0
    4.6185    3.0938    0.0000 C   0  0  0  0  0  0  0  0  0  0  0  0
    2.4751   -1.4438    0.0000 C   0  0  0  0  0  0  0  0  0  0  0  0
    4.6185    3.9188    0.0000 C   0  0  0  0  0  0  0  0  0  0  0  0
    3.1895    0.6188    0.0000 C   0  0  0  0  0  0  0  0  0  0  0  0
    1.7606   -1.8563    0.0000 C   0  0  0  0  0  0  0  0  0  0  0  0
    3.1895   -1.8563    0.0000 C   0  0  0  0  0  0  0  0  0  0  0  0
    2.4751   -3.0938    0.0000 C   0  0  0  0  0  0  0  0  0  0  0  0
    1.7606   -2.6813    0.0000 C   0  0  0  0  0  0  0  0  0  0  0  0
    3.1895   -2.6813    0.0000 C   0  0  0  0  0  0  0  0  0  0  0  0
    2.4751   -3.9188    0.0000 C   0  0  0  0  0  0  0  0  0  0  0  0
    2.3369    1.9361    0.0000 H   0  0  0  0  0  0  0  0  0  0  0  0
    1.6225    0.6985    0.0000 H   0  0  0  0  0  0  0  0  0  0  0  0
    2.9774    3.2163    0.0000 H   0  0  0  0  0  0  0  0  0  0  0  0
    3.9041    3.7513    0.0000 H   0  0  0  0  0  0  0  0  0  0  0  0
    4.8307    1.3213    0.0000 H   0  0  0  0  0  0  0  0  0  0  0  0
    4.8308    2.3913    0.0000 H   0  0  0  0  0  0  0  0  0  0  0  0
    5.5452    2.5588    0.0000 H   0  0  0  0  0  0  0  0  0  0  0  0
    5.5451    3.6288    0.0000 H   0  0  0  0  0  0  0  0  0  0  0  0
    5.5451    4.4538    0.0000 H   0  0  0  0  0  0  0  0  0  0  0  0
    3.6919    4.4538    0.0000 H   0  0  0  0  0  0  0  0  0  0  0  0
    4.6185    4.9888    0.0000 H   0  0  0  0  0  0  0  0  0  0  0  0
    0.8669   -1.3403    0.0000 H   0  0  0  0  0  0  0  0  0  0  0  0
    4.0832   -1.3403    0.0000 H   0  0  0  0  0  0  0  0  0  0  0  0
    0.8669   -3.1973    0.0000 H   0  0  0  0  0  0  0  0  0  0  0  0
    4.0832   -3.1973    0.0000 H   0  0  0  0  0  0  0  0  0  0  0  0
    1.5485   -4.4538    0.0000 H   0  0  0  0  0  0  0  0  0  0  0  0
    3.4017   -4.4538    0.0000 H   0  0  0  0  0  0  0  0  0  0  0  0
    2.4751   -4.9888    0.0000 H   0  0  0  0  0  0  0  0  0  0  0  0
  1  2  2  0  0  0  0
  1  3  2  0  0  0  0
  1  6  1  0  0  0  0
  1 10  1  0  0  0  0
  4 12  2  0  0  0  0
  5  8  1  0  0  0  0
  5 12  1  0  0  0  0
  5 19  1  0  0  0  0
  6 12  1  0  0  0  0
  6 20  1  0  0  0  0
  7  8  1  0  0  0  0
  7  9  1  0  0  0  0
  7 21  1  0  0  0  0
  7 22  1  0  0  0  0
  8 23  1  0  0  0  0
  8 24  1  0  0  0  0
  9 11  1  0  0  0  0
  9 25  1  0  0  0  0
  9 26  1  0  0  0  0
 10 13  2  0  0  0  0
 10 14  1  0  0  0  0
 11 27  1  0  0  0  0
 11 28  1  0  0  0  0
 11 29  1  0  0  0  0
 13 16  1  0  0  0  0
 13 30  1  0  0  0  0
 14 17  2  0  0  0  0
 14 31  1  0  0  0  0
 15 16  2  0  0  0  0
 15 17  1  0  0  0  0
 15 18  1  0  0  0  0
 16 32  1  0  0  0  0
 17 33  1  0  0  0  0
 18 34  1  0  0  0  0
 18 35  1  0  0  0  0
 18 36  1  0  0  0  0
M  END
>  <DRUGBANK_ID>
DB01124

>  <SECONDARY_ACCESSION_NUMBERS>
APRD00267

>  <COMMON_NAME>
Tolbutamide

>  <CAS_NUMBER>
64-77-7

>  <UNII>
982XCM1FOI

>  <SYNONYMS>
1-Butyl-3-(p-methylphenylsulfonyl)urea; 1-Butyl-3-(p-tolylsulfonyl)urea; 1-Butyl-3-tosylurea; 1-p-Toluenesulfonyl-3-butylurea; 3-(p-Tolyl-4-sulfonyl)-1-butylurea; N-(4-Methylbenzenesulfonyl)-N'-butylurea; N-(4-Methylphenylsulfonyl)-N'-butylurea; N-(p-Methylbenzenesulfonyl)-N'-butylurea; N-(Sulfonyl-p-methylbenzene)-N'-N-butylurea; N-Butyl-N'-(4-methylphenylsulfonyl)urea; N-Butyl-N'-(p-tolylsulfonyl)urea; N-Butyl-N'-p-toluenesulfonylurea; N-n-Butyl-N'-tosylurea; Tolbutamida; Tolbutamide; Tolbutamidum; Tolylsulfonylbutylurea

$$$$
