
 OpenBabel10282417072D

227236  0  0  0  0  0  0  0  0999 V2000
    0.3164    6.3965    0.0000 C   0  0  0  0  0  0  0  0  0  0  0  0
    1.0274    5.9782    0.0000 C   0  0  0  0  0  0  0  0  0  0  0  0
    1.7803    6.3965    0.0000 N   0  0  0  0  0  0  0  0  0  0  0  0
    2.4914    5.9782    0.0000 C   0  0  0  0  0  0  0  0  0  0  0  0
    3.2026    6.3965    0.0000 C   0  0  0  0  0  0  0  0  0  0  0  0
    3.9555    5.9782    0.0000 C   0  0  0  0  0  0  0  0  0  0  0  0
    4.6667    6.3965    0.0000 C   0  0  0  0  0  0  0  0  0  0  0  0
    5.3777    5.9782    0.0000 C   0  0  0  0  0  0  0  0  0  0  0  0
    6.1306    6.3965    0.0000 C   0  0  0  0  0  0  0  0  0  0  0  0
    6.8417    5.9782    0.0000 C   0  0  0  0  0  0  0  0  0  0  0  0
    7.5530    6.3965    0.0000 C   0  0  0  0  0  0  0  0  0  0  0  0
    8.3059    5.9782    0.0000 C   0  0  0  0  0  0  0  0  0  0  0  0
    8.9751    6.3965    0.0000 C   0  0  0  0  0  0  0  0  0  0  0  0
   -1.8305    1.8649    0.0000 C   0  0  0  0  0  0  0  0  0  0  0  0
   -1.1159    1.4524    0.0000 C   0  0  0  0  0  0  0  0  0  0  0  0
   -2.5450    1.4524    0.0000 C   0  0  0  0  0  0  0  0  0  0  0  0
   -1.8305    0.2149    0.0000 C   0  0  0  0  0  0  0  0  0  0  0  0
   -2.5450    0.6274    0.0000 C   0  0  0  0  0  0  0  0  0  0  0  0
   -1.1159    0.6274    0.0000 C   0  0  0  0  0  0  0  0  0  0  0  0
   -0.4015    1.8649    0.0000 O   0  0  0  0  0  0  0  0  0  0  0  0
   -3.2594    1.8649    0.0000 O   0  0  0  0  0  0  0  0  0  0  0  0
   -6.1172    0.2149    0.0000 C   0  0  1  0  0  0  0  0  0  0  0  0
    2.4561    0.2149    0.0000 C   0  0  1  0  0  0  0  0  0  0  0  0
   -5.4028    0.6274    0.0000 C   0  0  0  0  0  0  0  0  0  0  0  0
    1.7417    0.6274    0.0000 C   0  0  0  0  0  0  0  0  0  0  0  0
   -3.9738    1.4525    0.0000 C   0  0  0  0  0  0  0  0  0  0  0  0
    0.3128    1.4524    0.0000 C   0  0  0  0  0  0  0  0  0  0  0  0
   -3.9739    0.6274    0.0000 C   0  0  0  0  0  0  0  0  0  0  0  0
    1.0272    1.8648    0.0000 C   0  0  0  0  0  0  0  0  0  0  0  0
    1.7417    1.4523    0.0000 C   0  0  0  0  0  0  0  0  0  0  0  0
    1.0272    0.2149    0.0000 C   0  0  0  0  0  0  0  0  0  0  0  0
   -5.4028    1.4525    0.0000 C   0  0  0  0  0  0  0  0  0  0  0  0
   -4.6883    1.8650    0.0000 C   0  0  0  0  0  0  0  0  0  0  0  0
    0.3128    0.6274    0.0000 C   0  0  0  0  0  0  0  0  0  0  0  0
    1.0272    2.6898    0.0000 Cl  0  0  0  0  0  0  0  0  0  0  0  0
   -6.8318    0.6274    0.0000 O   0  0  0  0  0  0  0  0  0  0  0  0
   -3.2594    0.2149    0.0000 Cl  0  0  0  0  0  0  0  0  0  0  0  0
    3.1705    0.6273    0.0000 O   0  0  0  0  0  0  0  0  0  0  0  0
   -2.5447    3.9273    0.0000 C   0  0  1  0  0  0  0  0  0  0  0  0
   -2.5449    3.1024    0.0000 C   0  0  1  0  0  0  0  0  0  0  0  0
   -3.2593    4.3398    0.0000 C   0  0  2  0  0  0  0  0  0  0  0  0
   -3.2593    2.6899    0.0000 O   0  0  0  0  0  0  0  0  0  0  0  0
   -1.1159    6.4023    0.0000 C   0  0  2  0  0  0  0  0  0  0  0  0
   -3.9738    3.9274    0.0000 C   0  0  1  0  0  0  0  0  0  0  0  0
   -1.8303    5.1648    0.0000 C   0  0  1  0  0  0  0  0  0  0  0  0
   -3.9738    3.1024    0.0000 C   0  0  1  0  0  0  0  0  0  0  0  0
   -1.1159    5.5773    0.0000 C   0  0  0  0  0  0  0  0  0  0  0  0
   -2.5447    5.5773    0.0000 O   0  0  0  0  0  0  0  0  0  0  0  0
   -1.8303    6.8148    0.0000 C   0  0  1  0  0  0  0  0  0  0  0  0
   -1.8305    4.3398    0.0000 O   0  0  0  0  0  0  0  0  0  0  0  0
   -2.5447    6.4023    0.0000 C   0  0  2  0  0  0  0  0  0  0  0  0
   -3.2593    5.1648    0.0000 O   0  0  0  0  0  0  0  0  0  0  0  0
   -4.6883    4.3399    0.0000 O   0  0  0  0  0  0  0  0  0  0  0  0
   -1.8303    7.6398    0.0000 O   0  0  0  0  0  0  0  0  0  0  0  0
   -0.7034    7.1167    0.0000 C   0  0  0  0  0  0  0  0  0  0  0  0
   -3.2593    6.8148    0.0000 C   0  0  0  0  0  0  0  0  0  0  0  0
   -1.8305    2.6899    0.0000 O   0  0  0  0  0  0  0  0  0  0  0  0
   -4.6883    2.6899    0.0000 C   0  0  0  0  0  0  0  0  0  0  0  0
   -5.4028    3.1024    0.0000 O   0  0  0  0  0  0  0  0  0  0  0  0
   -4.6883    0.2149    0.0000 C   0  0  0  0  0  0  0  0  0  0  0  0
    2.4561   -1.4350    0.0000 C   0  0  2  0  0  0  0  0  0  0  0  0
   -1.1161   -1.8475    0.0000 N   0  0  0  0  0  0  0  0  0  0  0  0
    1.7417   -1.8475    0.0000 C   0  0  0  0  0  0  0  0  0  0  0  0
   -2.5449   -1.8475    0.0000 C   0  0  0  0  0  0  0  0  0  0  0  0
    1.0272   -1.4350    0.0000 N   0  0  0  0  0  0  0  0  0  0  0  0
   -1.8306   -1.4350    0.0000 C   0  0  1  0  0  0  0  0  0  0  0  0
   -0.4015   -1.4350    0.0000 C   0  0  0  0  0  0  0  0  0  0  0  0
    0.3128   -1.8475    0.0000 C   0  0  2  0  0  0  0  0  0  0  0  0
    1.7417   -2.6725    0.0000 O   0  0  0  0  0  0  0  0  0  0  0  0
   -2.5450   -2.6724    0.0000 O   0  0  0  0  0  0  0  0  0  0  0  0
   -0.4015   -0.6100    0.0000 O   0  0  0  0  0  0  0  0  0  0  0  0
    0.3128   -2.6725    0.0000 C   0  0  0  0  0  0  0  0  0  0  0  0
   -0.4015   -3.0850    0.0000 C   0  0  0  0  0  0  0  0  0  0  0  0
   -1.1161   -2.6725    0.0000 N   0  0  0  0  0  0  0  0  0  0  0  0
   -0.4015   -3.9099    0.0000 O   0  0  0  0  0  0  0  0  0  0  0  0
    3.1705   -1.8475    0.0000 N   0  0  0  0  0  0  0  0  0  0  0  0
    3.8851   -1.4350    0.0000 C   0  0  0  0  0  0  0  0  0  0  0  0
    4.5995   -1.8475    0.0000 C   0  0  1  0  0  0  0  0  0  0  0  0
    3.8851   -0.6100    0.0000 O   0  0  0  0  0  0  0  0  0  0  0  0
    5.3139   -1.4350    0.0000 C   0  0  0  0  0  0  0  0  0  0  0  0
    4.5995   -2.6725    0.0000 N   0  0  0  0  0  0  0  0  0  0  0  0
    6.0284   -1.8475    0.0000 C   0  0  0  0  0  0  0  0  0  0  0  0
    5.3139   -3.0850    0.0000 C   0  0  0  0  0  0  0  0  0  0  0  0
    6.0284   -2.6725    0.0000 C   0  0  0  0  0  0  0  0  0  0  0  0
    6.7430   -1.4352    0.0000 C   0  0  0  0  0  0  0  0  0  0  0  0
   -6.1172   -1.4348    0.0000 C   0  0  2  0  0  0  0  0  0  0  0  0
   -3.2594   -1.4350    0.0000 N   0  0  0  0  0  0  0  0  0  0  0  0
   -3.9739   -1.8474    0.0000 C   0  0  1  0  0  0  0  0  0  0  0  0
   -7.5462   -1.4348    0.0000 O   0  0  0  0  0  0  0  0  0  0  0  0
   -5.4028   -1.8474    0.0000 N   0  0  0  0  0  0  0  0  0  0  0  0
   -4.6884   -1.4348    0.0000 C   0  0  0  0  0  0  0  0  0  0  0  0
   -4.6884   -0.6100    0.0000 O   0  0  0  0  0  0  0  0  0  0  0  0
   -8.2607   -2.6724    0.0000 C   0  0  0  0  0  0  0  0  0  0  0  0
   -8.2607   -1.8474    0.0000 O   0  0  0  0  0  0  0  0  0  0  0  0
   -8.9751   -3.0850    0.0000 O   0  0  0  0  0  0  0  0  0  0  0  0
   -7.5463   -3.0849    0.0000 C   0  0  1  0  0  0  0  0  0  0  0  0
   -6.8318   -2.6724    0.0000 N   0  0  0  0  0  0  0  0  0  0  0  0
   -6.8318   -1.8474    0.0000 C   0  0  0  0  0  0  0  0  0  0  0  0
   -4.6997   -4.3342    0.0000 C   0  0  0  0  0  0  0  0  0  0  0  0
   -3.9853   -4.7467    0.0000 C   0  0  0  0  0  0  0  0  0  0  0  0
   -3.9851   -3.0968    0.0000 C   0  0  0  0  0  0  0  0  0  0  0  0
   -4.6997   -3.5093    0.0000 C   0  0  0  0  0  0  0  0  0  0  0  0
   -3.2707   -4.3343    0.0000 C   0  0  0  0  0  0  0  0  0  0  0  0
   -3.2707   -3.5093    0.0000 C   0  0  0  0  0  0  0  0  0  0  0  0
   -3.9853   -5.5718    0.0000 O   0  0  0  0  0  0  0  0  0  0  0  0
   -7.5463   -3.9099    0.0000 C   0  0  0  0  0  0  0  0  0  0  0  0
   -8.2607   -4.3224    0.0000 C   0  0  0  0  0  0  0  0  0  0  0  0
   -7.5463   -5.5599    0.0000 C   0  0  0  0  0  0  0  0  0  0  0  0
   -6.8318   -4.3224    0.0000 C   0  0  0  0  0  0  0  0  0  0  0  0
   -8.2607   -5.1474    0.0000 C   0  0  0  0  0  0  0  0  0  0  0  0
   -8.9751   -5.5599    0.0000 O   0  0  0  0  0  0  0  0  0  0  0  0
   -6.8318   -5.1474    0.0000 C   0  0  0  0  0  0  0  0  0  0  0  0
   -6.1172   -5.5599    0.0000 O   0  0  0  0  0  0  0  0  0  0  0  0
   -7.5463   -6.3849    0.0000 C   0  0  0  0  0  0  0  0  0  0  0  0
   -6.8352   -6.8032    0.0000 N   0  0  0  0  0  0  0  0  0  0  0  0
   -6.0823   -6.3849    0.0000 C   0  0  0  0  0  0  0  0  0  0  0  0
   -5.3711   -6.8032    0.0000 P   0  0  0  0  0  0  0  0  0  0  0  0
   -4.6601   -6.3849    0.0000 O   0  0  0  0  0  0  0  0  0  0  0  0
   -5.3711   -7.6398    0.0000 O   0  0  0  0  0  0  0  0  0  0  0  0
   -4.6601   -7.2215    0.0000 O   0  0  0  0  0  0  0  0  0  0  0  0
   -0.4014    5.9898    0.0000 N   0  0  0  0  0  0  0  0  0  0  0  0
    0.3251    7.4665    0.0000 H   0  0  0  0  0  0  0  0  0  0  0  0
   -0.6059    6.9390    0.0000 H   0  0  0  0  0  0  0  0  0  0  0  0
    1.0142    4.9083    0.0000 H   0  0  0  0  0  0  0  0  0  0  0  0
    1.9462    5.4299    0.0000 H   0  0  0  0  0  0  0  0  0  0  0  0
    1.7929    7.4164    0.0000 H   0  0  0  0  0  0  0  0  0  0  0  0
    2.4914    4.9082    0.0000 H   0  0  0  0  0  0  0  0  0  0  0  0
    3.4202    5.4469    0.0000 H   0  0  0  0  0  0  0  0  0  0  0  0
    3.1895    7.4664    0.0000 H   0  0  0  0  0  0  0  0  0  0  0  0
    4.1215    6.9448    0.0000 H   0  0  0  0  0  0  0  0  0  0  0  0
    3.9686    4.9083    0.0000 H   0  0  0  0  0  0  0  0  0  0  0  0
    4.8875    5.4527    0.0000 H   0  0  0  0  0  0  0  0  0  0  0  0
    4.6668    7.4665    0.0000 H   0  0  0  0  0  0  0  0  0  0  0  0
    5.5955    6.9277    0.0000 H   0  0  0  0  0  0  0  0  0  0  0  0
    5.3645    4.9083    0.0000 H   0  0  0  0  0  0  0  0  0  0  0  0
    6.2965    5.4299    0.0000 H   0  0  0  0  0  0  0  0  0  0  0  0
    6.1438    7.4664    0.0000 H   0  0  0  0  0  0  0  0  0  0  0  0
    7.0627    6.9220    0.0000 H   0  0  0  0  0  0  0  0  0  0  0  0
    6.8416    4.9082    0.0000 H   0  0  0  0  0  0  0  0  0  0  0  0
    7.7705    5.4469    0.0000 H   0  0  0  0  0  0  0  0  0  0  0  0
    7.5399    7.4664    0.0000 H   0  0  0  0  0  0  0  0  0  0  0  0
    8.4719    6.9448    0.0000 H   0  0  0  0  0  0  0  0  0  0  0  0
    8.3335    4.9086    0.0000 H   0  0  0  0  0  0  0  0  0  0  0  0
    9.2484    5.4716    0.0000 H   0  0  0  0  0  0  0  0  0  0  0  0
    9.9199    5.8943    0.0000 H   0  0  0  0  0  0  0  0  0  0  0  0
    8.9376    7.4658    0.0000 H   0  0  0  0  0  0  0  0  0  0  0  0
    9.8824    6.9636    0.0000 H   0  0  0  0  0  0  0  0  0  0  0  0
   -3.4387    0.1114    0.0000 H   0  0  0  0  0  0  0  0  0  0  0  0
   -0.2222    0.1114    0.0000 H   0  0  0  0  0  0  0  0  0  0  0  0
   -6.1173    1.2849    0.0000 H   0  0  0  0  0  0  0  0  0  0  0  0
    2.4562    1.2849    0.0000 H   0  0  0  0  0  0  0  0  0  0  0  0
    2.6354    1.9683    0.0000 H   0  0  0  0  0  0  0  0  0  0  0  0
    1.0272   -0.8171    0.0000 H   0  0  0  0  0  0  0  0  0  0  0  0
   -6.2965    1.9685    0.0000 H   0  0  0  0  0  0  0  0  0  0  0  0
   -4.6883    2.8970    0.0000 H   0  0  0  0  0  0  0  0  0  0  0  0
   -0.5809    0.1114    0.0000 H   0  0  0  0  0  0  0  0  0  0  0  0
   -6.8319    1.5974    0.0000 H   0  0  0  0  0  0  0  0  0  0  0  0
    4.0105    0.1422    0.0000 H   0  0  0  0  0  0  0  0  0  0  0  0
   -1.6181    3.3923    0.0000 H   0  0  0  0  0  0  0  0  0  0  0  0
   -1.6182    3.6373    0.0000 H   0  0  0  0  0  0  0  0  0  0  0  0
   -2.3327    4.8748    0.0000 H   0  0  0  0  0  0  0  0  0  0  0  0
   -3.9737    4.9974    0.0000 H   0  0  0  0  0  0  0  0  0  0  0  0
   -0.9037    4.6297    0.0000 H   0  0  0  0  0  0  0  0  0  0  0  0
   -3.9738    2.0324    0.0000 H   0  0  0  0  0  0  0  0  0  0  0  0
   -0.1892    5.0423    0.0000 H   0  0  0  0  0  0  0  0  0  0  0  0
   -1.1159    4.5073    0.0000 H   0  0  0  0  0  0  0  0  0  0  0  0
   -0.9036    7.3498    0.0000 H   0  0  0  0  0  0  0  0  0  0  0  0
   -3.4713    5.8673    0.0000 H   0  0  0  0  0  0  0  0  0  0  0  0
   -2.4193    5.6498    0.0000 H   0  0  0  0  0  0  0  0  0  0  0  0
   -4.6883    5.3099    0.0000 H   0  0  0  0  0  0  0  0  0  0  0  0
   -0.9903    8.1248    0.0000 H   0  0  0  0  0  0  0  0  0  0  0  0
    0.3666    7.1167    0.0000 H   0  0  0  0  0  0  0  0  0  0  0  0
   -1.2384    8.0434    0.0000 H   0  0  0  0  0  0  0  0  0  0  0  0
   -0.1684    8.0433    0.0000 H   0  0  0  0  0  0  0  0  0  0  0  0
   -3.2594    7.8848    0.0000 H   0  0  0  0  0  0  0  0  0  0  0  0
   -4.1859    6.2797    0.0000 H   0  0  0  0  0  0  0  0  0  0  0  0
   -4.1860    7.3497    0.0000 H   0  0  0  0  0  0  0  0  0  0  0  0
   -4.6883    1.6199    0.0000 H   0  0  0  0  0  0  0  0  0  0  0  0
   -5.6149    2.1549    0.0000 H   0  0  0  0  0  0  0  0  0  0  0  0
   -5.4028    4.0724    0.0000 H   0  0  0  0  0  0  0  0  0  0  0  0
   -4.6883   -0.8171    0.0000 H   0  0  0  0  0  0  0  0  0  0  0  0
    3.3828   -0.9000    0.0000 H   0  0  0  0  0  0  0  0  0  0  0  0
   -1.1161   -2.8320    0.0000 H   0  0  0  0  0  0  0  0  0  0  0  0
    1.0272   -0.4505    0.0000 H   0  0  0  0  0  0  0  0  0  0  0  0
   -0.9039   -0.9000    0.0000 H   0  0  0  0  0  0  0  0  0  0  0  0
    1.2395   -2.3825    0.0000 H   0  0  0  0  0  0  0  0  0  0  0  0
    1.2395   -3.2075    0.0000 H   0  0  0  0  0  0  0  0  0  0  0  0
    0.3129   -3.7425    0.0000 H   0  0  0  0  0  0  0  0  0  0  0  0
   -1.1162   -1.6880    0.0000 H   0  0  0  0  0  0  0  0  0  0  0  0
   -1.9687   -3.1648    0.0000 H   0  0  0  0  0  0  0  0  0  0  0  0
    3.1704   -2.8320    0.0000 H   0  0  0  0  0  0  0  0  0  0  0  0
    3.6728   -2.3825    0.0000 H   0  0  0  0  0  0  0  0  0  0  0  0
    5.3139   -0.3650    0.0000 H   0  0  0  0  0  0  0  0  0  0  0  0
    6.2405   -0.9000    0.0000 H   0  0  0  0  0  0  0  0  0  0  0  0
    3.7161   -3.1825    0.0000 H   0  0  0  0  0  0  0  0  0  0  0  0
    6.9550   -2.3826    0.0000 H   0  0  0  0  0  0  0  0  0  0  0  0
    5.3139   -4.1550    0.0000 H   0  0  0  0  0  0  0  0  0  0  0  0
    6.2406   -2.5500    0.0000 H   0  0  0  0  0  0  0  0  0  0  0  0
    6.2405   -3.6200    0.0000 H   0  0  0  0  0  0  0  0  0  0  0  0
    5.1018   -3.2075    0.0000 H   0  0  0  0  0  0  0  0  0  0  0  0
    6.9550   -3.2075    0.0000 H   0  0  0  0  0  0  0  0  0  0  0  0
    6.0284   -3.7425    0.0000 H   0  0  0  0  0  0  0  0  0  0  0  0
    7.6695   -1.9705    0.0000 H   0  0  0  0  0  0  0  0  0  0  0  0
    6.7433   -0.3652    0.0000 H   0  0  0  0  0  0  0  0  0  0  0  0
    7.6698   -0.9005    0.0000 H   0  0  0  0  0  0  0  0  0  0  0  0
   -5.1905   -0.8999    0.0000 H   0  0  0  0  0  0  0  0  0  0  0  0
   -3.2593   -0.4505    0.0000 H   0  0  0  0  0  0  0  0  0  0  0  0
   -4.9030   -2.3782    0.0000 H   0  0  0  0  0  0  0  0  0  0  0  0
   -5.4028   -2.8319    0.0000 H   0  0  0  0  0  0  0  0  0  0  0  0
   -9.7866   -2.6166    0.0000 H   0  0  0  0  0  0  0  0  0  0  0  0
   -8.4730   -3.6199    0.0000 H   0  0  0  0  0  0  0  0  0  0  0  0
   -5.9792   -3.1647    0.0000 H   0  0  0  0  0  0  0  0  0  0  0  0
   -5.5934   -2.9933    0.0000 H   0  0  0  0  0  0  0  0  0  0  0  0
   -2.3770   -4.8504    0.0000 H   0  0  0  0  0  0  0  0  0  0  0  0
   -2.3770   -2.9933    0.0000 H   0  0  0  0  0  0  0  0  0  0  0  0
   -4.7968   -6.0403    0.0000 H   0  0  0  0  0  0  0  0  0  0  0  0
   -9.1544   -3.8064    0.0000 H   0  0  0  0  0  0  0  0  0  0  0  0
   -9.7866   -5.0914    0.0000 H   0  0  0  0  0  0  0  0  0  0  0  0
   -6.1171   -6.4969    0.0000 H   0  0  0  0  0  0  0  0  0  0  0  0
   -8.4751   -6.9161    0.0000 H   0  0  0  0  0  0  0  0  0  0  0  0
   -8.4719   -5.8480    0.0000 H   0  0  0  0  0  0  0  0  0  0  0  0
   -6.8478   -7.8231    0.0000 H   0  0  0  0  0  0  0  0  0  0  0  0
   -6.0692   -5.3150    0.0000 H   0  0  0  0  0  0  0  0  0  0  0  0
   -5.1503   -5.8594    0.0000 H   0  0  0  0  0  0  0  0  0  0  0  0
   -3.8161   -6.8630    0.0000 H   0  0  0  0  0  0  0  0  0  0  0  0
   -4.6680   -8.1915    0.0000 H   0  0  0  0  0  0  0  0  0  0  0  0
   -0.4055    4.9698    0.0000 H   0  0  0  0  0  0  0  0  0  0  0  0
  1  2  1  0  0  0  0
  1121  1  0  0  0  0
  1122  1  0  0  0  0
  1123  1  0  0  0  0
  2  3  1  0  0  0  0
  2124  1  0  0  0  0
  2125  1  0  0  0  0
  3  4  1  0  0  0  0
  3126  1  0  0  0  0
  4  5  1  0  0  0  0
  4127  1  0  0  0  0
  4128  1  0  0  0  0
  5  6  1  0  0  0  0
  5129  1  0  0  0  0
  5130  1  0  0  0  0
  6  7  1  0  0  0  0
  6131  1  0  0  0  0
  6132  1  0  0  0  0
  7  8  1  0  0  0  0
  7133  1  0  0  0  0
  7134  1  0  0  0  0
  8  9  1  0  0  0  0
  8135  1  0  0  0  0
  8136  1  0  0  0  0
  9 10  1  0  0  0  0
  9137  1  0  0  0  0
  9138  1  0  0  0  0
 10 11  1  0  0  0  0
 10139  1  0  0  0  0
 10140  1  0  0  0  0
 11 12  1  0  0  0  0
 11141  1  0  0  0  0
 11142  1  0  0  0  0
 12 13  1  0  0  0  0
 12143  1  0  0  0  0
 12144  1  0  0  0  0
 13145  1  0  0  0  0
 13146  1  0  0  0  0
 13147  1  0  0  0  0
 15 14  2  0  0  0  0
 16 14  1  0  0  0  0
 17 66  1  0  0  0  0
 18 17  1  0  0  0  0
 18 16  2  0  0  0  0
 18148  1  0  0  0  0
 19 15  1  0  0  0  0
 19 17  2  0  0  0  0
 19149  1  0  0  0  0
 20 15  1  0  0  0  0
 21 16  1  0  0  0  0
 22 36  1  0  0  0  0
 22 86  1  0  0  0  0
 22150  1  1  0  0  0
 23 38  1  0  0  0  0
 23 61  1  0  0  0  0
 23151  1  6  0  0  0
 24 22  1  0  0  0  0
 25 23  1  0  0  0  0
 26 21  1  0  0  0  0
 27 20  1  0  0  0  0
 28 26  2  0  0  0  0
 29 27  1  0  0  0  0
 30 25  1  0  0  0  0
 30 29  2  0  0  0  0
 30152  1  0  0  0  0
 31 25  2  0  0  0  0
 31153  1  0  0  0  0
 32 24  1  0  0  0  0
 32154  1  0  0  0  0
 33 26  1  0  0  0  0
 33 32  2  0  0  0  0
 33155  1  0  0  0  0
 34 27  2  0  0  0  0
 34 31  1  0  0  0  0
 34156  1  0  0  0  0
 35 29  1  0  0  0  0
 36157  1  0  0  0  0
 37 28  1  0  0  0  0
 38158  1  0  0  0  0
 39 50  1  0  0  0  0
 39159  1  6  0  0  0
 40 39  1  0  0  0  0
 40 57  1  0  0  0  0
 40160  1  1  0  0  0
 41 39  1  0  0  0  0
 41 52  1  0  0  0  0
 41161  1  1  0  0  0
 42 40  1  0  0  0  0
 43 55  1  6  0  0  0
 43121  1  0  0  0  0
 44 41  1  0  0  0  0
 44 53  1  0  0  0  0
 44162  1  6  0  0  0
 45 50  1  0  0  0  0
 45163  1  1  0  0  0
 46 42  1  0  0  0  0
 46 44  1  0  0  0  0
 46 58  1  0  0  0  0
 46164  1  1  0  0  0
 47 43  1  0  0  0  0
 47 45  1  0  0  0  0
 47165  1  0  0  0  0
 47166  1  0  0  0  0
 48 45  1  0  0  0  0
 49 43  1  0  0  0  0
 49 54  1  0  0  0  0
 49167  1  6  0  0  0
 51 48  1  0  0  0  0
 51 49  1  0  0  0  0
 51 56  1  0  0  0  0
 51168  1  6  0  0  0
 52169  1  0  0  0  0
 53170  1  0  0  0  0
 54171  1  0  0  0  0
 55172  1  0  0  0  0
 55173  1  0  0  0  0
 55174  1  0  0  0  0
 56175  1  0  0  0  0
 56176  1  0  0  0  0
 56177  1  0  0  0  0
 57 14  1  0  0  0  0
 58 59  1  0  0  0  0
 58178  1  0  0  0  0
 58179  1  0  0  0  0
 59180  1  0  0  0  0
 60 24  2  0  0  0  0
 60 28  1  0  0  0  0
 60181  1  0  0  0  0
 61 76  1  0  0  0  0
 61182  1  6  0  0  0
 62183  1  0  0  0  0
 63 61  1  0  0  0  0
 64 87  1  0  0  0  0
 65 63  1  0  0  0  0
 65184  1  0  0  0  0
 66 62  1  0  0  0  0
 66 64  1  0  0  0  0
 66185  1  6  0  0  0
 67 62  1  0  0  0  0
 68 65  1  0  0  0  0
 68 67  1  0  0  0  0
 68 72  1  0  0  0  0
 68186  1  6  0  0  0
 69 63  2  0  0  0  0
 70 64  2  0  0  0  0
 71 67  2  0  0  0  0
 72 73  1  0  0  0  0
 72187  1  0  0  0  0
 72188  1  0  0  0  0
 73 75  2  0  0  0  0
 73 74  1  0  0  0  0
 74189  1  0  0  0  0
 74190  1  0  0  0  0
 76191  1  0  0  0  0
 77 76  1  0  0  0  0
 78 77  1  0  0  0  0
 78 81  1  0  0  0  0
 78192  1  6  0  0  0
 79 77  2  0  0  0  0
 80 78  1  0  0  0  0
 80193  1  0  0  0  0
 80194  1  0  0  0  0
 81195  1  0  0  0  0
 82 80  1  0  0  0  0
 82196  1  0  0  0  0
 83 81  1  0  0  0  0
 83197  1  0  0  0  0
 83198  1  0  0  0  0
 83199  1  0  0  0  0
 84 82  1  0  0  0  0
 84200  1  0  0  0  0
 84201  1  0  0  0  0
 84202  1  0  0  0  0
 85 82  1  0  0  0  0
 85203  1  0  0  0  0
 85204  1  0  0  0  0
 85205  1  0  0  0  0
 86 90  1  0  0  0  0
 86206  1  1  0  0  0
 87207  1  0  0  0  0
 88101  1  0  0  0  0
 88 87  1  0  0  0  0
 88 91  1  0  0  0  0
 88208  1  1  0  0  0
 89 98  2  0  0  0  0
 90209  1  0  0  0  0
 91 90  1  0  0  0  0
 91 92  2  0  0  0  0
 93 94  2  0  0  0  0
 93 95  1  0  0  0  0
 95210  1  0  0  0  0
 96 93  1  0  0  0  0
 96106  1  0  0  0  0
 96 97  1  0  0  0  0
 96211  1  6  0  0  0
 97212  1  0  0  0  0
 98 86  1  0  0  0  0
 98 97  1  0  0  0  0
100 99  2  0  0  0  0
101102  2  0  0  0  0
102 99  1  0  0  0  0
102213  1  0  0  0  0
103104  2  0  0  0  0
103100  1  0  0  0  0
103214  1  0  0  0  0
104101  1  0  0  0  0
104215  1  0  0  0  0
105100  1  0  0  0  0
105216  1  0  0  0  0
106107  2  0  0  0  0
106109  1  0  0  0  0
107110  1  0  0  0  0
107217  1  0  0  0  0
108112  1  0  0  0  0
108114  1  0  0  0  0
109 99  1  0  0  0  0
110108  2  0  0  0  0
110111  1  0  0  0  0
111218  1  0  0  0  0
112109  2  0  0  0  0
112113  1  0  0  0  0
113219  1  0  0  0  0
114115  1  0  0  0  0
114220  1  0  0  0  0
114221  1  0  0  0  0
115116  1  0  0  0  0
115222  1  0  0  0  0
116117  1  0  0  0  0
116223  1  0  0  0  0
116224  1  0  0  0  0
117118  1  0  0  0  0
117119  2  0  0  0  0
117120  1  0  0  0  0
118225  1  0  0  0  0
120226  1  0  0  0  0
121227  1  0  0  0  0
M  END
>  <DRUGBANK_ID>
DB06402

>  <COMMON_NAME>
Telavancin

>  <CAS_NUMBER>
372151-71-8

>  <UNII>
XK134822Z0

>  <SYNONYMS>
Telavancin; Telavancina; Télavancine; Telavancinum

$$$$
