
 OpenBabel10282417072D

 72 74  0  0  0  0  0  0  0  0999 V2000
   10.5407  -10.0395    0.0000 C   0  0  2  0  0  0  0  0  0  0  0  0
    9.8276   -9.6265    0.0000 O   0  0  0  0  0  0  0  0  0  0  0  0
   10.5407  -10.8601    0.0000 C   0  0  0  0  0  0  0  0  0  0  0  0
   11.8495  -11.0230    0.0000 O   0  0  0  0  0  0  0  0  0  0  0  0
   11.2456   -9.6265    0.0000 C   0  0  0  0  0  0  0  0  0  0  0  0
    9.1155  -10.0395    0.0000 C   0  0  2  0  0  0  0  0  0  0  0  0
    9.8276  -11.2837    0.0000 C   0  0  1  0  0  0  0  0  0  0  0  0
   12.6745  -11.0230    0.0000 P   0  0  3  0  0  0  0  0  0  0  0  0
   11.2707   -8.8096    0.0000 O   0  0  0  0  0  0  0  0  0  0  0  0
   11.9507  -10.0395    0.0000 O   0  0  0  0  0  0  0  0  0  0  0  0
    9.1155  -10.8601    0.0000 C   0  0  1  0  0  0  0  0  0  0  0  0
    9.8312  -12.0972    0.0000 O   0  0  0  0  0  0  0  0  0  0  0  0
   13.4880  -11.0230    0.0000 O   0  0  0  0  0  0  0  0  0  0  0  0
   12.6745  -11.8408    0.0000 O   0  0  0  0  0  0  0  0  0  0  0  0
   12.6745  -10.2017    0.0000 O   0  0  0  0  0  0  0  0  0  0  0  0
   14.3094  -11.0230    0.0000 C   0  0  0  0  0  0  0  0  0  0  0  0
   15.0869  -11.2657    0.0000 C   0  0  1  0  0  0  0  0  0  0  0  0
   15.7489  -10.7839    0.0000 O   0  0  0  0  0  0  0  0  0  0  0  0
   15.3475  -12.0433    0.0000 C   0  0  2  0  0  0  0  0  0  0  0  0
   16.4215  -11.2765    0.0000 C   0  0  2  0  0  0  0  0  0  0  0  0
   16.1797  -12.0433    0.0000 C   0  0  2  0  0  0  0  0  0  0  0  0
   14.8773  -12.7089    0.0000 O   0  0  0  0  0  0  0  0  0  0  0  0
   16.9429   -9.9052    0.0000 N   0  0  0  0  0  0  0  0  0  0  0  0
   16.6606  -12.7017    0.0000 O   0  0  0  0  0  0  0  0  0  0  0  0
   16.2263   -9.4894    0.0000 C   0  0  0  0  0  0  0  0  0  0  0  0
   17.6587   -9.5038    0.0000 C   0  0  0  0  0  0  0  0  0  0  0  0
   16.2012   -8.6681    0.0000 N   0  0  0  0  0  0  0  0  0  0  0  0
   15.5212   -9.8943    0.0000 O   0  0  0  0  0  0  0  0  0  0  0  0
   17.6587   -8.6717    0.0000 C   0  0  0  0  0  0  0  0  0  0  0  0
   16.9464   -8.2560    0.0000 C   0  0  0  0  0  0  0  0  0  0  0  0
   16.9464   -7.4381    0.0000 N   0  0  0  0  0  0  0  0  0  0  0  0
    8.3673   -9.5945    0.0000 C   0  0  1  0  0  0  0  0  0  0  0  0
    8.3703   -8.7350    0.0000 C   0  0  1  0  0  0  0  0  0  0  0  0
    7.6275   -8.3027    0.0000 C   0  0  0  0  0  0  0  0  0  0  0  0
    7.6304   -7.4433    0.0000 O   0  0  0  0  0  0  0  0  0  0  0  0
    8.3654  -11.2867    0.0000 N   0  0  0  0  0  0  0  0  0  0  0  0
    8.3652  -10.4565    0.0000 H   0  0  0  0  0  0  0  0  0  0  0  0
    9.1101   -8.3079    0.0000 O   0  0  0  0  0  0  0  0  0  0  0  0
    7.6168  -10.0196    0.0000 O   0  0  0  0  0  0  0  0  0  0  0  0
    8.3652  -12.1468    0.0000 C   0  0  0  0  0  0  0  0  0  0  0  0
    9.1101  -12.5765    0.0000 O   0  0  0  0  0  0  0  0  0  0  0  0
    7.6210  -12.5765    0.0000 C   0  0  0  0  0  0  0  0  0  0  0  0
   11.4707  -11.3893    0.0000 H   0  0  0  0  0  0  0  0  0  0  0  0
   10.5507  -11.9301    0.0000 H   0  0  0  0  0  0  0  0  0  0  0  0
   10.7587  -11.8109    0.0000 H   0  0  0  0  0  0  0  0  0  0  0  0
   12.0962   -8.3662    0.0000 H   0  0  0  0  0  0  0  0  0  0  0  0
    8.1906  -10.3221    0.0000 H   0  0  0  0  0  0  0  0  0  0  0  0
    8.9933  -12.5859    0.0000 H   0  0  0  0  0  0  0  0  0  0  0  0
   11.8345  -12.3258    0.0000 H   0  0  0  0  0  0  0  0  0  0  0  0
   14.4707   -9.9652    0.0000 H   0  0  0  0  0  0  0  0  0  0  0  0
   15.2168  -10.4560    0.0000 H   0  0  0  0  0  0  0  0  0  0  0  0
   14.9130  -10.2099    0.0000 H   0  0  0  0  0  0  0  0  0  0  0  0
   14.2889  -11.8878    0.0000 H   0  0  0  0  0  0  0  0  0  0  0  0
   16.1179  -10.2505    0.0000 H   0  0  0  0  0  0  0  0  0  0  0  0
   15.6951  -12.9973    0.0000 H   0  0  0  0  0  0  0  0  0  0  0  0
   13.9114  -12.6203    0.0000 H   0  0  0  0  0  0  0  0  0  0  0  0
   16.2683  -13.5888    0.0000 H   0  0  0  0  0  0  0  0  0  0  0  0
   18.5492  -10.0254    0.0000 H   0  0  0  0  0  0  0  0  0  0  0  0
   18.5536   -8.1578    0.0000 H   0  0  0  0  0  0  0  0  0  0  0  0
   17.7990   -6.9459    0.0000 H   0  0  0  0  0  0  0  0  0  0  0  0
   16.0938   -6.9459    0.0000 H   0  0  0  0  0  0  0  0  0  0  0  0
    8.3560  -10.6644    0.0000 H   0  0  0  0  0  0  0  0  0  0  0  0
    9.2960   -9.2716    0.0000 H   0  0  0  0  0  0  0  0  0  0  0  0
    6.6990   -8.8345    0.0000 H   0  0  0  0  0  0  0  0  0  0  0  0
    6.7027   -7.7646    0.0000 H   0  0  0  0  0  0  0  0  0  0  0  0
    8.4721   -6.9611    0.0000 H   0  0  0  0  0  0  0  0  0  0  0  0
    7.5145  -10.7916    0.0000 H   0  0  0  0  0  0  0  0  0  0  0  0
    9.9501   -8.7929    0.0000 H   0  0  0  0  0  0  0  0  0  0  0  0
    6.7808   -9.5277    0.0000 H   0  0  0  0  0  0  0  0  0  0  0  0
    6.6943  -12.0415    0.0000 H   0  0  0  0  0  0  0  0  0  0  0  0
    7.6210  -13.6465    0.0000 H   0  0  0  0  0  0  0  0  0  0  0  0
    6.6944  -13.1115    0.0000 H   0  0  0  0  0  0  0  0  0  0  0  0
  1  2  1  0  0  0  0
  1  3  1  0  0  0  0
  1  4  1  1  0  0  0
  1  5  1  0  0  0  0
  2  6  1  0  0  0  0
  3  7  1  0  0  0  0
  3 43  1  0  0  0  0
  3 44  1  0  0  0  0
  4  8  1  0  0  0  0
  5  9  1  0  0  0  0
  5 10  2  0  0  0  0
  6 11  1  0  0  0  0
  6 32  1  0  0  0  0
  6 37  1  1  0  0  0
  7 12  1  0  0  0  0
  7 11  1  0  0  0  0
  7 45  1  1  0  0  0
  8 13  1  0  0  0  0
  8 14  1  0  0  0  0
  8 15  2  0  0  0  0
  9 46  1  0  0  0  0
 11 36  1  0  0  0  0
 11 47  1  6  0  0  0
 12 48  1  0  0  0  0
 13 16  1  0  0  0  0
 14 49  1  0  0  0  0
 16 50  1  0  0  0  0
 16 51  1  0  0  0  0
 17 16  1  0  0  0  0
 17 18  1  0  0  0  0
 17 19  1  0  0  0  0
 17 52  1  6  0  0  0
 18 20  1  0  0  0  0
 19 21  1  0  0  0  0
 19 22  1  0  0  0  0
 19 53  1  1  0  0  0
 20 23  1  0  0  0  0
 20 21  1  0  0  0  0
 20 54  1  6  0  0  0
 21 24  1  0  0  0  0
 21 55  1  1  0  0  0
 22 56  1  0  0  0  0
 23 25  1  0  0  0  0
 23 26  1  0  0  0  0
 24 57  1  0  0  0  0
 25 27  1  0  0  0  0
 25 28  2  0  0  0  0
 26 29  2  0  0  0  0
 26 58  1  0  0  0  0
 27 30  2  0  0  0  0
 29 30  1  0  0  0  0
 29 59  1  0  0  0  0
 30 31  1  0  0  0  0
 31 60  1  0  0  0  0
 31 61  1  0  0  0  0
 32 33  1  0  0  0  0
 32 39  1  0  0  0  0
 32 62  1  1  0  0  0
 33 34  1  0  0  0  0
 33 38  1  0  0  0  0
 33 63  1  6  0  0  0
 34 35  1  0  0  0  0
 34 64  1  0  0  0  0
 34 65  1  0  0  0  0
 35 66  1  0  0  0  0
 36 40  1  0  0  0  0
 36 67  1  0  0  0  0
 38 68  1  0  0  0  0
 39 69  1  0  0  0  0
 40 41  2  0  0  0  0
 40 42  1  0  0  0  0
 42 70  1  0  0  0  0
 42 71  1  0  0  0  0
 42 72  1  0  0  0  0
M  END
>  <DRUGBANK_ID>
DB02485

>  <SECONDARY_ACCESSION_NUMBERS>
EXPT02309

>  <COMMON_NAME>
Cytidine-5'-Monophosphate-5-N-Acetylneuraminic Acid

>  <UNII>
T8I6M8AXA0

$$$$
