
 OpenBabel10282417072D

 48 51  0  0  0  0  0  0  0  0999 V2000
    4.2868    0.8250    0.0000 C   0  0  0  0  0  0  0  0  0  0  0  0
    2.8579    3.3000    0.0000 C   0  0  0  0  0  0  0  0  0  0  0  0
   -0.3020    2.7770    0.0000 C   0  0  0  0  0  0  0  0  0  0  0  0
   -1.1270    2.7770    0.0000 C   0  0  0  0  0  0  0  0  0  0  0  0
    2.8579    0.8250    0.0000 C   0  0  0  0  0  0  0  0  0  0  0  0
    2.1434    2.0625    0.0000 C   0  0  0  0  0  0  0  0  0  0  0  0
   -1.4289    0.8250    0.0000 C   0  0  0  0  0  0  0  0  0  0  0  0
    3.5724    1.2375    0.0000 C   0  0  1  0  0  0  0  0  0  0  0  0
    2.8579    2.4750    0.0000 C   0  0  2  0  0  0  0  0  0  0  0  0
   -0.7145    2.0625    0.0000 C   0  0  0  0  0  0  0  0  0  0  0  0
   -1.4289   -0.0000    0.0000 C   0  0  0  0  0  0  0  0  0  0  0  0
   -0.0000   -0.0000    0.0000 C   0  0  0  0  0  0  0  0  0  0  0  0
    0.7145   -0.4125    0.0000 C   0  0  0  0  0  0  0  0  0  0  0  0
    1.4289    0.0000    0.0000 C   0  0  0  0  0  0  0  0  0  0  0  0
    0.7145    1.2375    0.0000 C   0  0  0  0  0  0  0  0  0  0  0  0
    0.0000    0.8250    0.0000 C   0  0  0  0  0  0  0  0  0  0  0  0
    1.4289    0.8250    0.0000 C   0  0  0  0  0  0  0  0  0  0  0  0
   -0.7145   -0.4125    0.0000 C   0  0  0  0  0  0  0  0  0  0  0  0
   -2.1434   -0.4125    0.0000 C   0  0  0  0  0  0  0  0  0  0  0  0
    0.7145   -1.2375    0.0000 F   0  0  0  0  0  0  0  0  0  0  0  0
    2.1434   -0.4125    0.0000 F   0  0  0  0  0  0  0  0  0  0  0  0
    0.7145    2.0625    0.0000 F   0  0  0  0  0  0  0  0  0  0  0  0
    3.5724    2.0625    0.0000 N   0  0  0  0  0  0  0  0  0  0  0  0
    2.1434    1.2375    0.0000 N   0  0  0  0  0  0  0  0  0  0  0  0
   -0.7145    1.2375    0.0000 N   0  0  0  0  0  0  0  0  0  0  0  0
   -0.7145   -1.2375    0.0000 O   0  0  0  0  0  0  0  0  0  0  0  0
   -2.1434   -1.2375    0.0000 O   0  0  0  0  0  0  0  0  0  0  0  0
   -2.8579   -0.0000    0.0000 O   0  0  0  0  0  0  0  0  0  0  0  0
    4.2868    1.6500    0.0000 H   0  0  0  0  0  0  0  0  0  0  0  0
    3.5724    2.8875    0.0000 H   0  0  0  0  0  0  0  0  0  0  0  0
    4.2868   -0.2450    0.0000 H   0  0  0  0  0  0  0  0  0  0  0  0
    5.2135    1.3600    0.0000 H   0  0  0  0  0  0  0  0  0  0  0  0
    5.2134    0.2900    0.0000 H   0  0  0  0  0  0  0  0  0  0  0  0
    3.7845    3.8350    0.0000 H   0  0  0  0  0  0  0  0  0  0  0  0
    1.9313    3.8350    0.0000 H   0  0  0  0  0  0  0  0  0  0  0  0
    2.8579    4.3700    0.0000 H   0  0  0  0  0  0  0  0  0  0  0  0
    0.6246    3.3120    0.0000 H   0  0  0  0  0  0  0  0  0  0  0  0
    0.4546    2.0204    0.0000 H   0  0  0  0  0  0  0  0  0  0  0  0
   -2.0536    3.3120    0.0000 H   0  0  0  0  0  0  0  0  0  0  0  0
   -1.8836    2.0204    0.0000 H   0  0  0  0  0  0  0  0  0  0  0  0
    2.8579   -0.2450    0.0000 H   0  0  0  0  0  0  0  0  0  0  0  0
    1.9313    0.2900    0.0000 H   0  0  0  0  0  0  0  0  0  0  0  0
    1.2168    2.5975    0.0000 H   0  0  0  0  0  0  0  0  0  0  0  0
    1.2168    1.5275    0.0000 H   0  0  0  0  0  0  0  0  0  0  0  0
   -2.3226    1.3410    0.0000 H   0  0  0  0  0  0  0  0  0  0  0  0
   -1.7480    1.7856    0.0000 H   0  0  0  0  0  0  0  0  0  0  0  0
    4.4557    2.5725    0.0000 H   0  0  0  0  0  0  0  0  0  0  0  0
   -2.8579    0.9370    0.0000 H   0  0  0  0  0  0  0  0  0  0  0  0
  1 31  1  0  0  0  0
  1 32  1  0  0  0  0
  1 33  1  0  0  0  0
  2 34  1  0  0  0  0
  2 35  1  0  0  0  0
  2 36  1  0  0  0  0
  3 37  1  0  0  0  0
  3 38  1  0  0  0  0
  4  3  1  0  0  0  0
  4 39  1  0  0  0  0
  4 40  1  0  0  0  0
  5 41  1  0  0  0  0
  5 42  1  0  0  0  0
  6 43  1  0  0  0  0
  6 44  1  0  0  0  0
  7 45  1  0  0  0  0
  8  1  1  0  0  0  0
  8  5  1  0  0  0  0
  8 29  1  6  0  0  0
  9  2  1  0  0  0  0
  9  6  1  0  0  0  0
  9 30  1  6  0  0  0
 10  3  1  0  0  0  0
 10  4  1  0  0  0  0
 10 46  1  0  0  0  0
 11  7  2  0  0  0  0
 13 12  2  0  0  0  0
 14 13  1  0  0  0  0
 16 12  1  0  0  0  0
 16 15  2  0  0  0  0
 17 14  2  0  0  0  0
 17 15  1  0  0  0  0
 18 11  1  0  0  0  0
 18 12  1  0  0  0  0
 19 11  1  0  0  0  0
 20 13  1  0  0  0  0
 21 14  1  0  0  0  0
 22 15  1  0  0  0  0
 23  8  1  0  0  0  0
 23  9  1  0  0  0  0
 23 47  1  0  0  0  0
 24  5  1  0  0  0  0
 24  6  1  0  0  0  0
 24 17  1  0  0  0  0
 25  7  1  0  0  0  0
 25 10  1  0  0  0  0
 25 16  1  0  0  0  0
 26 18  2  0  0  0  0
 27 19  2  0  0  0  0
 28 19  1  0  0  0  0
 28 48  1  0  0  0  0
M  END
>  <DRUGBANK_ID>
DB11443

>  <COMMON_NAME>
Orbifloxacin

>  <CAS_NUMBER>
113617-63-3

>  <UNII>
660932TPY6

>  <SYNONYMS>
Orbifloxacin

$$$$
