
 OpenBabel10282417072D

168172  0  0  0  0  0  0  0  0999 V2000
   -7.0381    0.5437    0.0000 C   0  0  2  0  0  0  0  0  0  0  0  0
   -6.3237    0.9563    0.0000 C   0  0  0  0  0  0  0  0  0  0  0  0
   -5.6092    0.5437    0.0000 N   0  0  0  0  0  0  0  0  0  0  0  0
   -4.8947    0.9563    0.0000 C   0  0  2  0  0  0  0  0  0  0  0  0
   -4.1802    0.5437    0.0000 C   0  0  0  0  0  0  0  0  0  0  0  0
   -3.4657    0.9563    0.0000 N   0  0  0  0  0  0  0  0  0  0  0  0
   -2.7512    0.5437    0.0000 C   0  0  2  0  0  0  0  0  0  0  0  0
   -2.0367    0.9563    0.0000 C   0  0  0  0  0  0  0  0  0  0  0  0
   -1.3222    0.5437    0.0000 N   0  0  0  0  0  0  0  0  0  0  0  0
   -0.6078    0.9563    0.0000 C   0  0  2  0  0  0  0  0  0  0  0  0
    0.1066    0.5437    0.0000 C   0  0  0  0  0  0  0  0  0  0  0  0
    0.8212    0.9563    0.0000 N   0  0  0  0  0  0  0  0  0  0  0  0
    1.5356    0.5437    0.0000 N   0  0  0  0  0  0  0  0  0  0  0  0
    2.2501    0.9563    0.0000 C   0  0  0  0  0  0  0  0  0  0  0  0
    2.9646    0.5437    0.0000 N   0  0  0  0  0  0  0  0  0  0  0  0
    3.6791    0.9563    0.0000 C   0  0  2  0  0  0  0  0  0  0  0  0
    4.3936    0.5437    0.0000 C   0  0  0  0  0  0  0  0  0  0  0  0
    5.1081    0.9563    0.0000 N   0  0  0  0  0  0  0  0  0  0  0  0
    5.8226    0.5437    0.0000 C   0  0  2  0  0  0  0  0  0  0  0  0
    6.5371    0.9563    0.0000 C   0  0  0  0  0  0  0  0  0  0  0  0
    7.2515    0.5437    0.0000 N   0  0  0  0  0  0  0  0  0  0  0  0
    7.9660    0.9563    0.0000 C   0  0  2  0  0  0  0  0  0  0  0  0
    8.6805    0.5437    0.0000 C   0  0  0  0  0  0  0  0  0  0  0  0
    9.3950    0.9563    0.0000 N   0  0  0  0  0  0  0  0  0  0  0  0
   -7.7526    0.9563    0.0000 C   0  0  0  0  0  0  0  0  0  0  0  0
   -7.2236   -0.2775    0.0000 N   0  0  0  0  0  0  0  0  0  0  0  0
   -8.0248   -0.3584    0.0000 C   0  0  0  0  0  0  0  0  0  0  0  0
   -8.3569    0.4013    0.0000 C   0  0  2  0  0  0  0  0  0  0  0  0
   -6.3237    1.7813    0.0000 O   0  0  0  0  0  0  0  0  0  0  0  0
   -4.1802   -0.2812    0.0000 O   0  0  0  0  0  0  0  0  0  0  0  0
   -2.0367    1.7813    0.0000 O   0  0  0  0  0  0  0  0  0  0  0  0
    0.1066   -0.2812    0.0000 O   0  0  0  0  0  0  0  0  0  0  0  0
    2.2501    1.7813    0.0000 O   0  0  0  0  0  0  0  0  0  0  0  0
    4.3936   -0.2812    0.0000 O   0  0  0  0  0  0  0  0  0  0  0  0
    6.5371    1.7813    0.0000 O   0  0  0  0  0  0  0  0  0  0  0  0
    8.6805   -0.2812    0.0000 O   0  0  0  0  0  0  0  0  0  0  0  0
    7.9660    1.7813    0.0000 C   0  0  0  0  0  0  0  0  0  0  0  0
    8.6805    2.1938    0.0000 C   0  0  0  0  0  0  0  0  0  0  0  0
    9.4356    1.8616    0.0000 C   0  0  0  0  0  0  0  0  0  0  0  0
    9.9818    2.4704    0.0000 N   0  0  0  0  0  0  0  0  0  0  0  0
    9.5707    3.1824    0.0000 C   0  0  0  0  0  0  0  0  0  0  0  0
    8.7704    3.0138    0.0000 C   0  0  0  0  0  0  0  0  0  0  0  0
    8.2264    3.6209    0.0000 C   0  0  0  0  0  0  0  0  0  0  0  0
    8.4802    4.3985    0.0000 C   0  0  0  0  0  0  0  0  0  0  0  0
    9.2761    4.5681    0.0000 C   0  0  0  0  0  0  0  0  0  0  0  0
    9.8256    3.9631    0.0000 C   0  0  0  0  0  0  0  0  0  0  0  0
    3.6791    1.7813    0.0000 C   0  0  0  0  0  0  0  0  0  0  0  0
    4.3936    2.1938    0.0000 C   0  0  0  0  0  0  0  0  0  0  0  0
    4.3936    3.0188    0.0000 C   0  0  0  0  0  0  0  0  0  0  0  0
    5.1081    1.7813    0.0000 C   0  0  0  0  0  0  0  0  0  0  0  0
    5.8226   -0.2812    0.0000 C   0  0  0  0  0  0  0  0  0  0  0  0
    6.2351   -0.9957    0.0000 C   0  0  0  0  0  0  0  0  0  0  0  0
    5.8226   -1.7101    0.0000 C   0  0  0  0  0  0  0  0  0  0  0  0
    6.2351   -2.4246    0.0000 N   0  0  0  0  0  0  0  0  0  0  0  0
    5.8226   -3.1392    0.0000 C   0  0  0  0  0  0  0  0  0  0  0  0
    6.2351   -3.8536    0.0000 N   0  0  0  0  0  0  0  0  0  0  0  0
    5.8226   -4.5681    0.0000 C   0  0  0  0  0  0  0  0  0  0  0  0
    4.9975   -3.1392    0.0000 N   0  0  0  0  0  0  0  0  0  0  0  0
   -4.8947    1.7813    0.0000 C   0  0  0  0  0  0  0  0  0  0  0  0
   -4.4822    2.4958    0.0000 C   0  0  0  0  0  0  0  0  0  0  0  0
   -4.8947    3.2103    0.0000 N   0  0  0  0  0  0  0  0  0  0  0  0
   -3.6571    2.4958    0.0000 O   0  0  0  0  0  0  0  0  0  0  0  0
   -0.6078    1.7813    0.0000 C   0  0  0  0  0  0  0  0  0  0  0  0
    0.1066    2.1938    0.0000 C   0  0  0  0  0  0  0  0  0  0  0  0
    0.1069    3.0189    0.0000 C   0  0  0  0  0  0  0  0  0  0  0  0
    0.8196    3.4295    0.0000 C   0  0  0  0  0  0  0  0  0  0  0  0
    1.5343    3.0169    0.0000 C   0  0  0  0  0  0  0  0  0  0  0  0
    1.5359    2.1959    0.0000 C   0  0  0  0  0  0  0  0  0  0  0  0
    0.8242    1.7795    0.0000 C   0  0  0  0  0  0  0  0  0  0  0  0
   -2.7512   -0.2812    0.0000 C   0  0  2  0  0  0  0  0  0  0  0  0
   -2.0367   -0.6937    0.0000 O   0  0  0  0  0  0  0  0  0  0  0  0
   -3.4657   -0.6937    0.0000 C   0  0  0  0  0  0  0  0  0  0  0  0
   -9.1539    0.6148    0.0000 O   0  0  0  0  0  0  0  0  0  0  0  0
   -7.0068    1.2115    0.0000 H   0  0  0  0  0  0  0  0  0  0  0  0
   -6.4266   -0.4911    0.0000 C   0  0  0  0  0  0  0  0  0  0  0  0
   -6.2131   -1.2879    0.0000 C   0  0  2  0  0  0  0  0  0  0  0  0
   -5.4162   -1.5015    0.0000 N   0  0  0  0  0  0  0  0  0  0  0  0
   -5.2027   -2.2984    0.0000 C   0  0  0  0  0  0  0  0  0  0  0  0
   -4.4058   -2.5120    0.0000 C   0  0  0  0  0  0  0  0  0  0  0  0
   -6.7965   -1.8714    0.0000 C   0  0  0  0  0  0  0  0  0  0  0  0
   -7.5934   -1.6578    0.0000 C   0  0  0  0  0  0  0  0  0  0  0  0
   -8.1770   -2.2411    0.0000 C   0  0  0  0  0  0  0  0  0  0  0  0
   -8.9713   -2.0274    0.0000 C   0  0  0  0  0  0  0  0  0  0  0  0
   -9.1849   -1.2303    0.0000 C   0  0  0  0  0  0  0  0  0  0  0  0
   -8.6055   -0.6487    0.0000 C   0  0  0  0  0  0  0  0  0  0  0  0
   -7.8078   -0.8575    0.0000 C   0  0  0  0  0  0  0  0  0  0  0  0
   -5.8432    0.0922    0.0000 O   0  0  0  0  0  0  0  0  0  0  0  0
   -5.7860   -2.8818    0.0000 O   0  0  0  0  0  0  0  0  0  0  0  0
   -9.9818   -1.0168    0.0000 O   0  0  0  0  0  0  0  0  0  0  0  0
   -5.6092   -0.4408    0.0000 H   0  0  0  0  0  0  0  0  0  0  0  0
   -5.8214    1.4913    0.0000 H   0  0  0  0  0  0  0  0  0  0  0  0
   -3.4657    1.9408    0.0000 H   0  0  0  0  0  0  0  0  0  0  0  0
   -3.6779    0.0087    0.0000 H   0  0  0  0  0  0  0  0  0  0  0  0
   -1.3222   -0.4408    0.0000 H   0  0  0  0  0  0  0  0  0  0  0  0
   -1.5345    1.4912    0.0000 H   0  0  0  0  0  0  0  0  0  0  0  0
    0.8213    1.9408    0.0000 H   0  0  0  0  0  0  0  0  0  0  0  0
    1.5356   -0.4408    0.0000 H   0  0  0  0  0  0  0  0  0  0  0  0
    2.9646   -0.4408    0.0000 H   0  0  0  0  0  0  0  0  0  0  0  0
    2.7524    1.4913    0.0000 H   0  0  0  0  0  0  0  0  0  0  0  0
    5.1081    1.9408    0.0000 H   0  0  0  0  0  0  0  0  0  0  0  0
    4.8959    0.0087    0.0000 H   0  0  0  0  0  0  0  0  0  0  0  0
    7.2515   -0.4408    0.0000 H   0  0  0  0  0  0  0  0  0  0  0  0
    7.0393    1.4913    0.0000 H   0  0  0  0  0  0  0  0  0  0  0  0
   10.2476    0.4641    0.0000 H   0  0  0  0  0  0  0  0  0  0  0  0
    9.3949    1.9408    0.0000 H   0  0  0  0  0  0  0  0  0  0  0  0
   -7.8696    2.0199    0.0000 H   0  0  0  0  0  0  0  0  0  0  0  0
   -8.7543    1.3324    0.0000 H   0  0  0  0  0  0  0  0  0  0  0  0
   -8.5648   -1.2821    0.0000 H   0  0  0  0  0  0  0  0  0  0  0  0
   -9.0930   -0.2959    0.0000 H   0  0  0  0  0  0  0  0  0  0  0  0
   -9.0545   -0.4100    0.0000 H   0  0  0  0  0  0  0  0  0  0  0  0
    7.0394    2.3163    0.0000 H   0  0  0  0  0  0  0  0  0  0  0  0
    7.9660    2.8513    0.0000 H   0  0  0  0  0  0  0  0  0  0  0  0
    9.6533    0.8528    0.0000 H   0  0  0  0  0  0  0  0  0  0  0  0
   10.9610    2.3684    0.0000 H   0  0  0  0  0  0  0  0  0  0  0  0
    7.2166    3.4082    0.0000 H   0  0  0  0  0  0  0  0  0  0  0  0
    7.7900    5.1657    0.0000 H   0  0  0  0  0  0  0  0  0  0  0  0
    9.5926    5.5504    0.0000 H   0  0  0  0  0  0  0  0  0  0  0  0
   10.8347    4.1791    0.0000 H   0  0  0  0  0  0  0  0  0  0  0  0
    2.7525    2.3163    0.0000 H   0  0  0  0  0  0  0  0  0  0  0  0
    3.6791    2.8513    0.0000 H   0  0  0  0  0  0  0  0  0  0  0  0
    5.3202    2.7288    0.0000 H   0  0  0  0  0  0  0  0  0  0  0  0
    5.3202    3.5538    0.0000 H   0  0  0  0  0  0  0  0  0  0  0  0
    3.4670    3.5538    0.0000 H   0  0  0  0  0  0  0  0  0  0  0  0
    4.3936    4.0888    0.0000 H   0  0  0  0  0  0  0  0  0  0  0  0
    5.1081    0.7113    0.0000 H   0  0  0  0  0  0  0  0  0  0  0  0
    6.0347    2.3163    0.0000 H   0  0  0  0  0  0  0  0  0  0  0  0
    6.0348    1.2463    0.0000 H   0  0  0  0  0  0  0  0  0  0  0  0
    4.7891   -0.5581    0.0000 H   0  0  0  0  0  0  0  0  0  0  0  0
    5.4131   -1.2697    0.0000 H   0  0  0  0  0  0  0  0  0  0  0  0
    7.3051   -0.9957    0.0000 H   0  0  0  0  0  0  0  0  0  0  0  0
    6.7701   -1.9224    0.0000 H   0  0  0  0  0  0  0  0  0  0  0  0
    4.7526   -1.7101    0.0000 H   0  0  0  0  0  0  0  0  0  0  0  0
    5.2876   -2.6367    0.0000 H   0  0  0  0  0  0  0  0  0  0  0  0
    7.2196   -2.4246    0.0000 H   0  0  0  0  0  0  0  0  0  0  0  0
    7.2196   -3.8536    0.0000 H   0  0  0  0  0  0  0  0  0  0  0  0
    4.7526   -4.5681    0.0000 H   0  0  0  0  0  0  0  0  0  0  0  0
    6.3576   -5.4947    0.0000 H   0  0  0  0  0  0  0  0  0  0  0  0
    5.2876   -5.4948    0.0000 H   0  0  0  0  0  0  0  0  0  0  0  0
    4.5052   -2.2866    0.0000 H   0  0  0  0  0  0  0  0  0  0  0  0
   -5.9282    2.0582    0.0000 H   0  0  0  0  0  0  0  0  0  0  0  0
   -5.3042    2.7698    0.0000 H   0  0  0  0  0  0  0  0  0  0  0  0
   -4.4024    4.0629    0.0000 H   0  0  0  0  0  0  0  0  0  0  0  0
   -5.8792    3.2103    0.0000 H   0  0  0  0  0  0  0  0  0  0  0  0
   -1.5345    2.3163    0.0000 H   0  0  0  0  0  0  0  0  0  0  0  0
   -0.6078    2.8513    0.0000 H   0  0  0  0  0  0  0  0  0  0  0  0
   -0.7865    3.5355    0.0000 H   0  0  0  0  0  0  0  0  0  0  0  0
    0.8201    4.4615    0.0000 H   0  0  0  0  0  0  0  0  0  0  0  0
    2.4275    3.5338    0.0000 H   0  0  0  0  0  0  0  0  0  0  0  0
    2.4316    1.6834    0.0000 H   0  0  0  0  0  0  0  0  0  0  0  0
    0.8272    0.7475    0.0000 H   0  0  0  0  0  0  0  0  0  0  0  0
   -3.6778    0.2538    0.0000 H   0  0  0  0  0  0  0  0  0  0  0  0
   -2.0367   -1.6637    0.0000 H   0  0  0  0  0  0  0  0  0  0  0  0
   -4.3923   -0.1587    0.0000 H   0  0  0  0  0  0  0  0  0  0  0  0
   -3.4657   -1.7637    0.0000 H   0  0  0  0  0  0  0  0  0  0  0  0
   -4.3924   -1.2287    0.0000 H   0  0  0  0  0  0  0  0  0  0  0  0
   -9.4050    1.5517    0.0000 H   0  0  0  0  0  0  0  0  0  0  0  0
   -7.2467   -1.0110    0.0000 H   0  0  0  0  0  0  0  0  0  0  0  0
   -4.7200   -0.8054    0.0000 H   0  0  0  0  0  0  0  0  0  0  0  0
   -4.1289   -3.5456    0.0000 H   0  0  0  0  0  0  0  0  0  0  0  0
   -3.6491   -1.7555    0.0000 H   0  0  0  0  0  0  0  0  0  0  0  0
   -3.3723   -2.7890    0.0000 H   0  0  0  0  0  0  0  0  0  0  0  0
   -6.5196   -2.9049    0.0000 H   0  0  0  0  0  0  0  0  0  0  0  0
   -7.5531   -2.6280    0.0000 H   0  0  0  0  0  0  0  0  0  0  0  0
   -7.9105   -3.2381    0.0000 H   0  0  0  0  0  0  0  0  0  0  0  0
   -9.7014   -2.7568    0.0000 H   0  0  0  0  0  0  0  0  0  0  0  0
   -8.8764    0.3471    0.0000 H   0  0  0  0  0  0  0  0  0  0  0  0
   -7.0802   -0.1257    0.0000 H   0  0  0  0  0  0  0  0  0  0  0  0
  -10.2243   -0.1117    0.0000 H   0  0  0  0  0  0  0  0  0  0  0  0
  1  2  1  0  0  0  0
  1 25  1  0  0  0  0
  1 26  1  0  0  0  0
  1 74  1  6  0  0  0
  2  3  1  0  0  0  0
  2 29  2  0  0  0  0
  3  4  1  0  0  0  0
  3 90  1  0  0  0  0
  4  5  1  0  0  0  0
  4 59  1  0  0  0  0
  4 91  1  6  0  0  0
  5  6  1  0  0  0  0
  5 30  2  0  0  0  0
  6  7  1  0  0  0  0
  6 92  1  0  0  0  0
  7  8  1  0  0  0  0
  7 70  1  0  0  0  0
  7 93  1  1  0  0  0
  8  9  1  0  0  0  0
  8 31  2  0  0  0  0
  9 10  1  0  0  0  0
  9 94  1  0  0  0  0
 10 11  1  0  0  0  0
 10 63  1  0  0  0  0
 10 95  1  6  0  0  0
 11 12  1  0  0  0  0
 11 32  2  0  0  0  0
 12 13  1  0  0  0  0
 12 96  1  0  0  0  0
 13 14  1  0  0  0  0
 13 97  1  0  0  0  0
 14 15  1  0  0  0  0
 14 33  2  0  0  0  0
 15 16  1  0  0  0  0
 15 98  1  0  0  0  0
 16 17  1  0  0  0  0
 16 47  1  0  0  0  0
 16 99  1  6  0  0  0
 17 18  1  0  0  0  0
 17 34  2  0  0  0  0
 18 19  1  0  0  0  0
 18100  1  0  0  0  0
 19 20  1  0  0  0  0
 19 51  1  0  0  0  0
 19101  1  1  0  0  0
 20 21  1  0  0  0  0
 20 35  2  0  0  0  0
 21 22  1  0  0  0  0
 21102  1  0  0  0  0
 22 23  1  0  0  0  0
 22 37  1  0  0  0  0
 22103  1  6  0  0  0
 23 24  1  0  0  0  0
 23 36  2  0  0  0  0
 24104  1  0  0  0  0
 24105  1  0  0  0  0
 25 28  1  0  0  0  0
 25106  1  0  0  0  0
 25107  1  0  0  0  0
 26 27  1  0  0  0  0
 26 75  1  0  0  0  0
 27108  1  0  0  0  0
 27109  1  0  0  0  0
 28 27  1  0  0  0  0
 28 73  1  0  0  0  0
 28110  1  1  0  0  0
 37 38  1  0  0  0  0
 37111  1  0  0  0  0
 37112  1  0  0  0  0
 39 38  2  0  0  0  0
 39 40  1  0  0  0  0
 39113  1  0  0  0  0
 40 41  1  0  0  0  0
 40114  1  0  0  0  0
 41 42  2  0  0  0  0
 41 46  1  0  0  0  0
 42 38  1  0  0  0  0
 42 43  1  0  0  0  0
 43115  1  0  0  0  0
 44 43  2  0  0  0  0
 44116  1  0  0  0  0
 45 44  1  0  0  0  0
 45117  1  0  0  0  0
 46 45  2  0  0  0  0
 46118  1  0  0  0  0
 47 48  1  0  0  0  0
 47119  1  0  0  0  0
 47120  1  0  0  0  0
 48 49  1  0  0  0  0
 48 50  1  0  0  0  0
 48121  1  0  0  0  0
 49122  1  0  0  0  0
 49123  1  0  0  0  0
 49124  1  0  0  0  0
 50125  1  0  0  0  0
 50126  1  0  0  0  0
 50127  1  0  0  0  0
 51 52  1  0  0  0  0
 51128  1  0  0  0  0
 51129  1  0  0  0  0
 52 53  1  0  0  0  0
 52130  1  0  0  0  0
 52131  1  0  0  0  0
 53 54  1  0  0  0  0
 53132  1  0  0  0  0
 53133  1  0  0  0  0
 54 55  1  0  0  0  0
 54134  1  0  0  0  0
 55 56  1  0  0  0  0
 55 58  2  0  0  0  0
 56 57  1  0  0  0  0
 56135  1  0  0  0  0
 57136  1  0  0  0  0
 57137  1  0  0  0  0
 57138  1  0  0  0  0
 58139  1  0  0  0  0
 59 60  1  0  0  0  0
 59140  1  0  0  0  0
 59141  1  0  0  0  0
 60 61  1  0  0  0  0
 60 62  2  0  0  0  0
 61142  1  0  0  0  0
 61143  1  0  0  0  0
 63 64  1  0  0  0  0
 63144  1  0  0  0  0
 63145  1  0  0  0  0
 64 69  1  0  0  0  0
 65 64  2  0  0  0  0
 65146  1  0  0  0  0
 66 65  1  0  0  0  0
 66147  1  0  0  0  0
 67 66  2  0  0  0  0
 67148  1  0  0  0  0
 68 67  1  0  0  0  0
 68149  1  0  0  0  0
 69 68  2  0  0  0  0
 69150  1  0  0  0  0
 70 71  1  0  0  0  0
 70 72  1  0  0  0  0
 70151  1  1  0  0  0
 71152  1  0  0  0  0
 72153  1  0  0  0  0
 72154  1  0  0  0  0
 72155  1  0  0  0  0
 73156  1  0  0  0  0
 75 76  1  0  0  0  0
 75 87  2  0  0  0  0
 76 77  1  0  0  0  0
 76 80  1  0  0  0  0
 76157  1  1  0  0  0
 77 78  1  0  0  0  0
 77158  1  0  0  0  0
 78 79  1  0  0  0  0
 78 88  2  0  0  0  0
 79159  1  0  0  0  0
 79160  1  0  0  0  0
 79161  1  0  0  0  0
 80 81  1  0  0  0  0
 80162  1  0  0  0  0
 80163  1  0  0  0  0
 81 86  1  0  0  0  0
 82 81  2  0  0  0  0
 82164  1  0  0  0  0
 83 82  1  0  0  0  0
 83165  1  0  0  0  0
 84 83  2  0  0  0  0
 84 89  1  0  0  0  0
 85 84  1  0  0  0  0
 85166  1  0  0  0  0
 86 85  2  0  0  0  0
 86167  1  0  0  0  0
 89168  1  0  0  0  0
M  END
>  <DRUGBANK_ID>
DB11975

>  <COMMON_NAME>
TAK-448

>  <CAS_NUMBER>
1234319-68-6

>  <UNII>
YO029HR229

$$$$
