163
 OpenBabel10282417072D

 81 82  0  0  1  0  0  0  0  0999 V2000
    4.9740   -2.3009    0.0000 O   0  0  0  0  0  0  0  0  0  0  0  0
    2.0930   -0.6223    0.0000 O   0  0  0  0  0  0  0  0  0  0  0  0
    5.7215   -1.8770    0.0000 C   0  0  2  0  0  0  0  0  0  0  0  0
    6.5465   -1.8801    0.0000 C   0  0  0  0  0  0  0  0  0  0  0  0
    5.7215   -1.0177    0.0000 C   0  0  0  0  0  0  0  0  0  0  0  0
    6.9617   -1.1673    0.0000 C   0  0  0  0  0  0  0  0  0  0  0  0
    8.2021   -0.4576    0.0000 C   0  0  1  0  0  0  0  0  0  0  0  0
    7.7867   -1.1705    0.0000 C   0  0  0  0  0  0  0  0  0  0  0  0
    4.9740   -0.5937    0.0000 C   0  0  0  0  0  0  0  0  0  0  0  0
    9.0271   -0.4608    0.0000 C   0  0  0  0  0  0  0  0  0  0  0  0
    6.1313   -2.5930    0.0000 C   0  0  0  0  0  0  0  0  0  0  0  0
    4.2365   -1.0348    0.0000 C   0  0  0  0  0  0  0  0  0  0  0  0
    9.4423    0.2521    0.0000 C   0  0  0  0  0  0  0  0  0  0  0  0
    4.2365   -1.8598    0.0000 C   0  0  0  0  0  0  0  0  0  0  0  0
   10.2673    0.2490    0.0000 C   0  0  0  0  0  0  0  0  0  0  0  0
   10.6826    0.9619    0.0000 C   0  0  1  0  0  0  0  0  0  0  0  0
    7.7923    0.2585    0.0000 C   0  0  0  0  0  0  0  0  0  0  0  0
   11.5076    0.9587    0.0000 C   0  0  0  0  0  0  0  0  0  0  0  0
    3.5220   -0.6223    0.0000 C   0  0  0  0  0  0  0  0  0  0  0  0
    3.5220   -2.2723    0.0000 C   0  0  0  0  0  0  0  0  0  0  0  0
   11.9229    1.6716    0.0000 C   0  0  0  0  0  0  0  0  0  0  0  0
    2.8075   -1.8598    0.0000 C   0  0  0  0  0  0  0  0  0  0  0  0
   10.2729    1.6779    0.0000 C   0  0  0  0  0  0  0  0  0  0  0  0
    2.8075   -1.0348    0.0000 C   0  0  0  0  0  0  0  0  0  0  0  0
   12.7478    1.6683    0.0000 C   0  0  0  0  0  0  0  0  0  0  0  0
   13.1631    2.3812    0.0000 C   0  0  0  0  0  0  0  0  0  0  0  0
    3.5220    0.2027    0.0000 C   0  0  0  0  0  0  0  0  0  0  0  0
    3.5220   -3.0974    0.0000 C   0  0  0  0  0  0  0  0  0  0  0  0
    2.0930   -2.2723    0.0000 C   0  0  0  0  0  0  0  0  0  0  0  0
   12.7533    3.0974    0.0000 C   0  0  0  0  0  0  0  0  0  0  0  0
   13.9881    2.3781    0.0000 C   0  0  0  0  0  0  0  0  0  0  0  0
    2.0930    0.3147    0.0000 H   0  0  0  0  0  0  0  0  0  0  0  0
    7.0780   -2.8088    0.0000 H   0  0  0  0  0  0  0  0  0  0  0  0
    7.6165   -1.8842    0.0000 H   0  0  0  0  0  0  0  0  0  0  0  0
    6.6461   -0.4792    0.0000 H   0  0  0  0  0  0  0  0  0  0  0  0
    5.7154    0.0523    0.0000 H   0  0  0  0  0  0  0  0  0  0  0  0
    6.4303   -0.2386    0.0000 H   0  0  0  0  0  0  0  0  0  0  0  0
    7.5003   -0.2427    0.0000 H   0  0  0  0  0  0  0  0  0  0  0  0
    7.1321   -0.4534    0.0000 H   0  0  0  0  0  0  0  0  0  0  0  0
    8.3180   -2.0992    0.0000 H   0  0  0  0  0  0  0  0  0  0  0  0
    8.8567   -1.1747    0.0000 H   0  0  0  0  0  0  0  0  0  0  0  0
    4.9617    0.4762    0.0000 H   0  0  0  0  0  0  0  0  0  0  0  0
    4.0402   -0.0712    0.0000 H   0  0  0  0  0  0  0  0  0  0  0  0
    9.5585   -1.3895    0.0000 H   0  0  0  0  0  0  0  0  0  0  0  0
   10.0971   -0.4649    0.0000 H   0  0  0  0  0  0  0  0  0  0  0  0
    5.5928   -3.5176    0.0000 H   0  0  0  0  0  0  0  0  0  0  0  0
    7.2013   -2.5970    0.0000 H   0  0  0  0  0  0  0  0  0  0  0  0
    6.6628   -3.5217    0.0000 H   0  0  0  0  0  0  0  0  0  0  0  0
    8.9108    1.1808    0.0000 H   0  0  0  0  0  0  0  0  0  0  0  0
    9.9808    1.1767    0.0000 H   0  0  0  0  0  0  0  0  0  0  0  0
   10.7988   -0.6797    0.0000 H   0  0  0  0  0  0  0  0  0  0  0  0
   11.3373    0.2449    0.0000 H   0  0  0  0  0  0  0  0  0  0  0  0
    9.6126    0.9661    0.0000 H   0  0  0  0  0  0  0  0  0  0  0  0
    8.3308    1.1831    0.0000 H   0  0  0  0  0  0  0  0  0  0  0  0
    6.7223    0.2626    0.0000 H   0  0  0  0  0  0  0  0  0  0  0  0
    7.2608    1.1872    0.0000 H   0  0  0  0  0  0  0  0  0  0  0  0
   12.0390    0.0300    0.0000 H   0  0  0  0  0  0  0  0  0  0  0  0
   12.5776    0.9545    0.0000 H   0  0  0  0  0  0  0  0  0  0  0  0
   11.3916    2.6004    0.0000 H   0  0  0  0  0  0  0  0  0  0  0  0
   12.4616    2.5961    0.0000 H   0  0  0  0  0  0  0  0  0  0  0  0
   10.8115    2.6025    0.0000 H   0  0  0  0  0  0  0  0  0  0  0  0
    9.2029    1.6820    0.0000 H   0  0  0  0  0  0  0  0  0  0  0  0
    9.7415    2.6066    0.0000 H   0  0  0  0  0  0  0  0  0  0  0  0
   13.2791    0.7395    0.0000 H   0  0  0  0  0  0  0  0  0  0  0  0
   13.8178    1.6641    0.0000 H   0  0  0  0  0  0  0  0  0  0  0  0
   13.7016    3.3058    0.0000 H   0  0  0  0  0  0  0  0  0  0  0  0
    4.4486    0.7377    0.0000 H   0  0  0  0  0  0  0  0  0  0  0  0
    2.5954    0.7377    0.0000 H   0  0  0  0  0  0  0  0  0  0  0  0
    3.5220    1.2727    0.0000 H   0  0  0  0  0  0  0  0  0  0  0  0
    2.5954   -3.6324    0.0000 H   0  0  0  0  0  0  0  0  0  0  0  0
    4.4486   -3.6324    0.0000 H   0  0  0  0  0  0  0  0  0  0  0  0
    3.5220   -4.1674    0.0000 H   0  0  0  0  0  0  0  0  0  0  0  0
    1.1664   -1.7373    0.0000 H   0  0  0  0  0  0  0  0  0  0  0  0
    2.0930   -3.3423    0.0000 H   0  0  0  0  0  0  0  0  0  0  0  0
    1.1663   -2.8073    0.0000 H   0  0  0  0  0  0  0  0  0  0  0  0
   13.2919    4.0220    0.0000 H   0  0  0  0  0  0  0  0  0  0  0  0
   11.6833    3.1016    0.0000 H   0  0  0  0  0  0  0  0  0  0  0  0
   12.2219    4.0261    0.0000 H   0  0  0  0  0  0  0  0  0  0  0  0
   14.5196    1.4494    0.0000 H   0  0  0  0  0  0  0  0  0  0  0  0
   14.5266    3.3027    0.0000 H   0  0  0  0  0  0  0  0  0  0  0  0
   15.0581    2.3741    0.0000 H   0  0  0  0  0  0  0  0  0  0  0  0
  1  3  1  0  0  0  0
  1 14  1  0  0  0  0
  2 24  1  0  0  0  0
  2 32  1  0  0  0  0
  3  4  1  1  0  0  0
  3  5  1  0  0  0  0
  3 11  1  0  0  0  0
  4  6  1  0  0  0  0
  4 33  1  0  0  0  0
  4 34  1  0  0  0  0
  5  9  1  0  0  0  0
  5 35  1  0  0  0  0
  5 36  1  0  0  0  0
  6  8  1  0  0  0  0
  6 37  1  0  0  0  0
  6 38  1  0  0  0  0
  7  8  1  0  0  0  0
  7 10  1  0  0  0  0
  7 17  1  0  0  0  0
  7 39  1  1  0  0  0
  8 40  1  0  0  0  0
  8 41  1  0  0  0  0
  9 12  1  0  0  0  0
  9 42  1  0  0  0  0
  9 43  1  0  0  0  0
 10 13  1  0  0  0  0
 10 44  1  0  0  0  0
 10 45  1  0  0  0  0
 11 46  1  0  0  0  0
 11 47  1  0  0  0  0
 11 48  1  0  0  0  0
 12 14  2  0  0  0  0
 12 19  1  0  0  0  0
 13 15  1  0  0  0  0
 13 49  1  0  0  0  0
 13 50  1  0  0  0  0
 14 20  1  0  0  0  0
 15 16  1  0  0  0  0
 15 51  1  0  0  0  0
 15 52  1  0  0  0  0
 16 18  1  0  0  0  0
 16 23  1  0  0  0  0
 16 53  1  1  0  0  0
 17 54  1  0  0  0  0
 17 55  1  0  0  0  0
 17 56  1  0  0  0  0
 18 21  1  0  0  0  0
 18 57  1  0  0  0  0
 18 58  1  0  0  0  0
 19 24  2  0  0  0  0
 19 27  1  0  0  0  0
 20 22  2  0  0  0  0
 20 28  1  0  0  0  0
 21 25  1  0  0  0  0
 21 59  1  0  0  0  0
 21 60  1  0  0  0  0
 22 24  1  0  0  0  0
 22 29  1  0  0  0  0
 23 61  1  0  0  0  0
 23 62  1  0  0  0  0
 23 63  1  0  0  0  0
 25 26  1  0  0  0  0
 25 64  1  0  0  0  0
 25 65  1  0  0  0  0
 26 30  1  0  0  0  0
 26 31  1  0  0  0  0
 26 66  1  0  0  0  0
 27 67  1  0  0  0  0
 27 68  1  0  0  0  0
 27 69  1  0  0  0  0
 28 70  1  0  0  0  0
 28 71  1  0  0  0  0
 28 72  1  0  0  0  0
 29 73  1  0  0  0  0
 29 74  1  0  0  0  0
 29 75  1  0  0  0  0
 30 76  1  0  0  0  0
 30 77  1  0  0  0  0
 30 78  1  0  0  0  0
 31 79  1  0  0  0  0
 31 80  1  0  0  0  0
 31 81  1  0  0  0  0
M  END
>  <DRUGBANK_ID>
DB00163

>  <SECONDARY_ACCESSION_NUMBERS>
NUTR00061; EXPT03227

>  <COMMON_NAME>
Vitamin E

>  <CAS_NUMBER>
59-02-9

>  <UNII>
N9PR3490H9

>  <SYNONYMS>
(+)-α-tocopherol; (2R,4'R,8'R)-α-tocopherol; (R,R,R)-α-tocopherol; 5,7,8-trimethyltocol; alpha-tocopherol; d-α-tocopherol

$$$$
