TFC
 OpenBabel10282417072D

 35 34  0  0  0  0  0  0  0  0999 V2000
   -2.4113   -0.1936    0.0000 C   0  0  0  0  0  0  0  0  0  0  0  0
   -1.6967    0.2189    0.0000 C   0  0  0  0  0  0  0  0  0  0  0  0
   -0.9822   -0.1936    0.0000 C   0  0  0  0  0  0  0  0  0  0  0  0
   -0.2677    0.2189    0.0000 C   0  0  0  0  0  0  0  0  0  0  0  0
    0.4468   -0.1936    0.0000 C   0  0  0  0  0  0  0  0  0  0  0  0
    1.1614    0.2189    0.0000 C   0  0  0  0  0  0  0  0  0  0  0  0
    1.8759   -0.1936    0.0000 C   0  0  0  0  0  0  0  0  0  0  0  0
    2.5904    0.2189    0.0000 C   0  0  0  0  0  0  0  0  0  0  0  0
    3.3049   -0.1936    0.0000 S   0  0  0  0  0  0  0  0  0  0  0  0
    4.0195    0.2189    0.0000 C   0  0  0  0  0  0  0  0  0  0  0  0
    4.7340   -0.1936    0.0000 C   0  0  0  0  0  0  0  0  0  0  0  0
    4.7340   -1.0187    0.0000 O   0  0  0  0  0  0  0  0  0  0  0  0
    5.4485    0.2189    0.0000 C   0  0  0  0  0  0  0  0  0  0  0  0
    6.1631    0.6314    0.0000 F   0  0  0  0  0  0  0  0  0  0  0  0
    5.8610   -0.4956    0.0000 F   0  0  0  0  0  0  0  0  0  0  0  0
    5.0360    0.9335    0.0000 F   0  0  0  0  0  0  0  0  0  0  0  0
   -3.3379    0.3415    0.0000 H   0  0  0  0  0  0  0  0  0  0  0  0
   -2.4114   -1.2636    0.0000 H   0  0  0  0  0  0  0  0  0  0  0  0
   -3.3380   -0.7285    0.0000 H   0  0  0  0  0  0  0  0  0  0  0  0
   -1.6967    1.2889    0.0000 H   0  0  0  0  0  0  0  0  0  0  0  0
   -0.7700    0.7539    0.0000 H   0  0  0  0  0  0  0  0  0  0  0  0
   -0.9822   -1.2636    0.0000 H   0  0  0  0  0  0  0  0  0  0  0  0
   -0.0556   -0.7286    0.0000 H   0  0  0  0  0  0  0  0  0  0  0  0
   -0.2677    1.2889    0.0000 H   0  0  0  0  0  0  0  0  0  0  0  0
    0.6589    0.7539    0.0000 H   0  0  0  0  0  0  0  0  0  0  0  0
    0.4468   -1.2636    0.0000 H   0  0  0  0  0  0  0  0  0  0  0  0
    1.3734   -0.7287    0.0000 H   0  0  0  0  0  0  0  0  0  0  0  0
    1.1614    1.2889    0.0000 H   0  0  0  0  0  0  0  0  0  0  0  0
    2.0881    0.7539    0.0000 H   0  0  0  0  0  0  0  0  0  0  0  0
    1.8759   -1.2636    0.0000 H   0  0  0  0  0  0  0  0  0  0  0  0
    2.8025   -0.7286    0.0000 H   0  0  0  0  0  0  0  0  0  0  0  0
    2.5904    1.2889    0.0000 H   0  0  0  0  0  0  0  0  0  0  0  0
    3.5170    0.7539    0.0000 H   0  0  0  0  0  0  0  0  0  0  0  0
    4.0195    1.2889    0.0000 H   0  0  0  0  0  0  0  0  0  0  0  0
    4.9462    0.7539    0.0000 H   0  0  0  0  0  0  0  0  0  0  0  0
  1  2  1  0  0  0  0
  1 17  1  0  0  0  0
  1 18  1  0  0  0  0
  1 19  1  0  0  0  0
  2  3  1  0  0  0  0
  2 20  1  0  0  0  0
  2 21  1  0  0  0  0
  3  4  1  0  0  0  0
  3 22  1  0  0  0  0
  3 23  1  0  0  0  0
  4  5  1  0  0  0  0
  4 24  1  0  0  0  0
  4 25  1  0  0  0  0
  5  6  1  0  0  0  0
  5 26  1  0  0  0  0
  5 27  1  0  0  0  0
  6  7  1  0  0  0  0
  6 28  1  0  0  0  0
  6 29  1  0  0  0  0
  7  8  1  0  0  0  0
  7 30  1  0  0  0  0
  7 31  1  0  0  0  0
  8  9  1  0  0  0  0
  8 32  1  0  0  0  0
  8 33  1  0  0  0  0
  9 10  1  0  0  0  0
 10 11  1  0  0  0  0
 10 34  1  0  0  0  0
 10 35  1  0  0  0  0
 11 12  2  0  0  0  0
 11 13  1  0  0  0  0
 13 14  1  0  0  0  0
 13 15  1  0  0  0  0
 13 16  1  0  0  0  0
M  END
>  <DRUGBANK_ID>
DB08612

>  <COMMON_NAME>
1,1,1-TRIFLUORO-3-(OCTYLTHIO)ACETONE

>  <UNII>
7OYG5MD7P9

$$$$
