
 OpenBabel10282417072D

 52 56  0  0  1  0  0  0  0  0999 V2000
    4.7804    1.1137    0.0000 C   0  0  0  0  0  0  0  0  0  0  0  0
    3.9558    1.1395    0.0000 C   0  0  0  0  0  0  0  0  0  0  0  0
    3.5212    0.4383    0.0000 C   0  0  0  0  0  0  0  0  0  0  0  0
    3.9112   -0.2887    0.0000 C   0  0  0  0  0  0  0  0  0  0  0  0
    4.7358   -0.3145    0.0000 C   0  0  0  0  0  0  0  0  0  0  0  0
    5.1704    0.3867    0.0000 C   0  0  0  0  0  0  0  0  0  0  0  0
    5.9950    0.3610    0.0000 C   0  0  0  0  0  0  0  0  0  0  0  0
    6.3850   -0.3660    0.0000 O   0  0  0  0  0  0  0  0  0  0  0  0
    6.4296    1.0622    0.0000 O   0  0  0  0  0  0  0  0  0  0  0  0
    3.4766   -0.9900    0.0000 C   0  0  0  0  0  0  0  0  0  0  0  0
    2.6520   -0.9642    0.0000 C   0  0  0  0  0  0  0  0  0  0  0  0
    2.2620   -0.2372    0.0000 C   0  0  1  0  0  0  0  0  0  0  0  0
    2.6966    0.4640    0.0000 C   0  0  0  0  0  0  0  0  0  0  0  0
    2.1640    1.0941    0.0000 N   0  0  0  0  0  0  0  0  0  0  0  0
    1.4002    0.7822    0.0000 N   0  0  0  0  0  0  0  0  0  0  0  0
    1.4608   -0.0406    0.0000 C   0  0  1  0  0  0  0  0  0  0  0  0
    0.8307   -0.5732    0.0000 C   0  0  0  0  0  0  0  0  0  0  0  0
    0.8913   -1.3960    0.0000 C   0  0  0  0  0  0  0  0  0  0  0  0
    0.1275   -1.7078    0.0000 C   0  0  0  0  0  0  0  0  0  0  0  0
   -0.4051   -1.0778    0.0000 C   0  0  0  0  0  0  0  0  0  0  0  0
    0.0295   -0.3765    0.0000 C   0  0  0  0  0  0  0  0  0  0  0  0
    0.6989    1.2168    0.0000 C   0  0  0  0  0  0  0  0  0  0  0  0
   -0.0281    0.8268    0.0000 C   0  0  0  0  0  0  0  0  0  0  0  0
   -0.7293    1.2614    0.0000 C   0  0  0  0  0  0  0  0  0  0  0  0
   -0.7035    2.0860    0.0000 C   0  0  0  0  0  0  0  0  0  0  0  0
    0.0235    2.4760    0.0000 C   0  0  0  0  0  0  0  0  0  0  0  0
    0.7247    2.0414    0.0000 C   0  0  0  0  0  0  0  0  0  0  0  0
    0.0492    3.3006    0.0000 Cl  0  0  0  0  0  0  0  0  0  0  0  0
   -1.4048    2.5206    0.0000 C   0  0  0  0  0  0  0  0  0  0  0  0
   -2.1060    2.9553    0.0000 N   0  0  0  0  0  0  0  0  0  0  0  0
    5.3241    1.9909    0.0000 H   0  0  0  0  0  0  0  0  0  0  0  0
    3.4680    2.0489    0.0000 H   0  0  0  0  0  0  0  0  0  0  0  0
    5.2236   -1.2239    0.0000 H   0  0  0  0  0  0  0  0  0  0  0  0
    7.3661    1.0329    0.0000 H   0  0  0  0  0  0  0  0  0  0  0  0
    3.9824   -1.9329    0.0000 H   0  0  0  0  0  0  0  0  0  0  0  0
    2.9129   -1.8995    0.0000 H   0  0  0  0  0  0  0  0  0  0  0  0
    2.0883   -1.8737    0.0000 H   0  0  0  0  0  0  0  0  0  0  0  0
    1.5825   -0.9308    0.0000 H   0  0  0  0  0  0  0  0  0  0  0  0
    3.3315   -0.2706    0.0000 H   0  0  0  0  0  0  0  0  0  0  0  0
    0.4743    0.3739    0.0000 H   0  0  0  0  0  0  0  0  0  0  0  0
    0.0136   -1.2640    0.0000 H   0  0  0  0  0  0  0  0  0  0  0  0
    1.8008   -1.9597    0.0000 H   0  0  0  0  0  0  0  0  0  0  0  0
    0.8019   -2.4623    0.0000 H   0  0  0  0  0  0  0  0  0  0  0  0
   -0.1276   -2.7470    0.0000 H   0  0  0  0  0  0  0  0  0  0  0  0
   -0.9142   -1.9523    0.0000 H   0  0  0  0  0  0  0  0  0  0  0  0
   -1.4722   -1.1564    0.0000 H   0  0  0  0  0  0  0  0  0  0  0  0
   -0.9596   -0.1627    0.0000 H   0  0  0  0  0  0  0  0  0  0  0  0
   -0.3750    0.6141    0.0000 H   0  0  0  0  0  0  0  0  0  0  0  0
    0.7285    0.4336    0.0000 H   0  0  0  0  0  0  0  0  0  0  0  0
   -0.0603   -0.2047    0.0000 H   0  0  0  0  0  0  0  0  0  0  0  0
   -1.6387    0.7736    0.0000 H   0  0  0  0  0  0  0  0  0  0  0  0
    1.6341    2.5292    0.0000 H   0  0  0  0  0  0  0  0  0  0  0  0
  1  2  2  0  0  0  0
  1  6  1  0  0  0  0
  1 31  1  0  0  0  0
  2  3  1  0  0  0  0
  2 32  1  0  0  0  0
  3  4  2  0  0  0  0
  3 13  1  0  0  0  0
  4  5  1  0  0  0  0
  4 10  1  0  0  0  0
  5  6  2  0  0  0  0
  5 33  1  0  0  0  0
  6  7  1  0  0  0  0
  7  8  2  0  0  0  0
  7  9  1  0  0  0  0
  9 34  1  0  0  0  0
 10 11  1  0  0  0  0
 10 35  1  0  0  0  0
 10 36  1  0  0  0  0
 11 12  1  0  0  0  0
 11 37  1  0  0  0  0
 11 38  1  0  0  0  0
 12 13  1  0  0  0  0
 12 16  1  0  0  0  0
 12 39  1  1  0  0  0
 13 14  2  0  0  0  0
 14 15  1  0  0  0  0
 15 16  1  0  0  0  0
 15 22  1  0  0  0  0
 16 17  1  0  0  0  0
 16 40  1  1  0  0  0
 17 18  1  0  0  0  0
 17 21  1  0  0  0  0
 17 41  1  0  0  0  0
 18 19  1  0  0  0  0
 18 42  1  0  0  0  0
 18 43  1  0  0  0  0
 19 20  1  0  0  0  0
 19 44  1  0  0  0  0
 19 45  1  0  0  0  0
 20 21  1  0  0  0  0
 20 46  1  0  0  0  0
 20 47  1  0  0  0  0
 21 48  1  0  0  0  0
 21 49  1  0  0  0  0
 22 23  2  0  0  0  0
 22 27  1  0  0  0  0
 23 24  1  0  0  0  0
 23 50  1  0  0  0  0
 24 25  2  0  0  0  0
 24 51  1  0  0  0  0
 25 26  1  0  0  0  0
 25 29  1  0  0  0  0
 26 27  2  0  0  0  0
 26 28  1  0  0  0  0
 27 52  1  0  0  0  0
 29 30  3  0  0  0  0
M  END
>  <DRUGBANK_ID>
DB11814

>  <COMMON_NAME>
PF-03882845

>  <CAS_NUMBER>
1023650-66-9

>  <UNII>
34ZKU73FU3

$$$$
