DT4
 OpenBabel10282417072D

 50 53  0  0  0  0  0  0  0  0999 V2000
   -3.3565   -2.6510    0.0000 O   0  0  0  0  0  0  0  0  0  0  0  0
   -2.6420   -2.2385    0.0000 S   0  0  0  0  0  0  0  0  0  0  0  0
   -2.2295   -2.9530    0.0000 O   0  0  0  0  0  0  0  0  0  0  0  0
   -3.0545   -1.5241    0.0000 N   0  0  0  0  0  0  0  0  0  0  0  0
   -1.9275   -1.8260    0.0000 C   0  0  0  0  0  0  0  0  0  0  0  0
   -1.9275   -1.0010    0.0000 C   0  0  0  0  0  0  0  0  0  0  0  0
   -1.2131   -0.5885    0.0000 C   0  0  0  0  0  0  0  0  0  0  0  0
   -0.4986   -1.0010    0.0000 C   0  0  0  0  0  0  0  0  0  0  0  0
   -0.4986   -1.8260    0.0000 C   0  0  0  0  0  0  0  0  0  0  0  0
   -1.2131   -2.2385    0.0000 C   0  0  0  0  0  0  0  0  0  0  0  0
    0.2159   -0.5885    0.0000 N   0  0  0  0  0  0  0  0  0  0  0  0
    0.2159    0.2365    0.0000 C   0  0  0  0  0  0  0  0  0  0  0  0
   -0.4986    0.6490    0.0000 N   0  0  0  0  0  0  0  0  0  0  0  0
   -1.2832    0.3940    0.0000 N   0  0  0  0  0  0  0  0  0  0  0  0
   -1.7681    1.0615    0.0000 C   0  0  0  0  0  0  0  0  0  0  0  0
   -0.4986    1.4740    0.0000 C   0  0  0  0  0  0  0  0  0  0  0  0
   -1.2832    1.7289    0.0000 N   0  0  0  0  0  0  0  0  0  0  0  0
    0.2159    1.8865    0.0000 N   0  0  0  0  0  0  0  0  0  0  0  0
    0.9304    1.4740    0.0000 C   0  0  0  0  0  0  0  0  0  0  0  0
    0.9304    0.6490    0.0000 C   0  0  0  0  0  0  0  0  0  0  0  0
    1.6448    1.8865    0.0000 N   0  0  0  0  0  0  0  0  0  0  0  0
    2.3593    1.4740    0.0000 C   0  0  1  0  0  0  0  0  0  0  0  0
    3.0738    1.8865    0.0000 C   0  0  0  0  0  0  0  0  0  0  0  0
    3.7882    1.4740    0.0000 C   0  0  0  0  0  0  0  0  0  0  0  0
    3.7882    0.6490    0.0000 C   0  0  2  0  0  0  0  0  0  0  0  0
    4.5027    0.2365    0.0000 N   0  0  0  0  0  0  0  0  0  0  0  0
    3.0738    0.2365    0.0000 C   0  0  0  0  0  0  0  0  0  0  0  0
    2.3593    0.6490    0.0000 C   0  0  0  0  0  0  0  0  0  0  0  0
    2.3593    2.0579    0.0000 H   0  0  0  0  0  0  0  0  0  0  0  0
    4.2939    0.9409    0.0000 H   0  0  0  0  0  0  0  0  0  0  0  0
   -2.5445   -0.6407    0.0000 H   0  0  0  0  0  0  0  0  0  0  0  0
   -4.0745   -1.5241    0.0000 H   0  0  0  0  0  0  0  0  0  0  0  0
   -2.8212   -0.4850    0.0000 H   0  0  0  0  0  0  0  0  0  0  0  0
   -1.2131    0.4435    0.0000 H   0  0  0  0  0  0  0  0  0  0  0  0
    0.3951   -2.3420    0.0000 H   0  0  0  0  0  0  0  0  0  0  0  0
   -1.2131   -3.2705    0.0000 H   0  0  0  0  0  0  0  0  0  0  0  0
    1.0685   -1.0808    0.0000 H   0  0  0  0  0  0  0  0  0  0  0  0
   -2.8001    1.0615    0.0000 H   0  0  0  0  0  0  0  0  0  0  0  0
    1.8241    0.1330    0.0000 H   0  0  0  0  0  0  0  0  0  0  0  0
    1.6448    2.8710    0.0000 H   0  0  0  0  0  0  0  0  0  0  0  0
    3.0738    2.9565    0.0000 H   0  0  0  0  0  0  0  0  0  0  0  0
    4.0005    2.4215    0.0000 H   0  0  0  0  0  0  0  0  0  0  0  0
    4.7149    2.0090    0.0000 H   0  0  0  0  0  0  0  0  0  0  0  0
    4.7148    0.9390    0.0000 H   0  0  0  0  0  0  0  0  0  0  0  0
    4.5027   -0.7835    0.0000 H   0  0  0  0  0  0  0  0  0  0  0  0
    5.3860    0.7465    0.0000 H   0  0  0  0  0  0  0  0  0  0  0  0
    3.0738   -0.8335    0.0000 H   0  0  0  0  0  0  0  0  0  0  0  0
    2.1472   -0.2985    0.0000 H   0  0  0  0  0  0  0  0  0  0  0  0
    1.4327    0.1140    0.0000 H   0  0  0  0  0  0  0  0  0  0  0  0
    2.3593   -0.4210    0.0000 H   0  0  0  0  0  0  0  0  0  0  0  0
  1  2  2  0  0  0  0
  2  3  2  0  0  0  0
  2  4  1  0  0  0  0
  2  5  1  0  0  0  0
  4 31  1  0  0  0  0
  4 32  1  0  0  0  0
  5  6  2  0  0  0  0
  5 10  1  0  0  0  0
  6  7  1  0  0  0  0
  6 33  1  0  0  0  0
  7  8  2  0  0  0  0
  7 34  1  0  0  0  0
  8  9  1  0  0  0  0
  8 11  1  0  0  0  0
  9 10  2  0  0  0  0
  9 35  1  0  0  0  0
 10 36  1  0  0  0  0
 11 12  1  0  0  0  0
 11 37  1  0  0  0  0
 12 13  1  0  0  0  0
 12 20  2  0  0  0  0
 13 14  1  0  0  0  0
 13 16  1  0  0  0  0
 14 15  2  0  0  0  0
 15 17  1  0  0  0  0
 15 38  1  0  0  0  0
 16 17  2  0  0  0  0
 16 18  1  0  0  0  0
 18 19  2  0  0  0  0
 19 20  1  0  0  0  0
 19 21  1  0  0  0  0
 20 39  1  0  0  0  0
 21 40  1  0  0  0  0
 22 21  1  0  0  0  0
 22 23  1  0  0  0  0
 22 28  1  0  0  0  0
 22 29  1  6  0  0  0
 23 24  1  0  0  0  0
 23 41  1  0  0  0  0
 23 42  1  0  0  0  0
 24 25  1  0  0  0  0
 24 43  1  0  0  0  0
 24 44  1  0  0  0  0
 25 26  1  0  0  0  0
 25 27  1  0  0  0  0
 25 30  1  1  0  0  0
 26 45  1  0  0  0  0
 26 46  1  0  0  0  0
 27 28  1  0  0  0  0
 27 47  1  0  0  0  0
 27 48  1  0  0  0  0
 28 49  1  0  0  0  0
 28 50  1  0  0  0  0
M  END
>  <DRUGBANK_ID>
DB07687

>  <COMMON_NAME>
4-({5-[(4-AMINOCYCLOHEXYL)AMINO][1,2,4]TRIAZOLO[1,5-A]PYRIMIDIN-7-YL}AMINO)BENZENESULFONAMIDE

$$$$
