
 OpenBabel10282417072D

 83 87  0  0  0  0  0  0  0  0999 V2000
    2.9308   -1.0011    0.0000 C   0  0  2  0  0  0  0  0  0  0  0  0
    2.8906   -0.1767    0.0000 C   0  0  2  0  0  0  0  0  0  0  0  0
    2.2793    0.3736    0.0000 C   0  0  2  0  0  0  0  0  0  0  0  0
   -2.8381    1.3168    0.0000 N   0  0  0  0  0  0  0  0  0  0  0  0
    1.4551    0.3275    0.0000 C   0  0  1  0  0  0  0  0  0  0  0  0
    2.3774   -1.6097    0.0000 C   0  0  2  0  0  0  0  0  0  0  0  0
    0.9420   -1.1053    0.0000 C   0  0  1  0  0  0  0  0  0  0  0  0
    1.5533   -1.6557    0.0000 C   0  0  1  0  0  0  0  0  0  0  0  0
   -3.4156    0.2491    0.0000 C   0  0  2  0  0  0  0  0  0  0  0  0
   -3.4198    2.4261    0.0000 C   0  0  1  0  0  0  0  0  0  0  0  0
    0.9017   -0.2809    0.0000 C   0  0  0  0  0  0  0  0  0  0  0  0
    3.6638    0.1108    0.0000 C   0  0  0  0  0  0  0  0  0  0  0  0
    3.7219   -1.2214    0.0000 C   0  0  0  0  0  0  0  0  0  0  0  0
    2.2769   -1.0367    0.0000 C   0  0  0  0  0  0  0  0  0  0  0  0
    0.9047    0.9388    0.0000 O   0  0  0  0  0  0  0  0  0  0  0  0
   -2.4766    2.2183    0.0000 C   0  0  0  0  0  0  0  0  0  0  0  0
   -2.4685    0.4735    0.0000 C   0  0  0  0  0  0  0  0  0  0  0  0
    0.1902    1.3501    0.0000 C   0  0  0  0  0  0  0  0  0  0  0  0
    1.7276   -0.3317    0.0000 C   0  0  1  0  0  0  0  0  0  0  0  0
   -2.0613    1.3459    0.0000 C   0  0  2  0  0  0  0  0  0  0  0  0
    0.1147   -1.1488    0.0000 C   0  0  0  0  0  0  0  0  0  0  0  0
    4.1800   -0.5328    0.0000 C   0  0  0  0  0  0  0  0  0  0  0  0
   -4.1800    1.8154    0.0000 C   0  0  0  0  0  0  0  0  0  0  0  0
   -4.1800    0.8557    0.0000 C   0  0  0  0  0  0  0  0  0  0  0  0
   -1.2388    1.3501    0.0000 S   0  0  0  0  0  0  0  0  0  0  0  0
    2.3644   -0.4863    0.0000 C   0  0  0  0  0  0  0  0  0  0  0  0
    3.8277    0.9137    0.0000 O   0  0  0  0  0  0  0  0  0  0  0  0
    0.1861    2.1726    0.0000 O   0  0  0  0  0  0  0  0  0  0  0  0
   -0.4965   -0.5983    0.0000 C   0  0  0  0  0  0  0  0  0  0  0  0
   -0.5243    0.9388    0.0000 C   0  0  0  0  0  0  0  0  0  0  0  0
    1.2788   -2.4261    0.0000 O   0  0  0  0  0  0  0  0  0  0  0  0
    2.2738    1.2322    0.0000 C   0  0  0  0  0  0  0  0  0  0  0  0
   -3.5971    1.3071    0.0000 C   0  0  0  0  0  0  0  0  0  0  0  0
    0.3884   -1.7138    0.0000 C   0  0  0  0  0  0  0  0  0  0  0  0
    2.6245   -2.3968    0.0000 C   0  0  0  0  0  0  0  0  0  0  0  0
    1.6708   -0.9747    0.0000 C   0  0  0  0  0  0  0  0  0  0  0  0
    3.0705    0.6851    0.0000 H   0  0  0  0  0  0  0  0  0  0  0  0
    1.8628    1.3168    0.0000 H   0  0  0  0  0  0  0  0  0  0  0  0
    3.4223   -1.8399    0.0000 H   0  0  0  0  0  0  0  0  0  0  0  0
    0.5160   -1.9181    0.0000 H   0  0  0  0  0  0  0  0  0  0  0  0
   -2.5663    0.8999    0.0000 H   0  0  0  0  0  0  0  0  0  0  0  0
   -2.5695    1.7766    0.0000 H   0  0  0  0  0  0  0  0  0  0  0  0
   -0.1054    0.0806    0.0000 H   0  0  0  0  0  0  0  0  0  0  0  0
    0.6432    0.7574    0.0000 H   0  0  0  0  0  0  0  0  0  0  0  0
    4.0949   -2.2243    0.0000 H   0  0  0  0  0  0  0  0  0  0  0  0
    4.7848   -1.3447    0.0000 H   0  0  0  0  0  0  0  0  0  0  0  0
    1.4823   -1.7532    0.0000 H   0  0  0  0  0  0  0  0  0  0  0  0
    1.3365   -0.5262    0.0000 H   0  0  0  0  0  0  0  0  0  0  0  0
   -1.8107    3.0559    0.0000 H   0  0  0  0  0  0  0  0  0  0  0  0
   -1.4135    2.0969    0.0000 H   0  0  0  0  0  0  0  0  0  0  0  0
   -1.7929   -0.3562    0.0000 H   0  0  0  0  0  0  0  0  0  0  0  0
   -1.4066    0.6051    0.0000 H   0  0  0  0  0  0  0  0  0  0  0  0
    2.3513   -1.2011    0.0000 H   0  0  0  0  0  0  0  0  0  0  0  0
   -1.4923    2.2521    0.0000 H   0  0  0  0  0  0  0  0  0  0  0  0
   -0.2298   -2.1216    0.0000 H   0  0  0  0  0  0  0  0  0  0  0  0
    5.2489   -0.4852    0.0000 H   0  0  0  0  0  0  0  0  0  0  0  0
    4.6213    0.4419    0.0000 H   0  0  0  0  0  0  0  0  0  0  0  0
   -5.1449    2.2779    0.0000 H   0  0  0  0  0  0  0  0  0  0  0  0
   -5.0855    1.2453    0.0000 H   0  0  0  0  0  0  0  0  0  0  0  0
   -5.1435    0.3903    0.0000 H   0  0  0  0  0  0  0  0  0  0  0  0
   -5.0863    1.4244    0.0000 H   0  0  0  0  0  0  0  0  0  0  0  0
    3.2550    0.1068    0.0000 H   0  0  0  0  0  0  0  0  0  0  0  0
    2.1785    0.5674    0.0000 H   0  0  0  0  0  0  0  0  0  0  0  0
   -0.2818    0.4111    0.0000 H   0  0  0  0  0  0  0  0  0  0  0  0
   -1.4780   -0.9171    0.0000 H   0  0  0  0  0  0  0  0  0  0  0  0
   -0.5243   -0.1312    0.0000 H   0  0  0  0  0  0  0  0  0  0  0  0
    0.4020    0.4032    0.0000 H   0  0  0  0  0  0  0  0  0  0  0  0
    0.3247   -2.6010    0.0000 H   0  0  0  0  0  0  0  0  0  0  0  0
    3.1970    1.7731    0.0000 H   0  0  0  0  0  0  0  0  0  0  0  0
    1.3437    1.7613    0.0000 H   0  0  0  0  0  0  0  0  0  0  0  0
    2.2669    2.3022    0.0000 H   0  0  0  0  0  0  0  0  0  0  0  0
   -4.1439    2.2268    0.0000 H   0  0  0  0  0  0  0  0  0  0  0  0
   -4.1202    0.3737    0.0000 H   0  0  0  0  0  0  0  0  0  0  0  0
   -4.6670    1.2934    0.0000 H   0  0  0  0  0  0  0  0  0  0  0  0
   -0.6571   -1.4859    0.0000 H   0  0  0  0  0  0  0  0  0  0  0  0
    0.7138   -2.7331    0.0000 H   0  0  0  0  0  0  0  0  0  0  0  0
   -0.3317   -2.5053    0.0000 H   0  0  0  0  0  0  0  0  0  0  0  0
    1.9006   -3.1848    0.0000 H   0  0  0  0  0  0  0  0  0  0  0  0
    3.6688   -2.6297    0.0000 H   0  0  0  0  0  0  0  0  0  0  0  0
    2.9450   -3.4177    0.0000 H   0  0  0  0  0  0  0  0  0  0  0  0
    0.7007   -1.4261    0.0000 H   0  0  0  0  0  0  0  0  0  0  0  0
    2.5468   -1.5892    0.0000 H   0  0  0  0  0  0  0  0  0  0  0  0
    1.5766   -2.0405    0.0000 H   0  0  0  0  0  0  0  0  0  0  0  0
  1  6  1  0  0  0  0
  1 13  1  6  0  0  0
  1 14  1  0  0  0  0
  2  1  1  0  0  0  0
  2 12  1  0  0  0  0
  2 37  1  1  0  0  0
  3  2  1  0  0  0  0
  3  5  1  0  0  0  0
  3 19  1  0  0  0  0
  3 32  1  6  0  0  0
  5 15  1  0  0  0  0
  5 11  1  0  0  0  0
  5 38  1  6  0  0  0
  6  8  1  0  0  0  0
  6 35  1  0  0  0  0
  6 39  1  6  0  0  0
  7 11  1  0  0  0  0
  7 21  1  6  0  0  0
  7 34  1  0  0  0  0
  8  7  1  0  0  0  0
  8 31  1  0  0  0  0
  8 40  1  1  0  0  0
  9  4  1  0  0  0  0
  9 17  1  0  0  0  0
  9 41  1  1  0  0  0
 10 16  1  0  0  0  0
 10  4  1  0  0  0  0
 10 42  1  1  0  0  0
 11 43  1  0  0  0  0
 11 44  1  0  0  0  0
 13 45  1  0  0  0  0
 13 46  1  0  0  0  0
 14 47  1  0  0  0  0
 14 48  1  0  0  0  0
 16 20  1  0  0  0  0
 16 49  1  0  0  0  0
 16 50  1  0  0  0  0
 17 20  1  0  0  0  0
 17 51  1  0  0  0  0
 17 52  1  0  0  0  0
 18 15  1  0  0  0  0
 19 36  1  0  0  0  0
 19 26  1  0  0  0  0
 19 53  1  6  0  0  0
 20 25  1  0  0  0  0
 20 54  1  6  0  0  0
 21 55  1  0  0  0  0
 22 13  1  0  0  0  0
 22 12  1  0  0  0  0
 22 56  1  0  0  0  0
 22 57  1  0  0  0  0
 23 10  1  0  0  0  0
 23 24  1  0  0  0  0
 23 58  1  0  0  0  0
 23 59  1  0  0  0  0
 24  9  1  0  0  0  0
 24 60  1  0  0  0  0
 24 61  1  0  0  0  0
 25 30  1  0  0  0  0
 26 14  1  0  0  0  0
 26 62  1  0  0  0  0
 26 63  1  0  0  0  0
 27 12  2  0  0  0  0
 28 18  2  0  0  0  0
 29 21  2  0  0  0  0
 29 64  1  0  0  0  0
 29 65  1  0  0  0  0
 30 18  1  0  0  0  0
 30 66  1  0  0  0  0
 30 67  1  0  0  0  0
 31 68  1  0  0  0  0
 32 69  1  0  0  0  0
 32 70  1  0  0  0  0
 32 71  1  0  0  0  0
 33  4  1  0  0  0  0
 33 72  1  0  0  0  0
 33 73  1  0  0  0  0
 33 74  1  0  0  0  0
 34 75  1  0  0  0  0
 34 76  1  0  0  0  0
 34 77  1  0  0  0  0
 35 78  1  0  0  0  0
 35 79  1  0  0  0  0
 35 80  1  0  0  0  0
 36 81  1  0  0  0  0
 36 82  1  0  0  0  0
 36 83  1  0  0  0  0
M  END
>  <DRUGBANK_ID>
DB01256

>  <COMMON_NAME>
Retapamulin

>  <CAS_NUMBER>
224452-66-8

>  <UNII>
4MG6O8991R

>  <SYNONYMS>
Retapamulin; Retapamulina

$$$$
