
 OpenBabel10282417072D

 60 64  0  0  1  0  0  0  0  0999 V2000
    0.4259   -5.4126    0.0000 C   0  0  0  0  0  0  0  0  0  0  0  0
    0.1168   -4.6477    0.0000 C   0  0  0  0  0  0  0  0  0  0  0  0
    0.6247   -3.9976    0.0000 C   0  0  2  0  0  0  0  0  0  0  0  0
    0.8797   -3.2130    0.0000 C   0  0  1  0  0  0  0  0  0  0  0  0
    0.0727   -3.3845    0.0000 C   0  0  2  0  0  0  0  0  0  0  0  0
   -0.3398   -2.6700    0.0000 C   0  0  0  0  0  0  0  0  0  0  0  0
    0.2122   -2.0569    0.0000 N   0  0  0  0  0  0  0  0  0  0  0  0
    0.9659   -2.3925    0.0000 C   0  0  0  0  0  0  0  0  0  0  0  0
    0.0407   -1.2500    0.0000 C   0  0  0  0  0  0  0  0  0  0  0  0
    0.6538   -0.6979    0.0000 C   0  0  0  0  0  0  0  0  0  0  0  0
    1.1387   -0.0305    0.0000 C   0  0  0  0  0  0  0  0  0  0  0  0
    1.9233   -0.2854    0.0000 C   0  0  0  0  0  0  0  0  0  0  0  0
    2.6378    0.1271    0.0000 C   0  0  0  0  0  0  0  0  0  0  0  0
    3.3523   -0.2854    0.0000 C   0  0  0  0  0  0  0  0  0  0  0  0
    3.3523   -1.1104    0.0000 C   0  0  0  0  0  0  0  0  0  0  0  0
    2.6378   -1.5229    0.0000 C   0  0  0  0  0  0  0  0  0  0  0  0
    1.9233   -1.1104    0.0000 C   0  0  0  0  0  0  0  0  0  0  0  0
    1.1387   -1.3654    0.0000 C   0  0  0  0  0  0  0  0  0  0  0  0
    0.0407   -0.1459    0.0000 O   0  0  0  0  0  0  0  0  0  0  0  0
    1.3532   -4.3849    0.0000 C   0  0  0  0  0  0  0  0  0  0  0  0
    2.0528   -3.9477    0.0000 C   0  0  0  0  0  0  0  0  0  0  0  0
    2.7812   -4.3351    0.0000 C   0  0  0  0  0  0  0  0  0  0  0  0
    2.8100   -5.1595    0.0000 C   0  0  0  0  0  0  0  0  0  0  0  0
    2.1104   -5.5967    0.0000 C   0  0  0  0  0  0  0  0  0  0  0  0
    1.3820   -5.2094    0.0000 C   0  0  0  0  0  0  0  0  0  0  0  0
    2.1392   -6.4212    0.0000 N   0  0  0  0  0  0  0  0  0  0  0  0
    2.8676   -6.8085    0.0000 S   0  0  0  0  0  0  0  0  0  0  0  0
    3.5960   -7.1959    0.0000 O   0  0  0  0  0  0  0  0  0  0  0  0
    2.4803   -7.5370    0.0000 O   0  0  0  0  0  0  0  0  0  0  0  0
    3.2549   -6.0801    0.0000 C   0  0  0  0  0  0  0  0  0  0  0  0
   -0.2328   -6.2558    0.0000 H   0  0  0  0  0  0  0  0  0  0  0  0
    1.4855   -5.5614    0.0000 H   0  0  0  0  0  0  0  0  0  0  0  0
    0.8268   -6.4047    0.0000 H   0  0  0  0  0  0  0  0  0  0  0  0
   -0.9428   -4.4988    0.0000 H   0  0  0  0  0  0  0  0  0  0  0  0
   -0.2841   -3.6556    0.0000 H   0  0  0  0  0  0  0  0  0  0  0  0
   -0.1669   -2.9905    0.0000 H   0  0  0  0  0  0  0  0  0  0  0  0
    0.5079   -2.4070    0.0000 H   0  0  0  0  0  0  0  0  0  0  0  0
   -1.4039   -2.5582    0.0000 H   0  0  0  0  0  0  0  0  0  0  0  0
   -0.7233   -1.6711    0.0000 H   0  0  0  0  0  0  0  0  0  0  0  0
    1.8925   -1.8575    0.0000 H   0  0  0  0  0  0  0  0  0  0  0  0
    1.8633   -2.9752    0.0000 H   0  0  0  0  0  0  0  0  0  0  0  0
   -0.9769   -0.9194    0.0000 H   0  0  0  0  0  0  0  0  0  0  0  0
   -0.1818   -0.2034    0.0000 H   0  0  0  0  0  0  0  0  0  0  0  0
    0.8080    0.9871    0.0000 H   0  0  0  0  0  0  0  0  0  0  0  0
    1.8953    0.7261    0.0000 H   0  0  0  0  0  0  0  0  0  0  0  0
    2.6378    1.1591    0.0000 H   0  0  0  0  0  0  0  0  0  0  0  0
    4.2460    0.2306    0.0000 H   0  0  0  0  0  0  0  0  0  0  0  0
    4.2460   -1.6264    0.0000 H   0  0  0  0  0  0  0  0  0  0  0  0
    2.6378   -2.5549    0.0000 H   0  0  0  0  0  0  0  0  0  0  0  0
    0.8081   -2.3830    0.0000 H   0  0  0  0  0  0  0  0  0  0  0  0
    0.0819   -1.5328    0.0000 H   0  0  0  0  0  0  0  0  0  0  0  0
    0.2423    0.8029    0.0000 H   0  0  0  0  0  0  0  0  0  0  0  0
    2.0168   -2.9163    0.0000 H   0  0  0  0  0  0  0  0  0  0  0  0
    3.6564   -3.7883    0.0000 H   0  0  0  0  0  0  0  0  0  0  0  0
    3.7212   -5.6440    0.0000 H   0  0  0  0  0  0  0  0  0  0  0  0
    0.5068   -5.7563    0.0000 H   0  0  0  0  0  0  0  0  0  0  0  0
    1.3043   -6.9429    0.0000 H   0  0  0  0  0  0  0  0  0  0  0  0
    4.3242   -6.0428    0.0000 H   0  0  0  0  0  0  0  0  0  0  0  0
    2.6879   -5.1727    0.0000 H   0  0  0  0  0  0  0  0  0  0  0  0
    3.7572   -5.1353    0.0000 H   0  0  0  0  0  0  0  0  0  0  0  0
  1  2  1  0  0  0  0
  1 31  1  0  0  0  0
  1 32  1  0  0  0  0
  1 33  1  0  0  0  0
  2 34  1  0  0  0  0
  2 35  1  0  0  0  0
  3  2  1  1  0  0  0
  3  4  1  0  0  0  0
  3  5  1  0  0  0  0
  3 20  1  0  0  0  0
  4  5  1  0  0  0  0
  4  8  1  0  0  0  0
  4 36  1  6  0  0  0
  5  6  1  0  0  0  0
  5 37  1  6  0  0  0
  6  7  1  0  0  0  0
  6 38  1  0  0  0  0
  6 39  1  0  0  0  0
  7  8  1  0  0  0  0
  7  9  1  0  0  0  0
  8 40  1  0  0  0  0
  8 41  1  0  0  0  0
  9 10  1  0  0  0  0
  9 42  1  0  0  0  0
  9 43  1  0  0  0  0
 10 11  1  0  0  0  0
 10 18  1  0  0  0  0
 10 19  1  0  0  0  0
 11 12  1  0  0  0  0
 11 44  1  0  0  0  0
 11 45  1  0  0  0  0
 12 13  2  0  0  0  0
 12 17  1  0  0  0  0
 13 14  1  0  0  0  0
 13 46  1  0  0  0  0
 14 15  2  0  0  0  0
 14 47  1  0  0  0  0
 15 16  1  0  0  0  0
 15 48  1  0  0  0  0
 16 17  2  0  0  0  0
 16 49  1  0  0  0  0
 17 18  1  0  0  0  0
 18 50  1  0  0  0  0
 18 51  1  0  0  0  0
 19 52  1  0  0  0  0
 20 21  2  0  0  0  0
 20 25  1  0  0  0  0
 21 22  1  0  0  0  0
 21 53  1  0  0  0  0
 22 23  2  0  0  0  0
 22 54  1  0  0  0  0
 23 24  1  0  0  0  0
 23 55  1  0  0  0  0
 24 25  2  0  0  0  0
 24 26  1  0  0  0  0
 25 56  1  0  0  0  0
 26 27  1  0  0  0  0
 26 57  1  0  0  0  0
 27 28  2  0  0  0  0
 27 29  2  0  0  0  0
 27 30  1  0  0  0  0
 30 58  1  0  0  0  0
 30 59  1  0  0  0  0
 30 60  1  0  0  0  0
M  END
>  <DRUGBANK_ID>
DB12196

>  <COMMON_NAME>
CP-866087

>  <CAS_NUMBER>
519052-02-9

>  <UNII>
MDH21334PI

$$$$
