
 OpenBabel10282417072D

 77 84  0  0  0  0  0  0  0  0999 V2000
    0.9924    0.9249    0.0000 C   0  0  0  0  0  0  0  0  0  0  0  0
    5.1913   -3.5672    0.0000 C   0  0  0  0  0  0  0  0  0  0  0  0
    3.1689    0.7172    0.0000 C   0  0  0  0  0  0  0  0  0  0  0  0
    7.8492    0.7145    0.0000 C   0  0  0  0  0  0  0  0  0  0  0  0
    4.9560   -0.5506    0.0000 C   0  0  0  0  0  0  0  0  0  0  0  0
    7.6349   -1.9568    0.0000 C   0  0  0  0  0  0  0  0  0  0  0  0
    0.8388   -0.9079    0.0000 C   0  0  0  0  0  0  0  0  0  0  0  0
    3.3545   -3.4713    0.0000 C   0  0  0  0  0  0  0  0  0  0  0  0
    0.0445   -0.6229    0.0000 C   0  0  0  0  0  0  0  0  0  0  0  0
    3.5360   -4.2959    0.0000 C   0  0  0  0  0  0  0  0  0  0  0  0
    2.9495    1.4992    0.0000 C   0  0  0  0  0  0  0  0  0  0  0  0
    5.7385   -1.6795    0.0000 C   0  0  0  0  0  0  0  0  0  0  0  0
    5.9333    1.3044    0.0000 C   0  0  0  0  0  0  0  0  0  0  0  0
    2.7546   -1.4847    0.0000 C   0  0  0  0  0  0  0  0  0  0  0  0
    1.6294    0.3584    0.0000 C   0  0  0  0  0  0  0  0  0  0  0  0
    4.7186   -2.8585    0.0000 C   0  0  0  0  0  0  0  0  0  0  0  0
    3.8671    1.1123    0.0000 C   0  0  0  0  0  0  0  0  0  0  0  0
    7.1124    0.2845    0.0000 C   0  0  0  0  0  0  0  0  0  0  0  0
    4.9658    0.2689    0.0000 C   0  0  0  0  0  0  0  0  0  0  0  0
    7.7374   -1.1162    0.0000 C   0  0  0  0  0  0  0  0  0  0  0  0
    1.5756   -0.4648    0.0000 C   0  0  0  0  0  0  0  0  0  0  0  0
    3.8954   -2.8048    0.0000 C   0  0  0  0  0  0  0  0  0  0  0  0
    2.4289    0.5617    0.0000 C   0  0  0  0  0  0  0  0  0  0  0  0
    5.0241   -2.0922    0.0000 C   0  0  0  0  0  0  0  0  0  0  0  0
    3.6638    1.9119    0.0000 C   0  0  0  0  0  0  0  0  0  0  0  0
    6.3460    0.5900    0.0000 C   0  0  0  0  0  0  0  0  0  0  0  0
    2.3420   -0.7703    0.0000 C   0  0  0  0  0  0  0  0  0  0  0  0
    3.6921   -2.0052    0.0000 C   0  0  0  0  0  0  0  0  0  0  0  0
    6.2590   -0.7421    0.0000 C   0  0  0  0  0  0  0  0  0  0  0  0
    4.9959    1.8249    0.0000 C   0  0  0  0  0  0  0  0  0  0  0  0
   -0.1026    0.1889    0.0000 C   0  0  0  0  0  0  0  0  0  0  0  0
    4.3225   -4.5452    0.0000 C   0  0  0  0  0  0  0  0  0  0  0  0
    4.6904    1.0585    0.0000 C   0  0  0  0  0  0  0  0  0  0  0  0
    7.0586   -0.5388    0.0000 C   0  0  0  0  0  0  0  0  0  0  0  0
    4.3598    0.1518    0.0000 Fe  0  0  3  0  0  0  0  0  0  0  0  0
    2.8693   -0.1359    0.0000 N   0  0  0  0  0  0  0  0  0  0  0  0
    4.3897   -1.5648    0.0000 N   0  0  0  0  0  0  0  0  0  0  0  0
    4.3615    2.3523    0.0000 N   0  0  0  0  0  0  0  0  0  0  0  0
    5.8186   -0.0444    0.0000 N   0  0  0  0  0  0  0  0  0  0  0  0
    5.6416    0.8217    0.0000 O   0  0  0  0  0  0  0  0  0  0  0  0
    8.5868   -0.8683    0.0000 O   0  0  0  0  0  0  0  0  0  0  0  0
   -0.8791    0.4674    0.0000 O   0  0  0  0  0  0  0  0  0  0  0  0
    0.5269    0.7221    0.0000 O   0  0  0  0  0  0  0  0  0  0  0  0
    4.9315   -3.9887    0.0000 O   0  0  0  0  0  0  0  0  0  0  0  0
    4.4998   -5.3509    0.0000 O   0  0  0  0  0  0  0  0  0  0  0  0
    1.2084    1.9729    0.0000 H   0  0  0  0  0  0  0  0  0  0  0  0
   -0.0232    0.5880    0.0000 H   0  0  0  0  0  0  0  0  0  0  0  0
    0.1928    1.6360    0.0000 H   0  0  0  0  0  0  0  0  0  0  0  0
    4.7173   -4.5265    0.0000 H   0  0  0  0  0  0  0  0  0  0  0  0
    6.2591   -3.4981    0.0000 H   0  0  0  0  0  0  0  0  0  0  0  0
    5.7850   -4.4574    0.0000 H   0  0  0  0  0  0  0  0  0  0  0  0
    2.2469    1.2602    0.0000 H   0  0  0  0  0  0  0  0  0  0  0  0
    3.1597   -0.3528    0.0000 H   0  0  0  0  0  0  0  0  0  0  0  0
    2.2377    0.1902    0.0000 H   0  0  0  0  0  0  0  0  0  0  0  0
    8.7783    0.1838    0.0000 H   0  0  0  0  0  0  0  0  0  0  0  0
    7.8442    1.7845    0.0000 H   0  0  0  0  0  0  0  0  0  0  0  0
    8.7733    1.2538    0.0000 H   0  0  0  0  0  0  0  0  0  0  0  0
    4.0562   -1.0559    0.0000 H   0  0  0  0  0  0  0  0  0  0  0  0
    5.8435   -1.0773    0.0000 H   0  0  0  0  0  0  0  0  0  0  0  0
    6.6503   -2.3757    0.0000 H   0  0  0  0  0  0  0  0  0  0  0  0
    8.4900   -2.6000    0.0000 H   0  0  0  0  0  0  0  0  0  0  0  0
    7.5054   -3.0189    0.0000 H   0  0  0  0  0  0  0  0  0  0  0  0
    0.9440   -1.9727    0.0000 H   0  0  0  0  0  0  0  0  0  0  0  0
    1.7950   -1.3881    0.0000 H   0  0  0  0  0  0  0  0  0  0  0  0
    2.3133   -3.2247    0.0000 H   0  0  0  0  0  0  0  0  0  0  0  0
    3.0095   -2.4584    0.0000 H   0  0  0  0  0  0  0  0  0  0  0  0
   -0.7720   -1.3145    0.0000 H   0  0  0  0  0  0  0  0  0  0  0  0
   -0.9627   -0.2617    0.0000 H   0  0  0  0  0  0  0  0  0  0  0  0
    2.7460   -5.0176    0.0000 H   0  0  0  0  0  0  0  0  0  0  0  0
    3.7660   -5.3409    0.0000 H   0  0  0  0  0  0  0  0  0  0  0  0
    2.2136    2.2227    0.0000 H   0  0  0  0  0  0  0  0  0  0  0  0
    6.4744   -2.4030    0.0000 H   0  0  0  0  0  0  0  0  0  0  0  0
    6.6568    2.0403    0.0000 H   0  0  0  0  0  0  0  0  0  0  0  0
    2.0311   -2.2206    0.0000 H   0  0  0  0  0  0  0  0  0  0  0  0
    6.5180    0.4902    0.0000 H   0  0  0  0  0  0  0  0  0  0  0  0
   -1.0461    1.3894    0.0000 H   0  0  0  0  0  0  0  0  0  0  0  0
    5.8247   -4.2717    0.0000 H   0  0  0  0  0  0  0  0  0  0  0  0
  1 46  1  0  0  0  0
  1 47  1  0  0  0  0
  1 48  1  0  0  0  0
  2 49  1  0  0  0  0
  2 50  1  0  0  0  0
  2 51  1  0  0  0  0
  3 52  1  0  0  0  0
  3 53  1  0  0  0  0
  3 54  1  0  0  0  0
  4 55  1  0  0  0  0
  4 56  1  0  0  0  0
  4 57  1  0  0  0  0
  5 58  1  0  0  0  0
  5 59  1  0  0  0  0
  6 60  1  0  0  0  0
  6 61  1  0  0  0  0
  6 62  1  0  0  0  0
  7 63  1  0  0  0  0
  7 64  1  0  0  0  0
  8 65  1  0  0  0  0
  8 66  1  0  0  0  0
  9  7  1  0  0  0  0
  9 67  1  0  0  0  0
  9 68  1  0  0  0  0
 10  8  1  0  0  0  0
 10 69  1  0  0  0  0
 10 70  1  0  0  0  0
 11 71  1  0  0  0  0
 12 72  1  0  0  0  0
 13 73  1  0  0  0  0
 14 74  1  0  0  0  0
 15  1  1  0  0  0  0
 16  2  1  0  0  0  0
 17  3  1  0  0  0  0
 18  4  1  0  0  0  0
 19  5  2  0  0  0  0
 20  6  1  0  0  0  0
 21  7  1  0  0  0  0
 21 15  2  0  0  0  0
 22  8  1  0  0  0  0
 22 16  1  0  0  0  0
 23 11  2  0  0  0  0
 23 15  1  0  0  0  0
 24 12  1  0  0  0  0
 24 16  2  0  0  0  0
 25 11  1  0  0  0  0
 25 17  2  0  0  0  0
 26 13  2  0  0  0  0
 26 18  1  0  0  0  0
 27 14  2  0  0  0  0
 27 21  1  0  0  0  0
 28 14  1  0  0  0  0
 28 22  2  0  0  0  0
 29 12  2  0  0  0  0
 30 13  1  0  0  0  0
 31  9  1  0  0  0  0
 32 10  1  0  0  0  0
 33 17  1  0  0  0  0
 33 19  1  0  0  0  0
 33 30  2  0  0  0  0
 34 18  2  0  0  0  0
 34 20  1  0  0  0  0
 34 29  1  0  0  0  0
 36 23  1  0  0  0  0
 36 27  1  0  0  0  0
 36 35  1  0  0  0  0
 37 24  1  0  0  0  0
 37 28  1  0  0  0  0
 37 35  1  0  0  0  0
 38 25  1  0  0  0  0
 38 30  1  0  0  0  0
 38 35  1  0  0  0  0
 39 26  1  0  0  0  0
 39 29  1  0  0  0  0
 39 35  1  0  0  0  0
 40 19  1  0  0  0  0
 40 75  1  0  0  0  0
 41 20  2  0  0  0  0
 42 31  1  0  0  0  0
 42 76  1  0  0  0  0
 43 31  2  0  0  0  0
 44 32  1  0  0  0  0
 44 77  1  0  0  0  0
 45 32  2  0  0  0  0
M  END
>  <DRUGBANK_ID>
DB03418

>  <SECONDARY_ACCESSION_NUMBERS>
EXPT01144

>  <COMMON_NAME>
Diacetyldeuteroheme

$$$$
