
 OpenBabel10282417072D

 91 96  0  0  0  0  0  0  0  0999 V2000
   -2.4134   -1.1344    0.0000 C   0  0  2  0  0  0  0  0  0  0  0  0
   -2.4134   -1.9595    0.0000 C   0  0  2  0  0  0  0  0  0  0  0  0
   -1.7120   -2.3721    0.0000 C   0  0  0  0  0  0  0  0  0  0  0  0
   -0.9694   -1.9595    0.0000 C   0  0  1  0  0  0  0  0  0  0  0  0
   -0.9694   -1.1344    0.0000 C   0  0  2  0  0  0  0  0  0  0  0  0
   -1.7120   -0.7220    0.0000 C   0  0  0  0  0  0  0  0  0  0  0  0
   -0.2681   -2.3721    0.0000 C   0  0  0  0  0  0  0  0  0  0  0  0
    0.4332   -1.9595    0.0000 C   0  0  0  0  0  0  0  0  0  0  0  0
    0.4332   -1.1344    0.0000 C   0  0  2  0  0  0  0  0  0  0  0  0
   -0.2681   -0.7220    0.0000 C   0  0  2  0  0  0  0  0  0  0  0  0
    1.1757   -0.7220    0.0000 C   0  0  1  0  0  0  0  0  0  0  0  0
    1.1757    0.1031    0.0000 C   0  0  2  0  0  0  0  0  0  0  0  0
    0.4332    0.5157    0.0000 C   0  0  0  0  0  0  0  0  0  0  0  0
   -0.2681    0.1031    0.0000 C   0  0  0  0  0  0  0  0  0  0  0  0
    2.5784   -0.7220    0.0000 C   0  0  0  0  0  0  0  0  0  0  0  0
    2.5784    0.1031    0.0000 C   0  0  1  0  0  0  0  0  0  0  0  0
    1.8770    0.5157    0.0000 C   0  0  2  0  0  0  0  0  0  0  0  0
   -3.1147   -2.3721    0.0000 O   0  0  0  0  0  0  0  0  0  0  0  0
   -0.9694   -2.7846    0.0000 H   0  0  0  0  0  0  0  0  0  0  0  0
   -0.2681   -1.5470    0.0000 H   0  0  0  0  0  0  0  0  0  0  0  0
    1.1757   -1.5470    0.0000 H   0  0  0  0  0  0  0  0  0  0  0  0
   -3.1147   -0.7220    0.0000 N   0  0  0  0  0  0  0  0  0  0  0  0
   -0.9694   -0.3093    0.0000 C   0  0  0  0  0  0  0  0  0  0  0  0
    0.4332   -0.3093    0.0000 H   0  0  0  0  0  0  0  0  0  0  0  0
    1.1757    0.9281    0.0000 C   0  0  0  0  0  0  0  0  0  0  0  0
    3.2797    0.5157    0.0000 N   0  3  0  0  0  0  0  0  0  0  0  0
    1.8770    1.5470    0.0000 O   0  0  0  0  0  0  0  0  0  0  0  0
    3.2797    1.3407    0.0000 C   0  0  0  0  0  0  0  0  0  0  0  0
    1.1757    1.9595    0.0000 C   0  0  0  0  0  0  0  0  0  0  0  0
    0.4744    1.5470    0.0000 C   0  0  0  0  0  0  0  0  0  0  0  0
    1.1757    2.7846    0.0000 O   0  0  0  0  0  0  0  0  0  0  0  0
    4.0636    0.2680    0.0000 C   0  0  0  0  0  0  0  0  0  0  0  0
    4.5587    0.9281    0.0000 C   0  0  0  0  0  0  0  0  0  0  0  0
    4.0636    1.5882    0.0000 C   0  0  0  0  0  0  0  0  0  0  0  0
    3.2797   -0.3093    0.0000 C   0  0  0  0  0  0  0  0  0  0  0  0
    3.9811   -0.7220    0.0000 C   0  0  0  0  0  0  0  0  0  0  0  0
    3.9811   -1.5470    0.0000 C   0  0  0  0  0  0  0  0  0  0  0  0
   -3.1147    0.1031    0.0000 C   0  0  0  0  0  0  0  0  0  0  0  0
   -3.8573    0.5157    0.0000 C   0  0  0  0  0  0  0  0  0  0  0  0
   -4.5587    0.1031    0.0000 O   0  0  0  0  0  0  0  0  0  0  0  0
   -4.5587   -0.7220    0.0000 C   0  0  0  0  0  0  0  0  0  0  0  0
   -3.8573   -1.1344    0.0000 C   0  0  0  0  0  0  0  0  0  0  0  0
   -3.3422   -1.6657    0.0000 H   0  0  0  0  0  0  0  0  0  0  0  0
   -3.3422   -1.4283    0.0000 H   0  0  0  0  0  0  0  0  0  0  0  0
   -1.7252   -3.4420    0.0000 H   0  0  0  0  0  0  0  0  0  0  0  0
   -0.7931   -2.9204    0.0000 H   0  0  0  0  0  0  0  0  0  0  0  0
   -1.7252    0.3479    0.0000 H   0  0  0  0  0  0  0  0  0  0  0  0
   -2.6440   -0.1964    0.0000 H   0  0  0  0  0  0  0  0  0  0  0  0
   -0.2681   -3.4421    0.0000 H   0  0  0  0  0  0  0  0  0  0  0  0
    0.6607   -2.9033    0.0000 H   0  0  0  0  0  0  0  0  0  0  0  0
    1.3620   -2.4907    0.0000 H   0  0  0  0  0  0  0  0  0  0  0  0
    1.3587   -1.4226    0.0000 H   0  0  0  0  0  0  0  0  0  0  0  0
    0.4200    1.5856    0.0000 H   0  0  0  0  0  0  0  0  0  0  0  0
   -0.4989    1.0412    0.0000 H   0  0  0  0  0  0  0  0  0  0  0  0
   -1.1969    0.6343    0.0000 H   0  0  0  0  0  0  0  0  0  0  0  0
   -1.1936   -0.4338    0.0000 H   0  0  0  0  0  0  0  0  0  0  0  0
    3.3350   -1.4786    0.0000 H   0  0  0  0  0  0  0  0  0  0  0  0
    3.5670   -0.3125    0.0000 H   0  0  0  0  0  0  0  0  0  0  0  0
    3.5072   -0.4281    0.0000 H   0  0  0  0  0  0  0  0  0  0  0  0
    2.8058    1.0469    0.0000 H   0  0  0  0  0  0  0  0  0  0  0  0
   -3.9587   -1.8940    0.0000 H   0  0  0  0  0  0  0  0  0  0  0  0
   -0.0428    0.2257    0.0000 H   0  0  0  0  0  0  0  0  0  0  0  0
   -1.8960    0.2257    0.0000 H   0  0  0  0  0  0  0  0  0  0  0  0
   -0.9694    0.7607    0.0000 H   0  0  0  0  0  0  0  0  0  0  0  0
    2.1023    1.4631    0.0000 H   0  0  0  0  0  0  0  0  0  0  0  0
    0.2491    1.4631    0.0000 H   0  0  0  0  0  0  0  0  0  0  0  0
    1.1757    1.9981    0.0000 H   0  0  0  0  0  0  0  0  0  0  0  0
    2.4167    1.9732    0.0000 H   0  0  0  0  0  0  0  0  0  0  0  0
    3.4537    2.3965    0.0000 H   0  0  0  0  0  0  0  0  0  0  0  0
   -0.4565    2.0745    0.0000 H   0  0  0  0  0  0  0  0  0  0  0  0
    0.4831    0.4770    0.0000 H   0  0  0  0  0  0  0  0  0  0  0  0
   -0.4479    1.0045    0.0000 H   0  0  0  0  0  0  0  0  0  0  0  0
    4.3906   -0.7508    0.0000 H   0  0  0  0  0  0  0  0  0  0  0  0
    5.1188    0.0907    0.0000 H   0  0  0  0  0  0  0  0  0  0  0  0
    5.6287    0.9281    0.0000 H   0  0  0  0  0  0  0  0  0  0  0  0
    5.0372    1.8851    0.0000 H   0  0  0  0  0  0  0  0  0  0  0  0
    4.3907    2.6070    0.0000 H   0  0  0  0  0  0  0  0  0  0  0  0
    3.3089    2.3467    0.0000 H   0  0  0  0  0  0  0  0  0  0  0  0
    2.3509   -0.8405    0.0000 H   0  0  0  0  0  0  0  0  0  0  0  0
    3.2731   -1.3793    0.0000 H   0  0  0  0  0  0  0  0  0  0  0  0
    4.8770   -0.2097    0.0000 H   0  0  0  0  0  0  0  0  0  0  0  0
    3.0874   -2.0630    0.0000 H   0  0  0  0  0  0  0  0  0  0  0  0
    4.8748   -2.0630    0.0000 H   0  0  0  0  0  0  0  0  0  0  0  0
   -2.1925    0.6457    0.0000 H   0  0  0  0  0  0  0  0  0  0  0  0
   -3.1279    1.1730    0.0000 H   0  0  0  0  0  0  0  0  0  0  0  0
   -3.8705    1.5856    0.0000 H   0  0  0  0  0  0  0  0  0  0  0  0
   -4.7894    1.0412    0.0000 H   0  0  0  0  0  0  0  0  0  0  0  0
   -5.4875   -1.2533    0.0000 H   0  0  0  0  0  0  0  0  0  0  0  0
   -4.5651   -1.7920    0.0000 H   0  0  0  0  0  0  0  0  0  0  0  0
   -3.8705   -2.2043    0.0000 H   0  0  0  0  0  0  0  0  0  0  0  0
   -2.9385   -1.6828    0.0000 H   0  0  0  0  0  0  0  0  0  0  0  0
  1  2  1  0  0  0  0
  1  6  1  0  0  0  0
  1 22  1  0  0  0  0
  1 43  1  6  0  0  0
  2  3  1  0  0  0  0
  2 18  1  0  0  0  0
  2 44  1  1  0  0  0
  3  4  1  0  0  0  0
  3 45  1  0  0  0  0
  3 46  1  0  0  0  0
  4  5  1  0  0  0  0
  4  7  1  0  0  0  0
  4 19  1  6  0  0  0
  5  6  1  0  0  0  0
  5 10  1  0  0  0  0
  5 23  1  1  0  0  0
  6 47  1  0  0  0  0
  6 48  1  0  0  0  0
  7  8  1  0  0  0  0
  7 49  1  0  0  0  0
  7 50  1  0  0  0  0
  8  9  1  0  0  0  0
  8 51  1  0  0  0  0
  8 52  1  0  0  0  0
  9 10  1  0  0  0  0
  9 11  1  0  0  0  0
  9 24  1  1  0  0  0
 10 14  1  0  0  0  0
 10 20  1  6  0  0  0
 11 12  1  0  0  0  0
 11 15  1  0  0  0  0
 11 21  1  6  0  0  0
 12 13  1  0  0  0  0
 12 17  1  0  0  0  0
 12 25  1  1  0  0  0
 13 14  1  0  0  0  0
 13 53  1  0  0  0  0
 13 54  1  0  0  0  0
 14 55  1  0  0  0  0
 14 56  1  0  0  0  0
 15 16  1  0  0  0  0
 15 57  1  0  0  0  0
 15 58  1  0  0  0  0
 16 17  1  0  0  0  0
 16 26  1  0  0  0  0
 16 59  1  6  0  0  0
 17 27  1  0  0  0  0
 17 60  1  6  0  0  0
 18 61  1  0  0  0  0
 22 38  1  0  0  0  0
 22 42  1  0  0  0  0
 23 62  1  0  0  0  0
 23 63  1  0  0  0  0
 23 64  1  0  0  0  0
 25 65  1  0  0  0  0
 25 66  1  0  0  0  0
 25 67  1  0  0  0  0
 26 28  1  0  0  0  0
 26 32  1  0  0  0  0
 26 35  1  0  0  0  0
 27 29  1  0  0  0  0
 28 34  1  0  0  0  0
 28 68  1  0  0  0  0
 28 69  1  0  0  0  0
 29 30  1  0  0  0  0
 29 31  2  0  0  0  0
 30 70  1  0  0  0  0
 30 71  1  0  0  0  0
 30 72  1  0  0  0  0
 32 33  1  0  0  0  0
 32 73  1  0  0  0  0
 32 74  1  0  0  0  0
 33 34  1  0  0  0  0
 33 75  1  0  0  0  0
 33 76  1  0  0  0  0
 34 77  1  0  0  0  0
 34 78  1  0  0  0  0
 35 36  1  0  0  0  0
 35 79  1  0  0  0  0
 35 80  1  0  0  0  0
 36 37  2  0  0  0  0
 36 81  1  0  0  0  0
 37 82  1  0  0  0  0
 37 83  1  0  0  0  0
 38 39  1  0  0  0  0
 38 84  1  0  0  0  0
 38 85  1  0  0  0  0
 39 40  1  0  0  0  0
 39 86  1  0  0  0  0
 39 87  1  0  0  0  0
 40 41  1  0  0  0  0
 41 42  1  0  0  0  0
 41 88  1  0  0  0  0
 41 89  1  0  0  0  0
 42 90  1  0  0  0  0
 42 91  1  0  0  0  0
M  CHG  1  26   1
M  END
>  <DRUGBANK_ID>
DB00728

>  <SECONDARY_ACCESSION_NUMBERS>
APRD01221

>  <COMMON_NAME>
Rocuronium

>  <CAS_NUMBER>
143558-00-3

>  <UNII>
WRE554RFEZ

>  <SYNONYMS>
Rocuronio; Rocuronium

$$$$
