
 OpenBabel10282417072D

 27 28  0  0  1  0  0  0  0  0999 V2000
    0.7145    5.9411    0.0000 C   0  0  0  0  0  0  0  0  0  0  0  0
    1.4289    5.5286    0.0000 C   0  0  0  0  0  0  0  0  0  0  0  0
    1.4289    4.7036    0.0000 C   0  0  0  0  0  0  0  0  0  0  0  0
    0.7145    4.2911    0.0000 N   0  0  0  0  0  0  0  0  0  0  0  0
    0.0000    4.7036    0.0000 C   0  0  0  0  0  0  0  0  0  0  0  0
   -0.7145    4.2911    0.0000 O   0  0  0  0  0  0  0  0  0  0  0  0
   -0.0000    5.5286    0.0000 N   0  0  0  0  0  0  0  0  0  0  0  0
    0.7145    3.4661    0.0000 C   0  0  1  0  0  0  0  0  0  0  0  0
    1.3819    2.9812    0.0000 C   0  0  0  0  0  0  0  0  0  0  0  0
    1.1270    2.1965    0.0000 C   0  0  1  0  0  0  0  0  0  0  0  0
    0.3020    2.1965    0.0000 C   0  0  2  0  0  0  0  0  0  0  0  0
    0.0470    2.9812    0.0000 O   0  0  0  0  0  0  0  0  0  0  0  0
   -0.1830    1.5291    0.0000 C   0  0  0  0  0  0  0  0  0  0  0  0
    0.1526    0.7754    0.0000 O   0  0  0  0  0  0  0  0  0  0  0  0
    1.6119    1.5291    0.0000 O   0  0  0  0  0  0  0  0  0  0  0  0
    2.1434    5.9411    0.0000 I   0  0  0  0  0  0  0  0  0  0  0  0
    0.7145    6.9731    0.0000 H   0  0  0  0  0  0  0  0  0  0  0  0
    2.3226    4.1876    0.0000 H   0  0  0  0  0  0  0  0  0  0  0  0
    1.6679    3.9519    0.0000 H   0  0  0  0  0  0  0  0  0  0  0  0
    2.3995    3.3119    0.0000 H   0  0  0  0  0  0  0  0  0  0  0  0
    2.1385    2.2246    0.0000 H   0  0  0  0  0  0  0  0  0  0  0  0
    2.1838    2.3639    0.0000 H   0  0  0  0  0  0  0  0  0  0  0  0
    0.7877    1.2431    0.0000 H   0  0  0  0  0  0  0  0  0  0  0  0
   -1.2471    1.6410    0.0000 H   0  0  0  0  0  0  0  0  0  0  0  0
   -0.8119    0.6635    0.0000 H   0  0  0  0  0  0  0  0  0  0  0  0
   -0.4175   -0.0094    0.0000 H   0  0  0  0  0  0  0  0  0  0  0  0
    1.2174    0.6430    0.0000 H   0  0  0  0  0  0  0  0  0  0  0  0
  1  2  1  0  0  0  0
  1  7  2  0  0  0  0
  1 17  1  0  0  0  0
  2  3  2  0  0  0  0
  2 16  1  0  0  0  0
  3  4  1  0  0  0  0
  3 18  1  0  0  0  0
  4  5  1  0  0  0  0
  5  6  2  0  0  0  0
  5  7  1  0  0  0  0
  8  4  1  0  0  0  0
  8  9  1  0  0  0  0
  8 12  1  0  0  0  0
  8 19  1  6  0  0  0
  9 10  1  0  0  0  0
  9 20  1  0  0  0  0
  9 21  1  0  0  0  0
 10 11  1  0  0  0  0
 10 15  1  0  0  0  0
 10 22  1  1  0  0  0
 11 12  1  0  0  0  0
 11 13  1  0  0  0  0
 11 23  1  6  0  0  0
 13 14  1  0  0  0  0
 13 24  1  0  0  0  0
 13 25  1  0  0  0  0
 14 26  1  0  0  0  0
 15 27  1  0  0  0  0
M  END
>  <DRUGBANK_ID>
DB06485

>  <COMMON_NAME>
Ropidoxuridine

>  <CAS_NUMBER>
93265-81-7

>  <UNII>
3HX21A3SQF

>  <SYNONYMS>
1-(2-DEOXY-.BETA.-D-ERYTHRO-PENTOFURANOSYL)-5-IODOPYRIMIDIN-2(1H)-ONE; 2(1H)-PYRIMIDINONE, 1-(2-DEOXY-.BETA.-D-ERYTHRO-PENTOFURANOSYL)-5-IODO-; 5-iodo-2-pyrimidinone-2'-deoxyribose; Ropidoxuridine

$$$$
