
 OpenBabel10282417072D

 24 24  0  0  0  0  0  0  0  0999 V2000
    1.6500   -0.3561    0.0000 C   0  0  0  0  0  0  0  0  0  0  0  0
    0.8250   -0.3561    0.0000 C   0  0  2  0  0  0  0  0  0  0  0  0
    2.0625   -1.0711    0.0000 O   0  0  0  0  0  0  0  0  0  0  0  0
    0.4125    0.3561    0.0000 C   0  0  0  0  0  0  0  0  0  0  0  0
    2.0625    0.3561    0.0000 N   0  0  0  0  0  0  0  0  0  0  0  0
    0.4125   -1.0711    0.0000 N   0  0  0  0  0  0  0  0  0  0  0  0
   -0.4125    0.3561    0.0000 C   0  0  0  0  0  0  0  0  0  0  0  0
   -0.8250   -0.3561    0.0000 C   0  0  0  0  0  0  0  0  0  0  0  0
   -0.8250    1.0711    0.0000 C   0  0  0  0  0  0  0  0  0  0  0  0
   -1.6500    1.0711    0.0000 C   0  0  0  0  0  0  0  0  0  0  0  0
   -1.6500   -0.3561    0.0000 C   0  0  0  0  0  0  0  0  0  0  0  0
   -2.0625    0.3561    0.0000 C   0  0  0  0  0  0  0  0  0  0  0  0
    1.3601   -1.2827    0.0000 H   0  0  0  0  0  0  0  0  0  0  0  0
    0.9469    1.2831    0.0000 H   0  0  0  0  0  0  0  0  0  0  0  0
   -0.1228    1.2826    0.0000 H   0  0  0  0  0  0  0  0  0  0  0  0
    3.0470    0.3547    0.0000 H   0  0  0  0  0  0  0  0  0  0  0  0
    1.5714    1.2094    0.0000 H   0  0  0  0  0  0  0  0  0  0  0  0
   -0.6075   -1.0714    0.0000 H   0  0  0  0  0  0  0  0  0  0  0  0
    0.9228   -1.9543    0.0000 H   0  0  0  0  0  0  0  0  0  0  0  0
   -0.3096   -1.2502    0.0000 H   0  0  0  0  0  0  0  0  0  0  0  0
   -0.3089    1.9648    0.0000 H   0  0  0  0  0  0  0  0  0  0  0  0
   -2.1661    1.9648    0.0000 H   0  0  0  0  0  0  0  0  0  0  0  0
   -2.1654   -1.2502    0.0000 H   0  0  0  0  0  0  0  0  0  0  0  0
   -3.0945    0.3552    0.0000 H   0  0  0  0  0  0  0  0  0  0  0  0
  2  1  1  0  0  0  0
  2  6  1  0  0  0  0
  2 13  1  6  0  0  0
  3  1  2  0  0  0  0
  4  2  1  0  0  0  0
  4 14  1  0  0  0  0
  4 15  1  0  0  0  0
  5  1  1  0  0  0  0
  5 16  1  0  0  0  0
  5 17  1  0  0  0  0
  6 18  1  0  0  0  0
  6 19  1  0  0  0  0
  7  4  1  0  0  0  0
  8  7  1  0  0  0  0
  8 20  1  0  0  0  0
  9  7  2  0  0  0  0
  9 21  1  0  0  0  0
 10  9  1  0  0  0  0
 10 22  1  0  0  0  0
 11  8  2  0  0  0  0
 11 12  1  0  0  0  0
 11 23  1  0  0  0  0
 12 10  2  0  0  0  0
 12 24  1  0  0  0  0
M  END
>  <DRUGBANK_ID>
DB04029

>  <SECONDARY_ACCESSION_NUMBERS>
EXPT02329

>  <COMMON_NAME>
Phenylalanylamide

>  <CAS_NUMBER>
5241-58-7

>  <UNII>
PV9T9B2S11

>  <SYNONYMS>
(S)-2-amino-3-phenylpropanamide; L-phenylalanine amide; Phenylalaninamide; Phenylalanine amide

$$$$
