
 OpenBabel10282417072D

 25 28  0  0  0  0  0  0  0  0999 V2000
    1.7840    0.2269    0.0000 N   0  0  0  0  0  0  0  0  0  0  0  0
    1.2271   -0.6187    0.0000 N   0  0  0  0  0  0  0  0  0  0  0  0
    0.4021    0.4537    0.0000 C   0  0  0  0  0  0  0  0  0  0  0  0
    0.4021   -0.4537    0.0000 C   0  0  0  0  0  0  0  0  0  0  0  0
    1.1653    0.8456    0.0000 C   0  0  0  0  0  0  0  0  0  0  0  0
   -1.0622    0.4537    0.0000 C   0  0  0  0  0  0  0  0  0  0  0  0
   -0.2990   -0.8456    0.0000 C   0  0  0  0  0  0  0  0  0  0  0  0
   -0.2990    0.8456    0.0000 C   0  0  0  0  0  0  0  0  0  0  0  0
   -1.0622   -0.4537    0.0000 C   0  0  0  0  0  0  0  0  0  0  0  0
   -0.2990   -1.6705    0.0000 C   0  0  0  0  0  0  0  0  0  0  0  0
   -1.7428   -0.8456    0.0000 C   0  0  0  0  0  0  0  0  0  0  0  0
   -0.2990    1.6706    0.0000 C   0  0  0  0  0  0  0  0  0  0  0  0
   -1.7428   -1.6705    0.0000 C   0  0  0  0  0  0  0  0  0  0  0  0
    1.1653    1.6706    0.0000 C   0  0  0  0  0  0  0  0  0  0  0  0
    0.4021    2.0624    0.0000 C   0  0  0  0  0  0  0  0  0  0  0  0
   -1.0622   -2.0624    0.0000 C   0  0  0  0  0  0  0  0  0  0  0  0
   -1.7840    0.9074    0.0000 O   0  0  0  0  0  0  0  0  0  0  0  0
    2.7634    0.3267    0.0000 H   0  0  0  0  0  0  0  0  0  0  0  0
    0.5818   -2.2083    0.0000 H   0  0  0  0  0  0  0  0  0  0  0  0
   -2.6362   -0.3291    0.0000 H   0  0  0  0  0  0  0  0  0  0  0  0
   -1.1891    2.1928    0.0000 H   0  0  0  0  0  0  0  0  0  0  0  0
   -2.6362   -2.1870    0.0000 H   0  0  0  0  0  0  0  0  0  0  0  0
    2.0460    2.2085    0.0000 H   0  0  0  0  0  0  0  0  0  0  0  0
    0.3839    3.0942    0.0000 H   0  0  0  0  0  0  0  0  0  0  0  0
   -1.0870   -3.0941    0.0000 H   0  0  0  0  0  0  0  0  0  0  0  0
  1 18  1  0  0  0  0
  2  1  1  0  0  0  0
  4  2  2  0  0  0  0
  4  3  1  0  0  0  0
  5  1  1  0  0  0  0
  5  3  2  0  0  0  0
  7  4  1  0  0  0  0
  8  3  1  0  0  0  0
  8  6  1  0  0  0  0
  9  6  1  0  0  0  0
  9  7  2  0  0  0  0
 10  7  1  0  0  0  0
 10 19  1  0  0  0  0
 11  9  1  0  0  0  0
 11 20  1  0  0  0  0
 12  8  2  0  0  0  0
 12 21  1  0  0  0  0
 13 11  2  0  0  0  0
 13 22  1  0  0  0  0
 14  5  1  0  0  0  0
 14 23  1  0  0  0  0
 15 12  1  0  0  0  0
 15 14  2  0  0  0  0
 15 24  1  0  0  0  0
 16 10  2  0  0  0  0
 16 13  1  0  0  0  0
 16 25  1  0  0  0  0
 17  6  2  0  0  0  0
M  END
>  <DRUGBANK_ID>
DB01782

>  <SECONDARY_ACCESSION_NUMBERS>
EXPT00232

>  <COMMON_NAME>
Pyrazolanthrone

>  <CAS_NUMBER>
129-56-6

>  <UNII>
1TW30Y2766

>  <SYNONYMS>
1,9-Pyrazoloanthrone; Anthra(1,9-cd)pyrazol-6(2H)-one; Pyrazoleanthrone

$$$$
