
 OpenBabel10282417072D

 19 18  0  0  0  0  0  0  0  0999 V2000
    0.0552    0.0552    0.0000 C   0  0  0  0  0  0  0  0  0  0  0  0
    0.0552    0.8802    0.0000 C   0  0  0  0  0  0  0  0  0  0  0  0
   -0.6592   -0.3572    0.0000 C   0  0  0  0  0  0  0  0  0  0  0  0
    1.4842    1.7052    0.0000 O   0  0  0  0  0  0  0  0  0  0  0  0
    0.3572    2.0072    0.0000 O   0  0  0  0  0  0  0  0  0  0  0  0
    1.1822    0.5782    0.0000 O   0  0  0  0  0  0  0  0  0  0  0  0
   -0.6592   -2.0072    0.0000 O   0  0  0  0  0  0  0  0  0  0  0  0
   -1.4842   -1.1822    0.0000 O   0  0  0  0  0  0  0  0  0  0  0  0
    0.1657   -1.1822    0.0000 O   0  0  0  0  0  0  0  0  0  0  0  0
    0.7697    1.2927    0.0000 S   0  0  0  0  0  0  0  0  0  0  0  0
   -0.6592   -1.1822    0.0000 S   0  0  0  0  0  0  0  0  0  0  0  0
    0.9818   -0.4798    0.0000 H   0  0  0  0  0  0  0  0  0  0  0  0
    0.0552   -1.0148    0.0000 H   0  0  0  0  0  0  0  0  0  0  0  0
   -0.8714    1.4152    0.0000 H   0  0  0  0  0  0  0  0  0  0  0  0
    0.0552    1.9502    0.0000 H   0  0  0  0  0  0  0  0  0  0  0  0
   -1.5858    0.1778    0.0000 H   0  0  0  0  0  0  0  0  0  0  0  0
   -1.5859   -0.8922    0.0000 H   0  0  0  0  0  0  0  0  0  0  0  0
    2.3242    1.2202    0.0000 H   0  0  0  0  0  0  0  0  0  0  0  0
   -1.4992   -2.4922    0.0000 H   0  0  0  0  0  0  0  0  0  0  0  0
  1 12  1  0  0  0  0
  1 13  1  0  0  0  0
  2  1  1  0  0  0  0
  2 14  1  0  0  0  0
  2 15  1  0  0  0  0
  3  1  1  0  0  0  0
  3 16  1  0  0  0  0
  3 17  1  0  0  0  0
  4 18  1  0  0  0  0
  7 19  1  0  0  0  0
 10  2  1  0  0  0  0
 10  4  1  0  0  0  0
 10  5  2  0  0  0  0
 10  6  2  0  0  0  0
 11  3  1  0  0  0  0
 11  7  1  0  0  0  0
 11  8  2  0  0  0  0
 11  9  2  0  0  0  0
M  END
>  <DRUGBANK_ID>
DB06405

>  <COMMON_NAME>
Eprodisate

>  <CAS_NUMBER>
21668-77-9

>  <UNII>
6QFP76V7S7

>  <SYNONYMS>
1,3-propanedisulfonic acid; Eprodisate; Propane-1,3-disulfonate; Propane-1,3-disulfonic acid; Propane-1,3-disulphonate

$$$$
