
 OpenBabel10282417072D

 63 65  0  0  1  0  0  0  0  0999 V2000
   -6.4302   -0.4125    0.0000 C   0  0  0  0  0  0  0  0  0  0  0  0
   -5.7158    0.0000    0.0000 C   0  0  0  0  0  0  0  0  0  0  0  0
   -5.0013   -0.4125    0.0000 O   0  0  0  0  0  0  0  0  0  0  0  0
   -4.2868    0.0000    0.0000 C   0  0  0  0  0  0  0  0  0  0  0  0
   -3.5724   -0.4125    0.0000 C   0  0  0  0  0  0  0  0  0  0  0  0
   -2.8579    0.0000    0.0000 C   0  0  0  0  0  0  0  0  0  0  0  0
   -2.1434   -0.4125    0.0000 C   0  0  0  0  0  0  0  0  0  0  0  0
   -2.1434   -1.2375    0.0000 C   0  0  0  0  0  0  0  0  0  0  0  0
   -2.8579   -1.6500    0.0000 C   0  0  0  0  0  0  0  0  0  0  0  0
   -3.5724   -1.2375    0.0000 C   0  0  0  0  0  0  0  0  0  0  0  0
   -2.8579   -2.4750    0.0000 O   0  0  0  0  0  0  0  0  0  0  0  0
   -3.5724   -2.8875    0.0000 C   0  0  0  0  0  0  0  0  0  0  0  0
   -1.4289   -1.6500    0.0000 C   0  0  0  0  0  0  0  0  0  0  0  0
   -0.7145   -1.2375    0.0000 C   0  0  0  0  0  0  0  0  0  0  0  0
    0.0000   -1.6500    0.0000 C   0  0  0  0  0  0  0  0  0  0  0  0
    0.0000   -2.4750    0.0000 C   0  0  0  0  0  0  0  0  0  0  0  0
   -0.7145   -2.8875    0.0000 C   0  0  0  0  0  0  0  0  0  0  0  0
   -1.4289   -2.4750    0.0000 C   0  0  0  0  0  0  0  0  0  0  0  0
    0.7145   -2.8875    0.0000 C   0  0  0  0  0  0  0  0  0  0  0  0
    1.4289   -2.4750    0.0000 C   0  0  1  0  0  0  0  0  0  0  0  0
    1.4289   -1.6500    0.0000 C   0  0  0  0  0  0  0  0  0  0  0  0
    0.7145   -1.2375    0.0000 O   0  0  0  0  0  0  0  0  0  0  0  0
    2.1434   -1.2375    0.0000 O   0  0  0  0  0  0  0  0  0  0  0  0
    2.1434   -2.8875    0.0000 N   0  0  0  0  0  0  0  0  0  0  0  0
    2.8579   -2.4750    0.0000 C   0  0  0  0  0  0  0  0  0  0  0  0
    2.8579   -1.6500    0.0000 O   0  0  0  0  0  0  0  0  0  0  0  0
    3.5724   -2.8875    0.0000 C   0  0  0  0  0  0  0  0  0  0  0  0
    4.2868   -2.4750    0.0000 C   0  0  0  0  0  0  0  0  0  0  0  0
    5.0013   -2.8875    0.0000 C   0  0  0  0  0  0  0  0  0  0  0  0
    5.0013   -3.7125    0.0000 C   0  0  0  0  0  0  0  0  0  0  0  0
    4.2868   -4.1250    0.0000 C   0  0  0  0  0  0  0  0  0  0  0  0
    3.5724   -3.7125    0.0000 C   0  0  0  0  0  0  0  0  0  0  0  0
    2.8579   -4.1250    0.0000 F   0  0  0  0  0  0  0  0  0  0  0  0
    4.2868   -1.6500    0.0000 F   0  0  0  0  0  0  0  0  0  0  0  0
   -1.4289   -0.0000    0.0000 O   0  0  0  0  0  0  0  0  0  0  0  0
   -0.7145   -0.4125    0.0000 C   0  0  0  0  0  0  0  0  0  0  0  0
   -7.3569    0.1225    0.0000 H   0  0  0  0  0  0  0  0  0  0  0  0
   -6.4302   -1.4825    0.0000 H   0  0  0  0  0  0  0  0  0  0  0  0
   -7.3568   -0.9475    0.0000 H   0  0  0  0  0  0  0  0  0  0  0  0
   -5.7158    1.0700    0.0000 H   0  0  0  0  0  0  0  0  0  0  0  0
   -4.7892    0.5350    0.0000 H   0  0  0  0  0  0  0  0  0  0  0  0
   -4.2868    1.0700    0.0000 H   0  0  0  0  0  0  0  0  0  0  0  0
   -3.3601    0.5350    0.0000 H   0  0  0  0  0  0  0  0  0  0  0  0
   -2.8579    1.0320    0.0000 H   0  0  0  0  0  0  0  0  0  0  0  0
   -4.4661   -1.7535    0.0000 H   0  0  0  0  0  0  0  0  0  0  0  0
   -4.4990   -2.3525    0.0000 H   0  0  0  0  0  0  0  0  0  0  0  0
   -3.5724   -3.9575    0.0000 H   0  0  0  0  0  0  0  0  0  0  0  0
   -4.4991   -3.4225    0.0000 H   0  0  0  0  0  0  0  0  0  0  0  0
   -0.7145   -0.2055    0.0000 H   0  0  0  0  0  0  0  0  0  0  0  0
    0.8937   -1.1340    0.0000 H   0  0  0  0  0  0  0  0  0  0  0  0
   -0.7145   -3.9195    0.0000 H   0  0  0  0  0  0  0  0  0  0  0  0
   -2.3226   -2.9910    0.0000 H   0  0  0  0  0  0  0  0  0  0  0  0
    0.7145   -3.9575    0.0000 H   0  0  0  0  0  0  0  0  0  0  0  0
    1.6412   -3.4225    0.0000 H   0  0  0  0  0  0  0  0  0  0  0  0
    1.4289   -3.5450    0.0000 H   0  0  0  0  0  0  0  0  0  0  0  0
    2.9549   -1.7060    0.0000 H   0  0  0  0  0  0  0  0  0  0  0  0
    2.1434   -3.8720    0.0000 H   0  0  0  0  0  0  0  0  0  0  0  0
    5.8950   -2.3715    0.0000 H   0  0  0  0  0  0  0  0  0  0  0  0
    5.8950   -4.2285    0.0000 H   0  0  0  0  0  0  0  0  0  0  0  0
    4.2868   -5.1570    0.0000 H   0  0  0  0  0  0  0  0  0  0  0  0
   -0.7145   -1.4825    0.0000 H   0  0  0  0  0  0  0  0  0  0  0  0
    0.2122    0.1225    0.0000 H   0  0  0  0  0  0  0  0  0  0  0  0
    0.2121   -0.9475    0.0000 H   0  0  0  0  0  0  0  0  0  0  0  0
  1  2  1  0  0  0  0
  1 37  1  0  0  0  0
  1 38  1  0  0  0  0
  1 39  1  0  0  0  0
  2  3  1  0  0  0  0
  2 40  1  0  0  0  0
  2 41  1  0  0  0  0
  3  4  1  0  0  0  0
  4  5  1  0  0  0  0
  4 42  1  0  0  0  0
  4 43  1  0  0  0  0
  5  6  2  0  0  0  0
  5 10  1  0  0  0  0
  6  7  1  0  0  0  0
  6 44  1  0  0  0  0
  7  8  2  0  0  0  0
  7 35  1  0  0  0  0
  8  9  1  0  0  0  0
  8 13  1  0  0  0  0
  9 10  2  0  0  0  0
  9 11  1  0  0  0  0
 10 45  1  0  0  0  0
 11 12  1  0  0  0  0
 12 46  1  0  0  0  0
 12 47  1  0  0  0  0
 12 48  1  0  0  0  0
 13 14  2  0  0  0  0
 13 18  1  0  0  0  0
 14 15  1  0  0  0  0
 14 49  1  0  0  0  0
 15 16  2  0  0  0  0
 15 50  1  0  0  0  0
 16 17  1  0  0  0  0
 16 19  1  0  0  0  0
 17 18  2  0  0  0  0
 17 51  1  0  0  0  0
 18 52  1  0  0  0  0
 19 20  1  0  0  0  0
 19 53  1  0  0  0  0
 19 54  1  0  0  0  0
 20 21  1  0  0  0  0
 20 24  1  0  0  0  0
 20 55  1  6  0  0  0
 21 22  2  0  0  0  0
 21 23  1  0  0  0  0
 23 56  1  0  0  0  0
 24 25  1  0  0  0  0
 24 57  1  0  0  0  0
 25 26  2  0  0  0  0
 25 27  1  0  0  0  0
 27 28  2  0  0  0  0
 27 32  1  0  0  0  0
 28 29  1  0  0  0  0
 28 34  1  0  0  0  0
 29 30  2  0  0  0  0
 29 58  1  0  0  0  0
 30 31  1  0  0  0  0
 30 59  1  0  0  0  0
 31 32  2  0  0  0  0
 31 60  1  0  0  0  0
 32 33  1  0  0  0  0
 35 36  1  0  0  0  0
 36 61  1  0  0  0  0
 36 62  1  0  0  0  0
 36 63  1  0  0  0  0
M  END
>  <DRUGBANK_ID>
DB12732

>  <COMMON_NAME>
Firategrast

>  <CAS_NUMBER>
402567-16-2

>  <UNII>
OJY3SK9H5F

>  <SYNONYMS>
Firategrast

$$$$
