NLA
 OpenBabel10282417072D

 24 25  0  0  0  0  0  0  0  0999 V2000
    0.3236    0.0242    0.0000 C   0  0  0  0  0  0  0  0  0  0  0  0
   -0.3909   -0.3883    0.0000 C   0  0  0  0  0  0  0  0  0  0  0  0
   -1.1054    0.0242    0.0000 C   0  0  0  0  0  0  0  0  0  0  0  0
   -1.1054    0.8492    0.0000 C   0  0  0  0  0  0  0  0  0  0  0  0
   -0.3909    1.2617    0.0000 C   0  0  0  0  0  0  0  0  0  0  0  0
    0.3236    0.8492    0.0000 C   0  0  0  0  0  0  0  0  0  0  0  0
    1.0380    1.2617    0.0000 C   0  0  0  0  0  0  0  0  0  0  0  0
    1.7525    0.8492    0.0000 C   0  0  0  0  0  0  0  0  0  0  0  0
    1.7525    0.0242    0.0000 C   0  0  0  0  0  0  0  0  0  0  0  0
    1.0380   -0.3883    0.0000 C   0  0  0  0  0  0  0  0  0  0  0  0
   -0.3909   -1.2133    0.0000 C   0  0  0  0  0  0  0  0  0  0  0  0
   -1.1054   -1.6258    0.0000 C   0  0  0  0  0  0  0  0  0  0  0  0
   -1.1054   -2.4508    0.0000 O   0  0  0  0  0  0  0  0  0  0  0  0
   -1.8198   -1.2133    0.0000 O   0  0  0  0  0  0  0  0  0  0  0  0
   -1.9991   -0.4918    0.0000 H   0  0  0  0  0  0  0  0  0  0  0  0
   -1.9991    1.3652    0.0000 H   0  0  0  0  0  0  0  0  0  0  0  0
   -0.3909    2.2937    0.0000 H   0  0  0  0  0  0  0  0  0  0  0  0
    1.0380    2.2937    0.0000 H   0  0  0  0  0  0  0  0  0  0  0  0
    2.6462    1.3652    0.0000 H   0  0  0  0  0  0  0  0  0  0  0  0
    2.6462   -0.4918    0.0000 H   0  0  0  0  0  0  0  0  0  0  0  0
    1.0380   -1.4203    0.0000 H   0  0  0  0  0  0  0  0  0  0  0  0
    0.5357   -1.7483    0.0000 H   0  0  0  0  0  0  0  0  0  0  0  0
   -0.3909   -2.2833    0.0000 H   0  0  0  0  0  0  0  0  0  0  0  0
   -1.8198   -0.2763    0.0000 H   0  0  0  0  0  0  0  0  0  0  0  0
  1  2  2  0  0  0  0
  1  6  1  0  0  0  0
  1 10  1  0  0  0  0
  2  3  1  0  0  0  0
  2 11  1  0  0  0  0
  3  4  2  0  0  0  0
  3 15  1  0  0  0  0
  4  5  1  0  0  0  0
  4 16  1  0  0  0  0
  5  6  2  0  0  0  0
  5 17  1  0  0  0  0
  6  7  1  0  0  0  0
  7  8  2  0  0  0  0
  7 18  1  0  0  0  0
  8  9  1  0  0  0  0
  8 19  1  0  0  0  0
  9 10  2  0  0  0  0
  9 20  1  0  0  0  0
 10 21  1  0  0  0  0
 11 12  1  0  0  0  0
 11 22  1  0  0  0  0
 11 23  1  0  0  0  0
 12 13  2  0  0  0  0
 12 14  1  0  0  0  0
 14 24  1  0  0  0  0
M  END
>  <DRUGBANK_ID>
DB01750

>  <SECONDARY_ACCESSION_NUMBERS>
EXPT02353

>  <COMMON_NAME>
1-naphthaleneacetic acid

>  <CAS_NUMBER>
86-87-3

>  <UNII>
33T7G7757C

>  <SYNONYMS>
1-Naphthylacetic acid; NAA; naphthalen-1-yl-acetic acid; naphthalene-1-acetic acid; α-NAA; α-naphthaleneacetic acid

$$$$
