BAS
 OpenBabel10282417072D

 25 25  0  0  0  0  0  0  0  0999 V2000
   -0.7527    1.7072    0.0000 C   0  0  0  0  0  0  0  0  0  0  0  0
   -1.4672    2.1197    0.0000 O   0  0  0  0  0  0  0  0  0  0  0  0
   -0.7527    0.8822    0.0000 N   0  0  0  0  0  0  0  0  0  0  0  0
   -0.0382    0.4697    0.0000 C   0  0  2  0  0  0  0  0  0  0  0  0
    0.6762    0.8822    0.0000 C   0  0  0  0  0  0  0  0  0  0  0  0
    1.3907    0.4697    0.0000 C   0  0  0  0  0  0  0  0  0  0  0  0
   -0.0382   -0.3553    0.0000 C   0  0  0  0  0  0  0  0  0  0  0  0
    0.6762   -0.7678    0.0000 C   0  0  0  0  0  0  0  0  0  0  0  0
    0.6762   -1.5928    0.0000 C   0  0  0  0  0  0  0  0  0  0  0  0
   -0.0382   -2.0053    0.0000 C   0  0  0  0  0  0  0  0  0  0  0  0
   -0.7527   -1.5928    0.0000 C   0  0  0  0  0  0  0  0  0  0  0  0
   -0.7527   -0.7678    0.0000 C   0  0  0  0  0  0  0  0  0  0  0  0
   -0.0382    1.0536    0.0000 H   0  0  0  0  0  0  0  0  0  0  0  0
    0.1410    2.2232    0.0000 H   0  0  0  0  0  0  0  0  0  0  0  0
   -1.6053    0.3899    0.0000 H   0  0  0  0  0  0  0  0  0  0  0  0
    0.6762    1.9522    0.0000 H   0  0  0  0  0  0  0  0  0  0  0  0
    1.6028    1.4172    0.0000 H   0  0  0  0  0  0  0  0  0  0  0  0
    1.3907   -0.6003    0.0000 H   0  0  0  0  0  0  0  0  0  0  0  0
    2.3173    1.0047    0.0000 H   0  0  0  0  0  0  0  0  0  0  0  0
    2.3174   -0.0653    0.0000 H   0  0  0  0  0  0  0  0  0  0  0  0
    1.5699   -0.2518    0.0000 H   0  0  0  0  0  0  0  0  0  0  0  0
    1.5699   -2.1088    0.0000 H   0  0  0  0  0  0  0  0  0  0  0  0
   -0.0382   -3.0373    0.0000 H   0  0  0  0  0  0  0  0  0  0  0  0
   -1.6464   -2.1088    0.0000 H   0  0  0  0  0  0  0  0  0  0  0  0
   -1.6464   -0.2518    0.0000 H   0  0  0  0  0  0  0  0  0  0  0  0
  1  2  2  0  0  0  0
  1  3  1  0  0  0  0
  1 14  1  0  0  0  0
  3 15  1  0  0  0  0
  4  3  1  0  0  0  0
  4  5  1  0  0  0  0
  4  7  1  0  0  0  0
  4 13  1  1  0  0  0
  5  6  1  0  0  0  0
  5 16  1  0  0  0  0
  5 17  1  0  0  0  0
  6 18  1  0  0  0  0
  6 19  1  0  0  0  0
  6 20  1  0  0  0  0
  7  8  2  0  0  0  0
  7 12  1  0  0  0  0
  8  9  1  0  0  0  0
  8 21  1  0  0  0  0
  9 10  2  0  0  0  0
  9 22  1  0  0  0  0
 10 11  1  0  0  0  0
 10 23  1  0  0  0  0
 11 12  2  0  0  0  0
 11 24  1  0  0  0  0
 12 25  1  0  0  0  0
M  END
>  <DRUGBANK_ID>
DB07436

>  <COMMON_NAME>
N-(1-PHENYL-PROPYL)-FORMAMIDE

$$$$
