
 OpenBabel10282417072D

 62 64  0  0  0  0  0  0  0  0999 V2000
    1.1499    0.2001    0.0000 C   0  0  0  0  0  0  0  0  0  0  0  0
   -2.5538   -0.6514    0.0000 C   0  0  0  0  0  0  0  0  0  0  0  0
   -4.7379    0.5508    0.0000 C   0  0  0  0  0  0  0  0  0  0  0  0
    2.5922    1.8921    0.0000 C   0  0  0  0  0  0  0  0  0  0  0  0
   -0.4046   -1.0618    0.0000 C   0  0  0  0  0  0  0  0  0  0  0  0
   -4.0087    0.1508    0.0000 C   0  0  0  0  0  0  0  0  0  0  0  0
   -1.1019   -0.6554    0.0000 N   0  0  0  0  0  0  0  0  0  0  0  0
   -5.4608    0.1399    0.0000 N   0  0  0  0  0  0  0  0  0  0  0  0
    1.8752   -1.8184    0.0000 O   0  0  0  0  0  0  0  0  0  0  0  0
    2.5871    0.2557    0.0000 C   0  0  0  0  0  0  0  0  0  0  0  0
    3.2944    0.6585    0.0000 C   0  0  0  0  0  0  0  0  0  0  0  0
    2.5846   -0.5652    0.0000 C   0  0  2  0  0  0  0  0  0  0  0  0
    1.1499   -0.6362    0.0000 N   0  0  0  0  0  0  0  0  0  0  0  0
    1.8849    1.4837    0.0000 C   0  0  0  0  0  0  0  0  0  0  0  0
   -3.2867    0.5572    0.0000 C   0  0  0  0  0  0  0  0  0  0  0  0
    5.4608   -0.4516    0.0000 O   0  0  0  0  0  0  0  0  0  0  0  0
    3.2968    1.4794    0.0000 C   0  0  0  0  0  0  0  0  0  0  0  0
   -4.0059   -0.6598    0.0000 C   0  0  0  0  0  0  0  0  0  0  0  0
    1.8825    0.6628    0.0000 C   0  0  0  0  0  0  0  0  0  0  0  0
    4.7539   -1.7083    0.0000 O   0  0  0  0  0  0  0  0  0  0  0  0
   -1.8306   -1.0550    0.0000 C   0  0  0  0  0  0  0  0  0  0  0  0
    0.3136   -0.6362    0.0000 C   0  0  1  0  0  0  0  0  0  0  0  0
    4.7472   -0.8877    0.0000 C   0  0  0  0  0  0  0  0  0  0  0  0
   -3.2763   -1.0583    0.0000 C   0  0  0  0  0  0  0  0  0  0  0  0
   -0.3953   -1.8921    0.0000 O   0  0  0  0  0  0  0  0  0  0  0  0
    1.8674   -1.0037    0.0000 C   0  0  0  0  0  0  0  0  0  0  0  0
    0.3136    0.2001    0.0000 C   0  0  0  0  0  0  0  0  0  0  0  0
    4.0255   -0.5091    0.0000 C   0  0  0  0  0  0  0  0  0  0  0  0
   -2.5617    0.1593    0.0000 C   0  0  0  0  0  0  0  0  0  0  0  0
   -4.7449    1.3622    0.0000 N   0  0  0  0  0  0  0  0  0  0  0  0
    3.3085   -0.9473    0.0000 N   0  0  0  0  0  0  0  0  0  0  0  0
    0.3104   -1.4591    0.0000 H   0  0  0  0  0  0  0  0  0  0  0  0
    1.9065    0.9567    0.0000 H   0  0  0  0  0  0  0  0  0  0  0  0
    0.7404    1.1887    0.0000 H   0  0  0  0  0  0  0  0  0  0  0  0
    2.5955    2.9621    0.0000 H   0  0  0  0  0  0  0  0  0  0  0  0
    3.5213    2.4228    0.0000 H   0  0  0  0  0  0  0  0  0  0  0  0
   -1.0891    0.3290    0.0000 H   0  0  0  0  0  0  0  0  0  0  0  0
   -6.3101    0.6379    0.0000 H   0  0  0  0  0  0  0  0  0  0  0  0
   -5.4674   -0.8446    0.0000 H   0  0  0  0  0  0  0  0  0  0  0  0
    3.5113   -0.2834    0.0000 H   0  0  0  0  0  0  0  0  0  0  0  0
    4.2187    0.1194    0.0000 H   0  0  0  0  0  0  0  0  0  0  0  0
    4.2230    1.1901    0.0000 H   0  0  0  0  0  0  0  0  0  0  0  0
    3.5018   -0.0141    0.0000 H   0  0  0  0  0  0  0  0  0  0  0  0
    0.9590    2.0200    0.0000 H   0  0  0  0  0  0  0  0  0  0  0  0
    1.8856    2.5537    0.0000 H   0  0  0  0  0  0  0  0  0  0  0  0
   -3.2922    1.5892    0.0000 H   0  0  0  0  0  0  0  0  0  0  0  0
    6.2837   -0.8997    0.0000 H   0  0  0  0  0  0  0  0  0  0  0  0
    4.2259    2.0101    0.0000 H   0  0  0  0  0  0  0  0  0  0  0  0
    3.3026    2.5494    0.0000 H   0  0  0  0  0  0  0  0  0  0  0  0
   -4.8926   -1.1879    0.0000 H   0  0  0  0  0  0  0  0  0  0  0  0
    0.9550    0.1293    0.0000 H   0  0  0  0  0  0  0  0  0  0  0  0
    0.9571    1.1999    0.0000 H   0  0  0  0  0  0  0  0  0  0  0  0
   -1.8346   -2.1250    0.0000 H   0  0  0  0  0  0  0  0  0  0  0  0
   -2.7543   -1.5950    0.0000 H   0  0  0  0  0  0  0  0  0  0  0  0
   -3.2696   -2.0903    0.0000 H   0  0  0  0  0  0  0  0  0  0  0  0
   -0.4430    0.9567    0.0000 H   0  0  0  0  0  0  0  0  0  0  0  0
    0.7231    1.1887    0.0000 H   0  0  0  0  0  0  0  0  0  0  0  0
    3.9905    0.5603    0.0000 H   0  0  0  0  0  0  0  0  0  0  0  0
    3.0838   -0.0011    0.0000 H   0  0  0  0  0  0  0  0  0  0  0  0
   -1.6762    0.6893    0.0000 H   0  0  0  0  0  0  0  0  0  0  0  0
   -3.8966    1.8618    0.0000 H   0  0  0  0  0  0  0  0  0  0  0  0
    3.3406   -1.9668    0.0000 H   0  0  0  0  0  0  0  0  0  0  0  0
  1 27  1  0  0  0  0
  1 33  1  0  0  0  0
  1 34  1  0  0  0  0
  2 29  2  0  0  0  0
  2 21  1  0  0  0  0
  3 30  2  0  0  0  0
  3  8  1  0  0  0  0
  4 14  1  0  0  0  0
  4 35  1  0  0  0  0
  4 36  1  0  0  0  0
  5 25  2  0  0  0  0
  6  3  1  0  0  0  0
  6 18  1  0  0  0  0
  7  5  1  0  0  0  0
  7 37  1  0  0  0  0
  8 38  1  0  0  0  0
  8 39  1  0  0  0  0
 10 11  1  0  0  0  0
 10 40  1  0  0  0  0
 11 17  1  0  0  0  0
 11 41  1  0  0  0  0
 11 42  1  0  0  0  0
 12 31  1  0  0  0  0
 12 10  1  0  0  0  0
 12 43  1  6  0  0  0
 13  1  1  0  0  0  0
 13 26  1  0  0  0  0
 14 44  1  0  0  0  0
 14 45  1  0  0  0  0
 15  6  2  0  0  0  0
 15 46  1  0  0  0  0
 16 47  1  0  0  0  0
 17  4  1  0  0  0  0
 17 48  1  0  0  0  0
 17 49  1  0  0  0  0
 18 24  2  0  0  0  0
 18 50  1  0  0  0  0
 19 10  1  0  0  0  0
 19 14  1  0  0  0  0
 19 51  1  0  0  0  0
 19 52  1  0  0  0  0
 21  7  1  0  0  0  0
 21 53  1  0  0  0  0
 21 54  1  0  0  0  0
 22 13  1  0  0  0  0
 22  5  1  0  0  0  0
 22 32  1  1  0  0  0
 23 20  2  0  0  0  0
 23 16  1  0  0  0  0
 24  2  1  0  0  0  0
 24 55  1  0  0  0  0
 26 12  1  0  0  0  0
 26  9  2  0  0  0  0
 27 22  1  0  0  0  0
 27 56  1  0  0  0  0
 27 57  1  0  0  0  0
 28 23  1  0  0  0  0
 28 58  1  0  0  0  0
 28 59  1  0  0  0  0
 29 15  1  0  0  0  0
 29 60  1  0  0  0  0
 30 61  1  0  0  0  0
 31 28  1  0  0  0  0
 31 62  1  0  0  0  0
M  END
>  <DRUGBANK_ID>
DB13616

>  <COMMON_NAME>
Melagatran

>  <CAS_NUMBER>
159776-70-2

>  <UNII>
2A9QP32MD4

>  <SYNONYMS>
Melagatrán; Mélagatran; Melagatran; Melagatranum

$$$$
