
 OpenBabel10282417072D

 18 17  0  0  1  0  0  0  0  0999 V2000
    8.7751   -4.3490    0.0000 O   0  0  0  0  0  0  0  0  0  0  0  0
    8.0582   -3.9350    0.0000 C   0  0  0  0  0  0  0  0  0  0  0  0
    7.3446   -4.3490    0.0000 C   0  0  2  0  0  0  0  0  0  0  0  0
    6.6310   -3.9350    0.0000 C   0  0  0  0  0  0  0  0  0  0  0  0
    7.3446   -5.1770    0.0000 O   0  0  0  0  0  0  0  0  0  0  0  0
    5.9142   -4.3490    0.0000 O   0  0  0  0  0  0  0  0  0  0  0  0
    6.6310   -3.1102    0.0000 O   0  0  0  0  0  0  0  0  0  0  0  0
    9.4896   -3.9365    0.0000 P   0  0  0  0  0  0  0  0  0  0  0  0
   10.2040   -4.3490    0.0000 O   0  0  0  0  0  0  0  0  0  0  0  0
    9.4896   -3.1115    0.0000 O   0  0  0  0  0  0  0  0  0  0  0  0
    9.4896   -4.7615    0.0000 O   0  0  0  0  0  0  0  0  0  0  0  0
    8.0571   -2.8650    0.0000 H   0  0  0  0  0  0  0  0  0  0  0  0
    7.1307   -3.4014    0.0000 H   0  0  0  0  0  0  0  0  0  0  0  0
    8.2718   -4.8830    0.0000 H   0  0  0  0  0  0  0  0  0  0  0  0
    6.5046   -5.6620    0.0000 H   0  0  0  0  0  0  0  0  0  0  0  0
    5.1027   -3.8806    0.0000 H   0  0  0  0  0  0  0  0  0  0  0  0
   10.2040   -5.3190    0.0000 H   0  0  0  0  0  0  0  0  0  0  0  0
    8.6496   -5.2465    0.0000 H   0  0  0  0  0  0  0  0  0  0  0  0
  1  2  1  0  0  0  0
  1  8  1  0  0  0  0
  2  3  1  0  0  0  0
  2 12  1  0  0  0  0
  2 13  1  0  0  0  0
  3  4  1  0  0  0  0
  3  5  1  0  0  0  0
  3 14  1  6  0  0  0
  4  6  1  0  0  0  0
  4  7  2  0  0  0  0
  5 15  1  0  0  0  0
  6 16  1  0  0  0  0
  8  9  1  0  0  0  0
  8 10  2  0  0  0  0
  8 11  1  0  0  0  0
  9 17  1  0  0  0  0
 11 18  1  0  0  0  0
M  END
>  <DRUGBANK_ID>
DB04510

>  <SECONDARY_ACCESSION_NUMBERS>
EXPT00187

>  <COMMON_NAME>
3-phospho-D-glyceric acid

>  <CAS_NUMBER>
820-11-1

>  <SYNONYMS>
3-Phospho-(R)-glycerate; 3-phospho-D-glycerate; 3-Phosphoglycerate; D-glycerate 3-phosphate

$$$$
