
 OpenBabel10282417072D

 84 88  0  0  0  0  0  0  0  0999 V2000
    0.6623   -0.3720    0.0000 O   0  0  0  0  0  0  0  0  0  0  0  0
    1.3768    0.8654    0.0000 O   0  0  0  0  0  0  0  0  0  0  0  0
    4.9493   -0.3720    0.0000 O   0  0  0  0  0  0  0  0  0  0  0  0
    4.2347    0.8654    0.0000 O   0  0  0  0  0  0  0  0  0  0  0  0
    4.2347    3.3404    0.0000 O   0  5  0  0  0  0  0  0  0  0  0  0
    4.9493    2.1029    0.0000 O   0  0  0  0  0  0  0  0  0  0  0  0
   -2.1955   -0.3720    0.0000 N   0  0  0  0  0  0  0  0  0  0  0  0
    2.8058   -1.6096    0.0000 N   0  0  0  0  0  0  0  0  0  0  0  0
    4.2347    2.5154    0.0000 N   0  3  0  0  0  0  0  0  0  0  0  0
   -3.6245   -1.1971    0.0000 C   0  0  0  0  0  0  0  0  0  0  0  0
   -2.9100   -1.6096    0.0000 C   0  0  0  0  0  0  0  0  0  0  0  0
   -3.6245   -0.3720    0.0000 C   0  0  0  0  0  0  0  0  0  0  0  0
   -2.1955   -1.1971    0.0000 C   0  0  0  0  0  0  0  0  0  0  0  0
   -2.9100    0.0404    0.0000 C   0  0  0  0  0  0  0  0  0  0  0  0
   -4.2564   -0.6666    0.0000 C   0  0  0  0  0  0  0  0  0  0  0  0
   -4.0370   -1.9115    0.0000 C   0  0  0  0  0  0  0  0  0  0  0  0
   -1.4811    0.0404    0.0000 C   0  0  0  0  0  0  0  0  0  0  0  0
   -0.7665   -0.3720    0.0000 C   0  0  0  0  0  0  0  0  0  0  0  0
   -5.0318   -0.9489    0.0000 C   0  0  0  0  0  0  0  0  0  0  0  0
   -3.6245   -2.6260    0.0000 C   0  0  0  0  0  0  0  0  0  0  0  0
   -4.1132    0.1456    0.0000 C   0  0  0  0  0  0  0  0  0  0  0  0
   -4.8620   -1.9115    0.0000 C   0  0  0  0  0  0  0  0  0  0  0  0
   -0.0520    0.0404    0.0000 C   0  0  0  0  0  0  0  0  0  0  0  0
   -5.6637   -0.4185    0.0000 C   0  0  0  0  0  0  0  0  0  0  0  0
   -4.0370   -3.3404    0.0000 C   0  0  0  0  0  0  0  0  0  0  0  0
   -4.7452    0.6760    0.0000 C   0  0  0  0  0  0  0  0  0  0  0  0
   -5.2745   -2.6260    0.0000 C   0  0  0  0  0  0  0  0  0  0  0  0
   -5.5204    0.3939    0.0000 C   0  0  0  0  0  0  0  0  0  0  0  0
   -4.8620   -3.3404    0.0000 C   0  0  0  0  0  0  0  0  0  0  0  0
    2.8058    0.0404    0.0000 C   0  0  2  0  0  0  0  0  0  0  0  0
    2.0913   -0.3720    0.0000 C   0  0  0  0  0  0  0  0  0  0  0  0
    1.3768    0.0404    0.0000 C   0  0  0  0  0  0  0  0  0  0  0  0
    3.5203   -0.3720    0.0000 C   0  0  0  0  0  0  0  0  0  0  0  0
    2.0913   -1.1971    0.0000 C   0  0  0  0  0  0  0  0  0  0  0  0
    2.8058    0.8654    0.0000 C   0  0  0  0  0  0  0  0  0  0  0  0
    3.5203   -1.1971    0.0000 C   0  0  0  0  0  0  0  0  0  0  0  0
    1.3768   -1.6096    0.0000 C   0  0  0  0  0  0  0  0  0  0  0  0
    3.5203    1.2779    0.0000 C   0  0  0  0  0  0  0  0  0  0  0  0
    2.0913    1.2779    0.0000 C   0  0  0  0  0  0  0  0  0  0  0  0
    4.2347    0.0404    0.0000 C   0  0  0  0  0  0  0  0  0  0  0  0
    4.2347   -1.6096    0.0000 C   0  0  0  0  0  0  0  0  0  0  0  0
    3.5203    2.1029    0.0000 C   0  0  0  0  0  0  0  0  0  0  0  0
    2.0913    2.1029    0.0000 C   0  0  0  0  0  0  0  0  0  0  0  0
    2.8058    2.5154    0.0000 C   0  0  0  0  0  0  0  0  0  0  0  0
    5.6637    0.0404    0.0000 C   0  0  0  0  0  0  0  0  0  0  0  0
    2.8058   -2.1211    0.0000 H   0  0  0  0  0  0  0  0  0  0  0  0
   -2.9100   -2.6796    0.0000 H   0  0  0  0  0  0  0  0  0  0  0  0
   -1.9834   -2.1446    0.0000 H   0  0  0  0  0  0  0  0  0  0  0  0
   -4.5511    0.1631    0.0000 H   0  0  0  0  0  0  0  0  0  0  0  0
   -3.6244    0.6980    0.0000 H   0  0  0  0  0  0  0  0  0  0  0  0
   -1.2689   -1.7321    0.0000 H   0  0  0  0  0  0  0  0  0  0  0  0
   -2.1955   -2.2671    0.0000 H   0  0  0  0  0  0  0  0  0  0  0  0
   -2.9100    1.1104    0.0000 H   0  0  0  0  0  0  0  0  0  0  0  0
   -3.8366    0.5755    0.0000 H   0  0  0  0  0  0  0  0  0  0  0  0
   -1.4812    1.1104    0.0000 H   0  0  0  0  0  0  0  0  0  0  0  0
   -0.5545    0.5755    0.0000 H   0  0  0  0  0  0  0  0  0  0  0  0
   -0.7665   -1.4420    0.0000 H   0  0  0  0  0  0  0  0  0  0  0  0
    0.1601   -0.9070    0.0000 H   0  0  0  0  0  0  0  0  0  0  0  0
   -5.2110   -1.9652    0.0000 H   0  0  0  0  0  0  0  0  0  0  0  0
   -2.5925   -2.6260    0.0000 H   0  0  0  0  0  0  0  0  0  0  0  0
   -3.1434    0.4985    0.0000 H   0  0  0  0  0  0  0  0  0  0  0  0
   -5.3780   -1.0178    0.0000 H   0  0  0  0  0  0  0  0  0  0  0  0
   -0.0519    1.1104    0.0000 H   0  0  0  0  0  0  0  0  0  0  0  0
   -0.9786    0.5755    0.0000 H   0  0  0  0  0  0  0  0  0  0  0  0
   -6.6335   -0.7714    0.0000 H   0  0  0  0  0  0  0  0  0  0  0  0
   -3.5210   -4.2341    0.0000 H   0  0  0  0  0  0  0  0  0  0  0  0
   -4.5659    1.6923    0.0000 H   0  0  0  0  0  0  0  0  0  0  0  0
   -6.3065   -2.6260    0.0000 H   0  0  0  0  0  0  0  0  0  0  0  0
   -6.3109    1.0573    0.0000 H   0  0  0  0  0  0  0  0  0  0  0  0
   -5.3780   -4.2341    0.0000 H   0  0  0  0  0  0  0  0  0  0  0  0
    1.8792    0.5755    0.0000 H   0  0  0  0  0  0  0  0  0  0  0  0
    0.4502   -1.0746    0.0000 H   0  0  0  0  0  0  0  0  0  0  0  0
    1.3768   -2.6796    0.0000 H   0  0  0  0  0  0  0  0  0  0  0  0
    0.4501   -2.1446    0.0000 H   0  0  0  0  0  0  0  0  0  0  0  0
    4.4140    0.7619    0.0000 H   0  0  0  0  0  0  0  0  0  0  0  0
    1.1976    0.7619    0.0000 H   0  0  0  0  0  0  0  0  0  0  0  0
    4.2347   -2.6796    0.0000 H   0  0  0  0  0  0  0  0  0  0  0  0
    5.1614   -1.0746    0.0000 H   0  0  0  0  0  0  0  0  0  0  0  0
    5.1613   -2.1446    0.0000 H   0  0  0  0  0  0  0  0  0  0  0  0
    1.1976    2.6189    0.0000 H   0  0  0  0  0  0  0  0  0  0  0  0
    2.8058    3.5474    0.0000 H   0  0  0  0  0  0  0  0  0  0  0  0
    6.5903   -0.4947    0.0000 H   0  0  0  0  0  0  0  0  0  0  0  0
    5.6638    1.1104    0.0000 H   0  0  0  0  0  0  0  0  0  0  0  0
    6.5904    0.5753    0.0000 H   0  0  0  0  0  0  0  0  0  0  0  0
  1 23  1  0  0  0  0
  1 32  1  0  0  0  0
  2 32  2  0  0  0  0
  3 40  1  0  0  0  0
  3 45  1  0  0  0  0
  4 40  2  0  0  0  0
  5  9  1  0  0  0  0
  6  9  2  0  0  0  0
  7 13  1  0  0  0  0
  7 14  1  0  0  0  0
  7 17  1  0  0  0  0
  8 34  1  0  0  0  0
  8 36  1  0  0  0  0
  8 46  1  0  0  0  0
  9 42  1  0  0  0  0
 10 11  1  0  0  0  0
 10 12  1  0  0  0  0
 10 15  1  0  0  0  0
 10 16  1  0  0  0  0
 11 13  1  0  0  0  0
 11 47  1  0  0  0  0
 11 48  1  0  0  0  0
 12 14  1  0  0  0  0
 12 49  1  0  0  0  0
 12 50  1  0  0  0  0
 13 51  1  0  0  0  0
 13 52  1  0  0  0  0
 14 53  1  0  0  0  0
 14 54  1  0  0  0  0
 15 19  2  0  0  0  0
 15 21  1  0  0  0  0
 16 20  2  0  0  0  0
 16 22  1  0  0  0  0
 17 18  1  0  0  0  0
 17 55  1  0  0  0  0
 17 56  1  0  0  0  0
 18 23  1  0  0  0  0
 18 57  1  0  0  0  0
 18 58  1  0  0  0  0
 19 24  1  0  0  0  0
 19 59  1  0  0  0  0
 20 25  1  0  0  0  0
 20 60  1  0  0  0  0
 21 26  2  0  0  0  0
 21 61  1  0  0  0  0
 22 27  2  0  0  0  0
 22 62  1  0  0  0  0
 23 63  1  0  0  0  0
 23 64  1  0  0  0  0
 24 28  2  0  0  0  0
 24 65  1  0  0  0  0
 25 29  2  0  0  0  0
 25 66  1  0  0  0  0
 26 28  1  0  0  0  0
 26 67  1  0  0  0  0
 27 29  1  0  0  0  0
 27 68  1  0  0  0  0
 28 69  1  0  0  0  0
 29 70  1  0  0  0  0
 30 31  1  0  0  0  0
 30 33  1  0  0  0  0
 30 35  1  0  0  0  0
 30 71  1  6  0  0  0
 31 32  1  0  0  0  0
 31 34  2  0  0  0  0
 33 36  2  0  0  0  0
 33 40  1  0  0  0  0
 34 37  1  0  0  0  0
 35 38  2  0  0  0  0
 35 39  1  0  0  0  0
 36 41  1  0  0  0  0
 37 72  1  0  0  0  0
 37 73  1  0  0  0  0
 37 74  1  0  0  0  0
 38 42  1  0  0  0  0
 38 75  1  0  0  0  0
 39 43  2  0  0  0  0
 39 76  1  0  0  0  0
 41 77  1  0  0  0  0
 41 78  1  0  0  0  0
 41 79  1  0  0  0  0
 42 44  2  0  0  0  0
 43 44  1  0  0  0  0
 43 80  1  0  0  0  0
 44 81  1  0  0  0  0
 45 82  1  0  0  0  0
 45 83  1  0  0  0  0
 45 84  1  0  0  0  0
M  CHG  2   5  -1   9   1
M  END
>  <DRUGBANK_ID>
DB09239

>  <COMMON_NAME>
Niguldipine

>  <CAS_NUMBER>
113165-32-5

>  <UNII>
Z81N45O25Z

>  <SYNONYMS>
Niguldipine

$$$$
