
 OpenBabel10282417072D

 18 17  0  0  0  0  0  0  0  0999 V2000
    0.4125    2.1434    0.0000 C   0  0  0  0  0  0  0  0  0  0  0  0
    0.8250    1.4289    0.0000 C   0  0  0  0  0  0  0  0  0  0  0  0
    0.1105    1.0164    0.0000 C   0  0  0  0  0  0  0  0  0  0  0  0
    1.5395    1.8414    0.0000 O   0  0  0  0  0  0  0  0  0  0  0  0
    1.2375    0.7145    0.0000 C   0  0  0  0  0  0  0  0  0  0  0  0
    0.8250    0.0000    0.0000 C   0  0  0  0  0  0  0  0  0  0  0  0
    1.2375   -0.7145    0.0000 O   0  0  0  0  0  0  0  0  0  0  0  0
    0.0000    0.0000    0.0000 O   0  0  0  0  0  0  0  0  0  0  0  0
    0.9475    3.0700    0.0000 H   0  0  0  0  0  0  0  0  0  0  0  0
   -0.6575    2.1434    0.0000 H   0  0  0  0  0  0  0  0  0  0  0  0
   -0.1225    3.0701    0.0000 H   0  0  0  0  0  0  0  0  0  0  0  0
   -0.8161    1.5514    0.0000 H   0  0  0  0  0  0  0  0  0  0  0  0
    0.1105   -0.0536    0.0000 H   0  0  0  0  0  0  0  0  0  0  0  0
   -0.8162    0.4814    0.0000 H   0  0  0  0  0  0  0  0  0  0  0  0
    2.3795    1.3564    0.0000 H   0  0  0  0  0  0  0  0  0  0  0  0
    2.3075    0.7145    0.0000 H   0  0  0  0  0  0  0  0  0  0  0  0
    1.7725   -0.2121    0.0000 H   0  0  0  0  0  0  0  0  0  0  0  0
    0.7690   -1.5260    0.0000 H   0  0  0  0  0  0  0  0  0  0  0  0
  1  2  1  0  0  0  0
  1  9  1  0  0  0  0
  1 10  1  0  0  0  0
  1 11  1  0  0  0  0
  2  3  1  0  0  0  0
  2  4  1  0  0  0  0
  2  5  1  0  0  0  0
  3 12  1  0  0  0  0
  3 13  1  0  0  0  0
  3 14  1  0  0  0  0
  4 15  1  0  0  0  0
  5  6  1  0  0  0  0
  5 16  1  0  0  0  0
  5 17  1  0  0  0  0
  6  7  1  0  0  0  0
  6  8  2  0  0  0  0
  7 18  1  0  0  0  0
M  END
>  <DRUGBANK_ID>
DB15344

>  <COMMON_NAME>
beta-Hydroxyisovaleric acid

>  <CAS_NUMBER>
625-08-1

>  <UNII>
3F752311CD

>  <SYNONYMS>
beta-Hydroxy-methylbutyrate

$$$$
