1491
 OpenBabel10282417072D

 57 59  0  0  1  0  0  0  0  0999 V2000
    6.5270    0.7144    0.0000 O   0  0  0  0  0  0  0  0  0  0  0  0
    3.0572   -0.2482    0.0000 N   0  0  0  0  0  0  0  0  0  0  0  0
    3.6892    0.2822    0.0000 C   0  0  3  0  0  0  0  0  0  0  0  0
    4.4645    0.0000    0.0000 C   0  0  0  0  0  0  0  0  0  0  0  0
    5.2895    0.0000    0.0000 C   0  0  0  0  0  0  0  0  0  0  0  0
    2.2820    0.0341    0.0000 C   0  0  0  0  0  0  0  0  0  0  0  0
    3.2004   -1.0605    0.0000 C   0  0  0  0  0  0  0  0  0  0  0  0
    1.6500   -0.4962    0.0000 C   0  0  0  0  0  0  0  0  0  0  0  0
    2.5685   -1.5908    0.0000 C   0  0  0  0  0  0  0  0  0  0  0  0
    1.7932   -1.3087    0.0000 C   0  0  0  0  0  0  0  0  0  0  0  0
    3.5459    1.0946    0.0000 C   0  0  0  0  0  0  0  0  0  0  0  0
    5.2895   -0.8250    0.0000 C   0  0  0  0  0  0  0  0  0  0  0  0
    5.2895    0.8250    0.0000 C   0  0  0  0  0  0  0  0  0  0  0  0
    6.1145    0.0000    0.0000 C   0  0  0  0  0  0  0  0  0  0  0  0
    6.5270   -0.7144    0.0000 C   0  0  0  0  0  0  0  0  0  0  0  0
    6.0039   -1.2375    0.0000 C   0  0  0  0  0  0  0  0  0  0  0  0
    4.5750    1.2375    0.0000 C   0  0  0  0  0  0  0  0  0  0  0  0
    4.5750   -1.2375    0.0000 C   0  0  0  0  0  0  0  0  0  0  0  0
    6.0039    1.2375    0.0000 C   0  0  0  0  0  0  0  0  0  0  0  0
    7.3520   -0.7144    0.0000 C   0  0  0  0  0  0  0  0  0  0  0  0
    6.0039   -2.0625    0.0000 C   0  0  0  0  0  0  0  0  0  0  0  0
    4.5750    2.0625    0.0000 C   0  0  0  0  0  0  0  0  0  0  0  0
    4.5750   -2.0625    0.0000 C   0  0  0  0  0  0  0  0  0  0  0  0
    6.0039    2.0625    0.0000 C   0  0  0  0  0  0  0  0  0  0  0  0
    5.2895   -2.4750    0.0000 C   0  0  0  0  0  0  0  0  0  0  0  0
    5.2895    2.4750    0.0000 C   0  0  0  0  0  0  0  0  0  0  0  0
    3.8750   -0.7715    0.0000 H   0  0  0  0  0  0  0  0  0  0  0  0
    4.2787   -1.0537    0.0000 H   0  0  0  0  0  0  0  0  0  0  0  0
    5.1523   -0.8197    0.0000 H   0  0  0  0  0  0  0  0  0  0  0  0
    2.0963    1.0879    0.0000 H   0  0  0  0  0  0  0  0  0  0  0  0
    1.2765    0.4001    0.0000 H   0  0  0  0  0  0  0  0  0  0  0  0
    4.2059   -1.4264    0.0000 H   0  0  0  0  0  0  0  0  0  0  0  0
    3.3862   -2.1142    0.0000 H   0  0  0  0  0  0  0  0  0  0  0  0
    0.6445   -0.1302    0.0000 H   0  0  0  0  0  0  0  0  0  0  0  0
    0.8303   -1.1839    0.0000 H   0  0  0  0  0  0  0  0  0  0  0  0
    2.7544   -2.6445    0.0000 H   0  0  0  0  0  0  0  0  0  0  0  0
    1.7489   -2.2787    0.0000 H   0  0  0  0  0  0  0  0  0  0  0  0
    0.9735   -1.9965    0.0000 H   0  0  0  0  0  0  0  0  0  0  0  0
    1.9791   -2.3624    0.0000 H   0  0  0  0  0  0  0  0  0  0  0  0
    4.3655    1.7824    0.0000 H   0  0  0  0  0  0  0  0  0  0  0  0
    2.5404    1.4605    0.0000 H   0  0  0  0  0  0  0  0  0  0  0  0
    3.3600    2.1483    0.0000 H   0  0  0  0  0  0  0  0  0  0  0  0
    5.9920   -1.6411    0.0000 H   0  0  0  0  0  0  0  0  0  0  0  0
    7.0620   -1.6410    0.0000 H   0  0  0  0  0  0  0  0  0  0  0  0
    6.8976   -0.7215    0.0000 H   0  0  0  0  0  0  0  0  0  0  0  0
    3.6813    0.7215    0.0000 H   0  0  0  0  0  0  0  0  0  0  0  0
    3.6813   -0.7215    0.0000 H   0  0  0  0  0  0  0  0  0  0  0  0
    6.8976    0.7215    0.0000 H   0  0  0  0  0  0  0  0  0  0  0  0
    7.8870   -1.6410    0.0000 H   0  0  0  0  0  0  0  0  0  0  0  0
    7.8870    0.2122    0.0000 H   0  0  0  0  0  0  0  0  0  0  0  0
    8.4220   -0.7144    0.0000 H   0  0  0  0  0  0  0  0  0  0  0  0
    6.8976   -2.5785    0.0000 H   0  0  0  0  0  0  0  0  0  0  0  0
    3.6813    2.5785    0.0000 H   0  0  0  0  0  0  0  0  0  0  0  0
    3.6813   -2.5785    0.0000 H   0  0  0  0  0  0  0  0  0  0  0  0
    6.8976    2.5785    0.0000 H   0  0  0  0  0  0  0  0  0  0  0  0
    5.2895   -3.5070    0.0000 H   0  0  0  0  0  0  0  0  0  0  0  0
    5.2895    3.5070    0.0000 H   0  0  0  0  0  0  0  0  0  0  0  0
  1 14  2  0  0  0  0
  2  3  1  0  0  0  0
  2  6  1  0  0  0  0
  2  7  1  0  0  0  0
  3  4  1  0  0  0  0
  3 11  1  0  0  0  0
  3 27  1  0  0  0  0
  4  5  1  0  0  0  0
  4 28  1  0  0  0  0
  4 29  1  0  0  0  0
  5 12  1  0  0  0  0
  5 13  1  0  0  0  0
  5 14  1  0  0  0  0
  6  8  1  0  0  0  0
  6 30  1  0  0  0  0
  6 31  1  0  0  0  0
  7  9  1  0  0  0  0
  7 32  1  0  0  0  0
  7 33  1  0  0  0  0
  8 10  1  0  0  0  0
  8 34  1  0  0  0  0
  8 35  1  0  0  0  0
  9 10  1  0  0  0  0
  9 36  1  0  0  0  0
  9 37  1  0  0  0  0
 10 38  1  0  0  0  0
 10 39  1  0  0  0  0
 11 40  1  0  0  0  0
 11 41  1  0  0  0  0
 11 42  1  0  0  0  0
 12 16  2  0  0  0  0
 12 18  1  0  0  0  0
 13 17  2  0  0  0  0
 13 19  1  0  0  0  0
 14 15  1  0  0  0  0
 15 20  1  0  0  0  0
 15 43  1  0  0  0  0
 15 44  1  0  0  0  0
 16 21  1  0  0  0  0
 16 45  1  0  0  0  0
 17 22  1  0  0  0  0
 17 46  1  0  0  0  0
 18 23  2  0  0  0  0
 18 47  1  0  0  0  0
 19 24  2  0  0  0  0
 19 48  1  0  0  0  0
 20 49  1  0  0  0  0
 20 50  1  0  0  0  0
 20 51  1  0  0  0  0
 21 25  2  0  0  0  0
 21 52  1  0  0  0  0
 22 26  2  0  0  0  0
 22 53  1  0  0  0  0
 23 25  1  0  0  0  0
 23 54  1  0  0  0  0
 24 26  1  0  0  0  0
 24 55  1  0  0  0  0
 25 56  1  0  0  0  0
 26 57  1  0  0  0  0
M  END
>  <DRUGBANK_ID>
DB01491

>  <COMMON_NAME>
Dipipanone

>  <CAS_NUMBER>
467-83-4

>  <UNII>
X188638Y2V

>  <SYNONYMS>
Dipipanone

$$$$
