
 OpenBabel10282417072D

  8  7  0  0  0  0  0  0  0  0999 V2000
   -0.6185    0.0000    0.0000 C   0  0  0  0  0  0  0  0  0  0  0  0
    0.2056    0.0000    0.0000 P   0  0  3  0  0  0  0  0  0  0  0  0
    0.6185   -0.7142    0.0000 O   0  0  0  0  0  0  0  0  0  0  0  0
    0.6185    0.7142    0.0000 O   0  5  0  0  0  0  0  0  0  0  0  0
   -1.1535    0.9266    0.0000 H   0  0  0  0  0  0  0  0  0  0  0  0
   -1.1535   -0.9266    0.0000 H   0  0  0  0  0  0  0  0  0  0  0  0
   -1.6885   -0.0000    0.0000 H   0  0  0  0  0  0  0  0  0  0  0  0
   -0.4841   -1.1953    0.0000 H   0  0  0  0  0  0  0  0  0  0  0  0
  1  2  1  0  0  0  0
  1  5  1  0  0  0  0
  1  6  1  0  0  0  0
  1  7  1  0  0  0  0
  2  3  2  0  0  0  0
  2  4  1  0  0  0  0
  2  8  1  0  0  0  0
M  CHG  1   4  -1
M  END
>  <DRUGBANK_ID>
DB02825

>  <SECONDARY_ACCESSION_NUMBERS>
EXPT03237

>  <COMMON_NAME>
Methylphosphinate

$$$$
