
 OpenBabel10282417072D

 62 66  0  0  0  0  0  0  0  0999 V2000
   -1.4573   -0.7640    0.0000 C   0  0  2  0  0  0  0  0  0  0  0  0
   -1.4573   -1.5846    0.0000 C   0  0  0  0  0  0  0  0  0  0  0  0
   -2.1648   -0.3395    0.0000 C   0  0  0  0  0  0  0  0  0  0  0  0
   -2.1648   -1.9808    0.0000 C   0  0  0  0  0  0  0  0  0  0  0  0
   -2.9004   -0.7640    0.0000 C   0  0  0  0  0  0  0  0  0  0  0  0
   -2.9004   -1.5846    0.0000 C   0  0  0  0  0  0  0  0  0  0  0  0
   -0.7215   -0.3395    0.0000 C   0  0  2  0  0  0  0  0  0  0  0  0
   -0.0141   -0.7640    0.0000 C   0  0  1  0  0  0  0  0  0  0  0  0
   -0.7215   -1.9808    0.0000 C   0  0  2  0  0  0  0  0  0  0  0  0
   -0.0141   -1.5846    0.0000 C   0  0  0  0  0  0  0  0  0  0  0  0
   -0.7215    0.5093    0.0000 C   0  0  2  0  0  0  0  0  0  0  0  0
   -0.0141    0.9054    0.0000 C   0  0  0  0  0  0  0  0  0  0  0  0
    0.6933   -0.3395    0.0000 C   0  0  1  0  0  0  0  0  0  0  0  0
    0.6933    0.5093    0.0000 C   0  0  1  0  0  0  0  0  0  0  0  0
    1.4856   -0.5942    0.0000 C   0  0  0  0  0  0  0  0  0  0  0  0
    1.9666    0.0848    0.0000 C   0  0  2  0  0  0  0  0  0  0  0  0
    1.4856    0.7640    0.0000 C   0  0  1  0  0  0  0  0  0  0  0  0
    2.7872    0.3395    0.0000 O   0  0  0  0  0  0  0  0  0  0  0  0
    2.7872    1.1601    0.0000 C   0  0  0  0  0  0  0  0  0  0  0  0
    1.9666    1.4148    0.0000 O   0  0  0  0  0  0  0  0  0  0  0  0
   -3.6079   -1.9808    0.0000 O   0  0  0  0  0  0  0  0  0  0  0  0
   -0.7215   -2.8297    0.0000 F   0  0  0  0  0  0  0  0  0  0  0  0
   -1.4573    0.0848    0.0000 C   0  0  0  0  0  0  0  0  0  0  0  0
   -0.7215   -1.1602    0.0000 F   0  0  0  0  0  0  0  0  0  0  0  0
   -1.4573    0.9054    0.0000 O   0  0  0  0  0  0  0  0  0  0  0  0
   -0.0141    0.0848    0.0000 H   0  0  0  0  0  0  0  0  0  0  0  0
    0.6933   -1.1602    0.0000 H   0  0  0  0  0  0  0  0  0  0  0  0
    0.6933    1.3299    0.0000 C   0  0  0  0  0  0  0  0  0  0  0  0
    1.4856    1.5846    0.0000 C   0  0  0  0  0  0  0  0  0  0  0  0
    2.1930    2.0090    0.0000 C   0  0  0  0  0  0  0  0  0  0  0  0
    0.7781    1.9807    0.0000 O   0  0  0  0  0  0  0  0  0  0  0  0
    2.1930    2.8297    0.0000 O   0  0  0  0  0  0  0  0  0  0  0  0
    3.1834    1.8676    0.0000 C   0  0  0  0  0  0  0  0  0  0  0  0
    3.6079    1.1601    0.0000 C   0  0  0  0  0  0  0  0  0  0  0  0
    1.9983    0.7926    0.0000 H   0  0  0  0  0  0  0  0  0  0  0  0
   -2.1560    0.6925    0.0000 H   0  0  0  0  0  0  0  0  0  0  0  0
   -2.1563   -3.0128    0.0000 H   0  0  0  0  0  0  0  0  0  0  0  0
   -3.7941   -0.2479    0.0000 H   0  0  0  0  0  0  0  0  0  0  0  0
   -1.6401   -2.5295    0.0000 H   0  0  0  0  0  0  0  0  0  0  0  0
    0.9090   -2.1256    0.0000 H   0  0  0  0  0  0  0  0  0  0  0  0
   -0.0246   -2.6545    0.0000 H   0  0  0  0  0  0  0  0  0  0  0  0
   -1.6401   -0.0394    0.0000 H   0  0  0  0  0  0  0  0  0  0  0  0
   -0.0141    1.9754    0.0000 H   0  0  0  0  0  0  0  0  0  0  0  0
    0.9090    1.4465    0.0000 H   0  0  0  0  0  0  0  0  0  0  0  0
    1.8239   -1.6093    0.0000 H   0  0  0  0  0  0  0  0  0  0  0  0
    2.5440   -0.7513    0.0000 H   0  0  0  0  0  0  0  0  0  0  0  0
   -0.5307    0.6198    0.0000 H   0  0  0  0  0  0  0  0  0  0  0  0
   -2.3839    0.6198    0.0000 H   0  0  0  0  0  0  0  0  0  0  0  0
   -1.4573    1.1548    0.0000 H   0  0  0  0  0  0  0  0  0  0  0  0
   -1.4862    1.8750    0.0000 H   0  0  0  0  0  0  0  0  0  0  0  0
    1.6199    1.8649    0.0000 H   0  0  0  0  0  0  0  0  0  0  0  0
   -0.2333    1.8649    0.0000 H   0  0  0  0  0  0  0  0  0  0  0  0
    0.6933    2.3999    0.0000 H   0  0  0  0  0  0  0  0  0  0  0  0
    3.1241    1.4818    0.0000 H   0  0  0  0  0  0  0  0  0  0  0  0
    3.1174    2.5479    0.0000 H   0  0  0  0  0  0  0  0  0  0  0  0
    3.0330    3.3147    0.0000 H   0  0  0  0  0  0  0  0  0  0  0  0
    4.2533    1.8816    0.0000 H   0  0  0  0  0  0  0  0  0  0  0  0
    2.6363    2.7872    0.0000 H   0  0  0  0  0  0  0  0  0  0  0  0
    3.7062    2.8012    0.0000 H   0  0  0  0  0  0  0  0  0  0  0  0
    4.1429    0.2335    0.0000 H   0  0  0  0  0  0  0  0  0  0  0  0
    4.1429    2.0867    0.0000 H   0  0  0  0  0  0  0  0  0  0  0  0
    4.6779    1.1601    0.0000 H   0  0  0  0  0  0  0  0  0  0  0  0
  1 23  1  1  0  0  0
  2  1  1  0  0  0  0
  3  1  1  0  0  0  0
  3 36  1  0  0  0  0
  4  2  2  0  0  0  0
  4 37  1  0  0  0  0
  5  3  2  0  0  0  0
  5 38  1  0  0  0  0
  6  4  1  0  0  0  0
  6  5  1  0  0  0  0
  7  1  1  0  0  0  0
  7 24  1  6  0  0  0
  8  7  1  0  0  0  0
  8 26  1  1  0  0  0
  9  2  1  0  0  0  0
  9 22  1  0  0  0  0
  9 39  1  1  0  0  0
 10  8  1  0  0  0  0
 10  9  1  0  0  0  0
 10 40  1  0  0  0  0
 10 41  1  0  0  0  0
 11  7  1  0  0  0  0
 11 25  1  0  0  0  0
 11 42  1  6  0  0  0
 12 11  1  0  0  0  0
 12 43  1  0  0  0  0
 12 44  1  0  0  0  0
 13  8  1  0  0  0  0
 13 27  1  6  0  0  0
 14 12  1  0  0  0  0
 14 13  1  0  0  0  0
 14 28  1  1  0  0  0
 15 13  1  0  0  0  0
 15 45  1  0  0  0  0
 15 46  1  0  0  0  0
 16 15  1  0  0  0  0
 16 35  1  1  0  0  0
 17 14  1  0  0  0  0
 17 16  1  0  0  0  0
 17 29  1  1  0  0  0
 18 16  1  0  0  0  0
 19 18  1  0  0  0  0
 20 17  1  0  0  0  0
 20 19  1  0  0  0  0
 21  6  2  0  0  0  0
 23 47  1  0  0  0  0
 23 48  1  0  0  0  0
 23 49  1  0  0  0  0
 25 50  1  0  0  0  0
 28 51  1  0  0  0  0
 28 52  1  0  0  0  0
 28 53  1  0  0  0  0
 30 29  1  0  0  0  0
 30 54  1  0  0  0  0
 30 55  1  0  0  0  0
 31 29  2  0  0  0  0
 32 30  1  0  0  0  0
 32 56  1  0  0  0  0
 33 19  1  0  0  0  0
 33 57  1  0  0  0  0
 33 58  1  0  0  0  0
 33 59  1  0  0  0  0
 34 19  1  0  0  0  0
 34 60  1  0  0  0  0
 34 61  1  0  0  0  0
 34 62  1  0  0  0  0
M  END
>  <DRUGBANK_ID>
DB00591

>  <SECONDARY_ACCESSION_NUMBERS>
APRD00977

>  <COMMON_NAME>
Fluocinolone acetonide

>  <CAS_NUMBER>
67-73-2

>  <UNII>
0CD5FD6S2M

>  <SYNONYMS>
6alpha-fluorotriamcinolone acetonide; 6alpha,9alpha-difluoro-16alpha-hydroxyprednisolone 16,17-acetonide; 6α-fluorotriamcinolone acetonide; 6α,9α-difluoro-16α-hydroxyprednisolone 16,17-acetonide; acétonide de fluocinolone; acetónido de fluocinolona; fluocinolon acetonid; fluocinolone 16,17-acetonide; Fluocinolone acetonide; fluocinoloni acetonidum

$$$$
