
 OpenBabel10282417072D

 43 44  0  0  0  0  0  0  0  0999 V2000
    6.4302   -0.4125    0.0000 C   0  0  0  0  0  0  0  0  0  0  0  0
    3.5724   -2.0625    0.0000 C   0  0  0  0  0  0  0  0  0  0  0  0
    2.8579   -0.8250    0.0000 C   0  0  0  0  0  0  0  0  0  0  0  0
   10.0026   -0.8250    0.0000 C   0  0  0  0  0  0  0  0  0  0  0  0
    9.2881   -2.0625    0.0000 C   0  0  0  0  0  0  0  0  0  0  0  0
    4.2868   -1.6500    0.0000 C   0  0  0  0  0  0  0  0  0  0  0  0
    3.5724   -0.4125    0.0000 C   0  0  0  0  0  0  0  0  0  0  0  0
    9.2881   -0.4125    0.0000 C   0  0  0  0  0  0  0  0  0  0  0  0
    8.5737   -1.6500    0.0000 C   0  0  0  0  0  0  0  0  0  0  0  0
    5.7158   -0.8250    0.0000 C   0  0  0  0  0  0  0  0  0  0  0  0
    7.1447   -0.8250    0.0000 C   0  0  0  0  0  0  0  0  0  0  0  0
    2.8579   -1.6500    0.0000 C   0  0  0  0  0  0  0  0  0  0  0  0
   10.0026   -1.6500    0.0000 C   0  0  0  0  0  0  0  0  0  0  0  0
    4.2868   -0.8250    0.0000 C   0  0  0  0  0  0  0  0  0  0  0  0
    8.5737   -0.8250    0.0000 C   0  0  0  0  0  0  0  0  0  0  0  0
    2.1434   -2.0625    0.0000 C   0  0  0  0  0  0  0  0  0  0  0  0
   10.7171   -2.0625    0.0000 C   0  0  0  0  0  0  0  0  0  0  0  0
    1.4289   -1.6500    0.0000 N   0  0  0  0  0  0  0  0  0  0  0  0
    2.1434   -2.8875    0.0000 N   0  0  0  0  0  0  0  0  0  0  0  0
   11.4315   -1.6500    0.0000 N   0  0  0  0  0  0  0  0  0  0  0  0
   10.7171   -2.8875    0.0000 N   0  0  0  0  0  0  0  0  0  0  0  0
    5.0013   -0.4125    0.0000 O   0  0  0  0  0  0  0  0  0  0  0  0
    7.8592   -0.4125    0.0000 O   0  0  0  0  0  0  0  0  0  0  0  0
    6.4302    0.6575    0.0000 H   0  0  0  0  0  0  0  0  0  0  0  0
    7.3568    0.1225    0.0000 H   0  0  0  0  0  0  0  0  0  0  0  0
    3.5724   -3.0945    0.0000 H   0  0  0  0  0  0  0  0  0  0  0  0
    1.9642   -0.3090    0.0000 H   0  0  0  0  0  0  0  0  0  0  0  0
   10.8963   -0.3090    0.0000 H   0  0  0  0  0  0  0  0  0  0  0  0
    9.2881   -3.0945    0.0000 H   0  0  0  0  0  0  0  0  0  0  0  0
    5.1805   -2.1660    0.0000 H   0  0  0  0  0  0  0  0  0  0  0  0
    3.5724    0.6195    0.0000 H   0  0  0  0  0  0  0  0  0  0  0  0
    9.2881    0.6195    0.0000 H   0  0  0  0  0  0  0  0  0  0  0  0
    7.6800   -2.1660    0.0000 H   0  0  0  0  0  0  0  0  0  0  0  0
    5.7158   -1.8950    0.0000 H   0  0  0  0  0  0  0  0  0  0  0  0
    4.7892   -1.3600    0.0000 H   0  0  0  0  0  0  0  0  0  0  0  0
    7.1447   -1.8950    0.0000 H   0  0  0  0  0  0  0  0  0  0  0  0
    8.0713   -1.3600    0.0000 H   0  0  0  0  0  0  0  0  0  0  0  0
    1.4289   -0.6655    0.0000 H   0  0  0  0  0  0  0  0  0  0  0  0
    0.5763   -2.1423    0.0000 H   0  0  0  0  0  0  0  0  0  0  0  0
    1.2908   -3.3798    0.0000 H   0  0  0  0  0  0  0  0  0  0  0  0
   12.2841   -2.1422    0.0000 H   0  0  0  0  0  0  0  0  0  0  0  0
   11.4315   -0.6655    0.0000 H   0  0  0  0  0  0  0  0  0  0  0  0
    9.8645   -3.3798    0.0000 H   0  0  0  0  0  0  0  0  0  0  0  0
  1 24  1  0  0  0  0
  1 25  1  0  0  0  0
  2 26  1  0  0  0  0
  3 27  1  0  0  0  0
  4 28  1  0  0  0  0
  5 29  1  0  0  0  0
  6  2  1  0  0  0  0
  6 30  1  0  0  0  0
  7  3  2  0  0  0  0
  7 31  1  0  0  0  0
  8  4  1  0  0  0  0
  8 32  1  0  0  0  0
  9  5  2  0  0  0  0
  9 33  1  0  0  0  0
 10  1  1  0  0  0  0
 10 34  1  0  0  0  0
 10 35  1  0  0  0  0
 11  1  1  0  0  0  0
 11 36  1  0  0  0  0
 11 37  1  0  0  0  0
 12  2  2  0  0  0  0
 12  3  1  0  0  0  0
 13  4  2  0  0  0  0
 13  5  1  0  0  0  0
 14  6  2  0  0  0  0
 14  7  1  0  0  0  0
 15  8  2  0  0  0  0
 15  9  1  0  0  0  0
 16 12  1  0  0  0  0
 17 13  1  0  0  0  0
 18 16  1  0  0  0  0
 18 38  1  0  0  0  0
 18 39  1  0  0  0  0
 19 16  2  0  0  0  0
 19 40  1  0  0  0  0
 20 17  1  0  0  0  0
 20 41  1  0  0  0  0
 20 42  1  0  0  0  0
 21 17  2  0  0  0  0
 21 43  1  0  0  0  0
 22 10  1  0  0  0  0
 22 14  1  0  0  0  0
 23 11  1  0  0  0  0
 23 15  1  0  0  0  0
M  END
>  <DRUGBANK_ID>
DB13296

>  <COMMON_NAME>
Propamidine

>  <CAS_NUMBER>
104-32-5

>  <UNII>
G20G12V769

>  <SYNONYMS>
propamidina; Propamidine

$$$$
