
 OpenBabel10282417072D

 83 88  0  0  1  0  0  0  0  0999 V2000
   -2.1619   -0.0024    0.0000 C   0  0  0  0  0  0  0  0  0  0  0  0
   -0.7408    0.1470    0.0000 C   0  0  0  0  0  0  0  0  0  0  0  0
   -8.2485   -5.5443    0.0000 C   0  0  0  0  0  0  0  0  0  0  0  0
   -7.3418   -6.2786    0.0000 C   0  0  0  0  0  0  0  0  0  0  0  0
   -7.5142   -4.6376    0.0000 C   0  0  0  0  0  0  0  0  0  0  0  0
   -3.6007   -2.8141    0.0000 C   0  0  0  0  0  0  0  0  0  0  0  0
   -6.1226   -6.0393    0.0000 C   0  0  0  0  0  0  0  0  0  0  0  0
   -5.3021   -5.9531    0.0000 C   0  0  0  0  0  0  0  0  0  0  0  0
   -3.5145   -3.6345    0.0000 C   0  0  0  0  0  0  0  0  0  0  0  0
   -2.8042   -1.5143    0.0000 C   0  0  0  0  0  0  0  0  0  0  0  0
   -2.1185   -2.4582    0.0000 C   0  0  0  0  0  0  0  0  0  0  0  0
   -6.2720   -4.6182    0.0000 C   0  0  0  0  0  0  0  0  0  0  0  0
   -0.5683   -1.4940    0.0000 C   0  0  0  0  0  0  0  0  0  0  0  0
    3.3523    1.1104    0.0000 C   0  0  0  0  0  0  0  0  0  0  0  0
    0.6538    1.5229    0.0000 C   0  0  0  0  0  0  0  0  0  0  0  0
   -1.4082   -0.3379    0.0000 C   0  0  0  0  0  0  0  0  0  0  0  0
   -2.9333   -2.3291    0.0000 C   0  0  2  0  0  0  0  0  0  0  0  0
   -6.6075   -5.3719    0.0000 C   0  0  0  0  0  0  0  0  0  0  0  0
   -1.9894   -1.6433    0.0000 C   0  0  1  0  0  0  0  0  0  0  0  0
   -4.9666   -5.1994    0.0000 C   0  0  0  0  0  0  0  0  0  0  0  0
   -5.4515   -4.5320    0.0000 C   0  0  0  0  0  0  0  0  0  0  0  0
    0.0992   -1.0091    0.0000 C   0  0  2  0  0  0  0  0  0  0  0  0
   -4.1819   -4.1195    0.0000 C   0  0  0  0  0  0  0  0  0  0  0  0
    1.9233    1.9354    0.0000 C   0  0  0  0  0  0  0  0  0  0  0  0
    0.8838   -1.2640    0.0000 C   0  0  2  0  0  0  0  0  0  0  0  0
    1.3687   -0.5966    0.0000 C   0  0  2  0  0  0  0  0  0  0  0  0
    2.6378    2.3479    0.0000 C   0  0  0  0  0  0  0  0  0  0  0  0
    1.9233    1.1104    0.0000 C   0  0  0  0  0  0  0  0  0  0  0  0
    0.8838    0.0709    0.0000 C   0  0  2  0  0  0  0  0  0  0  0  0
   -7.4280   -5.4581    0.0000 C   0  0  0  0  0  0  0  0  0  0  0  0
    2.6378    3.1729    0.0000 N   0  0  0  0  0  0  0  0  0  0  0  0
    3.3523    1.9354    0.0000 N   0  0  0  0  0  0  0  0  0  0  0  0
    2.6378    0.6979    0.0000 N   0  0  0  0  0  0  0  0  0  0  0  0
    1.1387    2.1904    0.0000 N   0  0  0  0  0  0  0  0  0  0  0  0
   -4.1819   -4.9445    0.0000 N   0  0  0  0  0  0  0  0  0  0  0  0
   -4.9666   -3.8645    0.0000 N   0  0  0  0  0  0  0  0  0  0  0  0
   -1.3220   -1.1584    0.0000 N   0  0  0  0  0  0  0  0  0  0  0  0
    1.1387    0.8555    0.0000 N   0  0  0  0  0  0  0  0  0  0  0  0
    1.1387   -2.0486    0.0000 O   0  0  0  0  0  0  0  0  0  0  0  0
    2.1937   -0.5966    0.0000 O   0  0  0  0  0  0  0  0  0  0  0  0
    0.0992   -0.1841    0.0000 O   0  0  0  0  0  0  0  0  0  0  0  0
   -3.6367   -1.8981    0.0000 H   0  0  0  0  0  0  0  0  0  0  0  0
   -2.1820   -0.8411    0.0000 H   0  0  0  0  0  0  0  0  0  0  0  0
    0.4991   -1.7306    0.0000 H   0  0  0  0  0  0  0  0  0  0  0  0
    0.5351   -2.0117    0.0000 H   0  0  0  0  0  0  0  0  0  0  0  0
    1.7432   -1.3316    0.0000 H   0  0  0  0  0  0  0  0  0  0  0  0
    1.6986    0.1999    0.0000 H   0  0  0  0  0  0  0  0  0  0  0  0
   -2.2738    1.0617    0.0000 H   0  0  0  0  0  0  0  0  0  0  0  0
   -3.0275   -0.6314    0.0000 H   0  0  0  0  0  0  0  0  0  0  0  0
   -3.1394    0.4327    0.0000 H   0  0  0  0  0  0  0  0  0  0  0  0
    0.2367   -0.2882    0.0000 H   0  0  0  0  0  0  0  0  0  0  0  0
   -0.8527    1.2111    0.0000 H   0  0  0  0  0  0  0  0  0  0  0  0
    0.1248    0.7759    0.0000 H   0  0  0  0  0  0  0  0  0  0  0  0
   -8.8774   -4.6786    0.0000 H   0  0  0  0  0  0  0  0  0  0  0  0
   -8.6838   -6.5218    0.0000 H   0  0  0  0  0  0  0  0  0  0  0  0
   -9.3126   -5.6561    0.0000 H   0  0  0  0  0  0  0  0  0  0  0  0
   -8.2075   -6.9075    0.0000 H   0  0  0  0  0  0  0  0  0  0  0  0
   -6.3643   -6.7139    0.0000 H   0  0  0  0  0  0  0  0  0  0  0  0
   -7.2300   -7.3427    0.0000 H   0  0  0  0  0  0  0  0  0  0  0  0
   -6.6485   -4.0087    0.0000 H   0  0  0  0  0  0  0  0  0  0  0  0
   -8.4917   -4.2023    0.0000 H   0  0  0  0  0  0  0  0  0  0  0  0
   -7.6260   -3.5735    0.0000 H   0  0  0  0  0  0  0  0  0  0  0  0
   -4.5782   -2.3789    0.0000 H   0  0  0  0  0  0  0  0  0  0  0  0
   -3.7126   -1.7500    0.0000 H   0  0  0  0  0  0  0  0  0  0  0  0
   -6.5424   -6.9821    0.0000 H   0  0  0  0  0  0  0  0  0  0  0  0
   -4.6955   -6.7880    0.0000 H   0  0  0  0  0  0  0  0  0  0  0  0
   -2.5370   -4.0697    0.0000 H   0  0  0  0  0  0  0  0  0  0  0  0
   -3.4026   -4.6986    0.0000 H   0  0  0  0  0  0  0  0  0  0  0  0
   -3.4331   -0.6487    0.0000 H   0  0  0  0  0  0  0  0  0  0  0  0
   -2.2452   -0.6020    0.0000 H   0  0  0  0  0  0  0  0  0  0  0  0
   -1.4896   -3.3239    0.0000 H   0  0  0  0  0  0  0  0  0  0  0  0
   -1.0781   -2.2085    0.0000 H   0  0  0  0  0  0  0  0  0  0  0  0
   -6.8786   -3.7833    0.0000 H   0  0  0  0  0  0  0  0  0  0  0  0
   -0.4565   -2.5581    0.0000 H   0  0  0  0  0  0  0  0  0  0  0  0
   -1.4340   -2.1229    0.0000 H   0  0  0  0  0  0  0  0  0  0  0  0
    4.2460    0.5944    0.0000 H   0  0  0  0  0  0  0  0  0  0  0  0
   -0.3782    1.5229    0.0000 H   0  0  0  0  0  0  0  0  0  0  0  0
   -0.4307   -0.7731    0.0000 H   0  0  0  0  0  0  0  0  0  0  0  0
    3.4904    3.6651    0.0000 H   0  0  0  0  0  0  0  0  0  0  0  0
    1.7852    3.6651    0.0000 H   0  0  0  0  0  0  0  0  0  0  0  0
   -5.2708   -2.9282    0.0000 H   0  0  0  0  0  0  0  0  0  0  0  0
    0.4896   -2.7694    0.0000 H   0  0  0  0  0  0  0  0  0  0  0  0
    2.6787   -1.4366    0.0000 H   0  0  0  0  0  0  0  0  0  0  0  0
  1 48  1  0  0  0  0
  1 49  1  0  0  0  0
  1 50  1  0  0  0  0
  2 51  1  0  0  0  0
  2 52  1  0  0  0  0
  2 53  1  0  0  0  0
  3 54  1  0  0  0  0
  3 55  1  0  0  0  0
  3 56  1  0  0  0  0
  4 57  1  0  0  0  0
  4 58  1  0  0  0  0
  4 59  1  0  0  0  0
  5 60  1  0  0  0  0
  5 61  1  0  0  0  0
  5 62  1  0  0  0  0
  6 63  1  0  0  0  0
  6 64  1  0  0  0  0
  7 65  1  0  0  0  0
  8  7  2  0  0  0  0
  8 66  1  0  0  0  0
  9  6  1  0  0  0  0
  9 67  1  0  0  0  0
  9 68  1  0  0  0  0
 10 69  1  0  0  0  0
 10 70  1  0  0  0  0
 11 71  1  0  0  0  0
 11 72  1  0  0  0  0
 12 73  1  0  0  0  0
 13 74  1  0  0  0  0
 13 75  1  0  0  0  0
 14 76  1  0  0  0  0
 15 77  1  0  0  0  0
 16  1  1  0  0  0  0
 16  2  1  0  0  0  0
 16 78  1  0  0  0  0
 17  6  1  0  0  0  0
 17 10  1  0  0  0  0
 17 11  1  0  0  0  0
 17 42  1  1  0  0  0
 18  7  1  0  0  0  0
 18 12  2  0  0  0  0
 19 10  1  0  0  0  0
 19 11  1  0  0  0  0
 19 37  1  0  0  0  0
 19 43  1  1  0  0  0
 20  8  1  0  0  0  0
 21 12  1  0  0  0  0
 21 20  2  0  0  0  0
 22 13  1  0  0  0  0
 22 44  1  6  0  0  0
 23  9  1  0  0  0  0
 25 22  1  0  0  0  0
 25 39  1  0  0  0  0
 25 45  1  1  0  0  0
 26 25  1  0  0  0  0
 26 40  1  0  0  0  0
 26 46  1  1  0  0  0
 27 24  2  0  0  0  0
 28 24  1  0  0  0  0
 29 26  1  0  0  0  0
 29 38  1  0  0  0  0
 29 47  1  6  0  0  0
 30  3  1  0  0  0  0
 30  4  1  0  0  0  0
 30  5  1  0  0  0  0
 30 18  1  0  0  0  0
 31 27  1  0  0  0  0
 31 79  1  0  0  0  0
 31 80  1  0  0  0  0
 32 14  2  0  0  0  0
 32 27  1  0  0  0  0
 33 14  1  0  0  0  0
 33 28  2  0  0  0  0
 34 15  2  0  0  0  0
 34 24  1  0  0  0  0
 35 20  1  0  0  0  0
 35 23  2  0  0  0  0
 36 21  1  0  0  0  0
 36 23  1  0  0  0  0
 36 81  1  0  0  0  0
 37 13  1  0  0  0  0
 37 16  1  0  0  0  0
 38 15  1  0  0  0  0
 38 28  1  0  0  0  0
 39 82  1  0  0  0  0
 40 83  1  0  0  0  0
 41 22  1  0  0  0  0
 41 29  1  0  0  0  0
M  END
>  <DRUGBANK_ID>
DB12920

>  <COMMON_NAME>
Pinometostat

>  <CAS_NUMBER>
1380288-87-8

>  <UNII>
8V9YR09EF3

>  <SYNONYMS>
9H-PURIN-6-AMINE, 9-(5-DEOXY-5-((CIS-3-(2-(6-(1,1-DIMETHYLETHYL)-1H-BENZIMIDAZOL-2-YL)ETHYL)CYCLOBUTYL)(1-METHYLETHYL)AMINO)-.BETA.-D-RIBOFURANOSYL)-; Pinometostat; PINOMETOSTAT ANHYDROUS

$$$$
