
 OpenBabel10282417072D

 34 33  0  0  1  0  0  0  0  0999 V2000
    6.7618    1.4289    0.0000 C   0  0  0  0  0  0  0  0  0  0  0  0
    6.0474    1.8414    0.0000 C   0  0  0  0  0  0  0  0  0  0  0  0
    1.7605    1.8414    0.0000 C   0  0  0  0  0  0  0  0  0  0  0  0
    4.6184    1.8414    0.0000 C   0  0  0  0  0  0  0  0  0  0  0  0
    7.4763    1.8414    0.0000 C   0  0  1  0  0  0  0  0  0  0  0  0
    2.4750    1.4289    0.0000 C   0  0  0  0  0  0  0  0  0  0  0  0
    3.9039    1.4289    0.0000 C   0  0  2  0  0  0  0  0  0  0  0  0
    3.1895    1.8414    0.0000 C   0  0  1  0  0  0  0  0  0  0  0  0
    8.1908    1.4289    0.0000 C   0  0  0  0  0  0  0  0  0  0  0  0
    7.4763    2.6664    0.0000 N   0  0  0  0  0  0  0  0  0  0  0  0
    1.0461    1.4289    0.0000 O   0  0  0  0  0  0  0  0  0  0  0  0
    2.4750    0.6039    0.0000 O   0  0  0  0  0  0  0  0  0  0  0  0
    3.9039    0.6039    0.0000 O   0  0  0  0  0  0  0  0  0  0  0  0
    3.1895    2.6664    0.0000 O   0  0  0  0  0  0  0  0  0  0  0  0
    8.9052    1.8414    0.0000 O   0  0  0  0  0  0  0  0  0  0  0  0
    8.1908    0.6039    0.0000 O   0  0  0  0  0  0  0  0  0  0  0  0
    5.3329    1.4289    0.0000 S   0  0  0  0  0  0  0  0  0  0  0  0
    7.4763    1.0164    0.0000 H   0  0  0  0  0  0  0  0  0  0  0  0
    3.9039    2.2539    0.0000 H   0  0  0  0  0  0  0  0  0  0  0  0
    3.1895    1.0164    0.0000 H   0  0  0  0  0  0  0  0  0  0  0  0
    6.7618    0.3589    0.0000 H   0  0  0  0  0  0  0  0  0  0  0  0
    7.6884    0.8939    0.0000 H   0  0  0  0  0  0  0  0  0  0  0  0
    6.0474    2.9114    0.0000 H   0  0  0  0  0  0  0  0  0  0  0  0
    5.1208    2.3764    0.0000 H   0  0  0  0  0  0  0  0  0  0  0  0
    1.7605    2.9114    0.0000 H   0  0  0  0  0  0  0  0  0  0  0  0
    0.8338    2.3764    0.0000 H   0  0  0  0  0  0  0  0  0  0  0  0
    4.6184    2.9114    0.0000 H   0  0  0  0  0  0  0  0  0  0  0  0
    5.5450    2.3764    0.0000 H   0  0  0  0  0  0  0  0  0  0  0  0
    8.3596    3.1764    0.0000 H   0  0  0  0  0  0  0  0  0  0  0  0
    6.5930    3.1764    0.0000 H   0  0  0  0  0  0  0  0  0  0  0  0
    0.2060    1.9139    0.0000 H   0  0  0  0  0  0  0  0  0  0  0  0
    3.0639    0.1189    0.0000 H   0  0  0  0  0  0  0  0  0  0  0  0
    4.0295    3.1514    0.0000 H   0  0  0  0  0  0  0  0  0  0  0  0
    7.3793    0.1354    0.0000 H   0  0  0  0  0  0  0  0  0  0  0  0
  1 21  1  0  0  0  0
  1 22  1  0  0  0  0
  2  1  1  0  0  0  0
  2 23  1  0  0  0  0
  2 24  1  0  0  0  0
  3 25  1  0  0  0  0
  3 26  1  0  0  0  0
  4 27  1  0  0  0  0
  4 28  1  0  0  0  0
  5  1  1  0  0  0  0
  5 10  1  0  0  0  0
  5 18  1  1  0  0  0
  6  3  1  0  0  0  0
  7  4  1  0  0  0  0
  7 13  1  0  0  0  0
  7 19  1  6  0  0  0
  8  6  1  0  0  0  0
  8  7  1  0  0  0  0
  8 14  1  0  0  0  0
  8 20  1  1  0  0  0
  9  5  1  0  0  0  0
 10 29  1  0  0  0  0
 10 30  1  0  0  0  0
 11  3  1  0  0  0  0
 11 31  1  0  0  0  0
 12  6  2  0  0  0  0
 13 32  1  0  0  0  0
 14 33  1  0  0  0  0
 15  9  2  0  0  0  0
 16  9  1  0  0  0  0
 16 34  1  0  0  0  0
 17  2  1  0  0  0  0
 17  4  1  0  0  0  0
M  END
>  <DRUGBANK_ID>
DB04182

>  <SECONDARY_ACCESSION_NUMBERS>
EXPT01982

>  <COMMON_NAME>
(S)-2-Amino-4-[(2s,3r)-2,3,5-Trihydroxy-4-Oxo-Pentyl]Mercapto-Butyric Acid

$$$$
