
 OpenBabel10282417072D

 31 32  0  0  0  0  0  0  0  0999 V2000
    2.0399   -1.8215    0.0000 C   0  0  0  0  0  0  0  0  0  0  0  0
    2.7511    3.1151    0.0000 C   0  0  0  0  0  0  0  0  0  0  0  0
   -0.7570   -0.8092    0.0000 C   0  0  0  0  0  0  0  0  0  0  0  0
    3.3130   -0.4004    0.0000 C   0  0  0  0  0  0  0  0  0  0  0  0
    0.8839   -0.9816    0.0000 C   0  0  0  0  0  0  0  0  0  0  0  0
    3.4186    1.8052    0.0000 C   0  0  0  0  0  0  0  0  0  0  0  0
    1.7043   -1.0679    0.0000 C   0  0  0  0  0  0  0  0  0  0  0  0
    2.7511    2.2901    0.0000 C   0  0  0  0  0  0  0  0  0  0  0  0
    0.5483   -0.2280    0.0000 C   0  0  0  0  0  0  0  0  0  0  0  0
    3.1636    1.0206    0.0000 C   0  0  0  0  0  0  0  0  0  0  0  0
    1.8537    0.3531    0.0000 C   0  0  0  0  0  0  0  0  0  0  0  0
    2.1893   -0.4004    0.0000 N   0  0  0  0  0  0  0  0  0  0  0  0
    1.0332    0.4394    0.0000 N   0  0  0  0  0  0  0  0  0  0  0  0
    2.0837    1.8052    0.0000 N   0  0  0  0  0  0  0  0  0  0  0  0
    2.3386    1.0206    0.0000 N   0  0  0  0  0  0  0  0  0  0  0  0
   -0.2721   -0.1417    0.0000 O   0  0  0  0  0  0  0  0  0  0  0  0
    3.6486    0.3531    0.0000 O   0  0  0  0  0  0  0  0  0  0  0  0
    1.4110   -2.6872    0.0000 H   0  0  0  0  0  0  0  0  0  0  0  0
    3.1040   -1.9333    0.0000 H   0  0  0  0  0  0  0  0  0  0  0  0
    2.4752   -2.7990    0.0000 H   0  0  0  0  0  0  0  0  0  0  0  0
    3.6777    3.6501    0.0000 H   0  0  0  0  0  0  0  0  0  0  0  0
    1.8245    3.6501    0.0000 H   0  0  0  0  0  0  0  0  0  0  0  0
    2.7511    4.1851    0.0000 H   0  0  0  0  0  0  0  0  0  0  0  0
   -1.8211   -0.6974    0.0000 H   0  0  0  0  0  0  0  0  0  0  0  0
   -0.3217   -1.7867    0.0000 H   0  0  0  0  0  0  0  0  0  0  0  0
   -1.3859   -1.6749    0.0000 H   0  0  0  0  0  0  0  0  0  0  0  0
    2.2488   -0.5121    0.0000 H   0  0  0  0  0  0  0  0  0  0  0  0
    3.9418   -1.2661    0.0000 H   0  0  0  0  0  0  0  0  0  0  0  0
    2.8777   -1.3778    0.0000 H   0  0  0  0  0  0  0  0  0  0  0  0
    0.2773   -1.8165    0.0000 H   0  0  0  0  0  0  0  0  0  0  0  0
    4.4001    2.1241    0.0000 H   0  0  0  0  0  0  0  0  0  0  0  0
  1 18  1  0  0  0  0
  1 19  1  0  0  0  0
  1 20  1  0  0  0  0
  2 21  1  0  0  0  0
  2 22  1  0  0  0  0
  2 23  1  0  0  0  0
  3 24  1  0  0  0  0
  3 25  1  0  0  0  0
  3 26  1  0  0  0  0
  4 27  1  0  0  0  0
  4 28  1  0  0  0  0
  4 29  1  0  0  0  0
  5 30  1  0  0  0  0
  6 31  1  0  0  0  0
  7  1  1  0  0  0  0
  7  5  2  0  0  0  0
  8  2  1  0  0  0  0
  8  6  1  0  0  0  0
  9  5  1  0  0  0  0
 10  6  2  0  0  0  0
 12  7  1  0  0  0  0
 12 11  2  0  0  0  0
 13  9  2  0  0  0  0
 13 11  1  0  0  0  0
 14  8  2  0  0  0  0
 15 10  1  0  0  0  0
 15 11  1  0  0  0  0
 15 14  1  0  0  0  0
 16  3  1  0  0  0  0
 16  9  1  0  0  0  0
 17  4  1  0  0  0  0
 17 10  1  0  0  0  0
M  END
>  <DRUGBANK_ID>
DB08991

>  <COMMON_NAME>
Epirizole

>  <CAS_NUMBER>
18694-40-1

>  <UNII>
3B46O2FH8I

>  <SYNONYMS>
4-methoxy-2-(5-methoxy-3-methylpyrazol-1-yl)-6-methylpyrimidine; Epirizol; Epirizole; Epirizolum; Mepirizol; Methopyrimazole; Polihexanid

$$$$
