C26
 OpenBabel10282417072D

 31 30  0  0  0  0  0  0  0  0999 V2000
   -3.2901   -0.8627    0.0000 O   0  0  0  0  0  0  0  0  0  0  0  0
   -2.5756   -0.4501    0.0000 S   0  0  0  0  0  0  0  0  0  0  0  0
   -2.1631   -1.1646    0.0000 O   0  0  0  0  0  0  0  0  0  0  0  0
   -2.9881    0.2644    0.0000 O   0  0  0  0  0  0  0  0  0  0  0  0
   -1.8610   -0.0376    0.0000 O   0  0  0  0  0  0  0  0  0  0  0  0
   -1.1465   -0.4501    0.0000 C   0  0  0  0  0  0  0  0  0  0  0  0
   -0.4320   -0.0376    0.0000 C   0  0  2  0  0  0  0  0  0  0  0  0
   -0.4320    0.7875    0.0000 C   0  0  0  0  0  0  0  0  0  0  0  0
    0.2825    1.2000    0.0000 C   0  0  0  0  0  0  0  0  0  0  0  0
    0.2825   -0.4501    0.0000 C   0  0  0  0  0  0  0  0  0  0  0  0
    0.9971   -0.0376    0.0000 C   0  0  0  0  0  0  0  0  0  0  0  0
    1.7115   -0.4501    0.0000 C   0  0  0  0  0  0  0  0  0  0  0  0
    2.4261   -0.0376    0.0000 C   0  0  0  0  0  0  0  0  0  0  0  0
   -0.9378    0.2544    0.0000 H   0  0  0  0  0  0  0  0  0  0  0  0
   -2.5031    1.1044    0.0000 H   0  0  0  0  0  0  0  0  0  0  0  0
   -1.1465   -1.5201    0.0000 H   0  0  0  0  0  0  0  0  0  0  0  0
   -0.2199   -0.9851    0.0000 H   0  0  0  0  0  0  0  0  0  0  0  0
   -1.3586    1.3225    0.0000 H   0  0  0  0  0  0  0  0  0  0  0  0
   -0.4320    1.8575    0.0000 H   0  0  0  0  0  0  0  0  0  0  0  0
    1.2091    0.6650    0.0000 H   0  0  0  0  0  0  0  0  0  0  0  0
    0.2825    2.2700    0.0000 H   0  0  0  0  0  0  0  0  0  0  0  0
    1.2092    1.7350    0.0000 H   0  0  0  0  0  0  0  0  0  0  0  0
    0.2825   -1.5201    0.0000 H   0  0  0  0  0  0  0  0  0  0  0  0
    1.2091   -0.9852    0.0000 H   0  0  0  0  0  0  0  0  0  0  0  0
    0.9972    1.0324    0.0000 H   0  0  0  0  0  0  0  0  0  0  0  0
    1.9238    0.4974    0.0000 H   0  0  0  0  0  0  0  0  0  0  0  0
    1.7114   -1.5201    0.0000 H   0  0  0  0  0  0  0  0  0  0  0  0
    2.6381   -0.9852    0.0000 H   0  0  0  0  0  0  0  0  0  0  0  0
    3.3527   -0.5727    0.0000 H   0  0  0  0  0  0  0  0  0  0  0  0
    2.4262    1.0324    0.0000 H   0  0  0  0  0  0  0  0  0  0  0  0
    3.3528    0.4973    0.0000 H   0  0  0  0  0  0  0  0  0  0  0  0
  1  2  2  0  0  0  0
  2  3  2  0  0  0  0
  2  4  1  0  0  0  0
  2  5  1  0  0  0  0
  4 15  1  0  0  0  0
  5  6  1  0  0  0  0
  6  7  1  0  0  0  0
  6 16  1  0  0  0  0
  6 17  1  0  0  0  0
  7  8  1  0  0  0  0
  7 10  1  0  0  0  0
  7 14  1  1  0  0  0
  8  9  1  0  0  0  0
  8 18  1  0  0  0  0
  8 19  1  0  0  0  0
  9 20  1  0  0  0  0
  9 21  1  0  0  0  0
  9 22  1  0  0  0  0
 10 11  1  0  0  0  0
 10 23  1  0  0  0  0
 10 24  1  0  0  0  0
 11 12  1  0  0  0  0
 11 25  1  0  0  0  0
 11 26  1  0  0  0  0
 12 13  1  0  0  0  0
 12 27  1  0  0  0  0
 12 28  1  0  0  0  0
 13 29  1  0  0  0  0
 13 30  1  0  0  0  0
 13 31  1  0  0  0  0
M  END
>  <DRUGBANK_ID>
DB07518

>  <COMMON_NAME>
(2R)-2-ETHYL-1-HEXANESULFONIC ACID

$$$$
