
 OpenBabel10282417072D

 41 40  0  0  1  0  0  0  0  0999 V2000
   -1.6500    0.0000    0.0000 C   0  0  0  0  0  0  0  0  0  0  0  0
   -2.4750    0.0000    0.0000 C   0  0  0  0  0  0  0  0  0  0  0  0
   -1.2375    0.7145    0.0000 C   0  0  0  0  0  0  0  0  0  0  0  0
   -2.8875   -0.7145    0.0000 C   0  0  0  0  0  0  0  0  0  0  0  0
   -0.0000    1.4289    0.0000 C   0  0  0  0  0  0  0  0  0  0  0  0
    2.0625   -0.7145    0.0000 C   0  0  0  0  0  0  0  0  0  0  0  0
    0.8250    1.4289    0.0000 C   0  0  0  0  0  0  0  0  0  0  0  0
    1.2375   -0.7145    0.0000 C   0  0  0  0  0  0  0  0  0  0  0  0
    2.0625    2.1434    0.0000 C   0  0  0  0  0  0  0  0  0  0  0  0
   -0.4125    0.7145    0.0000 C   0  0  1  0  0  0  0  0  0  0  0  0
   -3.7125   -0.7145    0.0000 C   0  0  0  0  0  0  0  0  0  0  0  0
    2.4750    2.8579    0.0000 N   0  0  0  0  0  0  0  0  0  0  0  0
    2.4750   -1.4289    0.0000 O   0  0  0  0  0  0  0  0  0  0  0  0
   -4.1250   -1.4289    0.0000 O   0  0  0  0  0  0  0  0  0  0  0  0
   -4.1250    0.0000    0.0000 O   0  0  0  0  0  0  0  0  0  0  0  0
    1.2375    2.1434    0.0000 S   0  0  0  0  0  0  0  0  0  0  0  0
    0.8250    0.0000    0.0000 S   0  0  0  0  0  0  0  0  0  0  0  0
   -0.0000    0.0000    0.0000 S   0  0  0  0  0  0  0  0  0  0  0  0
   -0.8250    1.4289    0.0000 H   0  0  0  0  0  0  0  0  0  0  0  0
   -1.1150   -0.9266    0.0000 H   0  0  0  0  0  0  0  0  0  0  0  0
   -0.5800    0.0000    0.0000 H   0  0  0  0  0  0  0  0  0  0  0  0
   -3.0100    0.9266    0.0000 H   0  0  0  0  0  0  0  0  0  0  0  0
   -3.5450   -0.0000    0.0000 H   0  0  0  0  0  0  0  0  0  0  0  0
   -1.7725    1.6411    0.0000 H   0  0  0  0  0  0  0  0  0  0  0  0
   -0.7025    1.6411    0.0000 H   0  0  0  0  0  0  0  0  0  0  0  0
   -2.3525   -1.6411    0.0000 H   0  0  0  0  0  0  0  0  0  0  0  0
   -3.4225   -1.6411    0.0000 H   0  0  0  0  0  0  0  0  0  0  0  0
   -0.5350    2.3556    0.0000 H   0  0  0  0  0  0  0  0  0  0  0  0
   -1.0700    1.4289    0.0000 H   0  0  0  0  0  0  0  0  0  0  0  0
    2.5975    0.2122    0.0000 H   0  0  0  0  0  0  0  0  0  0  0  0
    3.1325   -0.7145    0.0000 H   0  0  0  0  0  0  0  0  0  0  0  0
    1.3600    0.5023    0.0000 H   0  0  0  0  0  0  0  0  0  0  0  0
    1.8950    1.4289    0.0000 H   0  0  0  0  0  0  0  0  0  0  0  0
    0.7025   -1.6411    0.0000 H   0  0  0  0  0  0  0  0  0  0  0  0
    0.1675   -0.7145    0.0000 H   0  0  0  0  0  0  0  0  0  0  0  0
    2.5975    1.2168    0.0000 H   0  0  0  0  0  0  0  0  0  0  0  0
    1.5275    1.2168    0.0000 H   0  0  0  0  0  0  0  0  0  0  0  0
    3.4950    2.8579    0.0000 H   0  0  0  0  0  0  0  0  0  0  0  0
    1.9650    3.7412    0.0000 H   0  0  0  0  0  0  0  0  0  0  0  0
    1.9900   -2.2690    0.0000 H   0  0  0  0  0  0  0  0  0  0  0  0
   -3.6565    0.8115    0.0000 H   0  0  0  0  0  0  0  0  0  0  0  0
  1 20  1  0  0  0  0
  1 21  1  0  0  0  0
  2  1  1  0  0  0  0
  2 22  1  0  0  0  0
  2 23  1  0  0  0  0
  3  1  1  0  0  0  0
  3 24  1  0  0  0  0
  3 25  1  0  0  0  0
  4  2  1  0  0  0  0
  4 26  1  0  0  0  0
  4 27  1  0  0  0  0
  5 28  1  0  0  0  0
  5 29  1  0  0  0  0
  6 30  1  0  0  0  0
  6 31  1  0  0  0  0
  7  5  1  0  0  0  0
  7 32  1  0  0  0  0
  7 33  1  0  0  0  0
  8  6  1  0  0  0  0
  8 34  1  0  0  0  0
  8 35  1  0  0  0  0
  9 36  1  0  0  0  0
  9 37  1  0  0  0  0
 10  3  1  0  0  0  0
 10  5  1  0  0  0  0
 10 18  1  0  0  0  0
 10 19  1  6  0  0  0
 11  4  1  0  0  0  0
 12  9  1  0  0  0  0
 12 38  1  0  0  0  0
 12 39  1  0  0  0  0
 13  6  1  0  0  0  0
 13 40  1  0  0  0  0
 14 11  2  0  0  0  0
 15 11  1  0  0  0  0
 15 41  1  0  0  0  0
 16  7  1  0  0  0  0
 16  9  1  0  0  0  0
 17  8  1  0  0  0  0
 18 17  1  0  0  0  0
M  END
>  <DRUGBANK_ID>
DB03187

>  <SECONDARY_ACCESSION_NUMBERS>
EXPT02450

>  <COMMON_NAME>
6-(Hydroxyethyldithio)-8-(Aminomethylthio)Octanoic Acid

$$$$
