
 OpenBabel10282417072D

 21 21  0  0  0  0  0  0  0  0999 V2000
    1.4289   -0.0000    0.0000 C   0  0  0  0  0  0  0  0  0  0  0  0
    0.7145   -1.2375    0.0000 C   0  0  0  0  0  0  0  0  0  0  0  0
    1.4289    0.8250    0.0000 C   0  0  0  0  0  0  0  0  0  0  0  0
   -0.0000   -1.6500    0.0000 C   0  0  0  0  0  0  0  0  0  0  0  0
    0.0000    0.8250    0.0000 C   0  0  0  0  0  0  0  0  0  0  0  0
    0.7145   -0.4125    0.0000 C   0  0  0  0  0  0  0  0  0  0  0  0
    0.7145    1.2375    0.0000 C   0  0  0  0  0  0  0  0  0  0  0  0
    0.0000   -0.0000    0.0000 C   0  0  0  0  0  0  0  0  0  0  0  0
   -0.0000   -2.4750    0.0000 C   0  0  0  0  0  0  0  0  0  0  0  0
    0.7145    2.0625    0.0000 O   0  0  0  0  0  0  0  0  0  0  0  0
   -0.7145   -0.4125    0.0000 O   0  0  0  0  0  0  0  0  0  0  0  0
    0.7145   -2.8875    0.0000 O   0  0  0  0  0  0  0  0  0  0  0  0
   -0.7145   -2.8875    0.0000 O   0  0  0  0  0  0  0  0  0  0  0  0
    1.4289   -1.6500    0.0000 H   0  0  0  0  0  0  0  0  0  0  0  0
   -0.7145   -1.2375    0.0000 H   0  0  0  0  0  0  0  0  0  0  0  0
    2.3226   -0.5160    0.0000 H   0  0  0  0  0  0  0  0  0  0  0  0
    2.3226    1.3410    0.0000 H   0  0  0  0  0  0  0  0  0  0  0  0
   -0.8937    1.3410    0.0000 H   0  0  0  0  0  0  0  0  0  0  0  0
    1.5260    2.5310    0.0000 H   0  0  0  0  0  0  0  0  0  0  0  0
   -1.5260    0.0560    0.0000 H   0  0  0  0  0  0  0  0  0  0  0  0
   -1.5260   -2.4190    0.0000 H   0  0  0  0  0  0  0  0  0  0  0  0
  1 16  1  0  0  0  0
  3  1  2  0  0  0  0
  3 17  1  0  0  0  0
  4  2  2  0  0  0  0
  5 18  1  0  0  0  0
  6  1  1  0  0  0  0
  6  2  1  0  0  0  0
  7  3  1  0  0  0  0
  7  5  2  0  0  0  0
  8  5  1  0  0  0  0
  8  6  2  0  0  0  0
  9  4  1  0  0  0  0
 10  7  1  0  0  0  0
 10 19  1  0  0  0  0
 11  8  1  0  0  0  0
 11 20  1  0  0  0  0
 12  9  2  0  0  0  0
 13  9  1  0  0  0  0
 13 21  1  0  0  0  0
 14  2  1  0  0  0  0
 15  4  1  0  0  0  0
M  END
>  <DRUGBANK_ID>
DB01704

>  <SECONDARY_ACCESSION_NUMBERS>
EXPT02925

>  <COMMON_NAME>
2,4-Dihydroxy-Trans Cinnamic Acid

>  <CAS_NUMBER>
614-86-8

>  <UNII>
U8G3LS2JEX

$$$$
