400
 OpenBabel10282417072D

 41 43  0  0  1  0  0  0  0  0999 V2000
    5.4278    1.1433    0.0000 Cl  0  0  0  0  0  0  0  0  0  0  0  0
    4.4167   -0.3694    0.0000 O   0  0  0  0  0  0  0  0  0  0  0  0
    5.1782   -0.8542    0.0000 O   0  0  0  0  0  0  0  0  0  0  0  0
    2.3169   -0.0602    0.0000 O   0  0  0  0  0  0  0  0  0  0  0  0
    3.7493   -3.3292    0.0000 O   0  0  0  0  0  0  0  0  0  0  0  0
    2.0707    1.1433    0.0000 O   0  0  0  0  0  0  0  0  0  0  0  0
    4.5942    2.6132    0.0000 O   0  0  0  0  0  0  0  0  0  0  0  0
    3.7493   -0.8542    0.0000 C   0  0  2  0  0  0  0  0  0  0  0  0
    3.0348   -1.2667    0.0000 C   0  0  1  0  0  0  0  0  0  0  0  0
    3.0348   -2.0917    0.0000 C   0  0  0  0  0  0  0  0  0  0  0  0
    3.0819   -0.3694    0.0000 C   0  0  0  0  0  0  0  0  0  0  0  0
    4.4637   -1.2667    0.0000 C   0  0  0  0  0  0  0  0  0  0  0  0
    2.2223   -1.4100    0.0000 C   0  0  0  0  0  0  0  0  0  0  0  0
    3.3368    0.4153    0.0000 C   0  0  0  0  0  0  0  0  0  0  0  0
    4.1618    0.4153    0.0000 C   0  0  0  0  0  0  0  0  0  0  0  0
    3.7493   -2.5042    0.0000 C   0  0  0  0  0  0  0  0  0  0  0  0
    4.4637   -2.0917    0.0000 C   0  0  0  0  0  0  0  0  0  0  0  0
    2.8957    1.1528    0.0000 C   0  0  0  0  0  0  0  0  0  0  0  0
    4.6028    1.1528    0.0000 C   0  0  0  0  0  0  0  0  0  0  0  0
    3.3196    1.9003    0.0000 C   0  0  0  0  0  0  0  0  0  0  0  0
    4.1790    1.9003    0.0000 C   0  0  0  0  0  0  0  0  0  0  0  0
    5.8927   -1.2667    0.0000 C   0  0  0  0  0  0  0  0  0  0  0  0
    1.6500    1.8529    0.0000 C   0  0  0  0  0  0  0  0  0  0  0  0
    4.1845    3.3292    0.0000 C   0  0  0  0  0  0  0  0  0  0  0  0
    2.6688   -0.2612    0.0000 H   0  0  0  0  0  0  0  0  0  0  0  0
    2.1082   -2.6267    0.0000 H   0  0  0  0  0  0  0  0  0  0  0  0
    3.0348   -3.1617    0.0000 H   0  0  0  0  0  0  0  0  0  0  0  0
    1.5345   -0.5904    0.0000 H   0  0  0  0  0  0  0  0  0  0  0  0
    1.8564   -2.4155    0.0000 H   0  0  0  0  0  0  0  0  0  0  0  0
    1.1686   -1.5958    0.0000 H   0  0  0  0  0  0  0  0  0  0  0  0
    5.3574   -2.6077    0.0000 H   0  0  0  0  0  0  0  0  0  0  0  0
    2.8001    2.7920    0.0000 H   0  0  0  0  0  0  0  0  0  0  0  0
    5.8927   -2.3367    0.0000 H   0  0  0  0  0  0  0  0  0  0  0  0
    6.8193   -0.7317    0.0000 H   0  0  0  0  0  0  0  0  0  0  0  0
    6.8194   -1.8017    0.0000 H   0  0  0  0  0  0  0  0  0  0  0  0
    2.1743    2.7857    0.0000 H   0  0  0  0  0  0  0  0  0  0  0  0
    0.5801    1.8405    0.0000 H   0  0  0  0  0  0  0  0  0  0  0  0
    1.1043    2.7733    0.0000 H   0  0  0  0  0  0  0  0  0  0  0  0
    4.7231    4.2538    0.0000 H   0  0  0  0  0  0  0  0  0  0  0  0
    3.1145    3.3333    0.0000 H   0  0  0  0  0  0  0  0  0  0  0  0
    3.6531    4.2579    0.0000 H   0  0  0  0  0  0  0  0  0  0  0  0
  1 19  1  0  0  0  0
  2 15  1  0  0  0  0
  3 12  1  0  0  0  0
  3 22  1  0  0  0  0
  4 11  2  0  0  0  0
  5 16  2  0  0  0  0
  6 18  1  0  0  0  0
  6 23  1  0  0  0  0
  7 21  1  0  0  0  0
  7 24  1  0  0  0  0
  8  2  1  6  0  0  0
  8  9  1  0  0  0  0
  8 11  1  0  0  0  0
  8 12  1  0  0  0  0
  9 10  1  0  0  0  0
  9 13  1  0  0  0  0
  9 25  1  6  0  0  0
 10 16  1  0  0  0  0
 10 26  1  0  0  0  0
 10 27  1  0  0  0  0
 11 14  1  0  0  0  0
 12 17  2  0  0  0  0
 13 28  1  0  0  0  0
 13 29  1  0  0  0  0
 13 30  1  0  0  0  0
 14 15  2  0  0  0  0
 14 18  1  0  0  0  0
 15 19  1  0  0  0  0
 16 17  1  0  0  0  0
 17 31  1  0  0  0  0
 18 20  2  0  0  0  0
 19 21  2  0  0  0  0
 20 21  1  0  0  0  0
 20 32  1  0  0  0  0
 22 33  1  0  0  0  0
 22 34  1  0  0  0  0
 22 35  1  0  0  0  0
 23 36  1  0  0  0  0
 23 37  1  0  0  0  0
 23 38  1  0  0  0  0
 24 39  1  0  0  0  0
 24 40  1  0  0  0  0
 24 41  1  0  0  0  0
M  END
>  <DRUGBANK_ID>
DB00400

>  <SECONDARY_ACCESSION_NUMBERS>
APRD01004

>  <COMMON_NAME>
Griseofulvin

>  <CAS_NUMBER>
126-07-8

>  <UNII>
32HRV3E3D5

>  <SYNONYMS>
(+)-griseofulvin; Amudane; Griseofulvin; Griseofulvin, microcrystalline; Griseofulvin, ultramicrosize; Griseofulvina; Gris√©ofulvine; Griseofulvinum

$$$$
