
 OpenBabel10282417072D

 50 49  0  0  1  0  0  0  0  0999 V2000
    2.2836    2.1434    0.0000 C   0  0  0  0  0  0  0  0  0  0  0  0
    9.4283    0.4934    0.0000 C   0  0  0  0  0  0  0  0  0  0  0  0
    8.6033    1.3184    0.0000 C   0  0  0  0  0  0  0  0  0  0  0  0
   10.2533    1.3184    0.0000 C   0  0  0  0  0  0  0  0  0  0  0  0
    2.9980    2.5559    0.0000 C   0  0  0  0  0  0  0  0  0  0  0  0
    3.7125    2.1434    0.0000 C   0  0  0  0  0  0  0  0  0  0  0  0
    4.4270    2.5559    0.0000 C   0  0  0  0  0  0  0  0  0  0  0  0
    5.1414    2.1434    0.0000 C   0  0  0  0  0  0  0  0  0  0  0  0
    5.8559    2.5559    0.0000 C   0  0  0  0  0  0  0  0  0  0  0  0
    6.5704    2.1434    0.0000 C   0  0  0  0  0  0  0  0  0  0  0  0
    8.7138    3.3809    0.0000 C   0  0  0  0  0  0  0  0  0  0  0  0
    9.4283    2.1434    0.0000 C   0  0  0  0  0  0  0  0  0  0  0  0
    8.7138    2.5559    0.0000 C   0  0  2  0  0  0  0  0  0  0  0  0
    9.4283    3.7934    0.0000 C   0  0  0  0  0  0  0  0  0  0  0  0
    7.2849    2.5559    0.0000 C   0  0  0  0  0  0  0  0  0  0  0  0
    9.4283    1.3184    0.0000 N   0  3  0  0  0  0  0  0  0  0  0  0
    9.4283    4.6184    0.0000 O   0  0  0  0  0  0  0  0  0  0  0  0
   10.1427    3.3809    0.0000 O   0  0  0  0  0  0  0  0  0  0  0  0
    7.2849    3.3809    0.0000 O   0  0  0  0  0  0  0  0  0  0  0  0
    7.9993    2.1434    0.0000 O   0  0  0  0  0  0  0  0  0  0  0  0
    9.4283    2.9684    0.0000 H   0  0  0  0  0  0  0  0  0  0  0  0
    1.3569    2.6784    0.0000 H   0  0  0  0  0  0  0  0  0  0  0  0
    2.2836    1.0734    0.0000 H   0  0  0  0  0  0  0  0  0  0  0  0
    1.3570    1.6084    0.0000 H   0  0  0  0  0  0  0  0  0  0  0  0
    8.5017   -0.0416    0.0000 H   0  0  0  0  0  0  0  0  0  0  0  0
   10.3549   -0.0416    0.0000 H   0  0  0  0  0  0  0  0  0  0  0  0
    9.4283   -0.5766    0.0000 H   0  0  0  0  0  0  0  0  0  0  0  0
    8.0683    2.2450    0.0000 H   0  0  0  0  0  0  0  0  0  0  0  0
    8.0683    0.3918    0.0000 H   0  0  0  0  0  0  0  0  0  0  0  0
    7.5333    1.3184    0.0000 H   0  0  0  0  0  0  0  0  0  0  0  0
   10.7883    0.3918    0.0000 H   0  0  0  0  0  0  0  0  0  0  0  0
   10.7883    2.2450    0.0000 H   0  0  0  0  0  0  0  0  0  0  0  0
   11.3233    1.3184    0.0000 H   0  0  0  0  0  0  0  0  0  0  0  0
    2.9980    3.6259    0.0000 H   0  0  0  0  0  0  0  0  0  0  0  0
    3.9246    3.0909    0.0000 H   0  0  0  0  0  0  0  0  0  0  0  0
    3.7125    1.0734    0.0000 H   0  0  0  0  0  0  0  0  0  0  0  0
    4.6391    1.6084    0.0000 H   0  0  0  0  0  0  0  0  0  0  0  0
    4.4270    3.6259    0.0000 H   0  0  0  0  0  0  0  0  0  0  0  0
    5.3537    3.0909    0.0000 H   0  0  0  0  0  0  0  0  0  0  0  0
    5.1414    1.0734    0.0000 H   0  0  0  0  0  0  0  0  0  0  0  0
    6.0680    1.6084    0.0000 H   0  0  0  0  0  0  0  0  0  0  0  0
    5.8559    3.6259    0.0000 H   0  0  0  0  0  0  0  0  0  0  0  0
    6.7825    3.0909    0.0000 H   0  0  0  0  0  0  0  0  0  0  0  0
    6.5704    1.0734    0.0000 H   0  0  0  0  0  0  0  0  0  0  0  0
    7.4970    1.6084    0.0000 H   0  0  0  0  0  0  0  0  0  0  0  0
    7.7872    3.9159    0.0000 H   0  0  0  0  0  0  0  0  0  0  0  0
    8.7138    4.4509    0.0000 H   0  0  0  0  0  0  0  0  0  0  0  0
   10.3549    2.6784    0.0000 H   0  0  0  0  0  0  0  0  0  0  0  0
   10.3549    1.6084    0.0000 H   0  0  0  0  0  0  0  0  0  0  0  0
   10.1427    2.4439    0.0000 H   0  0  0  0  0  0  0  0  0  0  0  0
  1 22  1  0  0  0  0
  1 23  1  0  0  0  0
  1 24  1  0  0  0  0
  2 25  1  0  0  0  0
  2 26  1  0  0  0  0
  2 27  1  0  0  0  0
  3 28  1  0  0  0  0
  3 29  1  0  0  0  0
  3 30  1  0  0  0  0
  4 31  1  0  0  0  0
  4 32  1  0  0  0  0
  4 33  1  0  0  0  0
  5  1  1  0  0  0  0
  5 34  1  0  0  0  0
  5 35  1  0  0  0  0
  6  5  1  0  0  0  0
  6 36  1  0  0  0  0
  6 37  1  0  0  0  0
  7  6  1  0  0  0  0
  7 38  1  0  0  0  0
  7 39  1  0  0  0  0
  8  7  1  0  0  0  0
  8 40  1  0  0  0  0
  8 41  1  0  0  0  0
  9  8  1  0  0  0  0
  9 42  1  0  0  0  0
  9 43  1  0  0  0  0
 10  9  1  0  0  0  0
 10 44  1  0  0  0  0
 10 45  1  0  0  0  0
 11 46  1  0  0  0  0
 11 47  1  0  0  0  0
 12 48  1  0  0  0  0
 12 49  1  0  0  0  0
 13 11  1  0  0  0  0
 13 12  1  0  0  0  0
 13 20  1  0  0  0  0
 13 21  1  1  0  0  0
 14 11  1  0  0  0  0
 15 10  1  0  0  0  0
 16  2  1  0  0  0  0
 16  3  1  0  0  0  0
 16  4  1  0  0  0  0
 16 12  1  0  0  0  0
 17 14  2  0  0  0  0
 18 14  1  0  0  0  0
 18 50  1  0  0  0  0
 19 15  2  0  0  0  0
 20 15  1  0  0  0  0
M  CHG  1  16   1
M  END
>  <DRUGBANK_ID>
DB03832

>  <SECONDARY_ACCESSION_NUMBERS>
EXPT02414

>  <COMMON_NAME>
3-Carboxy-N,N,N-Trimethyl-2-(Octanoyloxy)Propan-1-Aminium

$$$$
