CPX
 OpenBabel10282417072D

 70 73  0  0  0  0  0  0  0  0999 V2000
   -1.6317    1.9309    0.0000 O   0  0  0  0  0  0  0  0  0  0  0  0
    2.3122   -3.8252    0.0000 C   0  0  0  0  0  0  0  0  0  0  0  0
    1.6447   -4.3101    0.0000 C   0  0  0  0  0  0  0  0  0  0  0  0
    1.5585   -3.4897    0.0000 C   0  0  0  0  0  0  0  0  0  0  0  0
   -1.6317    1.1059    0.0000 C   0  0  0  0  0  0  0  0  0  0  0  0
   -2.3462    0.6934    0.0000 N   0  0  0  0  0  0  0  0  0  0  0  0
   -3.0607    1.1059    0.0000 C   0  0  0  0  0  0  0  0  0  0  0  0
   -3.8143    0.7704    0.0000 C   0  0  0  0  0  0  0  0  0  0  0  0
   -4.3664    1.3835    0.0000 C   0  0  0  0  0  0  0  0  0  0  0  0
   -3.9539    2.0979    0.0000 C   0  0  0  0  0  0  0  0  0  0  0  0
   -3.1469    1.9264    0.0000 C   0  0  0  0  0  0  0  0  0  0  0  0
   -0.9172    0.6934    0.0000 N   0  0  0  0  0  0  0  0  0  0  0  0
   -0.2028    1.1059    0.0000 C   0  0  1  0  0  0  0  0  0  0  0  0
   -0.2028    1.9309    0.0000 C   0  0  0  0  0  0  0  0  0  0  0  0
    0.5117    2.3434    0.0000 C   0  0  0  0  0  0  0  0  0  0  0  0
   -0.9172    2.3434    0.0000 C   0  0  0  0  0  0  0  0  0  0  0  0
    0.5117    0.6934    0.0000 C   0  0  0  0  0  0  0  0  0  0  0  0
    1.2262    1.1059    0.0000 O   0  0  0  0  0  0  0  0  0  0  0  0
    0.5117   -0.1316    0.0000 N   0  0  0  0  0  0  0  0  0  0  0  0
    1.1791   -0.6165    0.0000 C   0  0  1  0  0  0  0  0  0  0  0  0
    0.9242   -1.4011    0.0000 C   0  0  2  0  0  0  0  0  0  0  0  0
    0.0992   -1.4011    0.0000 C   0  0  0  0  0  0  0  0  0  0  0  0
   -0.1557   -0.6165    0.0000 C   0  0  0  0  0  0  0  0  0  0  0  0
    1.4091   -2.0685    0.0000 N   0  0  0  0  0  0  0  0  0  0  0  0
    1.0736   -2.8222    0.0000 C   0  0  0  0  0  0  0  0  0  0  0  0
    0.2531   -2.9085    0.0000 O   0  0  0  0  0  0  0  0  0  0  0  0
    1.9638   -0.3615    0.0000 C   0  0  0  0  0  0  0  0  0  0  0  0
    2.2187   -1.1462    0.0000 C   0  0  0  0  0  0  0  0  0  0  0  0
    1.6667   -1.7593    0.0000 O   0  0  0  0  0  0  0  0  0  0  0  0
    1.7088    0.4231    0.0000 C   0  0  0  0  0  0  0  0  0  0  0  0
    2.4934    0.6780    0.0000 C   0  0  0  0  0  0  0  0  0  0  0  0
    2.7484   -0.1066    0.0000 C   0  0  0  0  0  0  0  0  0  0  0  0
   -0.7085    1.3979    0.0000 H   0  0  0  0  0  0  0  0  0  0  0  0
    1.2705   -0.0397    0.0000 H   0  0  0  0  0  0  0  0  0  0  0  0
    1.5009   -1.3098    0.0000 H   0  0  0  0  0  0  0  0  0  0  0  0
    3.3763   -3.7133    0.0000 H   0  0  0  0  0  0  0  0  0  0  0  0
    2.4795   -2.7684    0.0000 H   0  0  0  0  0  0  0  0  0  0  0  0
    1.2094   -5.2876    0.0000 H   0  0  0  0  0  0  0  0  0  0  0  0
    0.5879   -4.1427    0.0000 H   0  0  0  0  0  0  0  0  0  0  0  0
    0.5595   -3.8731    0.0000 H   0  0  0  0  0  0  0  0  0  0  0  0
   -2.3462   -0.2911    0.0000 H   0  0  0  0  0  0  0  0  0  0  0  0
   -3.9873    1.6409    0.0000 H   0  0  0  0  0  0  0  0  0  0  0  0
   -4.0368   -0.2762    0.0000 H   0  0  0  0  0  0  0  0  0  0  0  0
   -4.8478    0.4934    0.0000 H   0  0  0  0  0  0  0  0  0  0  0  0
   -5.4305    1.2716    0.0000 H   0  0  0  0  0  0  0  0  0  0  0  0
   -4.9491    2.2809    0.0000 H   0  0  0  0  0  0  0  0  0  0  0  0
   -4.3891    3.0754    0.0000 H   0  0  0  0  0  0  0  0  0  0  0  0
   -3.2805    2.9295    0.0000 H   0  0  0  0  0  0  0  0  0  0  0  0
   -2.3517    2.6424    0.0000 H   0  0  0  0  0  0  0  0  0  0  0  0
   -3.4239    2.9599    0.0000 H   0  0  0  0  0  0  0  0  0  0  0  0
   -0.9172   -0.2911    0.0000 H   0  0  0  0  0  0  0  0  0  0  0  0
   -0.2028    3.0009    0.0000 H   0  0  0  0  0  0  0  0  0  0  0  0
    1.4383    1.8084    0.0000 H   0  0  0  0  0  0  0  0  0  0  0  0
    0.5117    3.4134    0.0000 H   0  0  0  0  0  0  0  0  0  0  0  0
    1.4384    2.8784    0.0000 H   0  0  0  0  0  0  0  0  0  0  0  0
   -0.9172    3.4134    0.0000 H   0  0  0  0  0  0  0  0  0  0  0  0
   -1.8439    1.8084    0.0000 H   0  0  0  0  0  0  0  0  0  0  0  0
   -1.8438    2.8784    0.0000 H   0  0  0  0  0  0  0  0  0  0  0  0
   -0.5297   -2.2667    0.0000 H   0  0  0  0  0  0  0  0  0  0  0  0
   -0.9576   -1.2337    0.0000 H   0  0  0  0  0  0  0  0  0  0  0  0
   -1.1733   -0.2858    0.0000 H   0  0  0  0  0  0  0  0  0  0  0  0
   -0.9123   -1.3731    0.0000 H   0  0  0  0  0  0  0  0  0  0  0  0
    2.3882   -1.9656    0.0000 H   0  0  0  0  0  0  0  0  0  0  0  0
    3.2281   -1.3608    0.0000 H   0  0  0  0  0  0  0  0  0  0  0  0
    0.7554    0.9089    0.0000 H   0  0  0  0  0  0  0  0  0  0  0  0
    1.7928    1.4898    0.0000 H   0  0  0  0  0  0  0  0  0  0  0  0
    2.9792    1.6314    0.0000 H   0  0  0  0  0  0  0  0  0  0  0  0
    3.5601    0.5941    0.0000 H   0  0  0  0  0  0  0  0  0  0  0  0
    3.7018   -0.5924    0.0000 H   0  0  0  0  0  0  0  0  0  0  0  0
    3.5620    0.5883    0.0000 H   0  0  0  0  0  0  0  0  0  0  0  0
  1  5  2  0  0  0  0
  2  3  1  0  0  0  0
  2  4  1  0  0  0  0
  2 36  1  0  0  0  0
  2 37  1  0  0  0  0
  3  4  1  0  0  0  0
  3 38  1  0  0  0  0
  3 39  1  0  0  0  0
  4 25  1  0  0  0  0
  4 40  1  0  0  0  0
  5  6  1  0  0  0  0
  5 12  1  0  0  0  0
  6  7  1  0  0  0  0
  6 41  1  0  0  0  0
  7  8  1  0  0  0  0
  7 11  1  0  0  0  0
  7 42  1  0  0  0  0
  8  9  1  0  0  0  0
  8 43  1  0  0  0  0
  8 44  1  0  0  0  0
  9 10  1  0  0  0  0
  9 45  1  0  0  0  0
  9 46  1  0  0  0  0
 10 11  1  0  0  0  0
 10 47  1  0  0  0  0
 10 48  1  0  0  0  0
 11 49  1  0  0  0  0
 11 50  1  0  0  0  0
 12 51  1  0  0  0  0
 13 12  1  0  0  0  0
 13 14  1  0  0  0  0
 13 17  1  0  0  0  0
 13 33  1  6  0  0  0
 14 15  1  0  0  0  0
 14 16  1  0  0  0  0
 14 52  1  0  0  0  0
 15 53  1  0  0  0  0
 15 54  1  0  0  0  0
 15 55  1  0  0  0  0
 16 56  1  0  0  0  0
 16 57  1  0  0  0  0
 16 58  1  0  0  0  0
 17 18  2  0  0  0  0
 17 19  1  0  0  0  0
 19 20  1  0  0  0  0
 19 23  1  0  0  0  0
 20 21  1  0  0  0  0
 20 27  1  0  0  0  0
 20 34  1  1  0  0  0
 21 22  1  0  0  0  0
 21 24  1  0  0  0  0
 21 35  1  6  0  0  0
 22 23  1  0  0  0  0
 22 59  1  0  0  0  0
 22 60  1  0  0  0  0
 23 61  1  0  0  0  0
 23 62  1  0  0  0  0
 24 25  1  0  0  0  0
 24 63  1  0  0  0  0
 25 26  2  0  0  0  0
 27 28  1  0  0  0  0
 27 30  1  0  0  0  0
 27 32  1  0  0  0  0
 28 29  2  0  0  0  0
 28 64  1  0  0  0  0
 30 31  1  0  0  0  0
 30 65  1  0  0  0  0
 30 66  1  0  0  0  0
 31 32  1  0  0  0  0
 31 67  1  0  0  0  0
 31 68  1  0  0  0  0
 32 69  1  0  0  0  0
 32 70  1  0  0  0  0
M  END
>  <DRUGBANK_ID>
DB07582

>  <COMMON_NAME>
N-[(2R,3S)-1-((2S)-2-{[(CYCLOPENTYLAMINO)CARBONYL]AMINO}-3-METHYLBUTANOYL)-2-(1-FORMYL-1-CYCLOBUTYL)PYRROLIDINYL]CYCLOPROPANECARBOXAMIDE

$$$$
