
 OpenBabel10282417072D

 52 53  0  0  0  0  0  0  0  0999 V2000
    1.0728    0.8265    0.0000 C   0  0  0  0  0  0  0  0  0  0  0  0
    1.7903    0.4133    0.0000 N   0  0  0  0  0  0  0  0  0  0  0  0
   -1.0696    0.4099    0.0000 C   0  0  0  0  0  0  0  0  0  0  0  0
    0.3587    0.4099    0.0000 C   0  0  1  0  0  0  0  0  0  0  0  0
   -0.3554    0.8200    0.0000 N   0  0  0  0  0  0  0  0  0  0  0  0
    3.2186    0.4133    0.0000 C   0  0  0  0  0  0  0  0  0  0  0  0
    2.5044    0.8265    0.0000 C   0  0  2  0  0  0  0  0  0  0  0  0
    1.0728    1.6497    0.0000 O   0  0  0  0  0  0  0  0  0  0  0  0
    0.3620   -0.4133    0.0000 C   0  0  0  0  0  0  0  0  0  0  0  0
   -1.0696   -0.4133    0.0000 O   0  0  0  0  0  0  0  0  0  0  0  0
   -1.7837    0.8200    0.0000 O   0  0  0  0  0  0  0  0  0  0  0  0
    3.2186   -0.4099    0.0000 O   0  0  0  0  0  0  0  0  0  0  0  0
    1.0762   -0.8265    0.0000 C   0  0  0  0  0  0  0  0  0  0  0  0
    2.5044   -1.6497    0.0000 C   0  0  0  0  0  0  0  0  0  0  0  0
   -2.4978    0.4099    0.0000 C   0  0  0  0  0  0  0  0  0  0  0  0
    1.7903   -0.4133    0.0000 C   0  0  0  0  0  0  0  0  0  0  0  0
    1.0762   -1.6531    0.0000 C   0  0  0  0  0  0  0  0  0  0  0  0
    2.5044   -0.8200    0.0000 C   0  0  0  0  0  0  0  0  0  0  0  0
    1.7903   -2.0597    0.0000 C   0  0  0  0  0  0  0  0  0  0  0  0
    4.6468    0.4198    0.0000 F   0  0  0  0  0  0  0  0  0  0  0  0
    3.9328    0.8298    0.0000 C   0  0  0  0  0  0  0  0  0  0  0  0
   -3.2186    0.8200    0.0000 C   0  0  0  0  0  0  0  0  0  0  0  0
    3.2186   -2.0597    0.0000 O   0  0  0  0  0  0  0  0  0  0  0  0
    2.5011    1.6531    0.0000 C   0  0  0  0  0  0  0  0  0  0  0  0
   -3.9328    0.4099    0.0000 C   0  0  0  0  0  0  0  0  0  0  0  0
   -3.2186    1.6497    0.0000 C   0  0  0  0  0  0  0  0  0  0  0  0
   -3.9328    2.0597    0.0000 C   0  0  0  0  0  0  0  0  0  0  0  0
   -4.6468    0.8200    0.0000 C   0  0  0  0  0  0  0  0  0  0  0  0
   -4.6468    1.6497    0.0000 C   0  0  0  0  0  0  0  0  0  0  0  0
    1.7913   -0.5712    0.0000 H   0  0  0  0  0  0  0  0  0  0  0  0
    1.2876   -0.1211    0.0000 H   0  0  0  0  0  0  0  0  0  0  0  0
   -0.3554    1.8045    0.0000 H   0  0  0  0  0  0  0  0  0  0  0  0
    3.4302    1.3629    0.0000 H   0  0  0  0  0  0  0  0  0  0  0  0
   -0.5638   -0.9497    0.0000 H   0  0  0  0  0  0  0  0  0  0  0  0
    0.3624   -1.4833    0.0000 H   0  0  0  0  0  0  0  0  0  0  0  0
   -2.4956   -0.6601    0.0000 H   0  0  0  0  0  0  0  0  0  0  0  0
   -3.4222   -0.1290    0.0000 H   0  0  0  0  0  0  0  0  0  0  0  0
    1.7868    0.6187    0.0000 H   0  0  0  0  0  0  0  0  0  0  0  0
    0.1840   -2.1718    0.0000 H   0  0  0  0  0  0  0  0  0  0  0  0
    3.3966   -0.3014    0.0000 H   0  0  0  0  0  0  0  0  0  0  0  0
    1.7922   -3.0917    0.0000 H   0  0  0  0  0  0  0  0  0  0  0  0
    3.9292    1.8998    0.0000 H   0  0  0  0  0  0  0  0  0  0  0  0
    3.0041    1.3612    0.0000 H   0  0  0  0  0  0  0  0  0  0  0  0
    3.2209   -2.9967    0.0000 H   0  0  0  0  0  0  0  0  0  0  0  0
    3.4256    2.1918    0.0000 H   0  0  0  0  0  0  0  0  0  0  0  0
    1.5723    2.1844    0.0000 H   0  0  0  0  0  0  0  0  0  0  0  0
    2.4968    2.7231    0.0000 H   0  0  0  0  0  0  0  0  0  0  0  0
   -3.9329   -0.6221    0.0000 H   0  0  0  0  0  0  0  0  0  0  0  0
   -2.3255    2.1668    0.0000 H   0  0  0  0  0  0  0  0  0  0  0  0
   -3.9329    3.0917    0.0000 H   0  0  0  0  0  0  0  0  0  0  0  0
   -5.5400    0.3030    0.0000 H   0  0  0  0  0  0  0  0  0  0  0  0
   -5.5399    2.1667    0.0000 H   0  0  0  0  0  0  0  0  0  0  0  0
  2  1  1  0  0  0  0
  2 30  1  0  0  0  0
  3  5  1  0  0  0  0
  4  1  1  0  0  0  0
  4  9  1  0  0  0  0
  4 31  1  1  0  0  0
  5  4  1  0  0  0  0
  5 32  1  0  0  0  0
  6  7  1  0  0  0  0
  7  2  1  0  0  0  0
  7 24  1  0  0  0  0
  7 33  1  6  0  0  0
  8  1  2  0  0  0  0
  9 34  1  0  0  0  0
  9 35  1  0  0  0  0
 10  3  2  0  0  0  0
 11  3  1  0  0  0  0
 12  6  2  0  0  0  0
 13  9  1  0  0  0  0
 14 19  2  0  0  0  0
 14 18  1  0  0  0  0
 15 11  1  0  0  0  0
 15 36  1  0  0  0  0
 15 37  1  0  0  0  0
 16 13  1  0  0  0  0
 16 38  1  0  0  0  0
 17 13  2  0  0  0  0
 17 39  1  0  0  0  0
 18 16  2  0  0  0  0
 18 40  1  0  0  0  0
 19 17  1  0  0  0  0
 19 41  1  0  0  0  0
 20 21  1  0  0  0  0
 21  6  1  0  0  0  0
 21 42  1  0  0  0  0
 21 43  1  0  0  0  0
 22 15  1  0  0  0  0
 23 14  1  0  0  0  0
 23 44  1  0  0  0  0
 24 45  1  0  0  0  0
 24 46  1  0  0  0  0
 24 47  1  0  0  0  0
 25 22  2  0  0  0  0
 25 48  1  0  0  0  0
 26 22  1  0  0  0  0
 26 49  1  0  0  0  0
 27 26  2  0  0  0  0
 27 50  1  0  0  0  0
 28 25  1  0  0  0  0
 28 51  1  0  0  0  0
 29 27  1  0  0  0  0
 29 28  2  0  0  0  0
 29 52  1  0  0  0  0
M  END
>  <DRUGBANK_ID>
DB08775

>  <COMMON_NAME>
Benzoyl-tyrosine-alanine-fluoro-methyl ketone

$$$$
