
 OpenBabel10282417072D

 52 54  0  0  1  0  0  0  0  0999 V2000
    3.3810    0.3425    0.0000 O   0  0  0  0  0  0  0  0  0  0  0  0
    5.2224   -0.3721    0.0000 O   0  0  0  0  0  0  0  0  0  0  0  0
    5.2224    1.2780    0.0000 O   0  0  0  0  0  0  0  0  0  0  0  0
    3.7935    1.2780    0.0000 O   0  0  0  0  0  0  0  0  0  0  0  0
    6.6515    2.1030    0.0000 O   0  0  0  0  0  0  0  0  0  0  0  0
    8.0804   -0.3721    0.0000 O   0  0  0  0  0  0  0  0  0  0  0  0
    5.9370    0.8654    0.0000 N   0  0  0  0  0  0  0  0  0  0  0  0
    6.6515   -0.3721    0.0000 N   0  0  0  0  0  0  0  0  0  0  0  0
    3.7935   -0.3721    0.0000 C   0  0  0  0  0  0  0  0  0  0  0  0
    4.5080    0.0404    0.0000 C   0  0  1  0  0  0  0  0  0  0  0  0
    3.0791   -0.7846    0.0000 C   0  0  0  0  0  0  0  0  0  0  0  0
    4.2060   -1.0865    0.0000 C   0  0  0  0  0  0  0  0  0  0  0  0
    2.3645   -0.3721    0.0000 C   0  0  0  0  0  0  0  0  0  0  0  0
    3.7935   -1.8010    0.0000 C   0  0  0  0  0  0  0  0  0  0  0  0
    3.0791   -1.6096    0.0000 C   0  0  0  0  0  0  0  0  0  0  0  0
    5.0310   -1.0865    0.0000 C   0  0  0  0  0  0  0  0  0  0  0  0
    4.5080    0.8654    0.0000 C   0  0  0  0  0  0  0  0  0  0  0  0
    2.5560    0.3425    0.0000 C   0  0  0  0  0  0  0  0  0  0  0  0
    1.6500   -0.7846    0.0000 C   0  0  0  0  0  0  0  0  0  0  0  0
    4.2060   -2.5155    0.0000 C   0  0  0  0  0  0  0  0  0  0  0  0
    2.3645   -2.0221    0.0000 C   0  0  0  0  0  0  0  0  0  0  0  0
    5.4436   -1.8010    0.0000 C   0  0  0  0  0  0  0  0  0  0  0  0
    1.6500   -1.6096    0.0000 C   0  0  0  0  0  0  0  0  0  0  0  0
    5.0310   -2.5155    0.0000 C   0  0  0  0  0  0  0  0  0  0  0  0
    5.9370    0.0404    0.0000 C   0  0  0  0  0  0  0  0  0  0  0  0
    6.6515    1.2780    0.0000 C   0  0  0  0  0  0  0  0  0  0  0  0
    7.3659    0.0404    0.0000 C   0  0  0  0  0  0  0  0  0  0  0  0
    7.3659    0.8654    0.0000 C   0  0  0  0  0  0  0  0  0  0  0  0
    7.3659    2.5155    0.0000 C   0  0  0  0  0  0  0  0  0  0  0  0
    8.7949    0.0404    0.0000 C   0  0  0  0  0  0  0  0  0  0  0  0
    6.0339    0.8096    0.0000 H   0  0  0  0  0  0  0  0  0  0  0  0
    4.5080   -1.0296    0.0000 H   0  0  0  0  0  0  0  0  0  0  0  0
    2.3645    0.6599    0.0000 H   0  0  0  0  0  0  0  0  0  0  0  0
    2.7615   -1.8010    0.0000 H   0  0  0  0  0  0  0  0  0  0  0  0
    3.9728   -2.1256    0.0000 H   0  0  0  0  0  0  0  0  0  0  0  0
    5.5470   -0.1927    0.0000 H   0  0  0  0  0  0  0  0  0  0  0  0
    2.0210    1.2691    0.0000 H   0  0  0  0  0  0  0  0  0  0  0  0
    2.0210   -0.5841    0.0000 H   0  0  0  0  0  0  0  0  0  0  0  0
    1.4860    0.3425    0.0000 H   0  0  0  0  0  0  0  0  0  0  0  0
    0.7563   -0.2686    0.0000 H   0  0  0  0  0  0  0  0  0  0  0  0
    3.6900   -3.4092    0.0000 H   0  0  0  0  0  0  0  0  0  0  0  0
    2.3645   -3.0541    0.0000 H   0  0  0  0  0  0  0  0  0  0  0  0
    6.4756   -1.8010    0.0000 H   0  0  0  0  0  0  0  0  0  0  0  0
    0.7563   -2.1256    0.0000 H   0  0  0  0  0  0  0  0  0  0  0  0
    5.5470   -3.4093    0.0000 H   0  0  0  0  0  0  0  0  0  0  0  0
    8.2597    1.3813    0.0000 H   0  0  0  0  0  0  0  0  0  0  0  0
    8.2926    1.9805    0.0000 H   0  0  0  0  0  0  0  0  0  0  0  0
    7.3659    3.5855    0.0000 H   0  0  0  0  0  0  0  0  0  0  0  0
    8.2925    3.0505    0.0000 H   0  0  0  0  0  0  0  0  0  0  0  0
    9.7215   -0.4946    0.0000 H   0  0  0  0  0  0  0  0  0  0  0  0
    8.7949    1.1104    0.0000 H   0  0  0  0  0  0  0  0  0  0  0  0
    9.7216    0.5754    0.0000 H   0  0  0  0  0  0  0  0  0  0  0  0
  1  9  1  0  0  0  0
  1 18  1  0  0  0  0
  2 25  1  0  0  0  0
  3 17  1  0  0  0  0
  3 31  1  0  0  0  0
  4 17  2  0  0  0  0
  5 26  1  0  0  0  0
  5 29  1  0  0  0  0
  6 27  1  0  0  0  0
  6 30  1  0  0  0  0
  7 25  1  0  0  0  0
  7 26  2  0  0  0  0
  8 25  2  0  0  0  0
  8 27  1  0  0  0  0
  9 10  1  0  0  0  0
  9 11  1  0  0  0  0
  9 12  1  0  0  0  0
 10  2  1  0  0  0  0
 10 17  1  0  0  0  0
 10 32  1  6  0  0  0
 11 13  2  0  0  0  0
 11 15  1  0  0  0  0
 12 14  2  0  0  0  0
 12 16  1  0  0  0  0
 13 19  1  0  0  0  0
 13 33  1  0  0  0  0
 14 20  1  0  0  0  0
 14 34  1  0  0  0  0
 15 21  2  0  0  0  0
 15 35  1  0  0  0  0
 16 22  2  0  0  0  0
 16 36  1  0  0  0  0
 18 37  1  0  0  0  0
 18 38  1  0  0  0  0
 18 39  1  0  0  0  0
 19 23  2  0  0  0  0
 19 40  1  0  0  0  0
 20 24  2  0  0  0  0
 20 41  1  0  0  0  0
 21 23  1  0  0  0  0
 21 42  1  0  0  0  0
 22 24  1  0  0  0  0
 22 43  1  0  0  0  0
 23 44  1  0  0  0  0
 24 45  1  0  0  0  0
 26 28  1  0  0  0  0
 27 28  2  0  0  0  0
 28 46  1  0  0  0  0
 29 47  1  0  0  0  0
 29 48  1  0  0  0  0
 29 49  1  0  0  0  0
 30 50  1  0  0  0  0
 30 51  1  0  0  0  0
 30 52  1  0  0  0  0
M  END
>  <DRUGBANK_ID>
DB04883

>  <COMMON_NAME>
Darusentan

>  <CAS_NUMBER>
171714-84-4

>  <UNII>
33JD57L6RW

>  <SYNONYMS>
Darusentan

$$$$
