
 OpenBabel10282417072D

 73 72  0  0  0  0  0  0  0  0999 V2000
   -2.2243    5.8855    0.0000 C   0  0  0  0  0  0  0  0  0  0  0  0
   -0.7954    5.8855    0.0000 C   0  0  0  0  0  0  0  0  0  0  0  0
    9.9217   -0.3020    0.0000 C   0  0  0  0  0  0  0  0  0  0  0  0
    9.2072   -1.5395    0.0000 C   0  0  0  0  0  0  0  0  0  0  0  0
    0.6336    3.4105    0.0000 C   0  0  0  0  0  0  0  0  0  0  0  0
    2.0625    0.9355    0.0000 C   0  0  0  0  0  0  0  0  0  0  0  0
    6.3493   -1.5395    0.0000 C   0  0  0  0  0  0  0  0  0  0  0  0
   -0.7954    4.2355    0.0000 C   0  0  0  0  0  0  0  0  0  0  0  0
    7.7783   -0.7145    0.0000 C   0  0  0  0  0  0  0  0  0  0  0  0
    0.6336    1.7605    0.0000 C   0  0  0  0  0  0  0  0  0  0  0  0
    2.0625   -0.7145    0.0000 C   0  0  0  0  0  0  0  0  0  0  0  0
   -1.5099    4.6480    0.0000 C   0  0  0  0  0  0  0  0  0  0  0  0
    8.4927   -0.3020    0.0000 C   0  0  0  0  0  0  0  0  0  0  0  0
   -0.7954    3.4105    0.0000 C   0  0  0  0  0  0  0  0  0  0  0  0
    7.0638   -0.3020    0.0000 C   0  0  0  0  0  0  0  0  0  0  0  0
   -0.0809    2.1730    0.0000 C   0  0  0  0  0  0  0  0  0  0  0  0
    0.6336    0.9355    0.0000 C   0  0  0  0  0  0  0  0  0  0  0  0
    1.3480   -0.3020    0.0000 C   0  0  0  0  0  0  0  0  0  0  0  0
    2.7770   -0.3020    0.0000 C   0  0  0  0  0  0  0  0  0  0  0  0
    5.6349   -0.3020    0.0000 C   0  0  0  0  0  0  0  0  0  0  0  0
    4.9204   -0.7145    0.0000 C   0  0  0  0  0  0  0  0  0  0  0  0
   -1.5099    5.4730    0.0000 C   0  0  0  0  0  0  0  0  0  0  0  0
    9.2072   -0.7145    0.0000 C   0  0  0  0  0  0  0  0  0  0  0  0
   -0.0809    2.9980    0.0000 C   0  0  0  0  0  0  0  0  0  0  0  0
    1.3480    0.5230    0.0000 C   0  0  0  0  0  0  0  0  0  0  0  0
    6.3493   -0.7145    0.0000 C   0  0  0  0  0  0  0  0  0  0  0  0
    3.4914   -0.7145    0.0000 C   0  0  0  0  0  0  0  0  0  0  0  0
    3.4914   -1.5395    0.0000 O   0  0  0  0  0  0  0  0  0  0  0  0
    4.2059   -0.3020    0.0000 O   0  0  0  0  0  0  0  0  0  0  0  0
   -0.7954    1.7605    0.0000 H   0  0  0  0  0  0  0  0  0  0  0  0
    0.6336   -0.7145    0.0000 H   0  0  0  0  0  0  0  0  0  0  0  0
    5.6349    0.5230    0.0000 H   0  0  0  0  0  0  0  0  0  0  0  0
   -2.2243    6.9555    0.0000 H   0  0  0  0  0  0  0  0  0  0  0  0
   -3.1510    5.3505    0.0000 H   0  0  0  0  0  0  0  0  0  0  0  0
   -3.1509    6.4205    0.0000 H   0  0  0  0  0  0  0  0  0  0  0  0
    0.1312    5.3505    0.0000 H   0  0  0  0  0  0  0  0  0  0  0  0
   -0.7954    6.9555    0.0000 H   0  0  0  0  0  0  0  0  0  0  0  0
    0.1313    6.4205    0.0000 H   0  0  0  0  0  0  0  0  0  0  0  0
   10.8483   -0.8370    0.0000 H   0  0  0  0  0  0  0  0  0  0  0  0
    9.9217    0.7680    0.0000 H   0  0  0  0  0  0  0  0  0  0  0  0
   10.8484    0.2330    0.0000 H   0  0  0  0  0  0  0  0  0  0  0  0
    8.2806   -2.0745    0.0000 H   0  0  0  0  0  0  0  0  0  0  0  0
   10.1338   -2.0745    0.0000 H   0  0  0  0  0  0  0  0  0  0  0  0
    9.2072   -2.6095    0.0000 H   0  0  0  0  0  0  0  0  0  0  0  0
    1.5602    2.8755    0.0000 H   0  0  0  0  0  0  0  0  0  0  0  0
    0.6336    4.4805    0.0000 H   0  0  0  0  0  0  0  0  0  0  0  0
    1.5603    3.9455    0.0000 H   0  0  0  0  0  0  0  0  0  0  0  0
    2.9891    0.4005    0.0000 H   0  0  0  0  0  0  0  0  0  0  0  0
    2.0625    2.0055    0.0000 H   0  0  0  0  0  0  0  0  0  0  0  0
    2.9892    1.4705    0.0000 H   0  0  0  0  0  0  0  0  0  0  0  0
    5.4227   -2.0745    0.0000 H   0  0  0  0  0  0  0  0  0  0  0  0
    7.2759   -2.0745    0.0000 H   0  0  0  0  0  0  0  0  0  0  0  0
    6.3493   -2.6095    0.0000 H   0  0  0  0  0  0  0  0  0  0  0  0
    0.1312    4.7705    0.0000 H   0  0  0  0  0  0  0  0  0  0  0  0
    0.1312    3.7005    0.0000 H   0  0  0  0  0  0  0  0  0  0  0  0
    7.7783   -1.7845    0.0000 H   0  0  0  0  0  0  0  0  0  0  0  0
    6.8517   -1.2495    0.0000 H   0  0  0  0  0  0  0  0  0  0  0  0
    1.5602    2.2955    0.0000 H   0  0  0  0  0  0  0  0  0  0  0  0
    1.5602    1.2255    0.0000 H   0  0  0  0  0  0  0  0  0  0  0  0
    2.0625   -1.7845    0.0000 H   0  0  0  0  0  0  0  0  0  0  0  0
    2.9891   -1.2495    0.0000 H   0  0  0  0  0  0  0  0  0  0  0  0
   -2.4036    4.1320    0.0000 H   0  0  0  0  0  0  0  0  0  0  0  0
    8.4927    0.7300    0.0000 H   0  0  0  0  0  0  0  0  0  0  0  0
   -1.7220    2.8755    0.0000 H   0  0  0  0  0  0  0  0  0  0  0  0
   -0.7954    2.3405    0.0000 H   0  0  0  0  0  0  0  0  0  0  0  0
    7.0638    0.7680    0.0000 H   0  0  0  0  0  0  0  0  0  0  0  0
    6.1372    0.2330    0.0000 H   0  0  0  0  0  0  0  0  0  0  0  0
   -0.2931    0.4005    0.0000 H   0  0  0  0  0  0  0  0  0  0  0  0
    0.6336   -0.1345    0.0000 H   0  0  0  0  0  0  0  0  0  0  0  0
    2.7770    0.7680    0.0000 H   0  0  0  0  0  0  0  0  0  0  0  0
    3.7037    0.2330    0.0000 H   0  0  0  0  0  0  0  0  0  0  0  0
    4.9204   -1.7845    0.0000 H   0  0  0  0  0  0  0  0  0  0  0  0
    3.9938   -1.2495    0.0000 H   0  0  0  0  0  0  0  0  0  0  0  0
  1 33  1  0  0  0  0
  1 34  1  0  0  0  0
  1 35  1  0  0  0  0
  2 36  1  0  0  0  0
  2 37  1  0  0  0  0
  2 38  1  0  0  0  0
  3 39  1  0  0  0  0
  3 40  1  0  0  0  0
  3 41  1  0  0  0  0
  4 42  1  0  0  0  0
  4 43  1  0  0  0  0
  4 44  1  0  0  0  0
  5 45  1  0  0  0  0
  5 46  1  0  0  0  0
  5 47  1  0  0  0  0
  6 48  1  0  0  0  0
  6 49  1  0  0  0  0
  6 50  1  0  0  0  0
  7 51  1  0  0  0  0
  7 52  1  0  0  0  0
  7 53  1  0  0  0  0
  8 54  1  0  0  0  0
  8 55  1  0  0  0  0
  9 56  1  0  0  0  0
  9 57  1  0  0  0  0
 10 58  1  0  0  0  0
 10 59  1  0  0  0  0
 11 60  1  0  0  0  0
 11 61  1  0  0  0  0
 12  8  1  0  0  0  0
 12 62  1  0  0  0  0
 13  9  1  0  0  0  0
 13 63  1  0  0  0  0
 14  8  1  0  0  0  0
 14 64  1  0  0  0  0
 14 65  1  0  0  0  0
 15  9  1  0  0  0  0
 15 66  1  0  0  0  0
 15 67  1  0  0  0  0
 16 10  1  0  0  0  0
 17 10  1  0  0  0  0
 17 68  1  0  0  0  0
 17 69  1  0  0  0  0
 18 11  1  0  0  0  0
 19 11  1  0  0  0  0
 19 70  1  0  0  0  0
 19 71  1  0  0  0  0
 21 20  1  0  0  0  0
 21 72  1  0  0  0  0
 21 73  1  0  0  0  0
 22  1  1  0  0  0  0
 22  2  1  0  0  0  0
 22 12  2  0  0  0  0
 23  3  1  0  0  0  0
 23  4  1  0  0  0  0
 23 13  2  0  0  0  0
 24  5  1  0  0  0  0
 24 14  1  0  0  0  0
 24 16  2  0  0  0  0
 25  6  1  0  0  0  0
 25 17  1  0  0  0  0
 25 18  2  0  0  0  0
 26  7  1  0  0  0  0
 26 15  1  0  0  0  0
 26 20  2  0  0  0  0
 27 19  1  0  0  0  0
 28 27  2  0  0  0  0
 29 21  1  0  0  0  0
 29 27  1  0  0  0  0
 30 16  1  0  0  0  0
 31 18  1  0  0  0  0
 32 20  1  0  0  0  0
M  END
>  <DRUGBANK_ID>
DB12079

>  <COMMON_NAME>
Gefarnate

>  <CAS_NUMBER>
51-77-4

>  <UNII>
1ISE2Y6ULA

>  <SYNONYMS>
Gefarnate

$$$$
