1053
 OpenBabel10282417072D

 41 43  0  0  1  0  0  0  0  0999 V2000
    7.6201    1.0703    0.0000 S   0  0  0  0  0  0  0  0  0  0  0  0
    5.4215   -0.5975    0.0000 O   0  0  0  0  0  0  0  0  0  0  0  0
    7.3230   -1.6623    0.0000 O   0  0  0  0  0  0  0  0  0  0  0  0
    8.6819   -1.2207    0.0000 O   0  0  0  0  0  0  0  0  0  0  0  0
    4.4089    0.3950    0.0000 O   0  0  0  0  0  0  0  0  0  0  0  0
    6.8354   -0.0096    0.0000 N   0  0  0  0  0  0  0  0  0  0  0  0
    5.4215    1.4034    0.0000 N   0  0  0  0  0  0  0  0  0  0  0  0
    6.8354    0.8154    0.0000 C   0  0  1  0  0  0  0  0  0  0  0  0
    8.1049    0.4029    0.0000 C   0  0  0  0  0  0  0  0  0  0  0  0
    7.6201   -0.2646    0.0000 C   0  0  2  0  0  0  0  0  0  0  0  0
    6.0036    0.8188    0.0000 C   0  0  1  0  0  0  0  0  0  0  0  0
    6.0036   -0.0130    0.0000 C   0  0  0  0  0  0  0  0  0  0  0  0
    8.7724   -0.0820    0.0000 C   0  0  0  0  0  0  0  0  0  0  0  0
    8.7724    0.8878    0.0000 C   0  0  0  0  0  0  0  0  0  0  0  0
    7.8750   -1.0491    0.0000 C   0  0  0  0  0  0  0  0  0  0  0  0
    4.6241    1.1915    0.0000 C   0  0  0  0  0  0  0  0  0  0  0  0
    4.0420    1.7760    0.0000 C   0  0  0  0  0  0  0  0  0  0  0  0
    3.2446    1.5642    0.0000 C   0  0  0  0  0  0  0  0  0  0  0  0
    3.0295    0.7677    0.0000 C   0  0  0  0  0  0  0  0  0  0  0  0
    2.6625    2.1487    0.0000 C   0  0  0  0  0  0  0  0  0  0  0  0
    2.2322    0.5558    0.0000 C   0  0  0  0  0  0  0  0  0  0  0  0
    1.8651    1.9368    0.0000 C   0  0  0  0  0  0  0  0  0  0  0  0
    1.6500    1.1404    0.0000 C   0  0  0  0  0  0  0  0  0  0  0  0
    6.7335    1.4675    0.0000 H   0  0  0  0  0  0  0  0  0  0  0  0
    6.4065   -1.4676    0.0000 H   0  0  0  0  0  0  0  0  0  0  0  0
    5.6783    2.3538    0.0000 H   0  0  0  0  0  0  0  0  0  0  0  0
    6.8635   -1.0212    0.0000 H   0  0  0  0  0  0  0  0  0  0  0  0
    6.4161    1.8061    0.0000 H   0  0  0  0  0  0  0  0  0  0  0  0
    8.6606   -1.1461    0.0000 H   0  0  0  0  0  0  0  0  0  0  0  0
    9.7499    0.3533    0.0000 H   0  0  0  0  0  0  0  0  0  0  0  0
    9.6381   -0.7109    0.0000 H   0  0  0  0  0  0  0  0  0  0  0  0
    9.7499    0.4525    0.0000 H   0  0  0  0  0  0  0  0  0  0  0  0
    8.6606    1.9519    0.0000 H   0  0  0  0  0  0  0  0  0  0  0  0
    9.6381    1.5167    0.0000 H   0  0  0  0  0  0  0  0  0  0  0  0
    4.3211    2.8090    0.0000 H   0  0  0  0  0  0  0  0  0  0  0  0
    3.2870    2.5342    0.0000 H   0  0  0  0  0  0  0  0  0  0  0  0
    3.7578    0.0365    0.0000 H   0  0  0  0  0  0  0  0  0  0  0  0
    2.9317    3.1450    0.0000 H   0  0  0  0  0  0  0  0  0  0  0  0
    1.9631   -0.4405    0.0000 H   0  0  0  0  0  0  0  0  0  0  0  0
    1.1368    2.6680    0.0000 H   0  0  0  0  0  0  0  0  0  0  0  0
    0.6526    0.8753    0.0000 H   0  0  0  0  0  0  0  0  0  0  0  0
  1  8  1  0  0  0  0
  1  9  1  0  0  0  0
  2 12  2  0  0  0  0
  3 15  1  0  0  0  0
  3 25  1  0  0  0  0
  4 15  2  0  0  0  0
  5 16  2  0  0  0  0
  6  8  1  0  0  0  0
  6 10  1  0  0  0  0
  6 12  1  0  0  0  0
  7 16  1  0  0  0  0
  7 26  1  0  0  0  0
  8 11  1  0  0  0  0
  8 24  1  6  0  0  0
  9 10  1  0  0  0  0
  9 13  1  0  0  0  0
  9 14  1  0  0  0  0
 10 15  1  0  0  0  0
 10 27  1  1  0  0  0
 11  7  1  0  0  0  0
 11 12  1  0  0  0  0
 11 28  1  6  0  0  0
 13 29  1  0  0  0  0
 13 30  1  0  0  0  0
 13 31  1  0  0  0  0
 14 32  1  0  0  0  0
 14 33  1  0  0  0  0
 14 34  1  0  0  0  0
 16 17  1  0  0  0  0
 17 18  1  0  0  0  0
 17 35  1  0  0  0  0
 17 36  1  0  0  0  0
 18 19  2  0  0  0  0
 18 20  1  0  0  0  0
 19 21  1  0  0  0  0
 19 37  1  0  0  0  0
 20 22  2  0  0  0  0
 20 38  1  0  0  0  0
 21 23  2  0  0  0  0
 21 39  1  0  0  0  0
 22 23  1  0  0  0  0
 22 40  1  0  0  0  0
 23 41  1  0  0  0  0
M  END
>  <DRUGBANK_ID>
DB01053

>  <SECONDARY_ACCESSION_NUMBERS>
APRD00646; DB11612

>  <COMMON_NAME>
Benzylpenicillin

>  <CAS_NUMBER>
61-33-6

>  <UNII>
Q42T66VG0C

>  <SYNONYMS>
(2S,5R,6R)-3,3-dimethyl-7-oxo-6-(phenylacetamido)-4-thia-1-azabicyclo[3.2.0]heptane-2-carboxylic acid; 6-(2-phenylacetamido)penicillanic acid; Bencilpenicilina; Bensylpenicillin; Benzyl benicillin; Benzylpenicillin; Benzylp√©nicilline; Benzylpenicillinic acid; Benzylpenicillinum; Free penicillin II; PCG; Penicillin G; PG

$$$$
