
 OpenBabel10282417072D

 38 41  0  0  0  0  0  0  0  0999 V2000
    0.7145    1.2376    0.0000 C   0  0  0  0  0  0  0  0  0  0  0  0
    0.7145    0.4125    0.0000 C   0  0  0  0  0  0  0  0  0  0  0  0
    0.0000    1.6500    0.0000 C   0  0  1  0  0  0  0  0  0  0  0  0
    0.0000    0.0000    0.0000 C   0  0  2  0  0  0  0  0  0  0  0  0
   -0.7144    1.2376    0.0000 C   0  0  0  0  0  0  0  0  0  0  0  0
   -0.7144    0.4125    0.0000 C   0  0  0  0  0  0  0  0  0  0  0  0
    1.4290    1.6499    0.0000 C   0  0  0  0  0  0  0  0  0  0  0  0
    2.1434    1.2375    0.0000 C   0  0  0  0  0  0  0  0  0  0  0  0
    1.4289    0.0000    0.0000 C   0  0  0  0  0  0  0  0  0  0  0  0
    2.1434    0.4125    0.0000 C   0  0  0  0  0  0  0  0  0  0  0  0
   -1.4289    1.6499    0.0000 C   0  0  0  0  0  0  0  0  0  0  0  0
   -2.1434    1.2375    0.0000 C   0  0  0  0  0  0  0  0  0  0  0  0
   -1.4289    0.0000    0.0000 C   0  0  0  0  0  0  0  0  0  0  0  0
   -2.1434    0.4125    0.0000 C   0  0  0  0  0  0  0  0  0  0  0  0
    0.3081    1.1133    0.0000 O   0  0  0  0  0  0  0  0  0  0  0  0
    0.3081    0.5865    0.0000 O   0  0  0  0  0  0  0  0  0  0  0  0
    0.0000   -0.8249    0.0000 C   0  0  0  0  0  0  0  0  0  0  0  0
   -0.7145   -1.2375    0.0000 C   0  0  0  0  0  0  0  0  0  0  0  0
   -0.7145   -2.0625    0.0000 C   0  0  0  0  0  0  0  0  0  0  0  0
   -1.4291   -2.4750    0.0000 O   0  0  0  0  0  0  0  0  0  0  0  0
    0.0000    2.4750    0.0000 C   0  0  0  0  0  0  0  0  0  0  0  0
    0.0000   -2.4750    0.0000 O   0  0  0  0  0  0  0  0  0  0  0  0
    1.4291    2.6819    0.0000 H   0  0  0  0  0  0  0  0  0  0  0  0
    3.0371    1.7535    0.0000 H   0  0  0  0  0  0  0  0  0  0  0  0
    1.4289   -1.0320    0.0000 H   0  0  0  0  0  0  0  0  0  0  0  0
    3.0371   -0.1035    0.0000 H   0  0  0  0  0  0  0  0  0  0  0  0
   -1.4290    2.6819    0.0000 H   0  0  0  0  0  0  0  0  0  0  0  0
   -3.0371    1.7536    0.0000 H   0  0  0  0  0  0  0  0  0  0  0  0
   -1.4289   -1.0320    0.0000 H   0  0  0  0  0  0  0  0  0  0  0  0
   -3.0371   -0.1035    0.0000 H   0  0  0  0  0  0  0  0  0  0  0  0
    0.9267   -1.3599    0.0000 H   0  0  0  0  0  0  0  0  0  0  0  0
    0.0001   -1.8949    0.0000 H   0  0  0  0  0  0  0  0  0  0  0  0
   -1.6412   -0.7025    0.0000 H   0  0  0  0  0  0  0  0  0  0  0  0
   -1.6411   -1.7725    0.0000 H   0  0  0  0  0  0  0  0  0  0  0  0
   -2.2405   -2.0064    0.0000 H   0  0  0  0  0  0  0  0  0  0  0  0
    0.9266    3.0100    0.0000 H   0  0  0  0  0  0  0  0  0  0  0  0
   -0.9266    3.0100    0.0000 H   0  0  0  0  0  0  0  0  0  0  0  0
   -0.0000    3.5450    0.0000 H   0  0  0  0  0  0  0  0  0  0  0  0
  2  1  2  0  0  0  0
  3  1  1  0  0  0  0
  3 15  1  0  0  0  0
  3 21  1  1  0  0  0
  4  2  1  0  0  0  0
  4 16  1  0  0  0  0
  4 17  1  1  0  0  0
  5  3  1  0  0  0  0
  6  4  1  0  0  0  0
  6  5  2  0  0  0  0
  7  1  1  0  0  0  0
  7 23  1  0  0  0  0
  8  7  2  0  0  0  0
  8 24  1  0  0  0  0
  9  2  1  0  0  0  0
  9 25  1  0  0  0  0
 10  8  1  0  0  0  0
 10  9  2  0  0  0  0
 10 26  1  0  0  0  0
 11  5  1  0  0  0  0
 11 27  1  0  0  0  0
 12 11  2  0  0  0  0
 12 28  1  0  0  0  0
 13  6  1  0  0  0  0
 13 29  1  0  0  0  0
 14 12  1  0  0  0  0
 14 13  2  0  0  0  0
 14 30  1  0  0  0  0
 15 16  1  0  0  0  0
 17 18  1  0  0  0  0
 17 31  1  0  0  0  0
 17 32  1  0  0  0  0
 18 19  1  0  0  0  0
 18 33  1  0  0  0  0
 18 34  1  0  0  0  0
 19 20  1  0  0  0  0
 19 22  2  0  0  0  0
 20 35  1  0  0  0  0
 21 36  1  0  0  0  0
 21 37  1  0  0  0  0
 21 38  1  0  0  0  0
M  END
>  <DRUGBANK_ID>
DB08332

>  <COMMON_NAME>
9-(2-carboxyethyl)-10-methylanthracene endoperoxide

>  <SYNONYMS>
[2'-CARBOXYLETHYL]-10-METHYL-ANTHRACENE ENDOPEROXIDE

$$$$
