lycopene
 OpenBabel10282417072D

 96 95  0  0  0  0  0  0  0  0999 V2000
   18.5625   10.7171    0.0000 C   0  0  0  0  0  0  0  0  0  0  0  0
   18.1500   10.0026    0.0000 C   0  0  0  0  0  0  0  0  0  0  0  0
   18.5625    9.2881    0.0000 C   0  0  0  0  0  0  0  0  0  0  0  0
   17.3250   10.0026    0.0000 C   0  0  0  0  0  0  0  0  0  0  0  0
   16.9125    9.2881    0.0000 C   0  0  0  0  0  0  0  0  0  0  0  0
   16.0875    9.2881    0.0000 C   0  0  0  0  0  0  0  0  0  0  0  0
   15.6750    8.5737    0.0000 C   0  0  0  0  0  0  0  0  0  0  0  0
   16.0875    7.8592    0.0000 C   0  0  0  0  0  0  0  0  0  0  0  0
   14.8500    8.5737    0.0000 C   0  0  0  0  0  0  0  0  0  0  0  0
   14.4375    7.8592    0.0000 C   0  0  0  0  0  0  0  0  0  0  0  0
   13.6125    7.8592    0.0000 C   0  0  0  0  0  0  0  0  0  0  0  0
   13.2000    7.1447    0.0000 C   0  0  0  0  0  0  0  0  0  0  0  0
   13.6125    6.4302    0.0000 C   0  0  0  0  0  0  0  0  0  0  0  0
   12.3750    7.1447    0.0000 C   0  0  0  0  0  0  0  0  0  0  0  0
   11.9625    6.4302    0.0000 C   0  0  0  0  0  0  0  0  0  0  0  0
   11.1375    6.4302    0.0000 C   0  0  0  0  0  0  0  0  0  0  0  0
   10.7250    5.7158    0.0000 C   0  0  0  0  0  0  0  0  0  0  0  0
   11.1375    5.0013    0.0000 C   0  0  0  0  0  0  0  0  0  0  0  0
    9.9000    5.7158    0.0000 C   0  0  0  0  0  0  0  0  0  0  0  0
    9.4875    5.0013    0.0000 C   0  0  0  0  0  0  0  0  0  0  0  0
    8.6625    5.0013    0.0000 C   0  0  0  0  0  0  0  0  0  0  0  0
    8.2500    4.2868    0.0000 C   0  0  0  0  0  0  0  0  0  0  0  0
    7.4250    4.2868    0.0000 C   0  0  0  0  0  0  0  0  0  0  0  0
    7.0125    5.0013    0.0000 C   0  0  0  0  0  0  0  0  0  0  0  0
    7.0125    3.5724    0.0000 C   0  0  0  0  0  0  0  0  0  0  0  0
    6.1875    3.5724    0.0000 C   0  0  0  0  0  0  0  0  0  0  0  0
    5.7750    2.8579    0.0000 C   0  0  0  0  0  0  0  0  0  0  0  0
    4.9500    2.8579    0.0000 C   0  0  0  0  0  0  0  0  0  0  0  0
    4.5375    3.5724    0.0000 C   0  0  0  0  0  0  0  0  0  0  0  0
    4.5375    2.1434    0.0000 C   0  0  0  0  0  0  0  0  0  0  0  0
    3.7125    2.1434    0.0000 C   0  0  0  0  0  0  0  0  0  0  0  0
    3.3000    1.4289    0.0000 C   0  0  0  0  0  0  0  0  0  0  0  0
    2.4750    1.4289    0.0000 C   0  0  0  0  0  0  0  0  0  0  0  0
    2.0625    2.1434    0.0000 C   0  0  0  0  0  0  0  0  0  0  0  0
    2.0625    0.7145    0.0000 C   0  0  0  0  0  0  0  0  0  0  0  0
    1.2375    0.7145    0.0000 C   0  0  0  0  0  0  0  0  0  0  0  0
    0.8250    0.0000    0.0000 C   0  0  0  0  0  0  0  0  0  0  0  0
    0.0000    0.0000    0.0000 C   0  0  0  0  0  0  0  0  0  0  0  0
   -0.4125   -0.7145    0.0000 C   0  0  0  0  0  0  0  0  0  0  0  0
   -0.4125    0.7145    0.0000 C   0  0  0  0  0  0  0  0  0  0  0  0
   19.6325   10.7171    0.0000 H   0  0  0  0  0  0  0  0  0  0  0  0
   18.0275   11.6437    0.0000 H   0  0  0  0  0  0  0  0  0  0  0  0
   19.0975   11.6438    0.0000 H   0  0  0  0  0  0  0  0  0  0  0  0
   18.0275    8.3615    0.0000 H   0  0  0  0  0  0  0  0  0  0  0  0
   19.6325    9.2881    0.0000 H   0  0  0  0  0  0  0  0  0  0  0  0
   19.0975    8.3614    0.0000 H   0  0  0  0  0  0  0  0  0  0  0  0
   16.8090   10.8963    0.0000 H   0  0  0  0  0  0  0  0  0  0  0  0
   17.4475    8.3615    0.0000 H   0  0  0  0  0  0  0  0  0  0  0  0
   16.3775    8.3615    0.0000 H   0  0  0  0  0  0  0  0  0  0  0  0
   15.5525   10.2148    0.0000 H   0  0  0  0  0  0  0  0  0  0  0  0
   15.0175    9.2881    0.0000 H   0  0  0  0  0  0  0  0  0  0  0  0
   15.5525    6.9326    0.0000 H   0  0  0  0  0  0  0  0  0  0  0  0
   17.1575    7.8592    0.0000 H   0  0  0  0  0  0  0  0  0  0  0  0
   16.6225    6.9325    0.0000 H   0  0  0  0  0  0  0  0  0  0  0  0
   14.3340    9.4674    0.0000 H   0  0  0  0  0  0  0  0  0  0  0  0
   14.9535    6.9655    0.0000 H   0  0  0  0  0  0  0  0  0  0  0  0
   13.0965    8.7529    0.0000 H   0  0  0  0  0  0  0  0  0  0  0  0
   13.0775    5.5036    0.0000 H   0  0  0  0  0  0  0  0  0  0  0  0
   14.6825    6.4302    0.0000 H   0  0  0  0  0  0  0  0  0  0  0  0
   14.1475    5.5035    0.0000 H   0  0  0  0  0  0  0  0  0  0  0  0
   11.8590    8.0384    0.0000 H   0  0  0  0  0  0  0  0  0  0  0  0
   12.4785    5.5365    0.0000 H   0  0  0  0  0  0  0  0  0  0  0  0
   10.6215    7.3239    0.0000 H   0  0  0  0  0  0  0  0  0  0  0  0
   10.6025    4.0747    0.0000 H   0  0  0  0  0  0  0  0  0  0  0  0
   12.2075    5.0013    0.0000 H   0  0  0  0  0  0  0  0  0  0  0  0
   11.6725    4.0746    0.0000 H   0  0  0  0  0  0  0  0  0  0  0  0
    9.3840    6.6095    0.0000 H   0  0  0  0  0  0  0  0  0  0  0  0
   10.0035    4.1076    0.0000 H   0  0  0  0  0  0  0  0  0  0  0  0
    8.1465    5.8950    0.0000 H   0  0  0  0  0  0  0  0  0  0  0  0
    8.7660    3.3931    0.0000 H   0  0  0  0  0  0  0  0  0  0  0  0
    7.5475    5.9279    0.0000 H   0  0  0  0  0  0  0  0  0  0  0  0
    5.9425    5.0013    0.0000 H   0  0  0  0  0  0  0  0  0  0  0  0
    6.4775    5.9280    0.0000 H   0  0  0  0  0  0  0  0  0  0  0  0
    7.5285    2.6787    0.0000 H   0  0  0  0  0  0  0  0  0  0  0  0
    5.6715    4.4661    0.0000 H   0  0  0  0  0  0  0  0  0  0  0  0
    6.2910    1.9642    0.0000 H   0  0  0  0  0  0  0  0  0  0  0  0
    5.0725    4.4990    0.0000 H   0  0  0  0  0  0  0  0  0  0  0  0
    3.4675    3.5724    0.0000 H   0  0  0  0  0  0  0  0  0  0  0  0
    4.0025    4.4991    0.0000 H   0  0  0  0  0  0  0  0  0  0  0  0
    5.0535    1.2497    0.0000 H   0  0  0  0  0  0  0  0  0  0  0  0
    3.1965    3.0371    0.0000 H   0  0  0  0  0  0  0  0  0  0  0  0
    3.8160    0.5352    0.0000 H   0  0  0  0  0  0  0  0  0  0  0  0
    2.5975    3.0700    0.0000 H   0  0  0  0  0  0  0  0  0  0  0  0
    0.9925    2.1434    0.0000 H   0  0  0  0  0  0  0  0  0  0  0  0
    1.5275    3.0701    0.0000 H   0  0  0  0  0  0  0  0  0  0  0  0
    2.5975   -0.2122    0.0000 H   0  0  0  0  0  0  0  0  0  0  0  0
    1.5275   -0.2121    0.0000 H   0  0  0  0  0  0  0  0  0  0  0  0
    0.7025    1.6411    0.0000 H   0  0  0  0  0  0  0  0  0  0  0  0
    0.1675    0.7145    0.0000 H   0  0  0  0  0  0  0  0  0  0  0  0
    1.3410   -0.8937    0.0000 H   0  0  0  0  0  0  0  0  0  0  0  0
   -1.4825   -0.7145    0.0000 H   0  0  0  0  0  0  0  0  0  0  0  0
    0.1225   -1.6411    0.0000 H   0  0  0  0  0  0  0  0  0  0  0  0
   -0.9475   -1.6412    0.0000 H   0  0  0  0  0  0  0  0  0  0  0  0
    0.1225    1.6411    0.0000 H   0  0  0  0  0  0  0  0  0  0  0  0
   -1.4825    0.7145    0.0000 H   0  0  0  0  0  0  0  0  0  0  0  0
   -0.9475    1.6412    0.0000 H   0  0  0  0  0  0  0  0  0  0  0  0
  1  2  1  0  0  0  0
  1 41  1  0  0  0  0
  1 42  1  0  0  0  0
  1 43  1  0  0  0  0
  2  3  1  0  0  0  0
  2  4  2  0  0  0  0
  3 44  1  0  0  0  0
  3 45  1  0  0  0  0
  3 46  1  0  0  0  0
  4  5  1  0  0  0  0
  4 47  1  0  0  0  0
  5  6  1  0  0  0  0
  5 48  1  0  0  0  0
  5 49  1  0  0  0  0
  6  7  1  0  0  0  0
  6 50  1  0  0  0  0
  6 51  1  0  0  0  0
  7  8  1  0  0  0  0
  7  9  2  0  0  0  0
  8 52  1  0  0  0  0
  8 53  1  0  0  0  0
  8 54  1  0  0  0  0
  9 10  1  0  0  0  0
  9 55  1  0  0  0  0
 10 11  2  0  0  0  0
 10 56  1  0  0  0  0
 11 12  1  0  0  0  0
 11 57  1  0  0  0  0
 12 13  1  0  0  0  0
 12 14  2  0  0  0  0
 13 58  1  0  0  0  0
 13 59  1  0  0  0  0
 13 60  1  0  0  0  0
 14 15  1  0  0  0  0
 14 61  1  0  0  0  0
 15 16  2  0  0  0  0
 15 62  1  0  0  0  0
 16 17  1  0  0  0  0
 16 63  1  0  0  0  0
 17 18  1  0  0  0  0
 17 19  2  0  0  0  0
 18 64  1  0  0  0  0
 18 65  1  0  0  0  0
 18 66  1  0  0  0  0
 19 20  1  0  0  0  0
 19 67  1  0  0  0  0
 20 21  2  0  0  0  0
 20 68  1  0  0  0  0
 21 22  1  0  0  0  0
 21 69  1  0  0  0  0
 22 23  2  0  0  0  0
 22 70  1  0  0  0  0
 23 24  1  0  0  0  0
 23 25  1  0  0  0  0
 24 71  1  0  0  0  0
 24 72  1  0  0  0  0
 24 73  1  0  0  0  0
 25 26  2  0  0  0  0
 25 74  1  0  0  0  0
 26 27  1  0  0  0  0
 26 75  1  0  0  0  0
 27 28  2  0  0  0  0
 27 76  1  0  0  0  0
 28 29  1  0  0  0  0
 28 30  1  0  0  0  0
 29 77  1  0  0  0  0
 29 78  1  0  0  0  0
 29 79  1  0  0  0  0
 30 31  2  0  0  0  0
 30 80  1  0  0  0  0
 31 32  1  0  0  0  0
 31 81  1  0  0  0  0
 32 33  2  0  0  0  0
 32 82  1  0  0  0  0
 33 34  1  0  0  0  0
 33 35  1  0  0  0  0
 34 83  1  0  0  0  0
 34 84  1  0  0  0  0
 34 85  1  0  0  0  0
 35 36  1  0  0  0  0
 35 86  1  0  0  0  0
 35 87  1  0  0  0  0
 36 37  1  0  0  0  0
 36 88  1  0  0  0  0
 36 89  1  0  0  0  0
 37 38  2  0  0  0  0
 37 90  1  0  0  0  0
 38 39  1  0  0  0  0
 38 40  1  0  0  0  0
 39 91  1  0  0  0  0
 39 92  1  0  0  0  0
 39 93  1  0  0  0  0
 40 94  1  0  0  0  0
 40 95  1  0  0  0  0
 40 96  1  0  0  0  0
M  END
>  <DRUGBANK_ID>
DB11231

>  <COMMON_NAME>
Lycopene

>  <CAS_NUMBER>
502-65-8

>  <UNII>
SB0N2N0WV6

$$$$
