
 OpenBabel10282417072D

 40 42  0  0  0  0  0  0  0  0999 V2000
    5.7158    1.6500    0.0000 C   0  0  0  0  0  0  0  0  0  0  0  0
    6.4302    1.2375    0.0000 C   0  0  0  0  0  0  0  0  0  0  0  0
   15.0039    0.4125    0.0000 C   0  0  0  0  0  0  0  0  0  0  0  0
   15.0039    1.2375    0.0000 C   0  0  0  0  0  0  0  0  0  0  0  0
   14.2894    0.0000    0.0000 C   0  0  0  0  0  0  0  0  0  0  0  0
   14.2894    1.6500    0.0000 C   0  0  0  0  0  0  0  0  0  0  0  0
   13.5749    0.4125    0.0000 C   0  0  0  0  0  0  0  0  0  0  0  0
   10.0026    2.4750    0.0000 C   0  0  0  0  0  0  0  0  0  0  0  0
   10.7171    2.8875    0.0000 C   0  0  0  0  0  0  0  0  0  0  0  0
   10.7171    1.2375    0.0000 C   0  0  0  0  0  0  0  0  0  0  0  0
   12.8605    2.4750    0.0000 C   0  0  0  0  0  0  0  0  0  0  0  0
    8.5737    1.6500    0.0000 C   0  0  0  0  0  0  0  0  0  0  0  0
   13.5749    1.2375    0.0000 C   0  0  0  0  0  0  0  0  0  0  0  0
   10.0026    1.6500    0.0000 C   0  0  0  0  0  0  0  0  0  0  0  0
   11.4315    2.4750    0.0000 C   0  0  0  0  0  0  0  0  0  0  0  0
   12.1460    2.8875    0.0000 C   0  0  0  0  0  0  0  0  0  0  0  0
   12.8605    1.6500    0.0000 C   0  0  0  0  0  0  0  0  0  0  0  0
   11.4315    1.6500    0.0000 C   0  0  0  0  0  0  0  0  0  0  0  0
    7.8592    1.2375    0.0000 C   0  0  0  0  0  0  0  0  0  0  0  0
   12.1460    3.7125    0.0000 O   0  0  0  0  0  0  0  0  0  0  0  0
    7.8592    0.4125    0.0000 O   0  0  0  0  0  0  0  0  0  0  0  0
    7.1447    1.6500    0.0000 O   0  0  0  0  0  0  0  0  0  0  0  0
    9.2881    1.2375    0.0000 O   0  0  0  0  0  0  0  0  0  0  0  0
   12.1460    1.2375    0.0000 O   0  0  0  0  0  0  0  0  0  0  0  0
    5.7158    2.7200    0.0000 H   0  0  0  0  0  0  0  0  0  0  0  0
    4.7891    1.1150    0.0000 H   0  0  0  0  0  0  0  0  0  0  0  0
    4.7892    2.1850    0.0000 H   0  0  0  0  0  0  0  0  0  0  0  0
    6.4302    0.1675    0.0000 H   0  0  0  0  0  0  0  0  0  0  0  0
    7.3568    0.7025    0.0000 H   0  0  0  0  0  0  0  0  0  0  0  0
   15.8976   -0.1035    0.0000 H   0  0  0  0  0  0  0  0  0  0  0  0
   15.8976    1.7535    0.0000 H   0  0  0  0  0  0  0  0  0  0  0  0
   14.2894   -1.0320    0.0000 H   0  0  0  0  0  0  0  0  0  0  0  0
   14.2894    2.6820    0.0000 H   0  0  0  0  0  0  0  0  0  0  0  0
   12.6812   -0.1035    0.0000 H   0  0  0  0  0  0  0  0  0  0  0  0
    9.1089    2.9910    0.0000 H   0  0  0  0  0  0  0  0  0  0  0  0
   10.7171    3.9195    0.0000 H   0  0  0  0  0  0  0  0  0  0  0  0
   10.7171    0.2055    0.0000 H   0  0  0  0  0  0  0  0  0  0  0  0
   13.7542    2.9910    0.0000 H   0  0  0  0  0  0  0  0  0  0  0  0
    8.5737    2.7200    0.0000 H   0  0  0  0  0  0  0  0  0  0  0  0
    9.5004    2.1850    0.0000 H   0  0  0  0  0  0  0  0  0  0  0  0
  1 25  1  0  0  0  0
  1 26  1  0  0  0  0
  1 27  1  0  0  0  0
  2  1  1  0  0  0  0
  2 28  1  0  0  0  0
  2 29  1  0  0  0  0
  3 30  1  0  0  0  0
  4  3  2  0  0  0  0
  4 31  1  0  0  0  0
  5  3  1  0  0  0  0
  5 32  1  0  0  0  0
  6  4  1  0  0  0  0
  6 33  1  0  0  0  0
  7  5  2  0  0  0  0
  7 34  1  0  0  0  0
  8 35  1  0  0  0  0
  9  8  2  0  0  0  0
  9 36  1  0  0  0  0
 10 37  1  0  0  0  0
 11 38  1  0  0  0  0
 12 39  1  0  0  0  0
 12 40  1  0  0  0  0
 13  6  2  0  0  0  0
 13  7  1  0  0  0  0
 14  8  1  0  0  0  0
 14 10  2  0  0  0  0
 15  9  1  0  0  0  0
 16 11  1  0  0  0  0
 16 15  1  0  0  0  0
 17 11  2  0  0  0  0
 17 13  1  0  0  0  0
 18 10  1  0  0  0  0
 18 15  2  0  0  0  0
 19 12  1  0  0  0  0
 20 16  2  0  0  0  0
 21 19  2  0  0  0  0
 22  2  1  0  0  0  0
 22 19  1  0  0  0  0
 23 12  1  0  0  0  0
 23 14  1  0  0  0  0
 24 17  1  0  0  0  0
 24 18  1  0  0  0  0
M  END
>  <DRUGBANK_ID>
DB13333

>  <COMMON_NAME>
Efloxate

>  <CAS_NUMBER>
119-41-5

>  <UNII>
CZU6V3902K

>  <SYNONYMS>
Efloxate

$$$$
