622
 OpenBabel10282417072D

 64 66  0  0  1  0  0  0  0  0999 V2000
    6.6515   -0.9818    0.0000 O   0  0  0  0  0  0  0  0  0  0  0  0
   10.9383   -0.9818    0.0000 O   0  0  0  0  0  0  0  0  0  0  0  0
    7.3659    0.2558    0.0000 O   0  0  0  0  0  0  0  0  0  0  0  0
   10.2239    0.2558    0.0000 O   0  0  0  0  0  0  0  0  0  0  0  0
   10.2239    2.7308    0.0000 O   0  5  0  0  0  0  0  0  0  0  0  0
   10.9383    1.4933    0.0000 O   0  0  0  0  0  0  0  0  0  0  0  0
    8.7949   -2.2193    0.0000 N   0  0  0  0  0  0  0  0  0  0  0  0
    4.5080   -0.5693    0.0000 N   0  0  0  0  0  0  0  0  0  0  0  0
   10.2239    1.9058    0.0000 N   0  3  0  0  0  0  0  0  0  0  0  0
    8.7949   -0.5693    0.0000 C   0  0  3  0  0  0  0  0  0  0  0  0
    8.0804   -0.9818    0.0000 C   0  0  0  0  0  0  0  0  0  0  0  0
    9.5094   -0.9818    0.0000 C   0  0  0  0  0  0  0  0  0  0  0  0
    8.7949    0.2558    0.0000 C   0  0  0  0  0  0  0  0  0  0  0  0
    8.0804   -1.8068    0.0000 C   0  0  0  0  0  0  0  0  0  0  0  0
    9.5094   -1.8068    0.0000 C   0  0  0  0  0  0  0  0  0  0  0  0
    7.3659   -0.5693    0.0000 C   0  0  0  0  0  0  0  0  0  0  0  0
    9.5094    0.6683    0.0000 C   0  0  0  0  0  0  0  0  0  0  0  0
    8.0804    0.6683    0.0000 C   0  0  0  0  0  0  0  0  0  0  0  0
    7.3659   -2.2193    0.0000 C   0  0  0  0  0  0  0  0  0  0  0  0
   10.2239   -0.5693    0.0000 C   0  0  0  0  0  0  0  0  0  0  0  0
   10.2239   -2.2193    0.0000 C   0  0  0  0  0  0  0  0  0  0  0  0
    5.2224   -0.9818    0.0000 C   0  0  0  0  0  0  0  0  0  0  0  0
    5.9370   -0.5693    0.0000 C   0  0  0  0  0  0  0  0  0  0  0  0
    9.5094    1.4933    0.0000 C   0  0  0  0  0  0  0  0  0  0  0  0
    8.0804    1.4933    0.0000 C   0  0  0  0  0  0  0  0  0  0  0  0
    3.7935   -0.9818    0.0000 C   0  0  0  0  0  0  0  0  0  0  0  0
    8.7949    1.9058    0.0000 C   0  0  0  0  0  0  0  0  0  0  0  0
    3.0791   -0.5693    0.0000 C   0  0  0  0  0  0  0  0  0  0  0  0
    4.5080    0.2558    0.0000 C   0  0  0  0  0  0  0  0  0  0  0  0
    2.3645   -0.9818    0.0000 C   0  0  0  0  0  0  0  0  0  0  0  0
    3.0791    0.2558    0.0000 C   0  0  0  0  0  0  0  0  0  0  0  0
   11.6529   -0.5693    0.0000 C   0  0  0  0  0  0  0  0  0  0  0  0
    1.6500   -0.5693    0.0000 C   0  0  0  0  0  0  0  0  0  0  0  0
    2.3645    0.6683    0.0000 C   0  0  0  0  0  0  0  0  0  0  0  0
    1.6500    0.2558    0.0000 C   0  0  0  0  0  0  0  0  0  0  0  0
    8.7949   -3.2038    0.0000 H   0  0  0  0  0  0  0  0  0  0  0  0
    8.7949   -1.6393    0.0000 H   0  0  0  0  0  0  0  0  0  0  0  0
   10.4031    0.1523    0.0000 H   0  0  0  0  0  0  0  0  0  0  0  0
    7.1867    0.1523    0.0000 H   0  0  0  0  0  0  0  0  0  0  0  0
    6.4393   -1.6843    0.0000 H   0  0  0  0  0  0  0  0  0  0  0  0
    7.3659   -3.2893    0.0000 H   0  0  0  0  0  0  0  0  0  0  0  0
    6.4392   -2.7543    0.0000 H   0  0  0  0  0  0  0  0  0  0  0  0
   10.2239   -3.2893    0.0000 H   0  0  0  0  0  0  0  0  0  0  0  0
   11.1505   -1.6843    0.0000 H   0  0  0  0  0  0  0  0  0  0  0  0
   11.1506   -2.7543    0.0000 H   0  0  0  0  0  0  0  0  0  0  0  0
    5.2223   -2.0518    0.0000 H   0  0  0  0  0  0  0  0  0  0  0  0
    6.1490   -1.5169    0.0000 H   0  0  0  0  0  0  0  0  0  0  0  0
    5.9370    0.5007    0.0000 H   0  0  0  0  0  0  0  0  0  0  0  0
    5.0104   -0.0342    0.0000 H   0  0  0  0  0  0  0  0  0  0  0  0
    7.1867    2.0093    0.0000 H   0  0  0  0  0  0  0  0  0  0  0  0
    3.7935   -2.0518    0.0000 H   0  0  0  0  0  0  0  0  0  0  0  0
    2.8668   -1.5168    0.0000 H   0  0  0  0  0  0  0  0  0  0  0  0
    8.7949    2.9378    0.0000 H   0  0  0  0  0  0  0  0  0  0  0  0
    5.4346    0.7908    0.0000 H   0  0  0  0  0  0  0  0  0  0  0  0
    3.5814    0.7908    0.0000 H   0  0  0  0  0  0  0  0  0  0  0  0
    4.5080    1.3258    0.0000 H   0  0  0  0  0  0  0  0  0  0  0  0
    2.3645   -2.0138    0.0000 H   0  0  0  0  0  0  0  0  0  0  0  0
    3.9728    0.7718    0.0000 H   0  0  0  0  0  0  0  0  0  0  0  0
   12.5795   -1.1044    0.0000 H   0  0  0  0  0  0  0  0  0  0  0  0
   11.6530    0.5007    0.0000 H   0  0  0  0  0  0  0  0  0  0  0  0
   12.5796   -0.0344    0.0000 H   0  0  0  0  0  0  0  0  0  0  0  0
    0.7563   -1.0853    0.0000 H   0  0  0  0  0  0  0  0  0  0  0  0
    2.3645    1.7003    0.0000 H   0  0  0  0  0  0  0  0  0  0  0  0
    0.7563    0.7718    0.0000 H   0  0  0  0  0  0  0  0  0  0  0  0
  1 16  1  0  0  0  0
  1 23  1  0  0  0  0
  2 20  1  0  0  0  0
  2 32  1  0  0  0  0
  3 16  2  0  0  0  0
  4 20  2  0  0  0  0
  5  9  1  0  0  0  0
  6  9  2  0  0  0  0
  7 14  1  0  0  0  0
  7 15  1  0  0  0  0
  7 36  1  0  0  0  0
  8 22  1  0  0  0  0
  8 26  1  0  0  0  0
  8 29  1  0  0  0  0
  9 24  1  0  0  0  0
 10 11  1  0  0  0  0
 10 12  1  0  0  0  0
 10 13  1  0  0  0  0
 10 37  1  0  0  0  0
 11 14  2  0  0  0  0
 11 16  1  0  0  0  0
 12 15  2  0  0  0  0
 12 20  1  0  0  0  0
 13 17  2  0  0  0  0
 13 18  1  0  0  0  0
 14 19  1  0  0  0  0
 15 21  1  0  0  0  0
 17 24  1  0  0  0  0
 17 38  1  0  0  0  0
 18 25  2  0  0  0  0
 18 39  1  0  0  0  0
 19 40  1  0  0  0  0
 19 41  1  0  0  0  0
 19 42  1  0  0  0  0
 21 43  1  0  0  0  0
 21 44  1  0  0  0  0
 21 45  1  0  0  0  0
 22 23  1  0  0  0  0
 22 46  1  0  0  0  0
 22 47  1  0  0  0  0
 23 48  1  0  0  0  0
 23 49  1  0  0  0  0
 24 27  2  0  0  0  0
 25 27  1  0  0  0  0
 25 50  1  0  0  0  0
 26 28  1  0  0  0  0
 26 51  1  0  0  0  0
 26 52  1  0  0  0  0
 27 53  1  0  0  0  0
 28 30  2  0  0  0  0
 28 31  1  0  0  0  0
 29 54  1  0  0  0  0
 29 55  1  0  0  0  0
 29 56  1  0  0  0  0
 30 33  1  0  0  0  0
 30 57  1  0  0  0  0
 31 34  2  0  0  0  0
 31 58  1  0  0  0  0
 32 59  1  0  0  0  0
 32 60  1  0  0  0  0
 32 61  1  0  0  0  0
 33 35  2  0  0  0  0
 33 62  1  0  0  0  0
 34 35  1  0  0  0  0
 34 63  1  0  0  0  0
 35 64  1  0  0  0  0
M  CHG  2   5  -1   9   1
M  END
>  <DRUGBANK_ID>
DB00622

>  <SECONDARY_ACCESSION_NUMBERS>
APRD00088

>  <COMMON_NAME>
Nicardipine

>  <CAS_NUMBER>
55985-32-5

>  <UNII>
CZ5312222S

>  <SYNONYMS>
Nicardipine; Nicardipino; Nicardipinum

$$$$
