RSA
 OpenBabel10282417072D

 26 27  0  0  0  0  0  0  0  0999 V2000
   -1.7057    2.5749    0.0000 C   0  0  0  0  0  0  0  0  0  0  0  0
   -1.4507    1.7903    0.0000 C   0  0  0  0  0  0  0  0  0  0  0  0
   -1.1958    1.0057    0.0000 C   0  0  0  0  0  0  0  0  0  0  0  0
   -0.3888    0.8341    0.0000 N   0  0  0  0  0  0  0  0  0  0  0  0
   -0.1339    0.0495    0.0000 C   0  0  1  0  0  0  0  0  0  0  0  0
   -0.6188   -0.6179    0.0000 C   0  0  0  0  0  0  0  0  0  0  0  0
   -0.1339   -1.2854    0.0000 C   0  0  0  0  0  0  0  0  0  0  0  0
    0.6507   -1.0304    0.0000 C   0  0  0  0  0  0  0  0  0  0  0  0
    0.6507   -0.2054    0.0000 C   0  0  0  0  0  0  0  0  0  0  0  0
    1.3652    0.2071    0.0000 C   0  0  0  0  0  0  0  0  0  0  0  0
    1.3652   -1.4429    0.0000 C   0  0  0  0  0  0  0  0  0  0  0  0
    2.0797   -1.0304    0.0000 C   0  0  0  0  0  0  0  0  0  0  0  0
    2.0797   -0.2054    0.0000 C   0  0  0  0  0  0  0  0  0  0  0  0
   -0.7106    0.1408    0.0000 H   0  0  0  0  0  0  0  0  0  0  0  0
   -2.0129    3.5202    0.0000 H   0  0  0  0  0  0  0  0  0  0  0  0
   -1.9118    0.2106    0.0000 H   0  0  0  0  0  0  0  0  0  0  0  0
   -0.8652   -0.0120    0.0000 H   0  0  0  0  0  0  0  0  0  0  0  0
    0.2938    1.5921    0.0000 H   0  0  0  0  0  0  0  0  0  0  0  0
   -1.6888   -0.6179    0.0000 H   0  0  0  0  0  0  0  0  0  0  0  0
   -1.1046   -1.5713    0.0000 H   0  0  0  0  0  0  0  0  0  0  0  0
   -0.4645   -2.3030    0.0000 H   0  0  0  0  0  0  0  0  0  0  0  0
    0.6227   -2.0420    0.0000 H   0  0  0  0  0  0  0  0  0  0  0  0
    1.3652    1.2391    0.0000 H   0  0  0  0  0  0  0  0  0  0  0  0
    1.3652   -2.4749    0.0000 H   0  0  0  0  0  0  0  0  0  0  0  0
    2.9734   -1.5464    0.0000 H   0  0  0  0  0  0  0  0  0  0  0  0
    2.9734    0.3106    0.0000 H   0  0  0  0  0  0  0  0  0  0  0  0
  1  2  3  0  0  0  0
  1 15  1  0  0  0  0
  2  3  1  0  0  0  0
  3  4  1  0  0  0  0
  3 16  1  0  0  0  0
  3 17  1  0  0  0  0
  4 18  1  0  0  0  0
  5  4  1  0  0  0  0
  5  6  1  0  0  0  0
  5  9  1  0  0  0  0
  5 14  1  1  0  0  0
  6  7  1  0  0  0  0
  6 19  1  0  0  0  0
  6 20  1  0  0  0  0
  7  8  1  0  0  0  0
  7 21  1  0  0  0  0
  7 22  1  0  0  0  0
  8  9  2  0  0  0  0
  8 11  1  0  0  0  0
  9 10  1  0  0  0  0
 10 13  2  0  0  0  0
 10 23  1  0  0  0  0
 11 12  2  0  0  0  0
 11 24  1  0  0  0  0
 12 13  1  0  0  0  0
 12 25  1  0  0  0  0
 13 26  1  0  0  0  0
M  END
>  <DRUGBANK_ID>
DB03894

>  <SECONDARY_ACCESSION_NUMBERS>
EXPT02818

>  <COMMON_NAME>
N-Propargyl-1(S)-Aminoindan

>  <UNII>
4KM7HJ6CBA

$$$$
