
 OpenBabel10282417072D

 59 61  0  0  0  0  0  0  0  0999 V2000
   -2.8566   -0.1911    0.0000 C   0  0  0  0  0  0  0  0  0  0  0  0
   -2.8566   -1.0161    0.0000 C   0  0  0  0  0  0  0  0  0  0  0  0
   -1.4325   -1.0161    0.0000 C   0  0  0  0  0  0  0  0  0  0  0  0
   -1.4325   -0.1911    0.0000 N   0  0  0  0  0  0  0  0  0  0  0  0
   -2.1487    0.2255    0.0000 N   0  0  0  0  0  0  0  0  0  0  0  0
   -3.4399   -1.5995    0.0000 C   0  0  0  0  0  0  0  0  0  0  0  0
   -4.2368   -1.3859    0.0000 C   0  0  0  0  0  0  0  0  0  0  0  0
   -3.2264   -2.3964    0.0000 C   0  0  0  0  0  0  0  0  0  0  0  0
   -0.8340    0.5784    0.0000 C   0  0  0  0  0  0  0  0  0  0  0  0
   -3.5729    0.2182    0.0000 O   0  0  0  0  0  0  0  0  0  0  0  0
   -2.1508    1.0505    0.0000 C   0  0  0  0  0  0  0  0  0  0  0  0
   -1.4343    1.4615    0.0000 C   0  0  0  0  0  0  0  0  0  0  0  0
   -1.4360    2.2857    0.0000 C   0  0  0  0  0  0  0  0  0  0  0  0
   -2.1521    2.6973    0.0000 C   0  0  0  0  0  0  0  0  0  0  0  0
   -2.8679    2.2785    0.0000 C   0  0  0  0  0  0  0  0  0  0  0  0
   -2.8626    1.4556    0.0000 C   0  0  0  0  0  0  0  0  0  0  0  0
   -0.7232   -1.4287    0.0000 C   0  0  0  0  0  0  0  0  0  0  0  0
    0.2809   -1.1495    0.0000 N   0  0  0  0  0  0  0  0  0  0  0  0
    1.1684   -1.7745    0.0000 C   0  0  3  0  0  0  0  0  0  0  0  0
    0.2893   -0.0786    0.0000 C   0  0  0  0  0  0  0  0  0  0  0  0
    1.1892   -2.6139    0.0000 C   0  0  0  0  0  0  0  0  0  0  0  0
    1.9833   -1.2174    0.0000 C   0  0  0  0  0  0  0  0  0  0  0  0
    2.7361   -1.5482    0.0000 C   0  0  0  0  0  0  0  0  0  0  0  0
    2.8225   -2.3661    0.0000 C   0  0  0  0  0  0  0  0  0  0  0  0
    3.5733   -2.6973    0.0000 C   0  0  0  0  0  0  0  0  0  0  0  0
    4.2368   -2.2118    0.0000 C   0  0  0  0  0  0  0  0  0  0  0  0
    4.1448   -1.3912    0.0000 C   0  0  0  0  0  0  0  0  0  0  0  0
    3.3939   -1.0639    0.0000 C   0  0  0  0  0  0  0  0  0  0  0  0
   -2.4064   -1.8764    0.0000 H   0  0  0  0  0  0  0  0  0  0  0  0
   -4.5137   -0.3523    0.0000 H   0  0  0  0  0  0  0  0  0  0  0  0
   -4.9935   -2.1424    0.0000 H   0  0  0  0  0  0  0  0  0  0  0  0
   -5.2703   -1.1089    0.0000 H   0  0  0  0  0  0  0  0  0  0  0  0
   -3.9830   -3.1530    0.0000 H   0  0  0  0  0  0  0  0  0  0  0  0
   -2.1929   -2.6734    0.0000 H   0  0  0  0  0  0  0  0  0  0  0  0
   -2.9495   -3.4299    0.0000 H   0  0  0  0  0  0  0  0  0  0  0  0
    0.2259    0.4318    0.0000 H   0  0  0  0  0  0  0  0  0  0  0  0
   -1.2370    1.5696    0.0000 H   0  0  0  0  0  0  0  0  0  0  0  0
   -0.1771    1.4230    0.0000 H   0  0  0  0  0  0  0  0  0  0  0  0
   -0.5408    0.9452    0.0000 H   0  0  0  0  0  0  0  0  0  0  0  0
   -0.5433    2.8035    0.0000 H   0  0  0  0  0  0  0  0  0  0  0  0
   -2.1561    3.7293    0.0000 H   0  0  0  0  0  0  0  0  0  0  0  0
   -3.7648    2.7890    0.0000 H   0  0  0  0  0  0  0  0  0  0  0  0
   -3.7531    0.9340    0.0000 H   0  0  0  0  0  0  0  0  0  0  0  0
   -0.8596   -2.4900    0.0000 H   0  0  0  0  0  0  0  0  0  0  0  0
    0.0857   -2.1292    0.0000 H   0  0  0  0  0  0  0  0  0  0  0  0
    0.2248   -2.2790    0.0000 H   0  0  0  0  0  0  0  0  0  0  0  0
    1.2201    0.4491    0.0000 H   0  0  0  0  0  0  0  0  0  0  0  0
   -0.6331    0.4637    0.0000 H   0  0  0  0  0  0  0  0  0  0  0  0
    0.2977    0.9914    0.0000 H   0  0  0  0  0  0  0  0  0  0  0  0
    0.2761   -3.1717    0.0000 H   0  0  0  0  0  0  0  0  0  0  0  0
    2.1288   -3.1258    0.0000 H   0  0  0  0  0  0  0  0  0  0  0  0
    1.2157   -3.6836    0.0000 H   0  0  0  0  0  0  0  0  0  0  0  0
    1.8841   -0.1520    0.0000 H   0  0  0  0  0  0  0  0  0  0  0  0
    2.8512   -0.5915    0.0000 H   0  0  0  0  0  0  0  0  0  0  0  0
    1.9888   -2.9743    0.0000 H   0  0  0  0  0  0  0  0  0  0  0  0
    3.6847   -3.7233    0.0000 H   0  0  0  0  0  0  0  0  0  0  0  0
    5.1817   -2.6267    0.0000 H   0  0  0  0  0  0  0  0  0  0  0  0
    4.9752   -0.7785    0.0000 H   0  0  0  0  0  0  0  0  0  0  0  0
    3.2788   -0.0383    0.0000 H   0  0  0  0  0  0  0  0  0  0  0  0
  1 10  2  0  0  0  0
  1  2  1  0  0  0  0
  2  3  2  0  0  0  0
  2  6  1  0  0  0  0
  3  4  1  0  0  0  0
  3 17  1  0  0  0  0
  4  5  1  0  0  0  0
  4  9  1  0  0  0  0
  5  1  1  0  0  0  0
  5 11  1  0  0  0  0
  6  7  1  0  0  0  0
  6  8  1  0  0  0  0
  6 29  1  0  0  0  0
  7 30  1  0  0  0  0
  7 31  1  0  0  0  0
  7 32  1  0  0  0  0
  8 33  1  0  0  0  0
  8 34  1  0  0  0  0
  8 35  1  0  0  0  0
  9 36  1  0  0  0  0
  9 37  1  0  0  0  0
  9 38  1  0  0  0  0
 11 12  2  0  0  0  0
 12 13  1  0  0  0  0
 12 39  1  0  0  0  0
 13 14  2  0  0  0  0
 13 40  1  0  0  0  0
 14 15  1  0  0  0  0
 14 41  1  0  0  0  0
 15 16  2  0  0  0  0
 15 42  1  0  0  0  0
 16 11  1  0  0  0  0
 16 43  1  0  0  0  0
 17 18  1  0  0  0  0
 17 44  1  0  0  0  0
 17 45  1  0  0  0  0
 18 19  1  0  0  0  0
 18 20  1  0  0  0  0
 19 21  1  0  0  0  0
 19 22  1  0  0  0  0
 19 46  1  0  0  0  0
 20 47  1  0  0  0  0
 20 48  1  0  0  0  0
 20 49  1  0  0  0  0
 21 50  1  0  0  0  0
 21 51  1  0  0  0  0
 21 52  1  0  0  0  0
 22 23  1  0  0  0  0
 22 53  1  0  0  0  0
 22 54  1  0  0  0  0
 23 24  2  0  0  0  0
 24 25  1  0  0  0  0
 24 55  1  0  0  0  0
 25 26  2  0  0  0  0
 25 56  1  0  0  0  0
 26 27  1  0  0  0  0
 26 57  1  0  0  0  0
 27 28  2  0  0  0  0
 27 58  1  0  0  0  0
 28 23  1  0  0  0  0
 28 59  1  0  0  0  0
M  END
>  <DRUGBANK_ID>
DB16702

>  <COMMON_NAME>
Famprofazone

>  <CAS_NUMBER>
22881-35-2

>  <UNII>
HN0NCX453C

>  <SYNONYMS>
Famprofazone

$$$$
