TNK
 OpenBabel10282417072D

 51 53  0  0  0  0  0  0  0  0999 V2000
    1.3875   -0.1364    0.0000 C   0  0  0  0  0  0  0  0  0  0  0  0
    2.1020   -0.5489    0.0000 C   0  0  0  0  0  0  0  0  0  0  0  0
    2.1020   -1.3739    0.0000 C   0  0  0  0  0  0  0  0  0  0  0  0
    1.3875   -1.7864    0.0000 C   0  0  0  0  0  0  0  0  0  0  0  0
    0.6730   -1.3739    0.0000 C   0  0  0  0  0  0  0  0  0  0  0  0
    0.6730   -0.5489    0.0000 C   0  0  0  0  0  0  0  0  0  0  0  0
    0.6730    1.1011    0.0000 C   0  0  0  0  0  0  0  0  0  0  0  0
   -0.0414    0.6886    0.0000 N   0  0  0  0  0  0  0  0  0  0  0  0
   -0.7559    1.1011    0.0000 C   0  0  0  0  0  0  0  0  0  0  0  0
   -1.4704    0.6886    0.0000 O   0  0  0  0  0  0  0  0  0  0  0  0
   -0.7559    1.9261    0.0000 N   0  0  0  0  0  0  0  0  0  0  0  0
   -0.0414    2.3386    0.0000 C   0  0  0  0  0  0  0  0  0  0  0  0
   -0.0414    3.1636    0.0000 O   0  0  0  0  0  0  0  0  0  0  0  0
    0.6730    1.9261    0.0000 C   0  0  0  0  0  0  0  0  0  0  0  0
    1.3875    0.6886    0.0000 C   0  0  0  0  0  0  0  0  0  0  0  0
    1.3875    2.3386    0.0000 C   0  0  0  0  0  0  0  0  0  0  0  0
    1.3875    3.1636    0.0000 C   0  0  0  0  0  0  0  0  0  0  0  0
    2.1020    1.9261    0.0000 C   0  0  0  0  0  0  0  0  0  0  0  0
   -0.0414   -0.1364    0.0000 C   0  0  0  0  0  0  0  0  0  0  0  0
   -0.7559   -0.5489    0.0000 O   0  0  0  0  0  0  0  0  0  0  0  0
   -0.7559   -1.3739    0.0000 C   0  0  0  0  0  0  0  0  0  0  0  0
   -1.4704   -1.7864    0.0000 C   0  0  0  0  0  0  0  0  0  0  0  0
   -1.4704   -2.6114    0.0000 C   0  0  0  0  0  0  0  0  0  0  0  0
   -2.1848   -3.0239    0.0000 C   0  0  0  0  0  0  0  0  0  0  0  0
   -2.8993   -2.6114    0.0000 C   0  0  0  0  0  0  0  0  0  0  0  0
   -2.8993   -1.7864    0.0000 C   0  0  0  0  0  0  0  0  0  0  0  0
   -2.1848   -1.3739    0.0000 C   0  0  0  0  0  0  0  0  0  0  0  0
    2.9957   -0.0329    0.0000 H   0  0  0  0  0  0  0  0  0  0  0  0
    2.9957   -1.8899    0.0000 H   0  0  0  0  0  0  0  0  0  0  0  0
    1.3875   -2.8184    0.0000 H   0  0  0  0  0  0  0  0  0  0  0  0
   -0.2207   -1.8899    0.0000 H   0  0  0  0  0  0  0  0  0  0  0  0
   -0.2207   -0.0329    0.0000 H   0  0  0  0  0  0  0  0  0  0  0  0
   -1.6085    2.4184    0.0000 H   0  0  0  0  0  0  0  0  0  0  0  0
    2.3141    1.2236    0.0000 H   0  0  0  0  0  0  0  0  0  0  0  0
    1.3875    1.7586    0.0000 H   0  0  0  0  0  0  0  0  0  0  0  0
    2.3141    2.8736    0.0000 H   0  0  0  0  0  0  0  0  0  0  0  0
    2.3141    3.6986    0.0000 H   0  0  0  0  0  0  0  0  0  0  0  0
    0.4609    3.6986    0.0000 H   0  0  0  0  0  0  0  0  0  0  0  0
    1.3875    4.2336    0.0000 H   0  0  0  0  0  0  0  0  0  0  0  0
    2.1020    0.8561    0.0000 H   0  0  0  0  0  0  0  0  0  0  0  0
    3.0286    2.4611    0.0000 H   0  0  0  0  0  0  0  0  0  0  0  0
    3.0287    1.3911    0.0000 H   0  0  0  0  0  0  0  0  0  0  0  0
    0.8852   -0.6714    0.0000 H   0  0  0  0  0  0  0  0  0  0  0  0
   -0.0414   -1.2064    0.0000 H   0  0  0  0  0  0  0  0  0  0  0  0
    0.1707   -1.9089    0.0000 H   0  0  0  0  0  0  0  0  0  0  0  0
   -0.7559   -2.4439    0.0000 H   0  0  0  0  0  0  0  0  0  0  0  0
   -0.5767   -3.1274    0.0000 H   0  0  0  0  0  0  0  0  0  0  0  0
   -2.1848   -4.0559    0.0000 H   0  0  0  0  0  0  0  0  0  0  0  0
   -3.7930   -3.1274    0.0000 H   0  0  0  0  0  0  0  0  0  0  0  0
   -3.7930   -1.2704    0.0000 H   0  0  0  0  0  0  0  0  0  0  0  0
   -2.1848   -0.3419    0.0000 H   0  0  0  0  0  0  0  0  0  0  0  0
  1  2  2  0  0  0  0
  1  6  1  0  0  0  0
  1 15  1  0  0  0  0
  2  3  1  0  0  0  0
  2 28  1  0  0  0  0
  3  4  2  0  0  0  0
  3 29  1  0  0  0  0
  4  5  1  0  0  0  0
  4 30  1  0  0  0  0
  5  6  2  0  0  0  0
  5 31  1  0  0  0  0
  6 32  1  0  0  0  0
  7  8  1  0  0  0  0
  7 14  2  0  0  0  0
  7 15  1  0  0  0  0
  8  9  1  0  0  0  0
  8 19  1  0  0  0  0
  9 10  2  0  0  0  0
  9 11  1  0  0  0  0
 11 12  1  0  0  0  0
 11 33  1  0  0  0  0
 12 13  2  0  0  0  0
 12 14  1  0  0  0  0
 14 16  1  0  0  0  0
 15 34  1  0  0  0  0
 15 35  1  0  0  0  0
 16 17  1  0  0  0  0
 16 18  1  0  0  0  0
 16 36  1  0  0  0  0
 17 37  1  0  0  0  0
 17 38  1  0  0  0  0
 17 39  1  0  0  0  0
 18 40  1  0  0  0  0
 18 41  1  0  0  0  0
 18 42  1  0  0  0  0
 19 20  1  0  0  0  0
 19 43  1  0  0  0  0
 19 44  1  0  0  0  0
 20 21  1  0  0  0  0
 21 22  1  0  0  0  0
 21 45  1  0  0  0  0
 21 46  1  0  0  0  0
 22 23  2  0  0  0  0
 22 27  1  0  0  0  0
 23 24  1  0  0  0  0
 23 47  1  0  0  0  0
 24 25  2  0  0  0  0
 24 48  1  0  0  0  0
 25 26  1  0  0  0  0
 25 49  1  0  0  0  0
 26 27  2  0  0  0  0
 26 50  1  0  0  0  0
 27 51  1  0  0  0  0
M  END
>  <DRUGBANK_ID>
DB08634

>  <COMMON_NAME>
6-BENZYL-1-BENZYLOXYMETHYL-5-ISOPROPYL URACIL

>  <UNII>
2HRU1H9M1I

$$$$
