1349
 OpenBabel10282417072D

 52 56  0  0  0  0  0  0  0  0999 V2000
    4.5080    1.1005    0.0000 O   0  0  0  0  0  0  0  0  0  0  0  0
    5.9370    1.1005    0.0000 N   0  0  0  0  0  0  0  0  0  0  0  0
    7.3889    1.0719    0.0000 N   0  0  0  0  0  0  0  0  0  0  0  0
    8.1365    2.3552    0.0000 N   0  0  0  0  0  0  0  0  0  0  0  0
    4.5472   -2.2765    0.0000 N   0  0  0  0  0  0  0  0  0  0  0  0
    3.8797   -3.4326    0.0000 N   0  0  0  0  0  0  0  0  0  0  0  0
    5.0993   -2.8896    0.0000 N   0  0  0  0  0  0  0  0  0  0  0  0
    4.6868   -3.6041    0.0000 N   0  0  0  0  0  0  0  0  0  0  0  0
    5.9370    2.7505    0.0000 C   0  0  0  0  0  0  0  0  0  0  0  0
    6.6515    2.3380    0.0000 C   0  0  0  0  0  0  0  0  0  0  0  0
    5.2224    2.3380    0.0000 C   0  0  0  0  0  0  0  0  0  0  0  0
    6.6515    1.5130    0.0000 C   0  0  0  0  0  0  0  0  0  0  0  0
    5.9370    0.2755    0.0000 C   0  0  0  0  0  0  0  0  0  0  0  0
    5.2224    1.5130    0.0000 C   0  0  0  0  0  0  0  0  0  0  0  0
    7.3889    2.7792    0.0000 C   0  0  0  0  0  0  0  0  0  0  0  0
    5.2224   -0.1370    0.0000 C   0  0  0  0  0  0  0  0  0  0  0  0
    8.1365    1.4958    0.0000 C   0  0  0  0  0  0  0  0  0  0  0  0
    5.2224   -0.9621    0.0000 C   0  0  0  0  0  0  0  0  0  0  0  0
    4.5080    0.2755    0.0000 C   0  0  0  0  0  0  0  0  0  0  0  0
    7.3795    3.6041    0.0000 C   0  0  0  0  0  0  0  0  0  0  0  0
    3.7935   -0.9621    0.0000 C   0  0  0  0  0  0  0  0  0  0  0  0
    4.5080   -1.3746    0.0000 C   0  0  0  0  0  0  0  0  0  0  0  0
    3.7935   -0.1370    0.0000 C   0  0  0  0  0  0  0  0  0  0  0  0
    3.0791   -1.3746    0.0000 C   0  0  0  0  0  0  0  0  0  0  0  0
    8.8494    1.0806    0.0000 C   0  0  0  0  0  0  0  0  0  0  0  0
    3.0791   -2.1996    0.0000 C   0  0  0  0  0  0  0  0  0  0  0  0
    2.3645   -0.9621    0.0000 C   0  0  0  0  0  0  0  0  0  0  0  0
    2.3645   -2.6121    0.0000 C   0  0  0  0  0  0  0  0  0  0  0  0
    1.6500   -1.3746    0.0000 C   0  0  0  0  0  0  0  0  0  0  0  0
    3.7935   -2.6121    0.0000 C   0  0  0  0  0  0  0  0  0  0  0  0
    1.6500   -2.1996    0.0000 C   0  0  0  0  0  0  0  0  0  0  0  0
    6.0784   -2.7867    0.0000 H   0  0  0  0  0  0  0  0  0  0  0  0
    5.9370    3.8205    0.0000 H   0  0  0  0  0  0  0  0  0  0  0  0
    5.0104    3.2856    0.0000 H   0  0  0  0  0  0  0  0  0  0  0  0
    4.2958    2.8730    0.0000 H   0  0  0  0  0  0  0  0  0  0  0  0
    4.2957    1.8030    0.0000 H   0  0  0  0  0  0  0  0  0  0  0  0
    6.8636   -0.2595    0.0000 H   0  0  0  0  0  0  0  0  0  0  0  0
    5.9369   -0.7945    0.0000 H   0  0  0  0  0  0  0  0  0  0  0  0
    6.1161   -1.4781    0.0000 H   0  0  0  0  0  0  0  0  0  0  0  0
    4.5080    1.3075    0.0000 H   0  0  0  0  0  0  0  0  0  0  0  0
    8.3000    4.1496    0.0000 H   0  0  0  0  0  0  0  0  0  0  0  0
    6.4468    4.1285    0.0000 H   0  0  0  0  0  0  0  0  0  0  0  0
    7.3673    4.6740    0.0000 H   0  0  0  0  0  0  0  0  0  0  0  0
    4.5080   -2.4066    0.0000 H   0  0  0  0  0  0  0  0  0  0  0  0
    2.8998    0.3790    0.0000 H   0  0  0  0  0  0  0  0  0  0  0  0
    8.8453    0.0106    0.0000 H   0  0  0  0  0  0  0  0  0  0  0  0
    9.7781    1.6121    0.0000 H   0  0  0  0  0  0  0  0  0  0  0  0
    9.7740    0.5421    0.0000 H   0  0  0  0  0  0  0  0  0  0  0  0
    2.3645    0.0699    0.0000 H   0  0  0  0  0  0  0  0  0  0  0  0
    2.3645   -3.6441    0.0000 H   0  0  0  0  0  0  0  0  0  0  0  0
    0.7563   -0.8586    0.0000 H   0  0  0  0  0  0  0  0  0  0  0  0
    0.7563   -2.7156    0.0000 H   0  0  0  0  0  0  0  0  0  0  0  0
  1 14  2  0  0  0  0
  2 12  1  0  0  0  0
  2 13  1  0  0  0  0
  2 14  1  0  0  0  0
  3 12  2  0  0  0  0
  3 17  1  0  0  0  0
  4 15  1  0  0  0  0
  4 17  2  0  0  0  0
  5  7  1  0  0  0  0
  5 30  2  0  0  0  0
  6  8  2  0  0  0  0
  6 30  1  0  0  0  0
  7  8  1  0  0  0  0
  7 32  1  0  0  0  0
  9 10  1  0  0  0  0
  9 11  1  0  0  0  0
  9 33  1  0  0  0  0
  9 34  1  0  0  0  0
 10 12  1  0  0  0  0
 10 15  2  0  0  0  0
 11 14  1  0  0  0  0
 11 35  1  0  0  0  0
 11 36  1  0  0  0  0
 13 16  1  0  0  0  0
 13 37  1  0  0  0  0
 13 38  1  0  0  0  0
 15 20  1  0  0  0  0
 16 18  2  0  0  0  0
 16 19  1  0  0  0  0
 17 25  1  0  0  0  0
 18 22  1  0  0  0  0
 18 39  1  0  0  0  0
 19 23  2  0  0  0  0
 19 40  1  0  0  0  0
 20 41  1  0  0  0  0
 20 42  1  0  0  0  0
 20 43  1  0  0  0  0
 21 22  2  0  0  0  0
 21 23  1  0  0  0  0
 21 24  1  0  0  0  0
 22 44  1  0  0  0  0
 23 45  1  0  0  0  0
 24 26  1  0  0  0  0
 24 27  2  0  0  0  0
 25 46  1  0  0  0  0
 25 47  1  0  0  0  0
 25 48  1  0  0  0  0
 26 28  2  0  0  0  0
 26 30  1  0  0  0  0
 27 29  1  0  0  0  0
 27 49  1  0  0  0  0
 28 31  1  0  0  0  0
 28 50  1  0  0  0  0
 29 31  2  0  0  0  0
 29 51  1  0  0  0  0
 31 52  1  0  0  0  0
M  END
>  <DRUGBANK_ID>
DB01349

>  <COMMON_NAME>
Tasosartan

>  <CAS_NUMBER>
145733-36-4

>  <UNII>
48G92V856H

>  <SYNONYMS>
Tasosartan

$$$$
