L41
 OpenBabel10282417072D

 55 56  0  0  0  0  0  0  0  0999 V2000
   -2.8631   -0.8657    0.0000 C   0  0  0  0  0  0  0  0  0  0  0  0
   -2.1486   -0.4532    0.0000 C   0  0  0  0  0  0  0  0  0  0  0  0
   -3.5776   -0.4532    0.0000 C   0  0  0  0  0  0  0  0  0  0  0  0
   -2.8631   -1.6907    0.0000 C   0  0  0  0  0  0  0  0  0  0  0  0
   -2.1486    0.3718    0.0000 C   0  0  0  0  0  0  0  0  0  0  0  0
   -1.4342   -0.8657    0.0000 O   0  0  0  0  0  0  0  0  0  0  0  0
   -3.5776    0.3718    0.0000 C   0  0  0  0  0  0  0  0  0  0  0  0
   -4.2920   -0.8657    0.0000 O   0  0  0  0  0  0  0  0  0  0  0  0
   -2.1486   -2.1032    0.0000 C   0  0  0  0  0  0  0  0  0  0  0  0
   -2.8631    0.7843    0.0000 C   0  0  0  0  0  0  0  0  0  0  0  0
   -0.7197   -0.4532    0.0000 C   0  0  0  0  0  0  0  0  0  0  0  0
   -4.2920    0.7843    0.0000 C   0  0  0  0  0  0  0  0  0  0  0  0
   -2.1486   -2.9282    0.0000 C   0  0  0  0  0  0  0  0  0  0  0  0
   -0.0052   -0.8657    0.0000 C   0  0  0  0  0  0  0  0  0  0  0  0
   -4.2920    1.6093    0.0000 C   0  0  0  0  0  0  0  0  0  0  0  0
   -5.0065    0.3718    0.0000 O   0  0  0  0  0  0  0  0  0  0  0  0
    0.7093   -0.4532    0.0000 C   0  0  0  0  0  0  0  0  0  0  0  0
    1.4237   -0.8657    0.0000 O   0  0  0  0  0  0  0  0  0  0  0  0
    2.1382   -0.4532    0.0000 C   0  0  0  0  0  0  0  0  0  0  0  0
    2.8527   -0.8657    0.0000 C   0  0  0  0  0  0  0  0  0  0  0  0
    2.1382    0.3718    0.0000 C   0  0  0  0  0  0  0  0  0  0  0  0
    3.5671   -0.4532    0.0000 C   0  0  0  0  0  0  0  0  0  0  0  0
    2.8527    0.7843    0.0000 C   0  0  0  0  0  0  0  0  0  0  0  0
    3.5671    0.3718    0.0000 C   0  0  0  0  0  0  0  0  0  0  0  0
    4.2816    0.7843    0.0000 O   0  0  0  0  0  0  0  0  0  0  0  0
    4.2816    1.6093    0.0000 C   0  0  0  0  0  0  0  0  0  0  0  0
    4.9961    2.0218    0.0000 C   0  0  0  0  0  0  0  0  0  0  0  0
    4.9961    2.8468    0.0000 O   0  0  0  0  0  0  0  0  0  0  0  0
    5.7106    1.6093    0.0000 O   0  0  0  0  0  0  0  0  0  0  0  0
   -3.7897   -2.2257    0.0000 H   0  0  0  0  0  0  0  0  0  0  0  0
   -2.8631   -2.7607    0.0000 H   0  0  0  0  0  0  0  0  0  0  0  0
   -1.2549    0.8878    0.0000 H   0  0  0  0  0  0  0  0  0  0  0  0
   -5.1035   -0.3972    0.0000 H   0  0  0  0  0  0  0  0  0  0  0  0
   -1.2220   -1.5682    0.0000 H   0  0  0  0  0  0  0  0  0  0  0  0
   -1.2220   -2.6382    0.0000 H   0  0  0  0  0  0  0  0  0  0  0  0
   -2.8631    1.8163    0.0000 H   0  0  0  0  0  0  0  0  0  0  0  0
   -0.7197    0.6168    0.0000 H   0  0  0  0  0  0  0  0  0  0  0  0
    0.2069    0.0818    0.0000 H   0  0  0  0  0  0  0  0  0  0  0  0
   -3.0752   -3.4632    0.0000 H   0  0  0  0  0  0  0  0  0  0  0  0
   -1.2220   -3.4632    0.0000 H   0  0  0  0  0  0  0  0  0  0  0  0
   -2.1486   -3.9982    0.0000 H   0  0  0  0  0  0  0  0  0  0  0  0
   -0.0052   -1.9357    0.0000 H   0  0  0  0  0  0  0  0  0  0  0  0
    0.9214   -1.4007    0.0000 H   0  0  0  0  0  0  0  0  0  0  0  0
   -3.3654    2.1443    0.0000 H   0  0  0  0  0  0  0  0  0  0  0  0
   -5.2186    2.1443    0.0000 H   0  0  0  0  0  0  0  0  0  0  0  0
   -4.2920    2.6793    0.0000 H   0  0  0  0  0  0  0  0  0  0  0  0
    0.7093    0.6168    0.0000 H   0  0  0  0  0  0  0  0  0  0  0  0
    1.6360    0.0818    0.0000 H   0  0  0  0  0  0  0  0  0  0  0  0
    2.8527   -1.8977    0.0000 H   0  0  0  0  0  0  0  0  0  0  0  0
    1.2445    0.8878    0.0000 H   0  0  0  0  0  0  0  0  0  0  0  0
    4.4608   -0.9692    0.0000 H   0  0  0  0  0  0  0  0  0  0  0  0
    2.8527    1.8163    0.0000 H   0  0  0  0  0  0  0  0  0  0  0  0
    3.3550    2.1443    0.0000 H   0  0  0  0  0  0  0  0  0  0  0  0
    4.2816    2.6793    0.0000 H   0  0  0  0  0  0  0  0  0  0  0  0
    5.8076    3.3153    0.0000 H   0  0  0  0  0  0  0  0  0  0  0  0
  1  4  1  0  0  0  0
  2  1  2  0  0  0  0
  2  6  1  0  0  0  0
  3  1  1  0  0  0  0
  3  8  1  0  0  0  0
  4  9  1  0  0  0  0
  4 30  1  0  0  0  0
  4 31  1  0  0  0  0
  5  2  1  0  0  0  0
  5 32  1  0  0  0  0
  7  3  2  0  0  0  0
  8 33  1  0  0  0  0
  9 13  1  0  0  0  0
  9 34  1  0  0  0  0
  9 35  1  0  0  0  0
 10  5  2  0  0  0  0
 10  7  1  0  0  0  0
 10 36  1  0  0  0  0
 11  6  1  0  0  0  0
 11 14  1  0  0  0  0
 11 37  1  0  0  0  0
 11 38  1  0  0  0  0
 12  7  1  0  0  0  0
 12 16  2  0  0  0  0
 13 39  1  0  0  0  0
 13 40  1  0  0  0  0
 13 41  1  0  0  0  0
 14 17  1  0  0  0  0
 14 42  1  0  0  0  0
 14 43  1  0  0  0  0
 15 12  1  0  0  0  0
 15 44  1  0  0  0  0
 15 45  1  0  0  0  0
 15 46  1  0  0  0  0
 17 47  1  0  0  0  0
 17 48  1  0  0  0  0
 18 17  1  0  0  0  0
 19 18  1  0  0  0  0
 19 21  1  0  0  0  0
 20 19  2  0  0  0  0
 20 49  1  0  0  0  0
 21 50  1  0  0  0  0
 22 20  1  0  0  0  0
 22 24  2  0  0  0  0
 22 51  1  0  0  0  0
 23 21  2  0  0  0  0
 23 52  1  0  0  0  0
 24 23  1  0  0  0  0
 25 24  1  0  0  0  0
 25 26  1  0  0  0  0
 26 27  1  0  0  0  0
 26 53  1  0  0  0  0
 26 54  1  0  0  0  0
 27 29  2  0  0  0  0
 27 28  1  0  0  0  0
 28 55  1  0  0  0  0
M  END
>  <DRUGBANK_ID>
DB08078

>  <COMMON_NAME>
{4-[3-(4-acetyl-3-hydroxy-2-propylphenoxy)propoxy]phenoxy}acetic acid

>  <UNII>
7RV682Z3FQ

$$$$
