
 OpenBabel10282417072D

145153  0  0  1  0  0  0  0  0999 V2000
    9.3100    0.8424    0.0000 C   0  0  0  0  0  0  0  0  0  0  0  0
   10.9342    1.1328    0.0000 C   0  0  0  0  0  0  0  0  0  0  0  0
   11.4948    2.6847    0.0000 C   0  0  0  0  0  0  0  0  0  0  0  0
   15.2751    2.6348    0.0000 C   0  0  0  0  0  0  0  0  0  0  0  0
    3.9055    0.6018    0.0000 C   0  0  0  0  0  0  0  0  0  0  0  0
    1.3895    0.1997    0.0000 C   0  0  0  0  0  0  0  0  0  0  0  0
    3.9343    2.7844    0.0000 C   0  0  0  0  0  0  0  0  0  0  0  0
    3.1221    2.6391    0.0000 C   0  0  0  0  0  0  0  0  0  0  0  0
    5.5297    0.8922    0.0000 C   0  0  0  0  0  0  0  0  0  0  0  0
    0.6955    1.7614    0.0000 C   0  0  0  0  0  0  0  0  0  0  0  0
    4.7176    0.7470    0.0000 C   0  0  0  0  0  0  0  0  0  0  0  0
    1.3784    2.2244    0.0000 C   0  0  0  0  0  0  0  0  0  0  0  0
    0.6478   -0.4749    0.0000 C   0  0  0  0  0  0  0  0  0  0  0  0
    5.2782    2.2989    0.0000 C   0  0  0  0  0  0  0  0  0  0  0  0
    3.0934    0.4566    0.0000 C   0  0  0  0  0  0  0  0  0  0  0  0
    6.8737    0.4067    0.0000 C   0  0  0  0  0  0  0  0  0  0  0  0
   10.0934   -1.1950    0.0000 C   0  0  0  0  0  0  0  0  0  0  0  0
   13.0903    0.7925    0.0000 C   0  0  0  0  0  0  0  0  0  0  0  0
   10.4312    3.9461    0.0000 C   0  0  0  0  0  0  0  0  0  0  0  0
   -0.4061    0.3444    0.0000 C   0  0  0  0  0  0  0  0  0  0  0  0
    8.4979    0.6972    0.0000 C   0  0  2  0  0  0  0  0  0  0  0  0
   10.6540    0.3569    0.0000 C   0  0  2  0  0  0  0  0  0  0  0  0
   12.0267    2.0540    0.0000 C   0  0  2  0  0  0  0  0  0  0  0  0
   14.4630    2.4896    0.0000 C   0  0  0  0  0  0  0  0  0  0  0  0
    0.4185    0.3176    0.0000 C   0  0  0  0  0  0  0  0  0  0  0  0
    4.4661    2.1537    0.0000 C   0  0  2  0  0  0  0  0  0  0  0  0
    5.8100    1.6682    0.0000 C   0  0  1  0  0  0  0  0  0  0  0  0
    0.9249    0.9689    0.0000 C   0  0  2  0  0  0  0  0  0  0  0  0
    2.8418    1.8632    0.0000 C   0  0  2  0  0  0  0  0  0  0  0  0
    3.3737    1.2325    0.0000 C   0  0  1  0  0  0  0  0  0  0  0  0
    7.4055   -0.2240    0.0000 C   0  0  1  0  0  0  0  0  0  0  0  0
   10.9055   -1.0497    0.0000 C   0  0  1  0  0  0  0  0  0  0  0  0
   13.3706    1.5685    0.0000 C   0  0  1  0  0  0  0  0  0  0  0  0
   11.2433    4.0913    0.0000 C   0  0  2  0  0  0  0  0  0  0  0  0
    2.2812    0.3114    0.0000 C   0  0  2  0  0  0  0  0  0  0  0  0
   -0.0350   -0.9379    0.0000 C   0  0  0  0  0  0  0  0  0  0  0  0
    7.1540    1.1827    0.0000 C   0  0  1  0  0  0  0  0  0  0  0  0
    9.5615   -0.5642    0.0000 C   0  0  1  0  0  0  0  0  0  0  0  0
   12.2782    0.6473    0.0000 C   0  0  1  0  0  0  0  0  0  0  0  0
   11.5236    4.8672    0.0000 C   0  0  2  0  0  0  0  0  0  0  0  0
   12.3357    5.0124    0.0000 C   0  0  1  0  0  0  0  0  0  0  0  0
   12.8676    4.3817    0.0000 C   0  0  2  0  0  0  0  0  0  0  0  0
    8.2176   -0.0788    0.0000 C   0  0  2  0  0  0  0  0  0  0  0  0
   11.1858   -0.2738    0.0000 C   0  0  2  0  0  0  0  0  0  0  0  0
   12.8388    2.1992    0.0000 C   0  0  2  0  0  0  0  0  0  0  0  0
   12.5873    3.6058    0.0000 C   0  0  1  0  0  0  0  0  0  0  0  0
    4.1858    1.3777    0.0000 C   0  0  2  0  0  0  0  0  0  0  0  0
    1.7494    0.9421    0.0000 C   0  0  2  0  0  0  0  0  0  0  0  0
    2.0297    1.7180    0.0000 C   0  0  2  0  0  0  0  0  0  0  0  0
    9.8994    4.5768    0.0000 O   0  0  0  0  0  0  0  0  0  0  0  0
   13.9312    3.1203    0.0000 O   0  0  0  0  0  0  0  0  0  0  0  0
    7.1252   -0.9999    0.0000 O   0  0  0  0  0  0  0  0  0  0  0  0
   11.4373   -1.6804    0.0000 O   0  0  0  0  0  0  0  0  0  0  0  0
    2.0009   -0.4646    0.0000 O   0  0  0  0  0  0  0  0  0  0  0  0
   -0.0618   -1.7625    0.0000 O   0  0  0  0  0  0  0  0  0  0  0  0
   10.9918    5.4979    0.0000 O   0  0  0  0  0  0  0  0  0  0  0  0
   12.6160    5.7884    0.0000 O   0  0  0  0  0  0  0  0  0  0  0  0
   13.6797    4.5269    0.0000 O   0  0  0  0  0  0  0  0  0  0  0  0
    2.2274    2.5190    0.0000 O   0  0  0  0  0  0  0  0  0  0  0  0
   -0.6864   -0.4316    0.0000 O   0  0  0  0  0  0  0  0  0  0  0  0
    7.9661    1.3279    0.0000 O   0  0  0  0  0  0  0  0  0  0  0  0
    9.8418    0.2117    0.0000 O   0  0  0  0  0  0  0  0  0  0  0  0
   11.7464    1.2780    0.0000 O   0  0  0  0  0  0  0  0  0  0  0  0
   14.1827    1.7137    0.0000 O   0  0  0  0  0  0  0  0  0  0  0  0
    6.6221    1.8134    0.0000 O   0  0  0  0  0  0  0  0  0  0  0  0
   11.7751    3.4606    0.0000 O   0  0  0  0  0  0  0  0  0  0  0  0
    8.7494   -0.7095    0.0000 O   0  0  0  0  0  0  0  0  0  0  0  0
   11.9979   -0.1286    0.0000 O   0  0  0  0  0  0  0  0  0  0  0  0
   13.1191    2.9751    0.0000 O   0  0  0  0  0  0  0  0  0  0  0  0
    9.0297    0.0665    0.0000 H   0  0  0  0  0  0  0  0  0  0  0  0
   11.4661    0.5021    0.0000 H   0  0  0  0  0  0  0  0  0  0  0  0
   12.3070    2.8299    0.0000 H   0  0  0  0  0  0  0  0  0  0  0  0
    4.9979    1.5229    0.0000 H   0  0  0  0  0  0  0  0  0  0  0  0
    6.0903    2.4441    0.0000 H   0  0  0  0  0  0  0  0  0  0  0  0
    0.1146    1.1244    0.0000 H   0  0  0  0  0  0  0  0  0  0  0  0
    3.6540    2.0084    0.0000 H   0  0  0  0  0  0  0  0  0  0  0  0
    2.5615    1.0873    0.0000 H   0  0  0  0  0  0  0  0  0  0  0  0
    7.9373   -0.8547    0.0000 H   0  0  0  0  0  0  0  0  0  0  0  0
   11.7176   -0.9045    0.0000 H   0  0  0  0  0  0  0  0  0  0  0  0
   13.6509    2.3444    0.0000 H   0  0  0  0  0  0  0  0  0  0  0  0
   10.7115    4.7220    0.0000 H   0  0  0  0  0  0  0  0  0  0  0  0
    2.8131   -0.3193    0.0000 H   0  0  0  0  0  0  0  0  0  0  0  0
    7.4343    1.9586    0.0000 H   0  0  0  0  0  0  0  0  0  0  0  0
    9.2812   -1.3402    0.0000 H   0  0  0  0  0  0  0  0  0  0  0  0
   12.5585    1.4232    0.0000 H   0  0  0  0  0  0  0  0  0  0  0  0
   11.8039    5.6431    0.0000 H   0  0  0  0  0  0  0  0  0  0  0  0
   12.0554    4.2365    0.0000 H   0  0  0  0  0  0  0  0  0  0  0  0
   13.1479    5.1577    0.0000 H   0  0  0  0  0  0  0  0  0  0  0  0
    7.6858    0.5520    0.0000 H   0  0  0  0  0  0  0  0  0  0  0  0
   10.3737   -0.4190    0.0000 H   0  0  0  0  0  0  0  0  0  0  0  0
   13.4695    2.7310    0.0000 H   0  0  0  0  0  0  0  0  0  0  0  0
   13.3994    3.7510    0.0000 H   0  0  0  0  0  0  0  0  0  0  0  0
    9.9997    0.0244    0.0000 H   0  0  0  0  0  0  0  0  0  0  0  0
    9.6736    1.8487    0.0000 H   0  0  0  0  0  0  0  0  0  0  0  0
   10.3633    1.0307    0.0000 H   0  0  0  0  0  0  0  0  0  0  0  0
   11.9875    1.3212    0.0000 H   0  0  0  0  0  0  0  0  0  0  0  0
   10.2444    1.9507    0.0000 H   0  0  0  0  0  0  0  0  0  0  0  0
   11.2976    2.1392    0.0000 H   0  0  0  0  0  0  0  0  0  0  0  0
   11.8583    3.6911    0.0000 H   0  0  0  0  0  0  0  0  0  0  0  0
   10.4415    2.4963    0.0000 H   0  0  0  0  0  0  0  0  0  0  0  0
   10.8050    3.5027    0.0000 H   0  0  0  0  0  0  0  0  0  0  0  0
   15.9648    1.8168    0.0000 H   0  0  0  0  0  0  0  0  0  0  0  0
   15.6387    3.6411    0.0000 H   0  0  0  0  0  0  0  0  0  0  0  0
   16.3284    2.8231    0.0000 H   0  0  0  0  0  0  0  0  0  0  0  0
    2.8522    0.4135    0.0000 H   0  0  0  0  0  0  0  0  0  0  0  0
    4.5952   -0.2162    0.0000 H   0  0  0  0  0  0  0  0  0  0  0  0
    3.5419   -0.4045    0.0000 H   0  0  0  0  0  0  0  0  0  0  0  0
    0.3223    0.1225    0.0000 H   0  0  0  0  0  0  0  0  0  0  0  0
    1.9900   -0.6859    0.0000 H   0  0  0  0  0  0  0  0  0  0  0  0
    0.9227   -0.7631    0.0000 H   0  0  0  0  0  0  0  0  0  0  0  0
    4.2978    3.7908    0.0000 H   0  0  0  0  0  0  0  0  0  0  0  0
    4.9876    2.9728    0.0000 H   0  0  0  0  0  0  0  0  0  0  0  0
    2.4323    3.4571    0.0000 H   0  0  0  0  0  0  0  0  0  0  0  0
    2.0688    2.4507    0.0000 H   0  0  0  0  0  0  0  0  0  0  0  0
    6.2195    0.0742    0.0000 H   0  0  0  0  0  0  0  0  0  0  0  0
    6.5830    1.0806    0.0000 H   0  0  0  0  0  0  0  0  0  0  0  0
   -0.3109    2.1249    0.0000 H   0  0  0  0  0  0  0  0  0  0  0  0
   -0.0852    1.0297    0.0000 H   0  0  0  0  0  0  0  0  0  0  0  0
    4.3540   -0.2593    0.0000 H   0  0  0  0  0  0  0  0  0  0  0  0
    3.6643    0.5587    0.0000 H   0  0  0  0  0  0  0  0  0  0  0  0
    1.4132    3.2938    0.0000 H   0  0  0  0  0  0  0  0  0  0  0  0
    2.3471    2.6789    0.0000 H   0  0  0  0  0  0  0  0  0  0  0  0
    1.6184   -0.8255    0.0000 H   0  0  0  0  0  0  0  0  0  0  0  0
    5.6418    3.3052    0.0000 H   0  0  0  0  0  0  0  0  0  0  0  0
    6.3315    2.4872    0.0000 H   0  0  0  0  0  0  0  0  0  0  0  0
    3.7831   -0.3614    0.0000 H   0  0  0  0  0  0  0  0  0  0  0  0
    2.7298   -0.5497    0.0000 H   0  0  0  0  0  0  0  0  0  0  0  0
    5.8204    0.2184    0.0000 H   0  0  0  0  0  0  0  0  0  0  0  0
    6.1839    1.2247    0.0000 H   0  0  0  0  0  0  0  0  0  0  0  0
    9.7299   -2.2014    0.0000 H   0  0  0  0  0  0  0  0  0  0  0  0
    9.0401   -1.3834    0.0000 H   0  0  0  0  0  0  0  0  0  0  0  0
   13.7801   -0.0255    0.0000 H   0  0  0  0  0  0  0  0  0  0  0  0
   12.7268   -0.2138    0.0000 H   0  0  0  0  0  0  0  0  0  0  0  0
   10.0676    2.9398    0.0000 H   0  0  0  0  0  0  0  0  0  0  0  0
    9.3779    3.7578    0.0000 H   0  0  0  0  0  0  0  0  0  0  0  0
   -1.0066    1.2300    0.0000 H   0  0  0  0  0  0  0  0  0  0  0  0
   -1.4678    0.2114    0.0000 H   0  0  0  0  0  0  0  0  0  0  0  0
   10.2290    5.4891    0.0000 H   0  0  0  0  0  0  0  0  0  0  0  0
    6.1703   -1.1706    0.0000 H   0  0  0  0  0  0  0  0  0  0  0  0
   11.1077   -2.5927    0.0000 H   0  0  0  0  0  0  0  0  0  0  0  0
    1.0461   -0.6354    0.0000 H   0  0  0  0  0  0  0  0  0  0  0  0
   11.3214    6.4102    0.0000 H   0  0  0  0  0  0  0  0  0  0  0  0
   13.5708    5.9592    0.0000 H   0  0  0  0  0  0  0  0  0  0  0  0
   14.3050    3.7853    0.0000 H   0  0  0  0  0  0  0  0  0  0  0  0
    3.1592    2.7886    0.0000 H   0  0  0  0  0  0  0  0  0  0  0  0
  1 93  1  0  0  0  0
  1 94  1  0  0  0  0
  1 95  1  0  0  0  0
  2 96  1  0  0  0  0
  2 97  1  0  0  0  0
  2 98  1  0  0  0  0
  3 99  1  0  0  0  0
  3100  1  0  0  0  0
  3101  1  0  0  0  0
  4102  1  0  0  0  0
  4103  1  0  0  0  0
  4104  1  0  0  0  0
  5105  1  0  0  0  0
  5106  1  0  0  0  0
  5107  1  0  0  0  0
  6108  1  0  0  0  0
  6109  1  0  0  0  0
  6110  1  0  0  0  0
  7111  1  0  0  0  0
  7112  1  0  0  0  0
  8  7  1  0  0  0  0
  8113  1  0  0  0  0
  8114  1  0  0  0  0
  9115  1  0  0  0  0
  9116  1  0  0  0  0
 10117  1  0  0  0  0
 10118  1  0  0  0  0
 11  9  1  0  0  0  0
 11119  1  0  0  0  0
 11120  1  0  0  0  0
 12 10  1  0  0  0  0
 12121  1  0  0  0  0
 12122  1  0  0  0  0
 13123  1  0  0  0  0
 14124  1  0  0  0  0
 14125  1  0  0  0  0
 15126  1  0  0  0  0
 15127  1  0  0  0  0
 16128  1  0  0  0  0
 16129  1  0  0  0  0
 17130  1  0  0  0  0
 17131  1  0  0  0  0
 18132  1  0  0  0  0
 18133  1  0  0  0  0
 19134  1  0  0  0  0
 19135  1  0  0  0  0
 20136  1  0  0  0  0
 20137  1  0  0  0  0
 21  1  1  0  0  0  0
 21 70  1  1  0  0  0
 22  2  1  0  0  0  0
 22 71  1  1  0  0  0
 23  3  1  0  0  0  0
 23 72  1  1  0  0  0
 24  4  1  0  0  0  0
 25 13  2  0  0  0  0
 25 20  1  0  0  0  0
 26  7  1  0  0  0  0
 26 14  1  0  0  0  0
 26 73  1  1  0  0  0
 27  9  1  0  0  0  0
 27 14  1  0  0  0  0
 27 65  1  0  0  0  0
 27 74  1  6  0  0  0
 28 10  1  0  0  0  0
 28 25  1  0  0  0  0
 28 75  1  6  0  0  0
 29  8  1  0  0  0  0
 29 76  1  1  0  0  0
 30 15  1  0  0  0  0
 30 29  1  0  0  0  0
 30 77  1  6  0  0  0
 31 16  1  0  0  0  0
 31 52  1  0  0  0  0
 31 78  1  6  0  0  0
 32 17  1  0  0  0  0
 32 53  1  0  0  0  0
 32 79  1  6  0  0  0
 33 18  1  0  0  0  0
 33 64  1  0  0  0  0
 33 80  1  6  0  0  0
 34 19  1  0  0  0  0
 34 81  1  1  0  0  0
 35 15  1  0  0  0  0
 35 54  1  0  0  0  0
 35 82  1  6  0  0  0
 36 13  1  0  0  0  0
 37 16  1  0  0  0  0
 37 65  1  0  0  0  0
 37 83  1  1  0  0  0
 38 17  1  0  0  0  0
 38 67  1  0  0  0  0
 38 84  1  1  0  0  0
 39 18  1  0  0  0  0
 39 68  1  0  0  0  0
 39 85  1  1  0  0  0
 40 34  1  0  0  0  0
 40 56  1  0  0  0  0
 40 86  1  6  0  0  0
 41 40  1  0  0  0  0
 41 57  1  0  0  0  0
 41 87  1  1  0  0  0
 42 41  1  0  0  0  0
 42 58  1  0  0  0  0
 42 88  1  6  0  0  0
 43 21  1  0  0  0  0
 43 31  1  0  0  0  0
 43 67  1  0  0  0  0
 43 89  1  6  0  0  0
 44 22  1  0  0  0  0
 44 32  1  0  0  0  0
 44 68  1  0  0  0  0
 44 90  1  6  0  0  0
 45 23  1  0  0  0  0
 45 33  1  0  0  0  0
 45 69  1  0  0  0  0
 45 91  1  6  0  0  0
 46 42  1  0  0  0  0
 46 69  1  0  0  0  0
 46 92  1  1  0  0  0
 47  5  1  1  0  0  0
 47 11  1  0  0  0  0
 47 26  1  0  0  0  0
 47 30  1  0  0  0  0
 48  6  1  1  0  0  0
 48 28  1  0  0  0  0
 48 35  1  0  0  0  0
 49 12  1  0  0  0  0
 49 29  1  0  0  0  0
 49 48  1  0  0  0  0
 49 59  1  1  0  0  0
 50 19  1  0  0  0  0
 50138  1  0  0  0  0
 51 24  2  0  0  0  0
 52139  1  0  0  0  0
 53140  1  0  0  0  0
 54141  1  0  0  0  0
 55 36  2  0  0  0  0
 56142  1  0  0  0  0
 57143  1  0  0  0  0
 58144  1  0  0  0  0
 59145  1  0  0  0  0
 60 20  1  0  0  0  0
 60 36  1  0  0  0  0
 61 21  1  0  0  0  0
 61 37  1  0  0  0  0
 62 22  1  0  0  0  0
 62 38  1  0  0  0  0
 63 23  1  0  0  0  0
 63 39  1  0  0  0  0
 64 24  1  0  0  0  0
 66 34  1  0  0  0  0
 66 46  1  0  0  0  0
M  END
>  <DRUGBANK_ID>
DB13467

>  <COMMON_NAME>
Lanatoside C

>  <CAS_NUMBER>
17575-22-3

>  <UNII>
5RR3JFZ771

>  <SYNONYMS>
Lanatoside C

$$$$
