
 OpenBabel10282417072D

 56 56  0  0  0  0  0  0  0  0999 V2000
    2.4702    4.4591    0.0000 F   0  0  0  0  0  0  0  0  0  0  0  0
    1.7558    0.7466    0.0000 O   0  0  0  0  0  0  0  0  0  0  0  0
   -0.3876   -1.3158    0.0000 O   0  0  0  0  0  0  0  0  0  0  0  0
   -1.1020   -0.0783    0.0000 O   0  0  0  0  0  0  0  0  0  0  0  0
    1.0413    3.6341    0.0000 O   0  0  0  0  0  0  0  0  0  0  0  0
    0.3268   -0.0783    0.0000 N   0  0  0  0  0  0  0  0  0  0  0  0
    1.0413    1.9841    0.0000 N   0  0  0  0  0  0  0  0  0  0  0  0
   -1.1020    3.2216    0.0000 N   0  0  0  0  0  0  0  0  0  0  0  0
   -1.8165    4.4591    0.0000 N   0  0  0  0  0  0  0  0  0  0  0  0
   -2.5310    3.2216    0.0000 N   0  0  0  0  0  0  0  0  0  0  0  0
   -0.3876    1.1591    0.0000 C   0  0  0  0  0  0  0  0  0  0  0  0
    0.3268    0.7466    0.0000 C   0  0  1  0  0  0  0  0  0  0  0  0
   -0.3876    1.9841    0.0000 C   0  0  0  0  0  0  0  0  0  0  0  0
   -1.1020    2.3966    0.0000 C   0  0  0  0  0  0  0  0  0  0  0  0
    1.0413    1.1591    0.0000 C   0  0  0  0  0  0  0  0  0  0  0  0
    1.7558    2.3966    0.0000 C   0  0  1  0  0  0  0  0  0  0  0  0
   -1.8165    3.6341    0.0000 C   0  0  0  0  0  0  0  0  0  0  0  0
    2.4702    1.9841    0.0000 C   0  0  0  0  0  0  0  0  0  0  0  0
   -0.3876   -0.4908    0.0000 C   0  0  0  0  0  0  0  0  0  0  0  0
    1.7558    3.2216    0.0000 C   0  0  0  0  0  0  0  0  0  0  0  0
    2.4702    3.6341    0.0000 C   0  0  0  0  0  0  0  0  0  0  0  0
   -1.1020   -1.7283    0.0000 C   0  0  0  0  0  0  0  0  0  0  0  0
   -1.1020   -2.5533    0.0000 C   0  0  0  0  0  0  0  0  0  0  0  0
   -1.8165   -2.9658    0.0000 C   0  0  0  0  0  0  0  0  0  0  0  0
   -0.3876   -2.9658    0.0000 C   0  0  0  0  0  0  0  0  0  0  0  0
   -1.8165   -3.7908    0.0000 C   0  0  0  0  0  0  0  0  0  0  0  0
   -0.3876   -3.7908    0.0000 C   0  0  0  0  0  0  0  0  0  0  0  0
   -1.1020   -4.2033    0.0000 C   0  0  0  0  0  0  0  0  0  0  0  0
    1.1794   -0.5705    0.0000 H   0  0  0  0  0  0  0  0  0  0  0  0
    0.1887    2.4764    0.0000 H   0  0  0  0  0  0  0  0  0  0  0  0
   -0.2187    3.7316    0.0000 H   0  0  0  0  0  0  0  0  0  0  0  0
   -0.9332    4.9691    0.0000 H   0  0  0  0  0  0  0  0  0  0  0  0
   -2.6998    4.9691    0.0000 H   0  0  0  0  0  0  0  0  0  0  0  0
   -3.4143    3.7316    0.0000 H   0  0  0  0  0  0  0  0  0  0  0  0
   -2.5310    2.2016    0.0000 H   0  0  0  0  0  0  0  0  0  0  0  0
   -1.3143    0.6241    0.0000 H   0  0  0  0  0  0  0  0  0  0  0  0
   -1.3142    1.6941    0.0000 H   0  0  0  0  0  0  0  0  0  0  0  0
   -0.5999    0.2116    0.0000 H   0  0  0  0  0  0  0  0  0  0  0  0
    0.5391    2.5191    0.0000 H   0  0  0  0  0  0  0  0  0  0  0  0
   -0.3876    3.0541    0.0000 H   0  0  0  0  0  0  0  0  0  0  0  0
   -2.0287    1.8616    0.0000 H   0  0  0  0  0  0  0  0  0  0  0  0
   -1.1020    1.3266    0.0000 H   0  0  0  0  0  0  0  0  0  0  0  0
    1.7558    1.3266    0.0000 H   0  0  0  0  0  0  0  0  0  0  0  0
   -2.7431    4.1691    0.0000 H   0  0  0  0  0  0  0  0  0  0  0  0
    2.4702    0.9141    0.0000 H   0  0  0  0  0  0  0  0  0  0  0  0
    3.3969    2.5191    0.0000 H   0  0  0  0  0  0  0  0  0  0  0  0
    3.3968    1.4491    0.0000 H   0  0  0  0  0  0  0  0  0  0  0  0
    3.3969    3.0991    0.0000 H   0  0  0  0  0  0  0  0  0  0  0  0
    2.4702    2.5641    0.0000 H   0  0  0  0  0  0  0  0  0  0  0  0
   -2.0287   -1.1933    0.0000 H   0  0  0  0  0  0  0  0  0  0  0  0
   -2.0286   -2.2633    0.0000 H   0  0  0  0  0  0  0  0  0  0  0  0
   -2.7102   -2.4498    0.0000 H   0  0  0  0  0  0  0  0  0  0  0  0
    0.5061   -2.4498    0.0000 H   0  0  0  0  0  0  0  0  0  0  0  0
   -2.7102   -4.3068    0.0000 H   0  0  0  0  0  0  0  0  0  0  0  0
    0.5061   -4.3068    0.0000 H   0  0  0  0  0  0  0  0  0  0  0  0
   -1.1020   -5.2353    0.0000 H   0  0  0  0  0  0  0  0  0  0  0  0
  1 21  1  0  0  0  0
  2 15  2  0  0  0  0
  3 19  1  0  0  0  0
  3 22  1  0  0  0  0
  4 19  2  0  0  0  0
  5 20  2  0  0  0  0
  6 19  1  0  0  0  0
  6 29  1  0  0  0  0
  7 15  1  0  0  0  0
  7 30  1  0  0  0  0
  8 14  1  0  0  0  0
  8 17  1  0  0  0  0
  8 31  1  0  0  0  0
  9 17  1  0  0  0  0
  9 32  1  0  0  0  0
  9 33  1  0  0  0  0
 10 17  1  0  0  0  0
 10 34  1  0  0  0  0
 10 35  1  0  0  0  0
 11 12  1  0  0  0  0
 11 13  1  0  0  0  0
 11 36  1  0  0  0  0
 11 37  1  0  0  0  0
 12  6  1  0  0  0  0
 12 15  1  0  0  0  0
 12 38  1  6  0  0  0
 13 14  1  0  0  0  0
 13 39  1  0  0  0  0
 13 40  1  0  0  0  0
 14 41  1  0  0  0  0
 14 42  1  0  0  0  0
 16  7  1  0  0  0  0
 16 18  1  0  0  0  0
 16 20  1  0  0  0  0
 16 43  1  1  0  0  0
 17 44  1  0  0  0  0
 18 45  1  0  0  0  0
 18 46  1  0  0  0  0
 18 47  1  0  0  0  0
 20 21  1  0  0  0  0
 21 48  1  0  0  0  0
 21 49  1  0  0  0  0
 22 23  1  0  0  0  0
 22 50  1  0  0  0  0
 22 51  1  0  0  0  0
 23 24  2  0  0  0  0
 23 25  1  0  0  0  0
 24 26  1  0  0  0  0
 24 52  1  0  0  0  0
 25 27  2  0  0  0  0
 25 53  1  0  0  0  0
 26 28  2  0  0  0  0
 26 54  1  0  0  0  0
 27 28  1  0  0  0  0
 27 55  1  0  0  0  0
 28 56  1  0  0  0  0
M  END
>  <DRUGBANK_ID>
DB03536

>  <SECONDARY_ACCESSION_NUMBERS>
EXPT03294

>  <COMMON_NAME>
Benzyl N-[(2S)-5-(diaminomethylamino)-1-[[(2S)-4-fluoro-3-oxobutan-2-yl]amino]-1-oxopentan-2-yl]carbamate

>  <SYNONYMS>
Benzoyl-arginine-alanine-methyl ketone

$$$$
