
 OpenBabel10282417072D

 22 21  0  0  0  0  0  0  0  0999 V2000
   -1.0716   -0.2062    0.0000 C   0  0  0  0  0  0  0  0  0  0  0  0
   -1.7861   -0.6187    0.0000 O   0  0  0  0  0  0  0  0  0  0  0  0
    1.0717    1.0312    0.0000 C   0  0  0  0  0  0  0  0  0  0  0  0
    1.0717    1.8562    0.0000 O   0  0  0  0  0  0  0  0  0  0  0  0
    0.3572   -0.2062    0.0000 N   0  0  0  0  0  0  0  0  0  0  0  0
    1.0717   -1.4437    0.0000 C   0  0  0  0  0  0  0  0  0  0  0  0
    1.7861   -1.8562    0.0000 O   0  0  0  0  0  0  0  0  0  0  0  0
   -0.3572   -0.6187    0.0000 C   0  0  0  0  0  0  0  0  0  0  0  0
    1.0717   -0.6187    0.0000 C   0  0  0  0  0  0  0  0  0  0  0  0
    1.7861    0.6187    0.0000 O   0  0  0  0  0  0  0  0  0  0  0  0
    0.3572    0.6187    0.0000 C   0  0  0  0  0  0  0  0  0  0  0  0
   -1.0716    0.6187    0.0000 O   0  0  0  0  0  0  0  0  0  0  0  0
    0.3572   -1.8562    0.0000 O   0  0  0  0  0  0  0  0  0  0  0  0
   -0.3572   -1.6887    0.0000 H   0  0  0  0  0  0  0  0  0  0  0  0
    0.5695   -1.1537    0.0000 H   0  0  0  0  0  0  0  0  0  0  0  0
    1.9983   -0.0837    0.0000 H   0  0  0  0  0  0  0  0  0  0  0  0
    1.9983   -1.1537    0.0000 H   0  0  0  0  0  0  0  0  0  0  0  0
    1.7861   -0.3183    0.0000 H   0  0  0  0  0  0  0  0  0  0  0  0
   -0.5694    1.1537    0.0000 H   0  0  0  0  0  0  0  0  0  0  0  0
   -0.5694    0.0837    0.0000 H   0  0  0  0  0  0  0  0  0  0  0  0
   -0.2601    1.0872    0.0000 H   0  0  0  0  0  0  0  0  0  0  0  0
   -0.4543   -1.3877    0.0000 H   0  0  0  0  0  0  0  0  0  0  0  0
  2  1  2  0  0  0  0
  4  3  2  0  0  0  0
  5  8  1  0  0  0  0
  5 11  1  0  0  0  0
  6  9  1  0  0  0  0
  7  6  2  0  0  0  0
  8  1  1  0  0  0  0
  8 14  1  0  0  0  0
  8 15  1  0  0  0  0
  9  5  1  0  0  0  0
  9 16  1  0  0  0  0
  9 17  1  0  0  0  0
 10  3  1  0  0  0  0
 10 18  1  0  0  0  0
 11  3  1  0  0  0  0
 11 19  1  0  0  0  0
 11 20  1  0  0  0  0
 12  1  1  0  0  0  0
 12 21  1  0  0  0  0
 13  6  1  0  0  0  0
 13 22  1  0  0  0  0
M  END
>  <DRUGBANK_ID>
DB03040

>  <SECONDARY_ACCESSION_NUMBERS>
EXPT02390

>  <COMMON_NAME>
Nitrilotriacetic acid

>  <CAS_NUMBER>
139-13-9

>  <UNII>
KA90006V9D

>  <SYNONYMS>
nitrilo-2,2',2''-triacetic acid; Nitrilotriacetate; Triglycine; Triglycollamic acid; α,α',α''-trimethylaminetricarboxylic acid

$$$$
