
 OpenBabel10282417072D

 50 54  0  0  0  0  0  0  0  0999 V2000
   -4.2916   -1.0751    0.0000 C   0  0  0  0  0  0  0  0  0  0  0  0
   -4.2924   -1.9021    0.0000 C   0  0  0  0  0  0  0  0  0  0  0  0
   -3.5792   -2.3165    0.0000 C   0  0  0  0  0  0  0  0  0  0  0  0
   -3.5805   -0.6637    0.0000 C   0  0  0  0  0  0  0  0  0  0  0  0
   -2.8640   -1.0726    0.0000 C   0  0  0  0  0  0  0  0  0  0  0  0
   -2.8641   -1.8981    0.0000 C   0  0  0  0  0  0  0  0  0  0  0  0
   -2.1503   -2.3091    0.0000 C   0  0  0  0  0  0  0  0  0  0  0  0
   -1.4360   -1.8958    0.0000 C   0  0  0  0  0  0  0  0  0  0  0  0
   -1.4399   -1.0671    0.0000 C   0  0  0  0  0  0  0  0  0  0  0  0
   -2.1543   -0.6598    0.0000 N   0  0  0  0  0  0  0  0  0  0  0  0
   -0.7298   -0.6522    0.0000 C   0  0  0  0  0  0  0  0  0  0  0  0
   -0.0153   -1.0606    0.0000 O   0  0  0  0  0  0  0  0  0  0  0  0
    0.6963   -0.6463    0.0000 C   0  0  0  0  0  0  0  0  0  0  0  0
    1.4102   -1.0586    0.0000 C   0  0  0  0  0  0  0  0  0  0  0  0
    2.1213   -0.6451    0.0000 C   0  0  0  0  0  0  0  0  0  0  0  0
    2.1189    0.1790    0.0000 C   0  0  0  0  0  0  0  0  0  0  0  0
    1.3995    0.5879    0.0000 C   0  0  0  0  0  0  0  0  0  0  0  0
    0.6914    0.1722    0.0000 C   0  0  0  0  0  0  0  0  0  0  0  0
    2.8310    0.5958    0.0000 C   0  0  0  0  0  0  0  0  0  0  0  0
    3.5886    0.2690    0.0000 C   0  0  0  0  0  0  0  0  0  0  0  0
    4.1371    0.8854    0.0000 C   0  0  0  0  0  0  0  0  0  0  0  0
    3.7201    1.5977    0.0000 N   0  0  0  0  0  0  0  0  0  0  0  0
    2.9141    1.4211    0.0000 N   0  0  0  0  0  0  0  0  0  0  0  0
    3.5834   -0.5561    0.0000 C   0  0  0  0  0  0  0  0  0  0  0  0
    2.8640   -0.9622    0.0000 C   0  0  0  0  0  0  0  0  0  0  0  0
    2.8584   -1.7866    0.0000 C   0  0  0  0  0  0  0  0  0  0  0  0
    3.5709   -2.2045    0.0000 N   0  0  0  0  0  0  0  0  0  0  0  0
    4.2905   -1.7920    0.0000 C   0  0  0  0  0  0  0  0  0  0  0  0
    4.2924   -0.9690    0.0000 C   0  0  0  0  0  0  0  0  0  0  0  0
    4.1288    2.3165    0.0000 C   0  0  0  0  0  0  0  0  0  0  0  0
   -5.1853   -0.5591    0.0000 H   0  0  0  0  0  0  0  0  0  0  0  0
   -5.1871   -2.4164    0.0000 H   0  0  0  0  0  0  0  0  0  0  0  0
   -3.5776   -3.3485    0.0000 H   0  0  0  0  0  0  0  0  0  0  0  0
   -3.5835    0.3683    0.0000 H   0  0  0  0  0  0  0  0  0  0  0  0
   -2.1492   -3.3411    0.0000 H   0  0  0  0  0  0  0  0  0  0  0  0
   -0.5408   -2.4093    0.0000 H   0  0  0  0  0  0  0  0  0  0  0  0
   -0.7349    0.4178    0.0000 H   0  0  0  0  0  0  0  0  0  0  0  0
    0.1944   -0.1130    0.0000 H   0  0  0  0  0  0  0  0  0  0  0  0
    1.4117   -2.0906    0.0000 H   0  0  0  0  0  0  0  0  0  0  0  0
    3.0166   -1.1584    0.0000 H   0  0  0  0  0  0  0  0  0  0  0  0
    1.3923    1.6199    0.0000 H   0  0  0  0  0  0  0  0  0  0  0  0
   -0.2057    0.6823    0.0000 H   0  0  0  0  0  0  0  0  0  0  0  0
    5.1641    0.7836    0.0000 H   0  0  0  0  0  0  0  0  0  0  0  0
    1.9745   -0.4389    0.0000 H   0  0  0  0  0  0  0  0  0  0  0  0
    1.9612   -2.2965    0.0000 H   0  0  0  0  0  0  0  0  0  0  0  0
    5.1828   -2.3104    0.0000 H   0  0  0  0  0  0  0  0  0  0  0  0
    5.1877   -0.4557    0.0000 H   0  0  0  0  0  0  0  0  0  0  0  0
    5.1988    2.3236    0.0000 H   0  0  0  0  0  0  0  0  0  0  0  0
    3.5877    3.2396    0.0000 H   0  0  0  0  0  0  0  0  0  0  0  0
    4.6577    3.2467    0.0000 H   0  0  0  0  0  0  0  0  0  0  0  0
  1  2  2  0  0  0  0
  1 31  1  0  0  0  0
  2  3  1  0  0  0  0
  2 32  1  0  0  0  0
  3  6  2  0  0  0  0
  3 33  1  0  0  0  0
  4  1  1  0  0  0  0
  4 34  1  0  0  0  0
  5  4  2  0  0  0  0
  5  6  1  0  0  0  0
  6  7  1  0  0  0  0
  7  8  2  0  0  0  0
  7 35  1  0  0  0  0
  8  9  1  0  0  0  0
  8 36  1  0  0  0  0
  9 10  2  0  0  0  0
  9 11  1  0  0  0  0
 10  5  1  0  0  0  0
 11 12  1  0  0  0  0
 11 37  1  0  0  0  0
 11 38  1  0  0  0  0
 12 13  1  0  0  0  0
 13 14  2  0  0  0  0
 14 15  1  0  0  0  0
 14 39  1  0  0  0  0
 15 16  2  0  0  0  0
 15 40  1  0  0  0  0
 16 17  1  0  0  0  0
 16 19  1  0  0  0  0
 17 18  2  0  0  0  0
 17 41  1  0  0  0  0
 18 13  1  0  0  0  0
 18 42  1  0  0  0  0
 19 20  1  0  0  0  0
 20 21  2  0  0  0  0
 20 24  1  0  0  0  0
 21 22  1  0  0  0  0
 21 43  1  0  0  0  0
 22 23  1  0  0  0  0
 22 30  1  0  0  0  0
 23 19  2  0  0  0  0
 24 25  2  0  0  0  0
 25 26  1  0  0  0  0
 25 44  1  0  0  0  0
 26 27  2  0  0  0  0
 26 45  1  0  0  0  0
 27 28  1  0  0  0  0
 28 29  2  0  0  0  0
 28 46  1  0  0  0  0
 29 24  1  0  0  0  0
 29 47  1  0  0  0  0
 30 48  1  0  0  0  0
 30 49  1  0  0  0  0
 30 50  1  0  0  0  0
M  END
>  <DRUGBANK_ID>
DB08387

>  <COMMON_NAME>
Mardepodect

>  <CAS_NUMBER>
898562-94-2

>  <UNII>
R9Y8EY0G42

>  <SYNONYMS>
2-[4-(1-Methyl-4-pyridin-4-yl-lH-pyrazol-3-yl)-phenoxymethyl]-quinoline succinic acid; Mardepodect

$$$$
