WAN
 OpenBabel10282417072D

 45 47  0  0  0  0  0  0  0  0999 V2000
   -3.7238    2.0487    0.0000 C   0  0  0  0  0  0  0  0  0  0  0  0
   -3.4688    1.2641    0.0000 C   0  0  0  0  0  0  0  0  0  0  0  0
   -2.6619    1.0926    0.0000 C   0  0  0  0  0  0  0  0  0  0  0  0
   -2.4069    0.3079    0.0000 C   0  0  0  0  0  0  0  0  0  0  0  0
   -1.6223    0.0530    0.0000 C   0  0  0  0  0  0  0  0  0  0  0  0
   -0.9078    0.4655    0.0000 N   0  0  0  0  0  0  0  0  0  0  0  0
   -2.8918   -0.3595    0.0000 N   0  0  0  0  0  0  0  0  0  0  0  0
   -2.4069   -1.0269    0.0000 N   0  0  0  0  0  0  0  0  0  0  0  0
   -2.6619   -1.8116    0.0000 C   0  0  0  0  0  0  0  0  0  0  0  0
   -1.6223   -0.7720    0.0000 C   0  0  0  0  0  0  0  0  0  0  0  0
   -0.9078   -1.1845    0.0000 C   0  0  0  0  0  0  0  0  0  0  0  0
   -0.9078   -2.0095    0.0000 O   0  0  0  0  0  0  0  0  0  0  0  0
   -0.1934   -0.7720    0.0000 N   0  0  0  0  0  0  0  0  0  0  0  0
   -0.1934    0.0530    0.0000 C   0  0  0  0  0  0  0  0  0  0  0  0
    0.5211    0.4655    0.0000 C   0  0  0  0  0  0  0  0  0  0  0  0
    0.6074    1.2860    0.0000 C   0  0  0  0  0  0  0  0  0  0  0  0
    1.4143    1.4575    0.0000 C   0  0  0  0  0  0  0  0  0  0  0  0
    1.7499    2.2112    0.0000 S   0  0  0  0  0  0  0  0  0  0  0  0
    2.0854    2.9649    0.0000 O   0  0  0  0  0  0  0  0  0  0  0  0
    2.5036    1.8756    0.0000 O   0  0  0  0  0  0  0  0  0  0  0  0
    0.9962    2.5467    0.0000 N   0  0  0  0  0  0  0  0  0  0  0  0
    1.8268    0.7430    0.0000 S   0  0  0  0  0  0  0  0  0  0  0  0
    1.2748    0.1299    0.0000 C   0  0  0  0  0  0  0  0  0  0  0  0
    1.4463   -0.6770    0.0000 O   0  0  0  0  0  0  0  0  0  0  0  0
    2.2309   -0.9320    0.0000 C   0  0  0  0  0  0  0  0  0  0  0  0
    2.4025   -1.7389    0.0000 C   0  0  0  0  0  0  0  0  0  0  0  0
   -3.0079    2.8439    0.0000 H   0  0  0  0  0  0  0  0  0  0  0  0
   -4.7704    2.2711    0.0000 H   0  0  0  0  0  0  0  0  0  0  0  0
   -4.0545    3.0663    0.0000 H   0  0  0  0  0  0  0  0  0  0  0  0
   -4.1847    0.4689    0.0000 H   0  0  0  0  0  0  0  0  0  0  0  0
   -3.1381    0.2465    0.0000 H   0  0  0  0  0  0  0  0  0  0  0  0
   -1.9460    1.8878    0.0000 H   0  0  0  0  0  0  0  0  0  0  0  0
   -1.6153    0.8702    0.0000 H   0  0  0  0  0  0  0  0  0  0  0  0
   -3.7085   -2.0340    0.0000 H   0  0  0  0  0  0  0  0  0  0  0  0
   -1.9460   -2.6068    0.0000 H   0  0  0  0  0  0  0  0  0  0  0  0
   -2.9926   -2.8292    0.0000 H   0  0  0  0  0  0  0  0  0  0  0  0
    0.6592   -1.2642    0.0000 H   0  0  0  0  0  0  0  0  0  0  0  0
   -0.1595    1.9766    0.0000 H   0  0  0  0  0  0  0  0  0  0  0  0
    0.8895    3.5611    0.0000 H   0  0  0  0  0  0  0  0  0  0  0  0
    0.1710    1.9471    0.0000 H   0  0  0  0  0  0  0  0  0  0  0  0
    3.0261   -0.2160    0.0000 H   0  0  0  0  0  0  0  0  0  0  0  0
    3.2485   -1.2626    0.0000 H   0  0  0  0  0  0  0  0  0  0  0  0
    1.6074   -2.4550    0.0000 H   0  0  0  0  0  0  0  0  0  0  0  0
    3.4202   -2.0694    0.0000 H   0  0  0  0  0  0  0  0  0  0  0  0
    2.6251   -2.7855    0.0000 H   0  0  0  0  0  0  0  0  0  0  0  0
  1  2  1  0  0  0  0
  1 27  1  0  0  0  0
  1 28  1  0  0  0  0
  1 29  1  0  0  0  0
  2  3  1  0  0  0  0
  2 30  1  0  0  0  0
  2 31  1  0  0  0  0
  3  4  1  0  0  0  0
  3 32  1  0  0  0  0
  3 33  1  0  0  0  0
  4  5  1  0  0  0  0
  4  7  2  0  0  0  0
  5  6  1  0  0  0  0
  5 10  2  0  0  0  0
  6 14  2  0  0  0  0
  7  8  1  0  0  0  0
  8  9  1  0  0  0  0
  8 10  1  0  0  0  0
  9 34  1  0  0  0  0
  9 35  1  0  0  0  0
  9 36  1  0  0  0  0
 10 11  1  0  0  0  0
 11 12  2  0  0  0  0
 11 13  1  0  0  0  0
 13 14  1  0  0  0  0
 13 37  1  0  0  0  0
 14 15  1  0  0  0  0
 15 16  1  0  0  0  0
 15 23  2  0  0  0  0
 16 17  2  0  0  0  0
 16 38  1  0  0  0  0
 17 18  1  0  0  0  0
 17 22  1  0  0  0  0
 18 19  2  0  0  0  0
 18 20  2  0  0  0  0
 18 21  1  0  0  0  0
 21 39  1  0  0  0  0
 21 40  1  0  0  0  0
 22 23  1  0  0  0  0
 23 24  1  0  0  0  0
 24 25  1  0  0  0  0
 25 26  1  0  0  0  0
 25 41  1  0  0  0  0
 25 42  1  0  0  0  0
 26 43  1  0  0  0  0
 26 44  1  0  0  0  0
 26 45  1  0  0  0  0
M  END
>  <DRUGBANK_ID>
DB08729

>  <COMMON_NAME>
5-ethoxy-4-(1-methyl-7-oxo-3-propyl-6,7-dihydro-1H-pyrazolo[4,3-d]pyrimidin-5-yl)thiophene-2-sulfonamide

$$$$
