
 OpenBabel10282417072D

 46 47  0  0  0  0  0  0  0  0999 V2000
   13.2730    0.1105    0.0000 C   0  0  0  0  0  0  0  0  0  0  0  0
   12.4480    1.5395    0.0000 C   0  0  0  0  0  0  0  0  0  0  0  0
    5.7158    0.8250    0.0000 C   0  0  0  0  0  0  0  0  0  0  0  0
   10.0026    0.8250    0.0000 C   0  0  0  0  0  0  0  0  0  0  0  0
    6.4302    0.4125    0.0000 C   0  0  0  0  0  0  0  0  0  0  0  0
   15.7184    0.8250    0.0000 C   0  0  0  0  0  0  0  0  0  0  0  0
   15.0039   -0.4125    0.0000 C   0  0  0  0  0  0  0  0  0  0  0  0
   15.0039    1.2375    0.0000 C   0  0  0  0  0  0  0  0  0  0  0  0
   14.2894    0.0000    0.0000 C   0  0  0  0  0  0  0  0  0  0  0  0
    5.7158    1.6500    0.0000 C   0  0  0  0  0  0  0  0  0  0  0  0
    9.2881    0.4125    0.0000 C   0  0  0  0  0  0  0  0  0  0  0  0
   10.7171    0.4125    0.0000 C   0  0  0  0  0  0  0  0  0  0  0  0
    7.1447    1.6500    0.0000 C   0  0  0  0  0  0  0  0  0  0  0  0
    7.1447    0.8250    0.0000 C   0  0  0  0  0  0  0  0  0  0  0  0
   15.7184    0.0000    0.0000 C   0  0  0  0  0  0  0  0  0  0  0  0
   14.2894    0.8250    0.0000 C   0  0  0  0  0  0  0  0  0  0  0  0
    7.8592    0.4125    0.0000 C   0  0  0  0  0  0  0  0  0  0  0  0
   12.1460    0.4125    0.0000 C   0  0  0  0  0  0  0  0  0  0  0  0
   12.8605    0.8250    0.0000 C   0  0  0  0  0  0  0  0  0  0  0  0
   16.4328   -0.4125    0.0000 Cl  0  0  0  0  0  0  0  0  0  0  0  0
    6.4302    2.0625    0.0000 N   0  0  0  0  0  0  0  0  0  0  0  0
    7.8592   -0.4125    0.0000 O   0  0  0  0  0  0  0  0  0  0  0  0
   12.1460   -0.4125    0.0000 O   0  0  0  0  0  0  0  0  0  0  0  0
    8.5737    0.8250    0.0000 O   0  0  0  0  0  0  0  0  0  0  0  0
   11.4315    0.8250    0.0000 O   0  0  0  0  0  0  0  0  0  0  0  0
   13.5749    1.2375    0.0000 O   0  0  0  0  0  0  0  0  0  0  0  0
   12.7380   -0.8161    0.0000 H   0  0  0  0  0  0  0  0  0  0  0  0
   14.3430    0.1105    0.0000 H   0  0  0  0  0  0  0  0  0  0  0  0
   13.8080   -0.8162    0.0000 H   0  0  0  0  0  0  0  0  0  0  0  0
   12.9830    2.4661    0.0000 H   0  0  0  0  0  0  0  0  0  0  0  0
   11.3780    1.5395    0.0000 H   0  0  0  0  0  0  0  0  0  0  0  0
   11.9130    2.4662    0.0000 H   0  0  0  0  0  0  0  0  0  0  0  0
    4.8221    0.3090    0.0000 H   0  0  0  0  0  0  0  0  0  0  0  0
   10.0026    1.8950    0.0000 H   0  0  0  0  0  0  0  0  0  0  0  0
   10.9292    1.3600    0.0000 H   0  0  0  0  0  0  0  0  0  0  0  0
    6.4302   -0.6195    0.0000 H   0  0  0  0  0  0  0  0  0  0  0  0
   16.6121    1.3410    0.0000 H   0  0  0  0  0  0  0  0  0  0  0  0
   15.0039   -1.4445    0.0000 H   0  0  0  0  0  0  0  0  0  0  0  0
   15.0039    2.2695    0.0000 H   0  0  0  0  0  0  0  0  0  0  0  0
   13.3957   -0.5160    0.0000 H   0  0  0  0  0  0  0  0  0  0  0  0
    4.8221    2.1660    0.0000 H   0  0  0  0  0  0  0  0  0  0  0  0
    9.2881   -0.6575    0.0000 H   0  0  0  0  0  0  0  0  0  0  0  0
    8.3614   -0.1225    0.0000 H   0  0  0  0  0  0  0  0  0  0  0  0
   10.7171   -0.6575    0.0000 H   0  0  0  0  0  0  0  0  0  0  0  0
   11.6438   -0.1225    0.0000 H   0  0  0  0  0  0  0  0  0  0  0  0
    8.0384    2.1660    0.0000 H   0  0  0  0  0  0  0  0  0  0  0  0
  1 27  1  0  0  0  0
  1 28  1  0  0  0  0
  1 29  1  0  0  0  0
  2 30  1  0  0  0  0
  2 31  1  0  0  0  0
  2 32  1  0  0  0  0
  3 33  1  0  0  0  0
  4 34  1  0  0  0  0
  4 35  1  0  0  0  0
  5  3  2  0  0  0  0
  5 36  1  0  0  0  0
  6 37  1  0  0  0  0
  7 38  1  0  0  0  0
  8  6  1  0  0  0  0
  8 39  1  0  0  0  0
  9  7  2  0  0  0  0
  9 40  1  0  0  0  0
 10  3  1  0  0  0  0
 10 41  1  0  0  0  0
 11  4  1  0  0  0  0
 11 42  1  0  0  0  0
 11 43  1  0  0  0  0
 12  4  1  0  0  0  0
 12 44  1  0  0  0  0
 12 45  1  0  0  0  0
 13 46  1  0  0  0  0
 14  5  1  0  0  0  0
 14 13  2  0  0  0  0
 15  6  2  0  0  0  0
 15  7  1  0  0  0  0
 16  8  2  0  0  0  0
 16  9  1  0  0  0  0
 17 14  1  0  0  0  0
 19  1  1  0  0  0  0
 19  2  1  0  0  0  0
 19 18  1  0  0  0  0
 20 15  1  0  0  0  0
 21 10  2  0  0  0  0
 21 13  1  0  0  0  0
 22 17  2  0  0  0  0
 23 18  2  0  0  0  0
 24 11  1  0  0  0  0
 24 17  1  0  0  0  0
 25 12  1  0  0  0  0
 25 18  1  0  0  0  0
 26 16  1  0  0  0  0
 26 19  1  0  0  0  0
M  END
>  <DRUGBANK_ID>
DB13460

>  <COMMON_NAME>
Ronifibrate

>  <CAS_NUMBER>
42597-57-9

>  <UNII>
W86I18X716

>  <SYNONYMS>
Ronifibrate

$$$$
