
 OpenBabel10282417072D

 48 53  0  0  1  0  0  0  0  0999 V2000
    6.1127   -0.8070    0.0000 C   0  0  0  0  0  0  0  0  0  0  0  0
    5.7971   -1.5693    0.0000 C   0  0  0  0  0  0  0  0  0  0  0  0
    6.2995   -2.2237    0.0000 N   0  0  0  0  0  0  0  0  0  0  0  0
    5.9839   -2.9860    0.0000 C   0  0  0  0  0  0  0  0  0  0  0  0
    5.1659   -3.0938    0.0000 C   0  0  0  0  0  0  0  0  0  0  0  0
    4.6636   -2.4394    0.0000 C   0  0  0  0  0  0  0  0  0  0  0  0
    4.9792   -1.6771    0.0000 C   0  0  0  0  0  0  0  0  0  0  0  0
    4.4769   -1.0227    0.0000 C   0  0  0  0  0  0  0  0  0  0  0  0
    3.6589   -1.1305    0.0000 C   0  0  0  0  0  0  0  0  0  0  0  0
    3.1566   -0.4761    0.0000 C   0  0  0  0  0  0  0  0  0  0  0  0
    2.4249   -0.8571    0.0000 O   0  0  0  0  0  0  0  0  0  0  0  0
    1.6194   -0.6787    0.0000 C   0  0  0  0  0  0  0  0  0  0  0  0
    1.1171   -0.0243    0.0000 C   0  0  2  0  0  0  0  0  0  0  0  0
    0.3221   -0.2449    0.0000 C   0  0  0  0  0  0  0  0  0  0  0  0
   -0.1334    0.4430    0.0000 O   0  0  0  0  0  0  0  0  0  0  0  0
    0.3801    1.0887    0.0000 C   0  0  0  0  0  0  0  0  0  0  0  0
    0.2438    1.9024    0.0000 C   0  0  0  0  0  0  0  0  0  0  0  0
    0.8803    2.4273    0.0000 C   0  0  0  0  0  0  0  0  0  0  0  0
    1.6531    2.1385    0.0000 C   0  0  0  0  0  0  0  0  0  0  0  0
    2.3121    2.6348    0.0000 F   0  0  0  0  0  0  0  0  0  0  0  0
    1.7102    1.4083    0.0000 C   0  0  0  0  0  0  0  0  0  0  0  0
    2.5281    1.5161    0.0000 C   0  0  0  0  0  0  0  0  0  0  0  0
    3.2240    1.0730    0.0000 N   0  0  0  0  0  0  0  0  0  0  0  0
    3.4722    0.2862    0.0000 C   0  0  0  0  0  0  0  0  0  0  0  0
    4.2901    0.3940    0.0000 N   0  0  0  0  0  0  0  0  0  0  0  0
    4.7573    1.0740    0.0000 C   0  0  0  0  0  0  0  0  0  0  0  0
    5.5483    0.8398    0.0000 N   0  0  0  0  0  0  0  0  0  0  0  0
    5.5701    0.0151    0.0000 N   0  0  0  0  0  0  0  0  0  0  0  0
    4.7924   -0.2604    0.0000 C   0  0  0  0  0  0  0  0  0  0  0  0
    1.1529    0.7999    0.0000 C   0  0  0  0  0  0  0  0  0  0  0  0
    7.1735   -0.6672    0.0000 H   0  0  0  0  0  0  0  0  0  0  0  0
    5.4612    0.0418    0.0000 H   0  0  0  0  0  0  0  0  0  0  0  0
    6.5220    0.1816    0.0000 H   0  0  0  0  0  0  0  0  0  0  0  0
    6.6123   -3.8046    0.0000 H   0  0  0  0  0  0  0  0  0  0  0  0
    4.7711   -4.0473    0.0000 H   0  0  0  0  0  0  0  0  0  0  0  0
    3.6405   -2.5743    0.0000 H   0  0  0  0  0  0  0  0  0  0  0  0
    3.2641   -2.0840    0.0000 H   0  0  0  0  0  0  0  0  0  0  0  0
    1.0447   -1.5812    0.0000 H   0  0  0  0  0  0  0  0  0  0  0  0
    0.5504   -0.7256    0.0000 H   0  0  0  0  0  0  0  0  0  0  0  0
    0.7777   -1.0391    0.0000 H   0  0  0  0  0  0  0  0  0  0  0  0
   -0.0525   -1.2472    0.0000 H   0  0  0  0  0  0  0  0  0  0  0  0
   -0.7410   -0.3662    0.0000 H   0  0  0  0  0  0  0  0  0  0  0  0
   -0.7229    2.2636    0.0000 H   0  0  0  0  0  0  0  0  0  0  0  0
    0.7098    3.4451    0.0000 H   0  0  0  0  0  0  0  0  0  0  0  0
    2.7595    2.5608    0.0000 H   0  0  0  0  0  0  0  0  0  0  0  0
    3.5166    1.9258    0.0000 H   0  0  0  0  0  0  0  0  0  0  0  0
    4.0049    1.6725    0.0000 H   0  0  0  0  0  0  0  0  0  0  0  0
    4.4127    2.0468    0.0000 H   0  0  0  0  0  0  0  0  0  0  0  0
  1  2  1  0  0  0  0
  1 31  1  0  0  0  0
  1 32  1  0  0  0  0
  1 33  1  0  0  0  0
  2  3  2  0  0  0  0
  2  7  1  0  0  0  0
  3  4  1  0  0  0  0
  4  5  2  0  0  0  0
  4 34  1  0  0  0  0
  5  6  1  0  0  0  0
  5 35  1  0  0  0  0
  6  7  2  0  0  0  0
  6 36  1  0  0  0  0
  7  8  1  0  0  0  0
  8  9  2  0  0  0  0
  8 29  1  0  0  0  0
  9 10  1  0  0  0  0
  9 37  1  0  0  0  0
 10 11  1  0  0  0  0
 10 24  2  0  0  0  0
 11 12  1  0  0  0  0
 12 38  1  0  0  0  0
 12 39  1  0  0  0  0
 13 12  1  0  0  0  0
 13 14  1  0  0  0  0
 13 30  1  0  0  0  0
 13 40  1  1  0  0  0
 14 15  1  0  0  0  0
 14 41  1  0  0  0  0
 14 42  1  0  0  0  0
 15 16  1  0  0  0  0
 16 17  2  0  0  0  0
 16 30  1  0  0  0  0
 17 18  1  0  0  0  0
 17 43  1  0  0  0  0
 18 19  2  0  0  0  0
 18 44  1  0  0  0  0
 19 20  1  0  0  0  0
 19 21  1  0  0  0  0
 21 22  1  0  0  0  0
 21 30  2  0  0  0  0
 22 23  1  0  0  0  0
 22 45  1  0  0  0  0
 22 46  1  0  0  0  0
 23 24  1  0  0  0  0
 23 47  1  0  0  0  0
 24 25  1  0  0  0  0
 25 26  1  0  0  0  0
 25 29  1  0  0  0  0
 26 27  2  0  0  0  0
 26 48  1  0  0  0  0
 27 28  1  0  0  0  0
 28 29  2  0  0  0  0
M  END
>  <DRUGBANK_ID>
DB18070

>  <COMMON_NAME>
Pociredir

>  <CAS_NUMBER>
2490676-18-9

>  <UNII>
Q7VU9N2UO2

>  <SYNONYMS>
7h-furo(4,3,2-gh)(1,2,4)triazolo(4',3':1,6)pyrido(2,3-c)(5,2)benzoxazonine, 12-fluoro-7a,8,13,14-tetrahydro-4-(2-methyl-3-pyridinyl)-, (7as)-; Pociredir, (s)-

$$$$
