
 OpenBabel10282417072D

 22 22  0  0  0  0  0  0  0  0999 V2000
   -1.0717    0.0000    0.0000 C   0  0  0  0  0  0  0  0  0  0  0  0
   -0.3572    0.4125    0.0000 C   0  0  0  0  0  0  0  0  0  0  0  0
   -1.0717   -0.8250    0.0000 C   0  0  0  0  0  0  0  0  0  0  0  0
   -1.7861    0.4125    0.0000 C   0  0  0  0  0  0  0  0  0  0  0  0
    0.3572    0.0000    0.0000 N   0  0  0  0  0  0  0  0  0  0  0  0
   -0.3572    1.2374    0.0000 O   0  0  0  0  0  0  0  0  0  0  0  0
   -1.7861   -1.2374    0.0000 C   0  0  0  0  0  0  0  0  0  0  0  0
   -2.5006    0.0000    0.0000 C   0  0  0  0  0  0  0  0  0  0  0  0
    1.0716    0.4125    0.0000 C   0  0  0  0  0  0  0  0  0  0  0  0
   -2.5006   -0.8250    0.0000 C   0  0  0  0  0  0  0  0  0  0  0  0
    1.7861    0.0000    0.0000 C   0  0  0  0  0  0  0  0  0  0  0  0
    2.5006    0.4125    0.0000 O   0  0  0  0  0  0  0  0  0  0  0  0
    1.7861   -0.8250    0.0000 O   0  0  0  0  0  0  0  0  0  0  0  0
   -0.1780   -1.3410    0.0000 H   0  0  0  0  0  0  0  0  0  0  0  0
   -1.7861    1.4445    0.0000 H   0  0  0  0  0  0  0  0  0  0  0  0
    0.3572   -0.9845    0.0000 H   0  0  0  0  0  0  0  0  0  0  0  0
   -1.7861   -2.2694    0.0000 H   0  0  0  0  0  0  0  0  0  0  0  0
   -3.3943    0.5160    0.0000 H   0  0  0  0  0  0  0  0  0  0  0  0
    1.0716    1.4825    0.0000 H   0  0  0  0  0  0  0  0  0  0  0  0
    1.9982    0.9475    0.0000 H   0  0  0  0  0  0  0  0  0  0  0  0
   -3.3943   -1.3411    0.0000 H   0  0  0  0  0  0  0  0  0  0  0  0
    0.9746   -1.2935    0.0000 H   0  0  0  0  0  0  0  0  0  0  0  0
  1  2  1  0  0  0  0
  1  3  1  0  0  0  0
  1  4  2  0  0  0  0
  2  5  1  0  0  0  0
  2  6  2  0  0  0  0
  3  7  2  0  0  0  0
  3 14  1  0  0  0  0
  4  8  1  0  0  0  0
  4 15  1  0  0  0  0
  5  9  1  0  0  0  0
  5 16  1  0  0  0  0
  7 10  1  0  0  0  0
  7 17  1  0  0  0  0
  8 10  2  0  0  0  0
  8 18  1  0  0  0  0
  9 11  1  0  0  0  0
  9 19  1  0  0  0  0
  9 20  1  0  0  0  0
 10 21  1  0  0  0  0
 11 12  2  0  0  0  0
 11 13  1  0  0  0  0
 13 22  1  0  0  0  0
M  END
>  <DRUGBANK_ID>
DB16842

>  <COMMON_NAME>
Hippuric acid

>  <CAS_NUMBER>
495-69-2

>  <UNII>
TE0865N2ET

>  <SYNONYMS>
Acido ippurico; Benzamidoacetic acid; Benzoylaminoacetic acid; N-Benzoylglycine

$$$$
