999
 OpenBabel10282417072D

 25 26  0  0  0  0  0  0  0  0999 V2000
    2.8075    1.0170    0.0000 Cl  0  0  0  0  0  0  0  0  0  0  0  0
    5.6885   -0.6617    0.0000 S   0  0  0  0  0  0  0  0  0  0  0  0
    2.8075   -0.6330    0.0000 S   0  0  0  0  0  0  0  0  0  0  0  0
    6.0927   -1.3808    0.0000 O   0  0  0  0  0  0  0  0  0  0  0  0
    5.2677   -1.3713    0.0000 O   0  0  0  0  0  0  0  0  0  0  0  0
    3.2200   -1.3475    0.0000 O   0  0  0  0  0  0  0  0  0  0  0  0
    2.3950    0.0814    0.0000 O   0  0  0  0  0  0  0  0  0  0  0  0
    6.4360   -0.2377    0.0000 N   0  0  0  0  0  0  0  0  0  0  0  0
    5.6885    1.0456    0.0000 N   0  0  0  0  0  0  0  0  0  0  0  0
    2.0930   -1.0455    0.0000 N   0  0  0  0  0  0  0  0  0  0  0  0
    4.9509   -0.2205    0.0000 C   0  0  0  0  0  0  0  0  0  0  0  0
    4.9509    0.6045    0.0000 C   0  0  0  0  0  0  0  0  0  0  0  0
    6.4360    0.6217    0.0000 C   0  0  0  0  0  0  0  0  0  0  0  0
    4.2365   -0.6330    0.0000 C   0  0  0  0  0  0  0  0  0  0  0  0
    3.5220   -0.2205    0.0000 C   0  0  0  0  0  0  0  0  0  0  0  0
    4.2365    1.0170    0.0000 C   0  0  0  0  0  0  0  0  0  0  0  0
    3.5220    0.6045    0.0000 C   0  0  0  0  0  0  0  0  0  0  0  0
    7.3174   -0.7511    0.0000 H   0  0  0  0  0  0  0  0  0  0  0  0
    5.6771    2.0300    0.0000 H   0  0  0  0  0  0  0  0  0  0  0  0
    1.2097   -0.5355    0.0000 H   0  0  0  0  0  0  0  0  0  0  0  0
    2.0930   -2.0655    0.0000 H   0  0  0  0  0  0  0  0  0  0  0  0
    7.3606    1.1603    0.0000 H   0  0  0  0  0  0  0  0  0  0  0  0
    6.4298    1.6917    0.0000 H   0  0  0  0  0  0  0  0  0  0  0  0
    4.2365   -1.6650    0.0000 H   0  0  0  0  0  0  0  0  0  0  0  0
    4.2365    2.0490    0.0000 H   0  0  0  0  0  0  0  0  0  0  0  0
  1 17  1  0  0  0  0
  2  4  2  0  0  0  0
  2  5  2  0  0  0  0
  2  8  1  0  0  0  0
  2 11  1  0  0  0  0
  3  6  2  0  0  0  0
  3  7  2  0  0  0  0
  3 10  1  0  0  0  0
  3 15  1  0  0  0  0
  8 13  1  0  0  0  0
  8 18  1  0  0  0  0
  9 12  1  0  0  0  0
  9 13  1  0  0  0  0
  9 19  1  0  0  0  0
 10 20  1  0  0  0  0
 10 21  1  0  0  0  0
 11 12  1  0  0  0  0
 11 14  2  0  0  0  0
 12 16  2  0  0  0  0
 13 22  1  0  0  0  0
 13 23  1  0  0  0  0
 14 15  1  0  0  0  0
 14 24  1  0  0  0  0
 15 17  2  0  0  0  0
 16 17  1  0  0  0  0
 16 25  1  0  0  0  0
M  END
>  <DRUGBANK_ID>
DB00999

>  <SECONDARY_ACCESSION_NUMBERS>
APRD00092

>  <COMMON_NAME>
Hydrochlorothiazide

>  <CAS_NUMBER>
58-93-5

>  <UNII>
0J48LPH2TH

>  <SYNONYMS>
HCTZ; Hidroclorotiazida; Hydrochlorothiazide; Hydrochlorothiazidum

$$$$
