
 OpenBabel10282417072D

  1  0  0  0  0  0  0  0  0  0999 V2000
    0.0000    0.0000    0.0000 Cu  0  2  0  0  0  0  0  0  0  0  0  0
M  CHG  1   1   2
M  END
>  <DRUGBANK_ID>
DB14552

>  <COMMON_NAME>
Cupric cation

>  <CAS_NUMBER>
15158-11-9

>  <UNII>
8CBV67279L

>  <SYNONYMS>
Copper ion (Cu++); Copper ions; copper(2+); Copper(2+)ions; Cupric ion

$$$$
