
 OpenBabel10282417072D

 47 48  0  0  0  0  0  0  0  0999 V2000
   -1.0716    5.4903    0.0000 Cl  0  0  0  0  0  0  0  0  0  0  0  0
   -1.0716    2.1903    0.0000 S   0  0  0  0  0  0  0  0  0  0  0  0
    1.0716   -1.5221    0.0000 O   0  0  0  0  0  0  0  0  0  0  0  0
   -1.0716    0.5403    0.0000 O   0  0  0  0  0  0  0  0  0  0  0  0
    0.3572    0.5403    0.0000 N   0  0  0  0  0  0  0  0  0  0  0  0
    1.7862   -0.2846    0.0000 N   0  0  0  0  0  0  0  0  0  0  0  0
   -0.3572   -3.9971    0.0000 N   0  0  0  0  0  0  0  0  0  0  0  0
   -1.0716   -5.2346    0.0000 N   0  0  0  0  0  0  0  0  0  0  0  0
   -1.7862   -3.9971    0.0000 N   0  0  0  0  0  0  0  0  0  0  0  0
    0.3572   -0.2846    0.0000 C   0  0  3  0  0  0  0  0  0  0  0  0
   -0.3572   -0.6971    0.0000 C   0  0  0  0  0  0  0  0  0  0  0  0
   -0.3572   -1.5221    0.0000 C   0  0  0  0  0  0  0  0  0  0  0  0
    1.0716   -0.6971    0.0000 C   0  0  0  0  0  0  0  0  0  0  0  0
    0.3572   -1.9346    0.0000 C   0  0  0  0  0  0  0  0  0  0  0  0
   -1.0716   -1.9346    0.0000 C   0  0  0  0  0  0  0  0  0  0  0  0
   -0.3572    0.9528    0.0000 C   0  0  0  0  0  0  0  0  0  0  0  0
    0.3572   -2.7596    0.0000 C   0  0  0  0  0  0  0  0  0  0  0  0
   -1.0716   -2.7596    0.0000 C   0  0  0  0  0  0  0  0  0  0  0  0
   -0.3572   -3.1721    0.0000 C   0  0  0  0  0  0  0  0  0  0  0  0
   -0.3572    1.7778    0.0000 C   0  0  0  0  0  0  0  0  0  0  0  0
   -1.0716    3.0153    0.0000 C   0  0  0  0  0  0  0  0  0  0  0  0
   -0.3572    3.4278    0.0000 C   0  0  0  0  0  0  0  0  0  0  0  0
   -1.7862    3.4278    0.0000 C   0  0  0  0  0  0  0  0  0  0  0  0
   -1.0716   -4.4096    0.0000 C   0  0  0  0  0  0  0  0  0  0  0  0
   -0.3572    4.2528    0.0000 C   0  0  0  0  0  0  0  0  0  0  0  0
   -1.7862    4.2528    0.0000 C   0  0  0  0  0  0  0  0  0  0  0  0
   -1.0716    4.6653    0.0000 C   0  0  0  0  0  0  0  0  0  0  0  0
    1.2098    1.0325    0.0000 H   0  0  0  0  0  0  0  0  0  0  0  0
    2.6388   -0.7769    0.0000 H   0  0  0  0  0  0  0  0  0  0  0  0
    1.7863    0.6999    0.0000 H   0  0  0  0  0  0  0  0  0  0  0  0
   -1.9242   -5.7269    0.0000 H   0  0  0  0  0  0  0  0  0  0  0  0
   -0.2190   -5.7269    0.0000 H   0  0  0  0  0  0  0  0  0  0  0  0
   -1.7863   -3.0126    0.0000 H   0  0  0  0  0  0  0  0  0  0  0  0
   -2.6388   -4.4894    0.0000 H   0  0  0  0  0  0  0  0  0  0  0  0
   -0.5695    0.2504    0.0000 H   0  0  0  0  0  0  0  0  0  0  0  0
   -1.2839   -0.1621    0.0000 H   0  0  0  0  0  0  0  0  0  0  0  0
   -1.2838   -1.2321    0.0000 H   0  0  0  0  0  0  0  0  0  0  0  0
    1.2509   -1.4186    0.0000 H   0  0  0  0  0  0  0  0  0  0  0  0
   -1.9653   -1.4186    0.0000 H   0  0  0  0  0  0  0  0  0  0  0  0
    1.2509   -3.2756    0.0000 H   0  0  0  0  0  0  0  0  0  0  0  0
   -1.9653   -3.2756    0.0000 H   0  0  0  0  0  0  0  0  0  0  0  0
    0.5695    2.3128    0.0000 H   0  0  0  0  0  0  0  0  0  0  0  0
    0.5694    1.2428    0.0000 H   0  0  0  0  0  0  0  0  0  0  0  0
    0.5365    2.9118    0.0000 H   0  0  0  0  0  0  0  0  0  0  0  0
   -2.6799    2.9118    0.0000 H   0  0  0  0  0  0  0  0  0  0  0  0
    0.5365    4.7688    0.0000 H   0  0  0  0  0  0  0  0  0  0  0  0
   -2.6799    4.7688    0.0000 H   0  0  0  0  0  0  0  0  0  0  0  0
  1 27  1  0  0  0  0
  2 20  1  0  0  0  0
  2 21  1  0  0  0  0
  3 13  2  0  0  0  0
  4 16  2  0  0  0  0
  5 16  1  0  0  0  0
  5 28  1  0  0  0  0
  6 13  1  0  0  0  0
  6 29  1  0  0  0  0
  6 30  1  0  0  0  0
  7 19  1  0  0  0  0
  7 24  2  0  0  0  0
  8 24  1  0  0  0  0
  8 31  1  0  0  0  0
  8 32  1  0  0  0  0
  9 24  1  0  0  0  0
  9 33  1  0  0  0  0
  9 34  1  0  0  0  0
 10  5  1  0  0  0  0
 10 11  1  0  0  0  0
 10 13  1  0  0  0  0
 10 35  1  0  0  0  0
 11 12  1  0  0  0  0
 11 36  1  0  0  0  0
 11 37  1  0  0  0  0
 12 14  2  0  0  0  0
 12 15  1  0  0  0  0
 14 17  1  0  0  0  0
 14 38  1  0  0  0  0
 15 18  2  0  0  0  0
 15 39  1  0  0  0  0
 16 20  1  0  0  0  0
 17 19  2  0  0  0  0
 17 40  1  0  0  0  0
 18 19  1  0  0  0  0
 18 41  1  0  0  0  0
 20 42  1  0  0  0  0
 20 43  1  0  0  0  0
 21 22  2  0  0  0  0
 21 23  1  0  0  0  0
 22 25  1  0  0  0  0
 22 44  1  0  0  0  0
 23 26  2  0  0  0  0
 23 45  1  0  0  0  0
 25 27  2  0  0  0  0
 25 46  1  0  0  0  0
 26 27  1  0  0  0  0
 26 47  1  0  0  0  0
M  END
>  <DRUGBANK_ID>
DB07105

>  <COMMON_NAME>
2-[2-(4-Chloro-Phenylsulfanyl)-Acetylamino]-3-(4-Guanidino-Phenyl)-Propionamide

$$$$
