DSB
 OpenBabel10282417072D

 30 29  0  0  0  0  0  0  0  0999 V2000
   -3.0605    0.8344    0.0000 C   0  0  0  0  0  0  0  0  0  0  0  0
   -3.7749    0.4219    0.0000 O   0  0  0  0  0  0  0  0  0  0  0  0
   -2.3460    0.4219    0.0000 C   0  0  0  0  0  0  0  0  0  0  0  0
   -1.6315    0.8344    0.0000 C   0  0  0  0  0  0  0  0  0  0  0  0
   -0.2026    0.8344    0.0000 C   0  0  0  0  0  0  0  0  0  0  0  0
   -3.0605    1.6594    0.0000 O   0  0  0  0  0  0  0  0  0  0  0  0
    0.5119    0.4219    0.0000 C   0  0  0  0  0  0  0  0  0  0  0  0
    1.9408    0.4219    0.0000 C   0  0  0  0  0  0  0  0  0  0  0  0
    2.6553    0.8344    0.0000 C   0  0  0  0  0  0  0  0  0  0  0  0
    3.3698    0.4219    0.0000 C   0  0  0  0  0  0  0  0  0  0  0  0
    4.0842    0.8344    0.0000 O   0  0  0  0  0  0  0  0  0  0  0  0
    3.3698   -0.4031    0.0000 O   0  0  0  0  0  0  0  0  0  0  0  0
    1.2264    0.8344    0.0000 C   0  0  0  0  0  0  0  0  0  0  0  0
   -0.9171    0.4219    0.0000 C   0  0  0  0  0  0  0  0  0  0  0  0
   -0.9171   -0.4031    0.0000 O   0  0  0  0  0  0  0  0  0  0  0  0
    1.2264    1.6594    0.0000 O   0  0  0  0  0  0  0  0  0  0  0  0
   -2.3460   -0.6481    0.0000 H   0  0  0  0  0  0  0  0  0  0  0  0
   -1.4194   -0.1131    0.0000 H   0  0  0  0  0  0  0  0  0  0  0  0
   -1.6315    1.9044    0.0000 H   0  0  0  0  0  0  0  0  0  0  0  0
   -0.7048    1.3694    0.0000 H   0  0  0  0  0  0  0  0  0  0  0  0
   -0.2026    1.9044    0.0000 H   0  0  0  0  0  0  0  0  0  0  0  0
   -1.1292    1.3694    0.0000 H   0  0  0  0  0  0  0  0  0  0  0  0
   -2.2490    2.1279    0.0000 H   0  0  0  0  0  0  0  0  0  0  0  0
    0.5119   -0.6481    0.0000 H   0  0  0  0  0  0  0  0  0  0  0  0
    1.4385   -0.1131    0.0000 H   0  0  0  0  0  0  0  0  0  0  0  0
    1.9408   -0.6481    0.0000 H   0  0  0  0  0  0  0  0  0  0  0  0
    1.0141   -0.1131    0.0000 H   0  0  0  0  0  0  0  0  0  0  0  0
    2.6553    1.9044    0.0000 H   0  0  0  0  0  0  0  0  0  0  0  0
    3.5819    1.3694    0.0000 H   0  0  0  0  0  0  0  0  0  0  0  0
    4.8957    0.3659    0.0000 H   0  0  0  0  0  0  0  0  0  0  0  0
  1  2  2  0  0  0  0
  1  3  1  0  0  0  0
  1  6  1  0  0  0  0
  3  4  1  0  0  0  0
  3 17  1  0  0  0  0
  3 18  1  0  0  0  0
  4 14  1  0  0  0  0
  4 19  1  0  0  0  0
  4 20  1  0  0  0  0
  5  7  1  0  0  0  0
  5 14  1  0  0  0  0
  5 21  1  0  0  0  0
  5 22  1  0  0  0  0
  6 23  1  0  0  0  0
  7 13  1  0  0  0  0
  7 24  1  0  0  0  0
  7 25  1  0  0  0  0
  8  9  1  0  0  0  0
  8 13  1  0  0  0  0
  8 26  1  0  0  0  0
  8 27  1  0  0  0  0
  9 10  1  0  0  0  0
  9 28  1  0  0  0  0
  9 29  1  0  0  0  0
 10 11  1  0  0  0  0
 10 12  2  0  0  0  0
 11 30  1  0  0  0  0
 13 16  2  0  0  0  0
 14 15  2  0  0  0  0
M  END
>  <DRUGBANK_ID>
DB04560

>  <SECONDARY_ACCESSION_NUMBERS>
EXPT01272

>  <COMMON_NAME>
4,7-Dioxosebacic Acid

$$$$
