
 OpenBabel10282417072D

 53 52  0  0  0  0  0  0  0  0999 V2000
   -5.7158    0.6187    0.0000 C   0  0  0  0  0  0  0  0  0  0  0  0
    5.7158    0.6187    0.0000 C   0  0  0  0  0  0  0  0  0  0  0  0
    5.0013   -0.6187    0.0000 C   0  0  0  0  0  0  0  0  0  0  0  0
   -5.0012    0.2062    0.0000 C   0  0  0  0  0  0  0  0  0  0  0  0
   -4.2867    0.6187    0.0000 C   0  0  0  0  0  0  0  0  0  0  0  0
   -3.5723    0.2062    0.0000 C   0  0  0  0  0  0  0  0  0  0  0  0
   -2.8579    0.6187    0.0000 C   0  0  0  0  0  0  0  0  0  0  0  0
   -2.1433    0.2062    0.0000 C   0  0  0  0  0  0  0  0  0  0  0  0
   -1.4288    0.6187    0.0000 C   0  0  0  0  0  0  0  0  0  0  0  0
   -0.7144    0.2062    0.0000 C   0  0  0  0  0  0  0  0  0  0  0  0
    0.0000    0.6187    0.0000 C   0  0  0  0  0  0  0  0  0  0  0  0
    0.7144    0.2062    0.0000 C   0  0  0  0  0  0  0  0  0  0  0  0
    1.4289    0.6187    0.0000 C   0  0  0  0  0  0  0  0  0  0  0  0
    2.1434    0.2062    0.0000 C   0  0  0  0  0  0  0  0  0  0  0  0
    2.8579    0.6187    0.0000 C   0  0  0  0  0  0  0  0  0  0  0  0
    5.0013    0.2062    0.0000 C   0  0  0  0  0  0  0  0  0  0  0  0
    3.5723    0.2062    0.0000 C   0  0  0  0  0  0  0  0  0  0  0  0
    3.5723   -0.6187    0.0000 O   0  0  0  0  0  0  0  0  0  0  0  0
    4.2867    0.6187    0.0000 O   0  0  0  0  0  0  0  0  0  0  0  0
   -5.7159    1.6887    0.0000 H   0  0  0  0  0  0  0  0  0  0  0  0
   -6.6424    0.0836    0.0000 H   0  0  0  0  0  0  0  0  0  0  0  0
   -6.6425    1.1536    0.0000 H   0  0  0  0  0  0  0  0  0  0  0  0
    6.6424    0.0837    0.0000 H   0  0  0  0  0  0  0  0  0  0  0  0
    5.7158    1.6887    0.0000 H   0  0  0  0  0  0  0  0  0  0  0  0
    6.6425    1.1537    0.0000 H   0  0  0  0  0  0  0  0  0  0  0  0
    4.0747   -1.1537    0.0000 H   0  0  0  0  0  0  0  0  0  0  0  0
    5.9279   -1.1537    0.0000 H   0  0  0  0  0  0  0  0  0  0  0  0
    5.0013   -1.6887    0.0000 H   0  0  0  0  0  0  0  0  0  0  0  0
   -5.0012   -0.8638    0.0000 H   0  0  0  0  0  0  0  0  0  0  0  0
   -4.0745   -0.3288    0.0000 H   0  0  0  0  0  0  0  0  0  0  0  0
   -4.2867    1.6887    0.0000 H   0  0  0  0  0  0  0  0  0  0  0  0
   -3.3600    1.1537    0.0000 H   0  0  0  0  0  0  0  0  0  0  0  0
   -3.5723   -0.8638    0.0000 H   0  0  0  0  0  0  0  0  0  0  0  0
   -2.6456   -0.3288    0.0000 H   0  0  0  0  0  0  0  0  0  0  0  0
   -2.8580    1.6887    0.0000 H   0  0  0  0  0  0  0  0  0  0  0  0
   -1.9313    1.1538    0.0000 H   0  0  0  0  0  0  0  0  0  0  0  0
   -2.1433   -0.8638    0.0000 H   0  0  0  0  0  0  0  0  0  0  0  0
   -1.2166   -0.3288    0.0000 H   0  0  0  0  0  0  0  0  0  0  0  0
   -1.4288    1.6887    0.0000 H   0  0  0  0  0  0  0  0  0  0  0  0
   -0.5021    1.1537    0.0000 H   0  0  0  0  0  0  0  0  0  0  0  0
   -0.7144   -0.8638    0.0000 H   0  0  0  0  0  0  0  0  0  0  0  0
    0.2123   -0.3288    0.0000 H   0  0  0  0  0  0  0  0  0  0  0  0
    0.0000    1.6887    0.0000 H   0  0  0  0  0  0  0  0  0  0  0  0
    0.9267    1.1537    0.0000 H   0  0  0  0  0  0  0  0  0  0  0  0
    0.7144   -0.8638    0.0000 H   0  0  0  0  0  0  0  0  0  0  0  0
    1.6410   -0.3288    0.0000 H   0  0  0  0  0  0  0  0  0  0  0  0
    1.4289    1.6887    0.0000 H   0  0  0  0  0  0  0  0  0  0  0  0
    2.3555    1.1537    0.0000 H   0  0  0  0  0  0  0  0  0  0  0  0
    2.1434   -0.8638    0.0000 H   0  0  0  0  0  0  0  0  0  0  0  0
    3.0700   -0.3288    0.0000 H   0  0  0  0  0  0  0  0  0  0  0  0
    2.8579    1.6887    0.0000 H   0  0  0  0  0  0  0  0  0  0  0  0
    3.7846    1.1537    0.0000 H   0  0  0  0  0  0  0  0  0  0  0  0
    4.0747   -0.3288    0.0000 H   0  0  0  0  0  0  0  0  0  0  0  0
  1 20  1  0  0  0  0
  1 21  1  0  0  0  0
  1 22  1  0  0  0  0
  2 23  1  0  0  0  0
  2 24  1  0  0  0  0
  2 25  1  0  0  0  0
  3 26  1  0  0  0  0
  3 27  1  0  0  0  0
  3 28  1  0  0  0  0
  4  1  1  0  0  0  0
  4 29  1  0  0  0  0
  4 30  1  0  0  0  0
  5  4  1  0  0  0  0
  5 31  1  0  0  0  0
  5 32  1  0  0  0  0
  6  5  1  0  0  0  0
  6 33  1  0  0  0  0
  6 34  1  0  0  0  0
  7  6  1  0  0  0  0
  7 35  1  0  0  0  0
  7 36  1  0  0  0  0
  8  7  1  0  0  0  0
  8 37  1  0  0  0  0
  8 38  1  0  0  0  0
  9  8  1  0  0  0  0
  9 39  1  0  0  0  0
  9 40  1  0  0  0  0
 10  9  1  0  0  0  0
 10 41  1  0  0  0  0
 10 42  1  0  0  0  0
 11 10  1  0  0  0  0
 11 43  1  0  0  0  0
 11 44  1  0  0  0  0
 12 11  1  0  0  0  0
 12 45  1  0  0  0  0
 12 46  1  0  0  0  0
 13 12  1  0  0  0  0
 13 47  1  0  0  0  0
 13 48  1  0  0  0  0
 14 13  1  0  0  0  0
 14 49  1  0  0  0  0
 14 50  1  0  0  0  0
 15 14  1  0  0  0  0
 15 51  1  0  0  0  0
 15 52  1  0  0  0  0
 16  2  1  0  0  0  0
 16  3  1  0  0  0  0
 16 53  1  0  0  0  0
 17 15  1  0  0  0  0
 18 17  2  0  0  0  0
 19 16  1  0  0  0  0
 19 17  1  0  0  0  0
M  END
>  <DRUGBANK_ID>
DB13966

>  <COMMON_NAME>
Isopropyl myristate

>  <CAS_NUMBER>
110-27-0

>  <UNII>
0RE8K4LNJS

>  <SYNONYMS>
1-Methylethyl tetradecanoate; Isopropyl myristate; Isopropyl tetradecanoate

$$$$
