4841
 OpenBabel10282417072D

 56 59  0  0  0  0  0  0  0  0999 V2000
    1.6500   -3.9188    0.0000 F   0  0  0  0  0  0  0  0  0  0  0  0
    7.3659   -3.9188    0.0000 F   0  0  0  0  0  0  0  0  0  0  0  0
    4.5080   -1.4438    0.0000 N   0  0  0  0  0  0  0  0  0  0  0  0
    4.5080    0.2063    0.0000 N   0  0  0  0  0  0  0  0  0  0  0  0
    3.7935   -1.0313    0.0000 C   0  0  0  0  0  0  0  0  0  0  0  0
    5.2224   -1.0313    0.0000 C   0  0  0  0  0  0  0  0  0  0  0  0
    4.5080   -2.2688    0.0000 C   0  0  0  0  0  0  0  0  0  0  0  0
    3.7935   -0.2063    0.0000 C   0  0  0  0  0  0  0  0  0  0  0  0
    5.2224   -0.2063    0.0000 C   0  0  0  0  0  0  0  0  0  0  0  0
    4.5080    1.0313    0.0000 C   0  0  0  0  0  0  0  0  0  0  0  0
    3.7935   -2.6813    0.0000 C   0  0  0  0  0  0  0  0  0  0  0  0
    5.2224   -2.6813    0.0000 C   0  0  0  0  0  0  0  0  0  0  0  0
    5.2224    1.4438    0.0000 C   0  0  0  0  0  0  0  0  0  0  0  0
    3.7935   -3.5063    0.0000 C   0  0  0  0  0  0  0  0  0  0  0  0
    5.9370   -2.2688    0.0000 C   0  0  0  0  0  0  0  0  0  0  0  0
    3.0791   -2.2688    0.0000 C   0  0  0  0  0  0  0  0  0  0  0  0
    5.2224   -3.5063    0.0000 C   0  0  0  0  0  0  0  0  0  0  0  0
    3.0791   -3.9188    0.0000 C   0  0  0  0  0  0  0  0  0  0  0  0
    6.6515   -2.6813    0.0000 C   0  0  0  0  0  0  0  0  0  0  0  0
    2.3645   -2.6813    0.0000 C   0  0  0  0  0  0  0  0  0  0  0  0
    5.9370   -3.9188    0.0000 C   0  0  0  0  0  0  0  0  0  0  0  0
    5.2224    2.2688    0.0000 C   0  0  0  0  0  0  0  0  0  0  0  0
    2.3645   -3.5063    0.0000 C   0  0  0  0  0  0  0  0  0  0  0  0
    6.6515   -3.5063    0.0000 C   0  0  0  0  0  0  0  0  0  0  0  0
    5.9370    2.6813    0.0000 C   0  0  0  0  0  0  0  0  0  0  0  0
    5.9370    3.5063    0.0000 C   0  0  0  0  0  0  0  0  0  0  0  0
    6.6515    2.2688    0.0000 C   0  0  0  0  0  0  0  0  0  0  0  0
    6.6515    3.9188    0.0000 C   0  0  0  0  0  0  0  0  0  0  0  0
    7.3659    2.6813    0.0000 C   0  0  0  0  0  0  0  0  0  0  0  0
    7.3659    3.5063    0.0000 C   0  0  0  0  0  0  0  0  0  0  0  0
    2.8669   -1.5663    0.0000 H   0  0  0  0  0  0  0  0  0  0  0  0
    2.8669   -0.4963    0.0000 H   0  0  0  0  0  0  0  0  0  0  0  0
    6.1491   -1.5663    0.0000 H   0  0  0  0  0  0  0  0  0  0  0  0
    6.1490   -0.4963    0.0000 H   0  0  0  0  0  0  0  0  0  0  0  0
    4.5080   -3.3388    0.0000 H   0  0  0  0  0  0  0  0  0  0  0  0
    2.8668    0.3287    0.0000 H   0  0  0  0  0  0  0  0  0  0  0  0
    2.8669   -0.7413    0.0000 H   0  0  0  0  0  0  0  0  0  0  0  0
    6.1491    0.3286    0.0000 H   0  0  0  0  0  0  0  0  0  0  0  0
    6.1490   -0.7413    0.0000 H   0  0  0  0  0  0  0  0  0  0  0  0
    3.5813    1.5663    0.0000 H   0  0  0  0  0  0  0  0  0  0  0  0
    4.5080    2.1013    0.0000 H   0  0  0  0  0  0  0  0  0  0  0  0
    6.1161    0.9278    0.0000 H   0  0  0  0  0  0  0  0  0  0  0  0
    4.6872   -4.0223    0.0000 H   0  0  0  0  0  0  0  0  0  0  0  0
    5.9370   -1.2368    0.0000 H   0  0  0  0  0  0  0  0  0  0  0  0
    3.0792   -1.2368    0.0000 H   0  0  0  0  0  0  0  0  0  0  0  0
    4.3287   -4.0223    0.0000 H   0  0  0  0  0  0  0  0  0  0  0  0
    3.0792   -4.9508    0.0000 H   0  0  0  0  0  0  0  0  0  0  0  0
    7.5452   -2.1653    0.0000 H   0  0  0  0  0  0  0  0  0  0  0  0
    1.4708   -2.1653    0.0000 H   0  0  0  0  0  0  0  0  0  0  0  0
    5.9370   -4.9508    0.0000 H   0  0  0  0  0  0  0  0  0  0  0  0
    4.3287    2.7848    0.0000 H   0  0  0  0  0  0  0  0  0  0  0  0
    5.0433    4.0223    0.0000 H   0  0  0  0  0  0  0  0  0  0  0  0
    6.6515    1.2368    0.0000 H   0  0  0  0  0  0  0  0  0  0  0  0
    6.6515    4.9508    0.0000 H   0  0  0  0  0  0  0  0  0  0  0  0
    8.2596    2.1653    0.0000 H   0  0  0  0  0  0  0  0  0  0  0  0
    8.2596    4.0223    0.0000 H   0  0  0  0  0  0  0  0  0  0  0  0
  1 23  1  0  0  0  0
  2 24  1  0  0  0  0
  3  5  1  0  0  0  0
  3  6  1  0  0  0  0
  3  7  1  0  0  0  0
  4  8  1  0  0  0  0
  4  9  1  0  0  0  0
  4 10  1  0  0  0  0
  5  8  1  0  0  0  0
  5 31  1  0  0  0  0
  5 32  1  0  0  0  0
  6  9  1  0  0  0  0
  6 33  1  0  0  0  0
  6 34  1  0  0  0  0
  7 11  1  0  0  0  0
  7 12  1  0  0  0  0
  7 35  1  0  0  0  0
  8 36  1  0  0  0  0
  8 37  1  0  0  0  0
  9 38  1  0  0  0  0
  9 39  1  0  0  0  0
 10 13  1  0  0  0  0
 10 40  1  0  0  0  0
 10 41  1  0  0  0  0
 11 14  2  0  0  0  0
 11 16  1  0  0  0  0
 12 15  2  0  0  0  0
 12 17  1  0  0  0  0
 13 22  2  0  0  0  0
 13 42  1  0  0  0  0
 14 18  1  0  0  0  0
 14 43  1  0  0  0  0
 15 19  1  0  0  0  0
 15 44  1  0  0  0  0
 16 20  2  0  0  0  0
 16 45  1  0  0  0  0
 17 21  2  0  0  0  0
 17 46  1  0  0  0  0
 18 23  2  0  0  0  0
 18 47  1  0  0  0  0
 19 24  2  0  0  0  0
 19 48  1  0  0  0  0
 20 23  1  0  0  0  0
 20 49  1  0  0  0  0
 21 24  1  0  0  0  0
 21 50  1  0  0  0  0
 22 25  1  0  0  0  0
 22 51  1  0  0  0  0
 25 26  2  0  0  0  0
 25 27  1  0  0  0  0
 26 28  1  0  0  0  0
 26 52  1  0  0  0  0
 27 29  2  0  0  0  0
 27 53  1  0  0  0  0
 28 30  2  0  0  0  0
 28 54  1  0  0  0  0
 29 30  1  0  0  0  0
 29 55  1  0  0  0  0
 30 56  1  0  0  0  0
M  END
>  <DRUGBANK_ID>
DB04841

>  <COMMON_NAME>
Flunarizine

>  <CAS_NUMBER>
52468-60-7

>  <UNII>
R7PLA2DM0J

>  <SYNONYMS>
1-[bis(4-fluorophenyl)methyl]-4-[(2E)-3-phenylprop-2-en-1-yl]piperazine; Flunarizina; Flunarizine; Flunarizinum

$$$$
