DRX
 OpenBabel10282417072D

 43 46  0  0  0  0  0  0  0  0999 V2000
    0.9001   -2.2434    0.0000 C   0  0  0  0  0  0  0  0  0  0  0  0
    1.4521   -1.6303    0.0000 C   0  0  0  0  0  0  0  0  0  0  0  0
    1.1972   -0.8457    0.0000 C   0  0  0  0  0  0  0  0  0  0  0  0
    1.7492   -0.2326    0.0000 Cl  0  0  0  0  0  0  0  0  0  0  0  0
    0.3902   -0.6742    0.0000 C   0  0  0  0  0  0  0  0  0  0  0  0
   -0.1618   -1.2873    0.0000 C   0  0  0  0  0  0  0  0  0  0  0  0
    0.0931   -2.0719    0.0000 C   0  0  0  0  0  0  0  0  0  0  0  0
   -0.3194   -2.7864    0.0000 S   0  0  0  0  0  0  0  0  0  0  0  0
    0.2327   -3.3995    0.0000 C   0  0  0  0  0  0  0  0  0  0  0  0
    0.9863   -3.0639    0.0000 C   0  0  0  0  0  0  0  0  0  0  0  0
    1.7008   -3.4764    0.0000 C   0  0  2  0  0  0  0  0  0  0  0  0
    1.7008   -4.3014    0.0000 P   0  0  0  0  0  0  0  0  0  0  0  0
    2.5258   -4.3014    0.0000 O   0  0  0  0  0  0  0  0  0  0  0  0
    0.8758   -4.3014    0.0000 O   0  0  0  0  0  0  0  0  0  0  0  0
    1.7008   -5.1264    0.0000 O   0  0  0  0  0  0  0  0  0  0  0  0
    2.4153   -3.0639    0.0000 C   0  0  0  0  0  0  0  0  0  0  0  0
    2.4153   -2.2389    0.0000 O   0  0  0  0  0  0  0  0  0  0  0  0
    3.1297   -3.4764    0.0000 N   0  0  0  0  0  0  0  0  0  0  0  0
    3.8442   -3.0639    0.0000 C   0  0  0  0  0  0  0  0  0  0  0  0
    4.5587   -3.4764    0.0000 C   0  0  0  0  0  0  0  0  0  0  0  0
    5.2732   -3.0639    0.0000 C   0  0  0  0  0  0  0  0  0  0  0  0
    5.9876   -3.4764    0.0000 C   0  0  0  0  0  0  0  0  0  0  0  0
    6.7021   -3.0639    0.0000 C   0  0  0  0  0  0  0  0  0  0  0  0
    6.7021   -2.2389    0.0000 C   0  0  0  0  0  0  0  0  0  0  0  0
    5.9876   -1.8264    0.0000 C   0  0  0  0  0  0  0  0  0  0  0  0
    5.2732   -2.2389    0.0000 C   0  0  0  0  0  0  0  0  0  0  0  0
    4.5587   -1.8264    0.0000 C   0  0  0  0  0  0  0  0  0  0  0  0
    3.8442   -2.2389    0.0000 C   0  0  0  0  0  0  0  0  0  0  0  0
    1.7008   -2.8925    0.0000 H   0  0  0  0  0  0  0  0  0  0  0  0
    2.4615   -1.8449    0.0000 H   0  0  0  0  0  0  0  0  0  0  0  0
    0.0713    0.3073    0.0000 H   0  0  0  0  0  0  0  0  0  0  0  0
   -1.1712   -1.0727    0.0000 H   0  0  0  0  0  0  0  0  0  0  0  0
    0.0182   -4.4090    0.0000 H   0  0  0  0  0  0  0  0  0  0  0  0
    3.0108   -5.1414    0.0000 H   0  0  0  0  0  0  0  0  0  0  0  0
    0.8608   -5.6114    0.0000 H   0  0  0  0  0  0  0  0  0  0  0  0
    3.1297   -4.4609    0.0000 H   0  0  0  0  0  0  0  0  0  0  0  0
    4.5587   -4.5084    0.0000 H   0  0  0  0  0  0  0  0  0  0  0  0
    5.9876   -4.5084    0.0000 H   0  0  0  0  0  0  0  0  0  0  0  0
    7.5958   -3.5799    0.0000 H   0  0  0  0  0  0  0  0  0  0  0  0
    7.5958   -1.7229    0.0000 H   0  0  0  0  0  0  0  0  0  0  0  0
    5.9876   -0.7944    0.0000 H   0  0  0  0  0  0  0  0  0  0  0  0
    4.5587   -0.7944    0.0000 H   0  0  0  0  0  0  0  0  0  0  0  0
    2.9505   -1.7229    0.0000 H   0  0  0  0  0  0  0  0  0  0  0  0
  1 10  1  0  0  0  0
  1  7  2  0  0  0  0
  1  2  1  0  0  0  0
  2  3  2  0  0  0  0
  2 30  1  0  0  0  0
  3  5  1  0  0  0  0
  3  4  1  0  0  0  0
  5  6  2  0  0  0  0
  5 31  1  0  0  0  0
  6  7  1  0  0  0  0
  6 32  1  0  0  0  0
  7  8  1  0  0  0  0
  8  9  1  0  0  0  0
  9 10  2  0  0  0  0
  9 33  1  0  0  0  0
 10 11  1  0  0  0  0
 11 16  1  0  0  0  0
 11 12  1  0  0  0  0
 11 29  1  6  0  0  0
 12 14  2  0  0  0  0
 12 13  1  0  0  0  0
 12 15  1  0  0  0  0
 13 34  1  0  0  0  0
 15 35  1  0  0  0  0
 16 17  2  0  0  0  0
 16 18  1  0  0  0  0
 18 19  1  0  0  0  0
 18 36  1  0  0  0  0
 19 28  2  0  0  0  0
 19 20  1  0  0  0  0
 20 21  2  0  0  0  0
 20 37  1  0  0  0  0
 21 26  1  0  0  0  0
 21 22  1  0  0  0  0
 22 23  2  0  0  0  0
 22 38  1  0  0  0  0
 23 24  1  0  0  0  0
 23 39  1  0  0  0  0
 24 25  2  0  0  0  0
 24 40  1  0  0  0  0
 25 26  1  0  0  0  0
 25 41  1  0  0  0  0
 26 27  2  0  0  0  0
 27 28  1  0  0  0  0
 27 42  1  0  0  0  0
 28 43  1  0  0  0  0
M  END
>  <DRUGBANK_ID>
DB07680

>  <COMMON_NAME>
[(1S)-1-(5-CHLORO-1-BENZOTHIEN-3-YL)-2-(2-NAPHTHYLAMINO)-2-OXOETHYL]PHOSPHONIC ACID

$$$$
