923
 OpenBabel10282417072D

 56 59  0  0  1  0  0  0  0  0999 V2000
    6.8758   -0.3017    0.0000 S   0  0  0  0  0  0  0  0  0  0  0  0
    4.7323    0.9358    0.0000 S   0  0  0  0  0  0  0  0  0  0  0  0
    9.0042    1.5238    0.0000 O   0  0  0  0  0  0  0  0  0  0  0  0
    6.1613    2.5858    0.0000 O   0  0  0  0  0  0  0  0  0  0  0  0
   10.0167    0.5311    0.0000 O   0  0  0  0  0  0  0  0  0  0  0  0
    7.5902    2.5858    0.0000 O   0  0  0  0  0  0  0  0  0  0  0  0
    2.1365   -0.8561    0.0000 O   0  0  0  0  0  0  0  0  0  0  0  0
    1.6949    0.5029    0.0000 O   0  0  0  0  0  0  0  0  0  0  0  0
    7.5902    0.9358    0.0000 N   0  0  0  0  0  0  0  0  0  0  0  0
    9.0042   -0.4772    0.0000 N   0  0  0  0  0  0  0  0  0  0  0  0
    3.2641    1.0128    0.0000 N   0  0  0  0  0  0  0  0  0  0  0  0
    3.9316    2.1688    0.0000 N   0  0  0  0  0  0  0  0  0  0  0  0
   12.1302   -2.6036    0.0000 N   0  0  0  0  0  0  0  0  0  0  0  0
    2.7121    1.6258    0.0000 N   0  0  0  0  0  0  0  0  0  0  0  0
    3.1246    2.3404    0.0000 N   0  0  0  0  0  0  0  0  0  0  0  0
    7.5902    0.1108    0.0000 C   0  0  1  0  0  0  0  0  0  0  0  0
    8.4221    0.1074    0.0000 C   0  0  1  0  0  0  0  0  0  0  0  0
    8.4221    0.9393    0.0000 C   0  0  0  0  0  0  0  0  0  0  0  0
    6.8758    1.3483    0.0000 C   0  0  0  0  0  0  0  0  0  0  0  0
    6.1613    0.9358    0.0000 C   0  0  0  0  0  0  0  0  0  0  0  0
    6.1613    0.1108    0.0000 C   0  0  0  0  0  0  0  0  0  0  0  0
    5.4468    1.3483    0.0000 C   0  0  0  0  0  0  0  0  0  0  0  0
    9.8016   -0.2652    0.0000 C   0  0  0  0  0  0  0  0  0  0  0  0
    6.8758    2.1733    0.0000 C   0  0  0  0  0  0  0  0  0  0  0  0
   10.3837   -0.8498    0.0000 C   0  0  0  0  0  0  0  0  0  0  0  0
   11.1811   -0.6380    0.0000 C   0  0  0  0  0  0  0  0  0  0  0  0
   11.7633   -1.2225    0.0000 C   0  0  0  0  0  0  0  0  0  0  0  0
   11.3962    0.1585    0.0000 C   0  0  0  0  0  0  0  0  0  0  0  0
    4.0179    1.3483    0.0000 C   0  0  0  0  0  0  0  0  0  0  0  0
   11.5481   -2.0190    0.0000 C   0  0  0  0  0  0  0  0  0  0  0  0
   12.5606   -1.0106    0.0000 C   0  0  0  0  0  0  0  0  0  0  0  0
   12.1936    0.3704    0.0000 C   0  0  0  0  0  0  0  0  0  0  0  0
   12.7757   -0.2142    0.0000 C   0  0  0  0  0  0  0  0  0  0  0  0
    3.0926    0.2058    0.0000 C   0  0  0  0  0  0  0  0  0  0  0  0
    2.3080   -0.0492    0.0000 C   0  0  0  0  0  0  0  0  0  0  0  0
    7.7598   -0.5270    0.0000 H   0  0  0  0  0  0  0  0  0  0  0  0
    6.1613    3.5228    0.0000 H   0  0  0  0  0  0  0  0  0  0  0  0
    1.2454   -1.1457    0.0000 H   0  0  0  0  0  0  0  0  0  0  0  0
    8.7474   -1.4276    0.0000 H   0  0  0  0  0  0  0  0  0  0  0  0
   11.8641   -3.5883    0.0000 H   0  0  0  0  0  0  0  0  0  0  0  0
   13.1160   -2.3417    0.0000 H   0  0  0  0  0  0  0  0  0  0  0  0
    8.0096   -0.8799    0.0000 H   0  0  0  0  0  0  0  0  0  0  0  0
    5.2347   -0.4242    0.0000 H   0  0  0  0  0  0  0  0  0  0  0  0
    5.2347    0.6458    0.0000 H   0  0  0  0  0  0  0  0  0  0  0  0
    5.4468    2.4183    0.0000 H   0  0  0  0  0  0  0  0  0  0  0  0
    6.3734    1.8833    0.0000 H   0  0  0  0  0  0  0  0  0  0  0  0
   10.1045   -1.8827    0.0000 H   0  0  0  0  0  0  0  0  0  0  0  0
   11.1387   -1.6080    0.0000 H   0  0  0  0  0  0  0  0  0  0  0  0
   10.6679    0.8897    0.0000 H   0  0  0  0  0  0  0  0  0  0  0  0
   10.5140   -2.2938    0.0000 H   0  0  0  0  0  0  0  0  0  0  0  0
   10.7931   -1.2608    0.0000 H   0  0  0  0  0  0  0  0  0  0  0  0
   13.2889   -1.7418    0.0000 H   0  0  0  0  0  0  0  0  0  0  0  0
   12.4628    1.3667    0.0000 H   0  0  0  0  0  0  0  0  0  0  0  0
   13.7731    0.0508    0.0000 H   0  0  0  0  0  0  0  0  0  0  0  0
    3.8878   -0.5101    0.0000 H   0  0  0  0  0  0  0  0  0  0  0  0
    2.8702   -0.8408    0.0000 H   0  0  0  0  0  0  0  0  0  0  0  0
  1 16  1  0  0  0  0
  1 21  1  0  0  0  0
  2 22  1  0  0  0  0
  2 29  1  0  0  0  0
  3 18  2  0  0  0  0
  4 24  1  0  0  0  0
  4 37  1  0  0  0  0
  5 23  2  0  0  0  0
  6 24  2  0  0  0  0
  7 35  1  0  0  0  0
  7 38  1  0  0  0  0
  8 35  2  0  0  0  0
  9 16  1  0  0  0  0
  9 18  1  0  0  0  0
  9 19  1  0  0  0  0
 10 23  1  0  0  0  0
 10 39  1  0  0  0  0
 11 14  1  0  0  0  0
 11 29  1  0  0  0  0
 11 34  1  0  0  0  0
 12 15  1  0  0  0  0
 12 29  2  0  0  0  0
 13 30  1  0  0  0  0
 13 40  1  0  0  0  0
 13 41  1  0  0  0  0
 14 15  2  0  0  0  0
 16 17  1  0  0  0  0
 16 36  1  6  0  0  0
 17 10  1  0  0  0  0
 17 18  1  0  0  0  0
 17 42  1  6  0  0  0
 19 20  2  0  0  0  0
 19 24  1  0  0  0  0
 20 21  1  0  0  0  0
 20 22  1  0  0  0  0
 21 43  1  0  0  0  0
 21 44  1  0  0  0  0
 22 45  1  0  0  0  0
 22 46  1  0  0  0  0
 23 25  1  0  0  0  0
 25 26  1  0  0  0  0
 25 47  1  0  0  0  0
 25 48  1  0  0  0  0
 26 27  1  0  0  0  0
 26 28  2  0  0  0  0
 27 30  1  0  0  0  0
 27 31  2  0  0  0  0
 28 32  1  0  0  0  0
 28 49  1  0  0  0  0
 30 50  1  0  0  0  0
 30 51  1  0  0  0  0
 31 33  1  0  0  0  0
 31 52  1  0  0  0  0
 32 33  2  0  0  0  0
 32 53  1  0  0  0  0
 33 54  1  0  0  0  0
 34 35  1  0  0  0  0
 34 55  1  0  0  0  0
 34 56  1  0  0  0  0
M  END
>  <DRUGBANK_ID>
DB00923

>  <SECONDARY_ACCESSION_NUMBERS>
APRD00853

>  <COMMON_NAME>
Ceforanide

>  <CAS_NUMBER>
60925-61-3

>  <UNII>
8M1YF8951V

>  <SYNONYMS>
(6R,7R)-7-[[2-[2-(aminomethyl)phenyl]acetyl]amino]-3-[[1-(carboxymethyl)tetrazol-5-yl]sulfanylmethyl]-8-oxo-5-thia-1-azabicyclo[4.2.0]oct-2-ene-2-carboxylic acid; 7-[O-(aminomethyl)phenylacetamido]-3-[[[1-(carboxymethyl)-1H-tetrazol-5-yl]thio]methyl]-3-cephem-4-carboxylic acid; 7Î²-[2-(aminomethyl)phenyl]acetamido-3-{[1-(carboxymethyl)-1H-tetrazol-5-yl]sulfanyl}methyl-3,4-didehydrocepham-4-carboxylic acid; Ceforanide; Ceforanido; Ceforanidum

$$$$
