5288600
 OpenBabel10282417072D

 40 42  0  0  0  0  0  0  0  0999 V2000
    2.9054   -0.3115    0.0000 O   0  0  0  0  0  0  0  0  0  0  0  0
    5.3441    0.5110    0.0000 O   0  0  0  0  0  0  0  0  0  0  0  0
    5.1662   -2.0390    0.0000 O   0  0  0  0  0  0  0  0  0  0  0  0
    3.4355    2.6382    0.0000 O   0  0  0  0  0  0  0  0  0  0  0  0
    3.8597   -2.7030    0.0000 N   0  0  0  0  0  0  0  0  0  0  0  0
    3.8597   -1.3751    0.0000 C   0  0  0  0  0  0  0  0  0  0  0  0
    3.0790   -1.6265    0.0000 C   0  0  0  0  0  0  0  0  0  0  0  0
    3.0790   -2.4515    0.0000 C   0  0  0  0  0  0  0  0  0  0  0  0
    3.9458    0.2163    0.0000 C   0  0  0  0  0  0  0  0  0  0  0  0
    4.1159   -0.5910    0.0000 C   0  0  0  0  0  0  0  0  0  0  0  0
    4.3412   -2.0390    0.0000 C   0  0  0  0  0  0  0  0  0  0  0  0
    2.3645   -1.2140    0.0000 C   0  0  0  0  0  0  0  0  0  0  0  0
    3.1616    0.4727    0.0000 C   0  0  0  0  0  0  0  0  0  0  0  0
    4.5599    0.7673    0.0000 C   0  0  0  0  0  0  0  0  0  0  0  0
    2.3645   -2.8641    0.0000 C   0  0  0  0  0  0  0  0  0  0  0  0
    1.6500   -1.6265    0.0000 C   0  0  0  0  0  0  0  0  0  0  0  0
    2.9915    1.2799    0.0000 C   0  0  0  0  0  0  0  0  0  0  0  0
    4.3898    1.5746    0.0000 C   0  0  0  0  0  0  0  0  0  0  0  0
    1.6500   -2.4515    0.0000 C   0  0  0  0  0  0  0  0  0  0  0  0
    3.6056    1.8309    0.0000 C   0  0  0  0  0  0  0  0  0  0  0  0
    2.0980   -0.4816    0.0000 C   0  0  0  0  0  0  0  0  0  0  0  0
    5.9581    1.0620    0.0000 C   0  0  0  0  0  0  0  0  0  0  0  0
    4.0495    3.1892    0.0000 C   0  0  0  0  0  0  0  0  0  0  0  0
    4.1655   -3.6388    0.0000 H   0  0  0  0  0  0  0  0  0  0  0  0
    5.1464   -0.6468    0.0000 H   0  0  0  0  0  0  0  0  0  0  0  0
    2.3645   -0.1820    0.0000 H   0  0  0  0  0  0  0  0  0  0  0  0
    2.3645   -3.8961    0.0000 H   0  0  0  0  0  0  0  0  0  0  0  0
    0.7563   -1.1105    0.0000 H   0  0  0  0  0  0  0  0  0  0  0  0
    2.0106    1.6005    0.0000 H   0  0  0  0  0  0  0  0  0  0  0  0
    5.1579    2.2638    0.0000 H   0  0  0  0  0  0  0  0  0  0  0  0
    0.7562   -2.9675    0.0000 H   0  0  0  0  0  0  0  0  0  0  0  0
    1.3835    0.3149    0.0000 H   0  0  0  0  0  0  0  0  0  0  0  0
    1.7655   -1.4986    0.0000 H   0  0  0  0  0  0  0  0  0  0  0  0
    1.0510   -0.7022    0.0000 H   0  0  0  0  0  0  0  0  0  0  0  0
    6.9752    0.7297    0.0000 H   0  0  0  0  0  0  0  0  0  0  0  0
    5.7374    2.1090    0.0000 H   0  0  0  0  0  0  0  0  0  0  0  0
    6.7545    1.7766    0.0000 H   0  0  0  0  0  0  0  0  0  0  0  0
    5.0666    2.8569    0.0000 H   0  0  0  0  0  0  0  0  0  0  0  0
    3.8288    4.2362    0.0000 H   0  0  0  0  0  0  0  0  0  0  0  0
    4.8459    3.9038    0.0000 H   0  0  0  0  0  0  0  0  0  0  0  0
  1 13  1  0  0  0  0
  1 21  1  0  0  0  0
  2 14  1  0  0  0  0
  2 22  1  0  0  0  0
  3 11  2  0  0  0  0
  4 20  1  0  0  0  0
  4 23  1  0  0  0  0
  5  8  1  0  0  0  0
  5 11  1  0  0  0  0
  5 24  1  0  0  0  0
  6  7  1  0  0  0  0
  6 10  2  0  0  0  0
  6 11  1  0  0  0  0
  7  8  1  0  0  0  0
  7 12  2  0  0  0  0
  8 15  2  0  0  0  0
  9 10  1  0  0  0  0
  9 13  2  0  0  0  0
  9 14  1  0  0  0  0
 10 25  1  0  0  0  0
 12 16  1  0  0  0  0
 12 26  1  0  0  0  0
 13 17  1  0  0  0  0
 14 18  2  0  0  0  0
 15 19  1  0  0  0  0
 15 27  1  0  0  0  0
 16 19  2  0  0  0  0
 16 28  1  0  0  0  0
 17 20  2  0  0  0  0
 17 29  1  0  0  0  0
 18 20  1  0  0  0  0
 18 30  1  0  0  0  0
 19 31  1  0  0  0  0
 21 32  1  0  0  0  0
 21 33  1  0  0  0  0
 21 34  1  0  0  0  0
 22 35  1  0  0  0  0
 22 36  1  0  0  0  0
 22 37  1  0  0  0  0
 23 38  1  0  0  0  0
 23 39  1  0  0  0  0
 23 40  1  0  0  0  0
M  END
>  <DRUGBANK_ID>
DB03083

>  <SECONDARY_ACCESSION_NUMBERS>
EXPT01830

>  <COMMON_NAME>
IC261

$$$$
