
 OpenBabel10282417072D

315324  0  0  0  0  0  0  0  0999 V2000
    2.2228    2.1157    0.0000 O   0  0  0  0  0  0  0  0  0  0  0  0
    3.8029   -0.2946    0.0000 O   0  0  0  0  0  0  0  0  0  0  0  0
    1.3926    2.8655    0.0000 O   0  0  0  0  0  0  0  0  0  0  0  0
    3.4547   -1.0445    0.0000 O   0  0  0  0  0  0  0  0  0  0  0  0
    1.0712    0.1607    0.0000 O   0  0  0  0  0  0  0  0  0  0  0  0
    0.0000    5.4902    0.0000 O   0  0  0  0  0  0  0  0  0  0  0  0
    1.6336   -3.3744    0.0000 O   0  0  0  0  0  0  0  0  0  0  0  0
   -2.6781    4.2046    0.0000 O   0  0  0  0  0  0  0  0  0  0  0  0
    3.9100   -5.3027    0.0000 O   0  0  0  0  0  0  0  0  0  0  0  0
   -4.0707    6.8025    0.0000 O   0  0  0  0  0  0  0  0  0  0  0  0
    4.3921   -5.9723    0.0000 O   0  0  0  0  0  0  0  0  0  0  0  0
    6.9900   -7.1239    0.0000 O   0  0  0  0  0  0  0  0  0  0  0  0
   -6.7489    5.5169    0.0000 O   0  0  0  0  0  0  0  0  0  0  0  0
    6.6418   -7.8737    0.0000 O   0  0  0  0  0  0  0  0  0  0  0  0
   -3.5618    8.3825    0.0000 O   0  0  0  0  0  0  0  0  0  0  0  0
   -8.1415    8.1415    0.0000 O   0  0  0  0  0  0  0  0  0  0  0  0
   -4.9010    8.8111    0.0000 O   0  0  0  0  0  0  0  0  0  0  0  0
    7.1238   -8.5432    0.0000 O   0  0  0  0  0  0  0  0  0  0  0  0
   -8.6771    8.7575    0.0000 O   0  0  0  0  0  0  0  0  0  0  0  0
  -11.1411   10.4180    0.0000 O   0  0  0  0  0  0  0  0  0  0  0  0
   -7.2578    3.9636    0.0000 O   0  0  0  0  0  0  0  0  0  0  0  0
   -8.5968    4.3921    0.0000 O   0  0  0  0  0  0  0  0  0  0  0  0
    7.9540   -8.4629    0.0000 O   0  0  0  0  0  0  0  0  0  0  0  0
  -10.9268   13.3907    0.0000 O   0  0  0  0  0  0  0  0  0  0  0  0
   -9.5609   12.9355    0.0000 O   0  0  0  0  0  0  0  0  0  0  0  0
    8.8914  -13.3907    0.0000 O   0  0  0  0  0  0  0  0  0  0  0  0
    8.3022   -7.7131    0.0000 O   0  0  0  0  0  0  0  0  0  0  0  0
   13.0158   -9.3735    0.0000 O   0  0  0  0  0  0  0  0  0  0  0  0
    3.0798    3.2672    0.0000 N   0  0  0  0  0  0  0  0  0  0  0  0
    3.6422    1.1248    0.0000 N   0  0  0  0  0  0  0  0  0  0  0  0
    1.0980    4.2582    0.0000 N   0  0  0  0  0  0  0  0  0  0  0  0
    2.1693   -0.4552    0.0000 N   0  0  0  0  0  0  0  0  0  0  0  0
    2.7851   -2.5442    0.0000 N   0  0  0  0  0  0  0  0  0  0  0  0
   -1.0445    4.5260    0.0000 N   0  0  0  0  0  0  0  0  0  0  0  0
    0.2410    1.3123    0.0000 N   0  0  0  0  0  0  0  0  0  0  0  0
    3.7493   -3.8833    0.0000 N   0  0  0  0  0  0  0  0  0  0  0  0
    0.0000   -3.5619    0.0000 N   0  0  0  0  0  0  0  0  0  0  0  0
   -2.9726    5.5973    0.0000 N   0  0  0  0  0  0  0  0  0  0  0  0
    5.5437   -5.1152    0.0000 N   0  0  0  0  0  0  0  0  0  0  0  0
   -1.3123   -2.9727    0.0000 N   0  0  0  0  0  0  0  0  0  0  0  0
    0.7767    7.8469    0.0000 N   0  0  0  0  0  0  0  0  0  0  0  0
   -1.1516   -4.3921    0.0000 N   0  0  0  0  0  0  0  0  0  0  0  0
    7.4185   -3.0798    0.0000 N   0  0  0  0  0  0  0  0  0  0  0  0
   -5.1152    5.8651    0.0000 N   0  0  0  0  0  0  0  0  0  0  0  0
    5.3563   -7.3114    0.0000 N   0  0  0  0  0  0  0  0  0  0  0  0
   -7.0436    6.9097    0.0000 N   0  0  0  0  0  0  0  0  0  0  0  0
    5.9722   -9.3735    0.0000 N   0  0  0  0  0  0  0  0  0  0  0  0
   -9.1860    7.2042    0.0000 N   0  0  0  0  0  0  0  0  0  0  0  0
  -10.0431    9.2128    0.0000 N   0  0  0  0  0  0  0  0  0  0  0  0
    3.4547  -10.5251    0.0000 N   0  0  0  0  0  0  0  0  0  0  0  0
    8.1147   -9.8823    0.0000 N   0  0  0  0  0  0  0  0  0  0  0  0
  -10.8197    5.5169    0.0000 N   0  0  0  0  0  0  0  0  0  0  0  0
  -10.0698   11.3821    0.0000 N   0  0  0  0  0  0  0  0  0  0  0  0
    9.5877   -8.3022    0.0000 N   0  0  0  0  0  0  0  0  0  0  0  0
   10.2573   -6.8025    0.0000 N   0  0  0  0  0  0  0  0  0  0  0  0
    3.6422    1.9550    0.0000 C   0  0  1  0  0  0  0  0  0  0  0  0
    4.4456    2.2229    0.0000 C   0  0  0  0  0  0  0  0  0  0  0  0
    2.4639    3.8029    0.0000 C   0  0  1  0  0  0  0  0  0  0  0  0
    4.9278    1.5533    0.0000 C   0  0  0  0  0  0  0  0  0  0  0  0
    4.4456    0.8838    0.0000 C   0  0  0  0  0  0  0  0  0  0  0  0
    2.9726    2.4371    0.0000 C   0  0  0  0  0  0  0  0  0  0  0  0
    3.7761    3.6690    0.0000 C   0  0  0  0  0  0  0  0  0  0  0  0
    2.7851    4.5796    0.0000 C   0  0  0  0  0  0  0  0  0  0  0  0
    3.6154    4.4725    0.0000 C   0  0  0  0  0  0  0  0  0  0  0  0
    3.3208    0.3749    0.0000 C   0  0  0  0  0  0  0  0  0  0  0  0
    1.6604    3.6422    0.0000 C   0  0  0  0  0  0  0  0  0  0  0  0
    2.4907    0.2946    0.0000 C   0  0  2  0  0  0  0  0  0  0  0  0
    2.4103    1.1248    0.0000 C   0  0  0  0  0  0  0  0  0  0  0  0
    1.6604    1.4462    0.0000 C   0  0  0  0  0  0  0  0  0  0  0  0
    0.2945    4.0975    0.0000 C   0  0  0  0  0  0  0  0  0  0  0  0
    2.6513   -1.1248    0.0000 C   0  0  0  0  0  0  0  0  0  0  0  0
    2.3032   -1.8747    0.0000 C   0  0  2  0  0  0  0  0  0  0  0  0
    1.4729   -1.9550    0.0000 C   0  0  0  0  0  0  0  0  0  0  0  0
    0.9909    0.9641    0.0000 C   0  0  0  0  0  0  0  0  0  0  0  0
   -0.2410    4.7135    0.0000 C   0  0  0  0  0  0  0  0  0  0  0  0
    1.1516   -2.7048    0.0000 C   0  0  0  0  0  0  0  0  0  0  0  0
    2.4639   -3.2940    0.0000 C   0  0  0  0  0  0  0  0  0  0  0  0
    2.9458   -3.9636    0.0000 C   0  0  2  0  0  0  0  0  0  0  0  0
   -1.6069    5.1420    0.0000 C   0  0  1  0  0  0  0  0  0  0  0  0
    0.3213   -2.7852    0.0000 C   0  0  0  0  0  0  0  0  0  0  0  0
    2.5978   -4.7135    0.0000 C   0  0  2  0  0  0  0  0  0  0  0  0
   -1.3391    5.9187    0.0000 C   0  0  0  0  0  0  0  0  0  0  0  0
    3.0798   -5.3831    0.0000 C   0  0  0  0  0  0  0  0  0  0  0  0
   -2.4103    4.9813    0.0000 C   0  0  0  0  0  0  0  0  0  0  0  0
   -0.5356    6.1061    0.0000 C   0  0  0  0  0  0  0  0  0  0  0  0
    1.7676   -4.7938    0.0000 C   0  0  0  0  0  0  0  0  0  0  0  0
    4.2314   -4.5528    0.0000 C   0  0  0  0  0  0  0  0  0  0  0  0
   -0.2946    6.8828    0.0000 C   0  0  0  0  0  0  0  0  0  0  0  0
    2.7316   -6.1330    0.0000 C   0  0  0  0  0  0  0  0  0  0  0  0
    5.0616   -4.4725    0.0000 C   0  0  2  0  0  0  0  0  0  0  0  0
   -0.8302   -3.6422    0.0000 C   0  0  0  0  0  0  0  0  0  0  0  0
    0.5088    7.0435    0.0000 C   0  0  0  0  0  0  0  0  0  0  0  0
    5.3830   -3.6958    0.0000 C   0  0  0  0  0  0  0  0  0  0  0  0
   -3.7761    5.4099    0.0000 C   0  0  0  0  0  0  0  0  0  0  0  0
    6.2133   -3.6154    0.0000 C   0  0  0  0  0  0  0  0  0  0  0  0
   -4.3117    6.0258    0.0000 C   0  0  0  0  0  0  0  0  0  0  0  0
    5.1955   -5.8919    0.0000 C   0  0  0  0  0  0  0  0  0  0  0  0
    6.7489   -4.2314    0.0000 C   0  0  0  0  0  0  0  0  0  0  0  0
    6.6150   -2.9191    0.0000 C   0  0  0  0  0  0  0  0  0  0  0  0
    5.6777   -6.5347    0.0000 C   0  0  2  0  0  0  0  0  0  0  0  0
    7.4988   -3.9100    0.0000 C   0  0  0  0  0  0  0  0  0  0  0  0
   -5.6777    6.4811    0.0000 C   0  0  1  0  0  0  0  0  0  0  0  0
    6.6686   -5.0617    0.0000 C   0  0  0  0  0  0  0  0  0  0  0  0
    6.5079   -6.4543    0.0000 C   0  0  0  0  0  0  0  0  0  0  0  0
    8.1683   -4.3921    0.0000 C   0  0  0  0  0  0  0  0  0  0  0  0
   -5.4098    7.2578    0.0000 C   0  0  0  0  0  0  0  0  0  0  0  0
    7.3381   -5.5437    0.0000 C   0  0  0  0  0  0  0  0  0  0  0  0
    8.0879   -5.1956    0.0000 C   0  0  0  0  0  0  0  0  0  0  0  0
   -6.4811    6.2936    0.0000 C   0  0  0  0  0  0  0  0  0  0  0  0
    5.8383   -7.9540    0.0000 C   0  0  0  0  0  0  0  0  0  0  0  0
    5.4902   -8.7307    0.0000 C   0  0  2  0  0  0  0  0  0  0  0  0
   -4.6064    7.4185    0.0000 C   0  0  0  0  0  0  0  0  0  0  0  0
   -7.8469    6.7490    0.0000 C   0  0  1  0  0  0  0  0  0  0  0  0
    4.6867   -8.8111    0.0000 C   0  0  0  0  0  0  0  0  0  0  0  0
   -8.0879    5.9723    0.0000 C   0  0  0  0  0  0  0  0  0  0  0  0
    4.3385   -9.5610    0.0000 C   0  0  0  0  0  0  0  0  0  0  0  0
   -9.7484    7.7934    0.0000 C   0  0  1  0  0  0  0  0  0  0  0  0
   -8.3826    7.3649    0.0000 C   0  0  0  0  0  0  0  0  0  0  0  0
   -8.9718   10.1502    0.0000 C   0  0  2  0  0  0  0  0  0  0  0  0
   -9.7752    9.9895    0.0000 C   0  0  1  0  0  0  0  0  0  0  0  0
   -4.3654    8.2219    0.0000 C   0  0  0  0  0  0  0  0  0  0  0  0
  -10.5519    7.6327    0.0000 C   0  0  0  0  0  0  0  0  0  0  0  0
    6.8025   -9.2931    0.0000 C   0  0  0  0  0  0  0  0  0  0  0  0
    4.7403  -10.2573    0.0000 C   0  0  0  0  0  0  0  0  0  0  0  0
   -9.4806    8.5968    0.0000 C   0  0  0  0  0  0  0  0  0  0  0  0
   -7.5524    5.3563    0.0000 C   0  0  0  0  0  0  0  0  0  0  0  0
   -8.7307   10.9269    0.0000 C   0  0  0  0  0  0  0  0  0  0  0  0
    7.2845   -9.9627    0.0000 C   0  0  2  0  0  0  0  0  0  0  0  0
  -10.8197    6.8560    0.0000 C   0  0  0  0  0  0  0  0  0  0  0  0
    3.5350   -9.7217    0.0000 C   0  0  0  0  0  0  0  0  0  0  0  0
   -8.4361    9.5342    0.0000 C   0  0  0  0  0  0  0  0  0  0  0  0
    4.2046  -10.8733    0.0000 C   0  0  0  0  0  0  0  0  0  0  0  0
  -10.3376   10.6054    0.0000 C   0  0  0  0  0  0  0  0  0  0  0  0
  -11.5964    6.5883    0.0000 C   0  0  0  0  0  0  0  0  0  0  0  0
    6.9364  -10.7126    0.0000 C   0  0  0  0  0  0  0  0  0  0  0  0
   -7.9273   11.1143    0.0000 C   0  0  0  0  0  0  0  0  0  0  0  0
    5.5437  -10.4447    0.0000 C   0  0  0  0  0  0  0  0  0  0  0  0
  -10.3376    6.1865    0.0000 C   0  0  0  0  0  0  0  0  0  0  0  0
  -11.5964    5.7848    0.0000 C   0  0  0  0  0  0  0  0  0  0  0  0
   -7.7934    4.5796    0.0000 C   0  0  0  0  0  0  0  0  0  0  0  0
    4.4456  -11.6500    0.0000 C   0  0  0  0  0  0  0  0  0  0  0  0
    7.4185  -11.3821    0.0000 C   0  0  0  0  0  0  0  0  0  0  0  0
  -12.2928    7.0167    0.0000 C   0  0  0  0  0  0  0  0  0  0  0  0
    5.8115  -11.2214    0.0000 C   0  0  0  0  0  0  0  0  0  0  0  0
    8.4361   -9.1324    0.0000 C   0  0  0  0  0  0  0  0  0  0  0  0
    5.2491  -11.8374    0.0000 C   0  0  0  0  0  0  0  0  0  0  0  0
  -12.2928    5.3563    0.0000 C   0  0  0  0  0  0  0  0  0  0  0  0
    9.2664   -9.0521    0.0000 C   0  0  2  0  0  0  0  0  0  0  0  0
  -10.6323   11.9981    0.0000 C   0  0  0  0  0  0  0  0  0  0  0  0
  -13.0158    6.5883    0.0000 C   0  0  0  0  0  0  0  0  0  0  0  0
  -13.0158    5.7848    0.0000 C   0  0  0  0  0  0  0  0  0  0  0  0
    9.7484   -9.7217    0.0000 C   0  0  0  0  0  0  0  0  0  0  0  0
    8.2486  -11.3018    0.0000 C   0  0  0  0  0  0  0  0  0  0  0  0
    7.0971  -12.1320    0.0000 C   0  0  0  0  0  0  0  0  0  0  0  0
  -10.3644   12.7748    0.0000 C   0  0  0  0  0  0  0  0  0  0  0  0
    8.7307  -11.9713    0.0000 C   0  0  0  0  0  0  0  0  0  0  0  0
    7.5792  -12.8016    0.0000 C   0  0  0  0  0  0  0  0  0  0  0  0
   10.5519   -9.6413    0.0000 C   0  0  0  0  0  0  0  0  0  0  0  0
    8.3825  -12.7212    0.0000 C   0  0  0  0  0  0  0  0  0  0  0  0
    9.1057   -7.6327    0.0000 C   0  0  0  0  0  0  0  0  0  0  0  0
   11.0339  -10.3109    0.0000 C   0  0  0  0  0  0  0  0  0  0  0  0
   10.9000   -8.8646    0.0000 C   0  0  0  0  0  0  0  0  0  0  0  0
    9.4538   -6.8828    0.0000 C   0  0  0  0  0  0  0  0  0  0  0  0
   11.8642  -10.2037    0.0000 C   0  0  0  0  0  0  0  0  0  0  0  0
   11.7303   -8.7843    0.0000 C   0  0  0  0  0  0  0  0  0  0  0  0
   12.2123   -9.4538    0.0000 C   0  0  0  0  0  0  0  0  0  0  0  0
    6.5917   -8.0083    0.0000 H   0  0  0  0  0  0  0  0  0  0  0  0
   -2.9434    7.6786    0.0000 H   0  0  0  0  0  0  0  0  0  0  0  0
   -7.5628    3.0776    0.0000 H   0  0  0  0  0  0  0  0  0  0  0  0
  -10.6435   14.2838    0.0000 H   0  0  0  0  0  0  0  0  0  0  0  0
    8.5289  -14.2547    0.0000 H   0  0  0  0  0  0  0  0  0  0  0  0
   13.5627  -10.1344    0.0000 H   0  0  0  0  0  0  0  0  0  0  0  0
    1.4046    5.1937    0.0000 H   0  0  0  0  0  0  0  0  0  0  0  0
    1.1907   -0.5628    0.0000 H   0  0  0  0  0  0  0  0  0  0  0  0
    3.7637   -2.4365    0.0000 H   0  0  0  0  0  0  0  0  0  0  0  0
   -1.3362    3.5857    0.0000 H   0  0  0  0  0  0  0  0  0  0  0  0
    0.1536    2.2929    0.0000 H   0  0  0  0  0  0  0  0  0  0  0  0
   -0.5645    0.7463    0.0000 H   0  0  0  0  0  0  0  0  0  0  0  0
    4.1539   -2.9858    0.0000 H   0  0  0  0  0  0  0  0  0  0  0  0
    0.5860   -4.3530    0.0000 H   0  0  0  0  0  0  0  0  0  0  0  0
   -2.6808    6.5376    0.0000 H   0  0  0  0  0  0  0  0  0  0  0  0
    6.5221   -5.0061    0.0000 H   0  0  0  0  0  0  0  0  0  0  0  0
   -0.9081   -2.0750    0.0000 H   0  0  0  0  0  0  0  0  0  0  0  0
   -2.2918   -3.0715    0.0000 H   0  0  0  0  0  0  0  0  0  0  0  0
    1.7760    8.0513    0.0000 H   0  0  0  0  0  0  0  0  0  0  0  0
    0.1000    8.6101    0.0000 H   0  0  0  0  0  0  0  0  0  0  0  0
   -2.1292   -4.5087    0.0000 H   0  0  0  0  0  0  0  0  0  0  0  0
    8.1489   -2.4197    0.0000 H   0  0  0  0  0  0  0  0  0  0  0  0
   -5.4218    4.9296    0.0000 H   0  0  0  0  0  0  0  0  0  0  0  0
    4.3796   -7.4347    0.0000 H   0  0  0  0  0  0  0  0  0  0  0  0
   -6.7370    7.8452    0.0000 H   0  0  0  0  0  0  0  0  0  0  0  0
    5.5749  -10.2743    0.0000 H   0  0  0  0  0  0  0  0  0  0  0  0
   -9.4822    6.2653    0.0000 H   0  0  0  0  0  0  0  0  0  0  0  0
  -11.0072    9.0134    0.0000 H   0  0  0  0  0  0  0  0  0  0  0  0
    2.5995  -11.0128    0.0000 H   0  0  0  0  0  0  0  0  0  0  0  0
    8.6957  -10.6771    0.0000 H   0  0  0  0  0  0  0  0  0  0  0  0
  -10.5219    4.5785    0.0000 H   0  0  0  0  0  0  0  0  0  0  0  0
   -9.1057   11.5816    0.0000 H   0  0  0  0  0  0  0  0  0  0  0  0
   10.5663   -8.1945    0.0000 H   0  0  0  0  0  0  0  0  0  0  0  0
   10.8526   -7.6308    0.0000 H   0  0  0  0  0  0  0  0  0  0  0  0
   10.6769   -5.8728    0.0000 H   0  0  0  0  0  0  0  0  0  0  0  0
    2.6899    1.4672    0.0000 H   0  0  0  0  0  0  0  0  0  0  0  0
    4.7745    3.2411    0.0000 H   0  0  0  0  0  0  0  0  0  0  0  0
    5.5026    2.3890    0.0000 H   0  0  0  0  0  0  0  0  0  0  0  0
    2.1896    2.7687    0.0000 H   0  0  0  0  0  0  0  0  0  0  0  0
    5.9978    1.5533    0.0000 H   0  0  0  0  0  0  0  0  0  0  0  0
    5.4155    0.6009    0.0000 H   0  0  0  0  0  0  0  0  0  0  0  0
    4.7899   -0.1293    0.0000 H   0  0  0  0  0  0  0  0  0  0  0  0
    5.5039    0.7257    0.0000 H   0  0  0  0  0  0  0  0  0  0  0  0
    4.7509    3.2278    0.0000 H   0  0  0  0  0  0  0  0  0  0  0  0
    4.6137    4.3348    0.0000 H   0  0  0  0  0  0  0  0  0  0  0  0
    2.2486    5.5054    0.0000 H   0  0  0  0  0  0  0  0  0  0  0  0
    3.3777    5.4705    0.0000 H   0  0  0  0  0  0  0  0  0  0  0  0
    4.3454    5.2548    0.0000 H   0  0  0  0  0  0  0  0  0  0  0  0
    3.2527    5.4791    0.0000 H   0  0  0  0  0  0  0  0  0  0  0  0
    1.4334    0.4589    0.0000 H   0  0  0  0  0  0  0  0  0  0  0  0
    3.2741    1.7562    0.0000 H   0  0  0  0  0  0  0  0  0  0  0  0
    2.2895    2.1880    0.0000 H   0  0  0  0  0  0  0  0  0  0  0  0
    1.5434    2.5098    0.0000 H   0  0  0  0  0  0  0  0  0  0  0  0
    0.6828    1.8811    0.0000 H   0  0  0  0  0  0  0  0  0  0  0  0
   -0.0511    3.0849    0.0000 H   0  0  0  0  0  0  0  0  0  0  0  0
   -0.7556    3.8919    0.0000 H   0  0  0  0  0  0  0  0  0  0  0  0
    1.8618   -2.8494    0.0000 H   0  0  0  0  0  0  0  0  0  0  0  0
    0.8415   -1.0912    0.0000 H   0  0  0  0  0  0  0  0  0  0  0  0
    0.4097   -2.0758    0.0000 H   0  0  0  0  0  0  0  0  0  0  0  0
    1.7831   -3.5686    0.0000 H   0  0  0  0  0  0  0  0  0  0  0  0
    0.7138   -3.6811    0.0000 H   0  0  0  0  0  0  0  0  0  0  0  0
    3.3857   -2.9882    0.0000 H   0  0  0  0  0  0  0  0  0  0  0  0
   -0.5591    5.3587    0.0000 H   0  0  0  0  0  0  0  0  0  0  0  0
   -0.3156   -1.9254    0.0000 H   0  0  0  0  0  0  0  0  0  0  0  0
    0.7560   -1.8075    0.0000 H   0  0  0  0  0  0  0  0  0  0  0  0
    1.9793   -3.8404    0.0000 H   0  0  0  0  0  0  0  0  0  0  0  0
   -2.0558    6.7132    0.0000 H   0  0  0  0  0  0  0  0  0  0  0  0
   -1.0190    6.9397    0.0000 H   0  0  0  0  0  0  0  0  0  0  0  0
    4.1450   -5.2820    0.0000 H   0  0  0  0  0  0  0  0  0  0  0  0
    3.6974   -6.2568    0.0000 H   0  0  0  0  0  0  0  0  0  0  0  0
    0.1934    5.3229    0.0000 H   0  0  0  0  0  0  0  0  0  0  0  0
    0.5076    6.3441    0.0000 H   0  0  0  0  0  0  0  0  0  0  0  0
    1.1459   -3.9230    0.0000 H   0  0  0  0  0  0  0  0  0  0  0  0
    1.3243   -5.7676    0.0000 H   0  0  0  0  0  0  0  0  0  0  0  0
    0.7026   -4.8968    0.0000 H   0  0  0  0  0  0  0  0  0  0  0  0
   -1.0111    7.6775    0.0000 H   0  0  0  0  0  0  0  0  0  0  0  0
    0.0418    7.8985    0.0000 H   0  0  0  0  0  0  0  0  0  0  0  0
    1.6658   -6.2280    0.0000 H   0  0  0  0  0  0  0  0  0  0  0  0
    3.3468   -7.0085    0.0000 H   0  0  0  0  0  0  0  0  0  0  0  0
    2.2810   -7.1035    0.0000 H   0  0  0  0  0  0  0  0  0  0  0  0
    6.1232   -4.3384    0.0000 H   0  0  0  0  0  0  0  0  0  0  0  0
    1.2169    6.2413    0.0000 H   0  0  0  0  0  0  0  0  0  0  0  0
    0.1670    6.0295    0.0000 H   0  0  0  0  0  0  0  0  0  0  0  0
    4.7462   -2.8360    0.0000 H   0  0  0  0  0  0  0  0  0  0  0  0
    5.8177   -2.7181    0.0000 H   0  0  0  0  0  0  0  0  0  0  0  0
   -4.1055    4.3919    0.0000 H   0  0  0  0  0  0  0  0  0  0  0  0
   -4.8245    5.1958    0.0000 H   0  0  0  0  0  0  0  0  0  0  0  0
    6.1894   -1.9789    0.0000 H   0  0  0  0  0  0  0  0  0  0  0  0
    6.3145   -7.3945    0.0000 H   0  0  0  0  0  0  0  0  0  0  0  0
   -4.6299    6.6978    0.0000 H   0  0  0  0  0  0  0  0  0  0  0  0
    5.7285   -5.4874    0.0000 H   0  0  0  0  0  0  0  0  0  0  0  0
    6.9492   -5.4795    0.0000 H   0  0  0  0  0  0  0  0  0  0  0  0
    5.8852   -5.5841    0.0000 H   0  0  0  0  0  0  0  0  0  0  0  0
    9.1091   -3.9680    0.0000 H   0  0  0  0  0  0  0  0  0  0  0  0
   -6.1138    8.0636    0.0000 H   0  0  0  0  0  0  0  0  0  0  0  0
   -5.0654    8.2709    0.0000 H   0  0  0  0  0  0  0  0  0  0  0  0
    7.2405   -6.5711    0.0000 H   0  0  0  0  0  0  0  0  0  0  0  0
    8.9291   -5.7935    0.0000 H   0  0  0  0  0  0  0  0  0  0  0  0
    5.0599   -9.7104    0.0000 H   0  0  0  0  0  0  0  0  0  0  0  0
   -3.8862    6.6272    0.0000 H   0  0  0  0  0  0  0  0  0  0  0  0
   -3.5630    7.6556    0.0000 H   0  0  0  0  0  0  0  0  0  0  0  0
   -7.1304    5.9543    0.0000 H   0  0  0  0  0  0  0  0  0  0  0  0
    4.0668   -7.9390    0.0000 H   0  0  0  0  0  0  0  0  0  0  0  0
    3.6212   -8.9090    0.0000 H   0  0  0  0  0  0  0  0  0  0  0  0
   -9.1350    5.7520    0.0000 H   0  0  0  0  0  0  0  0  0  0  0  0
   -8.4285    4.9579    0.0000 H   0  0  0  0  0  0  0  0  0  0  0  0
  -10.0704    6.7730    0.0000 H   0  0  0  0  0  0  0  0  0  0  0  0
   -9.3173    9.1375    0.0000 H   0  0  0  0  0  0  0  0  0  0  0  0
   -9.0712    9.1837    0.0000 H   0  0  0  0  0  0  0  0  0  0  0  0
  -11.2559    8.4385    0.0000 H   0  0  0  0  0  0  0  0  0  0  0  0
  -11.6020    7.4274    0.0000 H   0  0  0  0  0  0  0  0  0  0  0  0
   -6.5053    5.5766    0.0000 H   0  0  0  0  0  0  0  0  0  0  0  0
   -6.8320    4.5652    0.0000 H   0  0  0  0  0  0  0  0  0  0  0  0
   -9.4597   11.7102    0.0000 H   0  0  0  0  0  0  0  0  0  0  0  0
   -8.4185   11.9503    0.0000 H   0  0  0  0  0  0  0  0  0  0  0  0
    7.9030  -10.8358    0.0000 H   0  0  0  0  0  0  0  0  0  0  0  0
    2.7705   -9.0285    0.0000 H   0  0  0  0  0  0  0  0  0  0  0  0
   -8.7843    8.5224    0.0000 H   0  0  0  0  0  0  0  0  0  0  0  0
   -7.3858    9.7386    0.0000 H   0  0  0  0  0  0  0  0  0  0  0  0
   -7.7340    8.7268    0.0000 H   0  0  0  0  0  0  0  0  0  0  0  0
    5.8712  -10.8138    0.0000 H   0  0  0  0  0  0  0  0  0  0  0  0
    6.4943  -11.6870    0.0000 H   0  0  0  0  0  0  0  0  0  0  0  0
   -7.1958   10.3334    0.0000 H   0  0  0  0  0  0  0  0  0  0  0  0
   -7.6168   12.1383    0.0000 H   0  0  0  0  0  0  0  0  0  0  0  0
   -6.8853   11.3574    0.0000 H   0  0  0  0  0  0  0  0  0  0  0  0
    6.2350   -9.6784    0.0000 H   0  0  0  0  0  0  0  0  0  0  0  0
   -9.3056    6.1865    0.0000 H   0  0  0  0  0  0  0  0  0  0  0  0
    3.7425  -12.4054    0.0000 H   0  0  0  0  0  0  0  0  0  0  0  0
  -12.2842    8.0487    0.0000 H   0  0  0  0  0  0  0  0  0  0  0  0
    6.8221  -11.4304    0.0000 H   0  0  0  0  0  0  0  0  0  0  0  0
    5.5549  -12.8230    0.0000 H   0  0  0  0  0  0  0  0  0  0  0  0
  -12.2842    4.3243    0.0000 H   0  0  0  0  0  0  0  0  0  0  0  0
   10.3300   -8.9351    0.0000 H   0  0  0  0  0  0  0  0  0  0  0  0
  -11.6801   11.7814    0.0000 H   0  0  0  0  0  0  0  0  0  0  0  0
  -11.3389   12.8016    0.0000 H   0  0  0  0  0  0  0  0  0  0  0  0
  -13.9124    7.0992    0.0000 H   0  0  0  0  0  0  0  0  0  0  0  0
  -13.9125    5.2739    0.0000 H   0  0  0  0  0  0  0  0  0  0  0  0
    9.3086  -10.6971    0.0000 H   0  0  0  0  0  0  0  0  0  0  0  0
   10.3731  -10.5904    0.0000 H   0  0  0  0  0  0  0  0  0  0  0  0
    8.6742  -10.3617    0.0000 H   0  0  0  0  0  0  0  0  0  0  0  0
    6.0713  -12.2448    0.0000 H   0  0  0  0  0  0  0  0  0  0  0  0
    9.7581  -11.8737    0.0000 H   0  0  0  0  0  0  0  0  0  0  0  0
    7.1551  -13.7424    0.0000 H   0  0  0  0  0  0  0  0  0  0  0  0
   10.6233  -11.2577    0.0000 H   0  0  0  0  0  0  0  0  0  0  0  0
   10.2979   -8.0264    0.0000 H   0  0  0  0  0  0  0  0  0  0  0  0
    8.8339   -6.0106    0.0000 H   0  0  0  0  0  0  0  0  0  0  0  0
    8.3883   -6.9807    0.0000 H   0  0  0  0  0  0  0  0  0  0  0  0
   12.4741  -11.0362    0.0000 H   0  0  0  0  0  0  0  0  0  0  0  0
   12.1560   -7.8442    0.0000 H   0  0  0  0  0  0  0  0  0  0  0  0
  1 61  2  0  0  0  0
  2 65  2  0  0  0  0
  3 66  2  0  0  0  0
  4 71  2  0  0  0  0
  5 74  2  0  0  0  0
  6 75  2  0  0  0  0
  7 77  2  0  0  0  0
  8 84  2  0  0  0  0
  9 87  2  0  0  0  0
 10 96  2  0  0  0  0
 11 97  2  0  0  0  0
 12104  1  0  0  0  0
 12167  1  0  0  0  0
 13109  2  0  0  0  0
 14110  2  0  0  0  0
 15121  1  0  0  0  0
 15168  1  0  0  0  0
 16118  2  0  0  0  0
 17121  2  0  0  0  0
 18123  2  0  0  0  0
 19125  2  0  0  0  0
 20133  2  0  0  0  0
 21140  1  0  0  0  0
 21169  1  0  0  0  0
 22140  2  0  0  0  0
 23145  2  0  0  0  0
 24155  1  0  0  0  0
 24170  1  0  0  0  0
 25155  2  0  0  0  0
 26159  1  0  0  0  0
 26171  1  0  0  0  0
 27160  2  0  0  0  0
 28166  1  0  0  0  0
 28172  1  0  0  0  0
 29 58  1  0  0  0  0
 29 61  1  0  0  0  0
 29 62  1  0  0  0  0
 30 56  1  0  0  0  0
 30 60  1  0  0  0  0
 30 65  1  0  0  0  0
 31 66  1  0  0  0  0
 31 70  1  0  0  0  0
 31173  1  0  0  0  0
 32 67  1  0  0  0  0
 32 71  1  0  0  0  0
 32174  1  0  0  0  0
 33 72  1  0  0  0  0
 33 77  1  0  0  0  0
 33175  1  0  0  0  0
 34 75  1  0  0  0  0
 34 79  1  0  0  0  0
 34176  1  0  0  0  0
 35 74  1  0  0  0  0
 35177  1  0  0  0  0
 35178  1  0  0  0  0
 36 87  1  0  0  0  0
 36179  1  0  0  0  0
 37 80  1  0  0  0  0
 37 91  1  0  0  0  0
 37180  1  0  0  0  0
 38 84  1  0  0  0  0
 38 94  1  0  0  0  0
 38181  1  0  0  0  0
 39 90  1  0  0  0  0
 39 97  1  0  0  0  0
 39182  1  0  0  0  0
 40 91  1  0  0  0  0
 40183  1  0  0  0  0
 40184  1  0  0  0  0
 41 92  1  0  0  0  0
 41185  1  0  0  0  0
 41186  1  0  0  0  0
 42 91  2  0  0  0  0
 42187  1  0  0  0  0
 43 99  1  0  0  0  0
 43101  1  0  0  0  0
 43188  1  0  0  0  0
 44 96  1  0  0  0  0
 44102  1  0  0  0  0
 44189  1  0  0  0  0
 45100  1  0  0  0  0
 45110  1  0  0  0  0
 45190  1  0  0  0  0
 46109  1  0  0  0  0
 46113  1  0  0  0  0
 46191  1  0  0  0  0
 47111  1  0  0  0  0
 47123  1  0  0  0  0
 47192  1  0  0  0  0
 48117  1  0  0  0  0
 48118  1  0  0  0  0
 48193  1  0  0  0  0
 49125  1  0  0  0  0
 49194  1  0  0  0  0
 50130  1  0  0  0  0
 50132  1  0  0  0  0
 50195  1  0  0  0  0
 51128  1  0  0  0  0
 51145  1  0  0  0  0
 51196  1  0  0  0  0
 52138  1  0  0  0  0
 52139  1  0  0  0  0
 52197  1  0  0  0  0
 53133  1  0  0  0  0
 53149  1  0  0  0  0
 53198  1  0  0  0  0
 54148  1  0  0  0  0
 54160  1  0  0  0  0
 54199  1  0  0  0  0
 55163  1  0  0  0  0
 55200  1  0  0  0  0
 55201  1  0  0  0  0
 56 57  1  0  0  0  0
 56 61  1  0  0  0  0
 56202  1  1  0  0  0
 57 59  1  0  0  0  0
 57203  1  0  0  0  0
 57204  1  0  0  0  0
 58 63  1  0  0  0  0
 58 66  1  0  0  0  0
 58205  1  1  0  0  0
 59 60  1  0  0  0  0
 59206  1  0  0  0  0
 59207  1  0  0  0  0
 60208  1  0  0  0  0
 60209  1  0  0  0  0
 62 64  1  0  0  0  0
 62210  1  0  0  0  0
 62211  1  0  0  0  0
 63 64  1  0  0  0  0
 63212  1  0  0  0  0
 63213  1  0  0  0  0
 64214  1  0  0  0  0
 64215  1  0  0  0  0
 65 67  1  0  0  0  0
 67 68  1  0  0  0  0
 67216  1  6  0  0  0
 68 69  1  0  0  0  0
 68217  1  0  0  0  0
 68218  1  0  0  0  0
 69 74  1  0  0  0  0
 69219  1  0  0  0  0
 69220  1  0  0  0  0
 70 75  1  0  0  0  0
 70221  1  0  0  0  0
 70222  1  0  0  0  0
 71 72  1  0  0  0  0
 72 73  1  0  0  0  0
 72223  1  6  0  0  0
 73 76  1  0  0  0  0
 73224  1  0  0  0  0
 73225  1  0  0  0  0
 76 80  1  0  0  0  0
 76226  1  0  0  0  0
 76227  1  0  0  0  0
 77 78  1  0  0  0  0
 78 36  1  0  0  0  0
 78 81  1  0  0  0  0
 78228  1  6  0  0  0
 79 82  1  0  0  0  0
 79 84  1  0  0  0  0
 79229  1  1  0  0  0
 80230  1  0  0  0  0
 80231  1  0  0  0  0
 81 83  1  0  0  0  0
 81 86  1  0  0  0  0
 81232  1  1  0  0  0
 82 85  1  0  0  0  0
 82233  1  0  0  0  0
 82234  1  0  0  0  0
 83 89  1  0  0  0  0
 83235  1  0  0  0  0
 83236  1  0  0  0  0
 85 88  1  0  0  0  0
 85237  1  0  0  0  0
 85238  1  0  0  0  0
 86239  1  0  0  0  0
 86240  1  0  0  0  0
 86241  1  0  0  0  0
 87 90  1  0  0  0  0
 88 92  1  0  0  0  0
 88242  1  0  0  0  0
 88243  1  0  0  0  0
 89244  1  0  0  0  0
 89245  1  0  0  0  0
 89246  1  0  0  0  0
 90 93  1  0  0  0  0
 90247  1  1  0  0  0
 92248  1  0  0  0  0
 92249  1  0  0  0  0
 93 95  1  0  0  0  0
 93250  1  0  0  0  0
 93251  1  0  0  0  0
 94 96  1  0  0  0  0
 94252  1  0  0  0  0
 94253  1  0  0  0  0
 95 98  1  0  0  0  0
 95 99  2  0  0  0  0
 97100  1  0  0  0  0
 98101  2  0  0  0  0
 98103  1  0  0  0  0
 99254  1  0  0  0  0
100104  1  0  0  0  0
100255  1  1  0  0  0
101105  1  0  0  0  0
102106  1  0  0  0  0
102109  1  0  0  0  0
102256  1  1  0  0  0
103107  2  0  0  0  0
103257  1  0  0  0  0
104258  1  0  0  0  0
104259  1  0  0  0  0
105108  2  0  0  0  0
105260  1  0  0  0  0
106112  1  0  0  0  0
106261  1  0  0  0  0
106262  1  0  0  0  0
107108  1  0  0  0  0
107263  1  0  0  0  0
108264  1  0  0  0  0
110111  1  0  0  0  0
111114  1  0  0  0  0
111265  1  6  0  0  0
112121  1  0  0  0  0
112266  1  0  0  0  0
112267  1  0  0  0  0
113115  1  0  0  0  0
113118  1  0  0  0  0
113268  1  6  0  0  0
114116  1  0  0  0  0
114269  1  0  0  0  0
114270  1  0  0  0  0
115126  1  0  0  0  0
115271  1  0  0  0  0
115272  1  0  0  0  0
116124  1  0  0  0  0
116130  2  0  0  0  0
117122  1  0  0  0  0
117125  1  0  0  0  0
117273  1  6  0  0  0
119120  1  0  0  0  0
119127  1  0  0  0  0
119131  1  0  0  0  0
119274  1  1  0  0  0
120 49  1  0  0  0  0
120133  1  0  0  0  0
120275  1  1  0  0  0
122129  1  0  0  0  0
122276  1  0  0  0  0
122277  1  0  0  0  0
123128  1  0  0  0  0
124132  2  0  0  0  0
124137  1  0  0  0  0
126140  1  0  0  0  0
126278  1  0  0  0  0
126279  1  0  0  0  0
127136  1  0  0  0  0
127280  1  0  0  0  0
127281  1  0  0  0  0
128135  1  0  0  0  0
128282  1  6  0  0  0
129134  1  0  0  0  0
129138  2  0  0  0  0
130283  1  0  0  0  0
131284  1  0  0  0  0
131285  1  0  0  0  0
131286  1  0  0  0  0
132141  1  0  0  0  0
134139  2  0  0  0  0
134143  1  0  0  0  0
135142  1  0  0  0  0
135287  1  0  0  0  0
135288  1  0  0  0  0
136289  1  0  0  0  0
136290  1  0  0  0  0
136291  1  0  0  0  0
137144  2  0  0  0  0
137292  1  0  0  0  0
138293  1  0  0  0  0
139147  1  0  0  0  0
141146  2  0  0  0  0
141294  1  0  0  0  0
142153  2  0  0  0  0
142154  1  0  0  0  0
143150  2  0  0  0  0
143295  1  0  0  0  0
144146  1  0  0  0  0
144296  1  0  0  0  0
145148  1  0  0  0  0
146297  1  0  0  0  0
147151  2  0  0  0  0
147298  1  0  0  0  0
148152  1  0  0  0  0
148299  1  6  0  0  0
149155  1  0  0  0  0
149300  1  0  0  0  0
149301  1  0  0  0  0
150151  1  0  0  0  0
150302  1  0  0  0  0
151303  1  0  0  0  0
152158  1  0  0  0  0
152304  1  0  0  0  0
152305  1  0  0  0  0
153156  1  0  0  0  0
153306  1  0  0  0  0
154157  2  0  0  0  0
154307  1  0  0  0  0
156159  2  0  0  0  0
156308  1  0  0  0  0
157159  1  0  0  0  0
157309  1  0  0  0  0
158161  2  0  0  0  0
158162  1  0  0  0  0
160163  1  0  0  0  0
161164  1  0  0  0  0
161310  1  0  0  0  0
162165  2  0  0  0  0
162311  1  0  0  0  0
163312  1  0  0  0  0
163313  1  0  0  0  0
164166  2  0  0  0  0
164314  1  0  0  0  0
165166  1  0  0  0  0
165315  1  0  0  0  0
M  END
>  <DRUGBANK_ID>
DB15272

>  <COMMON_NAME>
Edratide

>  <CAS_NUMBER>
433922-67-9

>  <UNII>
38PLP07BKC

>  <SYNONYMS>
Edratide

$$$$
