1447
 OpenBabel10282417072D

 25 26  0  0  1  0  0  0  0  0999 V2000
    2.3888    0.5203    0.0000 O   0  0  0  0  0  0  0  0  0  0  0  0
    3.4687    1.3049    0.0000 N   0  0  0  0  0  0  0  0  0  0  0  0
    2.1587    1.9724    0.0000 N   0  0  0  0  0  0  0  0  0  0  0  0
    3.0562    0.0354    0.0000 C   0  0  3  0  0  0  0  0  0  0  0  0
    3.7236    0.5203    0.0000 C   0  0  3  0  0  0  0  0  0  0  0  0
    3.0562   -0.7896    0.0000 C   0  0  0  0  0  0  0  0  0  0  0  0
    4.5083    0.2653    0.0000 C   0  0  0  0  0  0  0  0  0  0  0  0
    2.6437    1.3049    0.0000 C   0  0  0  0  0  0  0  0  0  0  0  0
    3.7707   -1.2021    0.0000 C   0  0  0  0  0  0  0  0  0  0  0  0
    2.3417   -1.2021    0.0000 C   0  0  0  0  0  0  0  0  0  0  0  0
    3.7707   -2.0272    0.0000 C   0  0  0  0  0  0  0  0  0  0  0  0
    2.3417   -2.0272    0.0000 C   0  0  0  0  0  0  0  0  0  0  0  0
    3.0562   -2.4397    0.0000 C   0  0  0  0  0  0  0  0  0  0  0  0
    2.5591    2.8718    0.0000 H   0  0  0  0  0  0  0  0  0  0  0  0
    1.1796    1.8695    0.0000 H   0  0  0  0  0  0  0  0  0  0  0  0
    3.0562    1.1054    0.0000 H   0  0  0  0  0  0  0  0  0  0  0  0
    2.7060    0.8510    0.0000 H   0  0  0  0  0  0  0  0  0  0  0  0
    4.7307   -0.7813    0.0000 H   0  0  0  0  0  0  0  0  0  0  0  0
    5.3035    0.9812    0.0000 H   0  0  0  0  0  0  0  0  0  0  0  0
    5.5259   -0.0654    0.0000 H   0  0  0  0  0  0  0  0  0  0  0  0
    4.6644   -0.6861    0.0000 H   0  0  0  0  0  0  0  0  0  0  0  0
    1.4480   -0.6861    0.0000 H   0  0  0  0  0  0  0  0  0  0  0  0
    4.6644   -2.5432    0.0000 H   0  0  0  0  0  0  0  0  0  0  0  0
    1.4480   -2.5432    0.0000 H   0  0  0  0  0  0  0  0  0  0  0  0
    3.0562   -3.4717    0.0000 H   0  0  0  0  0  0  0  0  0  0  0  0
  1  4  1  0  0  0  0
  1  8  1  0  0  0  0
  2  5  1  0  0  0  0
  2  8  2  0  0  0  0
  3  8  1  0  0  0  0
  3 14  1  0  0  0  0
  3 15  1  0  0  0  0
  4  5  1  0  0  0  0
  4  6  1  0  0  0  0
  4 16  1  0  0  0  0
  5  7  1  0  0  0  0
  5 17  1  0  0  0  0
  6  9  2  0  0  0  0
  6 10  1  0  0  0  0
  7 18  1  0  0  0  0
  7 19  1  0  0  0  0
  7 20  1  0  0  0  0
  9 11  1  0  0  0  0
  9 21  1  0  0  0  0
 10 12  2  0  0  0  0
 10 22  1  0  0  0  0
 11 13  2  0  0  0  0
 11 23  1  0  0  0  0
 12 13  1  0  0  0  0
 12 24  1  0  0  0  0
 13 25  1  0  0  0  0
M  END
>  <DRUGBANK_ID>
DB01447

>  <COMMON_NAME>
4-Methylaminorex

>  <CAS_NUMBER>
3568-94-3

>  <UNII>
7PK6VC94OU

$$$$
