723
 OpenBabel10282417072D

 32 32  0  0  1  0  0  0  0  0999 V2000
    3.0791    1.3159    0.0000 O   0  0  0  0  0  0  0  0  0  0  0  0
    2.3645    0.0784    0.0000 O   0  0  0  0  0  0  0  0  0  0  0  0
    5.2224   -1.5717    0.0000 O   0  0  0  0  0  0  0  0  0  0  0  0
    4.5080    2.1409    0.0000 N   0  0  0  0  0  0  0  0  0  0  0  0
    3.7935    0.9034    0.0000 C   0  0  3  0  0  0  0  0  0  0  0  0
    4.5080    1.3159    0.0000 C   0  0  3  0  0  0  0  0  0  0  0  0
    3.7935    0.0784    0.0000 C   0  0  0  0  0  0  0  0  0  0  0  0
    5.2224    0.9034    0.0000 C   0  0  0  0  0  0  0  0  0  0  0  0
    3.0791   -0.3341    0.0000 C   0  0  0  0  0  0  0  0  0  0  0  0
    4.5080   -0.3341    0.0000 C   0  0  0  0  0  0  0  0  0  0  0  0
    4.5080   -1.1592    0.0000 C   0  0  0  0  0  0  0  0  0  0  0  0
    3.0791   -1.1592    0.0000 C   0  0  0  0  0  0  0  0  0  0  0  0
    3.7935   -1.5717    0.0000 C   0  0  0  0  0  0  0  0  0  0  0  0
    1.6500   -0.3341    0.0000 C   0  0  0  0  0  0  0  0  0  0  0  0
    5.2224   -2.3967    0.0000 C   0  0  0  0  0  0  0  0  0  0  0  0
    3.0791    2.2859    0.0000 H   0  0  0  0  0  0  0  0  0  0  0  0
    5.3913    2.6509    0.0000 H   0  0  0  0  0  0  0  0  0  0  0  0
    3.6247    2.6509    0.0000 H   0  0  0  0  0  0  0  0  0  0  0  0
    3.7935    1.9734    0.0000 H   0  0  0  0  0  0  0  0  0  0  0  0
    3.5814    1.8509    0.0000 H   0  0  0  0  0  0  0  0  0  0  0  0
    5.2224   -0.1666    0.0000 H   0  0  0  0  0  0  0  0  0  0  0  0
    6.1491    1.4384    0.0000 H   0  0  0  0  0  0  0  0  0  0  0  0
    6.1490    0.3684    0.0000 H   0  0  0  0  0  0  0  0  0  0  0  0
    5.4017    0.1819    0.0000 H   0  0  0  0  0  0  0  0  0  0  0  0
    2.1854   -1.6752    0.0000 H   0  0  0  0  0  0  0  0  0  0  0  0
    3.7935   -2.6037    0.0000 H   0  0  0  0  0  0  0  0  0  0  0  0
    0.7234    0.2009    0.0000 H   0  0  0  0  0  0  0  0  0  0  0  0
    1.6500   -1.4041    0.0000 H   0  0  0  0  0  0  0  0  0  0  0  0
    0.7233   -0.8691    0.0000 H   0  0  0  0  0  0  0  0  0  0  0  0
    4.2958   -2.9317    0.0000 H   0  0  0  0  0  0  0  0  0  0  0  0
    6.1490   -2.9317    0.0000 H   0  0  0  0  0  0  0  0  0  0  0  0
    5.2224   -3.4667    0.0000 H   0  0  0  0  0  0  0  0  0  0  0  0
  1  5  1  0  0  0  0
  1 16  1  0  0  0  0
  2  9  1  0  0  0  0
  2 14  1  0  0  0  0
  3 11  1  0  0  0  0
  3 15  1  0  0  0  0
  4  6  1  0  0  0  0
  4 17  1  0  0  0  0
  4 18  1  0  0  0  0
  5  6  1  0  0  0  0
  5  7  1  0  0  0  0
  5 19  1  0  0  0  0
  6  8  1  0  0  0  0
  6 20  1  0  0  0  0
  7  9  2  0  0  0  0
  7 10  1  0  0  0  0
  8 21  1  0  0  0  0
  8 22  1  0  0  0  0
  8 23  1  0  0  0  0
  9 12  1  0  0  0  0
 10 11  2  0  0  0  0
 10 24  1  0  0  0  0
 11 13  1  0  0  0  0
 12 13  2  0  0  0  0
 12 25  1  0  0  0  0
 13 26  1  0  0  0  0
 14 27  1  0  0  0  0
 14 28  1  0  0  0  0
 14 29  1  0  0  0  0
 15 30  1  0  0  0  0
 15 31  1  0  0  0  0
 15 32  1  0  0  0  0
M  END
>  <DRUGBANK_ID>
DB00723

>  <SECONDARY_ACCESSION_NUMBERS>
APRD00062

>  <COMMON_NAME>
Methoxamine

>  <CAS_NUMBER>
390-28-3

>  <UNII>
HUQ1KC1YLI

>  <SYNONYMS>
Méthoxamédrine; Methoxamin; Methoxamine; Méthoxamine; Methoxaminum; Metossamina; Metoxamina; Pseudomethoxamine

$$$$
