
 OpenBabel10282417072D

 49 51  0  0  1  0  0  0  0  0999 V2000
    3.5724   -5.3625    0.0000 C   0  0  0  0  0  0  0  0  0  0  0  0
    3.5724   -6.1875    0.0000 C   0  0  0  0  0  0  0  0  0  0  0  0
    4.2868   -6.6000    0.0000 C   0  0  0  0  0  0  0  0  0  0  0  0
    4.2868   -7.4250    0.0000 C   0  0  0  0  0  0  0  0  0  0  0  0
    3.5724   -7.8375    0.0000 C   0  0  0  0  0  0  0  0  0  0  0  0
    2.8579   -7.4250    0.0000 C   0  0  0  0  0  0  0  0  0  0  0  0
    2.8579   -6.6000    0.0000 C   0  0  0  0  0  0  0  0  0  0  0  0
    3.5724   -8.6625    0.0000 C   0  0  0  0  0  0  0  0  0  0  0  0
    2.8579   -9.0750    0.0000 O   0  0  0  0  0  0  0  0  0  0  0  0
    2.8579   -9.9000    0.0000 C   0  0  0  0  0  0  0  0  0  0  0  0
    3.5724  -10.3125    0.0000 O   0  0  0  0  0  0  0  0  0  0  0  0
    2.1434  -10.3125    0.0000 N   0  0  0  0  0  0  0  0  0  0  0  0
    2.1434  -11.1375    0.0000 C   0  0  0  0  0  0  0  0  0  0  0  0
    1.4289  -11.5500    0.0000 C   0  0  0  0  0  0  0  0  0  0  0  0
    0.7145  -11.1375    0.0000 C   0  0  1  0  0  0  0  0  0  0  0  0
    0.7145  -10.3125    0.0000 C   0  0  1  0  0  0  0  0  0  0  0  0
    1.4289   -9.9000    0.0000 C   0  0  0  0  0  0  0  0  0  0  0  0
    0.0000   -9.9000    0.0000 F   0  0  0  0  0  0  0  0  0  0  0  0
   -0.0000  -11.5500    0.0000 C   0  0  0  0  0  0  0  0  0  0  0  0
   -0.0000  -12.3750    0.0000 N   0  0  0  0  0  0  0  0  0  0  0  0
   -0.7145  -12.7875    0.0000 C   0  0  0  0  0  0  0  0  0  0  0  0
   -0.7145  -13.6125    0.0000 N   0  0  0  0  0  0  0  0  0  0  0  0
   -1.4289  -14.0250    0.0000 C   0  0  0  0  0  0  0  0  0  0  0  0
   -2.1434  -13.6125    0.0000 C   0  0  0  0  0  0  0  0  0  0  0  0
   -2.1434  -12.7875    0.0000 C   0  0  0  0  0  0  0  0  0  0  0  0
   -1.4289  -12.3750    0.0000 N   0  0  0  0  0  0  0  0  0  0  0  0
    4.4990   -4.8275    0.0000 H   0  0  0  0  0  0  0  0  0  0  0  0
    2.6458   -4.8275    0.0000 H   0  0  0  0  0  0  0  0  0  0  0  0
    3.5724   -4.2925    0.0000 H   0  0  0  0  0  0  0  0  0  0  0  0
    5.1805   -6.0840    0.0000 H   0  0  0  0  0  0  0  0  0  0  0  0
    5.1805   -7.9410    0.0000 H   0  0  0  0  0  0  0  0  0  0  0  0
    1.9642   -7.9410    0.0000 H   0  0  0  0  0  0  0  0  0  0  0  0
    1.9642   -6.0840    0.0000 H   0  0  0  0  0  0  0  0  0  0  0  0
    4.4990   -9.1975    0.0000 H   0  0  0  0  0  0  0  0  0  0  0  0
    3.5724   -9.7325    0.0000 H   0  0  0  0  0  0  0  0  0  0  0  0
    3.0700  -11.6725    0.0000 H   0  0  0  0  0  0  0  0  0  0  0  0
    2.1434  -12.2075    0.0000 H   0  0  0  0  0  0  0  0  0  0  0  0
    1.4289  -12.6200    0.0000 H   0  0  0  0  0  0  0  0  0  0  0  0
    0.5022  -12.0850    0.0000 H   0  0  0  0  0  0  0  0  0  0  0  0
    0.7145  -12.2075    0.0000 H   0  0  0  0  0  0  0  0  0  0  0  0
   -0.2121  -10.8475    0.0000 H   0  0  0  0  0  0  0  0  0  0  0  0
    1.4289   -8.8300    0.0000 H   0  0  0  0  0  0  0  0  0  0  0  0
    2.3555   -9.3650    0.0000 H   0  0  0  0  0  0  0  0  0  0  0  0
   -0.9266  -11.0150    0.0000 H   0  0  0  0  0  0  0  0  0  0  0  0
   -0.9266  -12.0850    0.0000 H   0  0  0  0  0  0  0  0  0  0  0  0
    0.8526  -12.8673    0.0000 H   0  0  0  0  0  0  0  0  0  0  0  0
   -1.4289  -15.0570    0.0000 H   0  0  0  0  0  0  0  0  0  0  0  0
   -3.0371  -14.1285    0.0000 H   0  0  0  0  0  0  0  0  0  0  0  0
   -3.0371  -12.2715    0.0000 H   0  0  0  0  0  0  0  0  0  0  0  0
  1  2  1  0  0  0  0
  1 27  1  0  0  0  0
  1 28  1  0  0  0  0
  1 29  1  0  0  0  0
  2  3  2  0  0  0  0
  2  7  1  0  0  0  0
  3  4  1  0  0  0  0
  3 30  1  0  0  0  0
  4  5  2  0  0  0  0
  4 31  1  0  0  0  0
  5  6  1  0  0  0  0
  5  8  1  0  0  0  0
  6  7  2  0  0  0  0
  6 32  1  0  0  0  0
  7 33  1  0  0  0  0
  8  9  1  0  0  0  0
  8 34  1  0  0  0  0
  8 35  1  0  0  0  0
  9 10  1  0  0  0  0
 10 11  2  0  0  0  0
 10 12  1  0  0  0  0
 12 13  1  0  0  0  0
 12 17  1  0  0  0  0
 13 14  1  0  0  0  0
 13 36  1  0  0  0  0
 13 37  1  0  0  0  0
 14 15  1  0  0  0  0
 14 38  1  0  0  0  0
 14 39  1  0  0  0  0
 15 16  1  0  0  0  0
 15 19  1  0  0  0  0
 15 40  1  1  0  0  0
 16 17  1  0  0  0  0
 16 18  1  0  0  0  0
 16 41  1  1  0  0  0
 17 42  1  0  0  0  0
 17 43  1  0  0  0  0
 19 20  1  0  0  0  0
 19 44  1  0  0  0  0
 19 45  1  0  0  0  0
 20 21  1  0  0  0  0
 20 46  1  0  0  0  0
 21 22  2  0  0  0  0
 21 26  1  0  0  0  0
 22 23  1  0  0  0  0
 23 24  2  0  0  0  0
 23 47  1  0  0  0  0
 24 25  1  0  0  0  0
 24 48  1  0  0  0  0
 25 26  2  0  0  0  0
 25 49  1  0  0  0  0
M  END
>  <DRUGBANK_ID>
DB12063

>  <COMMON_NAME>
CERC-301

>  <CAS_NUMBER>
808732-98-1

>  <UNII>
5HAM167S5T

$$$$
