
 OpenBabel10282417072D

 59 59  0  0  0  0  0  0  0  0999 V2000
   -0.8427   -1.0501    0.0000 O   0  0  0  0  0  0  0  0  0  0  0  0
    4.2284   -1.4173    0.0000 O   0  0  0  0  0  0  0  0  0  0  0  0
    0.0364    0.9476    0.0000 O   0  0  0  0  0  0  0  0  0  0  0  0
   -1.8902   -0.0782    0.0000 O   0  0  0  0  0  0  0  0  0  0  0  0
   -1.0110    1.9196    0.0000 O   0  0  0  0  0  0  0  0  0  0  0  0
    1.1088   -2.9196    0.0000 O   0  0  0  0  0  0  0  0  0  0  0  0
    1.0839   -0.0242    0.0000 O   0  0  0  0  0  0  0  0  0  0  0  0
    0.7659   -1.4173    0.0000 N   0  0  0  0  0  0  0  0  0  0  0  0
    2.4971   -2.7632    0.0000 N   0  0  0  0  0  0  0  0  0  0  0  0
    1.5702   -1.6009    0.0000 C   0  0  1  0  0  0  0  0  0  0  0  0
    2.0846   -0.9559    0.0000 C   0  0  0  0  0  0  0  0  0  0  0  0
    2.9097   -0.9559    0.0000 C   0  0  0  0  0  0  0  0  0  0  0  0
    3.4241   -1.6009    0.0000 C   0  0  2  0  0  0  0  0  0  0  0  0
   -0.5247    0.3429    0.0000 C   0  0  1  0  0  0  0  0  0  0  0  0
   -0.2815   -0.4454    0.0000 C   0  0  2  0  0  0  0  0  0  0  0  0
   -1.3290    0.5265    0.0000 C   0  0  2  0  0  0  0  0  0  0  0  0
    3.2404   -2.4052    0.0000 C   0  0  0  0  0  0  0  0  0  0  0  0
    1.7538   -2.4052    0.0000 C   0  0  0  0  0  0  0  0  0  0  0  0
   -1.5722    1.3149    0.0000 C   0  0  1  0  0  0  0  0  0  0  0  0
    0.5227   -0.6289    0.0000 C   0  0  0  0  0  0  0  0  0  0  0  0
   -3.4241    2.4704    0.0000 C   0  0  0  0  0  0  0  0  0  0  0  0
   -2.3765    1.4984    0.0000 C   0  0  0  0  0  0  0  0  0  0  0  0
   -2.6197    2.2868    0.0000 C   0  0  0  0  0  0  0  0  0  0  0  0
   -4.2284    2.6539    0.0000 C   0  0  0  0  0  0  0  0  0  0  0  0
   -3.2405    3.2747    0.0000 C   0  0  0  0  0  0  0  0  0  0  0  0
   -3.6076    1.6661    0.0000 C   0  0  0  0  0  0  0  0  0  0  0  0
   -1.6470   -0.8665    0.0000 C   0  0  0  0  0  0  0  0  0  0  0  0
    0.4180   -1.7923    0.0000 H   0  0  0  0  0  0  0  0  0  0  0  0
    2.4971   -3.2747    0.0000 H   0  0  0  0  0  0  0  0  0  0  0  0
    4.8882   -2.1283    0.0000 H   0  0  0  0  0  0  0  0  0  0  0  0
    0.9821    0.7317    0.0000 H   0  0  0  0  0  0  0  0  0  0  0  0
   -2.8359    0.1377    0.0000 H   0  0  0  0  0  0  0  0  0  0  0  0
   -0.0653    1.7037    0.0000 H   0  0  0  0  0  0  0  0  0  0  0  0
    1.2168   -0.5909    0.0000 H   0  0  0  0  0  0  0  0  0  0  0  0
    1.6204    0.0081    0.0000 H   0  0  0  0  0  0  0  0  0  0  0  0
    2.6539   -0.0499    0.0000 H   0  0  0  0  0  0  0  0  0  0  0  0
    3.3739    0.0081    0.0000 H   0  0  0  0  0  0  0  0  0  0  0  0
    3.9730   -0.8361    0.0000 H   0  0  0  0  0  0  0  0  0  0  0  0
    3.7775   -0.5909    0.0000 H   0  0  0  0  0  0  0  0  0  0  0  0
    0.5185    0.1048    0.0000 H   0  0  0  0  0  0  0  0  0  0  0  0
   -1.3247   -0.2073    0.0000 H   0  0  0  0  0  0  0  0  0  0  0  0
   -1.0137   -0.4960    0.0000 H   0  0  0  0  0  0  0  0  0  0  0  0
    4.0769   -3.0724    0.0000 H   0  0  0  0  0  0  0  0  0  0  0  0
    4.2504   -2.0519    0.0000 H   0  0  0  0  0  0  0  0  0  0  0  0
   -0.5290    1.0768    0.0000 H   0  0  0  0  0  0  0  0  0  0  0  0
   -3.0784    0.7419    0.0000 H   0  0  0  0  0  0  0  0  0  0  0  0
   -1.9178    3.0433    0.0000 H   0  0  0  0  0  0  0  0  0  0  0  0
   -4.5439    3.6763    0.0000 H   0  0  0  0  0  0  0  0  0  0  0  0
   -4.9561    1.8695    0.0000 H   0  0  0  0  0  0  0  0  0  0  0  0
   -5.2716    2.8919    0.0000 H   0  0  0  0  0  0  0  0  0  0  0  0
   -2.2180    3.5901    0.0000 H   0  0  0  0  0  0  0  0  0  0  0  0
   -4.0248    4.0025    0.0000 H   0  0  0  0  0  0  0  0  0  0  0  0
   -3.0024    4.3179    0.0000 H   0  0  0  0  0  0  0  0  0  0  0  0
   -4.6300    1.3506    0.0000 H   0  0  0  0  0  0  0  0  0  0  0  0
   -2.8232    0.9384    0.0000 H   0  0  0  0  0  0  0  0  0  0  0  0
   -3.8456    0.6229    0.0000 H   0  0  0  0  0  0  0  0  0  0  0  0
   -1.9624    0.1560    0.0000 H   0  0  0  0  0  0  0  0  0  0  0  0
   -2.3748   -1.6508    0.0000 H   0  0  0  0  0  0  0  0  0  0  0  0
   -2.6902   -0.6284    0.0000 H   0  0  0  0  0  0  0  0  0  0  0  0
  1 27  1  0  0  0  0
  2 30  1  0  0  0  0
  3 31  1  0  0  0  0
  4 32  1  0  0  0  0
  5 33  1  0  0  0  0
  6 18  2  0  0  0  0
  7 20  2  0  0  0  0
  8 20  1  0  0  0  0
  8 28  1  0  0  0  0
  9 17  1  0  0  0  0
  9 18  1  0  0  0  0
  9 29  1  0  0  0  0
 10  8  1  0  0  0  0
 10 11  1  0  0  0  0
 10 18  1  0  0  0  0
 10 34  1  6  0  0  0
 11 12  1  0  0  0  0
 11 35  1  0  0  0  0
 11 36  1  0  0  0  0
 12 13  1  0  0  0  0
 12 37  1  0  0  0  0
 12 38  1  0  0  0  0
 13  2  1  0  0  0  0
 13 17  1  0  0  0  0
 13 39  1  6  0  0  0
 14  3  1  0  0  0  0
 14 15  1  0  0  0  0
 14 16  1  0  0  0  0
 14 40  1  6  0  0  0
 15  1  1  0  0  0  0
 15 20  1  0  0  0  0
 15 41  1  1  0  0  0
 16  4  1  0  0  0  0
 16 19  1  0  0  0  0
 16 42  1  6  0  0  0
 17 43  1  0  0  0  0
 17 44  1  0  0  0  0
 19  5  1  0  0  0  0
 19 22  1  0  0  0  0
 19 45  1  6  0  0  0
 21 23  1  0  0  0  0
 21 24  1  0  0  0  0
 21 25  1  0  0  0  0
 21 26  1  0  0  0  0
 22 23  2  0  0  0  0
 22 46  1  0  0  0  0
 23 47  1  0  0  0  0
 24 48  1  0  0  0  0
 24 49  1  0  0  0  0
 24 50  1  0  0  0  0
 25 51  1  0  0  0  0
 25 52  1  0  0  0  0
 25 53  1  0  0  0  0
 26 54  1  0  0  0  0
 26 55  1  0  0  0  0
 26 56  1  0  0  0  0
 27 57  1  0  0  0  0
 27 58  1  0  0  0  0
 27 59  1  0  0  0  0
M  END
>  <DRUGBANK_ID>
DB03396

>  <SECONDARY_ACCESSION_NUMBERS>
EXPT03029

>  <COMMON_NAME>
(2R,3R,4S,5R,6E)-3,4,5-Trihydroxy-N-[(3S,6R)-6-hydroxy-2-oxo-3-azepanyl]-2-methoxy-8,8-dimethyl-6-nonenamide

$$$$
