NN1
 OpenBabel10282417072D

 56 59  0  0  0  0  0  0  0  0999 V2000
   -0.7137   -3.6426    0.0000 C   0  0  0  0  0  0  0  0  0  0  0  0
    4.2030    0.0377    0.0000 C   0  0  0  0  0  0  0  0  0  0  0  0
    0.0779   -3.8748    0.0000 C   0  0  0  0  0  0  0  0  0  0  0  0
   -1.3106   -4.2121    0.0000 C   0  0  0  0  0  0  0  0  0  0  0  0
   -1.1158   -5.0138    0.0000 C   0  0  0  0  0  0  0  0  0  0  0  0
   -0.3242   -5.2460    0.0000 C   0  0  0  0  0  0  0  0  0  0  0  0
    0.6873   -0.3307    0.0000 C   0  0  1  0  0  0  0  0  0  0  0  0
    1.1367    1.2070    0.0000 C   0  0  0  0  0  0  0  0  0  0  0  0
    1.4227    0.0430    0.0000 C   0  0  1  0  0  0  0  0  0  0  0  0
    2.1583   -0.3307    0.0000 C   0  0  0  0  0  0  0  0  0  0  0  0
    2.6078    0.4596    0.0000 C   0  0  1  0  0  0  0  0  0  0  0  0
    1.8722    0.0859    0.0000 C   0  0  0  0  0  0  0  0  0  0  0  0
    0.2579   -2.8683    0.0000 C   0  0  0  0  0  0  0  0  0  0  0  0
   -0.3116   -2.2714    0.0000 C   0  0  0  0  0  0  0  0  0  0  0  0
   -0.8812   -1.6745    0.0000 C   0  0  0  0  0  0  0  0  0  0  0  0
   -0.9085   -2.8409    0.0000 O   0  0  0  0  0  0  0  0  0  0  0  0
    0.2852   -1.7019    0.0000 C   0  0  0  0  0  0  0  0  0  0  0  0
    1.0769   -1.9340    0.0000 O   0  0  0  0  0  0  0  0  0  0  0  0
    0.0905   -0.9002    0.0000 N   0  0  0  0  0  0  0  0  0  0  0  0
    1.1367    0.4596    0.0000 C   0  0  1  0  0  0  0  0  0  0  0  0
    1.8722    1.5807    0.0000 C   0  0  1  0  0  0  0  0  0  0  0  0
    1.4227    0.7904    0.0000 C   0  0  0  0  0  0  0  0  0  0  0  0
    2.6078    1.2070    0.0000 C   0  0  0  0  0  0  0  0  0  0  0  0
    3.4054    0.2487    0.0000 S   0  0  0  0  0  0  0  0  0  0  0  0
    3.1945   -0.5489    0.0000 O   0  0  0  0  0  0  0  0  0  0  0  0
    3.6164    1.0462    0.0000 O   0  0  0  0  0  0  0  0  0  0  0  0
    0.2727   -4.6764    0.0000 C   0  0  0  0  0  0  0  0  0  0  0  0
    0.6748   -3.3052    0.0000 Cl  0  0  0  0  0  0  0  0  0  0  0  0
   -0.1294   -6.0476    0.0000 F   0  0  0  0  0  0  0  0  0  0  0  0
    0.4282   -0.8540    0.0000 H   0  0  0  0  0  0  0  0  0  0  0  0
    1.0474   -0.4043    0.0000 H   0  0  0  0  0  0  0  0  0  0  0  0
    0.5722    0.6089    0.0000 H   0  0  0  0  0  0  0  0  0  0  0  0
    1.8722    2.1646    0.0000 H   0  0  0  0  0  0  0  0  0  0  0  0
    4.4832   -0.9950    0.0000 H   0  0  0  0  0  0  0  0  0  0  0  0
    4.9572    0.7967    0.0000 H   0  0  0  0  0  0  0  0  0  0  0  0
    5.2374   -0.2359    0.0000 H   0  0  0  0  0  0  0  0  0  0  0  0
   -2.3009   -3.9217    0.0000 H   0  0  0  0  0  0  0  0  0  0  0  0
   -1.8625   -5.7262    0.0000 H   0  0  0  0  0  0  0  0  0  0  0  0
    0.2247    1.7666    0.0000 H   0  0  0  0  0  0  0  0  0  0  0  0
    0.2030    0.6844    0.0000 H   0  0  0  0  0  0  0  0  0  0  0  0
    2.4661   -1.3555    0.0000 H   0  0  0  0  0  0  0  0  0  0  0  0
    3.2215   -0.4510    0.0000 H   0  0  0  0  0  0  0  0  0  0  0  0
    1.8722   -0.9841    0.0000 H   0  0  0  0  0  0  0  0  0  0  0  0
    2.7842   -0.4737    0.0000 H   0  0  0  0  0  0  0  0  0  0  0  0
   -0.0432   -3.8951    0.0000 H   0  0  0  0  0  0  0  0  0  0  0  0
    1.2977   -2.6157    0.0000 H   0  0  0  0  0  0  0  0  0  0  0  0
    0.9965   -3.6425    0.0000 H   0  0  0  0  0  0  0  0  0  0  0  0
   -0.5802   -0.6477    0.0000 H   0  0  0  0  0  0  0  0  0  0  0  0
   -1.9209   -1.9272    0.0000 H   0  0  0  0  0  0  0  0  0  0  0  0
   -1.6199   -0.9004    0.0000 H   0  0  0  0  0  0  0  0  0  0  0  0
   -0.8542   -0.6231    0.0000 H   0  0  0  0  0  0  0  0  0  0  0  0
    0.3883    1.0640    0.0000 H   0  0  0  0  0  0  0  0  0  0  0  0
    0.5749    0.1377    0.0000 H   0  0  0  0  0  0  0  0  0  0  0  0
    3.5198    1.7666    0.0000 H   0  0  0  0  0  0  0  0  0  0  0  0
    3.5415    0.6845    0.0000 H   0  0  0  0  0  0  0  0  0  0  0  0
    1.2630   -4.9668    0.0000 H   0  0  0  0  0  0  0  0  0  0  0  0
  1 16  1  0  0  0  0
  1  3  2  0  0  0  0
  1  4  1  0  0  0  0
  2 24  1  0  0  0  0
  2 34  1  0  0  0  0
  2 35  1  0  0  0  0
  2 36  1  0  0  0  0
  3 28  1  0  0  0  0
  3 27  1  0  0  0  0
  4  5  2  0  0  0  0
  4 37  1  0  0  0  0
  5  6  1  0  0  0  0
  5 38  1  0  0  0  0
  6 27  2  0  0  0  0
  6 29  1  0  0  0  0
  7  9  1  0  0  0  0
  7 19  1  0  0  0  0
  7 20  1  0  0  0  0
  7 30  1  6  0  0  0
  8 21  1  0  0  0  0
  8 20  1  0  0  0  0
  8 39  1  0  0  0  0
  8 40  1  0  0  0  0
  9 10  1  0  0  0  0
  9 31  1  1  0  0  0
  9 22  1  0  0  0  0
 10 11  1  0  0  0  0
 10 41  1  0  0  0  0
 10 42  1  0  0  0  0
 11 24  1  6  0  0  0
 11 12  1  0  0  0  0
 11 23  1  0  0  0  0
 12 20  1  0  0  0  0
 12 43  1  0  0  0  0
 12 44  1  0  0  0  0
 13 14  1  0  0  0  0
 13 45  1  0  0  0  0
 13 46  1  0  0  0  0
 13 47  1  0  0  0  0
 14 16  1  0  0  0  0
 14 17  1  0  0  0  0
 14 15  1  0  0  0  0
 15 48  1  0  0  0  0
 15 49  1  0  0  0  0
 15 50  1  0  0  0  0
 17 19  1  0  0  0  0
 17 18  2  0  0  0  0
 19 51  1  0  0  0  0
 20 32  1  6  0  0  0
 21 23  1  0  0  0  0
 21 22  1  0  0  0  0
 21 33  1  1  0  0  0
 22 52  1  0  0  0  0
 22 53  1  0  0  0  0
 23 54  1  0  0  0  0
 23 55  1  0  0  0  0
 24 26  2  0  0  0  0
 24 25  2  0  0  0  0
 27 56  1  0  0  0  0
M  END
>  <DRUGBANK_ID>
DB08277

>  <COMMON_NAME>
2-(2-CHLORO-4-FLUOROPHENOXY)-2-METHYL-N-[(1R,2S,3S,5S,7S)-5-(METHYLSULFONYL)-2-ADAMANTYL]PROPANAMIDE

$$$$
