
 OpenBabel10282417072D

 36 37  0  0  0  0  0  0  0  0999 V2000
    3.3306   -0.7917    0.0000 S   0  0  0  0  0  0  0  0  0  0  0  0
    1.8354    1.5222    0.0000 O   0  0  0  0  0  0  0  0  0  0  0  0
    0.4064   -0.9529    0.0000 O   0  0  0  0  0  0  0  0  0  0  0  0
    1.8354   -1.7780    0.0000 O   0  0  0  0  0  0  0  0  0  0  0  0
    3.3306    0.5360    0.0000 N   0  0  0  0  0  0  0  0  0  0  0  0
   -1.0227    0.6971    0.0000 C   0  0  0  0  0  0  0  0  0  0  0  0
   -0.3081    0.2846    0.0000 C   0  0  0  0  0  0  0  0  0  0  0  0
   -1.7372    0.2846    0.0000 C   0  0  0  0  0  0  0  0  0  0  0  0
    0.4064    0.6971    0.0000 C   0  0  0  0  0  0  0  0  0  0  0  0
   -2.4517    0.6971    0.0000 C   0  0  0  0  0  0  0  0  0  0  0  0
    1.1209    0.2846    0.0000 C   0  0  0  0  0  0  0  0  0  0  0  0
   -3.1662    0.2846    0.0000 C   0  0  0  0  0  0  0  0  0  0  0  0
    1.8354    0.6971    0.0000 C   0  0  0  0  0  0  0  0  0  0  0  0
    1.1209   -0.5404    0.0000 C   0  0  0  0  0  0  0  0  0  0  0  0
    2.5500    0.2846    0.0000 C   0  0  0  0  0  0  0  0  0  0  0  0
   -3.8807    0.6971    0.0000 C   0  0  0  0  0  0  0  0  0  0  0  0
    2.5500   -0.5404    0.0000 C   0  0  0  0  0  0  0  0  0  0  0  0
    1.8354   -0.9529    0.0000 C   0  0  0  0  0  0  0  0  0  0  0  0
    3.8122   -0.1278    0.0000 C   0  0  0  0  0  0  0  0  0  0  0  0
    2.6469    1.9907    0.0000 H   0  0  0  0  0  0  0  0  0  0  0  0
   -1.0227    1.7671    0.0000 H   0  0  0  0  0  0  0  0  0  0  0  0
   -1.9494    1.2321    0.0000 H   0  0  0  0  0  0  0  0  0  0  0  0
   -0.3081   -0.7854    0.0000 H   0  0  0  0  0  0  0  0  0  0  0  0
    0.6186   -0.2504    0.0000 H   0  0  0  0  0  0  0  0  0  0  0  0
   -1.7372   -0.7854    0.0000 H   0  0  0  0  0  0  0  0  0  0  0  0
   -2.6638   -0.2504    0.0000 H   0  0  0  0  0  0  0  0  0  0  0  0
    0.4064    1.7671    0.0000 H   0  0  0  0  0  0  0  0  0  0  0  0
    1.3330    1.2321    0.0000 H   0  0  0  0  0  0  0  0  0  0  0  0
   -2.4517    1.7671    0.0000 H   0  0  0  0  0  0  0  0  0  0  0  0
   -3.3783    1.2321    0.0000 H   0  0  0  0  0  0  0  0  0  0  0  0
   -3.1662   -0.7854    0.0000 H   0  0  0  0  0  0  0  0  0  0  0  0
   -4.0928   -0.2504    0.0000 H   0  0  0  0  0  0  0  0  0  0  0  0
   -3.8807    1.7671    0.0000 H   0  0  0  0  0  0  0  0  0  0  0  0
   -4.8073    0.1621    0.0000 H   0  0  0  0  0  0  0  0  0  0  0  0
   -4.8074    1.2321    0.0000 H   0  0  0  0  0  0  0  0  0  0  0  0
    4.8442   -0.1278    0.0000 H   0  0  0  0  0  0  0  0  0  0  0  0
  1 17  1  0  0  0  0
  1 19  1  0  0  0  0
  2 13  1  0  0  0  0
  2 20  1  0  0  0  0
  3 14  2  0  0  0  0
  4 18  2  0  0  0  0
  5 15  1  0  0  0  0
  5 19  2  0  0  0  0
  6  7  1  0  0  0  0
  6  8  1  0  0  0  0
  6 21  1  0  0  0  0
  6 22  1  0  0  0  0
  7  9  1  0  0  0  0
  7 23  1  0  0  0  0
  7 24  1  0  0  0  0
  8 10  1  0  0  0  0
  8 25  1  0  0  0  0
  8 26  1  0  0  0  0
  9 11  1  0  0  0  0
  9 27  1  0  0  0  0
  9 28  1  0  0  0  0
 10 12  1  0  0  0  0
 10 29  1  0  0  0  0
 10 30  1  0  0  0  0
 11 13  2  0  0  0  0
 11 14  1  0  0  0  0
 12 16  1  0  0  0  0
 12 31  1  0  0  0  0
 12 32  1  0  0  0  0
 13 15  1  0  0  0  0
 14 18  1  0  0  0  0
 15 17  2  0  0  0  0
 16 33  1  0  0  0  0
 16 34  1  0  0  0  0
 16 35  1  0  0  0  0
 17 18  1  0  0  0  0
 19 36  1  0  0  0  0
M  END
>  <DRUGBANK_ID>
DB07636

>  <COMMON_NAME>
5-Heptyl-6-hydroxy-1,3-benzothiazole-4,7-dione

>  <CAS_NUMBER>
611207-02-4

$$$$
