
 OpenBabel10282417072D

 58 61  0  0  0  0  0  0  0  0999 V2000
   -0.3652    1.9360    0.0000 N   0  0  0  0  0  0  0  0  0  0  0  0
    0.3496    1.5241    0.0000 C   0  0  0  0  0  0  0  0  0  0  0  0
    0.3496    0.7003    0.0000 C   0  0  0  0  0  0  0  0  0  0  0  0
   -0.3652    0.2838    0.0000 C   0  0  0  0  0  0  0  0  0  0  0  0
   -1.0802    0.7003    0.0000 C   0  0  0  0  0  0  0  0  0  0  0  0
   -1.7950    0.2838    0.0000 C   0  0  0  0  0  0  0  0  0  0  0  0
   -2.5052    0.7003    0.0000 C   0  0  0  0  0  0  0  0  0  0  0  0
   -2.5052    1.5241    0.0000 C   0  0  0  0  0  0  0  0  0  0  0  0
   -1.7950    1.9360    0.0000 C   0  0  0  0  0  0  0  0  0  0  0  0
   -1.0802    1.5241    0.0000 C   0  0  0  0  0  0  0  0  0  0  0  0
   -0.3652   -0.5399    0.0000 C   0  0  0  0  0  0  0  0  0  0  0  0
   -1.0802   -0.9518    0.0000 O   0  0  0  0  0  0  0  0  0  0  0  0
    0.3496   -0.9518    0.0000 N   0  0  0  0  0  0  0  0  0  0  0  0
    0.3496   -1.7757    0.0000 C   0  0  1  0  0  0  0  0  0  0  0  0
    1.0645   -2.1875    0.0000 C   0  0  0  0  0  0  0  0  0  0  0  0
    1.0645   -3.0113    0.0000 C   0  0  0  0  0  0  0  0  0  0  0  0
   -0.3652   -2.1875    0.0000 C   0  0  0  0  0  0  0  0  0  0  0  0
   -0.3652   -3.0113    0.0000 C   0  0  0  0  0  0  0  0  0  0  0  0
   -1.0802   -3.4232    0.0000 C   0  0  0  0  0  0  0  0  0  0  0  0
   -1.7950   -3.0113    0.0000 C   0  0  0  0  0  0  0  0  0  0  0  0
   -1.7950   -2.1875    0.0000 C   0  0  0  0  0  0  0  0  0  0  0  0
   -1.0802   -1.7757    0.0000 C   0  0  0  0  0  0  0  0  0  0  0  0
    1.0645    0.2838    0.0000 N   0  0  0  0  0  0  0  0  0  0  0  0
    1.7863    0.6968    0.0000 S   0  0  0  0  0  0  0  0  0  0  0  0
    2.5052    0.2781    0.0000 C   0  0  0  0  0  0  0  0  0  0  0  0
    2.2023    1.4172    0.0000 O   0  0  0  0  0  0  0  0  0  0  0  0
    1.3705    1.4172    0.0000 O   0  0  0  0  0  0  0  0  0  0  0  0
    1.0639    2.1854    0.0000 C   0  0  0  0  0  0  0  0  0  0  0  0
    1.0636    3.0104    0.0000 C   0  0  0  0  0  0  0  0  0  0  0  0
    1.7786    1.7732    0.0000 C   0  0  0  0  0  0  0  0  0  0  0  0
    1.7779    3.4232    0.0000 C   0  0  0  0  0  0  0  0  0  0  0  0
    2.4929    2.1860    0.0000 C   0  0  0  0  0  0  0  0  0  0  0  0
    2.4926    3.0111    0.0000 C   0  0  0  0  0  0  0  0  0  0  0  0
   -1.7965   -0.7482    0.0000 H   0  0  0  0  0  0  0  0  0  0  0  0
   -3.4007    0.1873    0.0000 H   0  0  0  0  0  0  0  0  0  0  0  0
   -3.3994    2.0392    0.0000 H   0  0  0  0  0  0  0  0  0  0  0  0
   -1.7964    2.9680    0.0000 H   0  0  0  0  0  0  0  0  0  0  0  0
    1.2020   -0.4592    0.0000 H   0  0  0  0  0  0  0  0  0  0  0  0
    1.2760   -1.2402    0.0000 H   0  0  0  0  0  0  0  0  0  0  0  0
    1.9909   -1.6520    0.0000 H   0  0  0  0  0  0  0  0  0  0  0  0
    1.9913   -2.7223    0.0000 H   0  0  0  0  0  0  0  0  0  0  0  0
    0.1379   -3.5463    0.0000 H   0  0  0  0  0  0  0  0  0  0  0  0
    1.9911   -3.5463    0.0000 H   0  0  0  0  0  0  0  0  0  0  0  0
    1.0645   -4.0813    0.0000 H   0  0  0  0  0  0  0  0  0  0  0  0
    0.5283   -3.5277    0.0000 H   0  0  0  0  0  0  0  0  0  0  0  0
   -1.0803   -4.4552    0.0000 H   0  0  0  0  0  0  0  0  0  0  0  0
   -2.6885   -3.5277    0.0000 H   0  0  0  0  0  0  0  0  0  0  0  0
   -2.6885   -1.6711    0.0000 H   0  0  0  0  0  0  0  0  0  0  0  0
   -1.0803   -0.7437    0.0000 H   0  0  0  0  0  0  0  0  0  0  0  0
    1.0607   -0.7007    0.0000 H   0  0  0  0  0  0  0  0  0  0  0  0
    2.5011   -0.7919    0.0000 H   0  0  0  0  0  0  0  0  0  0  0  0
    3.4339    0.8096    0.0000 H   0  0  0  0  0  0  0  0  0  0  0  0
    3.4298   -0.2604    0.0000 H   0  0  0  0  0  0  0  0  0  0  0  0
    0.1697    3.5261    0.0000 H   0  0  0  0  0  0  0  0  0  0  0  0
    1.7791    0.7412    0.0000 H   0  0  0  0  0  0  0  0  0  0  0  0
    1.7774    4.4552    0.0000 H   0  0  0  0  0  0  0  0  0  0  0  0
    3.3868    1.6703    0.0000 H   0  0  0  0  0  0  0  0  0  0  0  0
    3.3861    3.5275    0.0000 H   0  0  0  0  0  0  0  0  0  0  0  0
  1  2  2  0  0  0  0
  1 10  1  0  0  0  0
  2  3  1  0  0  0  0
  2 28  1  0  0  0  0
  3  4  2  0  0  0  0
  3 23  1  0  0  0  0
  4  5  1  0  0  0  0
  4 11  1  0  0  0  0
  5  6  2  0  0  0  0
  5 10  1  0  0  0  0
  6  7  1  0  0  0  0
  6 34  1  0  0  0  0
  7  8  2  0  0  0  0
  7 35  1  0  0  0  0
  8  9  1  0  0  0  0
  8 36  1  0  0  0  0
  9 10  2  0  0  0  0
  9 37  1  0  0  0  0
 11 12  2  0  0  0  0
 11 13  1  0  0  0  0
 13 38  1  0  0  0  0
 14 13  1  0  0  0  0
 14 15  1  0  0  0  0
 14 17  1  0  0  0  0
 14 39  1  6  0  0  0
 15 16  1  0  0  0  0
 15 40  1  0  0  0  0
 15 41  1  0  0  0  0
 16 42  1  0  0  0  0
 16 43  1  0  0  0  0
 16 44  1  0  0  0  0
 17 18  1  0  0  0  0
 17 22  2  0  0  0  0
 18 19  2  0  0  0  0
 18 45  1  0  0  0  0
 19 20  1  0  0  0  0
 19 46  1  0  0  0  0
 20 21  2  0  0  0  0
 20 47  1  0  0  0  0
 21 22  1  0  0  0  0
 21 48  1  0  0  0  0
 22 49  1  0  0  0  0
 23 24  1  0  0  0  0
 23 50  1  0  0  0  0
 24 25  1  0  0  0  0
 24 26  2  0  0  0  0
 24 27  2  0  0  0  0
 25 51  1  0  0  0  0
 25 52  1  0  0  0  0
 25 53  1  0  0  0  0
 29 28  1  0  0  0  0
 29 54  1  0  0  0  0
 30 28  2  0  0  0  0
 30 55  1  0  0  0  0
 31 29  2  0  0  0  0
 31 56  1  0  0  0  0
 32 30  1  0  0  0  0
 32 57  1  0  0  0  0
 33 31  1  0  0  0  0
 33 32  2  0  0  0  0
 33 58  1  0  0  0  0
M  END
>  <DRUGBANK_ID>
DB11692

>  <COMMON_NAME>
Pavinetant

>  <CAS_NUMBER>
941690-55-7

>  <UNII>
3U471ZVC5K

>  <SYNONYMS>
Pavinetant

$$$$
