L09
 OpenBabel10282417072D

 50 52  0  0  0  0  0  0  0  0999 V2000
   -2.8092    3.5522    0.0000 C   0  0  0  0  0  0  0  0  0  0  0  0
   -2.8092    2.7272    0.0000 C   0  0  0  0  0  0  0  0  0  0  0  0
   -3.6342    2.7272    0.0000 C   0  0  0  0  0  0  0  0  0  0  0  0
   -1.9842    2.7272    0.0000 C   0  0  0  0  0  0  0  0  0  0  0  0
   -2.8092    1.9022    0.0000 C   0  0  0  0  0  0  0  0  0  0  0  0
   -2.1418    1.4173    0.0000 C   0  0  0  0  0  0  0  0  0  0  0  0
   -2.3967    0.6326    0.0000 C   0  0  0  0  0  0  0  0  0  0  0  0
   -1.9118   -0.0348    0.0000 N   0  0  0  0  0  0  0  0  0  0  0  0
   -1.0913    0.0514    0.0000 C   0  0  0  0  0  0  0  0  0  0  0  0
   -0.7558    0.8051    0.0000 O   0  0  0  0  0  0  0  0  0  0  0  0
   -0.6064   -0.6160    0.0000 N   0  0  0  0  0  0  0  0  0  0  0  0
    0.2141   -0.5298    0.0000 C   0  0  0  0  0  0  0  0  0  0  0  0
    0.5496    0.2239    0.0000 C   0  0  0  0  0  0  0  0  0  0  0  0
    1.3701    0.3101    0.0000 C   0  0  0  0  0  0  0  0  0  0  0  0
    1.8550   -0.3573    0.0000 C   0  0  0  0  0  0  0  0  0  0  0  0
    2.6755   -0.2711    0.0000 Cl  0  0  0  0  0  0  0  0  0  0  0  0
    1.5195   -1.1110    0.0000 C   0  0  0  0  0  0  0  0  0  0  0  0
    2.0044   -1.7784    0.0000 C   0  0  0  0  0  0  0  0  0  0  0  0
    2.8249   -1.6922    0.0000 O   0  0  0  0  0  0  0  0  0  0  0  0
    3.3098   -2.3596    0.0000 C   0  0  0  0  0  0  0  0  0  0  0  0
    4.1303   -2.2734    0.0000 C   0  0  0  0  0  0  0  0  0  0  0  0
    4.6152   -2.9408    0.0000 C   0  0  0  0  0  0  0  0  0  0  0  0
    4.2796   -3.6945    0.0000 C   0  0  0  0  0  0  0  0  0  0  0  0
    3.4592   -3.7807    0.0000 N   0  0  0  0  0  0  0  0  0  0  0  0
    2.9742   -3.1133    0.0000 C   0  0  0  0  0  0  0  0  0  0  0  0
    0.6990   -1.1972    0.0000 C   0  0  0  0  0  0  0  0  0  0  0  0
   -3.2217    0.6326    0.0000 N   0  0  0  0  0  0  0  0  0  0  0  0
   -3.4767    1.4173    0.0000 N   0  0  0  0  0  0  0  0  0  0  0  0
   -1.8826    4.0872    0.0000 H   0  0  0  0  0  0  0  0  0  0  0  0
   -3.7358    4.0872    0.0000 H   0  0  0  0  0  0  0  0  0  0  0  0
   -2.8092    4.6222    0.0000 H   0  0  0  0  0  0  0  0  0  0  0  0
   -4.1692    3.6538    0.0000 H   0  0  0  0  0  0  0  0  0  0  0  0
   -4.1692    1.8006    0.0000 H   0  0  0  0  0  0  0  0  0  0  0  0
   -4.7042    2.7272    0.0000 H   0  0  0  0  0  0  0  0  0  0  0  0
   -1.4492    1.8006    0.0000 H   0  0  0  0  0  0  0  0  0  0  0  0
   -1.4492    3.6538    0.0000 H   0  0  0  0  0  0  0  0  0  0  0  0
   -0.9142    2.7272    0.0000 H   0  0  0  0  0  0  0  0  0  0  0  0
   -1.1603    1.7362    0.0000 H   0  0  0  0  0  0  0  0  0  0  0  0
   -2.3123   -0.9342    0.0000 H   0  0  0  0  0  0  0  0  0  0  0  0
   -1.0069   -1.5154    0.0000 H   0  0  0  0  0  0  0  0  0  0  0  0
   -0.0570    1.0588    0.0000 H   0  0  0  0  0  0  0  0  0  0  0  0
    1.7899    1.2529    0.0000 H   0  0  0  0  0  0  0  0  0  0  0  0
    1.5692   -2.7559    0.0000 H   0  0  0  0  0  0  0  0  0  0  0  0
    2.6333   -2.6441    0.0000 H   0  0  0  0  0  0  0  0  0  0  0  0
    4.5501   -1.3306    0.0000 H   0  0  0  0  0  0  0  0  0  0  0  0
    5.6415   -2.8329    0.0000 H   0  0  0  0  0  0  0  0  0  0  0  0
    4.8862   -4.5294    0.0000 H   0  0  0  0  0  0  0  0  0  0  0  0
    1.9479   -3.2212    0.0000 H   0  0  0  0  0  0  0  0  0  0  0  0
    0.2792   -2.1400    0.0000 H   0  0  0  0  0  0  0  0  0  0  0  0
   -3.8004   -0.1639    0.0000 H   0  0  0  0  0  0  0  0  0  0  0  0
  1  2  1  0  0  0  0
  1 29  1  0  0  0  0
  1 30  1  0  0  0  0
  1 31  1  0  0  0  0
  2  3  1  0  0  0  0
  2  4  1  0  0  0  0
  2  5  1  0  0  0  0
  3 32  1  0  0  0  0
  3 33  1  0  0  0  0
  3 34  1  0  0  0  0
  4 35  1  0  0  0  0
  4 36  1  0  0  0  0
  4 37  1  0  0  0  0
  5  6  1  0  0  0  0
  5 28  2  0  0  0  0
  6  7  2  0  0  0  0
  6 38  1  0  0  0  0
  7  8  1  0  0  0  0
  7 27  1  0  0  0  0
  8  9  1  0  0  0  0
  8 39  1  0  0  0  0
  9 10  2  0  0  0  0
  9 11  1  0  0  0  0
 11 12  1  0  0  0  0
 11 40  1  0  0  0  0
 12 13  2  0  0  0  0
 12 26  1  0  0  0  0
 13 14  1  0  0  0  0
 13 41  1  0  0  0  0
 14 15  2  0  0  0  0
 14 42  1  0  0  0  0
 15 16  1  0  0  0  0
 15 17  1  0  0  0  0
 17 18  1  0  0  0  0
 17 26  2  0  0  0  0
 18 19  1  0  0  0  0
 18 43  1  0  0  0  0
 18 44  1  0  0  0  0
 19 20  1  0  0  0  0
 20 21  2  0  0  0  0
 20 25  1  0  0  0  0
 21 22  1  0  0  0  0
 21 45  1  0  0  0  0
 22 23  2  0  0  0  0
 22 46  1  0  0  0  0
 23 24  1  0  0  0  0
 23 47  1  0  0  0  0
 24 25  2  0  0  0  0
 25 48  1  0  0  0  0
 26 49  1  0  0  0  0
 27 28  1  0  0  0  0
 27 50  1  0  0  0  0
M  END
>  <DRUGBANK_ID>
DB08064

>  <COMMON_NAME>
N-(3-TERT-BUTYL-1H-PYRAZOL-5-YL)-N'-{4-CHLORO-3-[(PYRIDIN-3-YLOXY)METHYL]PHENYL}UREA

$$$$
