
 OpenBabel10282417072D

 38 40  0  0  0  0  0  0  0  0999 V2000
    4.6438   -0.1362    0.0000 C   0  0  0  0  0  0  0  0  0  0  0  0
    2.5559    4.9044    0.0000 C   0  0  0  0  0  0  0  0  0  0  0  0
    2.0537    4.2498    0.0000 C   0  0  0  0  0  0  0  0  0  0  0  0
    3.3739    4.7967    0.0000 C   0  0  0  0  0  0  0  0  0  0  0  0
    1.4908    1.2094    0.0000 C   0  0  0  0  0  0  0  0  0  0  0  0
    1.4908    2.0344    0.0000 C   0  0  0  0  0  0  0  0  0  0  0  0
    2.3694    3.4876    0.0000 C   0  0  0  0  0  0  0  0  0  0  0  0
    3.6896    4.0345    0.0000 C   0  0  0  0  0  0  0  0  0  0  0  0
    2.2053    0.7969    0.0000 C   0  0  0  0  0  0  0  0  0  0  0  0
    2.2053    2.4469    0.0000 C   0  0  0  0  0  0  0  0  0  0  0  0
    4.9114    1.2094    0.0000 C   0  0  0  0  0  0  0  0  0  0  0  0
    4.9114    2.0344    0.0000 C   0  0  0  0  0  0  0  0  0  0  0  0
    3.5031    0.6260    0.0000 C   0  0  0  0  0  0  0  0  0  0  0  0
    3.1874    3.3800    0.0000 C   0  0  0  0  0  0  0  0  0  0  0  0
    2.9197    1.2094    0.0000 C   0  0  0  0  0  0  0  0  0  0  0  0
    2.9197    2.0344    0.0000 C   0  0  0  0  0  0  0  0  0  0  0  0
    3.5031    2.6178    0.0000 C   0  0  3  0  0  0  0  0  0  0  0  0
    4.3281    0.6260    0.0000 N   0  0  0  0  0  0  0  0  0  0  0  0
    4.3281    2.6178    0.0000 O   0  0  0  0  0  0  0  0  0  0  0  0
    3.9924   -0.9851    0.0000 H   0  0  0  0  0  0  0  0  0  0  0  0
    5.7046   -0.2759    0.0000 H   0  0  0  0  0  0  0  0  0  0  0  0
    5.0533   -1.1248    0.0000 H   0  0  0  0  0  0  0  0  0  0  0  0
    2.1609    5.8578    0.0000 H   0  0  0  0  0  0  0  0  0  0  0  0
    1.0305    4.3845    0.0000 H   0  0  0  0  0  0  0  0  0  0  0  0
    4.0022    5.6154    0.0000 H   0  0  0  0  0  0  0  0  0  0  0  0
    0.5971    0.6934    0.0000 H   0  0  0  0  0  0  0  0  0  0  0  0
    0.5971    2.5504    0.0000 H   0  0  0  0  0  0  0  0  0  0  0  0
    1.7412    2.6688    0.0000 H   0  0  0  0  0  0  0  0  0  0  0  0
    4.7128    3.8998    0.0000 H   0  0  0  0  0  0  0  0  0  0  0  0
    2.2053   -0.2351    0.0000 H   0  0  0  0  0  0  0  0  0  0  0  0
    2.2053    3.4789    0.0000 H   0  0  0  0  0  0  0  0  0  0  0  0
    5.9000    0.8000    0.0000 H   0  0  0  0  0  0  0  0  0  0  0  0
    5.1202    0.1600    0.0000 H   0  0  0  0  0  0  0  0  0  0  0  0
    5.9000    2.4438    0.0000 H   0  0  0  0  0  0  0  0  0  0  0  0
    5.1202    3.0838    0.0000 H   0  0  0  0  0  0  0  0  0  0  0  0
    3.0936   -0.3626    0.0000 H   0  0  0  0  0  0  0  0  0  0  0  0
    4.0976   -0.2637    0.0000 H   0  0  0  0  0  0  0  0  0  0  0  0
    2.4537    2.8266    0.0000 H   0  0  0  0  0  0  0  0  0  0  0  0
  1 20  1  0  0  0  0
  1 21  1  0  0  0  0
  1 22  1  0  0  0  0
  2 23  1  0  0  0  0
  3  2  2  0  0  0  0
  3 24  1  0  0  0  0
  4  2  1  0  0  0  0
  4 25  1  0  0  0  0
  5 26  1  0  0  0  0
  6  5  2  0  0  0  0
  6 27  1  0  0  0  0
  7  3  1  0  0  0  0
  7 28  1  0  0  0  0
  8  4  2  0  0  0  0
  8 29  1  0  0  0  0
  9  5  1  0  0  0  0
  9 30  1  0  0  0  0
 10  6  1  0  0  0  0
 10 31  1  0  0  0  0
 11 32  1  0  0  0  0
 11 33  1  0  0  0  0
 12 11  1  0  0  0  0
 12 34  1  0  0  0  0
 12 35  1  0  0  0  0
 13 36  1  0  0  0  0
 13 37  1  0  0  0  0
 14  7  2  0  0  0  0
 14  8  1  0  0  0  0
 15  9  2  0  0  0  0
 15 13  1  0  0  0  0
 16 10  2  0  0  0  0
 16 15  1  0  0  0  0
 17 14  1  0  0  0  0
 17 16  1  0  0  0  0
 17 38  1  0  0  0  0
 18  1  1  0  0  0  0
 18 11  1  0  0  0  0
 18 13  1  0  0  0  0
 19 12  1  0  0  0  0
 19 17  1  0  0  0  0
M  END
>  <DRUGBANK_ID>
DB12293

>  <COMMON_NAME>
Nefopam

>  <CAS_NUMBER>
13669-70-0

>  <UNII>
4UP8060B7J

>  <SYNONYMS>
Nefopam

$$$$
