
 OpenBabel10282417072D

 62 65  0  0  0  0  0  0  0  0999 V2000
   -1.8264   -0.7480    0.0000 C   0  0  1  0  0  0  0  0  0  0  0  0
    0.3303    0.4760    0.0000 C   0  0  1  0  0  0  0  0  0  0  0  0
   -1.8264   -1.5690    0.0000 C   0  0  0  0  0  0  0  0  0  0  0  0
    0.3157   -0.3449    0.0000 C   0  0  2  0  0  0  0  0  0  0  0  0
    1.1172    0.7238    0.0000 C   0  0  2  0  0  0  0  0  0  0  0  0
   -0.3983   -0.7529    0.0000 C   0  0  1  0  0  0  0  0  0  0  0  0
   -1.1123   -0.3303    0.0000 C   0  0  2  0  0  0  0  0  0  0  0  0
   -2.5405   -0.3303    0.0000 C   0  0  0  0  0  0  0  0  0  0  0  0
   -0.3837    0.8987    0.0000 C   0  0  0  0  0  0  0  0  0  0  0  0
   -1.1026    0.4906    0.0000 C   0  0  2  0  0  0  0  0  0  0  0  0
    1.5933    0.0534    0.0000 C   0  0  1  0  0  0  0  0  0  0  0  0
    1.1026   -0.6072    0.0000 C   0  0  0  0  0  0  0  0  0  0  0  0
   -0.3983   -1.5787    0.0000 C   0  0  0  0  0  0  0  0  0  0  0  0
   -1.1123   -1.9867    0.0000 C   0  0  2  0  0  0  0  0  0  0  0  0
   -2.5405   -1.9867    0.0000 C   0  0  0  0  0  0  0  0  0  0  0  0
    1.1123    1.5495    0.0000 C   0  0  0  0  0  0  0  0  0  0  0  0
   -3.2450   -0.7480    0.0000 C   0  0  0  0  0  0  0  0  0  0  0  0
   -3.2450   -1.5690    0.0000 C   0  0  0  0  0  0  0  0  0  0  0  0
    3.2546    1.9867    0.0000 C   0  0  0  0  0  0  0  0  0  0  0  0
    1.8168    1.9721    0.0000 C   0  0  0  0  0  0  0  0  0  0  0  0
    0.3886    1.9576    0.0000 O   0  0  0  0  0  0  0  0  0  0  0  0
    2.5405    1.5641    0.0000 O   0  0  0  0  0  0  0  0  0  0  0  0
    3.2450    2.8078    0.0000 O   0  0  0  0  0  0  0  0  0  0  0  0
   -3.9687   -1.9771    0.0000 O   0  0  0  0  0  0  0  0  0  0  0  0
    1.8313    1.1415    0.0000 O   0  0  0  0  0  0  0  0  0  0  0  0
   -1.8264    0.0776    0.0000 C   0  0  0  0  0  0  0  0  0  0  0  0
    0.3254    1.3018    0.0000 C   0  0  0  0  0  0  0  0  0  0  0  0
   -1.1172   -2.8078    0.0000 F   0  0  0  0  0  0  0  0  0  0  0  0
   -1.8168    0.9083    0.0000 O   0  0  0  0  0  0  0  0  0  0  0  0
    2.4143    0.0485    0.0000 C   0  0  0  0  0  0  0  0  0  0  0  0
    3.9687    1.5787    0.0000 C   0  0  0  0  0  0  0  0  0  0  0  0
   -0.3983    0.0776    0.0000 H   0  0  0  0  0  0  0  0  0  0  0  0
    0.3157   -1.1706    0.0000 H   0  0  0  0  0  0  0  0  0  0  0  0
   -1.1123   -1.1610    0.0000 H   0  0  0  0  0  0  0  0  0  0  0  0
   -2.5436    0.7017    0.0000 H   0  0  0  0  0  0  0  0  0  0  0  0
   -0.3740    1.9687    0.0000 H   0  0  0  0  0  0  0  0  0  0  0  0
   -1.3059    1.4413    0.0000 H   0  0  0  0  0  0  0  0  0  0  0  0
   -1.0957    1.5606    0.0000 H   0  0  0  0  0  0  0  0  0  0  0  0
    2.0712   -0.9040    0.0000 H   0  0  0  0  0  0  0  0  0  0  0  0
    1.4240   -1.6278    0.0000 H   0  0  0  0  0  0  0  0  0  0  0  0
    0.3397   -1.3575    0.0000 H   0  0  0  0  0  0  0  0  0  0  0  0
    0.5272   -2.1158    0.0000 H   0  0  0  0  0  0  0  0  0  0  0  0
   -0.4019   -2.6487    0.0000 H   0  0  0  0  0  0  0  0  0  0  0  0
   -2.0420   -2.5163    0.0000 H   0  0  0  0  0  0  0  0  0  0  0  0
   -2.5436   -3.0187    0.0000 H   0  0  0  0  0  0  0  0  0  0  0  0
   -4.1417   -0.2372    0.0000 H   0  0  0  0  0  0  0  0  0  0  0  0
    1.8024    3.0420    0.0000 H   0  0  0  0  0  0  0  0  0  0  0  0
    2.7370    2.5181    0.0000 H   0  0  0  0  0  0  0  0  0  0  0  0
    2.6741    0.6613    0.0000 H   0  0  0  0  0  0  0  0  0  0  0  0
   -0.8998    0.6126    0.0000 H   0  0  0  0  0  0  0  0  0  0  0  0
   -2.7530    0.6126    0.0000 H   0  0  0  0  0  0  0  0  0  0  0  0
   -1.8264    1.1476    0.0000 H   0  0  0  0  0  0  0  0  0  0  0  0
    1.2489    1.8423    0.0000 H   0  0  0  0  0  0  0  0  0  0  0  0
   -0.6044    1.8313    0.0000 H   0  0  0  0  0  0  0  0  0  0  0  0
    0.3191    2.3718    0.0000 H   0  0  0  0  0  0  0  0  0  0  0  0
   -1.8114    1.8783    0.0000 H   0  0  0  0  0  0  0  0  0  0  0  0
    2.9438   -0.8813    0.0000 H   0  0  0  0  0  0  0  0  0  0  0  0
    2.9548    0.9719    0.0000 H   0  0  0  0  0  0  0  0  0  0  0  0
    3.4843    0.0421    0.0000 H   0  0  0  0  0  0  0  0  0  0  0  0
    3.9735    0.5087    0.0000 H   0  0  0  0  0  0  0  0  0  0  0  0
    4.8929    2.1179    0.0000 H   0  0  0  0  0  0  0  0  0  0  0  0
    4.8978    1.0479    0.0000 H   0  0  0  0  0  0  0  0  0  0  0  0
  1 26  1  1  0  0  0
  2  9  1  0  0  0  0
  2 27  1  1  0  0  0
  3  1  1  0  0  0  0
  4  6  1  0  0  0  0
  4 33  1  6  0  0  0
  4  2  1  0  0  0  0
  5  2  1  0  0  0  0
  5 16  1  1  0  0  0
  5 25  1  0  0  0  0
  5 11  1  0  0  0  0
  6  7  1  0  0  0  0
  6 32  1  1  0  0  0
  7  1  1  0  0  0  0
  7 34  1  6  0  0  0
  8  1  1  0  0  0  0
  8 35  1  0  0  0  0
  9 10  1  0  0  0  0
  9 36  1  0  0  0  0
  9 37  1  0  0  0  0
 10  7  1  0  0  0  0
 10 29  1  0  0  0  0
 10 38  1  6  0  0  0
 11 12  1  0  0  0  0
 11 30  1  0  0  0  0
 11 39  1  1  0  0  0
 12  4  1  0  0  0  0
 12 40  1  0  0  0  0
 12 41  1  0  0  0  0
 13  6  1  0  0  0  0
 13 14  1  0  0  0  0
 13 42  1  0  0  0  0
 13 43  1  0  0  0  0
 14  3  1  0  0  0  0
 14 28  1  0  0  0  0
 14 44  1  1  0  0  0
 15  3  2  0  0  0  0
 15 45  1  0  0  0  0
 17  8  2  0  0  0  0
 17 46  1  0  0  0  0
 18 17  1  0  0  0  0
 18 15  1  0  0  0  0
 19 22  1  0  0  0  0
 20 16  1  0  0  0  0
 20 47  1  0  0  0  0
 20 48  1  0  0  0  0
 21 16  2  0  0  0  0
 22 20  1  0  0  0  0
 23 19  2  0  0  0  0
 24 18  2  0  0  0  0
 25 49  1  0  0  0  0
 26 50  1  0  0  0  0
 26 51  1  0  0  0  0
 26 52  1  0  0  0  0
 27 53  1  0  0  0  0
 27 54  1  0  0  0  0
 27 55  1  0  0  0  0
 29 56  1  0  0  0  0
 30 57  1  0  0  0  0
 30 58  1  0  0  0  0
 30 59  1  0  0  0  0
 31 19  1  0  0  0  0
 31 60  1  0  0  0  0
 31 61  1  0  0  0  0
 31 62  1  0  0  0  0
M  END
>  <DRUGBANK_ID>
DB14657

>  <SECONDARY_ACCESSION_NUMBERS>
DBSALT001420

>  <COMMON_NAME>
Paramethasone acetate

>  <CAS_NUMBER>
1597-82-6

>  <UNII>
8X50N88ZDP

>  <SYNONYMS>
Haldrone; Paramethasone 21-acetate; Paramethasone acetate

$$$$
