1618
 OpenBabel10282417072D

 44 46  0  0  1  0  0  0  0  0999 V2000
    1.6500   -0.6625    0.0000 O   0  0  0  0  0  0  0  0  0  0  0  0
    5.2224    1.4001    0.0000 O   0  0  0  0  0  0  0  0  0  0  0  0
    3.0791    0.1625    0.0000 N   0  0  0  0  0  0  0  0  0  0  0  0
    6.7176   -0.9139    0.0000 N   0  0  0  0  0  0  0  0  0  0  0  0
    4.5080    0.1625    0.0000 C   0  0  3  0  0  0  0  0  0  0  0  0
    4.5080   -0.6625    0.0000 C   0  0  0  0  0  0  0  0  0  0  0  0
    3.7935    0.5750    0.0000 C   0  0  0  0  0  0  0  0  0  0  0  0
    5.2224   -1.0750    0.0000 C   0  0  0  0  0  0  0  0  0  0  0  0
    5.9370    0.1625    0.0000 C   0  0  0  0  0  0  0  0  0  0  0  0
    5.9370   -0.6625    0.0000 C   0  0  0  0  0  0  0  0  0  0  0  0
    5.2224    0.5750    0.0000 C   0  0  0  0  0  0  0  0  0  0  0  0
    6.7176    0.4140    0.0000 C   0  0  0  0  0  0  0  0  0  0  0  0
    2.3645    0.5750    0.0000 C   0  0  0  0  0  0  0  0  0  0  0  0
    3.0791   -0.6625    0.0000 C   0  0  0  0  0  0  0  0  0  0  0  0
    7.1991   -0.2500    0.0000 C   0  0  0  0  0  0  0  0  0  0  0  0
    1.6500    0.1625    0.0000 C   0  0  0  0  0  0  0  0  0  0  0  0
    2.3645   -1.0750    0.0000 C   0  0  0  0  0  0  0  0  0  0  0  0
    6.9739    1.1982    0.0000 C   0  0  0  0  0  0  0  0  0  0  0  0
    8.0241   -0.2500    0.0000 C   0  0  0  0  0  0  0  0  0  0  0  0
    7.7812    1.3683    0.0000 C   0  0  0  0  0  0  0  0  0  0  0  0
    7.0234   -1.8497    0.0000 H   0  0  0  0  0  0  0  0  0  0  0  0
    3.5814   -0.3725    0.0000 H   0  0  0  0  0  0  0  0  0  0  0  0
    3.5813   -1.1975    0.0000 H   0  0  0  0  0  0  0  0  0  0  0  0
    4.5080   -1.7325    0.0000 H   0  0  0  0  0  0  0  0  0  0  0  0
    3.7935    1.6450    0.0000 H   0  0  0  0  0  0  0  0  0  0  0  0
    4.7201    1.1100    0.0000 H   0  0  0  0  0  0  0  0  0  0  0  0
    5.2223   -2.1450    0.0000 H   0  0  0  0  0  0  0  0  0  0  0  0
    6.1490   -1.6101    0.0000 H   0  0  0  0  0  0  0  0  0  0  0  0
    2.3645    1.6450    0.0000 H   0  0  0  0  0  0  0  0  0  0  0  0
    1.4378    1.1100    0.0000 H   0  0  0  0  0  0  0  0  0  0  0  0
    4.0057   -1.1975    0.0000 H   0  0  0  0  0  0  0  0  0  0  0  0
    3.0790   -1.7325    0.0000 H   0  0  0  0  0  0  0  0  0  0  0  0
    0.7234    0.6975    0.0000 H   0  0  0  0  0  0  0  0  0  0  0  0
    1.6500    1.2325    0.0000 H   0  0  0  0  0  0  0  0  0  0  0  0
    2.3645   -2.1450    0.0000 H   0  0  0  0  0  0  0  0  0  0  0  0
    3.2911   -1.6101    0.0000 H   0  0  0  0  0  0  0  0  0  0  0  0
    6.2593    1.9946    0.0000 H   0  0  0  0  0  0  0  0  0  0  0  0
    7.3063    2.2152    0.0000 H   0  0  0  0  0  0  0  0  0  0  0  0
    8.5591   -1.1766    0.0000 H   0  0  0  0  0  0  0  0  0  0  0  0
    8.5591    0.6766    0.0000 H   0  0  0  0  0  0  0  0  0  0  0  0
    9.0941   -0.2500    0.0000 H   0  0  0  0  0  0  0  0  0  0  0  0
    8.4958    0.5719    0.0000 H   0  0  0  0  0  0  0  0  0  0  0  0
    8.1137    2.3853    0.0000 H   0  0  0  0  0  0  0  0  0  0  0  0
    8.8282    1.5889    0.0000 H   0  0  0  0  0  0  0  0  0  0  0  0
  1 16  1  0  0  0  0
  1 17  1  0  0  0  0
  2 11  2  0  0  0  0
  3  7  1  0  0  0  0
  3 13  1  0  0  0  0
  3 14  1  0  0  0  0
  4 10  1  0  0  0  0
  4 15  1  0  0  0  0
  4 21  1  0  0  0  0
  5  6  1  0  0  0  0
  5  7  1  0  0  0  0
  5 11  1  0  0  0  0
  5 22  1  0  0  0  0
  6  8  1  0  0  0  0
  6 23  1  0  0  0  0
  6 24  1  0  0  0  0
  7 25  1  0  0  0  0
  7 26  1  0  0  0  0
  8 10  1  0  0  0  0
  8 27  1  0  0  0  0
  8 28  1  0  0  0  0
  9 10  2  0  0  0  0
  9 11  1  0  0  0  0
  9 12  1  0  0  0  0
 12 15  2  0  0  0  0
 12 18  1  0  0  0  0
 13 16  1  0  0  0  0
 13 29  1  0  0  0  0
 13 30  1  0  0  0  0
 14 17  1  0  0  0  0
 14 31  1  0  0  0  0
 14 32  1  0  0  0  0
 15 19  1  0  0  0  0
 16 33  1  0  0  0  0
 16 34  1  0  0  0  0
 17 35  1  0  0  0  0
 17 36  1  0  0  0  0
 18 20  1  0  0  0  0
 18 37  1  0  0  0  0
 18 38  1  0  0  0  0
 19 39  1  0  0  0  0
 19 40  1  0  0  0  0
 19 41  1  0  0  0  0
 20 42  1  0  0  0  0
 20 43  1  0  0  0  0
 20 44  1  0  0  0  0
M  END
>  <DRUGBANK_ID>
DB01618

>  <COMMON_NAME>
Molindone

>  <CAS_NUMBER>
7416-34-4

>  <UNII>
RT3Y3QMF8N

>  <SYNONYMS>
(+/-)-molindone; Molindona; Molindone; Molindonum

$$$$
