
 OpenBabel10282417072D

 48 49  0  0  0  0  0  0  0  0999 V2000
   -1.7416   -0.4533    0.0000 C   0  0  0  0  0  0  0  0  0  0  0  0
   -2.1024    0.2873    0.0000 C   0  0  0  0  0  0  0  0  0  0  0  0
   -1.0360   -0.0159    0.0000 C   0  0  0  0  0  0  0  0  0  0  0  0
   -1.2435   -1.1174    0.0000 C   0  0  0  0  0  0  0  0  0  0  0  0
   -2.5302   -0.7215    0.0000 C   0  0  0  0  0  0  0  0  0  0  0  0
   -1.6138    0.9706    0.0000 C   0  0  0  0  0  0  0  0  0  0  0  0
   -2.9101    0.3703    0.0000 C   0  0  0  0  0  0  0  0  0  0  0  0
   -0.3081   -0.4342    0.0000 O   0  0  0  0  0  0  0  0  0  0  0  0
   -1.0488    0.7981    0.0000 O   0  0  0  0  0  0  0  0  0  0  0  0
   -1.7225   -1.7879    0.0000 C   0  0  0  0  0  0  0  0  0  0  0  0
   -2.5110   -1.5453    0.0000 C   0  0  0  0  0  0  0  0  0  0  0  0
   -1.9618    1.7113    0.0000 C   0  0  0  0  0  0  0  0  0  0  0  0
   -3.2581    1.1110    0.0000 C   0  0  0  0  0  0  0  0  0  0  0  0
    0.3879    0.0000    0.0000 C   0  0  0  0  0  0  0  0  0  0  0  0
   -2.7952    1.7879    0.0000 C   0  0  0  0  0  0  0  0  0  0  0  0
    1.1127   -0.4054    0.0000 C   0  0  0  0  0  0  0  0  0  0  0  0
    1.8342    0.0191    0.0000 N   0  0  0  0  0  0  0  0  0  0  0  0
    2.5463   -0.3767    0.0000 C   0  0  0  0  0  0  0  0  0  0  0  0
    1.8055    0.8429    0.0000 C   0  0  0  0  0  0  0  0  0  0  0  0
    3.2581    0.0446    0.0000 C   0  0  0  0  0  0  0  0  0  0  0  0
    2.5271    1.2675    0.0000 C   0  0  0  0  0  0  0  0  0  0  0  0
   -0.1736   -1.1050    0.0000 H   0  0  0  0  0  0  0  0  0  0  0  0
   -0.7484   -2.0660    0.0000 H   0  0  0  0  0  0  0  0  0  0  0  0
   -3.4073   -0.1087    0.0000 H   0  0  0  0  0  0  0  0  0  0  0  0
   -3.4732   -1.2271    0.0000 H   0  0  0  0  0  0  0  0  0  0  0  0
   -0.5860    0.8771    0.0000 H   0  0  0  0  0  0  0  0  0  0  0  0
   -3.5072   -0.4714    0.0000 H   0  0  0  0  0  0  0  0  0  0  0  0
   -1.3798   -2.8015    0.0000 H   0  0  0  0  0  0  0  0  0  0  0  0
   -2.4686   -2.5548    0.0000 H   0  0  0  0  0  0  0  0  0  0  0  0
   -3.3642   -2.1910    0.0000 H   0  0  0  0  0  0  0  0  0  0  0  0
   -2.3251   -2.5990    0.0000 H   0  0  0  0  0  0  0  0  0  0  0  0
   -1.3692    2.5562    0.0000 H   0  0  0  0  0  0  0  0  0  0  0  0
   -4.2868    1.1938    0.0000 H   0  0  0  0  0  0  0  0  0  0  0  0
    0.3623    1.0697    0.0000 H   0  0  0  0  0  0  0  0  0  0  0  0
    1.3043    0.5523    0.0000 H   0  0  0  0  0  0  0  0  0  0  0  0
   -3.2345    2.7217    0.0000 H   0  0  0  0  0  0  0  0  0  0  0  0
    1.1244   -1.4753    0.0000 H   0  0  0  0  0  0  0  0  0  0  0  0
    2.0444   -0.9315    0.0000 H   0  0  0  0  0  0  0  0  0  0  0  0
    2.5608   -1.4466    0.0000 H   0  0  0  0  0  0  0  0  0  0  0  0
    3.4794   -0.9004    0.0000 H   0  0  0  0  0  0  0  0  0  0  0  0
    0.8675    1.3578    0.0000 H   0  0  0  0  0  0  0  0  0  0  0  0
    1.7896    1.9128    0.0000 H   0  0  0  0  0  0  0  0  0  0  0  0
    4.1905   -0.4803    0.0000 H   0  0  0  0  0  0  0  0  0  0  0  0
    3.2465    1.1145    0.0000 H   0  0  0  0  0  0  0  0  0  0  0  0
    4.1789    0.5896    0.0000 H   0  0  0  0  0  0  0  0  0  0  0  0
    3.4581    0.7402    0.0000 H   0  0  0  0  0  0  0  0  0  0  0  0
    2.5183    2.3375    0.0000 H   0  0  0  0  0  0  0  0  0  0  0  0
    3.4493    1.8101    0.0000 H   0  0  0  0  0  0  0  0  0  0  0  0
  1  2  1  0  0  0  0
  1  3  1  0  0  0  0
  1  4  1  0  0  0  0
  1  5  1  0  0  0  0
  2  6  2  0  0  0  0
  2  7  1  0  0  0  0
  3  8  1  0  0  0  0
  3  9  2  0  0  0  0
  4 10  1  0  0  0  0
  4 22  1  0  0  0  0
  4 23  1  0  0  0  0
  5 11  1  0  0  0  0
  5 24  1  0  0  0  0
  5 25  1  0  0  0  0
  6 12  1  0  0  0  0
  6 26  1  0  0  0  0
  7 13  2  0  0  0  0
  7 27  1  0  0  0  0
  8 14  1  0  0  0  0
 10 11  1  0  0  0  0
 10 28  1  0  0  0  0
 10 29  1  0  0  0  0
 11 30  1  0  0  0  0
 11 31  1  0  0  0  0
 12 15  2  0  0  0  0
 12 32  1  0  0  0  0
 13 15  1  0  0  0  0
 13 33  1  0  0  0  0
 14 16  1  0  0  0  0
 14 34  1  0  0  0  0
 14 35  1  0  0  0  0
 15 36  1  0  0  0  0
 16 17  1  0  0  0  0
 16 37  1  0  0  0  0
 16 38  1  0  0  0  0
 17 18  1  0  0  0  0
 17 19  1  0  0  0  0
 18 20  1  0  0  0  0
 18 39  1  0  0  0  0
 18 40  1  0  0  0  0
 19 21  1  0  0  0  0
 19 41  1  0  0  0  0
 19 42  1  0  0  0  0
 20 43  1  0  0  0  0
 20 44  1  0  0  0  0
 20 45  1  0  0  0  0
 21 46  1  0  0  0  0
 21 47  1  0  0  0  0
 21 48  1  0  0  0  0
M  END
>  <DRUGBANK_ID>
DB11504

>  <COMMON_NAME>
Caramiphen

>  <CAS_NUMBER>
77-22-5

>  <UNII>
97J7NP0XJY

>  <SYNONYMS>
Caramifenio; Caramiphen; Caramiphenum

$$$$
