
 OpenBabel10282417072D

 45 47  0  0  1  0  0  0  0  0999 V2000
    1.6243   -0.4957    0.0000 N   0  0  0  0  0  0  0  0  0  0  0  0
    1.6243    0.3290    0.0000 C   0  0  1  0  0  0  0  0  0  0  0  0
    0.7994    0.3290    0.0000 C   0  0  2  0  0  0  0  0  0  0  0  0
   -0.0254    0.3290    0.0000 N   0  0  0  0  0  0  0  0  0  0  0  0
   -0.7438    0.7416    0.0000 C   0  0  0  0  0  0  0  0  0  0  0  0
   -1.4621    0.3382    0.0000 C   0  0  2  0  0  0  0  0  0  0  0  0
   -1.4621   -0.4865    0.0000 S   0  0  0  0  0  0  0  0  0  0  0  0
   -1.4621   -1.3161    0.0000 O   0  0  0  0  0  0  0  0  0  0  0  0
   -0.6326   -0.4865    0.0000 O   0  0  0  0  0  0  0  0  0  0  0  0
   -2.2823   -0.4865    0.0000 O   0  0  0  0  0  0  0  0  0  0  0  0
   -2.1804    0.7508    0.0000 C   0  0  0  0  0  0  0  0  0  0  0  0
   -2.1804    1.5756    0.0000 C   0  0  0  0  0  0  0  0  0  0  0  0
   -2.8988    1.9881    0.0000 C   0  0  0  0  0  0  0  0  0  0  0  0
   -3.6125    1.5756    0.0000 C   0  0  0  0  0  0  0  0  0  0  0  0
   -3.6125    0.7416    0.0000 C   0  0  0  0  0  0  0  0  0  0  0  0
   -2.8941    0.3336    0.0000 C   0  0  0  0  0  0  0  0  0  0  0  0
   -0.7438    1.5664    0.0000 O   0  0  0  0  0  0  0  0  0  0  0  0
    0.7994   -0.4957    0.0000 C   0  0  0  0  0  0  0  0  0  0  0  0
    0.2155   -1.0844    0.0000 O   0  0  0  0  0  0  0  0  0  0  0  0
    2.4075    0.5884    0.0000 S   0  0  0  0  0  0  0  0  0  0  0  0
    2.8989   -0.0787    0.0000 C   0  0  0  0  0  0  0  0  0  0  0  0
    2.4168   -0.7508    0.0000 C   0  0  2  0  0  0  0  0  0  0  0  0
    2.4168   -1.5757    0.0000 C   0  0  0  0  0  0  0  0  0  0  0  0
    3.1259   -1.9881    0.0000 O   0  0  0  0  0  0  0  0  0  0  0  0
    1.6939   -1.9881    0.0000 O   0  0  0  0  0  0  0  0  0  0  0  0
    3.6125    0.3382    0.0000 C   0  0  0  0  0  0  0  0  0  0  0  0
    3.6125   -0.4865    0.0000 C   0  0  0  0  0  0  0  0  0  0  0  0
    1.6243    1.1540    0.0000 H   0  0  0  0  0  0  0  0  0  0  0  0
   -0.2706    0.3290    0.0000 H   0  0  0  0  0  0  0  0  0  0  0  0
   -0.2791   -0.6222    0.0000 H   0  0  0  0  0  0  0  0  0  0  0  0
   -0.5386   -0.2023    0.0000 H   0  0  0  0  0  0  0  0  0  0  0  0
   -2.3021   -1.8011    0.0000 H   0  0  0  0  0  0  0  0  0  0  0  0
   -1.2873    2.0927    0.0000 H   0  0  0  0  0  0  0  0  0  0  0  0
   -2.9003    3.0201    0.0000 H   0  0  0  0  0  0  0  0  0  0  0  0
   -4.5064    2.0914    0.0000 H   0  0  0  0  0  0  0  0  0  0  0  0
   -4.5044    0.2224    0.0000 H   0  0  0  0  0  0  0  0  0  0  0  0
   -2.8877   -0.6984    0.0000 H   0  0  0  0  0  0  0  0  0  0  0  0
    3.4354   -1.0784    0.0000 H   0  0  0  0  0  0  0  0  0  0  0  0
    3.1229   -2.9251    0.0000 H   0  0  0  0  0  0  0  0  0  0  0  0
    4.5419   -0.1920    0.0000 H   0  0  0  0  0  0  0  0  0  0  0  0
    3.6070    1.4082    0.0000 H   0  0  0  0  0  0  0  0  0  0  0  0
    4.5364    0.8780    0.0000 H   0  0  0  0  0  0  0  0  0  0  0  0
    3.6172   -1.5565    0.0000 H   0  0  0  0  0  0  0  0  0  0  0  0
    4.5368    0.0526    0.0000 H   0  0  0  0  0  0  0  0  0  0  0  0
    4.5415   -1.0174    0.0000 H   0  0  0  0  0  0  0  0  0  0  0  0
  2  1  1  0  0  0  0
  2 28  1  6  0  0  0
  3  2  1  0  0  0  0
  3  4  1  0  0  0  0
  3 29  1  6  0  0  0
  4 30  1  0  0  0  0
  5  4  1  0  0  0  0
  6  5  1  0  0  0  0
  6  7  1  0  0  0  0
  6 31  1  1  0  0  0
  8  7  1  0  0  0  0
  8 32  1  0  0  0  0
  9  7  2  0  0  0  0
 10  7  2  0  0  0  0
 11  6  1  0  0  0  0
 12 11  2  0  0  0  0
 12 33  1  0  0  0  0
 13 12  1  0  0  0  0
 13 34  1  0  0  0  0
 14 13  2  0  0  0  0
 14 15  1  0  0  0  0
 14 35  1  0  0  0  0
 15 16  2  0  0  0  0
 15 36  1  0  0  0  0
 16 11  1  0  0  0  0
 16 37  1  0  0  0  0
 17  5  2  0  0  0  0
 18  3  1  0  0  0  0
 18  1  1  0  0  0  0
 19 18  2  0  0  0  0
 20  2  1  0  0  0  0
 20 21  1  0  0  0  0
 21 22  1  0  0  0  0
 22  1  1  0  0  0  0
 22 23  1  0  0  0  0
 22 38  1  1  0  0  0
 24 23  1  0  0  0  0
 24 39  1  0  0  0  0
 25 23  2  0  0  0  0
 26 21  1  0  0  0  0
 26 40  1  0  0  0  0
 26 41  1  0  0  0  0
 26 42  1  0  0  0  0
 27 21  1  0  0  0  0
 27 43  1  0  0  0  0
 27 44  1  0  0  0  0
 27 45  1  0  0  0  0
M  END
>  <DRUGBANK_ID>
DB13693

>  <COMMON_NAME>
Sulbenicillin

>  <CAS_NUMBER>
41744-40-5

>  <UNII>
Q2VYF0562D

>  <SYNONYMS>
Sulbenicillin

$$$$
