Indole.mol
 OpenBabel10282417072D

 16 17  0  0  0  0  0  0  0  0999 V2000
   -0.8643   -0.6674    0.0000 N   0  0  0  0  0  0  0  0  0  0  0  0
   -1.3492    0.0000    0.0000 C   0  0  0  0  0  0  0  0  0  0  0  0
   -0.8643    0.6674    0.0000 C   0  0  0  0  0  0  0  0  0  0  0  0
   -0.0797    0.4125    0.0000 C   0  0  0  0  0  0  0  0  0  0  0  0
    0.6348    0.8250    0.0000 C   0  0  0  0  0  0  0  0  0  0  0  0
    1.3492    0.4125    0.0000 C   0  0  0  0  0  0  0  0  0  0  0  0
    1.3492   -0.4125    0.0000 C   0  0  0  0  0  0  0  0  0  0  0  0
    0.6348   -0.8250    0.0000 C   0  0  0  0  0  0  0  0  0  0  0  0
   -0.0797   -0.4125    0.0000 C   0  0  0  0  0  0  0  0  0  0  0  0
   -1.1685   -1.6037    0.0000 H   0  0  0  0  0  0  0  0  0  0  0  0
   -2.3812    0.0000    0.0000 H   0  0  0  0  0  0  0  0  0  0  0  0
   -1.1832    1.6489    0.0000 H   0  0  0  0  0  0  0  0  0  0  0  0
    0.6348    1.8570    0.0000 H   0  0  0  0  0  0  0  0  0  0  0  0
    2.2429    0.9285    0.0000 H   0  0  0  0  0  0  0  0  0  0  0  0
    2.2429   -0.9285    0.0000 H   0  0  0  0  0  0  0  0  0  0  0  0
    0.6348   -1.8570    0.0000 H   0  0  0  0  0  0  0  0  0  0  0  0
  1  2  1  0  0  0  0
  1  9  1  0  0  0  0
  1 10  1  0  0  0  0
  2  3  2  0  0  0  0
  2 11  1  0  0  0  0
  3  4  1  0  0  0  0
  3 12  1  0  0  0  0
  4  5  1  0  0  0  0
  4  9  2  0  0  0  0
  5  6  2  0  0  0  0
  5 13  1  0  0  0  0
  6  7  1  0  0  0  0
  6 14  1  0  0  0  0
  7  8  2  0  0  0  0
  7 15  1  0  0  0  0
  8  9  1  0  0  0  0
  8 16  1  0  0  0  0
M  END
>  <DRUGBANK_ID>
DB04532

>  <SECONDARY_ACCESSION_NUMBERS>
EXPT01882

>  <COMMON_NAME>
Indole

>  <CAS_NUMBER>
120-72-9

>  <UNII>
8724FJW4M5

$$$$
