
 OpenBabel10282417072D

 66 70  0  0  0  0  0  0  0  0999 V2000
   -4.5177   -0.0847    0.0000 C   0  0  0  0  0  0  0  0  0  0  0  0
   -3.8031    0.3275    0.0000 C   0  0  0  0  0  0  0  0  0  0  0  0
   -3.0911   -0.0843    0.0000 C   0  0  0  0  0  0  0  0  0  0  0  0
   -3.0911   -0.9096    0.0000 C   0  0  0  0  0  0  0  0  0  0  0  0
   -3.8013   -1.3214    0.0000 C   0  0  0  0  0  0  0  0  0  0  0  0
   -4.5177   -0.9133    0.0000 C   0  0  0  0  0  0  0  0  0  0  0  0
   -3.6313    1.1319    0.0000 N   0  0  0  0  0  0  0  0  0  0  0  0
   -2.4794    0.4655    0.0000 C   0  0  0  0  0  0  0  0  0  0  0  0
   -2.8132    1.2171    0.0000 N   0  0  0  0  0  0  0  0  0  0  0  0
   -1.6543    0.4655    0.0000 C   0  0  0  0  0  0  0  0  0  0  0  0
   -1.2418   -0.2490    0.0000 C   0  0  0  0  0  0  0  0  0  0  0  0
   -0.4168   -0.2490    0.0000 C   0  0  0  0  0  0  0  0  0  0  0  0
   -0.0040    0.4654    0.0000 C   0  0  0  0  0  0  0  0  0  0  0  0
    0.8185    0.4646    0.0000 C   0  0  0  0  0  0  0  0  0  0  0  0
    1.2310   -0.2500    0.0000 C   0  0  0  0  0  0  0  0  0  0  0  0
    0.8220   -0.9618    0.0000 C   0  0  0  0  0  0  0  0  0  0  0  0
   -0.0024   -0.9665    0.0000 C   0  0  0  0  0  0  0  0  0  0  0  0
   -0.4150   -1.6811    0.0000 N   0  0  0  0  0  0  0  0  0  0  0  0
   -1.2401   -1.6811    0.0000 C   0  0  0  0  0  0  0  0  0  0  0  0
   -1.6525   -2.3956    0.0000 C   0  0  0  0  0  0  0  0  0  0  0  0
   -2.4726   -2.4818    0.0000 S   0  0  0  0  0  0  0  0  0  0  0  0
   -2.6441   -3.2884    0.0000 C   0  0  0  0  0  0  0  0  0  0  0  0
   -1.9299   -3.7007    0.0000 C   0  0  0  0  0  0  0  0  0  0  0  0
   -1.3172   -3.1489    0.0000 C   0  0  0  0  0  0  0  0  0  0  0  0
   -0.5202   -3.3625    0.0000 C   0  0  0  0  0  0  0  0  0  0  0  0
    2.0561   -0.2500    0.0000 C   0  0  0  0  0  0  0  0  0  0  0  0
    2.4687    0.4644    0.0000 N   0  0  0  0  0  0  0  0  0  0  0  0
    2.0561    1.1788    0.0000 C   0  0  0  0  0  0  0  0  0  0  0  0
    2.4687    1.8933    0.0000 C   0  0  0  0  0  0  0  0  0  0  0  0
    3.2937    1.8933    0.0000 N   0  0  0  0  0  0  0  0  0  0  0  0
    3.7062    1.1788    0.0000 C   0  0  0  0  0  0  0  0  0  0  0  0
    3.2937    0.4644    0.0000 C   0  0  0  0  0  0  0  0  0  0  0  0
    3.5073    2.6902    0.0000 C   0  0  0  0  0  0  0  0  0  0  0  0
    4.3041    2.9039    0.0000 C   0  0  0  0  0  0  0  0  0  0  0  0
    4.5177    3.7007    0.0000 O   0  0  0  0  0  0  0  0  0  0  0  0
    2.9239    3.2737    0.0000 O   0  0  0  0  0  0  0  0  0  0  0  0
   -1.6525   -0.9665    0.0000 O   0  0  0  0  0  0  0  0  0  0  0  0
   -5.4113    0.4315    0.0000 H   0  0  0  0  0  0  0  0  0  0  0  0
   -2.1969   -1.4248    0.0000 H   0  0  0  0  0  0  0  0  0  0  0  0
   -3.7974   -2.3534    0.0000 H   0  0  0  0  0  0  0  0  0  0  0  0
   -5.4099   -1.4319    0.0000 H   0  0  0  0  0  0  0  0  0  0  0  0
   -4.2894    1.8642    0.0000 H   0  0  0  0  0  0  0  0  0  0  0  0
   -1.1383    1.3592    0.0000 H   0  0  0  0  0  0  0  0  0  0  0  0
   -1.7578   -1.1427    0.0000 H   0  0  0  0  0  0  0  0  0  0  0  0
   -0.5194    1.3595    0.0000 H   0  0  0  0  0  0  0  0  0  0  0  0
    1.3350    1.3581    0.0000 H   0  0  0  0  0  0  0  0  0  0  0  0
    1.3415   -1.8535    0.0000 H   0  0  0  0  0  0  0  0  0  0  0  0
    0.0772   -2.5337    0.0000 H   0  0  0  0  0  0  0  0  0  0  0  0
   -3.5869   -3.7081    0.0000 H   0  0  0  0  0  0  0  0  0  0  0  0
   -1.8219   -4.7270    0.0000 H   0  0  0  0  0  0  0  0  0  0  0  0
   -0.2433   -4.3961    0.0000 H   0  0  0  0  0  0  0  0  0  0  0  0
    0.2364   -2.6059    0.0000 H   0  0  0  0  0  0  0  0  0  0  0  0
    0.5133   -3.6395    0.0000 H   0  0  0  0  0  0  0  0  0  0  0  0
    2.5910   -1.1767    0.0000 H   0  0  0  0  0  0  0  0  0  0  0  0
    3.1261   -0.2501    0.0000 H   0  0  0  0  0  0  0  0  0  0  0  0
    0.9861    1.1788    0.0000 H   0  0  0  0  0  0  0  0  0  0  0  0
    1.5211    2.1055    0.0000 H   0  0  0  0  0  0  0  0  0  0  0  0
    1.9337    2.8200    0.0000 H   0  0  0  0  0  0  0  0  0  0  0  0
    3.0037    2.8199    0.0000 H   0  0  0  0  0  0  0  0  0  0  0  0
    4.7762    1.1788    0.0000 H   0  0  0  0  0  0  0  0  0  0  0  0
    4.2412    0.2521    0.0000 H   0  0  0  0  0  0  0  0  0  0  0  0
    3.8287   -0.4623    0.0000 H   0  0  0  0  0  0  0  0  0  0  0  0
    2.7587   -0.4622    0.0000 H   0  0  0  0  0  0  0  0  0  0  0  0
    5.0607    2.1473    0.0000 H   0  0  0  0  0  0  0  0  0  0  0  0
    5.3376    3.1808    0.0000 H   0  0  0  0  0  0  0  0  0  0  0  0
    5.4547    3.9516    0.0000 H   0  0  0  0  0  0  0  0  0  0  0  0
  1  6  1  0  0  0  0
  1 38  1  0  0  0  0
  2  1  2  0  0  0  0
  2  7  1  0  0  0  0
  3  2  1  0  0  0  0
  3  8  1  0  0  0  0
  4  3  2  0  0  0  0
  4 39  1  0  0  0  0
  5  4  1  0  0  0  0
  5 40  1  0  0  0  0
  6  5  2  0  0  0  0
  6 41  1  0  0  0  0
  7 42  1  0  0  0  0
  8  9  2  0  0  0  0
  8 10  1  0  0  0  0
  9  7  1  0  0  0  0
 10 11  2  0  0  0  0
 10 43  1  0  0  0  0
 11 12  1  0  0  0  0
 11 44  1  0  0  0  0
 12 17  1  0  0  0  0
 13 12  2  0  0  0  0
 13 45  1  0  0  0  0
 14 13  1  0  0  0  0
 14 46  1  0  0  0  0
 15 14  2  0  0  0  0
 15 26  1  0  0  0  0
 16 15  1  0  0  0  0
 16 47  1  0  0  0  0
 17 16  2  0  0  0  0
 17 18  1  0  0  0  0
 18 19  1  0  0  0  0
 18 48  1  0  0  0  0
 19 20  1  0  0  0  0
 19 37  2  0  0  0  0
 21 20  1  0  0  0  0
 21 22  1  0  0  0  0
 22 23  2  0  0  0  0
 22 49  1  0  0  0  0
 23 24  1  0  0  0  0
 23 50  1  0  0  0  0
 24 20  2  0  0  0  0
 24 25  1  0  0  0  0
 25 51  1  0  0  0  0
 25 52  1  0  0  0  0
 25 53  1  0  0  0  0
 26 27  1  0  0  0  0
 26 54  1  0  0  0  0
 26 55  1  0  0  0  0
 27 32  1  0  0  0  0
 28 27  1  0  0  0  0
 28 56  1  0  0  0  0
 28 57  1  0  0  0  0
 29 28  1  0  0  0  0
 29 58  1  0  0  0  0
 29 59  1  0  0  0  0
 30 29  1  0  0  0  0
 30 33  1  0  0  0  0
 31 30  1  0  0  0  0
 31 60  1  0  0  0  0
 31 61  1  0  0  0  0
 32 31  1  0  0  0  0
 32 62  1  0  0  0  0
 32 63  1  0  0  0  0
 33 34  1  0  0  0  0
 33 36  2  0  0  0  0
 34 35  1  0  0  0  0
 34 64  1  0  0  0  0
 34 65  1  0  0  0  0
 35 66  1  0  0  0  0
M  END
>  <DRUGBANK_ID>
DB16637

>  <COMMON_NAME>
KW-2450 free base

>  <CAS_NUMBER>
904899-25-8

>  <UNII>
RS6V91I0HT

$$$$
