
 OpenBabel10282417072D

 81 82  0  0  0  0  0  0  0  0999 V2000
   -6.4100   -0.4811    0.0000 C   0  0  0  0  0  0  0  0  0  0  0  0
   -5.6956   -1.7186    0.0000 C   0  0  0  0  0  0  0  0  0  0  0  0
   -2.8377   -1.7186    0.0000 C   0  0  0  0  0  0  0  0  0  0  0  0
    0.0201   -1.7186    0.0000 C   0  0  0  0  0  0  0  0  0  0  0  0
    5.3494    1.7186    0.0000 C   0  0  0  0  0  0  0  0  0  0  0  0
    3.7245    1.4321    0.0000 C   0  0  0  0  0  0  0  0  0  0  0  0
    5.8457   -1.0958    0.0000 C   0  0  0  0  0  0  0  0  0  0  0  0
    2.3477   -1.5256    0.0000 C   0  0  0  0  0  0  0  0  0  0  0  0
   -4.2666   -0.8936    0.0000 C   0  0  0  0  0  0  0  0  0  0  0  0
   -1.4087   -0.8936    0.0000 C   0  0  0  0  0  0  0  0  0  0  0  0
    1.4491   -0.8936    0.0000 C   0  0  0  0  0  0  0  0  0  0  0  0
   -4.9811   -0.4811    0.0000 C   0  0  0  0  0  0  0  0  0  0  0  0
   -3.5521   -0.4811    0.0000 C   0  0  0  0  0  0  0  0  0  0  0  0
   -2.1232   -0.4811    0.0000 C   0  0  0  0  0  0  0  0  0  0  0  0
   -0.6943   -0.4811    0.0000 C   0  0  0  0  0  0  0  0  0  0  0  0
    0.7346   -0.4811    0.0000 C   0  0  0  0  0  0  0  0  0  0  0  0
    4.2208   -1.3823    0.0000 C   0  0  0  0  0  0  0  0  0  0  0  0
    2.1635   -0.4811    0.0000 C   0  0  0  0  0  0  0  0  0  0  0  0
    3.4083   -1.5256    0.0000 C   0  0  0  0  0  0  0  0  0  0  0  0
   -5.6956   -0.8936    0.0000 C   0  0  0  0  0  0  0  0  0  0  0  0
   -2.8377   -0.8936    0.0000 C   0  0  3  0  0  0  0  0  0  0  0  0
    0.0201   -0.8936    0.0000 C   0  0  3  0  0  0  0  0  0  0  0  0
    5.0673    0.9433    0.0000 C   0  0  0  0  0  0  0  0  0  0  0  0
    4.2548    0.8001    0.0000 C   0  0  0  0  0  0  0  0  0  0  0  0
    5.3154   -0.4638    0.0000 C   0  0  0  0  0  0  0  0  0  0  0  0
    4.5029   -0.6071    0.0000 C   0  0  0  0  0  0  0  0  0  0  0  0
    5.5976    0.3113    0.0000 C   0  0  0  0  0  0  0  0  0  0  0  0
    3.9726    0.0248    0.0000 C   0  0  0  0  0  0  0  0  0  0  0  0
    2.8780   -0.8936    0.0000 C   0  0  3  0  0  0  0  0  0  0  0  0
    6.4100    0.4546    0.0000 O   0  0  0  0  0  0  0  0  0  0  0  0
    3.1602   -0.1183    0.0000 O   0  0  0  0  0  0  0  0  0  0  0  0
   -6.4100    0.5889    0.0000 H   0  0  0  0  0  0  0  0  0  0  0  0
   -7.3367   -1.0161    0.0000 H   0  0  0  0  0  0  0  0  0  0  0  0
   -7.3366    0.0539    0.0000 H   0  0  0  0  0  0  0  0  0  0  0  0
   -6.6222   -2.2536    0.0000 H   0  0  0  0  0  0  0  0  0  0  0  0
   -4.7690   -2.2536    0.0000 H   0  0  0  0  0  0  0  0  0  0  0  0
   -5.6956   -2.7886    0.0000 H   0  0  0  0  0  0  0  0  0  0  0  0
   -3.7643   -2.2536    0.0000 H   0  0  0  0  0  0  0  0  0  0  0  0
   -1.9111   -2.2536    0.0000 H   0  0  0  0  0  0  0  0  0  0  0  0
   -2.8377   -2.7886    0.0000 H   0  0  0  0  0  0  0  0  0  0  0  0
   -0.9065   -2.2536    0.0000 H   0  0  0  0  0  0  0  0  0  0  0  0
    0.9467   -2.2536    0.0000 H   0  0  0  0  0  0  0  0  0  0  0  0
    0.0201   -2.7886    0.0000 H   0  0  0  0  0  0  0  0  0  0  0  0
    6.4031    1.9045    0.0000 H   0  0  0  0  0  0  0  0  0  0  0  0
    4.6615    2.5382    0.0000 H   0  0  0  0  0  0  0  0  0  0  0  0
    5.7153    2.7241    0.0000 H   0  0  0  0  0  0  0  0  0  0  0  0
    4.0905    2.4376    0.0000 H   0  0  0  0  0  0  0  0  0  0  0  0
    2.6708    1.2463    0.0000 H   0  0  0  0  0  0  0  0  0  0  0  0
    3.0367    2.2518    0.0000 H   0  0  0  0  0  0  0  0  0  0  0  0
    5.4797   -2.1013    0.0000 H   0  0  0  0  0  0  0  0  0  0  0  0
    6.8994   -0.9100    0.0000 H   0  0  0  0  0  0  0  0  0  0  0  0
    6.5335   -1.9155    0.0000 H   0  0  0  0  0  0  0  0  0  0  0  0
    1.2940   -1.3398    0.0000 H   0  0  0  0  0  0  0  0  0  0  0  0
    2.7137   -2.5311    0.0000 H   0  0  0  0  0  0  0  0  0  0  0  0
    1.6599   -2.3453    0.0000 H   0  0  0  0  0  0  0  0  0  0  0  0
   -4.2666   -1.9636    0.0000 H   0  0  0  0  0  0  0  0  0  0  0  0
   -3.3400   -1.4286    0.0000 H   0  0  0  0  0  0  0  0  0  0  0  0
   -1.4087   -1.9636    0.0000 H   0  0  0  0  0  0  0  0  0  0  0  0
   -0.4820   -1.4286    0.0000 H   0  0  0  0  0  0  0  0  0  0  0  0
    1.4491   -1.9636    0.0000 H   0  0  0  0  0  0  0  0  0  0  0  0
    2.3758   -1.4286    0.0000 H   0  0  0  0  0  0  0  0  0  0  0  0
   -4.9811    0.5889    0.0000 H   0  0  0  0  0  0  0  0  0  0  0  0
   -5.9077    0.0539    0.0000 H   0  0  0  0  0  0  0  0  0  0  0  0
   -3.5521    0.5889    0.0000 H   0  0  0  0  0  0  0  0  0  0  0  0
   -2.6254    0.0539    0.0000 H   0  0  0  0  0  0  0  0  0  0  0  0
   -2.1232    0.5889    0.0000 H   0  0  0  0  0  0  0  0  0  0  0  0
   -3.0498    0.0539    0.0000 H   0  0  0  0  0  0  0  0  0  0  0  0
   -0.6943    0.5889    0.0000 H   0  0  0  0  0  0  0  0  0  0  0  0
    0.2324    0.0539    0.0000 H   0  0  0  0  0  0  0  0  0  0  0  0
    0.7346    0.5889    0.0000 H   0  0  0  0  0  0  0  0  0  0  0  0
   -0.1920    0.0539    0.0000 H   0  0  0  0  0  0  0  0  0  0  0  0
    4.9086   -2.2019    0.0000 H   0  0  0  0  0  0  0  0  0  0  0  0
    5.2745   -1.1964    0.0000 H   0  0  0  0  0  0  0  0  0  0  0  0
    2.1635    0.5889    0.0000 H   0  0  0  0  0  0  0  0  0  0  0  0
    3.0901    0.0539    0.0000 H   0  0  0  0  0  0  0  0  0  0  0  0
    3.0424   -2.5311    0.0000 H   0  0  0  0  0  0  0  0  0  0  0  0
    2.3546   -1.7114    0.0000 H   0  0  0  0  0  0  0  0  0  0  0  0
   -4.7690   -1.4286    0.0000 H   0  0  0  0  0  0  0  0  0  0  0  0
   -3.7644   -1.4286    0.0000 H   0  0  0  0  0  0  0  0  0  0  0  0
   -0.9066   -1.4286    0.0000 H   0  0  0  0  0  0  0  0  0  0  0  0
    7.0123   -0.2631    0.0000 H   0  0  0  0  0  0  0  0  0  0  0  0
  1 32  1  0  0  0  0
  1 33  1  0  0  0  0
  1 34  1  0  0  0  0
  2 35  1  0  0  0  0
  2 36  1  0  0  0  0
  2 37  1  0  0  0  0
  3 38  1  0  0  0  0
  3 39  1  0  0  0  0
  3 40  1  0  0  0  0
  4 41  1  0  0  0  0
  4 42  1  0  0  0  0
  4 43  1  0  0  0  0
  5 44  1  0  0  0  0
  5 45  1  0  0  0  0
  5 46  1  0  0  0  0
  6 47  1  0  0  0  0
  6 48  1  0  0  0  0
  6 49  1  0  0  0  0
  7 50  1  0  0  0  0
  7 51  1  0  0  0  0
  7 52  1  0  0  0  0
  8 53  1  0  0  0  0
  8 54  1  0  0  0  0
  8 55  1  0  0  0  0
  9 56  1  0  0  0  0
  9 57  1  0  0  0  0
 10 58  1  0  0  0  0
 10 59  1  0  0  0  0
 11 60  1  0  0  0  0
 11 61  1  0  0  0  0
 12  9  1  0  0  0  0
 12 62  1  0  0  0  0
 12 63  1  0  0  0  0
 13  9  1  0  0  0  0
 13 64  1  0  0  0  0
 13 65  1  0  0  0  0
 14 10  1  0  0  0  0
 14 66  1  0  0  0  0
 14 67  1  0  0  0  0
 15 10  1  0  0  0  0
 15 68  1  0  0  0  0
 15 69  1  0  0  0  0
 16 11  1  0  0  0  0
 16 70  1  0  0  0  0
 16 71  1  0  0  0  0
 17 72  1  0  0  0  0
 17 73  1  0  0  0  0
 18 11  1  0  0  0  0
 18 74  1  0  0  0  0
 18 75  1  0  0  0  0
 19 17  1  0  0  0  0
 19 76  1  0  0  0  0
 19 77  1  0  0  0  0
 20  1  1  0  0  0  0
 20  2  1  0  0  0  0
 20 12  1  0  0  0  0
 20 78  1  0  0  0  0
 21  3  1  0  0  0  0
 21 13  1  0  0  0  0
 21 14  1  0  0  0  0
 21 79  1  0  0  0  0
 22  4  1  0  0  0  0
 22 15  1  0  0  0  0
 22 16  1  0  0  0  0
 22 80  1  0  0  0  0
 23  5  1  0  0  0  0
 24  6  1  0  0  0  0
 24 23  1  0  0  0  0
 25  7  1  0  0  0  0
 26 17  1  0  0  0  0
 26 25  2  0  0  0  0
 27 23  2  0  0  0  0
 27 25  1  0  0  0  0
 28 24  2  0  0  0  0
 28 26  1  0  0  0  0
 29  8  1  0  0  0  0
 29 18  1  0  0  0  0
 29 19  1  0  0  0  0
 30 27  1  0  0  0  0
 30 81  1  0  0  0  0
 31 28  1  0  0  0  0
 31 29  1  0  0  0  0
M  END
>  <DRUGBANK_ID>
DB14476

>  <COMMON_NAME>
DL-alpha-Tocopherol

>  <CAS_NUMBER>
10191-41-0

>  <UNII>
7QWA1RIO01

>  <SYNONYMS>
(+)-alpha-tocopherol; (±)-α-tocopherol; all-rac-alpha-tocopherol; DL-5,7,8-trimethyltocol; DL-alpha tocopherol; DL-α-tocopherol; Vitamin E DL-alpha

$$$$
