
 OpenBabel10282417072D

 87 90  0  0  0  0  0  0  0  0999 V2000
    2.5667    4.2637    0.0000 C   0  0  0  0  0  0  0  0  0  0  0  0
    2.8482    3.4877    0.0000 C   0  0  0  0  0  0  0  0  0  0  0  0
    2.3195    2.8567    0.0000 C   0  0  0  0  0  0  0  0  0  0  0  0
    2.9078    2.2853    0.0000 C   0  0  0  0  0  0  0  0  0  0  0  0
    2.5411    1.5519    0.0000 C   0  0  0  0  0  0  0  0  0  0  0  0
    2.9333    0.8271    0.0000 C   0  0  0  0  0  0  0  0  0  0  0  0
    2.5411    0.1023    0.0000 C   0  0  0  0  0  0  0  0  0  0  0  0
    1.7310   -0.0170    0.0000 N   0  0  0  0  0  0  0  0  0  0  0  0
    1.5860   -0.8272    0.0000 C   0  0  0  0  0  0  0  0  0  0  0  0
    0.7503   -1.2194    0.0000 C   0  0  0  0  0  0  0  0  0  0  0  0
    0.1620   -0.7418    0.0000 C   0  0  0  0  0  0  0  0  0  0  0  0
    0.0170   -0.0170    0.0000 N   0  5  0  0  0  0  0  0  0  0  0  0
   -0.7930    0.1023    0.0000 C   0  0  0  0  0  0  0  0  0  0  0  0
   -1.2108    0.8271    0.0000 C   0  0  0  0  0  0  0  0  0  0  0  0
   -0.7930    1.5519    0.0000 C   0  0  0  0  0  0  0  0  0  0  0  0
    0.0170    1.6799    0.0000 N   0  0  0  0  0  0  0  0  0  0  0  0
    0.1620    2.4815    0.0000 C   0  0  0  0  0  0  0  0  0  0  0  0
    0.8783    2.8993    0.0000 C   0  0  0  0  0  0  0  0  0  0  0  0
    1.5860    2.4815    0.0000 C   0  0  0  0  0  0  0  0  0  0  0  0
    1.7310    1.6799    0.0000 N   0  5  0  0  0  0  0  0  0  0  0  0
   -0.5713    2.8737    0.0000 C   0  0  0  0  0  0  0  0  0  0  0  0
   -1.1683    2.2853    0.0000 C   0  0  0  0  0  0  0  0  0  0  0  0
   -1.8845    2.6947    0.0000 C   0  0  0  0  0  0  0  0  0  0  0  0
   -2.5923    2.2769    0.0000 C   0  0  0  0  0  0  0  0  0  0  0  0
   -1.1001    3.5133    0.0000 C   0  0  0  0  0  0  0  0  0  0  0  0
   -1.1683   -0.6225    0.0000 C   0  0  2  0  0  0  0  0  0  0  0  0
   -0.5713   -1.2194    0.0000 C   0  0  2  0  0  0  0  0  0  0  0  0
   -0.3325   -1.9954    0.0000 C   0  0  0  0  0  0  0  0  0  0  0  0
    0.5116   -1.9954    0.0000 C   0  0  0  0  0  0  0  0  0  0  0  0
   -0.8186   -2.6606    0.0000 C   0  0  0  0  0  0  0  0  0  0  0  0
   -1.6373   -2.5753    0.0000 O   0  0  0  0  0  0  0  0  0  0  0  0
   -0.4860   -3.4195    0.0000 O   0  0  0  0  0  0  0  0  0  0  0  0
    0.3325   -3.5048    0.0000 C   0  0  0  0  0  0  0  0  0  0  0  0
    0.6651   -4.2637    0.0000 C   0  0  0  0  0  0  0  0  0  0  0  0
   -1.2791   -1.6458    0.0000 C   0  0  0  0  0  0  0  0  0  0  0  0
   -1.2621   -2.4730    0.0000 C   0  0  0  0  0  0  0  0  0  0  0  0
   -1.8078   -1.1427    0.0000 C   0  0  0  0  0  0  0  0  0  0  0  0
    2.3195   -1.2194    0.0000 C   0  0  0  0  0  0  0  0  0  0  0  0
    2.9078   -0.6225    0.0000 C   0  0  0  0  0  0  0  0  0  0  0  0
    3.7265   -0.7590    0.0000 C   0  0  0  0  0  0  0  0  0  0  0  0
    4.2467   -0.1108    0.0000 C   0  0  0  0  0  0  0  0  0  0  0  0
    2.4389   -2.0380    0.0000 C   0  0  0  0  0  0  0  0  0  0  0  0
    3.6242    2.6861    0.0000 C   0  0  0  0  0  0  0  0  0  0  0  0
   -3.4195    0.6139    0.0000 Cl  0  5  0  0  0  0  0  0  0  0  0  0
   -4.2467    0.6139    0.0000 Sn  0  0  0  0  0  0  0  0  0  0  0  0
    3.2554    5.0826    0.0000 H   0  0  0  0  0  0  0  0  0  0  0  0
    1.5132    4.4506    0.0000 H   0  0  0  0  0  0  0  0  0  0  0  0
    2.2018    5.2696    0.0000 H   0  0  0  0  0  0  0  0  0  0  0  0
    3.9019    3.3017    0.0000 H   0  0  0  0  0  0  0  0  0  0  0  0
    3.2144    2.4823    0.0000 H   0  0  0  0  0  0  0  0  0  0  0  0
    3.9653    0.8271    0.0000 H   0  0  0  0  0  0  0  0  0  0  0  0
   -2.2428    0.8271    0.0000 H   0  0  0  0  0  0  0  0  0  0  0  0
    0.8810    3.9313    0.0000 H   0  0  0  0  0  0  0  0  0  0  0  0
   -1.8920    3.7647    0.0000 H   0  0  0  0  0  0  0  0  0  0  0  0
   -2.8156    3.2220    0.0000 H   0  0  0  0  0  0  0  0  0  0  0  0
   -3.5241    2.8029    0.0000 H   0  0  0  0  0  0  0  0  0  0  0  0
   -2.5820    1.2069    0.0000 H   0  0  0  0  0  0  0  0  0  0  0  0
   -3.5137    1.7330    0.0000 H   0  0  0  0  0  0  0  0  0  0  0  0
   -0.7268    4.5161    0.0000 H   0  0  0  0  0  0  0  0  0  0  0  0
   -2.1552    3.3352    0.0000 H   0  0  0  0  0  0  0  0  0  0  0  0
   -1.7819    4.3380    0.0000 H   0  0  0  0  0  0  0  0  0  0  0  0
   -1.9984    0.0527    0.0000 H   0  0  0  0  0  0  0  0  0  0  0  0
    1.1247   -2.8255    0.0000 H   0  0  0  0  0  0  0  0  0  0  0  0
    0.9636   -2.6407    0.0000 H   0  0  0  0  0  0  0  0  0  0  0  0
    1.3962   -3.6211    0.0000 H   0  0  0  0  0  0  0  0  0  0  0  0
    0.0311   -5.1257    0.0000 H   0  0  0  0  0  0  0  0  0  0  0  0
    1.7286   -4.3817    0.0000 H   0  0  0  0  0  0  0  0  0  0  0  0
    1.0946   -5.2437    0.0000 H   0  0  0  0  0  0  0  0  0  0  0  0
   -2.2160   -1.1290    0.0000 H   0  0  0  0  0  0  0  0  0  0  0  0
   -2.1948   -2.1993    0.0000 H   0  0  0  0  0  0  0  0  0  0  0  0
   -2.1776   -3.0269    0.0000 H   0  0  0  0  0  0  0  0  0  0  0  0
   -0.3247   -2.9888    0.0000 H   0  0  0  0  0  0  0  0  0  0  0  0
   -1.2401   -3.5428    0.0000 H   0  0  0  0  0  0  0  0  0  0  0  0
   -2.8076   -0.7615    0.0000 H   0  0  0  0  0  0  0  0  0  0  0  0
   -1.6381   -2.1992    0.0000 H   0  0  0  0  0  0  0  0  0  0  0  0
   -2.6379   -1.8179    0.0000 H   0  0  0  0  0  0  0  0  0  0  0  0
    4.1081   -1.7586    0.0000 H   0  0  0  0  0  0  0  0  0  0  0  0
    4.7835   -0.9250    0.0000 H   0  0  0  0  0  0  0  0  0  0  0  0
    5.3043   -0.2735    0.0000 H   0  0  0  0  0  0  0  0  0  0  0  0
    3.8589    0.8864    0.0000 H   0  0  0  0  0  0  0  0  0  0  0  0
    4.9164    0.7237    0.0000 H   0  0  0  0  0  0  0  0  0  0  0  0
    1.5992   -2.7011    0.0000 H   0  0  0  0  0  0  0  0  0  0  0  0
    3.4331   -2.4337    0.0000 H   0  0  0  0  0  0  0  0  0  0  0  0
    2.5933   -3.0968    0.0000 H   0  0  0  0  0  0  0  0  0  0  0  0
    4.5435    2.1386    0.0000 H   0  0  0  0  0  0  0  0  0  0  0  0
    3.6387    3.7560    0.0000 H   0  0  0  0  0  0  0  0  0  0  0  0
    4.5580    3.2085    0.0000 H   0  0  0  0  0  0  0  0  0  0  0  0
  1  2  1  0  0  0  0
  1 46  1  0  0  0  0
  1 47  1  0  0  0  0
  1 48  1  0  0  0  0
  2  3  1  0  0  0  0
  2 49  1  0  0  0  0
  2 50  1  0  0  0  0
  3  4  1  0  0  0  0
  3 19  2  0  0  0  0
  4  5  2  0  0  0  0
  4 43  1  0  0  0  0
  5  6  1  0  0  0  0
  5 20  1  0  0  0  0
  6  7  2  0  0  0  0
  6 51  1  0  0  0  0
  7  8  1  0  0  0  0
  7 39  1  0  0  0  0
  8  9  2  0  0  0  0
  9 10  1  0  0  0  0
  9 38  1  0  0  0  0
 10 11  2  0  0  0  0
 10 29  1  0  0  0  0
 11 12  1  0  0  0  0
 11 27  1  0  0  0  0
 12 13  1  0  0  0  0
 13 14  2  0  0  0  0
 13 26  1  0  0  0  0
 14 15  1  0  0  0  0
 14 52  1  0  0  0  0
 15 16  2  0  0  0  0
 15 22  1  0  0  0  0
 16 17  1  0  0  0  0
 17 18  2  0  0  0  0
 17 21  1  0  0  0  0
 18 19  1  0  0  0  0
 18 53  1  0  0  0  0
 19 20  1  0  0  0  0
 21 22  2  0  0  0  0
 21 25  1  0  0  0  0
 22 23  1  0  0  0  0
 23 24  1  0  0  0  0
 23 54  1  0  0  0  0
 23 55  1  0  0  0  0
 24 56  1  0  0  0  0
 24 57  1  0  0  0  0
 24 58  1  0  0  0  0
 25 59  1  0  0  0  0
 25 60  1  0  0  0  0
 25 61  1  0  0  0  0
 26 27  1  0  0  0  0
 26 37  1  0  0  0  0
 26 62  1  1  0  0  0
 27 28  1  0  0  0  0
 27 35  1  6  0  0  0
 28 29  2  0  0  0  0
 28 30  1  0  0  0  0
 29 63  1  0  0  0  0
 30 31  2  0  0  0  0
 30 32  1  0  0  0  0
 32 33  1  0  0  0  0
 33 34  1  0  0  0  0
 33 64  1  0  0  0  0
 33 65  1  0  0  0  0
 34 66  1  0  0  0  0
 34 67  1  0  0  0  0
 34 68  1  0  0  0  0
 35 36  1  0  0  0  0
 35 69  1  0  0  0  0
 35 70  1  0  0  0  0
 36 71  1  0  0  0  0
 36 72  1  0  0  0  0
 36 73  1  0  0  0  0
 37 74  1  0  0  0  0
 37 75  1  0  0  0  0
 37 76  1  0  0  0  0
 38 39  2  0  0  0  0
 38 42  1  0  0  0  0
 39 40  1  0  0  0  0
 40 41  1  0  0  0  0
 40 77  1  0  0  0  0
 40 78  1  0  0  0  0
 41 79  1  0  0  0  0
 41 80  1  0  0  0  0
 41 81  1  0  0  0  0
 42 82  1  0  0  0  0
 42 83  1  0  0  0  0
 42 84  1  0  0  0  0
 43 85  1  0  0  0  0
 43 86  1  0  0  0  0
 43 87  1  0  0  0  0
M  CHG  4  12  -1  20  -1  44  -1  45   4
M  END
>  <DRUGBANK_ID>
DB06659

>  <COMMON_NAME>
Rostaporfin

>  <CAS_NUMBER>
284041-10-7

>  <UNII>
466G63QE7G

>  <SYNONYMS>
Rostaporfin; SnET2; Tin ethyl etiopurpurin

$$$$
