
 OpenBabel10282417072D

135137  0  0  0  0  0  0  0  0999 V2000
    3.4505   -1.4790    0.0000 C   0  0  2  0  0  0  0  0  0  0  0  0
    0.5407    0.2081    0.0000 C   0  0  2  0  0  0  0  0  0  0  0  0
   -1.4102    0.2081    0.0000 C   0  0  0  0  0  0  0  0  0  0  0  0
   -4.3647    0.0854    0.0000 C   0  0  1  0  0  0  0  0  0  0  0  0
   -0.4291   -0.3604    0.0000 C   0  0  2  0  0  0  0  0  0  0  0  0
    4.0823   -1.8470    0.0000 C   0  0  1  0  0  0  0  0  0  0  0  0
    1.5144   -1.4865    0.0000 C   0  0  1  0  0  0  0  0  0  0  0  0
   -4.8515   -0.9364    0.0000 C   0  0  1  0  0  0  0  0  0  0  0  0
    1.5144   -0.3604    0.0000 C   0  0  1  0  0  0  0  0  0  0  0  0
   -3.2498   -2.1888    0.0000 N   0  0  0  0  0  0  0  0  0  0  0  0
   -2.3839   -0.3604    0.0000 O   0  0  0  0  0  0  0  0  0  0  0  0
    2.4806   -2.0439    0.0000 O   0  0  0  0  0  0  0  0  0  0  0  0
    2.4472    1.3193    0.0000 C   0  0  2  0  0  0  0  0  0  0  0  0
    4.7178   -1.4790    0.0000 C   0  0  2  0  0  0  0  0  0  0  0  0
    0.5407   -2.0439    0.0000 C   0  0  1  0  0  0  0  0  0  0  0  0
    1.1762    1.3193    0.0000 C   0  0  1  0  0  0  0  0  0  0  0  0
   -4.3535   -1.9473    0.0000 C   0  0  2  0  0  0  0  0  0  0  0  0
    1.8117    0.9439    0.0000 C   0  0  0  0  0  0  0  0  0  0  0  0
    3.4505   -0.7432    0.0000 O   0  0  0  0  0  0  0  0  0  0  0  0
    1.1762    2.0439    0.0000 O   0  0  0  0  0  0  0  0  0  0  0  0
   -3.2685    0.3418    0.0000 C   0  0  2  0  0  0  0  0  0  0  0  0
    2.4472    2.0439    0.0000 C   0  0  2  0  0  0  0  0  0  0  0  0
    0.5407    0.9439    0.0000 O   0  0  0  0  0  0  0  0  0  0  0  0
    1.8117    2.4156    0.0000 C   0  0  2  0  0  0  0  0  0  0  0  0
    4.7178   -0.7432    0.0000 C   0  0  0  0  0  0  0  0  0  0  0  0
   -2.3728   -1.4865    0.0000 C   0  0  0  0  0  0  0  0  0  0  0  0
    5.3532   -1.8470    0.0000 N   0  0  0  0  0  0  0  0  0  0  0  0
   -0.4291   -1.4865    0.0000 C   0  0  0  0  0  0  0  0  0  0  0  0
   -1.4140    1.3415    0.0000 O   0  0  0  0  0  0  0  0  0  0  0  0
    4.0823   -0.3753    0.0000 C   0  0  1  0  0  0  0  0  0  0  0  0
   -1.4102   -2.0439    0.0000 C   0  0  1  0  0  0  0  0  0  0  0  0
   -5.4907    0.0854    0.0000 O   0  0  0  0  0  0  0  0  0  0  0  0
    4.0749   -2.5828    0.0000 O   0  0  0  0  0  0  0  0  0  0  0  0
   -5.9850   -0.9328    0.0000 O   0  0  0  0  0  0  0  0  0  0  0  0
    1.5107   -2.6050    0.0000 O   0  0  0  0  0  0  0  0  0  0  0  0
    2.4434    0.5834    0.0000 O   0  0  0  0  0  0  0  0  0  0  0  0
   -4.9296    1.0628    0.0000 C   0  0  0  0  0  0  0  0  0  0  0  0
   -0.4291   -0.9551    0.0000 C   0  0  0  0  0  0  0  0  0  0  0  0
    2.1908   -0.0409    0.0000 C   0  0  0  0  0  0  0  0  0  0  0  0
    3.0827    0.9439    0.0000 C   0  0  0  0  0  0  0  0  0  0  0  0
   -0.4329   -2.6013    0.0000 C   0  0  0  0  0  0  0  0  0  0  0  0
   -5.1562   -2.7389    0.0000 C   0  0  0  0  0  0  0  0  0  0  0  0
   -2.9822    1.4307    0.0000 C   0  0  0  0  0  0  0  0  0  0  0  0
    1.8080    3.1514    0.0000 C   0  0  0  0  0  0  0  0  0  0  0  0
    5.3459   -2.5828    0.0000 C   0  0  0  0  0  0  0  0  0  0  0  0
    5.9850   -1.4790    0.0000 C   0  0  0  0  0  0  0  0  0  0  0  0
    4.0749    0.3604    0.0000 C   0  0  0  0  0  0  0  0  0  0  0  0
   -1.4140   -3.1514    0.0000 C   0  0  0  0  0  0  0  0  0  0  0  0
    3.1607    0.0482    0.0000 C   0  0  0  0  0  0  0  0  0  0  0  0
   -3.7775    2.2260    0.0000 C   0  0  0  0  0  0  0  0  0  0  0  0
    2.8113   -1.1112    0.0000 H   0  0  0  0  0  0  0  0  0  0  0  0
    1.1725    0.5834    0.0000 H   0  0  0  0  0  0  0  0  0  0  0  0
    2.8039    2.6831    0.0000 O   0  0  0  0  0  0  0  0  0  0  0  0
    3.2721    2.0476    0.0000 C   0  0  0  0  0  0  0  0  0  0  0  0
    3.6363    2.6831    0.0000 N   0  0  0  0  0  0  0  0  0  0  0  0
    4.3686    2.6831    0.0000 C   0  0  0  0  0  0  0  0  0  0  0  0
    4.7327    2.0476    0.0000 C   0  0  0  0  0  0  0  0  0  0  0  0
    5.4648    2.0476    0.0000 C   0  0  0  0  0  0  0  0  0  0  0  0
    1.4686    0.7408    0.0000 H   0  0  0  0  0  0  0  0  0  0  0  0
   -1.3562   -0.8947    0.0000 H   0  0  0  0  0  0  0  0  0  0  0  0
    5.0066   -2.3861    0.0000 H   0  0  0  0  0  0  0  0  0  0  0  0
    2.4410   -0.9513    0.0000 H   0  0  0  0  0  0  0  0  0  0  0  0
   -5.4182   -1.8440    0.0000 H   0  0  0  0  0  0  0  0  0  0  0  0
    2.4183   -0.9331    0.0000 H   0  0  0  0  0  0  0  0  0  0  0  0
   -3.0174   -3.1820    0.0000 H   0  0  0  0  0  0  0  0  0  0  0  0
    4.7178   -2.5490    0.0000 H   0  0  0  0  0  0  0  0  0  0  0  0
   -5.4086   -1.7691    0.0000 H   0  0  0  0  0  0  0  0  0  0  0  0
    1.8117   -0.1261    0.0000 H   0  0  0  0  0  0  0  0  0  0  0  0
    0.8824    0.4135    0.0000 H   0  0  0  0  0  0  0  0  0  0  0  0
   -2.2533    0.6798    0.0000 H   0  0  0  0  0  0  0  0  0  0  0  0
    2.7385    2.9503    0.0000 H   0  0  0  0  0  0  0  0  0  0  0  0
    5.6448   -0.2087    0.0000 H   0  0  0  0  0  0  0  0  0  0  0  0
    4.7187    0.3268    0.0000 H   0  0  0  0  0  0  0  0  0  0  0  0
   -2.4532   -0.4195    0.0000 H   0  0  0  0  0  0  0  0  0  0  0  0
   -1.4665   -0.9176    0.0000 H   0  0  0  0  0  0  0  0  0  0  0  0
   -0.4264   -0.4165    0.0000 H   0  0  0  0  0  0  0  0  0  0  0  0
   -1.3532   -0.9471    0.0000 H   0  0  0  0  0  0  0  0  0  0  0  0
    3.1520    0.1533    0.0000 H   0  0  0  0  0  0  0  0  0  0  0  0
   -2.3381   -2.5767    0.0000 H   0  0  0  0  0  0  0  0  0  0  0  0
   -5.9757    0.9254    0.0000 H   0  0  0  0  0  0  0  0  0  0  0  0
    3.2300   -3.0593    0.0000 H   0  0  0  0  0  0  0  0  0  0  0  0
   -6.4673   -0.0912    0.0000 H   0  0  0  0  0  0  0  0  0  0  0  0
    1.5099   -3.5750    0.0000 H   0  0  0  0  0  0  0  0  0  0  0  0
   -4.3950    1.9897    0.0000 H   0  0  0  0  0  0  0  0  0  0  0  0
   -5.9996    1.0623    0.0000 H   0  0  0  0  0  0  0  0  0  0  0  0
   -5.4650    1.9892    0.0000 H   0  0  0  0  0  0  0  0  0  0  0  0
   -1.3557   -1.4901    0.0000 H   0  0  0  0  0  0  0  0  0  0  0  0
    0.4975   -1.4901    0.0000 H   0  0  0  0  0  0  0  0  0  0  0  0
   -0.4291   -2.0251    0.0000 H   0  0  0  0  0  0  0  0  0  0  0  0
    3.0703   -0.6503    0.0000 H   0  0  0  0  0  0  0  0  0  0  0  0
    2.2788    1.0255    0.0000 H   0  0  0  0  0  0  0  0  0  0  0  0
    3.1583    0.4161    0.0000 H   0  0  0  0  0  0  0  0  0  0  0  0
    3.0720   -0.1260    0.0000 H   0  0  0  0  0  0  0  0  0  0  0  0
    4.0146    1.4696    0.0000 H   0  0  0  0  0  0  0  0  0  0  0  0
    4.0040    0.3997    0.0000 H   0  0  0  0  0  0  0  0  0  0  0  0
   -1.3576   -2.0629    0.0000 H   0  0  0  0  0  0  0  0  0  0  0  0
   -0.4368   -3.6713    0.0000 H   0  0  0  0  0  0  0  0  0  0  0  0
   -1.3615   -3.1329    0.0000 H   0  0  0  0  0  0  0  0  0  0  0  0
   -6.1878   -2.4548    0.0000 H   0  0  0  0  0  0  0  0  0  0  0  0
   -4.8865   -3.7743    0.0000 H   0  0  0  0  0  0  0  0  0  0  0  0
   -5.9181   -3.4902    0.0000 H   0  0  0  0  0  0  0  0  0  0  0  0
   -1.9493    1.7101    0.0000 H   0  0  0  0  0  0  0  0  0  0  0  0
   -2.7065    2.4646    0.0000 H   0  0  0  0  0  0  0  0  0  0  0  0
    2.7319    3.6911    0.0000 H   0  0  0  0  0  0  0  0  0  0  0  0
    0.8787    3.6817    0.0000 H   0  0  0  0  0  0  0  0  0  0  0  0
    1.8026    4.2214    0.0000 H   0  0  0  0  0  0  0  0  0  0  0  0
    4.4140   -3.1086    0.0000 H   0  0  0  0  0  0  0  0  0  0  0  0
    6.2672   -3.1270    0.0000 H   0  0  0  0  0  0  0  0  0  0  0  0
    5.3353   -3.6527    0.0000 H   0  0  0  0  0  0  0  0  0  0  0  0
    6.9137   -2.0105    0.0000 H   0  0  0  0  0  0  0  0  0  0  0  0
    5.9809   -0.4090    0.0000 H   0  0  0  0  0  0  0  0  0  0  0  0
    6.9096   -0.9405    0.0000 H   0  0  0  0  0  0  0  0  0  0  0  0
    4.9961    0.9047    0.0000 H   0  0  0  0  0  0  0  0  0  0  0  0
    3.1429    0.8861    0.0000 H   0  0  0  0  0  0  0  0  0  0  0  0
    4.0641    1.4303    0.0000 H   0  0  0  0  0  0  0  0  0  0  0  0
   -2.3425   -3.6832    0.0000 H   0  0  0  0  0  0  0  0  0  0  0  0
   -0.4892   -3.6896    0.0000 H   0  0  0  0  0  0  0  0  0  0  0  0
   -1.4177   -4.2214    0.0000 H   0  0  0  0  0  0  0  0  0  0  0  0
    3.0353   -1.0144    0.0000 H   0  0  0  0  0  0  0  0  0  0  0  0
    4.1436    0.4710    0.0000 H   0  0  0  0  0  0  0  0  0  0  0  0
    4.0183   -0.5917    0.0000 H   0  0  0  0  0  0  0  0  0  0  0  0
   -3.5006    3.2595    0.0000 H   0  0  0  0  0  0  0  0  0  0  0  0
   -4.8110    1.9491    0.0000 H   0  0  0  0  0  0  0  0  0  0  0  0
   -4.5341    2.9826    0.0000 H   0  0  0  0  0  0  0  0  0  0  0  0
    3.7738    2.6973    0.0000 H   0  0  0  0  0  0  0  0  0  0  0  0
    3.8107    1.1230    0.0000 H   0  0  0  0  0  0  0  0  0  0  0  0
    4.3421    2.0514    0.0000 H   0  0  0  0  0  0  0  0  0  0  0  0
    3.1249    3.5656    0.0000 H   0  0  0  0  0  0  0  0  0  0  0  0
    4.9051    3.6089    0.0000 H   0  0  0  0  0  0  0  0  0  0  0  0
    5.4386    2.6804    0.0000 H   0  0  0  0  0  0  0  0  0  0  0  0
    4.1962    1.1218    0.0000 H   0  0  0  0  0  0  0  0  0  0  0  0
    5.2669    1.1205    0.0000 H   0  0  0  0  0  0  0  0  0  0  0  0
    5.9998    1.1210    0.0000 H   0  0  0  0  0  0  0  0  0  0  0  0
    5.9998    2.9742    0.0000 H   0  0  0  0  0  0  0  0  0  0  0  0
    6.5348    2.0476    0.0000 H   0  0  0  0  0  0  0  0  0  0  0  0
  1 51  1  1  0  0  0
  2 23  1  0  0  0  0
  2  9  1  0  0  0  0
  2 59  1  6  0  0  0
  3  5  1  0  0  0  0
  4 32  1  6  0  0  0
  4 37  1  0  0  0  0
  4 21  1  0  0  0  0
  5 38  1  0  0  0  0
  5  2  1  0  0  0  0
  5 60  1  6  0  0  0
  6 33  1  0  0  0  0
  6  1  1  0  0  0  0
  6 61  1  6  0  0  0
  7 12  1  0  0  0  0
  7 62  1  6  0  0  0
  8 17  1  0  0  0  0
  8 34  1  0  0  0  0
  8  4  1  0  0  0  0
  8 63  1  6  0  0  0
  9  7  1  0  0  0  0
  9 39  1  0  0  0  0
  9 64  1  1  0  0  0
 10 26  1  0  0  0  0
 10 65  1  0  0  0  0
 11  3  1  0  0  0  0
 12  1  1  0  0  0  0
 13 18  1  0  0  0  0
 13 36  1  6  0  0  0
 13 40  1  0  0  0  0
 14  6  1  0  0  0  0
 14 27  1  0  0  0  0
 14 66  1  1  0  0  0
 15  7  1  0  0  0  0
 15 35  1  6  0  0  0
 15 41  1  0  0  0  0
 16 23  1  0  0  0  0
 16 52  1  1  0  0  0
 17 10  1  0  0  0  0
 17 42  1  0  0  0  0
 17 67  1  1  0  0  0
 18 16  1  0  0  0  0
 18 68  1  0  0  0  0
 18 69  1  0  0  0  0
 19  1  1  0  0  0  0
 20 16  1  0  0  0  0
 21 11  1  0  0  0  0
 21 43  1  0  0  0  0
 21 70  1  6  0  0  0
 22 24  1  0  0  0  0
 22 13  1  0  0  0  0
 22 53  1  6  0  0  0
 22 54  1  0  0  0  0
 24 20  1  0  0  0  0
 24 44  1  0  0  0  0
 24 71  1  6  0  0  0
 25 14  1  0  0  0  0
 25 72  1  0  0  0  0
 25 73  1  0  0  0  0
 26 31  1  0  0  0  0
 26 74  1  0  0  0  0
 26 75  1  0  0  0  0
 28 15  1  0  0  0  0
 28 76  1  0  0  0  0
 28 77  1  0  0  0  0
 29  3  2  0  0  0  0
 30 19  1  0  0  0  0
 30 47  1  0  0  0  0
 30 25  1  0  0  0  0
 30 78  1  1  0  0  0
 31 28  1  0  0  0  0
 31 48  1  0  0  0  0
 31 79  1  6  0  0  0
 32 80  1  0  0  0  0
 33 81  1  0  0  0  0
 34 82  1  0  0  0  0
 35 83  1  0  0  0  0
 37 84  1  0  0  0  0
 37 85  1  0  0  0  0
 37 86  1  0  0  0  0
 38 87  1  0  0  0  0
 38 88  1  0  0  0  0
 38 89  1  0  0  0  0
 39 90  1  0  0  0  0
 39 91  1  0  0  0  0
 39 92  1  0  0  0  0
 40 93  1  0  0  0  0
 40 94  1  0  0  0  0
 40 95  1  0  0  0  0
 41 96  1  0  0  0  0
 41 97  1  0  0  0  0
 41 98  1  0  0  0  0
 42 99  1  0  0  0  0
 42100  1  0  0  0  0
 42101  1  0  0  0  0
 43102  1  0  0  0  0
 43103  1  0  0  0  0
 44104  1  0  0  0  0
 44105  1  0  0  0  0
 44106  1  0  0  0  0
 45 27  1  0  0  0  0
 45107  1  0  0  0  0
 45108  1  0  0  0  0
 45109  1  0  0  0  0
 46 27  1  0  0  0  0
 46110  1  0  0  0  0
 46111  1  0  0  0  0
 46112  1  0  0  0  0
 47113  1  0  0  0  0
 47114  1  0  0  0  0
 47115  1  0  0  0  0
 48116  1  0  0  0  0
 48117  1  0  0  0  0
 48118  1  0  0  0  0
 49 36  1  0  0  0  0
 49119  1  0  0  0  0
 49120  1  0  0  0  0
 49121  1  0  0  0  0
 50 43  1  0  0  0  0
 50122  1  0  0  0  0
 50123  1  0  0  0  0
 50124  1  0  0  0  0
 53125  1  0  0  0  0
 54 55  1  0  0  0  0
 54126  1  0  0  0  0
 54127  1  0  0  0  0
 55 56  1  0  0  0  0
 55128  1  0  0  0  0
 56 57  1  0  0  0  0
 56129  1  0  0  0  0
 56130  1  0  0  0  0
 57 58  1  0  0  0  0
 57131  1  0  0  0  0
 57132  1  0  0  0  0
 58133  1  0  0  0  0
 58134  1  0  0  0  0
 58135  1  0  0  0  0
M  END
>  <DRUGBANK_ID>
DB11474

>  <COMMON_NAME>
Tulathromycin A

>  <CAS_NUMBER>
217500-96-4

>  <UNII>
897A3KN7AP

>  <SYNONYMS>
Tulathromycin; Tulathromycin A

$$$$
