FMD
 OpenBabel10282417072D

 48 50  0  0  0  0  0  0  0  0999 V2000
    2.4382    1.3857    0.0000 F   0  0  0  0  0  0  0  0  0  0  0  0
    1.7238    1.7982    0.0000 C   0  0  0  0  0  0  0  0  0  0  0  0
    1.0093    1.3857    0.0000 C   0  0  0  0  0  0  0  0  0  0  0  0
    1.0093    0.5607    0.0000 C   0  0  0  0  0  0  0  0  0  0  0  0
    1.0093   -0.2643    0.0000 C   0  0  0  0  0  0  0  0  0  0  0  0
    1.0093   -1.0893    0.0000 C   0  0  1  0  0  0  0  0  0  0  0  0
    0.2948   -1.5018    0.0000 O   0  0  0  0  0  0  0  0  0  0  0  0
    1.7238   -1.5018    0.0000 C   0  0  1  0  0  0  0  0  0  0  0  0
    2.4382   -1.0893    0.0000 N   0  0  0  0  0  0  0  0  0  0  0  0
    1.7238   -2.3268    0.0000 C   0  0  2  0  0  0  0  0  0  0  0  0
    2.4382   -2.7393    0.0000 O   0  0  0  0  0  0  0  0  0  0  0  0
    1.0093   -2.7393    0.0000 C   0  0  0  0  0  0  0  0  0  0  0  0
    0.2948    1.7982    0.0000 C   0  0  0  0  0  0  0  0  0  0  0  0
    0.2948    2.6232    0.0000 C   0  0  0  0  0  0  0  0  0  0  0  0
   -0.4898    2.8781    0.0000 N   0  0  0  0  0  0  0  0  0  0  0  0
   -0.9747    2.2107    0.0000 C   0  0  0  0  0  0  0  0  0  0  0  0
   -1.7997    2.2107    0.0000 O   0  0  0  0  0  0  0  0  0  0  0  0
    1.0093    3.0357    0.0000 C   0  0  0  0  0  0  0  0  0  0  0  0
    1.7238    2.6232    0.0000 C   0  0  0  0  0  0  0  0  0  0  0  0
   -0.4898    1.5432    0.0000 C   0  0  0  0  0  0  0  0  0  0  0  0
   -0.7447    0.7586    0.0000 C   0  0  0  0  0  0  0  0  0  0  0  0
   -1.5517    0.5871    0.0000 C   0  0  0  0  0  0  0  0  0  0  0  0
   -1.8873   -0.1666    0.0000 C   0  0  0  0  0  0  0  0  0  0  0  0
   -1.4748   -0.8811    0.0000 O   0  0  0  0  0  0  0  0  0  0  0  0
   -0.6498   -0.8811    0.0000 C   0  0  0  0  0  0  0  0  0  0  0  0
   -2.7077   -0.0804    0.0000 C   0  0  0  0  0  0  0  0  0  0  0  0
   -2.8793    0.7266    0.0000 C   0  0  0  0  0  0  0  0  0  0  0  0
   -2.1648    1.1391    0.0000 N   0  0  0  0  0  0  0  0  0  0  0  0
    0.5036   -0.7974    0.0000 H   0  0  0  0  0  0  0  0  0  0  0  0
    1.7238   -0.9179    0.0000 H   0  0  0  0  0  0  0  0  0  0  0  0
    2.2295   -2.0349    0.0000 H   0  0  0  0  0  0  0  0  0  0  0  0
   -0.5452   -1.0168    0.0000 H   0  0  0  0  0  0  0  0  0  0  0  0
    3.3216   -1.5993    0.0000 H   0  0  0  0  0  0  0  0  0  0  0  0
    2.4382   -0.0693    0.0000 H   0  0  0  0  0  0  0  0  0  0  0  0
    2.4382   -3.7093    0.0000 H   0  0  0  0  0  0  0  0  0  0  0  0
    0.0827   -2.2043    0.0000 H   0  0  0  0  0  0  0  0  0  0  0  0
    1.0093   -3.8093    0.0000 H   0  0  0  0  0  0  0  0  0  0  0  0
    0.0826   -3.2743    0.0000 H   0  0  0  0  0  0  0  0  0  0  0  0
   -0.7940    3.8144    0.0000 H   0  0  0  0  0  0  0  0  0  0  0  0
    1.0093    4.0677    0.0000 H   0  0  0  0  0  0  0  0  0  0  0  0
    2.6175    3.1392    0.0000 H   0  0  0  0  0  0  0  0  0  0  0  0
   -0.0542   -0.0083    0.0000 H   0  0  0  0  0  0  0  0  0  0  0  0
   -0.1148   -1.8077    0.0000 H   0  0  0  0  0  0  0  0  0  0  0  0
   -0.1148    0.0455    0.0000 H   0  0  0  0  0  0  0  0  0  0  0  0
    0.4202   -0.8811    0.0000 H   0  0  0  0  0  0  0  0  0  0  0  0
   -3.3982   -0.8474    0.0000 H   0  0  0  0  0  0  0  0  0  0  0  0
   -3.8221    1.1463    0.0000 H   0  0  0  0  0  0  0  0  0  0  0  0
   -2.0619    2.1182    0.0000 H   0  0  0  0  0  0  0  0  0  0  0  0
  1  2  1  0  0  0  0
  2  3  2  0  0  0  0
  2 19  1  0  0  0  0
  3  4  1  0  0  0  0
  3 13  1  0  0  0  0
  4  5  3  0  0  0  0
  5  6  1  0  0  0  0
  6  7  1  0  0  0  0
  6  8  1  0  0  0  0
  6 29  1  1  0  0  0
  7 32  1  0  0  0  0
  8  9  1  0  0  0  0
  8 10  1  0  0  0  0
  8 30  1  6  0  0  0
  9 33  1  0  0  0  0
  9 34  1  0  0  0  0
 10 11  1  0  0  0  0
 10 12  1  0  0  0  0
 10 31  1  1  0  0  0
 11 35  1  0  0  0  0
 12 36  1  0  0  0  0
 12 37  1  0  0  0  0
 12 38  1  0  0  0  0
 13 14  2  0  0  0  0
 13 20  1  0  0  0  0
 14 15  1  0  0  0  0
 14 18  1  0  0  0  0
 15 16  1  0  0  0  0
 15 39  1  0  0  0  0
 16 17  2  0  0  0  0
 16 20  1  0  0  0  0
 18 19  2  0  0  0  0
 18 40  1  0  0  0  0
 19 41  1  0  0  0  0
 20 21  2  0  0  0  0
 21 22  1  0  0  0  0
 21 42  1  0  0  0  0
 22 23  2  0  0  0  0
 22 28  1  0  0  0  0
 23 24  1  0  0  0  0
 23 26  1  0  0  0  0
 24 25  1  0  0  0  0
 25 43  1  0  0  0  0
 25 44  1  0  0  0  0
 25 45  1  0  0  0  0
 26 27  2  0  0  0  0
 26 46  1  0  0  0  0
 27 28  1  0  0  0  0
 27 47  1  0  0  0  0
 28 48  1  0  0  0  0
M  END
>  <DRUGBANK_ID>
DB03737

>  <SECONDARY_ACCESSION_NUMBERS>
EXPT01454

>  <COMMON_NAME>
4-((3r,4s,5r)-4-Amino-3,5-Dihydroxy-Hex-1-Ynyl)-5-Fluoro-3-[1-(3-Methoxy-1h-Pyrrol-2-Yl)-Meth-(Z)-Ylidene]-1,3-Dihydro-Indol-2-One

$$$$
