
 OpenBabel10282417072D

 59 63  0  0  1  0  0  0  0  0999 V2000
    0.0565   -2.7346    0.0000 C   0  0  0  0  0  0  0  0  0  0  0  0
    0.4690   -2.0202    0.0000 O   0  0  0  0  0  0  0  0  0  0  0  0
    1.2940   -2.0202    0.0000 C   0  0  1  0  0  0  0  0  0  0  0  0
    1.7065   -1.3057    0.0000 C   0  0  0  0  0  0  0  0  0  0  0  0
    2.5315   -1.3057    0.0000 C   0  0  0  0  0  0  0  0  0  0  0  0
    2.9440   -2.0202    0.0000 C   0  0  2  0  0  0  0  0  0  0  0  0
    3.4289   -1.3527    0.0000 C   0  0  0  0  0  0  0  0  0  0  0  0
    4.2135   -1.6077    0.0000 C   0  0  0  0  0  0  0  0  0  0  0  0
    4.9280   -1.1952    0.0000 C   0  0  0  0  0  0  0  0  0  0  0  0
    5.6425   -1.6077    0.0000 C   0  0  0  0  0  0  0  0  0  0  0  0
    5.6425   -2.4327    0.0000 C   0  0  0  0  0  0  0  0  0  0  0  0
    4.9280   -2.8452    0.0000 C   0  0  0  0  0  0  0  0  0  0  0  0
    4.2135   -2.4327    0.0000 C   0  0  0  0  0  0  0  0  0  0  0  0
    3.4289   -2.6876    0.0000 C   0  0  1  0  0  0  0  0  0  0  0  0
    3.9138   -3.3551    0.0000 N   0  0  0  0  0  0  0  0  0  0  0  0
    3.4289   -4.0225    0.0000 C   0  0  0  0  0  0  0  0  0  0  0  0
    3.6838   -4.8071    0.0000 C   0  0  0  0  0  0  0  0  0  0  0  0
    2.6443   -3.7676    0.0000 C   0  0  0  0  0  0  0  0  0  0  0  0
    1.9768   -4.2525    0.0000 N   0  0  0  0  0  0  0  0  0  0  0  0
    2.6745   -3.0553    0.0000 N   0  0  0  0  0  0  0  0  0  0  0  0
    6.3569   -2.8452    0.0000 C   0  0  0  0  0  0  0  0  0  0  0  0
    7.0714   -2.4327    0.0000 C   0  0  0  0  0  0  0  0  0  0  0  0
    7.7859   -2.8452    0.0000 C   0  0  0  0  0  0  0  0  0  0  0  0
    7.7859   -3.6702    0.0000 C   0  0  0  0  0  0  0  0  0  0  0  0
    7.0714   -4.0827    0.0000 N   0  0  0  0  0  0  0  0  0  0  0  0
    6.3569   -3.6702    0.0000 C   0  0  0  0  0  0  0  0  0  0  0  0
    8.5003   -2.4327    0.0000 C   0  0  0  0  0  0  0  0  0  0  0  0
    9.2148   -2.0202    0.0000 C   0  0  0  0  0  0  0  0  0  0  0  0
    9.9293   -1.6077    0.0000 C   0  0  0  0  0  0  0  0  0  0  0  0
    2.5315   -2.7346    0.0000 C   0  0  0  0  0  0  0  0  0  0  0  0
    1.7065   -2.7346    0.0000 C   0  0  0  0  0  0  0  0  0  0  0  0
   -1.0135   -2.7346    0.0000 H   0  0  0  0  0  0  0  0  0  0  0  0
    0.5915   -3.6613    0.0000 H   0  0  0  0  0  0  0  0  0  0  0  0
   -0.4785   -3.6612    0.0000 H   0  0  0  0  0  0  0  0  0  0  0  0
    0.7590   -1.0936    0.0000 H   0  0  0  0  0  0  0  0  0  0  0  0
    1.1715   -0.3791    0.0000 H   0  0  0  0  0  0  0  0  0  0  0  0
    2.2415   -0.3791    0.0000 H   0  0  0  0  0  0  0  0  0  0  0  0
    3.0665   -0.3791    0.0000 H   0  0  0  0  0  0  0  0  0  0  0  0
    3.6015   -1.3057    0.0000 H   0  0  0  0  0  0  0  0  0  0  0  0
    3.0983   -0.3351    0.0000 H   0  0  0  0  0  0  0  0  0  0  0  0
    4.1855   -0.5961    0.0000 H   0  0  0  0  0  0  0  0  0  0  0  0
    4.9280   -0.1632    0.0000 H   0  0  0  0  0  0  0  0  0  0  0  0
    6.5362   -1.0917    0.0000 H   0  0  0  0  0  0  0  0  0  0  0  0
    4.9280   -3.8772    0.0000 H   0  0  0  0  0  0  0  0  0  0  0  0
    2.9678   -5.6022    0.0000 H   0  0  0  0  0  0  0  0  0  0  0  0
    4.7304   -5.0296    0.0000 H   0  0  0  0  0  0  0  0  0  0  0  0
    4.0144   -5.8247    0.0000 H   0  0  0  0  0  0  0  0  0  0  0  0
    1.0774   -3.8520    0.0000 H   0  0  0  0  0  0  0  0  0  0  0  0
    2.0796   -5.2316    0.0000 H   0  0  0  0  0  0  0  0  0  0  0  0
    7.0714   -1.4007    0.0000 H   0  0  0  0  0  0  0  0  0  0  0  0
    8.6796   -4.1862    0.0000 H   0  0  0  0  0  0  0  0  0  0  0  0
    5.4632   -4.1862    0.0000 H   0  0  0  0  0  0  0  0  0  0  0  0
   10.8559   -2.1427    0.0000 H   0  0  0  0  0  0  0  0  0  0  0  0
    9.9293   -0.5377    0.0000 H   0  0  0  0  0  0  0  0  0  0  0  0
   10.8560   -1.0727    0.0000 H   0  0  0  0  0  0  0  0  0  0  0  0
    3.0665   -3.6613    0.0000 H   0  0  0  0  0  0  0  0  0  0  0  0
    1.9965   -3.6612    0.0000 H   0  0  0  0  0  0  0  0  0  0  0  0
    1.1715   -3.6613    0.0000 H   0  0  0  0  0  0  0  0  0  0  0  0
    0.6365   -2.7346    0.0000 H   0  0  0  0  0  0  0  0  0  0  0  0
  1  2  1  0  0  0  0
  1 32  1  0  0  0  0
  1 33  1  0  0  0  0
  1 34  1  0  0  0  0
  3  2  1  0  0  0  0
  3  4  1  0  0  0  0
  3 31  1  0  0  0  0
  3 35  1  6  0  0  0
  4  5  1  0  0  0  0
  4 36  1  0  0  0  0
  4 37  1  0  0  0  0
  5 38  1  0  0  0  0
  5 39  1  0  0  0  0
  6  5  1  6  0  0  0
  6  7  1  0  0  0  0
  6 14  1  0  0  0  0
  6 30  1  0  0  0  0
  7  8  1  0  0  0  0
  7 40  1  0  0  0  0
  7 41  1  0  0  0  0
  8  9  2  0  0  0  0
  8 13  1  0  0  0  0
  9 10  1  0  0  0  0
  9 42  1  0  0  0  0
 10 11  2  0  0  0  0
 10 43  1  0  0  0  0
 11 12  1  0  0  0  0
 11 21  1  0  0  0  0
 12 13  2  0  0  0  0
 12 44  1  0  0  0  0
 14 13  1  6  0  0  0
 14 15  1  0  0  0  0
 14 20  1  0  0  0  0
 15 16  2  0  0  0  0
 16 17  1  0  0  0  0
 16 18  1  0  0  0  0
 17 45  1  0  0  0  0
 17 46  1  0  0  0  0
 17 47  1  0  0  0  0
 18 19  1  0  0  0  0
 18 20  2  0  0  0  0
 19 48  1  0  0  0  0
 19 49  1  0  0  0  0
 21 22  2  0  0  0  0
 21 26  1  0  0  0  0
 22 23  1  0  0  0  0
 22 50  1  0  0  0  0
 23 24  2  0  0  0  0
 23 27  1  0  0  0  0
 24 25  1  0  0  0  0
 24 51  1  0  0  0  0
 25 26  2  0  0  0  0
 26 52  1  0  0  0  0
 27 28  3  0  0  0  0
 28 29  1  0  0  0  0
 29 53  1  0  0  0  0
 29 54  1  0  0  0  0
 29 55  1  0  0  0  0
 30 31  1  0  0  0  0
 30 56  1  0  0  0  0
 30 57  1  0  0  0  0
 31 58  1  0  0  0  0
 31 59  1  0  0  0  0
M  END
>  <DRUGBANK_ID>
DB14814

>  <COMMON_NAME>
Lanabecestat

>  <CAS_NUMBER>
1383982-64-6

>  <UNII>
X8SPJ492VF

>  <SYNONYMS>
Lanabecestat

$$$$
