TSC
 OpenBabel10282417072D

 25 26  0  0  0  0  0  0  0  0999 V2000
   -1.4335    1.7954    0.0000 O   0  0  0  0  0  0  0  0  0  0  0  0
   -1.1786    1.0108    0.0000 C   0  0  2  0  0  0  0  0  0  0  0  0
   -1.7306    0.3977    0.0000 N   0  0  0  0  0  0  0  0  0  0  0  0
   -0.3716    0.8392    0.0000 C   0  0  0  0  0  0  0  0  0  0  0  0
   -0.1167    0.0546    0.0000 C   0  0  0  0  0  0  0  0  0  0  0  0
   -0.6016   -0.6128    0.0000 C   0  0  0  0  0  0  0  0  0  0  0  0
   -0.1167   -1.2803    0.0000 N   0  0  0  0  0  0  0  0  0  0  0  0
    0.6679   -1.0253    0.0000 C   0  0  0  0  0  0  0  0  0  0  0  0
    0.6679   -0.2003    0.0000 C   0  0  0  0  0  0  0  0  0  0  0  0
    1.3824   -1.4378    0.0000 C   0  0  0  0  0  0  0  0  0  0  0  0
    2.0969   -1.0253    0.0000 C   0  0  0  0  0  0  0  0  0  0  0  0
    2.0969   -0.2003    0.0000 C   0  0  0  0  0  0  0  0  0  0  0  0
    1.3824    0.2122    0.0000 C   0  0  0  0  0  0  0  0  0  0  0  0
   -1.7498    1.1322    0.0000 H   0  0  0  0  0  0  0  0  0  0  0  0
   -0.7844    2.5162    0.0000 H   0  0  0  0  0  0  0  0  0  0  0  0
   -2.7283    0.6097    0.0000 H   0  0  0  0  0  0  0  0  0  0  0  0
   -1.4154   -0.5724    0.0000 H   0  0  0  0  0  0  0  0  0  0  0  0
    0.3444    1.6343    0.0000 H   0  0  0  0  0  0  0  0  0  0  0  0
    0.6750    0.6167    0.0000 H   0  0  0  0  0  0  0  0  0  0  0  0
   -1.6336   -0.6128    0.0000 H   0  0  0  0  0  0  0  0  0  0  0  0
   -0.4209   -2.2166    0.0000 H   0  0  0  0  0  0  0  0  0  0  0  0
    1.3824   -2.4698    0.0000 H   0  0  0  0  0  0  0  0  0  0  0  0
    2.9906   -1.5413    0.0000 H   0  0  0  0  0  0  0  0  0  0  0  0
    2.9906    0.3157    0.0000 H   0  0  0  0  0  0  0  0  0  0  0  0
    1.3824    1.2442    0.0000 H   0  0  0  0  0  0  0  0  0  0  0  0
  1  2  1  0  0  0  0
  1 15  1  0  0  0  0
  2  3  1  0  0  0  0
  2  4  1  0  0  0  0
  2 14  1  6  0  0  0
  3 16  1  0  0  0  0
  3 17  1  0  0  0  0
  4  5  1  0  0  0  0
  4 18  1  0  0  0  0
  4 19  1  0  0  0  0
  5  6  2  0  0  0  0
  5  9  1  0  0  0  0
  6  7  1  0  0  0  0
  6 20  1  0  0  0  0
  7  8  1  0  0  0  0
  7 21  1  0  0  0  0
  8  9  1  0  0  0  0
  8 10  2  0  0  0  0
  9 13  2  0  0  0  0
 10 11  1  0  0  0  0
 10 22  1  0  0  0  0
 11 12  2  0  0  0  0
 11 23  1  0  0  0  0
 12 13  1  0  0  0  0
 12 24  1  0  0  0  0
 13 25  1  0  0  0  0
M  END
>  <DRUGBANK_ID>
DB08649

>  <COMMON_NAME>
(1S)-1-AMINO-2-(1H-INDOL-3-YL)ETHANOL

$$$$
