
 OpenBabel10282417072D

 86 87  0  0  0  0  0  0  0  0999 V2000
   -2.8579   -4.9500    0.0000 C   0  0  0  0  0  0  0  0  0  0  0  0
   -0.7145   -0.4125    0.0000 C   0  0  0  0  0  0  0  0  0  0  0  0
   -2.8579   -2.4750    0.0000 C   0  0  0  0  0  0  0  0  0  0  0  0
   -0.7145   -2.8875    0.0000 C   0  0  0  0  0  0  0  0  0  0  0  0
   -5.7158   -6.6000    0.0000 C   0  0  0  0  0  0  0  0  0  0  0  0
    2.1434    1.2375    0.0000 C   0  0  0  0  0  0  0  0  0  0  0  0
   -3.5724   -2.8875    0.0000 C   0  0  0  0  0  0  0  0  0  0  0  0
    0.0000   -2.4750    0.0000 C   0  0  0  0  0  0  0  0  0  0  0  0
   -5.0013   -6.1875    0.0000 C   0  0  0  0  0  0  0  0  0  0  0  0
    1.4289    0.8250    0.0000 C   0  0  0  0  0  0  0  0  0  0  0  0
   -2.1434   -3.7125    0.0000 C   0  0  0  0  0  0  0  0  0  0  0  0
   -1.4289   -1.6500    0.0000 C   0  0  0  0  0  0  0  0  0  0  0  0
   -7.8592   -6.1875    0.0000 C   0  0  0  0  0  0  0  0  0  0  0  0
    4.2868    0.8250    0.0000 C   0  0  0  0  0  0  0  0  0  0  0  0
   -2.8579   -4.1250    0.0000 C   0  0  0  0  0  0  0  0  0  0  0  0
   -0.7145   -1.2375    0.0000 C   0  0  0  0  0  0  0  0  0  0  0  0
   -2.1434   -2.8875    0.0000 C   0  0  0  0  0  0  0  0  0  0  0  0
   -1.4289   -2.4750    0.0000 C   0  0  0  0  0  0  0  0  0  0  0  0
   -6.4302   -6.1875    0.0000 C   0  0  0  0  0  0  0  0  0  0  0  0
    2.8579    0.8250    0.0000 C   0  0  0  0  0  0  0  0  0  0  0  0
   -3.5724   -3.7125    0.0000 C   0  0  0  0  0  0  0  0  0  0  0  0
    0.0000   -1.6500    0.0000 C   0  0  0  0  0  0  0  0  0  0  0  0
   -5.0013   -5.3625    0.0000 C   0  0  0  0  0  0  0  0  0  0  0  0
    1.4289    0.0000    0.0000 C   0  0  0  0  0  0  0  0  0  0  0  0
   -7.1447   -6.6000    0.0000 C   0  0  0  0  0  0  0  0  0  0  0  0
    3.5724    1.2375    0.0000 C   0  0  0  0  0  0  0  0  0  0  0  0
   -7.8592   -5.3625    0.0000 C   0  0  0  0  0  0  0  0  0  0  0  0
    4.2868    0.0000    0.0000 C   0  0  0  0  0  0  0  0  0  0  0  0
   -6.4302   -5.3625    0.0000 C   0  0  0  0  0  0  0  0  0  0  0  0
    2.8579    0.0000    0.0000 C   0  0  0  0  0  0  0  0  0  0  0  0
   -7.1447   -4.9500    0.0000 C   0  0  0  0  0  0  0  0  0  0  0  0
    3.5724   -0.4125    0.0000 C   0  0  0  0  0  0  0  0  0  0  0  0
   -5.7158   -4.9500    0.0000 C   0  0  0  0  0  0  0  0  0  0  0  0
    2.1434   -0.4125    0.0000 C   0  0  0  0  0  0  0  0  0  0  0  0
   -7.1447   -4.1250    0.0000 N   0  0  0  0  0  0  0  0  0  0  0  0
    3.5724   -1.2375    0.0000 N   0  0  0  0  0  0  0  0  0  0  0  0
   -4.2868   -4.1250    0.0000 N   0  0  0  0  0  0  0  0  0  0  0  0
    0.7145   -1.2375    0.0000 N   0  0  0  0  0  0  0  0  0  0  0  0
   -4.2868   -4.9500    0.0000 N   0  0  0  0  0  0  0  0  0  0  0  0
    0.7145   -0.4125    0.0000 N   0  0  0  0  0  0  0  0  0  0  0  0
   -5.7158   -4.1250    0.0000 O   0  5  0  0  0  0  0  0  0  0  0  0
    2.1434   -1.2375    0.0000 O   0  5  0  0  0  0  0  0  0  0  0  0
   -7.1447   -8.2500    0.0000 O   0  5  0  0  0  0  0  0  0  0  0  0
   -6.3197   -7.4250    0.0000 O   0  0  0  0  0  0  0  0  0  0  0  0
   -7.9697   -7.4250    0.0000 O   0  0  0  0  0  0  0  0  0  0  0  0
    3.5724    2.8875    0.0000 O   0  5  0  0  0  0  0  0  0  0  0  0
    4.3974    2.0625    0.0000 O   0  0  0  0  0  0  0  0  0  0  0  0
    2.7474    2.0625    0.0000 O   0  0  0  0  0  0  0  0  0  0  0  0
   -9.2881   -4.5375    0.0000 O   0  0  0  0  0  0  0  0  0  0  0  0
   -8.1612   -4.2355    0.0000 O   0  0  0  0  0  0  0  0  0  0  0  0
   -8.9862   -5.6645    0.0000 O   0  0  0  0  0  0  0  0  0  0  0  0
    5.7158   -0.8250    0.0000 O   0  0  0  0  0  0  0  0  0  0  0  0
    4.5888   -1.1270    0.0000 O   0  0  0  0  0  0  0  0  0  0  0  0
    5.4138    0.3020    0.0000 O   0  0  0  0  0  0  0  0  0  0  0  0
   -7.1447   -7.4250    0.0000 S   0  0  0  0  0  0  0  0  0  0  0  0
    3.5724    2.0625    0.0000 S   0  0  0  0  0  0  0  0  0  0  0  0
   -8.5737   -4.9500    0.0000 S   0  0  0  0  0  0  0  0  0  0  0  0
    5.0013   -0.4125    0.0000 S   0  0  0  0  0  0  0  0  0  0  0  0
   -5.7158   -3.3000    0.0000 Na  0  3  0  0  0  0  0  0  0  0  0  0
    2.1434   -2.0625    0.0000 Na  0  3  0  0  0  0  0  0  0  0  0  0
   -7.1447   -9.0750    0.0000 Na  0  3  0  0  0  0  0  0  0  0  0  0
    3.5724    3.7125    0.0000 Na  0  3  0  0  0  0  0  0  0  0  0  0
   -3.7845   -5.4850    0.0000 H   0  0  0  0  0  0  0  0  0  0  0  0
   -1.9313   -5.4850    0.0000 H   0  0  0  0  0  0  0  0  0  0  0  0
   -2.8579   -6.0200    0.0000 H   0  0  0  0  0  0  0  0  0  0  0  0
    0.2121    0.1225    0.0000 H   0  0  0  0  0  0  0  0  0  0  0  0
   -1.6411    0.1225    0.0000 H   0  0  0  0  0  0  0  0  0  0  0  0
   -0.7145    0.6575    0.0000 H   0  0  0  0  0  0  0  0  0  0  0  0
   -2.8579   -1.4430    0.0000 H   0  0  0  0  0  0  0  0  0  0  0  0
   -0.7145   -3.9195    0.0000 H   0  0  0  0  0  0  0  0  0  0  0  0
   -5.7158   -7.6320    0.0000 H   0  0  0  0  0  0  0  0  0  0  0  0
    2.1434    2.2695    0.0000 H   0  0  0  0  0  0  0  0  0  0  0  0
   -4.4661   -2.3715    0.0000 H   0  0  0  0  0  0  0  0  0  0  0  0
    0.8937   -2.9910    0.0000 H   0  0  0  0  0  0  0  0  0  0  0  0
   -4.1076   -6.7035    0.0000 H   0  0  0  0  0  0  0  0  0  0  0  0
    0.5352    1.3410    0.0000 H   0  0  0  0  0  0  0  0  0  0  0  0
   -1.2497   -4.2285    0.0000 H   0  0  0  0  0  0  0  0  0  0  0  0
   -2.3226   -1.1340    0.0000 H   0  0  0  0  0  0  0  0  0  0  0  0
   -8.7529   -6.7035    0.0000 H   0  0  0  0  0  0  0  0  0  0  0  0
    5.1805    1.3410    0.0000 H   0  0  0  0  0  0  0  0  0  0  0  0
   -6.2921   -3.6327    0.0000 H   0  0  0  0  0  0  0  0  0  0  0  0
   -7.9973   -3.6328    0.0000 H   0  0  0  0  0  0  0  0  0  0  0  0
    2.7198   -1.7298    0.0000 H   0  0  0  0  0  0  0  0  0  0  0  0
    4.4250   -1.7297    0.0000 H   0  0  0  0  0  0  0  0  0  0  0  0
   -9.2881   -3.5675    0.0000 H   0  0  0  0  0  0  0  0  0  0  0  0
    5.7158   -1.7950    0.0000 H   0  0  0  0  0  0  0  0  0  0  0  0
  1 63  1  0  0  0  0
  1 64  1  0  0  0  0
  1 65  1  0  0  0  0
  2 66  1  0  0  0  0
  2 67  1  0  0  0  0
  2 68  1  0  0  0  0
  3 69  1  0  0  0  0
  4 70  1  0  0  0  0
  5 71  1  0  0  0  0
  6 72  1  0  0  0  0
  7  3  1  0  0  0  0
  7 73  1  0  0  0  0
  8  4  1  0  0  0  0
  8 74  1  0  0  0  0
  9  5  2  0  0  0  0
  9 75  1  0  0  0  0
 10  6  2  0  0  0  0
 10 76  1  0  0  0  0
 11 77  1  0  0  0  0
 12 78  1  0  0  0  0
 13 79  1  0  0  0  0
 14 80  1  0  0  0  0
 15  1  1  0  0  0  0
 15 11  2  0  0  0  0
 16  2  1  0  0  0  0
 16 12  2  0  0  0  0
 17  3  2  0  0  0  0
 17 11  1  0  0  0  0
 18  4  2  0  0  0  0
 18 12  1  0  0  0  0
 18 17  1  0  0  0  0
 19  5  1  0  0  0  0
 20  6  1  0  0  0  0
 21  7  2  0  0  0  0
 21 15  1  0  0  0  0
 22  8  2  0  0  0  0
 22 16  1  0  0  0  0
 23  9  1  0  0  0  0
 24 10  1  0  0  0  0
 25 13  2  0  0  0  0
 25 19  1  0  0  0  0
 26 14  2  0  0  0  0
 26 20  1  0  0  0  0
 27 13  1  0  0  0  0
 28 14  1  0  0  0  0
 29 19  2  0  0  0  0
 30 20  2  0  0  0  0
 31 27  2  0  0  0  0
 31 29  1  0  0  0  0
 32 28  2  0  0  0  0
 32 30  1  0  0  0  0
 33 23  2  0  0  0  0
 33 29  1  0  0  0  0
 34 24  2  0  0  0  0
 34 30  1  0  0  0  0
 35 31  1  0  0  0  0
 35 81  1  0  0  0  0
 35 82  1  0  0  0  0
 36 32  1  0  0  0  0
 36 83  1  0  0  0  0
 36 84  1  0  0  0  0
 37 21  1  0  0  0  0
 38 22  1  0  0  0  0
 39 23  1  0  0  0  0
 39 37  2  0  0  0  0
 40 24  1  0  0  0  0
 40 38  2  0  0  0  0
 41 33  1  0  0  0  0
 42 34  1  0  0  0  0
 49 85  1  0  0  0  0
 52 86  1  0  0  0  0
 55 25  1  0  0  0  0
 55 43  1  0  0  0  0
 55 44  2  0  0  0  0
 55 45  2  0  0  0  0
 56 26  1  0  0  0  0
 56 46  1  0  0  0  0
 56 47  2  0  0  0  0
 56 48  2  0  0  0  0
 57 27  1  0  0  0  0
 57 49  1  0  0  0  0
 57 50  2  0  0  0  0
 57 51  2  0  0  0  0
 58 28  1  0  0  0  0
 58 52  1  0  0  0  0
 58 53  2  0  0  0  0
 58 54  2  0  0  0  0
M  CHG  8  41  -1  42  -1  43  -1  46  -1  59   1  60   1  61   1  62   1
M  END
>  <DRUGBANK_ID>
DB09361

>  <COMMON_NAME>
Evans blue

>  <CAS_NUMBER>
314-13-6

>  <UNII>
45PG892GO1

>  <SYNONYMS>
Azovan blue; Evan's blue

$$$$
