
 OpenBabel10282417072D

 44 28  0  0  0  0  0  0  0  0999 V2000
   -2.1067    2.9980    0.0000 Na  0  3  0  0  0  0  0  0  0  0  0  0
   -4.3607    3.6019    0.0000 Na  0  3  0  0  0  0  0  0  0  0  0  0
   -4.9646    1.3480    0.0000 Na  0  3  0  0  0  0  0  0  0  0  0  0
   -2.8212    2.5855    0.0000 O   0  5  0  0  0  0  0  0  0  0  0  0
   -3.9482    2.8875    0.0000 O   0  5  0  0  0  0  0  0  0  0  0  0
   -4.2501    1.7605    0.0000 O   0  5  0  0  0  0  0  0  0  0  0  0
   -3.1232    1.4585    0.0000 O   0  0  0  0  0  0  0  0  0  0  0  0
   -3.5357    2.1730    0.0000 P   0  0  0  0  0  0  0  0  0  0  0  0
    0.2503    2.3516    0.0000 O   0  0  0  0  0  0  0  0  0  0  0  0
    2.6075    2.3516    0.0000 O   0  0  0  0  0  0  0  0  0  0  0  0
    4.9646    2.3516    0.0000 O   0  0  0  0  0  0  0  0  0  0  0  0
   -3.6388   -0.3019    0.0000 O   0  0  0  0  0  0  0  0  0  0  0  0
   -1.2816   -0.3019    0.0000 O   0  0  0  0  0  0  0  0  0  0  0  0
    1.0754   -0.3019    0.0000 O   0  0  0  0  0  0  0  0  0  0  0  0
    3.4325   -0.3019    0.0000 O   0  0  0  0  0  0  0  0  0  0  0  0
   -3.6388   -1.9519    0.0000 O   0  0  0  0  0  0  0  0  0  0  0  0
   -1.2816   -1.9519    0.0000 O   0  0  0  0  0  0  0  0  0  0  0  0
    1.0754   -1.9519    0.0000 O   0  0  0  0  0  0  0  0  0  0  0  0
    3.4325   -1.9519    0.0000 O   0  0  0  0  0  0  0  0  0  0  0  0
   -3.6388   -3.6019    0.0000 O   0  0  0  0  0  0  0  0  0  0  0  0
    1.2203    2.3516    0.0000 H   0  0  0  0  0  0  0  0  0  0  0  0
   -0.2347    3.1916    0.0000 H   0  0  0  0  0  0  0  0  0  0  0  0
    3.5775    2.3516    0.0000 H   0  0  0  0  0  0  0  0  0  0  0  0
    2.1225    3.1916    0.0000 H   0  0  0  0  0  0  0  0  0  0  0  0
    5.9346    2.3516    0.0000 H   0  0  0  0  0  0  0  0  0  0  0  0
    4.4796    3.1916    0.0000 H   0  0  0  0  0  0  0  0  0  0  0  0
   -2.6688   -0.3019    0.0000 H   0  0  0  0  0  0  0  0  0  0  0  0
   -4.1238    0.5381    0.0000 H   0  0  0  0  0  0  0  0  0  0  0  0
   -0.3116   -0.3019    0.0000 H   0  0  0  0  0  0  0  0  0  0  0  0
   -1.7666    0.5381    0.0000 H   0  0  0  0  0  0  0  0  0  0  0  0
    2.0454   -0.3019    0.0000 H   0  0  0  0  0  0  0  0  0  0  0  0
    0.5904    0.5381    0.0000 H   0  0  0  0  0  0  0  0  0  0  0  0
    4.4025   -0.3019    0.0000 H   0  0  0  0  0  0  0  0  0  0  0  0
    2.9475    0.5381    0.0000 H   0  0  0  0  0  0  0  0  0  0  0  0
   -2.6688   -1.9519    0.0000 H   0  0  0  0  0  0  0  0  0  0  0  0
   -4.1238   -1.1119    0.0000 H   0  0  0  0  0  0  0  0  0  0  0  0
   -0.3116   -1.9519    0.0000 H   0  0  0  0  0  0  0  0  0  0  0  0
   -1.7666   -1.1119    0.0000 H   0  0  0  0  0  0  0  0  0  0  0  0
    2.0454   -1.9519    0.0000 H   0  0  0  0  0  0  0  0  0  0  0  0
    0.5904   -1.1119    0.0000 H   0  0  0  0  0  0  0  0  0  0  0  0
    4.4025   -1.9519    0.0000 H   0  0  0  0  0  0  0  0  0  0  0  0
    2.9475   -1.1119    0.0000 H   0  0  0  0  0  0  0  0  0  0  0  0
   -2.6688   -3.6019    0.0000 H   0  0  0  0  0  0  0  0  0  0  0  0
   -4.1238   -2.7619    0.0000 H   0  0  0  0  0  0  0  0  0  0  0  0
  8  4  1  0  0  0  0
  8  5  1  0  0  0  0
  8  6  1  0  0  0  0
  8  7  2  0  0  0  0
  9 21  1  0  0  0  0
  9 22  1  0  0  0  0
 10 23  1  0  0  0  0
 10 24  1  0  0  0  0
 11 25  1  0  0  0  0
 11 26  1  0  0  0  0
 12 27  1  0  0  0  0
 12 28  1  0  0  0  0
 13 29  1  0  0  0  0
 13 30  1  0  0  0  0
 14 31  1  0  0  0  0
 14 32  1  0  0  0  0
 15 33  1  0  0  0  0
 15 34  1  0  0  0  0
 16 35  1  0  0  0  0
 16 36  1  0  0  0  0
 17 37  1  0  0  0  0
 17 38  1  0  0  0  0
 18 39  1  0  0  0  0
 18 40  1  0  0  0  0
 19 41  1  0  0  0  0
 19 42  1  0  0  0  0
 20 43  1  0  0  0  0
 20 44  1  0  0  0  0
M  CHG  6   1   1   2   1   3   1   4  -1   5  -1   6  -1
M  END
>  <DRUGBANK_ID>
DB14622

>  <COMMON_NAME>
Sodium phosphate tribasic dodecahydrate

>  <CAS_NUMBER>
10101-89-0

>  <UNII>
B70850QPHR

>  <SYNONYMS>
Phosphoric acid, trisodium salt, dodeahydrate; Phosphoric acid, trisodium salt, dodecahydrate; Sodium phosphate dodecahydrate; Sodium phosphate, tribasic, dodecahydrate; Trisodium phosphate; Trisodium phosphate dodecahydrate

$$$$
