
 OpenBabel10282417072D

112117  0  0  1  0  0  0  0  0999 V2000
    0.1398   -2.3506    0.0000 H   0  0  0  0  0  0  0  0  0  0  0  0
    0.1830   -3.1745    0.0000 C   0  0  2  0  0  0  0  0  0  0  0  0
    0.8974   -2.7620    0.0000 O   0  0  0  0  0  0  0  0  0  0  0  0
    1.6119   -3.1745    0.0000 C   0  0  1  0  0  0  0  0  0  0  0  0
    2.3264   -2.7620    0.0000 C   0  0  2  0  0  0  0  0  0  0  0  0
    3.0408   -3.1745    0.0000 N   0  0  0  0  0  0  0  0  0  0  0  0
    3.7553   -2.7620    0.0000 C   0  0  0  0  0  0  0  0  0  0  0  0
    4.4698   -3.1745    0.0000 C   0  0  0  0  0  0  0  0  0  0  0  0
    5.1842   -2.7620    0.0000 C   0  0  0  0  0  0  0  0  0  0  0  0
    5.8987   -3.1745    0.0000 C   0  0  0  0  0  0  0  0  0  0  0  0
    5.8987   -3.9995    0.0000 O   0  0  0  0  0  0  0  0  0  0  0  0
    6.6132   -2.7620    0.0000 N   0  0  0  0  0  0  0  0  0  0  0  0
    7.3277   -3.1745    0.0000 C   0  0  0  0  0  0  0  0  0  0  0  0
    8.0421   -2.7620    0.0000 C   0  0  0  0  0  0  0  0  0  0  0  0
    8.0421   -1.9370    0.0000 C   0  0  0  0  0  0  0  0  0  0  0  0
    8.7566   -1.5245    0.0000 C   0  0  0  0  0  0  0  0  0  0  0  0
    9.4711   -1.9370    0.0000 C   0  0  0  0  0  0  0  0  0  0  0  0
    9.4711   -2.7620    0.0000 C   0  0  0  0  0  0  0  0  0  0  0  0
    8.7566   -3.1745    0.0000 C   0  0  0  0  0  0  0  0  0  0  0  0
   10.1855   -1.5245    0.0000 N   0  0  0  0  0  0  0  0  0  0  0  0
   10.1855   -0.6995    0.0000 C   0  0  0  0  0  0  0  0  0  0  0  0
   10.9000   -0.2870    0.0000 C   0  0  0  0  0  0  0  0  0  0  0  0
   11.6145   -0.6995    0.0000 C   0  0  3  0  0  0  0  0  0  0  0  0
   11.6145   -1.5245    0.0000 C   0  0  0  0  0  0  0  0  0  0  0  0
   10.9000   -1.9370    0.0000 C   0  0  0  0  0  0  0  0  0  0  0  0
   12.3290   -0.2870    0.0000 O   0  0  0  0  0  0  0  0  0  0  0  0
   13.0434   -0.6995    0.0000 C   0  0  0  0  0  0  0  0  0  0  0  0
   13.7579   -0.2870    0.0000 C   0  0  0  0  0  0  0  0  0  0  0  0
   14.4724   -0.6995    0.0000 C   0  0  0  0  0  0  0  0  0  0  0  0
   14.4724   -1.5245    0.0000 C   0  0  0  0  0  0  0  0  0  0  0  0
   15.1868   -1.9370    0.0000 O   0  0  0  0  0  0  0  0  0  0  0  0
   15.1868   -2.7620    0.0000 C   0  0  0  0  0  0  0  0  0  0  0  0
   15.1868   -3.5870    0.0000 F   0  0  0  0  0  0  0  0  0  0  0  0
   16.0118   -2.7620    0.0000 F   0  0  0  0  0  0  0  0  0  0  0  0
   14.3618   -2.7620    0.0000 F   0  0  0  0  0  0  0  0  0  0  0  0
   13.7579   -1.9370    0.0000 C   0  0  0  0  0  0  0  0  0  0  0  0
   13.0434   -1.5245    0.0000 C   0  0  0  0  0  0  0  0  0  0  0  0
    2.3264   -1.9370    0.0000 C   0  0  0  0  0  0  0  0  0  0  0  0
    1.6119   -1.5245    0.0000 N   0  0  0  0  0  0  0  0  0  0  0  0
    3.0408   -1.5245    0.0000 O   0  0  0  0  0  0  0  0  0  0  0  0
    1.6119   -3.9995    0.0000 C   0  0  1  0  0  0  0  0  0  0  0  0
    2.3470   -3.6249    0.0000 H   0  0  0  0  0  0  0  0  0  0  0  0
    0.9445   -4.4844    0.0000 O   0  0  0  0  0  0  0  0  0  0  0  0
    1.1994   -5.2690    0.0000 C   0  0  2  0  0  0  0  0  0  0  0  0
    2.0244   -5.2690    0.0000 C   0  0  2  0  0  0  0  0  0  0  0  0
    2.5093   -5.9365    0.0000 O   0  0  0  0  0  0  0  0  0  0  0  0
    2.2793   -4.4844    0.0000 C   0  0  2  0  0  0  0  0  0  0  0  0
    3.0640   -4.2295    0.0000 O   0  0  0  0  0  0  0  0  0  0  0  0
    0.7145   -5.9365    0.0000 N   0  0  0  0  0  0  0  0  0  0  0  0
    1.0500   -6.6901    0.0000 C   0  0  0  0  0  0  0  0  0  0  0  0
    0.5651   -7.3576    0.0000 C   0  0  0  0  0  0  0  0  0  0  0  0
   -0.2554   -7.2713    0.0000 C   0  0  0  0  0  0  0  0  0  0  0  0
   -0.7403   -7.9388    0.0000 O   0  0  0  0  0  0  0  0  0  0  0  0
   -0.5909   -6.5177    0.0000 N   0  0  0  0  0  0  0  0  0  0  0  0
   -0.1060   -5.8502    0.0000 C   0  0  0  0  0  0  0  0  0  0  0  0
   -0.4416   -5.0966    0.0000 O   0  0  0  0  0  0  0  0  0  0  0  0
    0.0967   -3.9950    0.0000 O   0  0  0  0  0  0  0  0  0  0  0  0
   -0.7103   -4.1665    0.0000 C   0  0  2  0  0  0  0  0  0  0  0  0
   -1.0458   -4.9202    0.0000 C   0  0  0  0  0  0  0  0  0  0  0  0
   -1.8663   -5.0064    0.0000 N   0  0  0  0  0  0  0  0  0  0  0  0
   -1.1228   -3.4520    0.0000 C   0  0  1  0  0  0  0  0  0  0  0  0
   -1.9432   -3.3658    0.0000 O   0  0  0  0  0  0  0  0  0  0  0  0
   -0.5707   -2.8389    0.0000 C   0  0  1  0  0  0  0  0  0  0  0  0
   -0.7423   -2.0320    0.0000 O   0  0  0  0  0  0  0  0  0  0  0  0
    1.6119   -2.1045    0.0000 H   0  0  0  0  0  0  0  0  0  0  0  0
    2.3264   -3.8320    0.0000 H   0  0  0  0  0  0  0  0  0  0  0  0
    3.0408   -4.1945    0.0000 H   0  0  0  0  0  0  0  0  0  0  0  0
    3.7553   -1.6920    0.0000 H   0  0  0  0  0  0  0  0  0  0  0  0
    4.6819   -2.2270    0.0000 H   0  0  0  0  0  0  0  0  0  0  0  0
    4.4698   -4.2445    0.0000 H   0  0  0  0  0  0  0  0  0  0  0  0
    5.3965   -3.7095    0.0000 H   0  0  0  0  0  0  0  0  0  0  0  0
    5.1842   -1.6920    0.0000 H   0  0  0  0  0  0  0  0  0  0  0  0
    6.1108   -2.2270    0.0000 H   0  0  0  0  0  0  0  0  0  0  0  0
    6.6132   -1.7775    0.0000 H   0  0  0  0  0  0  0  0  0  0  0  0
    7.3277   -4.2445    0.0000 H   0  0  0  0  0  0  0  0  0  0  0  0
    8.2544   -3.7095    0.0000 H   0  0  0  0  0  0  0  0  0  0  0  0
    7.1484   -1.4210    0.0000 H   0  0  0  0  0  0  0  0  0  0  0  0
    8.7566   -0.4925    0.0000 H   0  0  0  0  0  0  0  0  0  0  0  0
   10.3648   -3.2780    0.0000 H   0  0  0  0  0  0  0  0  0  0  0  0
    8.7566   -4.2065    0.0000 H   0  0  0  0  0  0  0  0  0  0  0  0
    9.2589   -0.1645    0.0000 H   0  0  0  0  0  0  0  0  0  0  0  0
   10.1855    0.3705    0.0000 H   0  0  0  0  0  0  0  0  0  0  0  0
   10.9000    0.7830    0.0000 H   0  0  0  0  0  0  0  0  0  0  0  0
   11.8266    0.2480    0.0000 H   0  0  0  0  0  0  0  0  0  0  0  0
   10.6879   -1.2345    0.0000 H   0  0  0  0  0  0  0  0  0  0  0  0
   12.5411   -2.0595    0.0000 H   0  0  0  0  0  0  0  0  0  0  0  0
   11.6145   -2.5945    0.0000 H   0  0  0  0  0  0  0  0  0  0  0  0
   10.9000   -3.0070    0.0000 H   0  0  0  0  0  0  0  0  0  0  0  0
    9.9734   -2.4720    0.0000 H   0  0  0  0  0  0  0  0  0  0  0  0
   13.7579    0.7450    0.0000 H   0  0  0  0  0  0  0  0  0  0  0  0
   15.3661   -0.1835    0.0000 H   0  0  0  0  0  0  0  0  0  0  0  0
   13.7579   -2.9690    0.0000 H   0  0  0  0  0  0  0  0  0  0  0  0
   12.1497   -2.0405    0.0000 H   0  0  0  0  0  0  0  0  0  0  0  0
    1.6119   -0.5400    0.0000 H   0  0  0  0  0  0  0  0  0  0  0  0
    0.7593   -2.0168    0.0000 H   0  0  0  0  0  0  0  0  0  0  0  0
    0.1426   -5.1016    0.0000 H   0  0  0  0  0  0  0  0  0  0  0  0
    1.5386   -6.2224    0.0000 H   0  0  0  0  0  0  0  0  0  0  0  0
    2.1147   -6.8226    0.0000 H   0  0  0  0  0  0  0  0  0  0  0  0
    3.0359   -5.2410    0.0000 H   0  0  0  0  0  0  0  0  0  0  0  0
    3.7848   -4.8786    0.0000 H   0  0  0  0  0  0  0  0  0  0  0  0
    2.0763   -6.7980    0.0000 H   0  0  0  0  0  0  0  0  0  0  0  0
    0.9848   -8.3004    0.0000 H   0  0  0  0  0  0  0  0  0  0  0  0
   -1.5700   -6.4148    0.0000 H   0  0  0  0  0  0  0  0  0  0  0  0
   -0.0369   -4.9980    0.0000 H   0  0  0  0  0  0  0  0  0  0  0  0
   -0.4169   -5.7858    0.0000 H   0  0  0  0  0  0  0  0  0  0  0  0
   -1.4810   -5.8977    0.0000 H   0  0  0  0  0  0  0  0  0  0  0  0
   -2.4658   -4.1812    0.0000 H   0  0  0  0  0  0  0  0  0  0  0  0
   -2.2812   -5.9382    0.0000 H   0  0  0  0  0  0  0  0  0  0  0  0
   -1.7056   -4.3494    0.0000 H   0  0  0  0  0  0  0  0  0  0  0  0
   -2.3378   -2.4797    0.0000 H   0  0  0  0  0  0  0  0  0  0  0  0
   -1.6042   -2.5620    0.0000 H   0  0  0  0  0  0  0  0  0  0  0  0
   -0.0215   -1.3829    0.0000 H   0  0  0  0  0  0  0  0  0  0  0  0
  2  1  1  1  0  0  0
  2  3  1  0  0  0  0
  2 57  1  0  0  0  0
  4  3  1  0  0  0  0
  4  5  1  0  0  0  0
  4 41  1  0  0  0  0
  4 65  1  6  0  0  0
  5  6  1  0  0  0  0
  5 38  1  0  0  0  0
  5 66  1  6  0  0  0
  6  7  1  0  0  0  0
  6 67  1  0  0  0  0
  7  8  1  0  0  0  0
  7 68  1  0  0  0  0
  7 69  1  0  0  0  0
  8  9  1  0  0  0  0
  8 70  1  0  0  0  0
  8 71  1  0  0  0  0
  9 10  1  0  0  0  0
  9 72  1  0  0  0  0
  9 73  1  0  0  0  0
 10 11  2  0  0  0  0
 10 12  1  0  0  0  0
 12 13  1  0  0  0  0
 12 74  1  0  0  0  0
 13 14  1  0  0  0  0
 13 75  1  0  0  0  0
 13 76  1  0  0  0  0
 14 15  2  0  0  0  0
 14 19  1  0  0  0  0
 15 16  1  0  0  0  0
 15 77  1  0  0  0  0
 16 17  2  0  0  0  0
 16 78  1  0  0  0  0
 17 18  1  0  0  0  0
 17 20  1  0  0  0  0
 18 19  2  0  0  0  0
 18 79  1  0  0  0  0
 19 80  1  0  0  0  0
 20 21  1  0  0  0  0
 20 25  1  0  0  0  0
 21 22  1  0  0  0  0
 21 81  1  0  0  0  0
 21 82  1  0  0  0  0
 22 23  1  0  0  0  0
 22 83  1  0  0  0  0
 22 84  1  0  0  0  0
 23 24  1  0  0  0  0
 23 26  1  0  0  0  0
 23 85  1  0  0  0  0
 24 25  1  0  0  0  0
 24 86  1  0  0  0  0
 24 87  1  0  0  0  0
 25 88  1  0  0  0  0
 25 89  1  0  0  0  0
 26 27  1  0  0  0  0
 27 28  2  0  0  0  0
 27 37  1  0  0  0  0
 28 29  1  0  0  0  0
 28 90  1  0  0  0  0
 29 30  2  0  0  0  0
 29 91  1  0  0  0  0
 30 31  1  0  0  0  0
 30 36  1  0  0  0  0
 31 32  1  0  0  0  0
 32 33  1  0  0  0  0
 32 34  1  0  0  0  0
 32 35  1  0  0  0  0
 36 37  2  0  0  0  0
 36 92  1  0  0  0  0
 37 93  1  0  0  0  0
 38 39  1  0  0  0  0
 38 40  2  0  0  0  0
 39 94  1  0  0  0  0
 39 95  1  0  0  0  0
 41 42  1  1  0  0  0
 41 43  1  0  0  0  0
 41 47  1  0  0  0  0
 44 43  1  0  0  0  0
 44 49  1  0  0  0  0
 44 96  1  1  0  0  0
 45 44  1  0  0  0  0
 45 46  1  0  0  0  0
 45 97  1  6  0  0  0
 46 98  1  0  0  0  0
 47 45  1  0  0  0  0
 47 48  1  0  0  0  0
 47 99  1  6  0  0  0
 48100  1  0  0  0  0
 49 50  1  0  0  0  0
 49 55  1  0  0  0  0
 50 51  2  0  0  0  0
 50101  1  0  0  0  0
 51 52  1  0  0  0  0
 51102  1  0  0  0  0
 52 53  2  0  0  0  0
 52 54  1  0  0  0  0
 54 55  1  0  0  0  0
 54103  1  0  0  0  0
 55 56  2  0  0  0  0
 58 57  1  0  0  0  0
 58 59  1  0  0  0  0
 58104  1  1  0  0  0
 59 60  1  0  0  0  0
 59105  1  0  0  0  0
 59106  1  0  0  0  0
 60107  1  0  0  0  0
 60108  1  0  0  0  0
 61 58  1  0  0  0  0
 61 62  1  0  0  0  0
 61 63  1  0  0  0  0
 61109  1  6  0  0  0
 62110  1  0  0  0  0
 63  2  1  0  0  0  0
 63 64  1  0  0  0  0
 63111  1  6  0  0  0
 64112  1  0  0  0  0
M  END
>  <DRUGBANK_ID>
DB18603

>  <COMMON_NAME>
APPD

>  <CAS_NUMBER>
2364414-26-4

>  <UNII>
YG9BKQ6J2Z

>  <SYNONYMS>
AMINOURIDYL PHENOXYPIPERIDINBENZYL BUTAMIDE; D-GLYCERO-.ALPHA.-L-TALO-HEPTOFURANURONAMIDE, 5-O-(5-AMINO-5-DEOXY-.BETA.-D-RIBOFURANOSYL)-1,6-DIDEOXY-1-(3,4-DIHYDRO-2,4-DIOXO-1(2H)-PYRIMIDINYL)-6-((4-OXO-4-(((4-(4-(4-(TRIFLUOROMETHOXY)PHENOXY)-1-PIPERIDINYL)PHENYL)METHYL)AMINO)BUTYL)AMINO)-

$$$$
