TCO
 OpenBabel10282417072D

 40 40  0  0  0  0  0  0  0  0999 V2000
    0.2985   -0.1147    0.0000 N   0  0  0  0  0  0  0  0  0  0  0  0
   -0.4160    0.2978    0.0000 C   0  0  2  0  0  0  0  0  0  0  0  0
   -0.4160    1.1228    0.0000 C   0  0  0  0  0  0  0  0  0  0  0  0
    0.2985    1.5353    0.0000 O   0  0  0  0  0  0  0  0  0  0  0  0
   -1.1304   -0.9397    0.0000 C   0  0  0  0  0  0  0  0  0  0  0  0
   -1.8449   -1.3522    0.0000 C   0  0  0  0  0  0  0  0  0  0  0  0
   -2.5594   -0.9397    0.0000 C   0  0  0  0  0  0  0  0  0  0  0  0
   -2.5594   -0.1147    0.0000 C   0  0  0  0  0  0  0  0  0  0  0  0
   -1.8449    0.2978    0.0000 C   0  0  0  0  0  0  0  0  0  0  0  0
   -1.1304   -0.1147    0.0000 C   0  0  0  0  0  0  0  0  0  0  0  0
    1.0130    0.2978    0.0000 C   0  0  0  0  0  0  0  0  0  0  0  0
    1.0130    1.1228    0.0000 O   0  0  0  0  0  0  0  0  0  0  0  0
    1.7275   -0.1147    0.0000 O   0  0  0  0  0  0  0  0  0  0  0  0
    3.1564    0.7103    0.0000 C   0  0  0  0  0  0  0  0  0  0  0  0
    2.4419    0.2978    0.0000 C   0  0  0  0  0  0  0  0  0  0  0  0
    2.8544   -0.4167    0.0000 C   0  0  0  0  0  0  0  0  0  0  0  0
    2.0294    1.0123    0.0000 C   0  0  0  0  0  0  0  0  0  0  0  0
    0.0897    0.5897    0.0000 H   0  0  0  0  0  0  0  0  0  0  0  0
    0.2985   -1.0992    0.0000 H   0  0  0  0  0  0  0  0  0  0  0  0
   -1.3097    1.6388    0.0000 H   0  0  0  0  0  0  0  0  0  0  0  0
   -0.2038   -1.4747    0.0000 H   0  0  0  0  0  0  0  0  0  0  0  0
   -0.2038   -0.4047    0.0000 H   0  0  0  0  0  0  0  0  0  0  0  0
   -1.8449   -2.4222    0.0000 H   0  0  0  0  0  0  0  0  0  0  0  0
   -2.7715   -1.8872    0.0000 H   0  0  0  0  0  0  0  0  0  0  0  0
   -3.4860   -1.4747    0.0000 H   0  0  0  0  0  0  0  0  0  0  0  0
   -3.4860   -0.4047    0.0000 H   0  0  0  0  0  0  0  0  0  0  0  0
   -3.4860    0.4203    0.0000 H   0  0  0  0  0  0  0  0  0  0  0  0
   -2.5594    0.9553    0.0000 H   0  0  0  0  0  0  0  0  0  0  0  0
   -1.8449    1.3678    0.0000 H   0  0  0  0  0  0  0  0  0  0  0  0
   -0.9183    0.8328    0.0000 H   0  0  0  0  0  0  0  0  0  0  0  0
   -2.0570   -0.6497    0.0000 H   0  0  0  0  0  0  0  0  0  0  0  0
    4.0830    0.1753    0.0000 H   0  0  0  0  0  0  0  0  0  0  0  0
    3.1564    1.7803    0.0000 H   0  0  0  0  0  0  0  0  0  0  0  0
    4.0831    1.2453    0.0000 H   0  0  0  0  0  0  0  0  0  0  0  0
    2.3194   -1.3433    0.0000 H   0  0  0  0  0  0  0  0  0  0  0  0
    3.9244   -0.4167    0.0000 H   0  0  0  0  0  0  0  0  0  0  0  0
    3.3894   -1.3434    0.0000 H   0  0  0  0  0  0  0  0  0  0  0  0
    2.5644    1.9389    0.0000 H   0  0  0  0  0  0  0  0  0  0  0  0
    0.9594    1.0123    0.0000 H   0  0  0  0  0  0  0  0  0  0  0  0
    1.4944    1.9390    0.0000 H   0  0  0  0  0  0  0  0  0  0  0  0
  1 11  1  0  0  0  0
  1 19  1  0  0  0  0
  2  1  1  0  0  0  0
  2  3  1  0  0  0  0
  2 10  1  0  0  0  0
  2 18  1  6  0  0  0
  3  4  2  0  0  0  0
  3 20  1  0  0  0  0
  5  6  1  0  0  0  0
  5 10  1  0  0  0  0
  5 21  1  0  0  0  0
  5 22  1  0  0  0  0
  6  7  1  0  0  0  0
  6 23  1  0  0  0  0
  6 24  1  0  0  0  0
  7  8  1  0  0  0  0
  7 25  1  0  0  0  0
  7 26  1  0  0  0  0
  8  9  1  0  0  0  0
  8 27  1  0  0  0  0
  8 28  1  0  0  0  0
  9 10  1  0  0  0  0
  9 29  1  0  0  0  0
  9 30  1  0  0  0  0
 10 31  1  0  0  0  0
 11 12  2  0  0  0  0
 11 13  1  0  0  0  0
 13 15  1  0  0  0  0
 14 15  1  0  0  0  0
 14 32  1  0  0  0  0
 14 33  1  0  0  0  0
 14 34  1  0  0  0  0
 15 16  1  0  0  0  0
 15 17  1  0  0  0  0
 16 35  1  0  0  0  0
 16 36  1  0  0  0  0
 16 37  1  0  0  0  0
 17 38  1  0  0  0  0
 17 39  1  0  0  0  0
 17 40  1  0  0  0  0
M  END
>  <DRUGBANK_ID>
DB04523

>  <SECONDARY_ACCESSION_NUMBERS>
EXPT03026

>  <COMMON_NAME>
Tert-Butyl(1s)-1-Cyclohexyl-2-Oxoethylcarbamate

$$$$
