
 OpenBabel10282417072D

 75 77  0  0  1  0  0  0  0  0999 V2000
    4.5080   -4.2232    0.0000 F   0  0  0  0  0  0  0  0  0  0  0  0
    7.9284    4.4553    0.0000 O   0  0  0  0  0  0  0  0  0  0  0  0
    1.6500   -4.2232    0.0000 O   0  0  0  0  0  0  0  0  0  0  0  0
    4.5080    0.7269    0.0000 C   0  0  2  0  0  0  0  0  0  0  0  0
    4.5080   -0.0981    0.0000 C   0  0  1  0  0  0  0  0  0  0  0  0
    3.7935    1.1394    0.0000 C   0  0  0  0  0  0  0  0  0  0  0  0
    5.2886    0.9783    0.0000 C   0  0  0  0  0  0  0  0  0  0  0  0
    5.2886   -0.3496    0.0000 C   0  0  0  0  0  0  0  0  0  0  0  0
    3.7935   -0.5106    0.0000 C   0  0  0  0  0  0  0  0  0  0  0  0
    3.0791    0.7269    0.0000 C   0  0  0  0  0  0  0  0  0  0  0  0
    4.5080    1.5519    0.0000 C   0  0  0  0  0  0  0  0  0  0  0  0
    3.0791   -0.0981    0.0000 C   0  0  0  0  0  0  0  0  0  0  0  0
    5.7701    0.3144    0.0000 C   0  0  0  0  0  0  0  0  0  0  0  0
    5.5449    1.7625    0.0000 C   0  0  2  0  0  0  0  0  0  0  0  0
    6.3522    1.9326    0.0000 C   0  0  0  0  0  0  0  0  0  0  0  0
    3.7935   -1.3356    0.0000 C   0  0  0  0  0  0  0  0  0  0  0  0
    4.9939    2.3765    0.0000 C   0  0  0  0  0  0  0  0  0  0  0  0
    3.0791   -1.7481    0.0000 C   0  0  0  0  0  0  0  0  0  0  0  0
    6.6086    2.7168    0.0000 C   0  0  0  0  0  0  0  0  0  0  0  0
    3.0791   -2.5731    0.0000 C   0  0  0  0  0  0  0  0  0  0  0  0
    7.4158    2.8870    0.0000 C   0  0  0  0  0  0  0  0  0  0  0  0
    2.3645   -2.9857    0.0000 C   0  0  0  0  0  0  0  0  0  0  0  0
    7.6721    3.6712    0.0000 C   0  0  0  0  0  0  0  0  0  0  0  0
    3.7935   -2.9857    0.0000 C   0  0  0  0  0  0  0  0  0  0  0  0
    2.3645   -3.8107    0.0000 C   0  0  2  0  0  0  0  0  0  0  0  0
    3.7935   -3.8107    0.0000 C   0  0  2  0  0  0  0  0  0  0  0  0
    3.0791   -4.2232    0.0000 C   0  0  0  0  0  0  0  0  0  0  0  0
    8.4563    3.4148    0.0000 C   0  0  0  0  0  0  0  0  0  0  0  0
    6.8879    3.9274    0.0000 C   0  0  0  0  0  0  0  0  0  0  0  0
    4.5080   -2.5731    0.0000 C   0  0  0  0  0  0  0  0  0  0  0  0
    9.0703    3.9659    0.0000 C   0  0  0  0  0  0  0  0  0  0  0  0
    6.7178    4.7347    0.0000 C   0  0  0  0  0  0  0  0  0  0  0  0
    4.5779   -0.7545    0.0000 H   0  0  0  0  0  0  0  0  0  0  0  0
    3.7935   -4.4707    0.0000 H   0  0  0  0  0  0  0  0  0  0  0  0
    8.8776    4.6553    0.0000 H   0  0  0  0  0  0  0  0  0  0  0  0
    0.8100   -3.7382    0.0000 H   0  0  0  0  0  0  0  0  0  0  0  0
    3.7935    2.2094    0.0000 H   0  0  0  0  0  0  0  0  0  0  0  0
    2.8668    1.6744    0.0000 H   0  0  0  0  0  0  0  0  0  0  0  0
    5.6210   -1.3667    0.0000 H   0  0  0  0  0  0  0  0  0  0  0  0
    6.3456   -0.5156    0.0000 H   0  0  0  0  0  0  0  0  0  0  0  0
    2.1524    1.2619    0.0000 H   0  0  0  0  0  0  0  0  0  0  0  0
    2.1525    0.1919    0.0000 H   0  0  0  0  0  0  0  0  0  0  0  0
    5.4346    2.0869    0.0000 H   0  0  0  0  0  0  0  0  0  0  0  0
    3.5814    2.0869    0.0000 H   0  0  0  0  0  0  0  0  0  0  0  0
    4.5080    2.6219    0.0000 H   0  0  0  0  0  0  0  0  0  0  0  0
    2.1524   -0.6331    0.0000 H   0  0  0  0  0  0  0  0  0  0  0  0
    2.1525    0.4369    0.0000 H   0  0  0  0  0  0  0  0  0  0  0  0
    6.8021    0.3144    0.0000 H   0  0  0  0  0  0  0  0  0  0  0  0
    4.4979    1.5418    0.0000 H   0  0  0  0  0  0  0  0  0  0  0  0
    7.0667    1.1361    0.0000 H   0  0  0  0  0  0  0  0  0  0  0  0
    7.3992    2.1532    0.0000 H   0  0  0  0  0  0  0  0  0  0  0  0
    4.6872   -1.8516    0.0000 H   0  0  0  0  0  0  0  0  0  0  0  0
    5.3262    3.3936    0.0000 H   0  0  0  0  0  0  0  0  0  0  0  0
    3.9469    2.1558    0.0000 H   0  0  0  0  0  0  0  0  0  0  0  0
    4.2793    3.1729    0.0000 H   0  0  0  0  0  0  0  0  0  0  0  0
    2.1854   -1.2321    0.0000 H   0  0  0  0  0  0  0  0  0  0  0  0
    5.9194    3.4849    0.0000 H   0  0  0  0  0  0  0  0  0  0  0  0
    8.1051    2.1189    0.0000 H   0  0  0  0  0  0  0  0  0  0  0  0
    1.4378   -2.4507    0.0000 H   0  0  0  0  0  0  0  0  0  0  0  0
    1.4379   -3.5207    0.0000 H   0  0  0  0  0  0  0  0  0  0  0  0
    1.4379   -3.2757    0.0000 H   0  0  0  0  0  0  0  0  0  0  0  0
    3.0792   -5.2932    0.0000 H   0  0  0  0  0  0  0  0  0  0  0  0
    4.0058   -4.7582    0.0000 H   0  0  0  0  0  0  0  0  0  0  0  0
    8.6770    2.3678    0.0000 H   0  0  0  0  0  0  0  0  0  0  0  0
    9.4734    3.0825    0.0000 H   0  0  0  0  0  0  0  0  0  0  0  0
    6.0915    3.2128    0.0000 H   0  0  0  0  0  0  0  0  0  0  0  0
    5.8708    4.2598    0.0000 H   0  0  0  0  0  0  0  0  0  0  0  0
    5.4018   -3.0890    0.0000 H   0  0  0  0  0  0  0  0  0  0  0  0
    4.5079   -1.5411    0.0000 H   0  0  0  0  0  0  0  0  0  0  0  0
   10.0874    3.6336    0.0000 H   0  0  0  0  0  0  0  0  0  0  0  0
    8.8495    5.0129    0.0000 H   0  0  0  0  0  0  0  0  0  0  0  0
    9.8666    4.6806    0.0000 H   0  0  0  0  0  0  0  0  0  0  0  0
    7.5142    5.4493    0.0000 H   0  0  0  0  0  0  0  0  0  0  0  0
    5.7008    5.0672    0.0000 H   0  0  0  0  0  0  0  0  0  0  0  0
    6.4972    5.7817    0.0000 H   0  0  0  0  0  0  0  0  0  0  0  0
  1 26  1  0  0  0  0
  2 23  1  0  0  0  0
  2 35  1  0  0  0  0
  3 36  1  0  0  0  0
  4  5  1  0  0  0  0
  4  6  1  0  0  0  0
  4  7  1  0  0  0  0
  4 11  1  1  0  0  0
  5  8  1  0  0  0  0
  5  9  1  0  0  0  0
  5 33  1  6  0  0  0
  6 10  1  0  0  0  0
  6 37  1  0  0  0  0
  6 38  1  0  0  0  0
  7 13  2  0  0  0  0
  7 14  1  0  0  0  0
  8 13  1  0  0  0  0
  8 39  1  0  0  0  0
  8 40  1  0  0  0  0
  9 12  1  0  0  0  0
  9 16  2  0  0  0  0
 10 12  1  0  0  0  0
 10 41  1  0  0  0  0
 10 42  1  0  0  0  0
 11 43  1  0  0  0  0
 11 44  1  0  0  0  0
 11 45  1  0  0  0  0
 12 46  1  0  0  0  0
 12 47  1  0  0  0  0
 13 48  1  0  0  0  0
 14 15  1  0  0  0  0
 14 17  1  0  0  0  0
 14 49  1  6  0  0  0
 15 19  1  0  0  0  0
 15 50  1  0  0  0  0
 15 51  1  0  0  0  0
 16 18  1  0  0  0  0
 16 52  1  0  0  0  0
 17 53  1  0  0  0  0
 17 54  1  0  0  0  0
 17 55  1  0  0  0  0
 18 20  2  0  0  0  0
 18 56  1  0  0  0  0
 19 21  2  0  0  0  0
 19 57  1  0  0  0  0
 20 22  1  0  0  0  0
 20 24  1  0  0  0  0
 21 23  1  0  0  0  0
 21 58  1  0  0  0  0
 22 25  1  0  0  0  0
 22 59  1  0  0  0  0
 22 60  1  0  0  0  0
 23 28  1  0  0  0  0
 23 29  1  0  0  0  0
 24 26  1  0  0  0  0
 24 30  2  0  0  0  0
 25  3  1  0  0  0  0
 25 27  1  0  0  0  0
 25 61  1  1  0  0  0
 26 27  1  0  0  0  0
 26 34  1  6  0  0  0
 27 62  1  0  0  0  0
 27 63  1  0  0  0  0
 28 31  1  0  0  0  0
 28 64  1  0  0  0  0
 28 65  1  0  0  0  0
 29 32  1  0  0  0  0
 29 66  1  0  0  0  0
 29 67  1  0  0  0  0
 30 68  1  0  0  0  0
 30 69  1  0  0  0  0
 31 70  1  0  0  0  0
 31 71  1  0  0  0  0
 31 72  1  0  0  0  0
 32 73  1  0  0  0  0
 32 74  1  0  0  0  0
 32 75  1  0  0  0  0
M  END
>  <DRUGBANK_ID>
DB06194

>  <COMMON_NAME>
Elocalcitol

>  <CAS_NUMBER>
199798-84-0

>  <UNII>
2WDS5F2V6Q

>  <SYNONYMS>
Elocalcitol

$$$$
