SHY
 OpenBabel10282417072D

 57 62  0  0  0  0  0  0  0  0999 V2000
   -3.3396    1.3160    0.0000 N   0  0  0  0  0  0  0  0  0  0  0  0
   -2.7265    1.8680    0.0000 C   0  0  0  0  0  0  0  0  0  0  0  0
   -2.8980    2.6750    0.0000 N   0  0  0  0  0  0  0  0  0  0  0  0
   -1.9419    1.6130    0.0000 C   0  0  0  0  0  0  0  0  0  0  0  0
   -1.3288    2.1651    0.0000 C   0  0  0  0  0  0  0  0  0  0  0  0
   -0.5442    1.9101    0.0000 C   0  0  0  0  0  0  0  0  0  0  0  0
   -0.3726    1.1032    0.0000 C   0  0  0  0  0  0  0  0  0  0  0  0
   -0.9857    0.5511    0.0000 C   0  0  0  0  0  0  0  0  0  0  0  0
   -1.7703    0.8061    0.0000 C   0  0  0  0  0  0  0  0  0  0  0  0
    0.4120    0.8482    0.0000 C   0  0  2  0  0  0  0  0  0  0  0  0
    1.0794    1.3332    0.0000 N   0  0  1  0  0  0  0  0  0  0  0  0
    1.3344    2.1178    0.0000 C   0  0  0  0  0  0  0  0  0  0  0  0
    2.1594    2.1178    0.0000 C   0  0  1  0  0  0  0  0  0  0  0  0
    2.4143    1.3332    0.0000 C   0  0  0  0  0  0  0  0  0  0  0  0
    1.7469    0.8482    0.0000 C   0  0  1  0  0  0  0  0  0  0  0  0
    1.4919    0.0636    0.0000 C   0  0  2  0  0  0  0  0  0  0  0  0
    1.7469   -0.7210    0.0000 C   0  0  0  0  0  0  0  0  0  0  0  0
    1.0794   -1.2059    0.0000 N   0  0  0  0  0  0  0  0  0  0  0  0
    0.4120   -0.7210    0.0000 C   0  0  0  0  0  0  0  0  0  0  0  0
   -0.3726   -0.9759    0.0000 O   0  0  0  0  0  0  0  0  0  0  0  0
    0.6669    0.0636    0.0000 C   0  0  2  0  0  0  0  0  0  0  0  0
    1.0794   -2.0309    0.0000 C   0  0  0  0  0  0  0  0  0  0  0  0
    0.3650   -2.4434    0.0000 C   0  0  0  0  0  0  0  0  0  0  0  0
    0.3650   -3.2684    0.0000 C   0  0  0  0  0  0  0  0  0  0  0  0
   -0.3495   -3.6809    0.0000 C   0  0  0  0  0  0  0  0  0  0  0  0
   -1.0640   -3.2684    0.0000 C   0  0  0  0  0  0  0  0  0  0  0  0
   -1.8486   -3.5234    0.0000 O   0  0  0  0  0  0  0  0  0  0  0  0
   -2.3335   -2.8559    0.0000 C   0  0  0  0  0  0  0  0  0  0  0  0
    2.6443    2.7852    0.0000 O   0  0  0  0  0  0  0  0  0  0  0  0
   -1.8486   -2.1885    0.0000 O   0  0  0  0  0  0  0  0  0  0  0  0
   -1.0640   -2.4434    0.0000 C   0  0  0  0  0  0  0  0  0  0  0  0
   -0.3495   -2.0309    0.0000 C   0  0  0  0  0  0  0  0  0  0  0  0
    2.5315   -0.9759    0.0000 O   0  0  0  0  0  0  0  0  0  0  0  0
    0.3206    1.4250    0.0000 H   0  0  0  0  0  0  0  0  0  0  0  0
    1.8943    2.6381    0.0000 H   0  0  0  0  0  0  0  0  0  0  0  0
    2.2193    0.5050    0.0000 H   0  0  0  0  0  0  0  0  0  0  0  0
    2.0759    0.0636    0.0000 H   0  0  0  0  0  0  0  0  0  0  0  0
    0.0830    0.0636    0.0000 H   0  0  0  0  0  0  0  0  0  0  0  0
   -4.2759    1.6203    0.0000 H   0  0  0  0  0  0  0  0  0  0  0  0
   -2.1663    3.3337    0.0000 H   0  0  0  0  0  0  0  0  0  0  0  0
   -3.8343    2.9793    0.0000 H   0  0  0  0  0  0  0  0  0  0  0  0
   -1.5434    3.1746    0.0000 H   0  0  0  0  0  0  0  0  0  0  0  0
    0.2227    2.6007    0.0000 H   0  0  0  0  0  0  0  0  0  0  0  0
   -0.7711   -0.4584    0.0000 H   0  0  0  0  0  0  0  0  0  0  0  0
   -2.5372    0.1155    0.0000 H   0  0  0  0  0  0  0  0  0  0  0  0
    0.7055    2.9835    0.0000 H   0  0  0  0  0  0  0  0  0  0  0  0
    1.8202    3.0712    0.0000 H   0  0  0  0  0  0  0  0  0  0  0  0
    3.4319    1.0026    0.0000 H   0  0  0  0  0  0  0  0  0  0  0  0
    2.5818    0.2764    0.0000 H   0  0  0  0  0  0  0  0  0  0  0  0
    2.0061   -2.5659    0.0000 H   0  0  0  0  0  0  0  0  0  0  0  0
    1.0794   -3.1009    0.0000 H   0  0  0  0  0  0  0  0  0  0  0  0
    1.2587   -3.7844    0.0000 H   0  0  0  0  0  0  0  0  0  0  0  0
   -0.3495   -4.7129    0.0000 H   0  0  0  0  0  0  0  0  0  0  0  0
   -3.4035   -2.8559    0.0000 H   0  0  0  0  0  0  0  0  0  0  0  0
   -2.8193   -1.9025    0.0000 H   0  0  0  0  0  0  0  0  0  0  0  0
    3.6090    2.6838    0.0000 H   0  0  0  0  0  0  0  0  0  0  0  0
   -0.3495   -0.9989    0.0000 H   0  0  0  0  0  0  0  0  0  0  0  0
  1  2  2  0  0  0  0
  1 39  1  0  0  0  0
  2  3  1  0  0  0  0
  2  4  1  0  0  0  0
  3 40  1  0  0  0  0
  3 41  1  0  0  0  0
  4  5  2  0  0  0  0
  4  9  1  0  0  0  0
  5  6  1  0  0  0  0
  5 42  1  0  0  0  0
  6  7  2  0  0  0  0
  6 43  1  0  0  0  0
  7  8  1  0  0  0  0
  8  9  2  0  0  0  0
  8 44  1  0  0  0  0
  9 45  1  0  0  0  0
 10  7  1  0  0  0  0
 10 11  1  0  0  0  0
 10 21  1  0  0  0  0
 10 34  1  1  0  0  0
 11 12  1  1  0  0  0
 11 15  1  0  0  0  0
 12 13  1  0  0  0  0
 12 46  1  0  0  0  0
 12 47  1  0  0  0  0
 13 14  1  0  0  0  0
 13 29  1  0  0  0  0
 13 35  1  1  0  0  0
 14 15  1  0  0  0  0
 14 48  1  0  0  0  0
 14 49  1  0  0  0  0
 15 16  1  0  0  0  0
 15 36  1  6  0  0  0
 16 17  1  0  0  0  0
 16 21  1  0  0  0  0
 16 37  1  1  0  0  0
 17 18  1  0  0  0  0
 17 33  2  0  0  0  0
 18 19  1  0  0  0  0
 18 22  1  0  0  0  0
 19 20  2  0  0  0  0
 19 21  1  0  0  0  0
 21 38  1  1  0  0  0
 22 23  1  0  0  0  0
 22 50  1  0  0  0  0
 22 51  1  0  0  0  0
 23 24  2  0  0  0  0
 23 32  1  0  0  0  0
 24 25  1  0  0  0  0
 24 52  1  0  0  0  0
 25 26  2  0  0  0  0
 25 53  1  0  0  0  0
 26 27  1  0  0  0  0
 26 31  1  0  0  0  0
 27 28  1  0  0  0  0
 28 30  1  0  0  0  0
 28 54  1  0  0  0  0
 28 55  1  0  0  0  0
 29 56  1  0  0  0  0
 30 31  1  0  0  0  0
 31 32  2  0  0  0  0
 32 57  1  0  0  0  0
M  END
>  <DRUGBANK_ID>
DB08546

>  <COMMON_NAME>
4-[(3AS,4R,7R,8AS,8BR)-2-(1,3-BENZODIOXOL-5-YLMETHYL)-7-HYDROXY-1,3-DIOXODECAHYDROPYRROLO[3,4-A]PYRROLIZIN-4-YL]BENZENECARBOXIMIDAMIDE

$$$$
