
 OpenBabel10282417072D

 28 29  0  0  0  0  0  0  0  0999 V2000
   -0.7183   -1.2395    0.0000 O   0  0  0  0  0  0  0  0  0  0  0  0
   -0.0048   -0.8304    0.0000 C   0  0  0  0  0  0  0  0  0  0  0  0
   -0.0048   -0.0036    0.0000 C   0  0  3  0  0  0  0  0  0  0  0  0
   -0.7183    0.4138    0.0000 O   0  0  0  0  0  0  0  0  0  0  0  0
   -1.4320   -0.8304    0.0000 C   0  0  0  0  0  0  0  0  0  0  0  0
   -1.4294   -0.0054    0.0000 C   0  0  0  0  0  0  0  0  0  0  0  0
   -2.1413    0.4074    0.0000 C   0  0  0  0  0  0  0  0  0  0  0  0
   -2.8563   -0.0034    0.0000 C   0  0  0  0  0  0  0  0  0  0  0  0
   -2.8549   -0.8315    0.0000 C   0  0  0  0  0  0  0  0  0  0  0  0
   -2.1423   -1.2406    0.0000 C   0  0  0  0  0  0  0  0  0  0  0  0
    0.7122    0.4076    0.0000 C   0  0  0  0  0  0  0  0  0  0  0  0
    1.4240   -0.0036    0.0000 N   0  0  0  0  0  0  0  0  0  0  0  0
    2.1380    0.4138    0.0000 C   0  0  0  0  0  0  0  0  0  0  0  0
    2.8563    0.0045    0.0000 N   0  0  0  0  0  0  0  0  0  0  0  0
    2.1334    1.2406    0.0000 N   0  0  0  0  0  0  0  0  0  0  0  0
    0.9210   -1.3668    0.0000 H   0  0  0  0  0  0  0  0  0  0  0  0
    0.9222   -0.2961    0.0000 H   0  0  0  0  0  0  0  0  0  0  0  0
   -0.9330   -0.5359    0.0000 H   0  0  0  0  0  0  0  0  0  0  0  0
   -2.1392    1.4394    0.0000 H   0  0  0  0  0  0  0  0  0  0  0  0
   -3.7499    0.5128    0.0000 H   0  0  0  0  0  0  0  0  0  0  0  0
   -3.7476   -1.3493    0.0000 H   0  0  0  0  0  0  0  0  0  0  0  0
   -2.1410   -2.2726    0.0000 H   0  0  0  0  0  0  0  0  0  0  0  0
    0.7139    1.4776    0.0000 H   0  0  0  0  0  0  0  0  0  0  0  0
    1.6393    0.9418    0.0000 H   0  0  0  0  0  0  0  0  0  0  0  0
    1.4265   -0.9881    0.0000 H   0  0  0  0  0  0  0  0  0  0  0  0
    2.8619   -0.9800    0.0000 H   0  0  0  0  0  0  0  0  0  0  0  0
    3.7061    0.5016    0.0000 H   0  0  0  0  0  0  0  0  0  0  0  0
    2.9833    1.7376    0.0000 H   0  0  0  0  0  0  0  0  0  0  0  0
  1  2  1  0  0  0  0
  2  3  1  0  0  0  0
  2 16  1  0  0  0  0
  2 17  1  0  0  0  0
  3  4  1  0  0  0  0
  3 11  1  0  0  0  0
  3 18  1  0  0  0  0
  5  6  2  0  0  0  0
  5  1  1  0  0  0  0
  6  4  1  0  0  0  0
  6  7  1  0  0  0  0
  7  8  2  0  0  0  0
  7 19  1  0  0  0  0
  8  9  1  0  0  0  0
  8 20  1  0  0  0  0
  9 10  2  0  0  0  0
  9 21  1  0  0  0  0
 10  5  1  0  0  0  0
 10 22  1  0  0  0  0
 11 12  1  0  0  0  0
 11 23  1  0  0  0  0
 11 24  1  0  0  0  0
 12 13  1  0  0  0  0
 12 25  1  0  0  0  0
 13 14  1  0  0  0  0
 13 15  2  0  0  0  0
 14 26  1  0  0  0  0
 14 27  1  0  0  0  0
 15 28  1  0  0  0  0
M  END
>  <DRUGBANK_ID>
DB13211

>  <COMMON_NAME>
Guanoxan

>  <CAS_NUMBER>
2165-19-7

>  <UNII>
9V0MRL0R5Y

>  <SYNONYMS>
Guanoxan; Guanoxano; Guanoxanum

$$$$
