
 OpenBabel10282417072D

 78 81  0  0  1  0  0  0  0  0999 V2000
    1.0360   -4.1481    0.0000 C   0  0  0  0  0  0  0  0  0  0  0  0
    0.9773   -3.3252    0.0000 C   0  0  0  0  0  0  0  0  0  0  0  0
    1.6085   -2.7940    0.0000 N   0  0  0  0  0  0  0  0  0  0  0  0
    1.2984   -2.0295    0.0000 C   0  0  0  0  0  0  0  0  0  0  0  0
    1.6590   -1.2875    0.0000 C   0  0  0  0  0  0  0  0  0  0  0  0
    1.1967   -0.6042    0.0000 C   0  0  0  0  0  0  0  0  0  0  0  0
    0.3738   -0.6629    0.0000 C   0  0  0  0  0  0  0  0  0  0  0  0
    0.0132   -1.4049    0.0000 C   0  0  0  0  0  0  0  0  0  0  0  0
    0.4755   -2.0882    0.0000 C   0  0  0  0  0  0  0  0  0  0  0  0
    0.2770   -2.8890    0.0000 S   0  0  0  0  0  0  0  0  0  0  0  0
    1.5573    0.1378    0.0000 C   0  0  2  0  0  0  0  0  0  0  0  0
    0.7344    0.0791    0.0000 C   0  0  0  0  0  0  0  0  0  0  0  0
    0.2721    0.7624    0.0000 C   0  0  1  0  0  3  0  0  0  0  0  0
    0.6327    1.5044    0.0000 C   0  0  2  0  0  0  0  0  0  0  0  0
   -0.1902    1.4457    0.0000 O   0  0  0  0  0  0  0  0  0  0  0  0
    1.4556    1.5631    0.0000 C   0  0  0  0  0  0  0  0  0  0  0  0
    1.8162    2.3052    0.0000 C   0  0  0  0  0  0  0  0  0  0  0  0
    2.6391    2.3639    0.0000 C   0  0  0  0  0  0  0  0  0  0  0  0
    2.9997    3.1059    0.0000 C   0  0  1  0  0  0  0  0  0  0  0  0
    3.8226    3.1646    0.0000 C   0  0  1  0  0  0  0  0  0  0  0  0
    4.2849    2.4813    0.0000 C   0  0  2  0  0  0  0  0  0  0  0  0
    3.9243    1.7393    0.0000 C   0  0  0  0  0  0  0  0  0  0  0  0
    3.1014    1.6806    0.0000 O   0  0  0  0  0  0  0  0  0  0  0  0
    4.3866    1.0560    0.0000 C   0  0  0  0  0  0  0  0  0  0  0  0
    4.0260    0.3140    0.0000 C   0  0  2  0  0  0  0  0  0  0  0  0
    3.2031    0.2553    0.0000 C   0  0  0  0  0  0  0  0  0  0  0  0
    2.8425   -0.4868    0.0000 C   0  0  0  0  0  0  0  0  0  0  0  0
    3.3048   -1.1701    0.0000 O   0  0  0  0  0  0  0  0  0  0  0  0
    2.0196   -0.5455    0.0000 O   0  0  0  0  0  0  0  0  0  0  0  0
    4.4883   -0.3693    0.0000 O   0  0  0  0  0  0  0  0  0  0  0  0
    5.0856    1.4942    0.0000 C   0  0  0  0  0  0  0  0  0  0  0  0
    5.1407    0.7215    0.0000 C   0  0  0  0  0  0  0  0  0  0  0  0
    5.1078    2.5400    0.0000 C   0  0  0  0  0  0  0  0  0  0  0  0
    5.5701    1.8567    0.0000 C   0  0  0  0  0  0  0  0  0  0  0  0
    6.3930    1.9155    0.0000 C   0  0  0  0  0  0  0  0  0  0  0  0
    4.1832    3.9066    0.0000 O   0  0  0  0  0  0  0  0  0  0  0  0
    2.5374    3.7892    0.0000 C   0  0  0  0  0  0  0  0  0  0  0  0
    0.5739    2.3273    0.0000 C   0  0  0  0  0  0  0  0  0  0  0  0
    0.1498   -4.7477    0.0000 H   0  0  0  0  0  0  0  0  0  0  0  0
    1.9984   -4.6158    0.0000 H   0  0  0  0  0  0  0  0  0  0  0  0
    1.1121   -5.2154    0.0000 H   0  0  0  0  0  0  0  0  0  0  0  0
    2.6884   -1.2141    0.0000 H   0  0  0  0  0  0  0  0  0  0  0  0
   -0.2045    0.1919    0.0000 H   0  0  0  0  0  0  0  0  0  0  0  0
   -1.0162   -1.4783    0.0000 H   0  0  0  0  0  0  0  0  0  0  0  0
    0.6711   -0.4618    0.0000 H   0  0  0  0  0  0  0  0  0  0  0  0
    0.2667   -0.8833    0.0000 H   0  0  0  0  0  0  0  0  0  0  0  0
   -0.3329    0.0030    0.0000 H   0  0  0  0  0  0  0  0  0  0  0  0
    2.0552    0.6769    0.0000 H   0  0  0  0  0  0  0  0  0  0  0  0
    2.5229    1.6393    0.0000 H   0  0  0  0  0  0  0  0  0  0  0  0
    1.2166    3.1914    0.0000 H   0  0  0  0  0  0  0  0  0  0  0  0
    2.2839    3.2676    0.0000 H   0  0  0  0  0  0  0  0  0  0  0  0
    3.2387    1.4777    0.0000 H   0  0  0  0  0  0  0  0  0  0  0  0
    3.7064    2.4400    0.0000 H   0  0  0  0  0  0  0  0  0  0  0  0
    1.9324    3.0298    0.0000 H   0  0  0  0  0  0  0  0  0  0  0  0
    3.2230    4.0508    0.0000 H   0  0  0  0  0  0  0  0  0  0  0  0
    4.7526    3.4437    0.0000 H   0  0  0  0  0  0  0  0  0  0  0  0
    5.0933    0.3901    0.0000 H   0  0  0  0  0  0  0  0  0  0  0  0
    2.6035    1.1415    0.0000 H   0  0  0  0  0  0  0  0  0  0  0  0
    2.1358    0.1791    0.0000 H   0  0  0  0  0  0  0  0  0  0  0  0
    4.0643   -1.2417    0.0000 H   0  0  0  0  0  0  0  0  0  0  0  0
    6.0311    0.9932    0.0000 H   0  0  0  0  0  0  0  0  0  0  0  0
    5.0467    2.5635    0.0000 H   0  0  0  0  0  0  0  0  0  0  0  0
    5.9922    2.0625    0.0000 H   0  0  0  0  0  0  0  0  0  0  0  0
    5.2540   -0.3425    0.0000 H   0  0  0  0  0  0  0  0  0  0  0  0
    6.0055    1.3516    0.0000 H   0  0  0  0  0  0  0  0  0  0  0  0
    6.1188    0.2876    0.0000 H   0  0  0  0  0  0  0  0  0  0  0  0
    5.5755    3.5024    0.0000 H   0  0  0  0  0  0  0  0  0  0  0  0
    6.1751    2.6161    0.0000 H   0  0  0  0  0  0  0  0  0  0  0  0
    5.1191    0.9285    0.0000 H   0  0  0  0  0  0  0  0  0  0  0  0
    6.9714    1.0608    0.0000 H   0  0  0  0  0  0  0  0  0  0  0  0
    6.8440    2.8437    0.0000 H   0  0  0  0  0  0  0  0  0  0  0  0
    5.1507    3.9756    0.0000 H   0  0  0  0  0  0  0  0  0  0  0  0
    3.0051    4.7516    0.0000 H   0  0  0  0  0  0  0  0  0  0  0  0
    1.4701    3.7131    0.0000 H   0  0  0  0  0  0  0  0  0  0  0  0
    1.9378    4.6754    0.0000 H   0  0  0  0  0  0  0  0  0  0  0  0
    1.4601    2.9270    0.0000 H   0  0  0  0  0  0  0  0  0  0  0  0
   -0.3885    2.7949    0.0000 H   0  0  0  0  0  0  0  0  0  0  0  0
    0.4976    3.3946    0.0000 H   0  0  0  0  0  0  0  0  0  0  0  0
  1  2  1  0  0  0  0
  1 39  1  0  0  0  0
  1 40  1  0  0  0  0
  1 41  1  0  0  0  0
  2  3  2  0  0  0  0
  2 10  1  0  0  0  0
  3  4  1  0  0  0  0
  4  5  2  0  0  0  0
  4  9  1  0  0  0  0
  5  6  1  0  0  0  0
  5 42  1  0  0  0  0
  6  7  2  0  0  0  0
  7  8  1  0  0  0  0
  7 43  1  0  0  0  0
  8  9  2  0  0  0  0
  8 44  1  0  0  0  0
  9 10  1  0  0  0  0
 11  6  1  0  0  0  0
 11 12  1  0  0  0  0
 11 29  1  0  0  0  0
 11 45  1  1  0  0  0
 12 13  1  0  0  0  0
 12 46  1  0  0  0  0
 12 47  1  0  0  0  0
 13 14  1  0  0  0  0
 13 15  1  6  0  0  0
 14 15  1  0  0  0  0
 14 16  1  0  0  0  0
 14 38  1  1  0  0  0
 16 17  1  0  0  0  0
 16 48  1  0  0  0  0
 16 49  1  0  0  0  0
 17 18  1  0  0  0  0
 17 50  1  0  0  0  0
 17 51  1  0  0  0  0
 18 19  1  0  0  0  0
 18 52  1  0  0  0  0
 18 53  1  0  0  0  0
 19 20  1  0  0  0  0
 19 37  1  0  0  0  0
 19 54  1  1  0  0  0
 20 21  1  0  0  0  0
 20 36  1  0  0  0  0
 20 55  1  1  0  0  0
 21 22  1  0  0  0  0
 21 33  1  0  0  0  0
 21 56  1  6  0  0  0
 22 23  2  0  0  0  0
 22 24  1  0  0  0  0
 24 25  1  0  0  0  0
 24 31  1  0  0  0  0
 24 32  1  0  0  0  0
 25 26  1  0  0  0  0
 25 30  1  0  0  0  0
 25 57  1  6  0  0  0
 26 27  1  0  0  0  0
 26 58  1  0  0  0  0
 26 59  1  0  0  0  0
 27 28  2  0  0  0  0
 27 29  1  0  0  0  0
 30 60  1  0  0  0  0
 31 61  1  0  0  0  0
 31 62  1  0  0  0  0
 31 63  1  0  0  0  0
 32 64  1  0  0  0  0
 32 65  1  0  0  0  0
 32 66  1  0  0  0  0
 33 34  1  0  0  0  0
 33 67  1  0  0  0  0
 33 68  1  0  0  0  0
 34 35  2  0  0  0  0
 34 69  1  0  0  0  0
 35 70  1  0  0  0  0
 35 71  1  0  0  0  0
 36 72  1  0  0  0  0
 37 73  1  0  0  0  0
 37 74  1  0  0  0  0
 37 75  1  0  0  0  0
 38 76  1  0  0  0  0
 38 77  1  0  0  0  0
 38 78  1  0  0  0  0
M  END
>  <DRUGBANK_ID>
DB12391

>  <SECONDARY_ACCESSION_NUMBERS>
DB05654

>  <COMMON_NAME>
Sagopilone

>  <CAS_NUMBER>
305841-29-6

>  <UNII>
KY72JU32FO

>  <SYNONYMS>
Sagopilone

$$$$
