
 OpenBabel10282417072D

  3  2  0  0  0  0  0  0  0  0999 V2000
    2.9013   -2.9288    0.0000 N   0  0  0  0  0  0  0  0  0  0  0  0
    3.7263   -2.9288    0.0000 O   0  5  0  0  0  0  0  0  0  0  0  0
    2.4888   -2.2143    0.0000 O   0  0  0  0  0  0  0  0  0  0  0  0
  2  1  1  0  0  0  0
  3  1  2  0  0  0  0
M  CHG  1   2  -1
M  END
>  <DRUGBANK_ID>
DB12529

>  <COMMON_NAME>
Nitrite

>  <CAS_NUMBER>
14797-65-0

>  <UNII>
J39976L608

>  <SYNONYMS>
Nitrite anion; Nitrite ion

$$$$
