
 OpenBabel10282417072D

 41 41  0  0  0  0  0  0  0  0999 V2000
   -3.5724    3.7125    0.0000 C   0  0  0  0  0  0  0  0  0  0  0  0
    3.5724    3.7125    0.0000 C   0  0  0  0  0  0  0  0  0  0  0  0
    0.7145    5.3625    0.0000 C   0  0  0  0  0  0  0  0  0  0  0  0
    2.1434    6.1875    0.0000 C   0  0  0  0  0  0  0  0  0  0  0  0
   -2.8579    4.1250    0.0000 C   0  0  0  0  0  0  0  0  0  0  0  0
   -2.1434    3.7125    0.0000 C   0  0  0  0  0  0  0  0  0  0  0  0
   -1.4289    4.1250    0.0000 C   0  0  0  0  0  0  0  0  0  0  0  0
   -0.7145    3.7125    0.0000 C   0  0  0  0  0  0  0  0  0  0  0  0
    0.0000    4.1250    0.0000 C   0  0  0  0  0  0  0  0  0  0  0  0
    2.1434    3.7125    0.0000 C   0  0  0  0  0  0  0  0  0  0  0  0
    2.8579    4.1250    0.0000 C   0  0  0  0  0  0  0  0  0  0  0  0
    1.4289    4.9500    0.0000 C   0  0  0  0  0  0  0  0  0  0  0  0
    2.1434    5.3625    0.0000 C   0  0  0  0  0  0  0  0  0  0  0  0
    1.4289    4.1250    0.0000 C   0  0  0  0  0  0  0  0  0  0  0  0
    2.8579    4.9500    0.0000 C   0  0  0  0  0  0  0  0  0  0  0  0
    3.5724    5.3625    0.0000 O   0  0  0  0  0  0  0  0  0  0  0  0
    0.7145    3.7125    0.0000 O   0  0  0  0  0  0  0  0  0  0  0  0
   -4.4990    4.2475    0.0000 H   0  0  0  0  0  0  0  0  0  0  0  0
   -3.5724    2.6425    0.0000 H   0  0  0  0  0  0  0  0  0  0  0  0
   -4.4991    3.1775    0.0000 H   0  0  0  0  0  0  0  0  0  0  0  0
    3.5724    2.6425    0.0000 H   0  0  0  0  0  0  0  0  0  0  0  0
    4.4990    4.2475    0.0000 H   0  0  0  0  0  0  0  0  0  0  0  0
    4.4991    3.1775    0.0000 H   0  0  0  0  0  0  0  0  0  0  0  0
    0.7145    6.4325    0.0000 H   0  0  0  0  0  0  0  0  0  0  0  0
   -0.2122    4.8275    0.0000 H   0  0  0  0  0  0  0  0  0  0  0  0
   -0.2121    5.8975    0.0000 H   0  0  0  0  0  0  0  0  0  0  0  0
    3.0700    6.7225    0.0000 H   0  0  0  0  0  0  0  0  0  0  0  0
    1.2168    6.7225    0.0000 H   0  0  0  0  0  0  0  0  0  0  0  0
    2.1434    7.2575    0.0000 H   0  0  0  0  0  0  0  0  0  0  0  0
   -2.8579    5.1950    0.0000 H   0  0  0  0  0  0  0  0  0  0  0  0
   -1.9313    4.6600    0.0000 H   0  0  0  0  0  0  0  0  0  0  0  0
   -2.1434    2.6425    0.0000 H   0  0  0  0  0  0  0  0  0  0  0  0
   -1.2168    3.1775    0.0000 H   0  0  0  0  0  0  0  0  0  0  0  0
   -1.4289    5.1950    0.0000 H   0  0  0  0  0  0  0  0  0  0  0  0
   -0.5022    4.6600    0.0000 H   0  0  0  0  0  0  0  0  0  0  0  0
   -0.7145    2.6425    0.0000 H   0  0  0  0  0  0  0  0  0  0  0  0
    0.2121    3.1775    0.0000 H   0  0  0  0  0  0  0  0  0  0  0  0
    0.0000    5.1950    0.0000 H   0  0  0  0  0  0  0  0  0  0  0  0
    0.9266    4.6600    0.0000 H   0  0  0  0  0  0  0  0  0  0  0  0
    2.1434    2.6805    0.0000 H   0  0  0  0  0  0  0  0  0  0  0  0
    4.3839    4.8940    0.0000 H   0  0  0  0  0  0  0  0  0  0  0  0
  1 18  1  0  0  0  0
  1 19  1  0  0  0  0
  1 20  1  0  0  0  0
  2 21  1  0  0  0  0
  2 22  1  0  0  0  0
  2 23  1  0  0  0  0
  3 24  1  0  0  0  0
  3 25  1  0  0  0  0
  3 26  1  0  0  0  0
  4 27  1  0  0  0  0
  4 28  1  0  0  0  0
  4 29  1  0  0  0  0
  5  1  1  0  0  0  0
  5 30  1  0  0  0  0
  5 31  1  0  0  0  0
  6  5  1  0  0  0  0
  6 32  1  0  0  0  0
  6 33  1  0  0  0  0
  7  6  1  0  0  0  0
  7 34  1  0  0  0  0
  7 35  1  0  0  0  0
  8  7  1  0  0  0  0
  8 36  1  0  0  0  0
  8 37  1  0  0  0  0
  9  8  1  0  0  0  0
  9 38  1  0  0  0  0
  9 39  1  0  0  0  0
 10 40  1  0  0  0  0
 11  2  1  0  0  0  0
 11 10  1  0  0  0  0
 12  3  1  0  0  0  0
 13  4  1  0  0  0  0
 13 12  2  0  0  0  0
 14 10  2  0  0  0  0
 14 12  1  0  0  0  0
 15 11  2  0  0  0  0
 15 13  1  0  0  0  0
 16 15  1  0  0  0  0
 16 41  1  0  0  0  0
 17  9  1  0  0  0  0
 17 14  1  0  0  0  0
M  END
>  <DRUGBANK_ID>
DB12162

>  <COMMON_NAME>
HX-1171

>  <CAS_NUMBER>
148081-72-5

>  <UNII>
70BK60I8RP

$$$$
