463
 OpenBabel10282417072D

 28 28  0  0  0  0  0  0  0  0999 V2000
    1.6500    0.5231    0.0000 O   0  0  0  0  0  0  0  0  0  0  0  0
    4.5080    0.5231    0.0000 O   0  0  0  0  0  0  0  0  0  0  0  0
    3.0791   -1.9520    0.0000 O   0  0  0  0  0  0  0  0  0  0  0  0
    2.3645   -0.7145    0.0000 N   0  0  0  0  0  0  0  0  0  0  0  0
    3.7935   -0.7145    0.0000 N   0  0  0  0  0  0  0  0  0  0  0  0
    3.0791    0.5231    0.0000 C   0  0  0  0  0  0  0  0  0  0  0  0
    3.4916    1.2375    0.0000 C   0  0  0  0  0  0  0  0  0  0  0  0
    2.6665    1.2375    0.0000 C   0  0  0  0  0  0  0  0  0  0  0  0
    2.3645    0.1106    0.0000 C   0  0  0  0  0  0  0  0  0  0  0  0
    3.7935    0.1106    0.0000 C   0  0  0  0  0  0  0  0  0  0  0  0
    3.0791    1.9520    0.0000 C   0  0  0  0  0  0  0  0  0  0  0  0
    1.8415    1.2375    0.0000 C   0  0  0  0  0  0  0  0  0  0  0  0
    3.0791   -1.1270    0.0000 C   0  0  0  0  0  0  0  0  0  0  0  0
    1.6500   -1.1270    0.0000 C   0  0  0  0  0  0  0  0  0  0  0  0
    4.6461   -1.2067    0.0000 H   0  0  0  0  0  0  0  0  0  0  0  0
    4.5616    1.2375    0.0000 H   0  0  0  0  0  0  0  0  0  0  0  0
    4.0266    2.1641    0.0000 H   0  0  0  0  0  0  0  0  0  0  0  0
    3.2014    2.1642    0.0000 H   0  0  0  0  0  0  0  0  0  0  0  0
    2.1315    2.1641    0.0000 H   0  0  0  0  0  0  0  0  0  0  0  0
    3.6141    2.8786    0.0000 H   0  0  0  0  0  0  0  0  0  0  0  0
    2.0091    1.9520    0.0000 H   0  0  0  0  0  0  0  0  0  0  0  0
    2.5441    2.8787    0.0000 H   0  0  0  0  0  0  0  0  0  0  0  0
    1.3065    2.1641    0.0000 H   0  0  0  0  0  0  0  0  0  0  0  0
    1.3065    0.3109    0.0000 H   0  0  0  0  0  0  0  0  0  0  0  0
    0.7715    1.2375    0.0000 H   0  0  0  0  0  0  0  0  0  0  0  0
    0.7234   -0.5920    0.0000 H   0  0  0  0  0  0  0  0  0  0  0  0
    1.6500   -2.1970    0.0000 H   0  0  0  0  0  0  0  0  0  0  0  0
    0.7233   -1.6620    0.0000 H   0  0  0  0  0  0  0  0  0  0  0  0
  1  9  2  0  0  0  0
  2 10  2  0  0  0  0
  3 13  2  0  0  0  0
  4  9  1  0  0  0  0
  4 13  1  0  0  0  0
  4 14  1  0  0  0  0
  5 10  1  0  0  0  0
  5 13  1  0  0  0  0
  5 15  1  0  0  0  0
  6  7  1  0  0  0  0
  6  8  1  0  0  0  0
  6  9  1  0  0  0  0
  6 10  1  0  0  0  0
  7 11  1  0  0  0  0
  7 16  1  0  0  0  0
  7 17  1  0  0  0  0
  8 12  1  0  0  0  0
  8 18  1  0  0  0  0
  8 19  1  0  0  0  0
 11 20  1  0  0  0  0
 11 21  1  0  0  0  0
 11 22  1  0  0  0  0
 12 23  1  0  0  0  0
 12 24  1  0  0  0  0
 12 25  1  0  0  0  0
 14 26  1  0  0  0  0
 14 27  1  0  0  0  0
 14 28  1  0  0  0  0
M  END
>  <DRUGBANK_ID>
DB00463

>  <SECONDARY_ACCESSION_NUMBERS>
APRD00757

>  <COMMON_NAME>
Metharbital

>  <CAS_NUMBER>
50-11-3

>  <UNII>
02OS7K758T

>  <SYNONYMS>
Metarbital; Metharbital; Metharbitalum

$$$$
