
 OpenBabel10282417072D

 85 89  0  0  0  0  0  0  0  0999 V2000
    3.2704   -0.3316    0.0000 C   0  0  0  0  0  0  0  0  0  0  0  0
    2.8579   -1.0461    0.0000 C   0  0  0  0  0  0  0  0  0  0  0  0
    3.2704   -1.7605    0.0000 N   0  0  0  0  0  0  0  0  0  0  0  0
    2.8579   -2.4750    0.0000 C   0  0  0  0  0  0  0  0  0  0  0  0
    2.0329   -2.4750    0.0000 C   0  0  0  0  0  0  0  0  0  0  0  0
    4.0954   -1.7605    0.0000 C   0  0  0  0  0  0  0  0  0  0  0  0
    4.5079   -1.0461    0.0000 C   0  0  0  0  0  0  0  0  0  0  0  0
    5.3329   -1.0461    0.0000 N   0  0  0  0  0  0  0  0  0  0  0  0
    5.7454   -0.3316    0.0000 C   0  0  0  0  0  0  0  0  0  0  0  0
    5.3329    0.3829    0.0000 C   0  0  0  0  0  0  0  0  0  0  0  0
    4.5079    0.3829    0.0000 C   0  0  0  0  0  0  0  0  0  0  0  0
    4.0954    1.0974    0.0000 C   0  0  0  0  0  0  0  0  0  0  0  0
    4.5079    1.8118    0.0000 C   0  0  0  0  0  0  0  0  0  0  0  0
    5.3329    1.8118    0.0000 C   0  0  0  0  0  0  0  0  0  0  0  0
    5.7454    1.0974    0.0000 C   0  0  0  0  0  0  0  0  0  0  0  0
    4.0954    2.5263    0.0000 C   0  0  0  0  0  0  0  0  0  0  0  0
    3.2704    2.5263    0.0000 C   0  0  0  0  0  0  0  0  0  0  0  0
    2.8579    3.2408    0.0000 C   0  0  0  0  0  0  0  0  0  0  0  0
    3.2704    3.9552    0.0000 C   0  0  0  0  0  0  0  0  0  0  0  0
    4.0954    3.9552    0.0000 C   0  0  0  0  0  0  0  0  0  0  0  0
    4.5079    3.2408    0.0000 C   0  0  0  0  0  0  0  0  0  0  0  0
    2.8579    4.6697    0.0000 C   0  0  0  0  0  0  0  0  0  0  0  0
    2.4454    5.3842    0.0000 F   0  0  0  0  0  0  0  0  0  0  0  0
    2.1434    4.2572    0.0000 F   0  0  0  0  0  0  0  0  0  0  0  0
    3.5724    5.0822    0.0000 F   0  0  0  0  0  0  0  0  0  0  0  0
    5.7454   -1.7605    0.0000 C   0  0  0  0  0  0  0  0  0  0  0  0
    6.5704   -1.7605    0.0000 O   0  0  0  0  0  0  0  0  0  0  0  0
    5.3329   -2.4750    0.0000 C   0  0  0  0  0  0  0  0  0  0  0  0
    5.7454   -3.1895    0.0000 N   0  0  0  0  0  0  0  0  0  0  0  0
    6.5704   -3.1895    0.0000 C   0  0  0  0  0  0  0  0  0  0  0  0
    6.9829   -3.9039    0.0000 C   0  0  0  0  0  0  0  0  0  0  0  0
    6.5704   -4.6184    0.0000 C   0  0  0  0  0  0  0  0  0  0  0  0
    6.9829   -5.3329    0.0000 O   0  0  0  0  0  0  0  0  0  0  0  0
    5.7454   -4.6184    0.0000 N   0  0  0  0  0  0  0  0  0  0  0  0
    5.3329   -3.9039    0.0000 C   0  0  0  0  0  0  0  0  0  0  0  0
    4.5079   -3.9039    0.0000 S   0  0  0  0  0  0  0  0  0  0  0  0
    4.0954   -4.6184    0.0000 C   0  0  0  0  0  0  0  0  0  0  0  0
    4.5079   -5.3329    0.0000 C   0  0  0  0  0  0  0  0  0  0  0  0
    5.3329   -5.3329    0.0000 C   0  0  0  0  0  0  0  0  0  0  0  0
    5.7454   -6.0474    0.0000 C   0  0  0  0  0  0  0  0  0  0  0  0
    5.3329   -6.7618    0.0000 C   0  0  0  0  0  0  0  0  0  0  0  0
    4.5079   -6.7618    0.0000 C   0  0  0  0  0  0  0  0  0  0  0  0
    4.0954   -6.0474    0.0000 C   0  0  0  0  0  0  0  0  0  0  0  0
    5.7454   -7.4763    0.0000 F   0  0  0  0  0  0  0  0  0  0  0  0
    7.7899   -3.7324    0.0000 C   0  0  0  0  0  0  0  0  0  0  0  0
    7.8761   -2.9119    0.0000 C   0  0  0  0  0  0  0  0  0  0  0  0
    7.1224   -2.5764    0.0000 C   0  0  0  0  0  0  0  0  0  0  0  0
    4.3404   -0.3316    0.0000 H   0  0  0  0  0  0  0  0  0  0  0  0
    2.7354    0.5950    0.0000 H   0  0  0  0  0  0  0  0  0  0  0  0
    3.8054    0.5951    0.0000 H   0  0  0  0  0  0  0  0  0  0  0  0
    1.7879   -1.0461    0.0000 H   0  0  0  0  0  0  0  0  0  0  0  0
    2.3229   -1.9728    0.0000 H   0  0  0  0  0  0  0  0  0  0  0  0
    3.3929   -3.4016    0.0000 H   0  0  0  0  0  0  0  0  0  0  0  0
    2.3229   -3.4016    0.0000 H   0  0  0  0  0  0  0  0  0  0  0  0
    1.4979   -1.5484    0.0000 H   0  0  0  0  0  0  0  0  0  0  0  0
    1.4979   -3.4016    0.0000 H   0  0  0  0  0  0  0  0  0  0  0  0
    0.9629   -2.4750    0.0000 H   0  0  0  0  0  0  0  0  0  0  0  0
    4.6304   -2.6872    0.0000 H   0  0  0  0  0  0  0  0  0  0  0  0
    5.1654   -1.7605    0.0000 H   0  0  0  0  0  0  0  0  0  0  0  0
    3.9729   -0.1194    0.0000 H   0  0  0  0  0  0  0  0  0  0  0  0
    5.0429   -0.1195    0.0000 H   0  0  0  0  0  0  0  0  0  0  0  0
    6.8154   -0.3316    0.0000 H   0  0  0  0  0  0  0  0  0  0  0  0
    6.2804    0.5950    0.0000 H   0  0  0  0  0  0  0  0  0  0  0  0
    3.9919   -0.5108    0.0000 H   0  0  0  0  0  0  0  0  0  0  0  0
    3.0634    1.0974    0.0000 H   0  0  0  0  0  0  0  0  0  0  0  0
    5.8489    2.7055    0.0000 H   0  0  0  0  0  0  0  0  0  0  0  0
    6.7774    1.0974    0.0000 H   0  0  0  0  0  0  0  0  0  0  0  0
    2.7544    1.6326    0.0000 H   0  0  0  0  0  0  0  0  0  0  0  0
    1.8259    3.2408    0.0000 H   0  0  0  0  0  0  0  0  0  0  0  0
    4.6114    4.8489    0.0000 H   0  0  0  0  0  0  0  0  0  0  0  0
    5.5399    3.2408    0.0000 H   0  0  0  0  0  0  0  0  0  0  0  0
    4.2629   -2.4750    0.0000 H   0  0  0  0  0  0  0  0  0  0  0  0
    4.7979   -3.4016    0.0000 H   0  0  0  0  0  0  0  0  0  0  0  0
    3.0254   -4.6184    0.0000 H   0  0  0  0  0  0  0  0  0  0  0  0
    3.5604   -5.5450    0.0000 H   0  0  0  0  0  0  0  0  0  0  0  0
    5.8489   -4.4392    0.0000 H   0  0  0  0  0  0  0  0  0  0  0  0
    6.7774   -6.0474    0.0000 H   0  0  0  0  0  0  0  0  0  0  0  0
    3.9919   -7.6555    0.0000 H   0  0  0  0  0  0  0  0  0  0  0  0
    3.0634   -6.0474    0.0000 H   0  0  0  0  0  0  0  0  0  0  0  0
    8.5851   -4.4484    0.0000 H   0  0  0  0  0  0  0  0  0  0  0  0
    8.7888   -3.3489    0.0000 H   0  0  0  0  0  0  0  0  0  0  0  0
    8.8027   -2.3768    0.0000 H   0  0  0  0  0  0  0  0  0  0  0  0
    7.8200   -1.8434    0.0000 H   0  0  0  0  0  0  0  0  0  0  0  0
    6.8999   -1.5298    0.0000 H   0  0  0  0  0  0  0  0  0  0  0  0
    6.0888   -2.2995    0.0000 H   0  0  0  0  0  0  0  0  0  0  0  0
  1  2  1  0  0  0  0
  1 48  1  0  0  0  0
  1 49  1  0  0  0  0
  1 50  1  0  0  0  0
  2  3  1  0  0  0  0
  2 51  1  0  0  0  0
  2 52  1  0  0  0  0
  3  4  1  0  0  0  0
  3  6  1  0  0  0  0
  4  5  1  0  0  0  0
  4 53  1  0  0  0  0
  4 54  1  0  0  0  0
  5 55  1  0  0  0  0
  5 56  1  0  0  0  0
  5 57  1  0  0  0  0
  6  7  1  0  0  0  0
  6 58  1  0  0  0  0
  6 59  1  0  0  0  0
  7  8  1  0  0  0  0
  7 60  1  0  0  0  0
  7 61  1  0  0  0  0
  8  9  1  0  0  0  0
  8 26  1  0  0  0  0
  9 10  1  0  0  0  0
  9 62  1  0  0  0  0
  9 63  1  0  0  0  0
 10 11  2  0  0  0  0
 10 15  1  0  0  0  0
 11 12  1  0  0  0  0
 11 64  1  0  0  0  0
 12 13  2  0  0  0  0
 12 65  1  0  0  0  0
 13 14  1  0  0  0  0
 13 16  1  0  0  0  0
 14 15  2  0  0  0  0
 14 66  1  0  0  0  0
 15 67  1  0  0  0  0
 16 17  2  0  0  0  0
 16 21  1  0  0  0  0
 17 18  1  0  0  0  0
 17 68  1  0  0  0  0
 18 19  2  0  0  0  0
 18 69  1  0  0  0  0
 19 20  1  0  0  0  0
 19 22  1  0  0  0  0
 20 21  2  0  0  0  0
 20 70  1  0  0  0  0
 21 71  1  0  0  0  0
 22 23  1  0  0  0  0
 22 24  1  0  0  0  0
 22 25  1  0  0  0  0
 26 27  2  0  0  0  0
 26 28  1  0  0  0  0
 28 29  1  0  0  0  0
 28 72  1  0  0  0  0
 28 73  1  0  0  0  0
 29 30  1  0  0  0  0
 29 35  1  0  0  0  0
 30 31  2  0  0  0  0
 30 47  1  0  0  0  0
 31 32  1  0  0  0  0
 31 45  1  0  0  0  0
 32 33  2  0  0  0  0
 32 34  1  0  0  0  0
 34 35  2  0  0  0  0
 35 36  1  0  0  0  0
 36 37  1  0  0  0  0
 37 38  1  0  0  0  0
 37 74  1  0  0  0  0
 37 75  1  0  0  0  0
 38 39  2  0  0  0  0
 38 43  1  0  0  0  0
 39 40  1  0  0  0  0
 39 76  1  0  0  0  0
 40 41  2  0  0  0  0
 40 77  1  0  0  0  0
 41 42  1  0  0  0  0
 41 44  1  0  0  0  0
 42 43  2  0  0  0  0
 42 78  1  0  0  0  0
 43 79  1  0  0  0  0
 45 46  1  0  0  0  0
 45 80  1  0  0  0  0
 45 81  1  0  0  0  0
 46 47  1  0  0  0  0
 46 82  1  0  0  0  0
 46 83  1  0  0  0  0
 47 84  1  0  0  0  0
 47 85  1  0  0  0  0
M  END
>  <DRUGBANK_ID>
DB06311

>  <COMMON_NAME>
Darapladib

>  <CAS_NUMBER>
356057-34-6

>  <UNII>
UI1U1MYH09

>  <SYNONYMS>
Darapladib

$$$$
