605
 OpenBabel10282417072D

 44 46  0  0  0  0  0  0  0  0999 V2000
   -3.2854    2.1745    0.0000 C   0  0  0  0  0  0  0  0  0  0  0  0
   -2.5709    1.7620    0.0000 C   0  0  0  0  0  0  0  0  0  0  0  0
   -2.5709    0.9370    0.0000 C   0  0  0  0  0  0  0  0  0  0  0  0
   -3.2854    0.5245    0.0000 C   0  0  0  0  0  0  0  0  0  0  0  0
   -3.9998    0.9370    0.0000 C   0  0  0  0  0  0  0  0  0  0  0  0
   -3.9998    1.7620    0.0000 C   0  0  0  0  0  0  0  0  0  0  0  0
   -1.8564    0.5245    0.0000 C   0  0  0  0  0  0  0  0  0  0  0  0
   -1.1419    0.9370    0.0000 C   0  0  2  0  0  0  0  0  0  0  0  0
   -0.4275    0.5245    0.0000 C   0  0  0  0  0  0  0  0  0  0  0  0
   -1.1419    1.7620    0.0000 N   0  0  0  0  0  0  0  0  0  0  0  0
    0.2870    0.9370    0.0000 C   0  0  0  0  0  0  0  0  0  0  0  0
    1.0015    0.5245    0.0000 C   0  0  0  0  0  0  0  0  0  0  0  0
    1.0015   -0.3005    0.0000 C   0  0  0  0  0  0  0  0  0  0  0  0
    0.2870   -0.7130    0.0000 C   0  0  0  0  0  0  0  0  0  0  0  0
   -0.4275   -0.3005    0.0000 C   0  0  0  0  0  0  0  0  0  0  0  0
    1.7159   -0.7130    0.0000 C   0  0  0  0  0  0  0  0  0  0  0  0
    2.4304   -0.3005    0.0000 C   0  0  0  0  0  0  0  0  0  0  0  0
    3.1449   -0.7130    0.0000 C   0  0  0  0  0  0  0  0  0  0  0  0
    3.1449   -1.5380    0.0000 C   0  0  0  0  0  0  0  0  0  0  0  0
    2.4304   -1.9505    0.0000 C   0  0  0  0  0  0  0  0  0  0  0  0
    1.7159   -1.5380    0.0000 C   0  0  0  0  0  0  0  0  0  0  0  0
   -4.7143    0.5245    0.0000 F   0  0  0  0  0  0  0  0  0  0  0  0
   -1.8564    2.1745    0.0000 F   0  0  0  0  0  0  0  0  0  0  0  0
    2.4304   -2.7755    0.0000 C   0  0  0  0  0  0  0  0  0  0  0  0
    3.1449   -3.1880    0.0000 N   0  0  0  0  0  0  0  0  0  0  0  0
    1.7159   -3.1880    0.0000 O   0  0  0  0  0  0  0  0  0  0  0  0
   -1.1419    0.3531    0.0000 H   0  0  0  0  0  0  0  0  0  0  0  0
   -3.2854    3.2065    0.0000 H   0  0  0  0  0  0  0  0  0  0  0  0
   -3.2854   -0.5075    0.0000 H   0  0  0  0  0  0  0  0  0  0  0  0
   -4.8935    2.2780    0.0000 H   0  0  0  0  0  0  0  0  0  0  0  0
   -1.8564   -0.5455    0.0000 H   0  0  0  0  0  0  0  0  0  0  0  0
   -0.9298   -0.0105    0.0000 H   0  0  0  0  0  0  0  0  0  0  0  0
   -0.2586    2.2720    0.0000 H   0  0  0  0  0  0  0  0  0  0  0  0
   -2.0252    2.2720    0.0000 H   0  0  0  0  0  0  0  0  0  0  0  0
    0.2870    1.9690    0.0000 H   0  0  0  0  0  0  0  0  0  0  0  0
    1.8952    1.0405    0.0000 H   0  0  0  0  0  0  0  0  0  0  0  0
    0.2870   -1.7450    0.0000 H   0  0  0  0  0  0  0  0  0  0  0  0
   -1.3212   -0.8165    0.0000 H   0  0  0  0  0  0  0  0  0  0  0  0
    2.4304    0.7315    0.0000 H   0  0  0  0  0  0  0  0  0  0  0  0
    4.0386   -0.1970    0.0000 H   0  0  0  0  0  0  0  0  0  0  0  0
    4.0386   -2.0540    0.0000 H   0  0  0  0  0  0  0  0  0  0  0  0
    0.8222   -2.0540    0.0000 H   0  0  0  0  0  0  0  0  0  0  0  0
    3.1449   -4.1725    0.0000 H   0  0  0  0  0  0  0  0  0  0  0  0
    3.9975   -2.6957    0.0000 H   0  0  0  0  0  0  0  0  0  0  0  0
  1  2  2  0  0  0  0
  1  6  1  0  0  0  0
  1 28  1  0  0  0  0
  2  3  1  0  0  0  0
  2 23  1  0  0  0  0
  3  4  2  0  0  0  0
  3  7  1  0  0  0  0
  4  5  1  0  0  0  0
  4 29  1  0  0  0  0
  5  6  2  0  0  0  0
  5 22  1  0  0  0  0
  6 30  1  0  0  0  0
  7  8  1  0  0  0  0
  7 31  1  0  0  0  0
  7 32  1  0  0  0  0
  8  9  1  0  0  0  0
  8 10  1  0  0  0  0
  8 27  1  6  0  0  0
  9 11  2  0  0  0  0
  9 15  1  0  0  0  0
 10 33  1  0  0  0  0
 10 34  1  0  0  0  0
 11 12  1  0  0  0  0
 11 35  1  0  0  0  0
 12 13  2  0  0  0  0
 12 36  1  0  0  0  0
 13 14  1  0  0  0  0
 13 16  1  0  0  0  0
 14 15  2  0  0  0  0
 14 37  1  0  0  0  0
 15 38  1  0  0  0  0
 16 17  2  0  0  0  0
 16 21  1  0  0  0  0
 17 18  1  0  0  0  0
 17 39  1  0  0  0  0
 18 19  2  0  0  0  0
 18 40  1  0  0  0  0
 19 20  1  0  0  0  0
 19 41  1  0  0  0  0
 20 21  2  0  0  0  0
 20 24  1  0  0  0  0
 21 42  1  0  0  0  0
 24 25  1  0  0  0  0
 24 26  2  0  0  0  0
 25 43  1  0  0  0  0
 25 44  1  0  0  0  0
M  END
>  <DRUGBANK_ID>
DB07181

>  <COMMON_NAME>
4'-[(1R)-1-amino-2-(2,5-difluorophenyl)ethyl]biphenyl-3-carboxamide

$$$$
