
 OpenBabel10282417072D

 63 66  0  0  0  0  0  0  0  0999 V2000
    2.8709    0.1400    0.0000 C   0  0  0  0  0  0  0  0  0  0  0  0
    3.5029   -0.3902    0.0000 C   0  0  0  0  0  0  0  0  0  0  0  0
    4.2781   -0.1080    0.0000 C   0  0  0  0  0  0  0  0  0  0  0  0
    3.0141    0.9524    0.0000 O   0  0  0  0  0  0  0  0  0  0  0  0
    2.0956   -0.1421    0.0000 N   0  0  0  0  0  0  0  0  0  0  0  0
    1.9523   -0.9546    0.0000 C   0  0  0  0  0  0  0  0  0  0  0  0
    2.5844   -1.4849    0.0000 C   0  0  0  0  0  0  0  0  0  0  0  0
    2.4411   -2.2973    0.0000 C   0  0  0  0  0  0  0  0  0  0  0  0
    1.6658   -2.5795    0.0000 C   0  0  0  0  0  0  0  0  0  0  0  0
    1.0338   -2.0492    0.0000 C   0  0  0  0  0  0  0  0  0  0  0  0
    1.1771   -1.2368    0.0000 C   0  0  0  0  0  0  0  0  0  0  0  0
   -0.5655    0.7063    0.0000 N   0  0  0  0  0  0  0  0  0  0  0  0
   -0.1531   -0.0081    0.0000 C   0  0  0  0  0  0  0  0  0  0  0  0
    0.6720   -0.0082    0.0000 C   0  0  0  0  0  0  0  0  0  0  0  0
    1.0845    0.7063    0.0000 C   0  0  0  0  0  0  0  0  0  0  0  0
    0.6720    1.4208    0.0000 C   0  0  0  0  0  0  0  0  0  0  0  0
   -0.1530    1.4208    0.0000 C   0  0  0  0  0  0  0  0  0  0  0  0
    1.7165    1.2367    0.0000 C   0  0  0  0  0  0  0  0  0  0  0  0
    1.5731    2.0490    0.0000 C   0  0  0  0  0  0  0  0  0  0  0  0
    2.2051    2.5795    0.0000 C   0  0  0  0  0  0  0  0  0  0  0  0
    2.9804    2.2971    0.0000 C   0  0  0  0  0  0  0  0  0  0  0  0
    3.1236    1.4847    0.0000 C   0  0  0  0  0  0  0  0  0  0  0  0
    2.4916    0.9544    0.0000 C   0  0  0  0  0  0  0  0  0  0  0  0
   -1.3904    0.7062    0.0000 C   0  0  0  0  0  0  0  0  0  0  0  0
   -1.8029    1.4208    0.0000 C   0  0  0  0  0  0  0  0  0  0  0  0
   -2.6280    1.4208    0.0000 C   0  0  0  0  0  0  0  0  0  0  0  0
   -3.0406    0.7062    0.0000 C   0  0  0  0  0  0  0  0  0  0  0  0
   -3.8656    0.7061    0.0000 C   0  0  0  0  0  0  0  0  0  0  0  0
   -4.2780    1.4206    0.0000 C   0  0  0  0  0  0  0  0  0  0  0  0
   -3.8656    2.1352    0.0000 C   0  0  0  0  0  0  0  0  0  0  0  0
   -3.0405    2.1351    0.0000 C   0  0  0  0  0  0  0  0  0  0  0  0
    3.3172   -1.4440    0.0000 H   0  0  0  0  0  0  0  0  0  0  0  0
    4.3226   -1.0779    0.0000 H   0  0  0  0  0  0  0  0  0  0  0  0
    5.0978   -0.7957    0.0000 H   0  0  0  0  0  0  0  0  0  0  0  0
    4.4638    0.9458    0.0000 H   0  0  0  0  0  0  0  0  0  0  0  0
    5.2836    0.2580    0.0000 H   0  0  0  0  0  0  0  0  0  0  0  0
    3.5542   -1.1319    0.0000 H   0  0  0  0  0  0  0  0  0  0  0  0
    3.2316   -2.9607    0.0000 H   0  0  0  0  0  0  0  0  0  0  0  0
    1.4866   -3.5958    0.0000 H   0  0  0  0  0  0  0  0  0  0  0  0
    0.0640   -2.4021    0.0000 H   0  0  0  0  0  0  0  0  0  0  0  0
    0.3865   -0.5734    0.0000 H   0  0  0  0  0  0  0  0  0  0  0  0
   -0.6882   -0.9347    0.0000 H   0  0  0  0  0  0  0  0  0  0  0  0
    0.3818   -0.9348    0.0000 H   0  0  0  0  0  0  0  0  0  0  0  0
    1.2070   -0.9349    0.0000 H   0  0  0  0  0  0  0  0  0  0  0  0
    1.7420   -0.0082    0.0000 H   0  0  0  0  0  0  0  0  0  0  0  0
    1.2070    2.3474    0.0000 H   0  0  0  0  0  0  0  0  0  0  0  0
    0.1370    2.3474    0.0000 H   0  0  0  0  0  0  0  0  0  0  0  0
   -0.6880    2.3474    0.0000 H   0  0  0  0  0  0  0  0  0  0  0  0
   -1.2230    1.4208    0.0000 H   0  0  0  0  0  0  0  0  0  0  0  0
    0.6033    2.4018    0.0000 H   0  0  0  0  0  0  0  0  0  0  0  0
    2.0259    3.5958    0.0000 H   0  0  0  0  0  0  0  0  0  0  0  0
    3.7711    2.9603    0.0000 H   0  0  0  0  0  0  0  0  0  0  0  0
    4.0934    1.1317    0.0000 H   0  0  0  0  0  0  0  0  0  0  0  0
    2.6707   -0.0619    0.0000 H   0  0  0  0  0  0  0  0  0  0  0  0
   -1.9254   -0.2205    0.0000 H   0  0  0  0  0  0  0  0  0  0  0  0
   -0.8553   -0.2204    0.0000 H   0  0  0  0  0  0  0  0  0  0  0  0
   -1.2679    2.3474    0.0000 H   0  0  0  0  0  0  0  0  0  0  0  0
   -2.3379    2.3475    0.0000 H   0  0  0  0  0  0  0  0  0  0  0  0
   -2.5246   -0.1875    0.0000 H   0  0  0  0  0  0  0  0  0  0  0  0
   -4.3816   -0.1876    0.0000 H   0  0  0  0  0  0  0  0  0  0  0  0
   -5.3100    1.4206    0.0000 H   0  0  0  0  0  0  0  0  0  0  0  0
   -4.3816    3.0289    0.0000 H   0  0  0  0  0  0  0  0  0  0  0  0
   -2.5245    3.0288    0.0000 H   0  0  0  0  0  0  0  0  0  0  0  0
  1  2  1  0  0  0  0
  1  4  2  0  0  0  0
  1  5  1  0  0  0  0
  2  3  1  0  0  0  0
  2 32  1  0  0  0  0
  2 33  1  0  0  0  0
  3 34  1  0  0  0  0
  3 35  1  0  0  0  0
  3 36  1  0  0  0  0
  5  6  1  0  0  0  0
  5 15  1  0  0  0  0
  6  7  1  0  0  0  0
  6 11  2  0  0  0  0
  7  8  2  0  0  0  0
  7 37  1  0  0  0  0
  8  9  1  0  0  0  0
  8 38  1  0  0  0  0
  9 10  2  0  0  0  0
  9 39  1  0  0  0  0
 10 11  1  0  0  0  0
 10 40  1  0  0  0  0
 11 41  1  0  0  0  0
 12 13  1  0  0  0  0
 12 17  1  0  0  0  0
 12 24  1  0  0  0  0
 13 14  1  0  0  0  0
 13 42  1  0  0  0  0
 13 43  1  0  0  0  0
 14 15  1  0  0  0  0
 14 44  1  0  0  0  0
 14 45  1  0  0  0  0
 15 16  1  0  0  0  0
 15 18  1  0  0  0  0
 16 17  1  0  0  0  0
 16 46  1  0  0  0  0
 16 47  1  0  0  0  0
 17 48  1  0  0  0  0
 17 49  1  0  0  0  0
 18 19  1  0  0  0  0
 18 23  2  0  0  0  0
 19 20  2  0  0  0  0
 19 50  1  0  0  0  0
 20 21  1  0  0  0  0
 20 51  1  0  0  0  0
 21 22  2  0  0  0  0
 21 52  1  0  0  0  0
 22 23  1  0  0  0  0
 22 53  1  0  0  0  0
 23 54  1  0  0  0  0
 24 25  1  0  0  0  0
 24 55  1  0  0  0  0
 24 56  1  0  0  0  0
 25 26  1  0  0  0  0
 25 57  1  0  0  0  0
 25 58  1  0  0  0  0
 26 27  1  0  0  0  0
 26 31  2  0  0  0  0
 27 28  2  0  0  0  0
 27 59  1  0  0  0  0
 28 29  1  0  0  0  0
 28 60  1  0  0  0  0
 29 30  2  0  0  0  0
 29 61  1  0  0  0  0
 30 31  1  0  0  0  0
 30 62  1  0  0  0  0
 31 63  1  0  0  0  0
M  END
>  <DRUGBANK_ID>
DB09168

>  <COMMON_NAME>
4-Phenylfentanyl

>  <CAS_NUMBER>
120448-97-7

>  <UNII>
L9P31JAO37

>  <SYNONYMS>
N-(1-Phenethyl-4-phenyl-4-piperidyl)-N-phenyl-propanamide

$$$$
