1459
 OpenBabel10282417072D

 69 73  0  0  0  0  0  0  0  0999 V2000
    5.1661   -2.3526    0.0000 O   0  0  0  0  0  0  0  0  0  0  0  0
    3.5649   -4.4147    0.0000 O   0  0  0  0  0  0  0  0  0  0  0  0
    4.6285    0.6639    0.0000 N   0  0  0  0  0  0  0  0  0  0  0  0
    3.8596   -1.6886    0.0000 N   0  0  0  0  0  0  0  0  0  0  0  0
    3.8596   -3.0165    0.0000 N   0  0  0  0  0  0  0  0  0  0  0  0
    4.3800    2.9150    0.0000 N   0  0  0  0  0  0  0  0  0  0  0  0
    4.1159   -0.9045    0.0000 C   0  0  0  0  0  0  0  0  0  0  0  0
    4.9232   -0.7343    0.0000 C   0  0  0  0  0  0  0  0  0  0  0  0
    3.5649   -0.2904    0.0000 C   0  0  0  0  0  0  0  0  0  0  0  0
    5.1795    0.0498    0.0000 C   0  0  0  0  0  0  0  0  0  0  0  0
    3.8213    0.4938    0.0000 C   0  0  0  0  0  0  0  0  0  0  0  0
    4.8848    1.4481    0.0000 C   0  0  0  0  0  0  0  0  0  0  0  0
    5.6921    1.6183    0.0000 C   0  0  0  0  0  0  0  0  0  0  0  0
    3.0790   -1.9401    0.0000 C   0  0  0  0  0  0  0  0  0  0  0  0
    5.9484    2.4024    0.0000 C   0  0  0  0  0  0  0  0  0  0  0  0
    4.3411   -2.3526    0.0000 C   0  0  0  0  0  0  0  0  0  0  0  0
    3.0790   -2.7651    0.0000 C   0  0  0  0  0  0  0  0  0  0  0  0
    6.7326    2.1461    0.0000 C   0  0  0  0  0  0  0  0  0  0  0  0
    6.2047    3.1866    0.0000 C   0  0  0  0  0  0  0  0  0  0  0  0
    2.3645   -1.5276    0.0000 C   0  0  0  0  0  0  0  0  0  0  0  0
    2.3645   -3.1776    0.0000 C   0  0  0  0  0  0  0  0  0  0  0  0
    4.1159   -3.8006    0.0000 C   0  0  0  0  0  0  0  0  0  0  0  0
    5.1642    2.6588    0.0000 C   0  0  0  0  0  0  0  0  0  0  0  0
    1.6500   -1.9401    0.0000 C   0  0  0  0  0  0  0  0  0  0  0  0
    1.6500   -2.7651    0.0000 C   0  0  0  0  0  0  0  0  0  0  0  0
    7.3466    2.6971    0.0000 C   0  0  0  0  0  0  0  0  0  0  0  0
    5.6537    3.8006    0.0000 C   0  0  0  0  0  0  0  0  0  0  0  0
    6.9027    1.3388    0.0000 C   0  0  0  0  0  0  0  0  0  0  0  0
    7.0120    3.3567    0.0000 C   0  0  0  0  0  0  0  0  0  0  0  0
    4.9232   -3.9708    0.0000 C   0  0  0  0  0  0  0  0  0  0  0  0
    8.1308    2.4408    0.0000 C   0  0  0  0  0  0  0  0  0  0  0  0
    5.9100    4.5848    0.0000 C   0  0  0  0  0  0  0  0  0  0  0  0
    7.6868    1.0826    0.0000 C   0  0  0  0  0  0  0  0  0  0  0  0
    7.2682    4.1410    0.0000 C   0  0  0  0  0  0  0  0  0  0  0  0
    5.1795   -4.7550    0.0000 C   0  0  0  0  0  0  0  0  0  0  0  0
    8.3009    1.6335    0.0000 C   0  0  0  0  0  0  0  0  0  0  0  0
    6.7173    4.7550    0.0000 C   0  0  0  0  0  0  0  0  0  0  0  0
    4.4483    0.1126    0.0000 H   0  0  0  0  0  0  0  0  0  0  0  0
    5.6378   -1.5307    0.0000 H   0  0  0  0  0  0  0  0  0  0  0  0
    5.9702   -0.5137    0.0000 H   0  0  0  0  0  0  0  0  0  0  0  0
    2.5179   -0.5110    0.0000 H   0  0  0  0  0  0  0  0  0  0  0  0
    2.8504    0.5061    0.0000 H   0  0  0  0  0  0  0  0  0  0  0  0
    6.2265    0.2704    0.0000 H   0  0  0  0  0  0  0  0  0  0  0  0
    5.8941   -0.7466    0.0000 H   0  0  0  0  0  0  0  0  0  0  0  0
    3.1068    1.2902    0.0000 H   0  0  0  0  0  0  0  0  0  0  0  0
    2.7743    0.2732    0.0000 H   0  0  0  0  0  0  0  0  0  0  0  0
    4.1702    2.2445    0.0000 H   0  0  0  0  0  0  0  0  0  0  0  0
    5.2172    2.4652    0.0000 H   0  0  0  0  0  0  0  0  0  0  0  0
    6.4067    0.8219    0.0000 H   0  0  0  0  0  0  0  0  0  0  0  0
    6.7391    1.8389    0.0000 H   0  0  0  0  0  0  0  0  0  0  0  0
    2.3645   -0.4956    0.0000 H   0  0  0  0  0  0  0  0  0  0  0  0
    2.3645   -4.2096    0.0000 H   0  0  0  0  0  0  0  0  0  0  0  0
    0.7563   -1.4241    0.0000 H   0  0  0  0  0  0  0  0  0  0  0  0
    0.7563   -3.2811    0.0000 H   0  0  0  0  0  0  0  0  0  0  0  0
    7.1337    3.7069    0.0000 H   0  0  0  0  0  0  0  0  0  0  0  0
    4.6439    3.5877    0.0000 H   0  0  0  0  0  0  0  0  0  0  0  0
    6.1346    0.6496    0.0000 H   0  0  0  0  0  0  0  0  0  0  0  0
    7.7013    2.5886    0.0000 H   0  0  0  0  0  0  0  0  0  0  0  0
    5.6378   -3.1744    0.0000 H   0  0  0  0  0  0  0  0  0  0  0  0
    5.9702   -4.1915    0.0000 H   0  0  0  0  0  0  0  0  0  0  0  0
    8.8989    3.1300    0.0000 H   0  0  0  0  0  0  0  0  0  0  0  0
    5.2208    5.3529    0.0000 H   0  0  0  0  0  0  0  0  0  0  0  0
    7.8996    0.0728    0.0000 H   0  0  0  0  0  0  0  0  0  0  0  0
    8.2780    4.3539    0.0000 H   0  0  0  0  0  0  0  0  0  0  0  0
    4.4649   -5.5514    0.0000 H   0  0  0  0  0  0  0  0  0  0  0  0
    6.2265   -4.9757    0.0000 H   0  0  0  0  0  0  0  0  0  0  0  0
    5.5119   -5.7721    0.0000 H   0  0  0  0  0  0  0  0  0  0  0  0
    9.2818    1.3128    0.0000 H   0  0  0  0  0  0  0  0  0  0  0  0
    7.0379    5.7359    0.0000 H   0  0  0  0  0  0  0  0  0  0  0  0
  1 16  2  0  0  0  0
  2 22  2  0  0  0  0
  3 10  1  0  0  0  0
  3 11  1  0  0  0  0
  3 12  1  0  0  0  0
  4  7  1  0  0  0  0
  4 14  1  0  0  0  0
  4 16  1  0  0  0  0
  5 16  1  0  0  0  0
  5 17  1  0  0  0  0
  5 22  1  0  0  0  0
  6 23  3  0  0  0  0
  7  8  1  0  0  0  0
  7  9  1  0  0  0  0
  7 38  1  0  0  0  0
  8 10  1  0  0  0  0
  8 39  1  0  0  0  0
  8 40  1  0  0  0  0
  9 11  1  0  0  0  0
  9 41  1  0  0  0  0
  9 42  1  0  0  0  0
 10 43  1  0  0  0  0
 10 44  1  0  0  0  0
 11 45  1  0  0  0  0
 11 46  1  0  0  0  0
 12 13  1  0  0  0  0
 12 47  1  0  0  0  0
 12 48  1  0  0  0  0
 13 15  1  0  0  0  0
 13 49  1  0  0  0  0
 13 50  1  0  0  0  0
 14 17  1  0  0  0  0
 14 20  2  0  0  0  0
 15 18  1  0  0  0  0
 15 19  1  0  0  0  0
 15 23  1  0  0  0  0
 17 21  2  0  0  0  0
 18 26  2  0  0  0  0
 18 28  1  0  0  0  0
 19 27  2  0  0  0  0
 19 29  1  0  0  0  0
 20 24  1  0  0  0  0
 20 51  1  0  0  0  0
 21 25  1  0  0  0  0
 21 52  1  0  0  0  0
 22 30  1  0  0  0  0
 24 25  2  0  0  0  0
 24 53  1  0  0  0  0
 25 54  1  0  0  0  0
 26 31  1  0  0  0  0
 26 55  1  0  0  0  0
 27 32  1  0  0  0  0
 27 56  1  0  0  0  0
 28 33  2  0  0  0  0
 28 57  1  0  0  0  0
 29 34  2  0  0  0  0
 29 58  1  0  0  0  0
 30 35  1  0  0  0  0
 30 59  1  0  0  0  0
 30 60  1  0  0  0  0
 31 36  2  0  0  0  0
 31 61  1  0  0  0  0
 32 37  2  0  0  0  0
 32 62  1  0  0  0  0
 33 36  1  0  0  0  0
 33 63  1  0  0  0  0
 34 37  1  0  0  0  0
 34 64  1  0  0  0  0
 35 65  1  0  0  0  0
 35 66  1  0  0  0  0
 35 67  1  0  0  0  0
 36 68  1  0  0  0  0
 37 69  1  0  0  0  0
M  END
>  <DRUGBANK_ID>
DB01459

>  <COMMON_NAME>
Bezitramide

>  <CAS_NUMBER>
15301-48-1

>  <UNII>
3KXW0Y310I

>  <SYNONYMS>
Bezitramida; Bezitramide; Bezitramidum

$$$$
