
 OpenBabel10282417072D

 50 52  0  0  1  0  0  0  0  0999 V2000
    2.8579   -4.9500    0.0000 C   0  0  0  0  0  0  0  0  0  0  0  0
    2.8579   -5.7750    0.0000 C   0  0  0  0  0  0  0  0  0  0  0  0
    3.5724   -6.1875    0.0000 C   0  0  0  0  0  0  0  0  0  0  0  0
    3.5724   -7.0125    0.0000 C   0  0  0  0  0  0  0  0  0  0  0  0
    2.8579   -7.4250    0.0000 C   0  0  0  0  0  0  0  0  0  0  0  0
    2.1434   -7.0125    0.0000 C   0  0  0  0  0  0  0  0  0  0  0  0
    2.1434   -6.1875    0.0000 C   0  0  0  0  0  0  0  0  0  0  0  0
    1.4289   -5.7750    0.0000 F   0  0  0  0  0  0  0  0  0  0  0  0
    4.2868   -5.7750    0.0000 N   0  0  0  0  0  0  0  0  0  0  0  0
    4.2868   -4.9500    0.0000 C   0  0  0  0  0  0  0  0  0  0  0  0
    3.5724   -4.5375    0.0000 O   0  0  0  0  0  0  0  0  0  0  0  0
    5.0013   -4.5375    0.0000 N   0  0  0  0  0  0  0  0  0  0  0  0
    5.0013   -3.7125    0.0000 C   0  0  0  0  0  0  0  0  0  0  0  0
    4.2868   -3.3000    0.0000 C   0  0  0  0  0  0  0  0  0  0  0  0
    4.2868   -2.4750    0.0000 C   0  0  0  0  0  0  0  0  0  0  0  0
    5.0013   -2.0625    0.0000 C   0  0  0  0  0  0  0  0  0  0  0  0
    5.7158   -2.4750    0.0000 C   0  0  0  0  0  0  0  0  0  0  0  0
    5.7158   -3.3000    0.0000 C   0  0  0  0  0  0  0  0  0  0  0  0
    6.4302   -3.7125    0.0000 O   0  0  0  0  0  0  0  0  0  0  0  0
    6.4302   -2.0625    0.0000 S   0  0  0  0  0  0  0  0  0  0  0  0
    6.8427   -2.7770    0.0000 O   0  0  0  0  0  0  0  0  0  0  0  0
    6.0177   -1.3480    0.0000 O   0  0  0  0  0  0  0  0  0  0  0  0
    7.1447   -1.6500    0.0000 C   0  0  1  0  0  0  0  0  0  0  0  0
    7.1447   -0.8250    0.0000 C   0  0  0  0  0  0  0  0  0  0  0  0
    7.8592   -0.4125    0.0000 C   0  0  0  0  0  0  0  0  0  0  0  0
    8.5737   -0.8250    0.0000 C   0  0  0  0  0  0  0  0  0  0  0  0
    8.5737   -1.6500    0.0000 N   0  0  0  0  0  0  0  0  0  0  0  0
    7.8592   -2.0625    0.0000 C   0  0  0  0  0  0  0  0  0  0  0  0
    5.0013   -1.2375    0.0000 Cl  0  0  0  0  0  0  0  0  0  0  0  0
    3.7845   -4.4150    0.0000 H   0  0  0  0  0  0  0  0  0  0  0  0
    1.9313   -4.4150    0.0000 H   0  0  0  0  0  0  0  0  0  0  0  0
    2.8579   -3.8800    0.0000 H   0  0  0  0  0  0  0  0  0  0  0  0
    4.4661   -7.5285    0.0000 H   0  0  0  0  0  0  0  0  0  0  0  0
    2.8579   -8.4570    0.0000 H   0  0  0  0  0  0  0  0  0  0  0  0
    1.2497   -7.5285    0.0000 H   0  0  0  0  0  0  0  0  0  0  0  0
    5.1394   -6.2672    0.0000 H   0  0  0  0  0  0  0  0  0  0  0  0
    5.8539   -5.0298    0.0000 H   0  0  0  0  0  0  0  0  0  0  0  0
    3.3931   -3.8160    0.0000 H   0  0  0  0  0  0  0  0  0  0  0  0
    3.3931   -1.9590    0.0000 H   0  0  0  0  0  0  0  0  0  0  0  0
    6.4302   -4.6495    0.0000 H   0  0  0  0  0  0  0  0  0  0  0  0
    6.2181   -1.1150    0.0000 H   0  0  0  0  0  0  0  0  0  0  0  0
    6.2181   -0.2900    0.0000 H   0  0  0  0  0  0  0  0  0  0  0  0
    7.1447    0.2450    0.0000 H   0  0  0  0  0  0  0  0  0  0  0  0
    7.8592    0.6575    0.0000 H   0  0  0  0  0  0  0  0  0  0  0  0
    8.7858    0.1225    0.0000 H   0  0  0  0  0  0  0  0  0  0  0  0
    9.5003   -0.2900    0.0000 H   0  0  0  0  0  0  0  0  0  0  0  0
    9.5003   -1.3600    0.0000 H   0  0  0  0  0  0  0  0  0  0  0  0
    9.4570   -2.1600    0.0000 H   0  0  0  0  0  0  0  0  0  0  0  0
    7.8592   -3.1325    0.0000 H   0  0  0  0  0  0  0  0  0  0  0  0
    6.9326   -2.5975    0.0000 H   0  0  0  0  0  0  0  0  0  0  0  0
  1  2  1  0  0  0  0
  1 30  1  0  0  0  0
  1 31  1  0  0  0  0
  1 32  1  0  0  0  0
  2  3  2  0  0  0  0
  2  7  1  0  0  0  0
  3  4  1  0  0  0  0
  3  9  1  0  0  0  0
  4  5  2  0  0  0  0
  4 33  1  0  0  0  0
  5  6  1  0  0  0  0
  5 34  1  0  0  0  0
  6  7  2  0  0  0  0
  6 35  1  0  0  0  0
  7  8  1  0  0  0  0
  9 10  1  0  0  0  0
  9 36  1  0  0  0  0
 10 11  2  0  0  0  0
 10 12  1  0  0  0  0
 12 13  1  0  0  0  0
 12 37  1  0  0  0  0
 13 14  2  0  0  0  0
 13 18  1  0  0  0  0
 14 15  1  0  0  0  0
 14 38  1  0  0  0  0
 15 16  2  0  0  0  0
 15 39  1  0  0  0  0
 16 17  1  0  0  0  0
 16 29  1  0  0  0  0
 17 18  2  0  0  0  0
 17 20  1  0  0  0  0
 18 19  1  0  0  0  0
 19 40  1  0  0  0  0
 20 21  2  0  0  0  0
 20 22  2  0  0  0  0
 23 20  1  0  0  0  0
 23 24  1  0  0  0  0
 23 28  1  0  0  0  0
 23 41  1  6  0  0  0
 24 25  1  0  0  0  0
 24 42  1  0  0  0  0
 24 43  1  0  0  0  0
 25 26  1  0  0  0  0
 25 44  1  0  0  0  0
 25 45  1  0  0  0  0
 26 27  1  0  0  0  0
 26 46  1  0  0  0  0
 26 47  1  0  0  0  0
 27 28  1  0  0  0  0
 27 48  1  0  0  0  0
 28 49  1  0  0  0  0
 28 50  1  0  0  0  0
M  END
>  <DRUGBANK_ID>
DB11922

>  <COMMON_NAME>
Danirixin

>  <CAS_NUMBER>
954126-98-8

>  <UNII>
R318PGH5VP

>  <SYNONYMS>
Danirixin

$$$$
