
 OpenBabel10282417072D

 56 59  0  0  0  0  0  0  0  0999 V2000
   -1.4401   -1.6142    0.0000 C   0  0  0  0  0  0  0  0  0  0  0  0
   -0.6377   -0.4319    0.0000 C   0  0  0  0  0  0  0  0  0  0  0  0
    1.2055    2.0524    0.0000 C   0  0  0  0  0  0  0  0  0  0  0  0
    2.0975    1.5399    0.0000 C   0  0  0  0  0  0  0  0  0  0  0  0
    3.9725    1.0349    0.0000 C   0  0  0  0  0  0  0  0  0  0  0  0
    4.2408    0.2548    0.0000 C   0  0  0  0  0  0  0  0  0  0  0  0
    3.1627    1.1927    0.0000 C   0  0  0  0  0  0  0  0  0  0  0  0
    3.6993   -0.3677    0.0000 C   0  0  0  0  0  0  0  0  0  0  0  0
   -1.2597   -0.4340    0.0000 C   0  0  0  0  0  0  0  0  0  0  0  0
   -1.8633   -0.9964    0.0000 C   0  0  0  0  0  0  0  0  0  0  0  0
   -2.2338    0.6115    0.0000 C   0  0  0  0  0  0  0  0  0  0  0  0
    0.0722   -0.1247    0.0000 C   0  0  0  0  0  0  0  0  0  0  0  0
    0.5074    1.2968    0.0000 C   0  0  0  0  0  0  0  0  0  0  0  0
   -0.6976   -1.2547    0.0000 C   0  0  0  0  0  0  0  0  0  0  0  0
   -1.4449    0.3699    0.0000 C   0  0  0  0  0  0  0  0  0  0  0  0
    2.6212    0.5702    0.0000 C   0  0  0  0  0  0  0  0  0  0  0  0
    0.7875   -0.5357    0.0000 C   0  0  0  0  0  0  0  0  0  0  0  0
   -2.6521   -0.7549    0.0000 C   0  0  0  0  0  0  0  0  0  0  0  0
   -2.8374    0.0490    0.0000 C   0  0  0  0  0  0  0  0  0  0  0  0
    2.8895   -0.2099    0.0000 C   0  0  0  0  0  0  0  0  0  0  0  0
    1.7964    0.5562    0.0000 C   0  0  0  0  0  0  0  0  0  0  0  0
    1.5548   -0.2327    0.0000 C   0  0  0  0  0  0  0  0  0  0  0  0
   -0.8414    0.9323    0.0000 C   0  0  0  0  0  0  0  0  0  0  0  0
    0.7276   -1.3585    0.0000 C   0  0  0  0  0  0  0  0  0  0  0  0
    1.3302    1.2368    0.0000 C   0  0  0  0  0  0  0  0  0  0  0  0
   -3.2557   -1.3173    0.0000 F   0  0  0  0  0  0  0  0  0  0  0  0
   -3.6262    0.2906    0.0000 F   0  0  0  0  0  0  0  0  0  0  0  0
    2.2305   -0.7062    0.0000 N   0  0  0  0  0  0  0  0  0  0  0  0
   -0.0525    0.6908    0.0000 N   0  0  0  0  0  0  0  0  0  0  0  0
   -1.0266    1.7363    0.0000 O   0  0  0  0  0  0  0  0  0  0  0  0
    1.4102   -1.8218    0.0000 O   0  0  0  0  0  0  0  0  0  0  0  0
   -0.0150   -1.7180    0.0000 O   0  0  0  0  0  0  0  0  0  0  0  0
   -2.3254   -1.0133    0.0000 H   0  0  0  0  0  0  0  0  0  0  0  0
   -1.5178   -2.6814    0.0000 H   0  0  0  0  0  0  0  0  0  0  0  0
   -2.4032   -2.0805    0.0000 H   0  0  0  0  0  0  0  0  0  0  0  0
    0.3253    0.0344    0.0000 H   0  0  0  0  0  0  0  0  0  0  0  0
   -1.5231    0.1690    0.0000 H   0  0  0  0  0  0  0  0  0  0  0  0
   -0.5600    0.6353    0.0000 H   0  0  0  0  0  0  0  0  0  0  0  0
    2.0406    2.7213    0.0000 H   0  0  0  0  0  0  0  0  0  0  0  0
    0.2086    2.4412    0.0000 H   0  0  0  0  0  0  0  0  0  0  0  0
    1.0438    3.1101    0.0000 H   0  0  0  0  0  0  0  0  0  0  0  0
    2.9355    0.8746    0.0000 H   0  0  0  0  0  0  0  0  0  0  0  0
    2.2546    2.5983    0.0000 H   0  0  0  0  0  0  0  0  0  0  0  0
    3.0927    1.9330    0.0000 H   0  0  0  0  0  0  0  0  0  0  0  0
    4.6499    1.8135    0.0000 H   0  0  0  0  0  0  0  0  0  0  0  0
    5.2538    0.0575    0.0000 H   0  0  0  0  0  0  0  0  0  0  0  0
    2.8271    2.1686    0.0000 H   0  0  0  0  0  0  0  0  0  0  0  0
    4.0349   -1.3436    0.0000 H   0  0  0  0  0  0  0  0  0  0  0  0
   -0.2729   -0.7362    0.0000 H   0  0  0  0  0  0  0  0  0  0  0  0
   -1.6316   -2.0020    0.0000 H   0  0  0  0  0  0  0  0  0  0  0  0
   -2.4655    1.6171    0.0000 H   0  0  0  0  0  0  0  0  0  0  0  0
   -0.7793   -0.7078    0.0000 H   0  0  0  0  0  0  0  0  0  0  0  0
    0.1144    2.2920    0.0000 H   0  0  0  0  0  0  0  0  0  0  0  0
   -0.5444    1.4935    0.0000 H   0  0  0  0  0  0  0  0  0  0  0  0
    0.2655   -0.7884    0.0000 H   0  0  0  0  0  0  0  0  0  0  0  0
    2.2474   -1.6906    0.0000 H   0  0  0  0  0  0  0  0  0  0  0  0
  1 33  1  0  0  0  0
  1 34  1  0  0  0  0
  1 35  1  0  0  0  0
  2 36  1  0  0  0  0
  2 37  1  0  0  0  0
  2 38  1  0  0  0  0
  3 39  1  0  0  0  0
  3 40  1  0  0  0  0
  3 41  1  0  0  0  0
  4 42  1  0  0  0  0
  4 43  1  0  0  0  0
  4 44  1  0  0  0  0
  5 45  1  0  0  0  0
  6  5  2  0  0  0  0
  6 46  1  0  0  0  0
  7  5  1  0  0  0  0
  7 47  1  0  0  0  0
  8  6  1  0  0  0  0
  8 48  1  0  0  0  0
  9 49  1  0  0  0  0
 10  9  2  0  0  0  0
 10 50  1  0  0  0  0
 11 51  1  0  0  0  0
 12 52  1  0  0  0  0
 13 53  1  0  0  0  0
 13 54  1  0  0  0  0
 14  1  1  0  0  0  0
 14  2  1  0  0  0  0
 14 55  1  0  0  0  0
 15  9  1  0  0  0  0
 15 11  2  0  0  0  0
 16  7  2  0  0  0  0
 17 12  2  0  0  0  0
 18 10  1  0  0  0  0
 19 11  1  0  0  0  0
 19 18  2  0  0  0  0
 20  8  2  0  0  0  0
 20 16  1  0  0  0  0
 21 16  1  0  0  0  0
 22 17  1  0  0  0  0
 22 21  2  0  0  0  0
 23 15  1  0  0  0  0
 24 17  1  0  0  0  0
 25  3  1  0  0  0  0
 25  4  1  0  0  0  0
 25 13  1  0  0  0  0
 25 21  1  0  0  0  0
 26 18  1  0  0  0  0
 27 19  1  0  0  0  0
 28 20  1  0  0  0  0
 28 22  1  0  0  0  0
 28 56  1  0  0  0  0
 29 12  1  0  0  0  0
 29 13  1  0  0  0  0
 29 23  1  0  0  0  0
 30 23  2  0  0  0  0
 31 24  2  0  0  0  0
 32 14  1  0  0  0  0
 32 24  1  0  0  0  0
M  END
>  <DRUGBANK_ID>
DB12719

>  <COMMON_NAME>
Turofexorate isopropyl

>  <CAS_NUMBER>
629664-81-9

>  <UNII>
S6KDM312I5

>  <SYNONYMS>
Turofexorate isopropyl

$$$$
