
 OpenBabel10282417072D

 44 46  0  0  0  0  0  0  0  0999 V2000
   -1.8414    3.5382    0.0000 C   0  0  0  0  0  0  0  0  0  0  0  0
   -2.5559    3.1257    0.0000 C   0  0  0  0  0  0  0  0  0  0  0  0
   -1.1270    3.1257    0.0000 C   0  0  0  0  0  0  0  0  0  0  0  0
   -2.5559    2.3007    0.0000 C   0  0  0  0  0  0  0  0  0  0  0  0
   -1.1270    2.3007    0.0000 C   0  0  0  0  0  0  0  0  0  0  0  0
   -4.3974    2.4112    0.0000 C   0  0  0  0  0  0  0  0  0  0  0  0
   -3.6829    1.1737    0.0000 C   0  0  0  0  0  0  0  0  0  0  0  0
   -1.4289    0.3487    0.0000 C   0  0  0  0  0  0  0  0  0  0  0  0
   -5.1118    0.3487    0.0000 C   0  0  0  0  0  0  0  0  0  0  0  0
   -1.8414    1.8882    0.0000 C   0  0  0  0  0  0  0  0  0  0  0  0
   -4.3974    1.5862    0.0000 C   0  0  3  0  0  0  0  0  0  0  0  0
   -1.8414    1.0632    0.0000 C   0  0  3  0  0  0  0  0  0  0  0  0
   -5.1118    2.8237    0.0000 C   0  0  3  0  0  0  0  0  0  0  0  0
   -2.2539    0.3487    0.0000 C   0  0  3  0  0  0  0  0  0  0  0  0
   -3.6829    0.3487    0.0000 C   0  0  0  0  0  0  0  0  0  0  0  0
   -5.1118    1.1737    0.0000 C   0  0  0  0  0  0  0  0  0  0  0  0
   -4.3974   -0.0638    0.0000 C   0  0  0  0  0  0  0  0  0  0  0  0
   -5.1118    3.6487    0.0000 C   0  0  0  0  0  0  0  0  0  0  0  0
   -5.8263    2.4112    0.0000 N   0  0  0  0  0  0  0  0  0  0  0  0
   -2.9684   -0.0638    0.0000 N   0  0  0  0  0  0  0  0  0  0  0  0
   -5.8263    1.5862    0.0000 O   0  0  0  0  0  0  0  0  0  0  0  0
   -4.3974   -0.8888    0.0000 O   0  0  0  0  0  0  0  0  0  0  0  0
   -5.8263    4.0612    0.0000 O   0  0  0  0  0  0  0  0  0  0  0  0
   -4.3974    4.0612    0.0000 O   0  0  0  0  0  0  0  0  0  0  0  0
   -1.8414    4.5702    0.0000 H   0  0  0  0  0  0  0  0  0  0  0  0
   -3.4496    3.6417    0.0000 H   0  0  0  0  0  0  0  0  0  0  0  0
   -0.2333    3.6417    0.0000 H   0  0  0  0  0  0  0  0  0  0  0  0
   -3.4496    1.7847    0.0000 H   0  0  0  0  0  0  0  0  0  0  0  0
   -0.2333    1.7847    0.0000 H   0  0  0  0  0  0  0  0  0  0  0  0
   -3.4707    2.9462    0.0000 H   0  0  0  0  0  0  0  0  0  0  0  0
   -4.3974    3.4812    0.0000 H   0  0  0  0  0  0  0  0  0  0  0  0
   -2.7563    1.7087    0.0000 H   0  0  0  0  0  0  0  0  0  0  0  0
   -2.7563    0.6387    0.0000 H   0  0  0  0  0  0  0  0  0  0  0  0
   -0.5023   -0.1863    0.0000 H   0  0  0  0  0  0  0  0  0  0  0  0
   -1.7058   -0.6848    0.0000 H   0  0  0  0  0  0  0  0  0  0  0  0
   -6.0055   -0.1673    0.0000 H   0  0  0  0  0  0  0  0  0  0  0  0
   -3.4708    2.1212    0.0000 H   0  0  0  0  0  0  0  0  0  0  0  0
   -0.8079    1.3401    0.0000 H   0  0  0  0  0  0  0  0  0  0  0  0
   -4.1851    3.3587    0.0000 H   0  0  0  0  0  0  0  0  0  0  0  0
   -1.3273    0.8837    0.0000 H   0  0  0  0  0  0  0  0  0  0  0  0
   -6.7096    2.9212    0.0000 H   0  0  0  0  0  0  0  0  0  0  0  0
   -5.8263    1.3912    0.0000 H   0  0  0  0  0  0  0  0  0  0  0  0
   -5.2089   -1.3573    0.0000 H   0  0  0  0  0  0  0  0  0  0  0  0
   -3.5859    3.5927    0.0000 H   0  0  0  0  0  0  0  0  0  0  0  0
  1 25  1  0  0  0  0
  2  1  2  0  0  0  0
  2 26  1  0  0  0  0
  3  1  1  0  0  0  0
  3 27  1  0  0  0  0
  4  2  1  0  0  0  0
  4 28  1  0  0  0  0
  5  3  2  0  0  0  0
  5 29  1  0  0  0  0
  6 30  1  0  0  0  0
  6 31  1  0  0  0  0
  7 32  1  0  0  0  0
  7 33  1  0  0  0  0
  8 34  1  0  0  0  0
  8 35  1  0  0  0  0
  9 36  1  0  0  0  0
 10  4  2  0  0  0  0
 10  5  1  0  0  0  0
 11  6  1  0  0  0  0
 11  7  1  0  0  0  0
 11 37  1  0  0  0  0
 12  8  1  0  0  0  0
 12 10  1  0  0  0  0
 12 38  1  0  0  0  0
 13  6  1  0  0  0  0
 13 39  1  0  0  0  0
 14  8  1  0  0  0  0
 14 12  1  0  0  0  0
 14 40  1  0  0  0  0
 15  7  1  0  0  0  0
 16  9  1  0  0  0  0
 16 11  1  0  0  0  0
 17  9  2  0  0  0  0
 17 15  1  0  0  0  0
 18 13  1  0  0  0  0
 19 13  1  0  0  0  0
 19 41  1  0  0  0  0
 19 42  1  0  0  0  0
 20 14  1  0  0  0  0
 20 15  2  0  0  0  0
 21 16  2  0  0  0  0
 22 17  1  0  0  0  0
 22 43  1  0  0  0  0
 23 18  2  0  0  0  0
 24 18  1  0  0  0  0
 24 44  1  0  0  0  0
M  END
>  <DRUGBANK_ID>
DB01657

>  <SECONDARY_ACCESSION_NUMBERS>
EXPT03142

>  <COMMON_NAME>
2-amino-3-[4-hydroxy-6-oxo-3-(2-phenyl-cyclopropylimino)-cyclohexa-1,4-dienyl]-propionic acid

$$$$
