
 OpenBabel10282417072D

 62 64  0  0  0  0  0  0  0  0999 V2000
    4.3035   -0.2569    0.0000 N   0  0  0  0  0  0  0  0  0  0  0  0
    6.4807   -0.1006    0.0000 N   0  0  0  0  0  0  0  0  0  0  0  0
    3.7202   -1.6369    0.0000 C   0  0  3  0  0  0  0  0  0  0  0  0
    3.0302   -0.4420    0.0000 C   0  0  3  0  0  0  0  0  0  0  0  0
    2.4601   -1.9959    0.0000 C   0  0  3  0  0  0  0  0  0  0  0  0
    2.3404   -1.6369    0.0000 C   0  0  3  0  0  0  0  0  0  0  0  0
    3.7202   -0.8403    0.0000 C   0  0  3  0  0  0  0  0  0  0  0  0
    3.2073   -2.3892    0.0000 C   0  0  0  0  0  0  0  0  0  0  0  0
    3.0302   -1.8866    0.0000 C   0  0  0  0  0  0  0  0  0  0  0  0
    2.4601   -1.1335    0.0000 C   0  0  0  0  0  0  0  0  0  0  0  0
    2.3404   -0.8403    0.0000 C   0  0  0  0  0  0  0  0  0  0  0  0
    1.6500   -2.0352    0.0000 C   0  0  0  0  0  0  0  0  0  0  0  0
    5.1004   -0.4705    0.0000 C   0  0  0  0  0  0  0  0  0  0  0  0
    5.6838    0.1129    0.0000 C   0  0  0  0  0  0  0  0  0  0  0  0
    7.0640    0.4828    0.0000 C   0  0  0  0  0  0  0  0  0  0  0  0
    7.8610    0.2692    0.0000 C   0  0  0  0  0  0  0  0  0  0  0  0
    8.4443    0.8526    0.0000 C   0  0  0  0  0  0  0  0  0  0  0  0
    9.2412    0.6390    0.0000 C   0  0  0  0  0  0  0  0  0  0  0  0
    8.2308    1.6495    0.0000 C   0  0  0  0  0  0  0  0  0  0  0  0
    9.8246    1.2224    0.0000 C   0  0  0  0  0  0  0  0  0  0  0  0
   10.6215    1.0089    0.0000 C   0  0  0  0  0  0  0  0  0  0  0  0
   11.2048    1.5922    0.0000 C   0  0  0  0  0  0  0  0  0  0  0  0
   10.9913    2.3892    0.0000 C   0  0  0  0  0  0  0  0  0  0  0  0
   12.0017    1.3787    0.0000 C   0  0  0  0  0  0  0  0  0  0  0  0
    4.0395    0.7283    0.0000 H   0  0  0  0  0  0  0  0  0  0  0  0
    6.7448   -1.0858    0.0000 H   0  0  0  0  0  0  0  0  0  0  0  0
    2.6977   -1.3215    0.0000 H   0  0  0  0  0  0  0  0  0  0  0  0
    3.2206   -1.4949    0.0000 H   0  0  0  0  0  0  0  0  0  0  0  0
    3.3761   -1.4429    0.0000 H   0  0  0  0  0  0  0  0  0  0  0  0
    3.2164   -1.0224    0.0000 H   0  0  0  0  0  0  0  0  0  0  0  0
    4.7088   -1.2497    0.0000 H   0  0  0  0  0  0  0  0  0  0  0  0
    3.4657   -3.4275    0.0000 H   0  0  0  0  0  0  0  0  0  0  0  0
    2.3654   -3.0495    0.0000 H   0  0  0  0  0  0  0  0  0  0  0  0
    3.0302   -2.9566    0.0000 H   0  0  0  0  0  0  0  0  0  0  0  0
    2.1542   -2.5011    0.0000 H   0  0  0  0  0  0  0  0  0  0  0  0
    1.4531   -0.7719    0.0000 H   0  0  0  0  0  0  0  0  0  0  0  0
    1.5849   -1.7491    0.0000 H   0  0  0  0  0  0  0  0  0  0  0  0
    1.4137   -0.3053    0.0000 H   0  0  0  0  0  0  0  0  0  0  0  0
    1.4138   -1.3753    0.0000 H   0  0  0  0  0  0  0  0  0  0  0  0
    0.6234   -2.3369    0.0000 H   0  0  0  0  0  0  0  0  0  0  0  0
    1.2288   -1.0516    0.0000 H   0  0  0  0  0  0  0  0  0  0  0  0
    5.3773   -1.5041    0.0000 H   0  0  0  0  0  0  0  0  0  0  0  0
    6.1339   -0.7475    0.0000 H   0  0  0  0  0  0  0  0  0  0  0  0
    5.4068    1.1464    0.0000 H   0  0  0  0  0  0  0  0  0  0  0  0
    4.6503    0.3898    0.0000 H   0  0  0  0  0  0  0  0  0  0  0  0
    6.7870    1.5163    0.0000 H   0  0  0  0  0  0  0  0  0  0  0  0
    7.8206    1.2394    0.0000 H   0  0  0  0  0  0  0  0  0  0  0  0
    8.1281   -0.7276    0.0000 H   0  0  0  0  0  0  0  0  0  0  0  0
    9.5181   -0.3946    0.0000 H   0  0  0  0  0  0  0  0  0  0  0  0
   10.2747    0.3620    0.0000 H   0  0  0  0  0  0  0  0  0  0  0  0
    8.9874    2.4061    0.0000 H   0  0  0  0  0  0  0  0  0  0  0  0
    7.1973    1.9265    0.0000 H   0  0  0  0  0  0  0  0  0  0  0  0
    7.9539    2.6830    0.0000 H   0  0  0  0  0  0  0  0  0  0  0  0
    9.5476    2.2559    0.0000 H   0  0  0  0  0  0  0  0  0  0  0  0
   10.5812    1.9790    0.0000 H   0  0  0  0  0  0  0  0  0  0  0  0
   10.8886    0.0121    0.0000 H   0  0  0  0  0  0  0  0  0  0  0  0
   11.7480    3.1458    0.0000 H   0  0  0  0  0  0  0  0  0  0  0  0
    9.9578    2.6662    0.0000 H   0  0  0  0  0  0  0  0  0  0  0  0
   10.7144    3.4228    0.0000 H   0  0  0  0  0  0  0  0  0  0  0  0
   12.2787    0.3452    0.0000 H   0  0  0  0  0  0  0  0  0  0  0  0
   12.7583    2.1353    0.0000 H   0  0  0  0  0  0  0  0  0  0  0  0
   13.0352    1.1018    0.0000 H   0  0  0  0  0  0  0  0  0  0  0  0
  1  7  1  0  0  0  0
  1 13  1  0  0  0  0
  1 25  1  0  0  0  0
  2 14  1  0  0  0  0
  2 15  1  0  0  0  0
  2 26  1  0  0  0  0
  3  7  1  0  0  0  0
  3  8  1  0  0  0  0
  3  9  1  0  0  0  0
  3 27  1  0  0  0  0
  4  7  1  0  0  0  0
  4 10  1  0  0  0  0
  4 11  1  0  0  0  0
  4 28  1  0  0  0  0
  5  8  1  0  0  0  0
  5 10  1  0  0  0  0
  5 12  1  0  0  0  0
  5 29  1  0  0  0  0
  6  9  1  0  0  0  0
  6 11  1  0  0  0  0
  6 12  1  0  0  0  0
  6 30  1  0  0  0  0
  7 31  1  0  0  0  0
  8 32  1  0  0  0  0
  8 33  1  0  0  0  0
  9 34  1  0  0  0  0
  9 35  1  0  0  0  0
 10 36  1  0  0  0  0
 10 37  1  0  0  0  0
 11 38  1  0  0  0  0
 11 39  1  0  0  0  0
 12 40  1  0  0  0  0
 12 41  1  0  0  0  0
 13 14  1  0  0  0  0
 13 42  1  0  0  0  0
 13 43  1  0  0  0  0
 14 44  1  0  0  0  0
 14 45  1  0  0  0  0
 15 16  1  0  0  0  0
 15 46  1  0  0  0  0
 15 47  1  0  0  0  0
 16 17  2  0  0  0  0
 16 48  1  0  0  0  0
 17 18  1  0  0  0  0
 17 19  1  0  0  0  0
 18 20  1  0  0  0  0
 18 49  1  0  0  0  0
 18 50  1  0  0  0  0
 19 51  1  0  0  0  0
 19 52  1  0  0  0  0
 19 53  1  0  0  0  0
 20 21  1  0  0  0  0
 20 54  1  0  0  0  0
 20 55  1  0  0  0  0
 21 22  2  0  0  0  0
 21 56  1  0  0  0  0
 22 23  1  0  0  0  0
 22 24  1  0  0  0  0
 23 57  1  0  0  0  0
 23 58  1  0  0  0  0
 23 59  1  0  0  0  0
 24 60  1  0  0  0  0
 24 61  1  0  0  0  0
 24 62  1  0  0  0  0
M  END
>  <DRUGBANK_ID>
DB05186

>  <COMMON_NAME>
SQ-109

>  <CAS_NUMBER>
502487-67-4

>  <UNII>
9AU7XUV31A

>  <SYNONYMS>
N-adamantanyl-N'-geranyl-ethylenediamine

$$$$
