
 OpenBabel10282417072D

 36 38  0  0  0  0  0  0  0  0999 V2000
   -0.0523   -3.0939    0.0000 F   0  0  0  0  0  0  0  0  0  0  0  0
   -0.0523    1.8563    0.0000 O   0  0  0  0  0  0  0  0  0  0  0  0
   -0.0523    0.2062    0.0000 O   0  0  0  0  0  0  0  0  0  0  0  0
   -1.4813    2.6814    0.0000 N   0  0  0  0  0  0  0  0  0  0  0  0
    1.4428   -0.7799    0.0000 C   0  0  0  0  0  0  0  0  0  0  0  0
    0.6621   -1.0313    0.0000 C   0  0  0  0  0  0  0  0  0  0  0  0
    1.9243   -1.4438    0.0000 C   0  0  0  0  0  0  0  0  0  0  0  0
    1.4428   -2.1078    0.0000 C   0  0  0  0  0  0  0  0  0  0  0  0
    0.6621   -1.8563    0.0000 C   0  0  0  0  0  0  0  0  0  0  0  0
   -0.7668    1.4438    0.0000 C   0  0  1  0  0  0  0  0  0  0  0  0
   -1.4813    1.8563    0.0000 C   0  0  0  0  0  0  0  0  0  0  0  0
   -0.0523   -0.6187    0.0000 C   0  0  0  0  0  0  0  0  0  0  0  0
   -0.7668    0.6187    0.0000 C   0  0  0  0  0  0  0  0  0  0  0  0
   -0.7668    3.0939    0.0000 C   0  0  0  0  0  0  0  0  0  0  0  0
   -0.0523    2.6814    0.0000 C   0  0  0  0  0  0  0  0  0  0  0  0
   -0.0523   -2.2689    0.0000 C   0  0  0  0  0  0  0  0  0  0  0  0
   -0.7668   -1.0313    0.0000 C   0  0  0  0  0  0  0  0  0  0  0  0
   -0.7668   -1.8563    0.0000 C   0  0  0  0  0  0  0  0  0  0  0  0
   -1.9243    2.9372    0.0000 H   0  0  0  0  0  0  0  0  0  0  0  0
    1.7752    0.2372    0.0000 H   0  0  0  0  0  0  0  0  0  0  0  0
    2.4998   -0.6139    0.0000 H   0  0  0  0  0  0  0  0  0  0  0  0
    2.9943   -1.4438    0.0000 H   0  0  0  0  0  0  0  0  0  0  0  0
    2.4105   -2.3969    0.0000 H   0  0  0  0  0  0  0  0  0  0  0  0
    1.7752   -3.1249    0.0000 H   0  0  0  0  0  0  0  0  0  0  0  0
    0.6878   -2.8660    0.0000 H   0  0  0  0  0  0  0  0  0  0  0  0
    0.1598    0.9088    0.0000 H   0  0  0  0  0  0  0  0  0  0  0  0
   -2.4079    1.3213    0.0000 H   0  0  0  0  0  0  0  0  0  0  0  0
   -1.4813    0.7863    0.0000 H   0  0  0  0  0  0  0  0  0  0  0  0
   -1.6934    0.0837    0.0000 H   0  0  0  0  0  0  0  0  0  0  0  0
   -1.6934    1.1537    0.0000 H   0  0  0  0  0  0  0  0  0  0  0  0
   -0.7668    4.1639    0.0000 H   0  0  0  0  0  0  0  0  0  0  0  0
    0.1598    3.6289    0.0000 H   0  0  0  0  0  0  0  0  0  0  0  0
    0.8743    3.2164    0.0000 H   0  0  0  0  0  0  0  0  0  0  0  0
   -0.0523    3.7514    0.0000 H   0  0  0  0  0  0  0  0  0  0  0  0
   -1.6606   -0.5153    0.0000 H   0  0  0  0  0  0  0  0  0  0  0  0
   -1.6606   -2.3723    0.0000 H   0  0  0  0  0  0  0  0  0  0  0  0
  1 16  1  0  0  0  0
  2 10  1  0  0  0  0
  2 15  1  0  0  0  0
  3 12  1  0  0  0  0
  3 13  1  0  0  0  0
  4 11  1  0  0  0  0
  4 14  1  0  0  0  0
  4 19  1  0  0  0  0
  5  6  1  0  0  0  0
  5  7  1  0  0  0  0
  5 20  1  0  0  0  0
  5 21  1  0  0  0  0
  6  9  1  0  0  0  0
  6 12  2  0  0  0  0
  7  8  1  0  0  0  0
  7 22  1  0  0  0  0
  7 23  1  0  0  0  0
  8  9  1  0  0  0  0
  8 24  1  0  0  0  0
  8 25  1  0  0  0  0
  9 16  2  0  0  0  0
 10 11  1  0  0  0  0
 10 13  1  0  0  0  0
 10 26  1  1  0  0  0
 11 27  1  0  0  0  0
 11 28  1  0  0  0  0
 12 17  1  0  0  0  0
 13 29  1  0  0  0  0
 13 30  1  0  0  0  0
 14 15  1  0  0  0  0
 14 31  1  0  0  0  0
 14 32  1  0  0  0  0
 15 33  1  0  0  0  0
 15 34  1  0  0  0  0
 16 18  1  0  0  0  0
 17 18  2  0  0  0  0
 17 35  1  0  0  0  0
 18 36  1  0  0  0  0
M  END
>  <DRUGBANK_ID>
DB09196

>  <COMMON_NAME>
Lubazodone

>  <CAS_NUMBER>
161178-07-0

>  <UNII>
850TB2B172

>  <SYNONYMS>
Lubazodone

$$$$
