
 OpenBabel10282417072D

 45 47  0  0  0  0  0  0  0  0999 V2000
   -2.2754   -2.2506    0.0000 C   0  0  0  0  0  0  0  0  0  0  0  0
   -1.8628   -1.5361    0.0000 N   0  0  0  0  0  0  0  0  0  0  0  0
   -2.2754   -0.8216    0.0000 C   0  0  0  0  0  0  0  0  0  0  0  0
   -3.1004   -0.8216    0.0000 N   0  0  0  0  0  0  0  0  0  0  0  0
   -3.5129   -1.5361    0.0000 C   0  0  0  0  0  0  0  0  0  0  0  0
   -3.1004   -2.2506    0.0000 N   0  0  0  0  0  0  0  0  0  0  0  0
   -1.8628   -2.9651    0.0000 O   0  0  0  0  0  0  0  0  0  0  0  0
   -1.8628   -0.1071    0.0000 O   0  0  0  0  0  0  0  0  0  0  0  0
   -4.3379   -1.5361    0.0000 O   0  0  0  0  0  0  0  0  0  0  0  0
   -1.0378   -1.5361    0.0000 C   0  0  0  0  0  0  0  0  0  0  0  0
   -0.6253   -2.2506    0.0000 C   0  0  0  0  0  0  0  0  0  0  0  0
    0.6121   -1.5361    0.0000 C   0  0  0  0  0  0  0  0  0  0  0  0
   -0.6253   -0.8216    0.0000 C   0  0  0  0  0  0  0  0  0  0  0  0
    0.1996   -2.2506    0.0000 C   0  0  0  0  0  0  0  0  0  0  0  0
    0.1996   -0.8216    0.0000 C   0  0  0  0  0  0  0  0  0  0  0  0
    0.6121   -2.9651    0.0000 C   0  0  0  0  0  0  0  0  0  0  0  0
    1.4371   -1.5361    0.0000 O   0  0  0  0  0  0  0  0  0  0  0  0
    1.8496   -0.8216    0.0000 C   0  0  0  0  0  0  0  0  0  0  0  0
    2.6747   -0.8216    0.0000 C   0  0  0  0  0  0  0  0  0  0  0  0
    3.0872   -0.1071    0.0000 C   0  0  0  0  0  0  0  0  0  0  0  0
    2.6747    0.6073    0.0000 C   0  0  0  0  0  0  0  0  0  0  0  0
    1.8496    0.6073    0.0000 C   0  0  0  0  0  0  0  0  0  0  0  0
    1.4371   -0.1071    0.0000 C   0  0  0  0  0  0  0  0  0  0  0  0
    3.2109    1.5361    0.0000 S   0  0  0  0  0  0  0  0  0  0  0  0
    3.9254    1.1236    0.0000 O   0  0  0  0  0  0  0  0  0  0  0  0
    2.4965    1.9486    0.0000 O   0  0  0  0  0  0  0  0  0  0  0  0
    3.6234    2.2506    0.0000 C   0  0  0  0  0  0  0  0  0  0  0  0
    4.3379    1.8381    0.0000 F   0  0  0  0  0  0  0  0  0  0  0  0
    2.9090    2.6631    0.0000 F   0  0  0  0  0  0  0  0  0  0  0  0
    4.0359    2.9651    0.0000 F   0  0  0  0  0  0  0  0  0  0  0  0
   -3.5129   -2.9651    0.0000 C   0  0  0  0  0  0  0  0  0  0  0  0
   -3.5927    0.0310    0.0000 H   0  0  0  0  0  0  0  0  0  0  0  0
   -1.1413   -3.1443    0.0000 H   0  0  0  0  0  0  0  0  0  0  0  0
   -1.1413    0.0721    0.0000 H   0  0  0  0  0  0  0  0  0  0  0  0
    0.7156    0.0721    0.0000 H   0  0  0  0  0  0  0  0  0  0  0  0
    0.0771   -3.8917    0.0000 H   0  0  0  0  0  0  0  0  0  0  0  0
    1.6821   -2.9651    0.0000 H   0  0  0  0  0  0  0  0  0  0  0  0
    1.1471   -3.8918    0.0000 H   0  0  0  0  0  0  0  0  0  0  0  0
    3.1907   -1.7153    0.0000 H   0  0  0  0  0  0  0  0  0  0  0  0
    4.1192   -0.1071    0.0000 H   0  0  0  0  0  0  0  0  0  0  0  0
    1.3336    1.5010    0.0000 H   0  0  0  0  0  0  0  0  0  0  0  0
    0.4051   -0.1071    0.0000 H   0  0  0  0  0  0  0  0  0  0  0  0
   -4.5829   -2.9651    0.0000 H   0  0  0  0  0  0  0  0  0  0  0  0
   -2.9779   -3.8917    0.0000 H   0  0  0  0  0  0  0  0  0  0  0  0
   -4.0479   -3.8918    0.0000 H   0  0  0  0  0  0  0  0  0  0  0  0
  1  2  1  0  0  0  0
  1  6  1  0  0  0  0
  1  7  2  0  0  0  0
  2  3  1  0  0  0  0
  2 10  1  0  0  0  0
  3  4  1  0  0  0  0
  3  8  2  0  0  0  0
  4  5  1  0  0  0  0
  4 32  1  0  0  0  0
  5  6  1  0  0  0  0
  5  9  2  0  0  0  0
  6 31  1  0  0  0  0
 10 11  1  0  0  0  0
 10 13  2  0  0  0  0
 11 14  2  0  0  0  0
 11 33  1  0  0  0  0
 12 14  1  0  0  0  0
 12 15  2  0  0  0  0
 12 17  1  0  0  0  0
 13 15  1  0  0  0  0
 13 34  1  0  0  0  0
 14 16  1  0  0  0  0
 15 35  1  0  0  0  0
 16 36  1  0  0  0  0
 16 37  1  0  0  0  0
 16 38  1  0  0  0  0
 17 18  1  0  0  0  0
 18 19  1  0  0  0  0
 18 23  2  0  0  0  0
 19 20  2  0  0  0  0
 19 39  1  0  0  0  0
 20 21  1  0  0  0  0
 20 40  1  0  0  0  0
 21 22  2  0  0  0  0
 21 24  1  0  0  0  0
 22 23  1  0  0  0  0
 22 41  1  0  0  0  0
 23 42  1  0  0  0  0
 24 25  2  0  0  0  0
 24 26  2  0  0  0  0
 24 27  1  0  0  0  0
 27 28  1  0  0  0  0
 27 29  1  0  0  0  0
 27 30  1  0  0  0  0
 31 43  1  0  0  0  0
 31 44  1  0  0  0  0
 31 45  1  0  0  0  0
M  END
>  <DRUGBANK_ID>
DB11452

>  <COMMON_NAME>
Ponazuril

>  <CAS_NUMBER>
69004-04-2

>  <UNII>
JPW84AS66U

>  <SYNONYMS>
Ponazuril

$$$$
