
 OpenBabel10282417072D

 43 44  0  0  1  0  0  0  0  0999 V2000
   -2.7812   -1.5019    0.0000 C   0  0  0  0  0  0  0  0  0  0  0  0
   -1.9768   -3.4240    0.0000 C   0  0  0  0  0  0  0  0  0  0  0  0
   -2.1262   -4.8451    0.0000 C   0  0  0  0  0  0  0  0  0  0  0  0
   -2.7973   -3.3377    0.0000 C   0  0  0  0  0  0  0  0  0  0  0  0
   -2.9467   -4.7588    0.0000 C   0  0  0  0  0  0  0  0  0  0  0  0
   -0.6378   -1.0894    0.0000 C   0  0  0  0  0  0  0  0  0  0  0  0
   -1.3523   -1.5019    0.0000 C   0  0  0  0  0  0  0  0  0  0  0  0
   -0.8208   -4.2639    0.0000 C   0  0  0  0  0  0  0  0  0  0  0  0
    1.5287   -2.5569    0.0000 C   0  0  0  0  0  0  0  0  0  0  0  0
   -1.6413   -4.1776    0.0000 C   0  0  0  0  0  0  0  0  0  0  0  0
   -3.2822   -4.0052    0.0000 C   0  0  0  0  0  0  0  0  0  0  0  0
    0.0766   -1.5019    0.0000 C   0  0  1  0  0  0  0  0  0  0  0  0
   -0.3359   -3.5964    0.0000 C   0  0  0  0  0  0  0  0  0  0  0  0
    2.1418   -3.1089    0.0000 C   0  0  0  0  0  0  0  0  0  0  0  0
    0.0766   -2.3269    0.0000 C   0  0  0  0  0  0  0  0  0  0  0  0
    0.4891   -3.5964    0.0000 C   0  0  0  0  0  0  0  0  0  0  0  0
    0.7911   -1.0894    0.0000 N   0  0  0  0  0  0  0  0  0  0  0  0
   -0.5908   -2.8118    0.0000 N   0  0  0  0  0  0  0  0  0  0  0  0
    0.7441   -2.8118    0.0000 N   0  0  0  0  0  0  0  0  0  0  0  0
   -4.1027   -3.9189    0.0000 O   0  0  0  0  0  0  0  0  0  0  0  0
    2.9264   -2.8540    0.0000 O   0  0  0  0  0  0  0  0  0  0  0  0
    1.9703   -3.9159    0.0000 O   0  0  0  0  0  0  0  0  0  0  0  0
    0.9741   -4.2639    0.0000 O   0  0  0  0  0  0  0  0  0  0  0  0
   -2.0668   -1.0894    0.0000 S   0  0  0  0  0  0  0  0  0  0  0  0
   -0.4852   -5.0175    0.0000 H   0  0  0  0  0  0  0  0  0  0  0  0
   -0.6378   -1.9144    0.0000 H   0  0  0  0  0  0  0  0  0  0  0  0
   -3.7079   -0.9669    0.0000 H   0  0  0  0  0  0  0  0  0  0  0  0
   -2.7812   -2.5719    0.0000 H   0  0  0  0  0  0  0  0  0  0  0  0
   -3.7078   -2.0369    0.0000 H   0  0  0  0  0  0  0  0  0  0  0  0
   -1.3702   -2.5891    0.0000 H   0  0  0  0  0  0  0  0  0  0  0  0
   -1.7065   -5.7879    0.0000 H   0  0  0  0  0  0  0  0  0  0  0  0
   -3.2170   -2.3949    0.0000 H   0  0  0  0  0  0  0  0  0  0  0  0
   -3.5533   -5.5937    0.0000 H   0  0  0  0  0  0  0  0  0  0  0  0
   -0.6378   -0.0194    0.0000 H   0  0  0  0  0  0  0  0  0  0  0  0
    0.2889   -0.5544    0.0000 H   0  0  0  0  0  0  0  0  0  0  0  0
   -1.3523   -2.5719    0.0000 H   0  0  0  0  0  0  0  0  0  0  0  0
   -2.2789   -2.0369    0.0000 H   0  0  0  0  0  0  0  0  0  0  0  0
    1.7512   -1.5103    0.0000 H   0  0  0  0  0  0  0  0  0  0  0  0
    0.7335   -1.8409    0.0000 H   0  0  0  0  0  0  0  0  0  0  0  0
    1.6744   -1.5994    0.0000 H   0  0  0  0  0  0  0  0  0  0  0  0
    0.7911   -0.0694    0.0000 H   0  0  0  0  0  0  0  0  0  0  0  0
   -4.4837   -3.0629    0.0000 H   0  0  0  0  0  0  0  0  0  0  0  0
    1.0792   -4.2055    0.0000 H   0  0  0  0  0  0  0  0  0  0  0  0
  1 27  1  0  0  0  0
  1 28  1  0  0  0  0
  1 29  1  0  0  0  0
  2 30  1  0  0  0  0
  3 31  1  0  0  0  0
  4  2  1  0  0  0  0
  4 32  1  0  0  0  0
  5  3  2  0  0  0  0
  5 33  1  0  0  0  0
  6 34  1  0  0  0  0
  6 35  1  0  0  0  0
  7  6  1  0  0  0  0
  7 36  1  0  0  0  0
  7 37  1  0  0  0  0
  9 38  1  0  0  0  0
  9 39  1  0  0  0  0
 10  2  2  0  0  0  0
 10  3  1  0  0  0  0
 10  8  1  0  0  0  0
 11  4  2  0  0  0  0
 11  5  1  0  0  0  0
 12  6  1  0  0  0  0
 12 17  1  0  0  0  0
 12 26  1  1  0  0  0
 13  8  2  0  0  0  0
 14  9  1  0  0  0  0
 15 12  1  0  0  0  0
 16 13  1  0  0  0  0
 17 40  1  0  0  0  0
 17 41  1  0  0  0  0
 18 13  1  0  0  0  0
 18 15  2  0  0  0  0
 19  9  1  0  0  0  0
 19 15  1  0  0  0  0
 19 16  1  0  0  0  0
 20 11  1  0  0  0  0
 20 42  1  0  0  0  0
 21 14  2  0  0  0  0
 22 14  1  0  0  0  0
 22 43  1  0  0  0  0
 23 16  2  0  0  0  0
 24  1  1  0  0  0  0
 24  7  1  0  0  0  0
 25  8  1  0  0  0  0
M  END
>  <DRUGBANK_ID>
DB03391

>  <SECONDARY_ACCESSION_NUMBERS>
EXPT00904

>  <COMMON_NAME>
Chromophore (Met-Tyr-Gly)

$$$$
