
 OpenBabel10282417072D

 27 26  0  0  1  0  0  0  0  0999 V2000
    2.9980   -1.7309    0.0000 C   0  0  0  0  0  0  0  0  0  0  0  0
    3.7125   -2.1434    0.0000 N   0  0  0  0  0  0  0  0  0  0  0  0
    3.7125   -2.9684    0.0000 C   0  0  0  0  0  0  0  0  0  0  0  0
    4.4270   -1.7309    0.0000 C   0  0  0  0  0  0  0  0  0  0  0  0
    5.1414   -2.1434    0.0000 C   0  0  0  0  0  0  0  0  0  0  0  0
    5.8559   -1.7309    0.0000 O   0  0  0  0  0  0  0  0  0  0  0  0
    6.5704   -2.1434    0.0000 P   0  0  2  0  0  0  0  0  0  0  0  0
    6.1579   -2.8579    0.0000 O   0  0  0  0  0  0  0  0  0  0  0  0
    6.9829   -1.4289    0.0000 O   0  0  0  0  0  0  0  0  0  0  0  0
    7.2849   -2.5559    0.0000 O   0  0  0  0  0  0  0  0  0  0  0  0
    7.9993   -2.1434    0.0000 P   0  0  0  0  0  0  0  0  0  0  0  0
    8.7138   -1.7309    0.0000 O   0  0  0  0  0  0  0  0  0  0  0  0
    8.4118   -2.8579    0.0000 O   0  0  0  0  0  0  0  0  0  0  0  0
    7.5868   -1.4289    0.0000 O   0  0  0  0  0  0  0  0  0  0  0  0
    2.9980   -0.6609    0.0000 H   0  0  0  0  0  0  0  0  0  0  0  0
    2.0714   -2.2659    0.0000 H   0  0  0  0  0  0  0  0  0  0  0  0
    2.0713   -1.1959    0.0000 H   0  0  0  0  0  0  0  0  0  0  0  0
    2.7859   -3.5034    0.0000 H   0  0  0  0  0  0  0  0  0  0  0  0
    4.6391   -3.5034    0.0000 H   0  0  0  0  0  0  0  0  0  0  0  0
    3.7125   -4.0384    0.0000 H   0  0  0  0  0  0  0  0  0  0  0  0
    4.4270   -0.6609    0.0000 H   0  0  0  0  0  0  0  0  0  0  0  0
    5.3537   -1.1959    0.0000 H   0  0  0  0  0  0  0  0  0  0  0  0
    5.1414   -3.2134    0.0000 H   0  0  0  0  0  0  0  0  0  0  0  0
    6.0680   -2.6784    0.0000 H   0  0  0  0  0  0  0  0  0  0  0  0
    5.1879   -2.8579    0.0000 H   0  0  0  0  0  0  0  0  0  0  0  0
    9.5538   -2.2159    0.0000 H   0  0  0  0  0  0  0  0  0  0  0  0
    7.9268   -3.6979    0.0000 H   0  0  0  0  0  0  0  0  0  0  0  0
  1  2  1  0  0  0  0
  1 15  1  0  0  0  0
  1 16  1  0  0  0  0
  1 17  1  0  0  0  0
  2  3  1  0  0  0  0
  2  4  1  0  0  0  0
  3 18  1  0  0  0  0
  3 19  1  0  0  0  0
  3 20  1  0  0  0  0
  4  5  1  0  0  0  0
  4 21  1  0  0  0  0
  4 22  1  0  0  0  0
  5  6  1  0  0  0  0
  5 23  1  0  0  0  0
  5 24  1  0  0  0  0
  7  6  1  0  0  0  0
  7  8  1  0  0  0  0
  7  9  2  1  0  0  0
  7 10  1  0  0  0  0
  8 25  1  0  0  0  0
 10 11  1  0  0  0  0
 11 12  1  0  0  0  0
 11 13  1  0  0  0  0
 11 14  2  0  0  0  0
 12 26  1  0  0  0  0
 13 27  1  0  0  0  0
M  END
>  <DRUGBANK_ID>
DB03165

>  <SECONDARY_ACCESSION_NUMBERS>
EXPT01154

>  <COMMON_NAME>
2-Dimethylamino-Ethyl-Diphosphate

$$$$
