
 OpenBabel10282417072D

 22 21  0  0  1  0  0  0  0  0999 V2000
    1.7862   -0.2063    0.0000 O   0  0  0  0  0  0  0  0  0  0  0  0
   -1.7862    0.2063    0.0000 C   0  0  0  0  0  0  0  0  0  0  0  0
   -0.3572    0.2063    0.0000 C   0  0  0  0  0  0  0  0  0  0  0  0
    1.0717    0.2062    0.0000 C   0  0  0  0  0  0  0  0  0  0  0  0
    1.0717    1.0311    0.0000 O   0  0  0  0  0  0  0  0  0  0  0  0
    0.3572   -0.2063    0.0000 C   0  0  1  0  0  0  0  0  0  0  0  0
    0.3572   -1.0313    0.0000 N   0  0  0  0  0  0  0  0  0  0  0  0
   -1.0717   -0.2062    0.0000 C   0  0  0  0  0  0  0  0  0  0  0  0
   -1.0717   -1.0313    0.0000 C   0  0  0  0  0  0  0  0  0  0  0  0
    1.7862   -1.1433    0.0000 H   0  0  0  0  0  0  0  0  0  0  0  0
   -1.7862    1.2763    0.0000 H   0  0  0  0  0  0  0  0  0  0  0  0
   -2.7128   -0.3287    0.0000 H   0  0  0  0  0  0  0  0  0  0  0  0
   -2.7129    0.7413    0.0000 H   0  0  0  0  0  0  0  0  0  0  0  0
   -0.3571    1.2763    0.0000 H   0  0  0  0  0  0  0  0  0  0  0  0
   -1.2838    0.7413    0.0000 H   0  0  0  0  0  0  0  0  0  0  0  0
    1.2838   -0.7413    0.0000 H   0  0  0  0  0  0  0  0  0  0  0  0
   -0.5261   -1.5413    0.0000 H   0  0  0  0  0  0  0  0  0  0  0  0
    1.2405   -1.5413    0.0000 H   0  0  0  0  0  0  0  0  0  0  0  0
   -1.9983   -0.7412    0.0000 H   0  0  0  0  0  0  0  0  0  0  0  0
   -1.9983   -1.5663    0.0000 H   0  0  0  0  0  0  0  0  0  0  0  0
   -0.1451   -1.5663    0.0000 H   0  0  0  0  0  0  0  0  0  0  0  0
   -1.0717   -2.1013    0.0000 H   0  0  0  0  0  0  0  0  0  0  0  0
  1  4  1  0  0  0  0
  1 10  1  0  0  0  0
  2  8  1  0  0  0  0
  2 11  1  0  0  0  0
  2 12  1  0  0  0  0
  2 13  1  0  0  0  0
  3  6  1  0  0  0  0
  3 14  1  0  0  0  0
  3 15  1  0  0  0  0
  4  5  2  0  0  0  0
  6  4  1  0  0  0  0
  6  7  1  0  0  0  0
  6 16  1  6  0  0  0
  7 17  1  0  0  0  0
  7 18  1  0  0  0  0
  8  3  1  0  0  0  0
  8  9  1  0  0  0  0
  8 19  1  0  0  0  0
  9 20  1  0  0  0  0
  9 21  1  0  0  0  0
  9 22  1  0  0  0  0
M  END
>  <DRUGBANK_ID>
DB00149

>  <SECONDARY_ACCESSION_NUMBERS>
NUTR00033

>  <COMMON_NAME>
Leucine

>  <CAS_NUMBER>
61-90-5

>  <UNII>
GMW67QNF9C

>  <SYNONYMS>
(2S)-2-Amino-4-methylpentanoic acid; (2S)-alpha-2-Amino-4-methylvaleric acid; (2S)-alpha-Leucine; (S)-(+)-Leucine; (S)-Leucine; 2-Amino-4-methylvaleric acid; L; L-Leucin; L-Leucine; L-Leuzin; Leu; Leucine

$$$$
