894
 OpenBabel10282417072D

 52 54  0  0  0  0  0  0  0  0999 V2000
   -5.8261   -3.2134    0.0000 Cl  0  0  0  0  0  0  0  0  0  0  0  0
   -5.1587   -3.6983    0.0000 C   0  0  0  0  0  0  0  0  0  0  0  0
   -5.1587   -4.5233    0.0000 C   0  0  0  0  0  0  0  0  0  0  0  0
   -4.3740   -4.7782    0.0000 C   0  0  0  0  0  0  0  0  0  0  0  0
   -3.8891   -4.1108    0.0000 C   0  0  0  0  0  0  0  0  0  0  0  0
   -3.0641   -4.1108    0.0000 C   0  0  0  0  0  0  0  0  0  0  0  0
   -1.8266   -3.3963    0.0000 S   0  0  0  0  0  0  0  0  0  0  0  0
   -1.8266   -4.2213    0.0000 O   0  0  0  0  0  0  0  0  0  0  0  0
   -1.8266   -2.5713    0.0000 O   0  0  0  0  0  0  0  0  0  0  0  0
   -1.0016   -3.3963    0.0000 N   0  0  0  0  0  0  0  0  0  0  0  0
   -0.5891   -2.6819    0.0000 C   0  0  1  0  0  0  0  0  0  0  0  0
   -0.9247   -1.9282    0.0000 C   0  0  0  0  0  0  0  0  0  0  0  0
   -0.3116   -1.3762    0.0000 C   0  0  0  0  0  0  0  0  0  0  0  0
    0.2314   -2.5956    0.0000 C   0  0  0  0  0  0  0  0  0  0  0  0
    0.7834   -3.2087    0.0000 O   0  0  0  0  0  0  0  0  0  0  0  0
    0.4029   -1.7887    0.0000 N   0  0  0  0  0  0  0  0  0  0  0  0
    1.1566   -1.4531    0.0000 C   0  0  1  0  0  0  0  0  0  0  0  0
    1.8240   -1.9380    0.0000 C   0  0  0  0  0  0  0  0  0  0  0  0
    1.2428   -0.6326    0.0000 C   0  0  0  0  0  0  0  0  0  0  0  0
    0.5754   -0.1477    0.0000 O   0  0  0  0  0  0  0  0  0  0  0  0
    1.9965   -0.2971    0.0000 N   0  0  0  0  0  0  0  0  0  0  0  0
    2.0827    0.5234    0.0000 C   0  0  0  0  0  0  0  0  0  0  0  0
    2.8364    0.8590    0.0000 C   0  0  0  0  0  0  0  0  0  0  0  0
    3.5038    0.3741    0.0000 O   0  0  0  0  0  0  0  0  0  0  0  0
    3.4176   -0.4464    0.0000 C   0  0  0  0  0  0  0  0  0  0  0  0
    2.6639   -0.7820    0.0000 C   0  0  0  0  0  0  0  0  0  0  0  0
   -4.3740   -3.4434    0.0000 S   0  0  0  0  0  0  0  0  0  0  0  0
   -2.6516   -3.3963    0.0000 C   0  0  0  0  0  0  0  0  0  0  0  0
   -1.1723   -2.6513    0.0000 H   0  0  0  0  0  0  0  0  0  0  0  0
    1.0955   -2.0338    0.0000 H   0  0  0  0  0  0  0  0  0  0  0  0
   -5.9936   -5.1299    0.0000 H   0  0  0  0  0  0  0  0  0  0  0  0
   -4.0551   -5.7597    0.0000 H   0  0  0  0  0  0  0  0  0  0  0  0
   -2.5291   -5.0374    0.0000 H   0  0  0  0  0  0  0  0  0  0  0  0
   -1.9941   -4.1108    0.0000 H   0  0  0  0  0  0  0  0  0  0  0  0
   -0.4916   -4.2797    0.0000 H   0  0  0  0  0  0  0  0  0  0  0  0
   -1.9713   -1.7057    0.0000 H   0  0  0  0  0  0  0  0  0  0  0  0
   -1.2016   -0.8947    0.0000 H   0  0  0  0  0  0  0  0  0  0  0  0
   -0.4234   -0.3121    0.0000 H   0  0  0  0  0  0  0  0  0  0  0  0
    0.5858   -0.7934    0.0000 H   0  0  0  0  0  0  0  0  0  0  0  0
    1.7121   -3.0021    0.0000 H   0  0  0  0  0  0  0  0  0  0  0  0
    2.8015   -1.5028    0.0000 H   0  0  0  0  0  0  0  0  0  0  0  0
    2.6896   -2.5669    0.0000 H   0  0  0  0  0  0  0  0  0  0  0  0
    1.2170    1.1523    0.0000 H   0  0  0  0  0  0  0  0  0  0  0  0
    2.1945    1.5875    0.0000 H   0  0  0  0  0  0  0  0  0  0  0  0
    2.9482    1.9231    0.0000 H   0  0  0  0  0  0  0  0  0  0  0  0
    3.8139    1.2942    0.0000 H   0  0  0  0  0  0  0  0  0  0  0  0
    4.2833   -1.0753    0.0000 H   0  0  0  0  0  0  0  0  0  0  0  0
    3.3058   -1.5105    0.0000 H   0  0  0  0  0  0  0  0  0  0  0  0
    2.5521   -1.8461    0.0000 H   0  0  0  0  0  0  0  0  0  0  0  0
    3.5296   -1.4109    0.0000 H   0  0  0  0  0  0  0  0  0  0  0  0
   -3.1866   -2.4697    0.0000 H   0  0  0  0  0  0  0  0  0  0  0  0
   -2.1166   -2.4697    0.0000 H   0  0  0  0  0  0  0  0  0  0  0  0
  1  2  1  0  0  0  0
  2 27  1  0  0  0  0
  2  3  2  0  0  0  0
  3  4  1  0  0  0  0
  3 31  1  0  0  0  0
  4  5  2  0  0  0  0
  4 32  1  0  0  0  0
  5  6  1  0  0  0  0
  5 27  1  0  0  0  0
  6 28  1  0  0  0  0
  6 33  1  0  0  0  0
  6 34  1  0  0  0  0
  7  8  2  0  0  0  0
  7  9  2  0  0  0  0
  7 10  1  0  0  0  0
  7 28  1  0  0  0  0
 10 35  1  0  0  0  0
 11 10  1  0  0  0  0
 11 12  1  0  0  0  0
 11 14  1  0  0  0  0
 11 29  1  6  0  0  0
 12 13  1  0  0  0  0
 12 36  1  0  0  0  0
 12 37  1  0  0  0  0
 13 16  1  0  0  0  0
 13 38  1  0  0  0  0
 13 39  1  0  0  0  0
 14 15  2  0  0  0  0
 14 16  1  0  0  0  0
 16 17  1  0  0  0  0
 17 18  1  0  0  0  0
 17 19  1  0  0  0  0
 17 30  1  1  0  0  0
 18 40  1  0  0  0  0
 18 41  1  0  0  0  0
 18 42  1  0  0  0  0
 19 20  2  0  0  0  0
 19 21  1  0  0  0  0
 21 22  1  0  0  0  0
 21 26  1  0  0  0  0
 22 23  1  0  0  0  0
 22 43  1  0  0  0  0
 22 44  1  0  0  0  0
 23 24  1  0  0  0  0
 23 45  1  0  0  0  0
 23 46  1  0  0  0  0
 24 25  1  0  0  0  0
 25 26  1  0  0  0  0
 25 47  1  0  0  0  0
 25 48  1  0  0  0  0
 26 49  1  0  0  0  0
 26 50  1  0  0  0  0
 28 51  1  0  0  0  0
 28 52  1  0  0  0  0
M  END
>  <DRUGBANK_ID>
DB07277

>  <COMMON_NAME>
2-(5-CHLORO-2-THIENYL)-N-{(3S)-1-[(1S)-1-METHYL-2-MORPHOLIN-4-YL-2-OXOETHYL]-2-OXOPYRROLIDIN-3-YL}ETHANESULFONAMIDE

$$$$
