
 OpenBabel10282417072D

 88 93  0  0  0  0  0  0  0  0999 V2000
   -3.3906   -0.3107    0.0000 N   0  0  0  0  0  0  0  0  0  0  0  0
   -2.4865    0.1526    0.0000 C   0  0  0  0  0  0  0  0  0  0  0  0
   -1.5484   -0.3107    0.0000 C   0  0  1  0  0  0  0  0  0  0  0  0
   -0.6555    0.1526    0.0000 C   0  0  1  0  0  0  0  0  0  0  0  0
    0.3390   -0.3107    0.0000 C   0  0  2  0  0  0  0  0  0  0  0  0
    1.2319    0.1752    0.0000 C   0  0  2  0  0  0  0  0  0  0  0  0
    2.2378   -0.3334    0.0000 C   0  0  0  0  0  0  0  0  0  0  0  0
    3.2777    0.1752    0.0000 N   0  0  0  0  0  0  0  0  0  0  0  0
    4.1706    0.0508    0.0000 C   0  0  2  0  0  0  0  0  0  0  0  0
   -2.4865    0.9098    0.0000 O   0  0  0  0  0  0  0  0  0  0  0  0
   -1.5484   -1.0567    0.0000 O   0  0  0  0  0  0  0  0  0  0  0  0
   -2.2153   -1.5088    0.0000 C   0  0  0  0  0  0  0  0  0  0  0  0
   -2.2153   -2.2209    0.0000 C   0  0  0  0  0  0  0  0  0  0  0  0
   -0.6555    0.8871    0.0000 O   0  0  0  0  0  0  0  0  0  0  0  0
    0.3390   -1.0228    0.0000 O   0  0  0  0  0  0  0  0  0  0  0  0
    1.2319    0.9437    0.0000 O   0  0  0  0  0  0  0  0  0  0  0  0
    2.0005    1.3732    0.0000 C   0  0  0  0  0  0  0  0  0  0  0  0
    2.0005    2.2321    0.0000 C   0  0  0  0  0  0  0  0  0  0  0  0
    2.2378   -1.0567    0.0000 O   0  0  0  0  0  0  0  0  0  0  0  0
   -1.5032   -2.6390    0.0000 C   0  0  0  0  0  0  0  0  0  0  0  0
   -1.5032   -3.4641    0.0000 C   0  0  0  0  0  0  0  0  0  0  0  0
   -2.2153   -3.8710    0.0000 C   0  0  0  0  0  0  0  0  0  0  0  0
   -2.9272   -2.6390    0.0000 C   0  0  0  0  0  0  0  0  0  0  0  0
   -2.9272   -3.4641    0.0000 C   0  0  0  0  0  0  0  0  0  0  0  0
    2.7125    3.4641    0.0000 C   0  0  0  0  0  0  0  0  0  0  0  0
    2.7125    2.6390    0.0000 C   0  0  0  0  0  0  0  0  0  0  0  0
    2.0005    3.8710    0.0000 C   0  0  0  0  0  0  0  0  0  0  0  0
    1.2884    3.4641    0.0000 C   0  0  0  0  0  0  0  0  0  0  0  0
    1.2884    2.6390    0.0000 C   0  0  0  0  0  0  0  0  0  0  0  0
   -4.1592    0.0395    0.0000 C   0  0  2  0  0  0  0  0  0  0  0  0
    4.8374    0.5255    0.0000 C   0  0  1  0  0  0  0  0  0  0  0  0
    4.4192   -0.7290    0.0000 C   0  0  0  0  0  0  0  0  0  0  0  0
    5.4929    0.0508    0.0000 C   0  0  0  0  0  0  0  0  0  0  0  0
    5.2442   -0.7290    0.0000 C   0  0  0  0  0  0  0  0  0  0  0  0
   -5.4929    0.0395    0.0000 C   0  0  0  0  0  0  0  0  0  0  0  0
   -4.8260   -0.4464    0.0000 C   0  0  1  0  0  0  0  0  0  0  0  0
   -5.2442    0.8194    0.0000 C   0  0  0  0  0  0  0  0  0  0  0  0
   -4.4191    0.8194    0.0000 C   0  0  0  0  0  0  0  0  0  0  0  0
   -5.2442    2.2434    0.0000 C   0  0  0  0  0  0  0  0  0  0  0  0
   -4.4191    2.2434    0.0000 C   0  0  0  0  0  0  0  0  0  0  0  0
   -5.6511    1.5313    0.0000 C   0  0  0  0  0  0  0  0  0  0  0  0
   -4.0010    1.5313    0.0000 C   0  0  0  0  0  0  0  0  0  0  0  0
    4.4192   -2.1531    0.0000 C   0  0  0  0  0  0  0  0  0  0  0  0
    5.2442   -2.1531    0.0000 C   0  0  0  0  0  0  0  0  0  0  0  0
    4.0123   -1.4410    0.0000 C   0  0  0  0  0  0  0  0  0  0  0  0
    5.6511   -1.4410    0.0000 C   0  0  0  0  0  0  0  0  0  0  0  0
   -4.8374   -1.3393    0.0000 O   0  0  0  0  0  0  0  0  0  0  0  0
    4.8261    1.2601    0.0000 O   0  0  0  0  0  0  0  0  0  0  0  0
   -3.7862   -2.3113    0.0000 F   0  0  0  0  0  0  0  0  0  0  0  0
    3.5150    2.1756    0.0000 F   0  0  0  0  0  0  0  0  0  0  0  0
   -3.3679   -1.2949    0.0000 H   0  0  0  0  0  0  0  0  0  0  0  0
   -2.4572   -0.8755    0.0000 H   0  0  0  0  0  0  0  0  0  0  0  0
   -1.5699    0.7083    0.0000 H   0  0  0  0  0  0  0  0  0  0  0  0
   -0.5633   -0.8858    0.0000 H   0  0  0  0  0  0  0  0  0  0  0  0
    0.3121    0.7218    0.0000 H   0  0  0  0  0  0  0  0  0  0  0  0
    3.1226    1.1474    0.0000 H   0  0  0  0  0  0  0  0  0  0  0  0
    3.9161    1.0901    0.0000 H   0  0  0  0  0  0  0  0  0  0  0  0
   -3.1606   -1.0076    0.0000 H   0  0  0  0  0  0  0  0  0  0  0  0
   -3.1321   -2.0604    0.0000 H   0  0  0  0  0  0  0  0  0  0  0  0
    0.1845    1.3721    0.0000 H   0  0  0  0  0  0  0  0  0  0  0  0
   -0.5010   -1.5078    0.0000 H   0  0  0  0  0  0  0  0  0  0  0  0
    2.9234    0.8317    0.0000 H   0  0  0  0  0  0  0  0  0  0  0  0
    2.9290    1.9049    0.0000 H   0  0  0  0  0  0  0  0  0  0  0  0
   -0.6076   -2.1263    0.0000 H   0  0  0  0  0  0  0  0  0  0  0  0
   -0.6106   -3.9821    0.0000 H   0  0  0  0  0  0  0  0  0  0  0  0
   -2.2154   -4.9030    0.0000 H   0  0  0  0  0  0  0  0  0  0  0  0
   -3.8198   -3.9820    0.0000 H   0  0  0  0  0  0  0  0  0  0  0  0
    3.6051    3.9821    0.0000 H   0  0  0  0  0  0  0  0  0  0  0  0
    2.0005    4.9030    0.0000 H   0  0  0  0  0  0  0  0  0  0  0  0
    0.3958    3.9821    0.0000 H   0  0  0  0  0  0  0  0  0  0  0  0
    0.3958    2.1210    0.0000 H   0  0  0  0  0  0  0  0  0  0  0  0
   -4.0512   -1.0250    0.0000 H   0  0  0  0  0  0  0  0  0  0  0  0
    3.8826    1.0085    0.0000 H   0  0  0  0  0  0  0  0  0  0  0  0
    6.5094    0.3850    0.0000 H   0  0  0  0  0  0  0  0  0  0  0  0
    6.2529   -0.7024    0.0000 H   0  0  0  0  0  0  0  0  0  0  0  0
   -6.5098   -0.2932    0.0000 H   0  0  0  0  0  0  0  0  0  0  0  0
   -6.2523    0.7933    0.0000 H   0  0  0  0  0  0  0  0  0  0  0  0
   -3.8754   -0.9376    0.0000 H   0  0  0  0  0  0  0  0  0  0  0  0
   -5.7622    3.1360    0.0000 H   0  0  0  0  0  0  0  0  0  0  0  0
   -3.9064    3.1390    0.0000 H   0  0  0  0  0  0  0  0  0  0  0  0
   -6.6831    1.5312    0.0000 H   0  0  0  0  0  0  0  0  0  0  0  0
   -2.9690    1.5312    0.0000 H   0  0  0  0  0  0  0  0  0  0  0  0
    3.9012   -3.0457    0.0000 H   0  0  0  0  0  0  0  0  0  0  0  0
    5.7622   -3.0457    0.0000 H   0  0  0  0  0  0  0  0  0  0  0  0
    2.9803   -1.4410    0.0000 H   0  0  0  0  0  0  0  0  0  0  0  0
    6.6831   -1.4410    0.0000 H   0  0  0  0  0  0  0  0  0  0  0  0
   -5.6836   -1.8135    0.0000 H   0  0  0  0  0  0  0  0  0  0  0  0
    5.6586    1.7580    0.0000 H   0  0  0  0  0  0  0  0  0  0  0  0
  1  2  1  0  0  0  0
  1 51  1  0  0  0  0
  2  3  1  0  0  0  0
  2 10  2  0  0  0  0
  3  4  1  0  0  0  0
  3 11  1  0  0  0  0
  3 52  1  6  0  0  0
  4  5  1  0  0  0  0
  4 14  1  0  0  0  0
  4 53  1  1  0  0  0
  5  6  1  0  0  0  0
  5 15  1  0  0  0  0
  5 54  1  1  0  0  0
  6  7  1  0  0  0  0
  6 16  1  0  0  0  0
  6 55  1  6  0  0  0
  7  8  1  0  0  0  0
  7 19  2  0  0  0  0
  8 56  1  0  0  0  0
  9  8  1  0  0  0  0
  9 31  1  0  0  0  0
  9 32  1  0  0  0  0
  9 57  1  1  0  0  0
 11 12  1  0  0  0  0
 12 13  1  0  0  0  0
 12 58  1  0  0  0  0
 12 59  1  0  0  0  0
 13 20  2  0  0  0  0
 13 23  1  0  0  0  0
 14 60  1  0  0  0  0
 15 61  1  0  0  0  0
 16 17  1  0  0  0  0
 17 18  1  0  0  0  0
 17 62  1  0  0  0  0
 17 63  1  0  0  0  0
 18 26  2  0  0  0  0
 18 29  1  0  0  0  0
 20 21  1  0  0  0  0
 20 64  1  0  0  0  0
 21 22  2  0  0  0  0
 21 65  1  0  0  0  0
 22 24  1  0  0  0  0
 22 66  1  0  0  0  0
 23 24  2  0  0  0  0
 23 49  1  0  0  0  0
 24 67  1  0  0  0  0
 25 26  1  0  0  0  0
 25 27  2  0  0  0  0
 25 68  1  0  0  0  0
 26 50  1  0  0  0  0
 27 28  1  0  0  0  0
 27 69  1  0  0  0  0
 28 29  2  0  0  0  0
 28 70  1  0  0  0  0
 29 71  1  0  0  0  0
 30  1  1  0  0  0  0
 30 36  1  0  0  0  0
 30 38  1  0  0  0  0
 30 72  1  1  0  0  0
 31 33  1  0  0  0  0
 31 48  1  0  0  0  0
 31 73  1  1  0  0  0
 32 34  1  0  0  0  0
 32 45  2  0  0  0  0
 33 34  1  0  0  0  0
 33 74  1  0  0  0  0
 33 75  1  0  0  0  0
 34 46  2  0  0  0  0
 35 36  1  0  0  0  0
 35 37  1  0  0  0  0
 35 76  1  0  0  0  0
 35 77  1  0  0  0  0
 36 47  1  0  0  0  0
 36 78  1  1  0  0  0
 37 41  1  0  0  0  0
 37 38  2  0  0  0  0
 38 42  1  0  0  0  0
 39 40  1  0  0  0  0
 39 41  2  0  0  0  0
 39 79  1  0  0  0  0
 40 42  2  0  0  0  0
 40 80  1  0  0  0  0
 41 81  1  0  0  0  0
 42 82  1  0  0  0  0
 43 45  1  0  0  0  0
 43 44  2  0  0  0  0
 43 83  1  0  0  0  0
 44 46  1  0  0  0  0
 44 84  1  0  0  0  0
 45 85  1  0  0  0  0
 46 86  1  0  0  0  0
 47 87  1  0  0  0  0
 48 88  1  0  0  0  0
M  END
>  <DRUGBANK_ID>
DB02629

>  <SECONDARY_ACCESSION_NUMBERS>
EXPT00661; EXPT00657

>  <COMMON_NAME>
N,N-[2,5-O-di-2-fluoro-benzyl-glucaryl]-di-[1-amino-indan-2-ol]

>  <SYNONYMS>
Inhibitor BEA403

$$$$
