
 OpenBabel10282417072D

 79 82  0  0  0  0  0  0  0  0999 V2000
   -4.6010   -1.0247    0.0000 C   0  0  0  0  0  0  0  0  0  0  0  0
   -4.6010   -1.8613    0.0000 C   0  0  2  0  0  0  0  0  0  0  0  0
   -3.8899   -2.2795    0.0000 C   0  0  0  0  0  0  0  0  0  0  0  0
   -3.1788   -1.8613    0.0000 C   0  0  2  0  0  0  0  0  0  0  0  0
   -3.1788   -1.0247    0.0000 C   0  0  2  0  0  0  0  0  0  0  0  0
   -3.8899   -0.6065    0.0000 C   0  0  0  0  0  0  0  0  0  0  0  0
   -2.4677   -2.2795    0.0000 C   0  0  0  0  0  0  0  0  0  0  0  0
   -1.7567   -1.8613    0.0000 C   0  0  1  0  0  0  0  0  0  0  0  0
   -1.7567   -1.0247    0.0000 C   0  0  2  0  0  0  0  0  0  0  0  0
   -2.4677   -0.6065    0.0000 C   0  0  2  0  0  0  0  0  0  0  0  0
   -1.0456   -0.6065    0.0000 C   0  0  1  0  0  0  0  0  0  0  0  0
   -1.0456    0.1882    0.0000 C   0  0  2  0  0  0  0  0  0  0  0  0
   -1.7567    0.6065    0.0000 C   0  0  0  0  0  0  0  0  0  0  0  0
   -2.4677    0.1882    0.0000 C   0  0  0  0  0  0  0  0  0  0  0  0
    0.3764   -0.6065    0.0000 C   0  0  0  0  0  0  0  0  0  0  0  0
    0.3764    0.1882    0.0000 C   0  0  0  0  0  0  0  0  0  0  0  0
   -0.3346    0.6065    0.0000 C   0  0  2  0  0  0  0  0  0  0  0  0
   -3.1788   -2.6559    0.0000 H   0  0  0  0  0  0  0  0  0  0  0  0
   -3.1788   -0.1882    0.0000 C   0  0  0  0  0  0  0  0  0  0  0  0
   -1.7567   -0.1882    0.0000 H   0  0  0  0  0  0  0  0  0  0  0  0
   -1.0875   -2.2377    0.0000 O   0  0  0  0  0  0  0  0  0  0  0  0
   -1.0456    1.0247    0.0000 C   0  0  0  0  0  0  0  0  0  0  0  0
   -0.3346    1.4430    0.0000 C   0  0  2  0  0  0  0  0  0  0  0  0
   -5.3538   -2.2795    0.0000 O   0  0  0  0  0  0  0  0  0  0  0  0
   -1.0456   -1.4430    0.0000 H   0  0  0  0  0  0  0  0  0  0  0  0
   -2.4677   -1.4430    0.0000 H   0  0  0  0  0  0  0  0  0  0  0  0
   -1.0456    1.8613    0.0000 C   0  0  0  0  0  0  0  0  0  0  0  0
    0.3764    1.8613    0.0000 C   0  0  0  0  0  0  0  0  0  0  0  0
    1.0875    1.4430    0.0000 C   0  0  0  0  0  0  0  0  0  0  0  0
    1.7985    1.8613    0.0000 C   0  0  0  0  0  0  0  0  0  0  0  0
    2.5096    1.4430    0.0000 N   0  0  0  0  0  0  0  0  0  0  0  0
    3.2206    1.8613    0.0000 C   0  0  0  0  0  0  0  0  0  0  0  0
    3.9317    1.4430    0.0000 C   0  0  0  0  0  0  0  0  0  0  0  0
    4.6427    1.8613    0.0000 S   0  0  0  0  0  0  0  0  0  0  0  0
    1.7985    2.6559    0.0000 O   0  0  0  0  0  0  0  0  0  0  0  0
    5.3538    2.2795    0.0000 O   0  0  0  0  0  0  0  0  0  0  0  0
    4.2245    2.5723    0.0000 O   0  0  0  0  0  0  0  0  0  0  0  0
    5.0610    1.1502    0.0000 O   0  0  0  0  0  0  0  0  0  0  0  0
   -5.5298   -0.4934    0.0000 H   0  0  0  0  0  0  0  0  0  0  0  0
   -4.6074    0.0453    0.0000 H   0  0  0  0  0  0  0  0  0  0  0  0
   -5.5232   -1.3187    0.0000 H   0  0  0  0  0  0  0  0  0  0  0  0
   -3.8899   -3.3495    0.0000 H   0  0  0  0  0  0  0  0  0  0  0  0
   -2.9611   -2.8108    0.0000 H   0  0  0  0  0  0  0  0  0  0  0  0
   -3.8899    0.4635    0.0000 H   0  0  0  0  0  0  0  0  0  0  0  0
   -4.8187   -0.0752    0.0000 H   0  0  0  0  0  0  0  0  0  0  0  0
   -2.4677   -3.3495    0.0000 H   0  0  0  0  0  0  0  0  0  0  0  0
   -1.5389   -2.8107    0.0000 H   0  0  0  0  0  0  0  0  0  0  0  0
   -1.7464   -2.9313    0.0000 H   0  0  0  0  0  0  0  0  0  0  0  0
   -1.7567    1.6765    0.0000 H   0  0  0  0  0  0  0  0  0  0  0  0
   -2.6855    1.1377    0.0000 H   0  0  0  0  0  0  0  0  0  0  0  0
   -3.3965    0.7194    0.0000 H   0  0  0  0  0  0  0  0  0  0  0  0
   -3.3932   -0.3487    0.0000 H   0  0  0  0  0  0  0  0  0  0  0  0
    1.1330   -1.3631    0.0000 H   0  0  0  0  0  0  0  0  0  0  0  0
    1.3650   -0.1970    0.0000 H   0  0  0  0  0  0  0  0  0  0  0  0
    1.3052    0.7194    0.0000 H   0  0  0  0  0  0  0  0  0  0  0  0
    0.3830    1.2582    0.0000 H   0  0  0  0  0  0  0  0  0  0  0  0
    0.5942    1.1377    0.0000 H   0  0  0  0  0  0  0  0  0  0  0  0
   -2.2522    0.3468    0.0000 H   0  0  0  0  0  0  0  0  0  0  0  0
   -4.1054    0.3468    0.0000 H   0  0  0  0  0  0  0  0  0  0  0  0
   -3.1788    0.8818    0.0000 H   0  0  0  0  0  0  0  0  0  0  0  0
   -1.0766   -3.2076    0.0000 H   0  0  0  0  0  0  0  0  0  0  0  0
   -0.1190    1.5597    0.0000 H   0  0  0  0  0  0  0  0  0  0  0  0
   -1.9722    1.5597    0.0000 H   0  0  0  0  0  0  0  0  0  0  0  0
   -1.0456    2.0947    0.0000 H   0  0  0  0  0  0  0  0  0  0  0  0
   -0.3346    2.5130    0.0000 H   0  0  0  0  0  0  0  0  0  0  0  0
   -6.1857   -1.7807    0.0000 H   0  0  0  0  0  0  0  0  0  0  0  0
   -1.0368    2.9313    0.0000 H   0  0  0  0  0  0  0  0  0  0  0  0
   -1.9766    1.3339    0.0000 H   0  0  0  0  0  0  0  0  0  0  0  0
   -1.9678    2.4039    0.0000 H   0  0  0  0  0  0  0  0  0  0  0  0
    0.3764    2.9313    0.0000 H   0  0  0  0  0  0  0  0  0  0  0  0
    1.3052    2.3925    0.0000 H   0  0  0  0  0  0  0  0  0  0  0  0
    1.0875    0.3730    0.0000 H   0  0  0  0  0  0  0  0  0  0  0  0
    2.0163    0.9118    0.0000 H   0  0  0  0  0  0  0  0  0  0  0  0
    2.5096    0.4585    0.0000 H   0  0  0  0  0  0  0  0  0  0  0  0
    3.2206    2.9313    0.0000 H   0  0  0  0  0  0  0  0  0  0  0  0
    4.1494    2.3925    0.0000 H   0  0  0  0  0  0  0  0  0  0  0  0
    3.9317    0.3730    0.0000 H   0  0  0  0  0  0  0  0  0  0  0  0
    4.8605    0.9118    0.0000 H   0  0  0  0  0  0  0  0  0  0  0  0
    6.1977    1.8013    0.0000 H   0  0  0  0  0  0  0  0  0  0  0  0
  1  2  1  0  0  0  0
  1  6  1  0  0  0  0
  1 39  1  0  0  0  0
  1 40  1  0  0  0  0
  2  3  1  0  0  0  0
  2 24  1  0  0  0  0
  2 41  1  1  0  0  0
  3  4  1  0  0  0  0
  3 42  1  0  0  0  0
  3 43  1  0  0  0  0
  4  5  1  0  0  0  0
  4  7  1  0  0  0  0
  4 18  1  1  0  0  0
  5  6  1  0  0  0  0
  5 10  1  0  0  0  0
  5 19  1  1  0  0  0
  6 44  1  0  0  0  0
  6 45  1  0  0  0  0
  7  8  1  0  0  0  0
  7 46  1  0  0  0  0
  7 47  1  0  0  0  0
  8  9  1  0  0  0  0
  8 21  1  0  0  0  0
  8 48  1  6  0  0  0
  9 10  1  0  0  0  0
  9 11  1  0  0  0  0
  9 20  1  1  0  0  0
 10 14  1  0  0  0  0
 10 26  1  6  0  0  0
 11 12  1  0  0  0  0
 11 15  1  0  0  0  0
 11 25  1  6  0  0  0
 12 13  1  0  0  0  0
 12 17  1  0  0  0  0
 12 22  1  1  0  0  0
 13 14  1  0  0  0  0
 13 49  1  0  0  0  0
 13 50  1  0  0  0  0
 14 51  1  0  0  0  0
 14 52  1  0  0  0  0
 15 16  1  0  0  0  0
 15 53  1  0  0  0  0
 15 54  1  0  0  0  0
 16 17  1  0  0  0  0
 16 55  1  0  0  0  0
 16 56  1  0  0  0  0
 17 23  1  0  0  0  0
 17 57  1  6  0  0  0
 19 58  1  0  0  0  0
 19 59  1  0  0  0  0
 19 60  1  0  0  0  0
 21 61  1  0  0  0  0
 22 62  1  0  0  0  0
 22 63  1  0  0  0  0
 22 64  1  0  0  0  0
 23 27  1  0  0  0  0
 23 28  1  0  0  0  0
 23 65  1  1  0  0  0
 24 66  1  0  0  0  0
 27 67  1  0  0  0  0
 27 68  1  0  0  0  0
 27 69  1  0  0  0  0
 28 29  1  0  0  0  0
 28 70  1  0  0  0  0
 28 71  1  0  0  0  0
 29 30  1  0  0  0  0
 29 72  1  0  0  0  0
 29 73  1  0  0  0  0
 30 31  1  0  0  0  0
 30 35  2  0  0  0  0
 31 32  1  0  0  0  0
 31 74  1  0  0  0  0
 32 33  1  0  0  0  0
 32 75  1  0  0  0  0
 32 76  1  0  0  0  0
 33 34  1  0  0  0  0
 33 77  1  0  0  0  0
 33 78  1  0  0  0  0
 34 36  1  0  0  0  0
 34 37  2  0  0  0  0
 34 38  2  0  0  0  0
 36 79  1  0  0  0  0
M  END
>  <DRUGBANK_ID>
DB08834

>  <COMMON_NAME>
Tauroursodeoxycholic acid

>  <CAS_NUMBER>
14605-22-2

>  <UNII>
60EUX8MN5X

>  <SYNONYMS>
Tauroursodeoxycholate; Tauroursodesoxycholic acid; Taurursodiol; TUDCA; Ursodeoxycholyltaurine; Ursodoxicoltaurine

$$$$
