
 OpenBabel10282417072D

 58 60  0  0  1  0  0  0  0  0999 V2000
   -8.5737   -7.4250    0.0000 C   0  0  0  0  0  0  0  0  0  0  0  0
   -9.2881   -7.0125    0.0000 N   0  0  0  0  0  0  0  0  0  0  0  0
   -9.2881   -6.1875    0.0000 C   0  0  1  0  0  0  0  0  0  0  0  0
   -8.5737   -5.7750    0.0000 C   0  0  0  0  0  0  0  0  0  0  0  0
   -8.5737   -4.9500    0.0000 N   0  0  0  0  0  0  0  0  0  0  0  0
   -7.8592   -4.5375    0.0000 C   0  0  0  0  0  0  0  0  0  0  0  0
   -7.8592   -3.7125    0.0000 C   0  0  0  0  0  0  0  0  0  0  0  0
   -7.1447   -3.3000    0.0000 C   0  0  0  0  0  0  0  0  0  0  0  0
   -6.4302   -3.7125    0.0000 C   0  0  0  0  0  0  0  0  0  0  0  0
   -6.4302   -4.5375    0.0000 C   0  0  0  0  0  0  0  0  0  0  0  0
   -7.1447   -4.9500    0.0000 C   0  0  0  0  0  0  0  0  0  0  0  0
   -5.7158   -3.3000    0.0000 C   0  0  0  0  0  0  0  0  0  0  0  0
   -5.7158   -2.4750    0.0000 O   0  0  0  0  0  0  0  0  0  0  0  0
   -5.0013   -3.7125    0.0000 N   0  0  0  0  0  0  0  0  0  0  0  0
   -4.2868   -3.3000    0.0000 C   0  0  1  0  0  0  0  0  0  0  0  0
   -3.5724   -3.7125    0.0000 C   0  0  0  0  0  0  0  0  0  0  0  0
   -2.8579   -3.3000    0.0000 C   0  0  0  0  0  0  0  0  0  0  0  0
   -2.1434   -3.7125    0.0000 C   0  0  0  0  0  0  0  0  0  0  0  0
   -1.4289   -3.3000    0.0000 O   0  0  0  0  0  0  0  0  0  0  0  0
   -2.1434   -4.5375    0.0000 O   0  0  0  0  0  0  0  0  0  0  0  0
   -4.2868   -2.4750    0.0000 C   0  0  0  0  0  0  0  0  0  0  0  0
   -3.5724   -2.0625    0.0000 O   0  0  0  0  0  0  0  0  0  0  0  0
   -5.0013   -2.0625    0.0000 O   0  0  0  0  0  0  0  0  0  0  0  0
  -10.0026   -5.7750    0.0000 C   0  0  0  0  0  0  0  0  0  0  0  0
  -10.7171   -6.1875    0.0000 N   0  0  0  0  0  0  0  0  0  0  0  0
  -10.7171   -7.0125    0.0000 C   0  0  0  0  0  0  0  0  0  0  0  0
  -10.0026   -7.4250    0.0000 C   0  0  0  0  0  0  0  0  0  0  0  0
  -10.0026   -8.2500    0.0000 C   0  0  0  0  0  0  0  0  0  0  0  0
   -9.2881   -8.6625    0.0000 O   0  0  0  0  0  0  0  0  0  0  0  0
  -10.7171   -8.6625    0.0000 N   0  0  0  0  0  0  0  0  0  0  0  0
  -11.4315   -8.2500    0.0000 C   0  0  0  0  0  0  0  0  0  0  0  0
  -12.1460   -8.6625    0.0000 N   0  0  0  0  0  0  0  0  0  0  0  0
  -11.4315   -7.4250    0.0000 N   0  0  0  0  0  0  0  0  0  0  0  0
   -8.5737   -8.4950    0.0000 H   0  0  0  0  0  0  0  0  0  0  0  0
   -7.6470   -6.8900    0.0000 H   0  0  0  0  0  0  0  0  0  0  0  0
   -7.6471   -7.9600    0.0000 H   0  0  0  0  0  0  0  0  0  0  0  0
   -8.3614   -6.7225    0.0000 H   0  0  0  0  0  0  0  0  0  0  0  0
   -7.6470   -6.3100    0.0000 H   0  0  0  0  0  0  0  0  0  0  0  0
   -7.6471   -5.2400    0.0000 H   0  0  0  0  0  0  0  0  0  0  0  0
   -9.4263   -4.4577    0.0000 H   0  0  0  0  0  0  0  0  0  0  0  0
   -8.7529   -3.1965    0.0000 H   0  0  0  0  0  0  0  0  0  0  0  0
   -7.1447   -2.2680    0.0000 H   0  0  0  0  0  0  0  0  0  0  0  0
   -5.5365   -5.0535    0.0000 H   0  0  0  0  0  0  0  0  0  0  0  0
   -7.1447   -5.9820    0.0000 H   0  0  0  0  0  0  0  0  0  0  0  0
   -5.0013   -4.6970    0.0000 H   0  0  0  0  0  0  0  0  0  0  0  0
   -4.2868   -4.3700    0.0000 H   0  0  0  0  0  0  0  0  0  0  0  0
   -3.5724   -4.7825    0.0000 H   0  0  0  0  0  0  0  0  0  0  0  0
   -2.6458   -4.2475    0.0000 H   0  0  0  0  0  0  0  0  0  0  0  0
   -2.8579   -2.2300    0.0000 H   0  0  0  0  0  0  0  0  0  0  0  0
   -1.9313   -2.7650    0.0000 H   0  0  0  0  0  0  0  0  0  0  0  0
   -0.6174   -3.7685    0.0000 H   0  0  0  0  0  0  0  0  0  0  0  0
   -2.7609   -2.5310    0.0000 H   0  0  0  0  0  0  0  0  0  0  0  0
  -10.0026   -4.7050    0.0000 H   0  0  0  0  0  0  0  0  0  0  0  0
  -10.9292   -5.2400    0.0000 H   0  0  0  0  0  0  0  0  0  0  0  0
  -11.5697   -5.6952    0.0000 H   0  0  0  0  0  0  0  0  0  0  0  0
  -12.9986   -8.1702    0.0000 H   0  0  0  0  0  0  0  0  0  0  0  0
  -12.1460   -9.6470    0.0000 H   0  0  0  0  0  0  0  0  0  0  0  0
  -12.2841   -6.9328    0.0000 H   0  0  0  0  0  0  0  0  0  0  0  0
  1  2  1  0  0  0  0
  1 34  1  0  0  0  0
  1 35  1  0  0  0  0
  1 36  1  0  0  0  0
  2  3  1  0  0  0  0
  2 27  1  0  0  0  0
  3  4  1  0  0  0  0
  3 24  1  0  0  0  0
  3 37  1  1  0  0  0
  4  5  1  0  0  0  0
  4 38  1  0  0  0  0
  4 39  1  0  0  0  0
  5  6  1  0  0  0  0
  5 40  1  0  0  0  0
  6  7  2  0  0  0  0
  6 11  1  0  0  0  0
  7  8  1  0  0  0  0
  7 41  1  0  0  0  0
  8  9  2  0  0  0  0
  8 42  1  0  0  0  0
  9 10  1  0  0  0  0
  9 12  1  0  0  0  0
 10 11  2  0  0  0  0
 10 43  1  0  0  0  0
 11 44  1  0  0  0  0
 12 13  2  0  0  0  0
 12 14  1  0  0  0  0
 14 45  1  0  0  0  0
 15 14  1  0  0  0  0
 15 16  1  0  0  0  0
 15 21  1  0  0  0  0
 15 46  1  1  0  0  0
 16 17  1  0  0  0  0
 16 47  1  0  0  0  0
 16 48  1  0  0  0  0
 17 18  1  0  0  0  0
 17 49  1  0  0  0  0
 17 50  1  0  0  0  0
 18 19  1  0  0  0  0
 18 20  2  0  0  0  0
 19 51  1  0  0  0  0
 21 22  1  0  0  0  0
 21 23  2  0  0  0  0
 22 52  1  0  0  0  0
 24 25  1  0  0  0  0
 24 53  1  0  0  0  0
 24 54  1  0  0  0  0
 25 26  1  0  0  0  0
 25 55  1  0  0  0  0
 26 27  2  0  0  0  0
 26 33  1  0  0  0  0
 27 28  1  0  0  0  0
 28 29  2  0  0  0  0
 28 30  1  0  0  0  0
 30 31  2  0  0  0  0
 31 32  1  0  0  0  0
 31 33  1  0  0  0  0
 32 56  1  0  0  0  0
 32 57  1  0  0  0  0
 33 58  1  0  0  0  0
M  END
>  <DRUGBANK_ID>
DB11256

>  <COMMON_NAME>
Levomefolic acid

>  <CAS_NUMBER>
31690-09-2

>  <UNII>
8S95DH25XC

>  <SYNONYMS>
(6S)-5-methyltetrahydrofolate; (6S)-5-Methyltetrahydrofolic acid; (6S)-5-MTHF; 5-methyl-(6S)-tetrahydrofolic acid; L-5-methyltetrahydrofolate; L-5-MTHF; L-methylfolate; Levomefolate; Levomefolic acid; LMSR; N-[4-[[[(6S)-2-Amino-3,4,5,6,7,8-hexahydro-5-methyl-4-oxo-6-pteridinyl]methyl]amino]benzoyl]-L-glutamic acid

$$$$
