
 OpenBabel10282417072D

 31 32  0  0  0  0  0  0  0  0999 V2000
    0.5742   -1.3826    0.0000 O   0  0  0  0  0  0  0  0  0  0  0  0
   -1.5452   -1.1276    0.0000 O   0  0  0  0  0  0  0  0  0  0  0  0
   -0.9906   -2.8346    0.0000 O   0  0  0  0  0  0  0  0  0  0  0  0
    1.6246   -2.7484    0.0000 O   0  0  0  0  0  0  0  0  0  0  0  0
    1.3357   -0.0726    0.0000 O   0  0  0  0  0  0  0  0  0  0  0  0
   -0.8076    2.8148    0.0000 O   0  0  0  0  0  0  0  0  0  0  0  0
   -0.0932   -0.0726    0.0000 N   0  0  0  0  0  0  0  0  0  0  0  0
    0.6212    1.1648    0.0000 N   0  0  0  0  0  0  0  0  0  0  0  0
   -0.0932    2.4023    0.0000 N   0  0  0  0  0  0  0  0  0  0  0  0
   -0.7606   -1.3826    0.0000 C   0  0  2  0  0  0  0  0  0  0  0  0
   -0.5057   -2.1672    0.0000 C   0  0  1  0  0  0  0  0  0  0  0  0
   -0.0932   -0.8976    0.0000 C   0  0  1  0  0  0  0  0  0  0  0  0
    0.3192   -2.1672    0.0000 C   0  0  1  0  0  0  0  0  0  0  0  0
    0.8042   -2.8346    0.0000 C   0  0  0  0  0  0  0  0  0  0  0  0
   -0.8076    0.3398    0.0000 C   0  0  0  0  0  0  0  0  0  0  0  0
    0.6212    0.3398    0.0000 C   0  0  0  0  0  0  0  0  0  0  0  0
   -0.8076    1.1648    0.0000 C   0  0  0  0  0  0  0  0  0  0  0  0
   -0.0932    1.5773    0.0000 C   0  0  0  0  0  0  0  0  0  0  0  0
   -1.7468   -0.1788    0.0000 H   0  0  0  0  0  0  0  0  0  0  0  0
   -1.9553   -2.7332    0.0000 H   0  0  0  0  0  0  0  0  0  0  0  0
    2.1947   -3.5332    0.0000 H   0  0  0  0  0  0  0  0  0  0  0  0
   -0.8076    3.7848    0.0000 H   0  0  0  0  0  0  0  0  0  0  0  0
    0.7594    2.8945    0.0000 H   0  0  0  0  0  0  0  0  0  0  0  0
   -1.5172   -2.1392    0.0000 H   0  0  0  0  0  0  0  0  0  0  0  0
   -1.5625   -1.9998    0.0000 H   0  0  0  0  0  0  0  0  0  0  0  0
    0.8602   -0.4119    0.0000 H   0  0  0  0  0  0  0  0  0  0  0  0
    1.3760   -1.9998    0.0000 H   0  0  0  0  0  0  0  0  0  0  0  0
    0.3690   -3.8121    0.0000 H   0  0  0  0  0  0  0  0  0  0  0  0
   -0.2599   -2.9465    0.0000 H   0  0  0  0  0  0  0  0  0  0  0  0
   -1.7013   -0.1762    0.0000 H   0  0  0  0  0  0  0  0  0  0  0  0
   -1.7013    1.6808    0.0000 H   0  0  0  0  0  0  0  0  0  0  0  0
  1 12  1  0  0  0  0
  1 13  1  0  0  0  0
  2 19  1  0  0  0  0
  3 20  1  0  0  0  0
  4 14  1  0  0  0  0
  4 21  1  0  0  0  0
  5 16  2  0  0  0  0
  6  9  1  0  0  0  0
  6 22  1  0  0  0  0
  7 15  1  0  0  0  0
  7 16  1  0  0  0  0
  8 16  1  0  0  0  0
  8 18  2  0  0  0  0
  9 18  1  0  0  0  0
  9 23  1  0  0  0  0
 10  2  1  0  0  0  0
 10 11  1  0  0  0  0
 10 12  1  0  0  0  0
 10 24  1  6  0  0  0
 11  3  1  0  0  0  0
 11 13  1  0  0  0  0
 11 25  1  6  0  0  0
 12  7  1  0  0  0  0
 12 26  1  1  0  0  0
 13 14  1  0  0  0  0
 13 27  1  1  0  0  0
 14 28  1  0  0  0  0
 14 29  1  0  0  0  0
 15 17  2  0  0  0  0
 15 30  1  0  0  0  0
 17 18  1  0  0  0  0
 17 31  1  0  0  0  0
M  END
>  <DRUGBANK_ID>
DB15660

>  <COMMON_NAME>
N4-Hydroxycytidine

>  <CAS_NUMBER>
3258-02-4

>  <UNII>
C3D11PV2O4

>  <SYNONYMS>
4-N-Hydroxycytidine; beta-D-N-4-Hydroxycytidine; Beta-D-N4-hydroxycytidine; N(4)-Hydroxycytidine; NHC; Uridine, 4-oxime; Î²-D-N4-hydroxycytidine

$$$$
