
 OpenBabel10282417072D

 22 21  0  0  0  0  0  0  0  0999 V2000
    2.9980   -2.5559    0.0000 C   0  0  0  0  0  0  0  0  0  0  0  0
    3.7125   -2.1434    0.0000 C   0  0  0  0  0  0  0  0  0  0  0  0
    4.4270   -2.5559    0.0000 C   0  0  0  0  0  0  0  0  0  0  0  0
    5.1414   -2.1434    0.0000 C   0  0  0  0  0  0  0  0  0  0  0  0
    5.8559   -2.5559    0.0000 O   0  0  0  0  0  0  0  0  0  0  0  0
    6.5704   -2.1434    0.0000 C   0  0  0  0  0  0  0  0  0  0  0  0
    6.5704   -1.3184    0.0000 O   0  0  0  0  0  0  0  0  0  0  0  0
    7.2849   -2.5559    0.0000 C   0  0  0  0  0  0  0  0  0  0  0  0
    7.2849   -3.3809    0.0000 C   0  0  0  0  0  0  0  0  0  0  0  0
    7.9993   -2.1434    0.0000 C   0  0  0  0  0  0  0  0  0  0  0  0
    8.7138   -1.7309    0.0000 N   0  0  0  0  0  0  0  0  0  0  0  0
    2.0714   -2.0209    0.0000 H   0  0  0  0  0  0  0  0  0  0  0  0
    2.9980   -3.6259    0.0000 H   0  0  0  0  0  0  0  0  0  0  0  0
    2.0713   -3.0909    0.0000 H   0  0  0  0  0  0  0  0  0  0  0  0
    3.7125   -1.0734    0.0000 H   0  0  0  0  0  0  0  0  0  0  0  0
    4.6391   -1.6084    0.0000 H   0  0  0  0  0  0  0  0  0  0  0  0
    4.4270   -3.6259    0.0000 H   0  0  0  0  0  0  0  0  0  0  0  0
    5.3537   -3.0909    0.0000 H   0  0  0  0  0  0  0  0  0  0  0  0
    5.1414   -1.0734    0.0000 H   0  0  0  0  0  0  0  0  0  0  0  0
    6.0680   -1.6084    0.0000 H   0  0  0  0  0  0  0  0  0  0  0  0
    6.3912   -3.8969    0.0000 H   0  0  0  0  0  0  0  0  0  0  0  0
    8.1786   -3.8969    0.0000 H   0  0  0  0  0  0  0  0  0  0  0  0
  1  2  1  0  0  0  0
  1 12  1  0  0  0  0
  1 13  1  0  0  0  0
  1 14  1  0  0  0  0
  2  3  1  0  0  0  0
  2 15  1  0  0  0  0
  2 16  1  0  0  0  0
  3  4  1  0  0  0  0
  3 17  1  0  0  0  0
  3 18  1  0  0  0  0
  4  5  1  0  0  0  0
  4 19  1  0  0  0  0
  4 20  1  0  0  0  0
  5  6  1  0  0  0  0
  6  7  2  0  0  0  0
  6  8  1  0  0  0  0
  8  9  2  0  0  0  0
  8 10  1  0  0  0  0
  9 21  1  0  0  0  0
  9 22  1  0  0  0  0
 10 11  3  0  0  0  0
M  END
>  <DRUGBANK_ID>
DB12358

>  <COMMON_NAME>
Enbucrilate

>  <CAS_NUMBER>
6606-65-1

>  <UNII>
F8CEP82QNP

>  <SYNONYMS>
Butyl 2-cyanoacrylate; Enbucrilate; N-butyl cyanoacrylate; N-butyl-2-cyanoacrylate

$$$$
