
 OpenBabel10282417072D

 29 30  0  0  0  0  0  0  0  0999 V2000
    1.7096    0.3359    0.0000 Zn  0  0  0  0  0  0  0  0  0  0  0  0
    1.9690   -0.4593    0.0000 O   0  0  0  0  0  0  0  0  0  0  0  0
    1.3014   -1.7691    0.0000 O   0  0  0  0  0  0  0  0  0  0  0  0
   -0.3488    1.0419    0.0000 O   0  0  0  0  0  0  0  0  0  0  0  0
    0.8846    0.3359    0.0000 N   0  0  0  0  0  0  0  0  0  0  0  0
   -1.4588   -0.9440    0.0000 N   0  0  0  0  0  0  0  0  0  0  0  0
   -1.8670    0.3189    0.0000 N   0  0  0  0  0  0  0  0  0  0  0  0
    2.1264    1.0419    0.0000 N   0  0  0  0  0  0  0  0  0  0  0  0
    0.6379   -0.4593    0.0000 C   0  0  2  0  0  0  0  0  0  0  0  0
    1.3014   -0.9440    0.0000 C   0  0  0  0  0  0  0  0  0  0  0  0
    0.4763    1.0419    0.0000 C   0  0  0  0  0  0  0  0  0  0  0  0
   -0.0807   -0.8633    0.0000 C   0  0  0  0  0  0  0  0  0  0  0  0
   -0.7953   -0.4593    0.0000 C   0  0  0  0  0  0  0  0  0  0  0  0
    0.8846    1.7691    0.0000 C   0  0  0  0  0  0  0  0  0  0  0  0
   -1.0419    0.3359    0.0000 C   0  0  0  0  0  0  0  0  0  0  0  0
   -2.1264   -0.4593    0.0000 C   0  0  0  0  0  0  0  0  0  0  0  0
    1.7096    1.7691    0.0000 C   0  0  0  0  0  0  0  0  0  0  0  0
   -1.4574   -1.9285    0.0000 H   0  0  0  0  0  0  0  0  0  0  0  0
    1.6136    0.1602    0.0000 H   0  0  0  0  0  0  0  0  0  0  0  0
    3.1464    1.0387    0.0000 H   0  0  0  0  0  0  0  0  0  0  0  0
   -0.1943    0.2133    0.0000 H   0  0  0  0  0  0  0  0  0  0  0  0
   -0.0820   -1.9333    0.0000 H   0  0  0  0  0  0  0  0  0  0  0  0
   -1.0052   -1.4019    0.0000 H   0  0  0  0  0  0  0  0  0  0  0  0
    0.3441    2.6925    0.0000 H   0  0  0  0  0  0  0  0  0  0  0  0
    1.4168    2.6973    0.0000 H   0  0  0  0  0  0  0  0  0  0  0  0
   -0.4383    1.1730    0.0000 H   0  0  0  0  0  0  0  0  0  0  0  0
   -3.1090   -0.7746    0.0000 H   0  0  0  0  0  0  0  0  0  0  0  0
    2.2461    2.6949    0.0000 H   0  0  0  0  0  0  0  0  0  0  0  0
    1.1753    2.6962    0.0000 H   0  0  0  0  0  0  0  0  0  0  0  0
  1  2  1  0  0  0  0
  1  5  1  0  0  0  0
  2 10  1  0  0  0  0
  3 10  2  0  0  0  0
  4 11  2  0  0  0  0
  5  9  1  0  0  0  0
  5 11  1  0  0  0  0
  6 13  1  0  0  0  0
  6 16  1  0  0  0  0
  6 18  1  0  0  0  0
  7 15  1  0  0  0  0
  7 16  2  0  0  0  0
  8 17  1  0  0  0  0
  8 19  1  0  0  0  0
  8 20  1  0  0  0  0
  9 10  1  0  0  0  0
  9 12  1  0  0  0  0
  9 21  1  1  0  0  0
 11 14  1  0  0  0  0
 12 13  1  0  0  0  0
 12 22  1  0  0  0  0
 12 23  1  0  0  0  0
 13 15  2  0  0  0  0
 14 17  1  0  0  0  0
 14 24  1  0  0  0  0
 14 25  1  0  0  0  0
 15 26  1  0  0  0  0
 16 27  1  0  0  0  0
 17 28  1  0  0  0  0
 17 29  1  0  0  0  0
M  END
>  <DRUGBANK_ID>
DB09221

>  <COMMON_NAME>
Polaprezinc

>  <CAS_NUMBER>
107667-60-7

>  <UNII>
0WA1B15A1Z

>  <SYNONYMS>
beta-Alanyl-L-histidinato zinc; Polaprezinc; Zinc L-carnosine

$$$$
