CZA
 OpenBabel10282417072D

 45 49  0  0  0  0  0  0  0  0999 V2000
   -1.1823   -0.7569    0.0000 O   0  0  0  0  0  0  0  0  0  0  0  0
   -1.4372   -1.5415    0.0000 C   0  0  0  0  0  0  0  0  0  0  0  0
   -2.2219   -1.7964    0.0000 C   0  0  0  0  0  0  0  0  0  0  0  0
   -2.8893   -1.3115    0.0000 C   0  0  0  0  0  0  0  0  0  0  0  0
   -3.6430   -1.6471    0.0000 O   0  0  0  0  0  0  0  0  0  0  0  0
   -2.8031   -0.4910    0.0000 C   0  0  0  0  0  0  0  0  0  0  0  0
   -0.9523   -2.2089    0.0000 C   0  0  2  0  0  0  0  0  0  0  0  0
   -0.1677   -2.4639    0.0000 C   0  0  1  0  0  0  0  0  0  0  0  0
    0.5448   -2.0514    0.0000 C   0  0  0  0  0  0  0  0  0  0  0  0
    0.8448   -1.1942    0.0000 C   0  0  0  0  0  0  0  0  0  0  0  0
    1.6698   -1.1942    0.0000 N   0  0  0  0  0  0  0  0  0  0  0  0
    1.9752   -2.0514    0.0000 C   0  0  0  0  0  0  0  0  0  0  0  0
    1.2573   -2.4639    0.0000 C   0  0  0  0  0  0  0  0  0  0  0  0
    2.6877   -2.4639    0.0000 C   0  0  0  0  0  0  0  0  0  0  0  0
    2.6877   -3.2889    0.0000 C   0  0  0  0  0  0  0  0  0  0  0  0
    1.9752   -3.7014    0.0000 C   0  0  0  0  0  0  0  0  0  0  0  0
    1.2573   -3.2889    0.0000 C   0  0  0  0  0  0  0  0  0  0  0  0
    0.5448   -3.7014    0.0000 C   0  0  0  0  0  0  0  0  0  0  0  0
   -0.1677   -3.2889    0.0000 C   0  0  1  0  0  0  0  0  0  0  0  0
   -0.9523   -3.5438    0.0000 C   0  0  0  0  0  0  0  0  0  0  0  0
   -0.6168   -4.2975    0.0000 C   0  0  0  0  0  0  0  0  0  0  0  0
   -1.6668   -3.9563    0.0000 C   0  0  0  0  0  0  0  0  0  0  0  0
   -1.4372   -2.8764    0.0000 N   0  0  0  0  0  0  0  0  0  0  0  0
   -2.2219   -2.6214    0.0000 C   0  0  0  0  0  0  0  0  0  0  0  0
   -2.8893   -3.1063    0.0000 O   0  0  0  0  0  0  0  0  0  0  0  0
   -0.6091   -1.7365    0.0000 H   0  0  0  0  0  0  0  0  0  0  0  0
   -0.2291   -1.8832    0.0000 H   0  0  0  0  0  0  0  0  0  0  0  0
   -0.0268   -3.8555    0.0000 H   0  0  0  0  0  0  0  0  0  0  0  0
   -1.8256   -0.0557    0.0000 H   0  0  0  0  0  0  0  0  0  0  0  0
   -3.6688    0.1379    0.0000 H   0  0  0  0  0  0  0  0  0  0  0  0
   -2.6913    0.5731    0.0000 H   0  0  0  0  0  0  0  0  0  0  0  0
    0.2476   -0.3525    0.0000 H   0  0  0  0  0  0  0  0  0  0  0  0
    2.2372   -0.3897    0.0000 H   0  0  0  0  0  0  0  0  0  0  0  0
    3.5817   -1.9484    0.0000 H   0  0  0  0  0  0  0  0  0  0  0  0
    3.5817   -3.8044    0.0000 H   0  0  0  0  0  0  0  0  0  0  0  0
    1.9769   -4.7334    0.0000 H   0  0  0  0  0  0  0  0  0  0  0  0
    0.5448   -4.7714    0.0000 H   0  0  0  0  0  0  0  0  0  0  0  0
   -0.3822   -4.2358    0.0000 H   0  0  0  0  0  0  0  0  0  0  0  0
   -1.2458   -5.1631    0.0000 H   0  0  0  0  0  0  0  0  0  0  0  0
    0.4473   -4.4094    0.0000 H   0  0  0  0  0  0  0  0  0  0  0  0
   -0.1817   -5.2750    0.0000 H   0  0  0  0  0  0  0  0  0  0  0  0
   -2.5934   -3.4213    0.0000 H   0  0  0  0  0  0  0  0  0  0  0  0
   -1.6668   -5.0263    0.0000 H   0  0  0  0  0  0  0  0  0  0  0  0
   -2.5935   -4.4913    0.0000 H   0  0  0  0  0  0  0  0  0  0  0  0
   -3.7453   -2.7252    0.0000 H   0  0  0  0  0  0  0  0  0  0  0  0
  1  2  2  0  0  0  0
  2  3  1  0  0  0  0
  2  7  1  0  0  0  0
  3 24  2  0  0  0  0
  3  4  1  0  0  0  0
  4  6  1  0  0  0  0
  4  5  2  0  0  0  0
  6 29  1  0  0  0  0
  6 30  1  0  0  0  0
  6 31  1  0  0  0  0
  7 23  1  0  0  0  0
  7  8  1  0  0  0  0
  7 26  1  1  0  0  0
  8 19  1  0  0  0  0
  8  9  1  0  0  0  0
  8 27  1  6  0  0  0
  9 13  1  0  0  0  0
  9 10  2  0  0  0  0
 10 11  1  0  0  0  0
 10 32  1  0  0  0  0
 11 12  1  0  0  0  0
 11 33  1  0  0  0  0
 12 13  1  0  0  0  0
 12 14  2  0  0  0  0
 13 17  2  0  0  0  0
 14 15  1  0  0  0  0
 14 34  1  0  0  0  0
 15 16  2  0  0  0  0
 15 35  1  0  0  0  0
 16 17  1  0  0  0  0
 16 36  1  0  0  0  0
 17 18  1  0  0  0  0
 18 19  1  0  0  0  0
 18 37  1  0  0  0  0
 18 38  1  0  0  0  0
 19 20  1  0  0  0  0
 19 28  1  6  0  0  0
 20 21  1  0  0  0  0
 20 22  1  0  0  0  0
 20 23  1  0  0  0  0
 21 39  1  0  0  0  0
 21 40  1  0  0  0  0
 21 41  1  0  0  0  0
 22 42  1  0  0  0  0
 22 43  1  0  0  0  0
 22 44  1  0  0  0  0
 23 24  1  0  0  0  0
 24 25  1  0  0  0  0
 25 45  1  0  0  0  0
M  END
>  <DRUGBANK_ID>
DB07604

>  <COMMON_NAME>
(6AR,11AS,11BR)-10-ACETYL-9-HYDROXY-7,7-DIMETHYL-2,6,6A,7,11A,11B-HEXAHYDRO-11H-PYRROLO[1',2':2,3]ISOINDOLO[4,5,6-CD]INDOL-11-ONE

$$$$
