
 OpenBabel10282417072D

 35 35  0  0  0  0  0  0  0  0999 V2000
    2.1434   -5.3625    0.0000 C   0  0  0  0  0  0  0  0  0  0  0  0
    2.8579   -4.9500    0.0000 O   0  0  0  0  0  0  0  0  0  0  0  0
    3.5724   -5.3625    0.0000 C   0  0  0  0  0  0  0  0  0  0  0  0
    4.2868   -4.9500    0.0000 C   0  0  0  0  0  0  0  0  0  0  0  0
    5.0013   -5.3625    0.0000 C   0  0  0  0  0  0  0  0  0  0  0  0
    5.7158   -4.9500    0.0000 C   0  0  0  0  0  0  0  0  0  0  0  0
    5.7158   -4.1250    0.0000 O   0  0  0  0  0  0  0  0  0  0  0  0
    6.4302   -5.3625    0.0000 N   0  0  0  0  0  0  0  0  0  0  0  0
    7.1447   -4.9500    0.0000 C   0  0  0  0  0  0  0  0  0  0  0  0
    7.8592   -5.3625    0.0000 C   0  0  0  0  0  0  0  0  0  0  0  0
    8.5737   -4.9500    0.0000 C   0  0  0  0  0  0  0  0  0  0  0  0
    9.2881   -5.3625    0.0000 C   0  0  0  0  0  0  0  0  0  0  0  0
    9.2881   -6.1875    0.0000 C   0  0  0  0  0  0  0  0  0  0  0  0
    8.5737   -6.6000    0.0000 C   0  0  0  0  0  0  0  0  0  0  0  0
    7.8592   -6.1875    0.0000 C   0  0  0  0  0  0  0  0  0  0  0  0
   10.0026   -6.6000    0.0000 C   0  0  0  0  0  0  0  0  0  0  0  0
   10.7171   -7.0125    0.0000 F   0  0  0  0  0  0  0  0  0  0  0  0
    9.5901   -7.3145    0.0000 F   0  0  0  0  0  0  0  0  0  0  0  0
   10.4151   -5.8855    0.0000 F   0  0  0  0  0  0  0  0  0  0  0  0
    1.2168   -4.8275    0.0000 H   0  0  0  0  0  0  0  0  0  0  0  0
    2.1434   -6.4325    0.0000 H   0  0  0  0  0  0  0  0  0  0  0  0
    1.2167   -5.8975    0.0000 H   0  0  0  0  0  0  0  0  0  0  0  0
    3.5724   -6.4325    0.0000 H   0  0  0  0  0  0  0  0  0  0  0  0
    4.4991   -5.8975    0.0000 H   0  0  0  0  0  0  0  0  0  0  0  0
    4.2868   -3.8800    0.0000 H   0  0  0  0  0  0  0  0  0  0  0  0
    5.2134   -4.4150    0.0000 H   0  0  0  0  0  0  0  0  0  0  0  0
    5.0013   -6.4325    0.0000 H   0  0  0  0  0  0  0  0  0  0  0  0
    5.9279   -5.8975    0.0000 H   0  0  0  0  0  0  0  0  0  0  0  0
    6.4302   -6.3470    0.0000 H   0  0  0  0  0  0  0  0  0  0  0  0
    7.1447   -3.8800    0.0000 H   0  0  0  0  0  0  0  0  0  0  0  0
    8.0713   -4.4150    0.0000 H   0  0  0  0  0  0  0  0  0  0  0  0
    8.5737   -3.9180    0.0000 H   0  0  0  0  0  0  0  0  0  0  0  0
   10.1818   -4.8465    0.0000 H   0  0  0  0  0  0  0  0  0  0  0  0
    8.5737   -7.6320    0.0000 H   0  0  0  0  0  0  0  0  0  0  0  0
    6.9655   -6.7035    0.0000 H   0  0  0  0  0  0  0  0  0  0  0  0
  1  2  1  0  0  0  0
  1 20  1  0  0  0  0
  1 21  1  0  0  0  0
  1 22  1  0  0  0  0
  2  3  1  0  0  0  0
  3  4  1  0  0  0  0
  3 23  1  0  0  0  0
  3 24  1  0  0  0  0
  4  5  1  0  0  0  0
  4 25  1  0  0  0  0
  4 26  1  0  0  0  0
  5  6  1  0  0  0  0
  5 27  1  0  0  0  0
  5 28  1  0  0  0  0
  6  7  2  0  0  0  0
  6  8  1  0  0  0  0
  8  9  1  0  0  0  0
  8 29  1  0  0  0  0
  9 10  1  0  0  0  0
  9 30  1  0  0  0  0
  9 31  1  0  0  0  0
 10 11  2  0  0  0  0
 10 15  1  0  0  0  0
 11 12  1  0  0  0  0
 11 32  1  0  0  0  0
 12 13  2  0  0  0  0
 12 33  1  0  0  0  0
 13 14  1  0  0  0  0
 13 16  1  0  0  0  0
 14 15  2  0  0  0  0
 14 34  1  0  0  0  0
 15 35  1  0  0  0  0
 16 17  1  0  0  0  0
 16 18  1  0  0  0  0
 16 19  1  0  0  0  0
M  END
>  <DRUGBANK_ID>
DB12928

>  <COMMON_NAME>
GET-73

>  <CAS_NUMBER>
202402-01-5

>  <UNII>
U5CLZ223FH

$$$$
