
 OpenBabel10282417072D

123128  0  0  1  0  0  0  0  0999 V2000
    2.8053    1.8499    0.0000 H   0  0  0  0  0  0  0  0  0  0  0  0
    2.2533    1.2368    0.0000 C   0  0  2  0  0  0  0  0  0  0  0  0
    1.5858    0.7519    0.0000 C   0  0  0  0  0  0  0  0  0  0  0  0
    0.9184    1.2368    0.0000 C   0  0  0  0  0  0  0  0  0  0  0  0
    1.1733    2.0214    0.0000 C   0  0  0  0  0  0  0  0  0  0  0  0
    1.9983    2.0214    0.0000 N   0  0  0  0  0  0  0  0  0  0  0  0
    2.5504    2.6345    0.0000 C   0  0  0  0  0  0  0  0  0  0  0  0
    3.3574    2.4630    0.0000 O   0  0  0  0  0  0  0  0  0  0  0  0
    2.2954    3.4191    0.0000 C   0  0  2  0  0  0  0  0  0  0  0  0
    2.8475    4.0322    0.0000 C   0  0  0  0  0  0  0  0  0  0  0  0
    3.6544    3.8607    0.0000 C   0  0  0  0  0  0  0  0  0  0  0  0
    3.9094    3.0761    0.0000 C   0  0  0  0  0  0  0  0  0  0  0  0
    4.7164    2.9045    0.0000 N   0  0  0  0  0  0  0  0  0  0  0  0
    4.9713    2.1199    0.0000 C   0  0  0  0  0  0  0  0  0  0  0  0
    4.4193    1.5068    0.0000 O   0  0  0  0  0  0  0  0  0  0  0  0
    5.7783    1.9484    0.0000 C   0  0  2  0  0  0  0  0  0  0  0  0
    6.3303    2.5615    0.0000 C   0  0  0  0  0  0  0  0  0  0  0  0
    7.1373    2.3900    0.0000 C   0  0  0  0  0  0  0  0  0  0  0  0
    7.6893    3.0030    0.0000 C   0  0  0  0  0  0  0  0  0  0  0  0
    8.4963    2.8315    0.0000 N   0  0  0  0  0  0  0  0  0  0  0  0
    9.0483    3.4446    0.0000 C   0  0  0  0  0  0  0  0  0  0  0  0
    9.8553    3.2731    0.0000 N   0  0  0  0  0  0  0  0  0  0  0  0
    8.7934    4.2292    0.0000 N   0  0  0  0  0  0  0  0  0  0  0  0
    6.0332    1.1638    0.0000 N   0  0  0  0  0  0  0  0  0  0  0  0
    5.4812    0.5507    0.0000 C   0  0  0  0  0  0  0  0  0  0  0  0
    4.6742    0.7222    0.0000 O   0  0  0  0  0  0  0  0  0  0  0  0
    5.7361   -0.2340    0.0000 C   0  0  2  0  0  0  0  0  0  0  0  0
    6.5431   -0.4055    0.0000 C   0  0  0  0  0  0  0  0  0  0  0  0
    6.7980   -1.1901    0.0000 C   0  0  0  0  0  0  0  0  0  0  0  0
    6.3131   -1.8575    0.0000 C   0  0  0  0  0  0  0  0  0  0  0  0
    6.7980   -2.5250    0.0000 N   0  0  0  0  0  0  0  0  0  0  0  0
    7.5826   -2.2700    0.0000 C   0  0  0  0  0  0  0  0  0  0  0  0
    8.2971   -2.6825    0.0000 C   0  0  0  0  0  0  0  0  0  0  0  0
    9.0116   -2.2700    0.0000 C   0  0  0  0  0  0  0  0  0  0  0  0
    9.0116   -1.4450    0.0000 C   0  0  0  0  0  0  0  0  0  0  0  0
    8.2971   -1.0325    0.0000 C   0  0  0  0  0  0  0  0  0  0  0  0
    7.5826   -1.4450    0.0000 C   0  0  0  0  0  0  0  0  0  0  0  0
    5.1841   -0.8470    0.0000 N   0  0  0  0  0  0  0  0  0  0  0  0
    4.3771   -0.6755    0.0000 C   0  0  0  0  0  0  0  0  0  0  0  0
    3.8251   -1.2886    0.0000 O   0  0  0  0  0  0  0  0  0  0  0  0
    4.1222    0.1091    0.0000 C   0  0  0  0  0  0  0  0  0  0  0  0
    3.7866   -0.6446    0.0000 C   0  0  0  0  0  0  0  0  0  0  0  0
    2.9661   -0.7308    0.0000 C   0  0  0  0  0  0  0  0  0  0  0  0
    2.6306   -1.4845    0.0000 C   0  0  0  0  0  0  0  0  0  0  0  0
    1.8101   -1.5707    0.0000 C   0  0  0  0  0  0  0  0  0  0  0  0
    1.3252   -0.9033    0.0000 C   0  0  0  0  0  0  0  0  0  0  0  0
    1.6607   -0.1496    0.0000 C   0  0  0  0  0  0  0  0  0  0  0  0
    2.4812   -0.0634    0.0000 C   0  0  0  0  0  0  0  0  0  0  0  0
    3.3152    0.2806    0.0000 N   0  0  0  0  0  0  0  0  0  0  0  0
    3.0603    1.0652    0.0000 C   0  0  0  0  0  0  0  0  0  0  0  0
    3.6123    1.6783    0.0000 O   0  0  0  0  0  0  0  0  0  0  0  0
    1.4885    3.5906    0.0000 N   0  0  0  0  0  0  0  0  0  0  0  0
    1.2335    4.3753    0.0000 C   0  0  0  0  0  0  0  0  0  0  0  0
    0.4266    4.5468    0.0000 O   0  0  0  0  0  0  0  0  0  0  0  0
    1.7856    4.9884    0.0000 C   0  0  0  0  0  0  0  0  0  0  0  0
    1.5306    5.7730    0.0000 C   0  0  0  0  0  0  0  0  0  0  0  0
    2.0827    6.3861    0.0000 C   0  0  0  0  0  0  0  0  0  0  0  0
    1.8277    7.1707    0.0000 C   0  0  0  0  0  0  0  0  0  0  0  0
    2.3798    7.7838    0.0000 C   0  0  0  0  0  0  0  0  0  0  0  0
    3.1867    7.6123    0.0000 C   0  0  0  0  0  0  0  0  0  0  0  0
    3.4417    6.8276    0.0000 C   0  0  0  0  0  0  0  0  0  0  0  0
    2.8896    6.2145    0.0000 C   0  0  0  0  0  0  0  0  0  0  0  0
    1.5858   -0.3181    0.0000 H   0  0  0  0  0  0  0  0  0  0  0  0
    0.6324    0.2661    0.0000 H   0  0  0  0  0  0  0  0  0  0  0  0
   -0.0992    0.9061    0.0000 H   0  0  0  0  0  0  0  0  0  0  0  0
    0.1618    1.9934    0.0000 H   0  0  0  0  0  0  0  0  0  0  0  0
    0.5444    2.8870    0.0000 H   0  0  0  0  0  0  0  0  0  0  0  0
    1.6591    2.9748    0.0000 H   0  0  0  0  0  0  0  0  0  0  0  0
    1.5795    2.6239    0.0000 H   0  0  0  0  0  0  0  0  0  0  0  0
    2.5169    5.0498    0.0000 H   0  0  0  0  0  0  0  0  0  0  0  0
    3.5635    4.8274    0.0000 H   0  0  0  0  0  0  0  0  0  0  0  0
    4.3703    4.6559    0.0000 H   0  0  0  0  0  0  0  0  0  0  0  0
    4.7010    3.6383    0.0000 H   0  0  0  0  0  0  0  0  0  0  0  0
    3.1934    2.2809    0.0000 H   0  0  0  0  0  0  0  0  0  0  0  0
    4.2400    2.0585    0.0000 H   0  0  0  0  0  0  0  0  0  0  0  0
    5.3752    3.6361    0.0000 H   0  0  0  0  0  0  0  0  0  0  0  0
    5.4476    2.9660    0.0000 H   0  0  0  0  0  0  0  0  0  0  0  0
    5.9996    3.5791    0.0000 H   0  0  0  0  0  0  0  0  0  0  0  0
    7.0462    3.3567    0.0000 H   0  0  0  0  0  0  0  0  0  0  0  0
    7.4679    1.3724    0.0000 H   0  0  0  0  0  0  0  0  0  0  0  0
    8.1839    2.1675    0.0000 H   0  0  0  0  0  0  0  0  0  0  0  0
    7.3587    4.0206    0.0000 H   0  0  0  0  0  0  0  0  0  0  0  0
    8.4053    3.7982    0.0000 H   0  0  0  0  0  0  0  0  0  0  0  0
    8.8006    1.8952    0.0000 H   0  0  0  0  0  0  0  0  0  0  0  0
   10.1596    2.3368    0.0000 H   0  0  0  0  0  0  0  0  0  0  0  0
   10.5140    4.0048    0.0000 H   0  0  0  0  0  0  0  0  0  0  0  0
    9.4522    4.9608    0.0000 H   0  0  0  0  0  0  0  0  0  0  0  0
    6.9962    0.9591    0.0000 H   0  0  0  0  0  0  0  0  0  0  0  0
    6.4521    0.5612    0.0000 H   0  0  0  0  0  0  0  0  0  0  0  0
    7.2591    0.3897    0.0000 H   0  0  0  0  0  0  0  0  0  0  0  0
    7.5897   -0.6280    0.0000 H   0  0  0  0  0  0  0  0  0  0  0  0
    5.2811   -1.8575    0.0000 H   0  0  0  0  0  0  0  0  0  0  0  0
    6.4938   -3.4613    0.0000 H   0  0  0  0  0  0  0  0  0  0  0  0
    8.2971   -3.7145    0.0000 H   0  0  0  0  0  0  0  0  0  0  0  0
    9.9053   -2.7860    0.0000 H   0  0  0  0  0  0  0  0  0  0  0  0
    9.9053   -0.9290    0.0000 H   0  0  0  0  0  0  0  0  0  0  0  0
    8.2971   -0.0005    0.0000 H   0  0  0  0  0  0  0  0  0  0  0  0
    5.4883   -1.7833    0.0000 H   0  0  0  0  0  0  0  0  0  0  0  0
    3.1688   -0.3767    0.0000 H   0  0  0  0  0  0  0  0  0  0  0  0
    4.4155   -1.5103    0.0000 H   0  0  0  0  0  0  0  0  0  0  0  0
    3.3513   -1.6221    0.0000 H   0  0  0  0  0  0  0  0  0  0  0  0
    1.9020   -0.8427    0.0000 H   0  0  0  0  0  0  0  0  0  0  0  0
    3.2595   -2.3501    0.0000 H   0  0  0  0  0  0  0  0  0  0  0  0
    2.1954   -2.4620    0.0000 H   0  0  0  0  0  0  0  0  0  0  0  0
    1.3749   -2.5482    0.0000 H   0  0  0  0  0  0  0  0  0  0  0  0
    0.7460   -1.6825    0.0000 H   0  0  0  0  0  0  0  0  0  0  0  0
    0.2611   -1.0152    0.0000 H   0  0  0  0  0  0  0  0  0  0  0  0
    0.6962   -0.0377    0.0000 H   0  0  0  0  0  0  0  0  0  0  0  0
    1.0318    0.7160    0.0000 H   0  0  0  0  0  0  0  0  0  0  0  0
    2.0959    0.8279    0.0000 H   0  0  0  0  0  0  0  0  0  0  0  0
    2.9164    0.9141    0.0000 H   0  0  0  0  0  0  0  0  0  0  0  0
    3.5453    0.0484    0.0000 H   0  0  0  0  0  0  0  0  0  0  0  0
    2.6564   -0.4510    0.0000 H   0  0  0  0  0  0  0  0  0  0  0  0
    0.8298    2.8590    0.0000 H   0  0  0  0  0  0  0  0  0  0  0  0
    2.8322    4.7659    0.0000 H   0  0  0  0  0  0  0  0  0  0  0  0
    2.5015    5.7836    0.0000 H   0  0  0  0  0  0  0  0  0  0  0  0
    0.4840    5.9955    0.0000 H   0  0  0  0  0  0  0  0  0  0  0  0
    1.2000    6.7906    0.0000 H   0  0  0  0  0  0  0  0  0  0  0  0
    0.8182    7.3853    0.0000 H   0  0  0  0  0  0  0  0  0  0  0  0
    2.0609    8.7653    0.0000 H   0  0  0  0  0  0  0  0  0  0  0  0
    3.8772    8.3792    0.0000 H   0  0  0  0  0  0  0  0  0  0  0  0
    4.4511    6.6130    0.0000 H   0  0  0  0  0  0  0  0  0  0  0  0
    3.2084    5.2330    0.0000 H   0  0  0  0  0  0  0  0  0  0  0  0
  2  1  1  1  0  0  0
  2  3  1  0  0  0  0
  2  6  1  0  0  0  0
  2 50  1  0  0  0  0
  3  4  1  0  0  0  0
  3 63  1  0  0  0  0
  3 64  1  0  0  0  0
  4  5  1  0  0  0  0
  4 65  1  0  0  0  0
  4 66  1  0  0  0  0
  5  6  1  0  0  0  0
  5 67  1  0  0  0  0
  5 68  1  0  0  0  0
  6  7  1  0  0  0  0
  7  8  2  0  0  0  0
  9  7  1  0  0  0  0
  9 10  1  0  0  0  0
  9 52  1  0  0  0  0
  9 69  1  6  0  0  0
 10 11  1  0  0  0  0
 10 70  1  0  0  0  0
 10 71  1  0  0  0  0
 11 12  1  0  0  0  0
 11 72  1  0  0  0  0
 11 73  1  0  0  0  0
 12 13  1  0  0  0  0
 12 74  1  0  0  0  0
 12 75  1  0  0  0  0
 13 14  1  0  0  0  0
 13 76  1  0  0  0  0
 14 15  2  0  0  0  0
 16 14  1  0  0  0  0
 16 17  1  0  0  0  0
 16 24  1  0  0  0  0
 16 77  1  1  0  0  0
 17 18  1  0  0  0  0
 17 78  1  0  0  0  0
 17 79  1  0  0  0  0
 18 19  1  0  0  0  0
 18 80  1  0  0  0  0
 18 81  1  0  0  0  0
 19 20  1  0  0  0  0
 19 82  1  0  0  0  0
 19 83  1  0  0  0  0
 20 21  1  0  0  0  0
 20 84  1  0  0  0  0
 21 22  1  0  0  0  0
 21 23  2  0  0  0  0
 22 85  1  0  0  0  0
 22 86  1  0  0  0  0
 23 87  1  0  0  0  0
 24 25  1  0  0  0  0
 24 88  1  0  0  0  0
 25 26  2  0  0  0  0
 27 25  1  0  0  0  0
 27 28  1  0  0  0  0
 27 38  1  0  0  0  0
 27 89  1  1  0  0  0
 28 29  1  0  0  0  0
 28 90  1  0  0  0  0
 28 91  1  0  0  0  0
 29 30  2  0  0  0  0
 29 37  1  0  0  0  0
 30 31  1  0  0  0  0
 30 92  1  0  0  0  0
 31 32  1  0  0  0  0
 31 93  1  0  0  0  0
 32 33  2  0  0  0  0
 32 37  1  0  0  0  0
 33 34  1  0  0  0  0
 33 94  1  0  0  0  0
 34 35  2  0  0  0  0
 34 95  1  0  0  0  0
 35 36  1  0  0  0  0
 35 96  1  0  0  0  0
 36 37  2  0  0  0  0
 36 97  1  0  0  0  0
 38 39  1  0  0  0  0
 38 98  1  0  0  0  0
 39 40  2  0  0  0  0
 41 39  1  0  0  0  0
 41 42  1  0  0  0  0
 41 49  1  0  0  0  0
 41 99  1  0  0  0  0
 42 43  1  0  0  0  0
 42100  1  0  0  0  0
 42101  1  0  0  0  0
 43 44  1  0  0  0  0
 43 48  1  0  0  0  0
 43102  1  0  0  0  0
 44 45  1  0  0  0  0
 44103  1  0  0  0  0
 44104  1  0  0  0  0
 45 46  1  0  0  0  0
 45105  1  0  0  0  0
 45106  1  0  0  0  0
 46 47  1  0  0  0  0
 46107  1  0  0  0  0
 46108  1  0  0  0  0
 47 48  1  0  0  0  0
 47109  1  0  0  0  0
 47110  1  0  0  0  0
 48111  1  0  0  0  0
 48112  1  0  0  0  0
 49 50  1  0  0  0  0
 49113  1  0  0  0  0
 50 51  2  0  0  0  0
 52 53  1  0  0  0  0
 52114  1  0  0  0  0
 53 54  2  0  0  0  0
 53 55  1  0  0  0  0
 55 56  1  0  0  0  0
 55115  1  0  0  0  0
 55116  1  0  0  0  0
 56 57  1  0  0  0  0
 56117  1  0  0  0  0
 56118  1  0  0  0  0
 57 58  2  0  0  0  0
 57 62  1  0  0  0  0
 58 59  1  0  0  0  0
 58119  1  0  0  0  0
 59 60  2  0  0  0  0
 59120  1  0  0  0  0
 60 61  1  0  0  0  0
 60121  1  0  0  0  0
 61 62  2  0  0  0  0
 61122  1  0  0  0  0
 62123  1  0  0  0  0
M  END
>  <DRUGBANK_ID>
DB17938

>  <COMMON_NAME>
PMX-205

>  <CAS_NUMBER>
514814-49-4

>  <UNII>
DC25O3L7KZ

>  <SYNONYMS>
Cyclic hexapeptide complement c5a antagonist; Hydrocinnamate-(orn-pro-dcha-trp-arg)

$$$$
