
 OpenBabel10282417072D

 52 55  0  0  1  0  0  0  0  0999 V2000
    1.8036   -0.1138    0.0000 C   0  0  0  0  0  0  0  0  0  0  0  0
    0.3045   -1.0964    0.0000 C   0  0  0  0  0  0  0  0  0  0  0  0
    1.8036    1.2211    0.0000 C   0  0  2  0  0  0  0  0  0  0  0  0
    0.3045    1.3786    0.0000 C   0  0  0  0  0  0  0  0  0  0  0  0
    2.2885    0.5536    0.0000 C   0  0  0  0  0  0  0  0  0  0  0  0
   -1.1245   -0.2714    0.0000 C   0  0  2  0  0  0  0  0  0  0  0  0
   -0.4100    0.9661    0.0000 C   0  0  0  0  0  0  0  0  0  0  0  0
   -0.4100   -1.5089    0.0000 C   0  0  0  0  0  0  0  0  0  0  0  0
   -1.1245   -1.0964    0.0000 C   0  0  0  0  0  0  0  0  0  0  0  0
   -1.8390    0.1411    0.0000 C   0  0  0  0  0  0  0  0  0  0  0  0
   -1.8390   -1.5089    0.0000 C   0  0  0  0  0  0  0  0  0  0  0  0
   -2.5534   -0.2714    0.0000 C   0  0  0  0  0  0  0  0  0  0  0  0
    0.3045   -0.2714    0.0000 C   0  0  2  0  0  0  0  0  0  0  0  0
    0.3045    0.5536    0.0000 H   0  0  0  0  0  0  0  0  0  0  0  0
   -0.4100    0.1411    0.0000 C   0  0  1  0  0  0  0  0  0  0  0  0
   -0.4100   -0.6839    0.0000 H   0  0  0  0  0  0  0  0  0  0  0  0
    1.0189    0.9661    0.0000 C   0  0  2  0  0  0  0  0  0  0  0  0
    1.0189    1.7911    0.0000 C   0  0  0  0  0  0  0  0  0  0  0  0
    1.0189    0.1411    0.0000 C   0  0  1  0  0  0  0  0  0  0  0  0
    1.0189   -0.6839    0.0000 H   0  0  0  0  0  0  0  0  0  0  0  0
   -3.2679   -1.5089    0.0000 O   0  0  0  0  0  0  0  0  0  0  0  0
   -2.5534   -1.0964    0.0000 C   0  0  0  0  0  0  0  0  0  0  0  0
   -1.1245    0.5536    0.0000 H   0  0  0  0  0  0  0  0  0  0  0  0
    2.5181    1.6336    0.0000 C   0  0  0  0  0  0  0  0  0  0  0  0
    1.8036    2.0461    0.0000 O   0  0  0  0  0  0  0  0  0  0  0  0
    0.3044    2.2036    0.0000 C   0  0  0  0  0  0  0  0  0  0  0  0
    3.2325    2.0461    0.0000 C   0  0  0  0  0  0  0  0  0  0  0  0
   -1.1245    1.3786    0.0000 C   0  0  0  0  0  0  0  0  0  0  0  0
    2.1343   -1.1314    0.0000 H   0  0  0  0  0  0  0  0  0  0  0  0
    2.8604   -0.2812    0.0000 H   0  0  0  0  0  0  0  0  0  0  0  0
    1.2311   -1.6314    0.0000 H   0  0  0  0  0  0  0  0  0  0  0  0
    0.3045   -2.1664    0.0000 H   0  0  0  0  0  0  0  0  0  0  0  0
    0.3045    2.4486    0.0000 H   0  0  0  0  0  0  0  0  0  0  0  0
   -0.6221    1.9136    0.0000 H   0  0  0  0  0  0  0  0  0  0  0  0
    3.3585    0.5536    0.0000 H   0  0  0  0  0  0  0  0  0  0  0  0
    2.7743    1.5070    0.0000 H   0  0  0  0  0  0  0  0  0  0  0  0
   -0.4100   -2.5789    0.0000 H   0  0  0  0  0  0  0  0  0  0  0  0
   -1.3366   -2.0439    0.0000 H   0  0  0  0  0  0  0  0  0  0  0  0
   -1.8390    1.2111    0.0000 H   0  0  0  0  0  0  0  0  0  0  0  0
   -2.7657    0.6761    0.0000 H   0  0  0  0  0  0  0  0  0  0  0  0
   -1.8390   -2.5409    0.0000 H   0  0  0  0  0  0  0  0  0  0  0  0
   -3.4801    0.2636    0.0000 H   0  0  0  0  0  0  0  0  0  0  0  0
   -3.4800   -0.8064    0.0000 H   0  0  0  0  0  0  0  0  0  0  0  0
    1.9455    2.3261    0.0000 H   0  0  0  0  0  0  0  0  0  0  0  0
    1.0189    2.8611    0.0000 H   0  0  0  0  0  0  0  0  0  0  0  0
    2.6436    2.5311    0.0000 H   0  0  0  0  0  0  0  0  0  0  0  0
    0.3044    3.2736    0.0000 H   0  0  0  0  0  0  0  0  0  0  0  0
   -0.6222    1.6686    0.0000 H   0  0  0  0  0  0  0  0  0  0  0  0
   -0.6223    2.7386    0.0000 H   0  0  0  0  0  0  0  0  0  0  0  0
    4.0933    2.5431    0.0000 H   0  0  0  0  0  0  0  0  0  0  0  0
   -1.1245    2.4106    0.0000 H   0  0  0  0  0  0  0  0  0  0  0  0
   -2.0182    0.8626    0.0000 H   0  0  0  0  0  0  0  0  0  0  0  0
  1 29  1  0  0  0  0
  1 30  1  0  0  0  0
  2  8  1  0  0  0  0
  2 31  1  0  0  0  0
  2 32  1  0  0  0  0
  3  5  1  0  0  0  0
  3 24  1  6  0  0  0
  3 25  1  0  0  0  0
  4  7  1  0  0  0  0
  4 33  1  0  0  0  0
  4 34  1  0  0  0  0
  5  1  1  0  0  0  0
  5 35  1  0  0  0  0
  5 36  1  0  0  0  0
  6  9  1  0  0  0  0
  6 10  1  0  0  0  0
  6 23  1  1  0  0  0
  7 28  2  0  0  0  0
  8  9  1  0  0  0  0
  8 37  1  0  0  0  0
  8 38  1  0  0  0  0
  9 11  2  0  0  0  0
 10 12  1  0  0  0  0
 10 39  1  0  0  0  0
 10 40  1  0  0  0  0
 11 22  1  0  0  0  0
 11 41  1  0  0  0  0
 12 22  1  0  0  0  0
 12 42  1  0  0  0  0
 12 43  1  0  0  0  0
 13 15  1  0  0  0  0
 13  2  1  0  0  0  0
 13 14  1  1  0  0  0
 15  6  1  0  0  0  0
 15  7  1  0  0  0  0
 15 16  1  6  0  0  0
 17  3  1  0  0  0  0
 17  4  1  0  0  0  0
 17 18  1  1  0  0  0
 18 26  1  0  0  0  0
 18 44  1  0  0  0  0
 18 45  1  0  0  0  0
 19 13  1  0  0  0  0
 19 17  1  0  0  0  0
 19  1  1  0  0  0  0
 19 20  1  6  0  0  0
 22 21  2  0  0  0  0
 24 27  3  0  0  0  0
 25 46  1  0  0  0  0
 26 47  1  0  0  0  0
 26 48  1  0  0  0  0
 26 49  1  0  0  0  0
 27 50  1  0  0  0  0
 28 51  1  0  0  0  0
 28 52  1  0  0  0  0
M  END
>  <DRUGBANK_ID>
DB00294

>  <SECONDARY_ACCESSION_NUMBERS>
APRD00766

>  <COMMON_NAME>
Etonogestrel

>  <CAS_NUMBER>
54048-10-1

>  <UNII>
304GTH6RNH

>  <SYNONYMS>
3-Ketodesogestrel; 3-Oxodesogestrel; Etonogestrel; Ã©tonogestrel; Etonogestrelum

$$$$
