RHP
 OpenBabel10282417072D

 27 28  0  0  0  0  0  0  0  0999 V2000
   -2.0428    2.5600    0.0000 C   0  0  0  0  0  0  0  0  0  0  0  0
   -1.7878    1.7754    0.0000 C   0  0  0  0  0  0  0  0  0  0  0  0
   -1.5329    0.9907    0.0000 C   0  0  0  0  0  0  0  0  0  0  0  0
   -0.7259    0.8192    0.0000 N   0  0  0  0  0  0  0  0  0  0  0  0
   -0.4710    0.0346    0.0000 C   0  0  2  0  0  0  0  0  0  0  0  0
   -0.9559   -0.6328    0.0000 C   0  0  0  0  0  0  0  0  0  0  0  0
   -0.4710   -1.3003    0.0000 C   0  0  0  0  0  0  0  0  0  0  0  0
    0.3136   -1.0453    0.0000 C   0  0  0  0  0  0  0  0  0  0  0  0
    0.3136   -0.2203    0.0000 C   0  0  0  0  0  0  0  0  0  0  0  0
    1.0281    0.1922    0.0000 C   0  0  0  0  0  0  0  0  0  0  0  0
    1.0281   -1.4578    0.0000 C   0  0  0  0  0  0  0  0  0  0  0  0
    1.7426   -1.0453    0.0000 C   0  0  0  0  0  0  0  0  0  0  0  0
    1.7426   -0.2203    0.0000 C   0  0  0  0  0  0  0  0  0  0  0  0
    2.4570    0.1922    0.0000 O   0  0  0  0  0  0  0  0  0  0  0  0
   -1.0477    0.1259    0.0000 H   0  0  0  0  0  0  0  0  0  0  0  0
   -2.3500    3.5053    0.0000 H   0  0  0  0  0  0  0  0  0  0  0  0
   -2.2489    0.1955    0.0000 H   0  0  0  0  0  0  0  0  0  0  0  0
   -1.2022   -0.0269    0.0000 H   0  0  0  0  0  0  0  0  0  0  0  0
   -0.0434    1.5772    0.0000 H   0  0  0  0  0  0  0  0  0  0  0  0
   -2.0259   -0.6328    0.0000 H   0  0  0  0  0  0  0  0  0  0  0  0
   -1.4417   -1.5862    0.0000 H   0  0  0  0  0  0  0  0  0  0  0  0
   -0.8016   -2.3179    0.0000 H   0  0  0  0  0  0  0  0  0  0  0  0
    0.2856   -2.0569    0.0000 H   0  0  0  0  0  0  0  0  0  0  0  0
    1.0281    1.2242    0.0000 H   0  0  0  0  0  0  0  0  0  0  0  0
    1.0281   -2.4898    0.0000 H   0  0  0  0  0  0  0  0  0  0  0  0
    2.6363   -1.5613    0.0000 H   0  0  0  0  0  0  0  0  0  0  0  0
    3.2685   -0.2763    0.0000 H   0  0  0  0  0  0  0  0  0  0  0  0
  1  2  3  0  0  0  0
  1 16  1  0  0  0  0
  2  3  1  0  0  0  0
  3  4  1  0  0  0  0
  3 17  1  0  0  0  0
  3 18  1  0  0  0  0
  4 19  1  0  0  0  0
  5  4  1  0  0  0  0
  5  6  1  0  0  0  0
  5  9  1  0  0  0  0
  5 15  1  6  0  0  0
  6  7  1  0  0  0  0
  6 20  1  0  0  0  0
  6 21  1  0  0  0  0
  7  8  1  0  0  0  0
  7 22  1  0  0  0  0
  7 23  1  0  0  0  0
  8  9  1  0  0  0  0
  8 11  2  0  0  0  0
  9 10  2  0  0  0  0
 10 13  1  0  0  0  0
 10 24  1  0  0  0  0
 11 12  1  0  0  0  0
 11 25  1  0  0  0  0
 12 13  2  0  0  0  0
 12 26  1  0  0  0  0
 13 14  1  0  0  0  0
 14 27  1  0  0  0  0
M  END
>  <DRUGBANK_ID>
DB04307

>  <SECONDARY_ACCESSION_NUMBERS>
EXPT02781

>  <COMMON_NAME>
5-Hydroxy-N-Propargyl-1(R)-Aminoindan

$$$$
