
 OpenBabel10282417072D

 44 45  0  0  0  0  0  0  0  0999 V2000
    2.5559   -0.1105    0.0000 C   0  0  0  0  0  0  0  0  0  0  0  0
    1.7309   -1.5394    0.0000 C   0  0  0  0  0  0  0  0  0  0  0  0
    0.0000    2.0625    0.0000 C   0  0  0  0  0  0  0  0  0  0  0  0
    1.4289    2.0625    0.0000 C   0  0  0  0  0  0  0  0  0  0  0  0
   -1.4289   -0.4125    0.0000 C   0  0  0  0  0  0  0  0  0  0  0  0
   -0.7144   -0.8250    0.0000 C   0  0  0  0  0  0  0  0  0  0  0  0
   -0.7144    0.8250    0.0000 C   0  0  0  0  0  0  0  0  0  0  0  0
    1.4289    0.4125    0.0000 C   0  0  0  0  0  0  0  0  0  0  0  0
    2.8578   -1.2375    0.0000 C   0  0  0  0  0  0  0  0  0  0  0  0
   -1.4289    0.4125    0.0000 C   0  0  0  0  0  0  0  0  0  0  0  0
    0.0000    0.4125    0.0000 C   0  0  0  0  0  0  0  0  0  0  0  0
    0.0000   -0.4125    0.0000 C   0  0  0  0  0  0  0  0  0  0  0  0
    0.7144    0.8250    0.0000 C   0  0  1  0  0  0  0  0  0  0  0  0
    1.4289   -0.4125    0.0000 C   0  0  1  0  0  0  0  0  0  0  0  0
    2.1434   -0.8250    0.0000 C   0  0  0  0  0  0  0  0  0  0  0  0
    0.7144   -0.8250    0.0000 N   0  0  0  0  0  0  0  0  0  0  0  0
    0.7144    1.6500    0.0000 N   0  0  0  0  0  0  0  0  0  0  0  0
   -2.1434    0.8250    0.0000 N   0  0  0  0  0  0  0  0  0  0  0  0
    2.8578   -2.0625    0.0000 O   0  0  0  0  0  0  0  0  0  0  0  0
   -2.8578    0.4125    0.0000 O   0  0  0  0  0  0  0  0  0  0  0  0
   -2.1434    1.6500    0.0000 O   0  0  0  0  0  0  0  0  0  0  0  0
    0.0000    1.2375    0.0000 H   0  0  0  0  0  0  0  0  0  0  0  0
    1.4289   -1.2375    0.0000 H   0  0  0  0  0  0  0  0  0  0  0  0
    3.6259   -0.1105    0.0000 H   0  0  0  0  0  0  0  0  0  0  0  0
    2.0209    0.8161    0.0000 H   0  0  0  0  0  0  0  0  0  0  0  0
    3.0909    0.8162    0.0000 H   0  0  0  0  0  0  0  0  0  0  0  0
    0.6609   -1.5394    0.0000 H   0  0  0  0  0  0  0  0  0  0  0  0
    2.2659   -2.4661    0.0000 H   0  0  0  0  0  0  0  0  0  0  0  0
    1.1959   -2.4660    0.0000 H   0  0  0  0  0  0  0  0  0  0  0  0
    0.0000    3.1325    0.0000 H   0  0  0  0  0  0  0  0  0  0  0  0
   -0.9267    1.5275    0.0000 H   0  0  0  0  0  0  0  0  0  0  0  0
   -0.9266    2.5975    0.0000 H   0  0  0  0  0  0  0  0  0  0  0  0
    2.3555    1.5275    0.0000 H   0  0  0  0  0  0  0  0  0  0  0  0
    1.4289    3.1325    0.0000 H   0  0  0  0  0  0  0  0  0  0  0  0
    2.3556    2.5975    0.0000 H   0  0  0  0  0  0  0  0  0  0  0  0
   -2.3226   -0.9285    0.0000 H   0  0  0  0  0  0  0  0  0  0  0  0
   -0.7144   -1.8570    0.0000 H   0  0  0  0  0  0  0  0  0  0  0  0
   -0.7144    1.8570    0.0000 H   0  0  0  0  0  0  0  0  0  0  0  0
    2.3555    0.9475    0.0000 H   0  0  0  0  0  0  0  0  0  0  0  0
    2.3555   -0.1225    0.0000 H   0  0  0  0  0  0  0  0  0  0  0  0
    3.7845   -0.7025    0.0000 H   0  0  0  0  0  0  0  0  0  0  0  0
    3.7844   -1.7725    0.0000 H   0  0  0  0  0  0  0  0  0  0  0  0
    0.7144   -1.8095    0.0000 H   0  0  0  0  0  0  0  0  0  0  0  0
    2.0178   -2.5475    0.0000 H   0  0  0  0  0  0  0  0  0  0  0  0
  1 24  1  0  0  0  0
  1 25  1  0  0  0  0
  1 26  1  0  0  0  0
  2 27  1  0  0  0  0
  2 28  1  0  0  0  0
  2 29  1  0  0  0  0
  3 30  1  0  0  0  0
  3 31  1  0  0  0  0
  3 32  1  0  0  0  0
  4 33  1  0  0  0  0
  4 34  1  0  0  0  0
  4 35  1  0  0  0  0
  5 36  1  0  0  0  0
  6  5  2  0  0  0  0
  6 37  1  0  0  0  0
  7 38  1  0  0  0  0
  8 39  1  0  0  0  0
  8 40  1  0  0  0  0
  9 41  1  0  0  0  0
  9 42  1  0  0  0  0
 10  5  1  0  0  0  0
 10  7  2  0  0  0  0
 11  7  1  0  0  0  0
 12  6  1  0  0  0  0
 12 11  2  0  0  0  0
 13  8  1  0  0  0  0
 13 11  1  0  0  0  0
 13 17  1  0  0  0  0
 13 22  1  6  0  0  0
 14  8  1  0  0  0  0
 14 15  1  0  0  0  0
 14 16  1  0  0  0  0
 14 23  1  6  0  0  0
 15  1  1  0  0  0  0
 15  2  1  0  0  0  0
 15  9  1  0  0  0  0
 16 12  1  0  0  0  0
 16 43  1  0  0  0  0
 17  3  1  0  0  0  0
 17  4  1  0  0  0  0
 18 10  1  0  0  0  0
 19  9  1  0  0  0  0
 19 44  1  0  0  0  0
 20 18  2  0  0  0  0
 21 18  2  0  0  0  0
M  END
>  <DRUGBANK_ID>
DB13938

>  <COMMON_NAME>
S-40503

>  <CAS_NUMBER>
404920-28-1

>  <UNII>
TBF49WHM83

>  <SYNONYMS>
2-(4-(Dimethylamino)-6-nitro-1,2,3,4-tetrahydroquinolin-2-yl)-2-methylpropan-1-ol

$$$$
