BPR
 OpenBabel10282417072D

 32 33  0  0  0  0  0  0  0  0999 V2000
   -0.7311    0.9235    0.0000 N   0  0  0  0  0  0  0  0  0  0  0  0
   -0.9861    0.1389    0.0000 C   0  0  2  0  0  0  0  0  0  0  0  0
   -0.5011   -0.5285    0.0000 C   0  0  0  0  0  0  0  0  0  0  0  0
   -0.8367   -1.2822    0.0000 O   0  0  0  0  0  0  0  0  0  0  0  0
   -1.8111    0.1389    0.0000 C   0  0  0  0  0  0  0  0  0  0  0  0
   -2.0660    0.9235    0.0000 C   0  0  0  0  0  0  0  0  0  0  0  0
   -1.3986    1.4085    0.0000 C   0  0  0  0  0  0  0  0  0  0  0  0
    1.3129   -2.4144    0.0000 O   0  0  0  0  0  0  0  0  0  0  0  0
    0.3193   -0.4423    0.0000 N   0  0  0  0  0  0  0  0  0  0  0  0
    0.7318    0.2722    0.0000 C   0  0  0  0  0  0  0  0  0  0  0  0
    0.8714   -1.0554    0.0000 C   0  0  1  0  0  0  0  0  0  0  0  0
    1.6250   -0.7198    0.0000 C   0  0  0  0  0  0  0  0  0  0  0  0
    1.5388    0.1007    0.0000 C   0  0  0  0  0  0  0  0  0  0  0  0
   -0.0848   -2.1173    0.0000 O   0  0  0  0  0  0  0  0  0  0  0  0
    0.6998   -1.8624    0.0000 B   0  0  0  0  0  0  0  0  0  0  0  0
   -0.4093    0.2303    0.0000 H   0  0  0  0  0  0  0  0  0  0  0  0
    0.3073   -1.2065    0.0000 H   0  0  0  0  0  0  0  0  0  0  0  0
    0.2390    1.2386    0.0000 H   0  0  0  0  0  0  0  0  0  0  0  0
   -2.4400   -0.7267    0.0000 H   0  0  0  0  0  0  0  0  0  0  0  0
   -2.8679    0.3063    0.0000 H   0  0  0  0  0  0  0  0  0  0  0  0
   -3.0836    1.2541    0.0000 H   0  0  0  0  0  0  0  0  0  0  0  0
   -2.2335    1.9803    0.0000 H   0  0  0  0  0  0  0  0  0  0  0  0
   -1.3986    2.4785    0.0000 H   0  0  0  0  0  0  0  0  0  0  0  0
   -2.3520    1.8942    0.0000 H   0  0  0  0  0  0  0  0  0  0  0  0
    1.1113   -3.3632    0.0000 H   0  0  0  0  0  0  0  0  0  0  0  0
    0.2966    1.2497    0.0000 H   0  0  0  0  0  0  0  0  0  0  0  0
    1.4051    1.1038    0.0000 H   0  0  0  0  0  0  0  0  0  0  0  0
    2.5517   -1.2548    0.0000 H   0  0  0  0  0  0  0  0  0  0  0  0
    2.5224   -0.1370    0.0000 H   0  0  0  0  0  0  0  0  0  0  0  0
    2.3340    0.8167    0.0000 H   0  0  0  0  0  0  0  0  0  0  0  0
    2.5377   -0.2828    0.0000 H   0  0  0  0  0  0  0  0  0  0  0  0
   -0.8056   -1.4682    0.0000 H   0  0  0  0  0  0  0  0  0  0  0  0
  1  2  1  0  0  0  0
  1  7  1  0  0  0  0
  1 18  1  0  0  0  0
  2  3  1  0  0  0  0
  2  5  1  0  0  0  0
  2 16  1  1  0  0  0
  3  4  2  0  0  0  0
  3  9  1  0  0  0  0
  5  6  1  0  0  0  0
  5 19  1  0  0  0  0
  5 20  1  0  0  0  0
  6  7  1  0  0  0  0
  6 21  1  0  0  0  0
  6 22  1  0  0  0  0
  7 23  1  0  0  0  0
  7 24  1  0  0  0  0
  8 15  1  0  0  0  0
  8 25  1  0  0  0  0
  9 10  1  0  0  0  0
  9 11  1  0  0  0  0
 10 13  1  0  0  0  0
 10 26  1  0  0  0  0
 10 27  1  0  0  0  0
 11 12  1  0  0  0  0
 11 15  1  0  0  0  0
 11 17  1  6  0  0  0
 12 13  1  0  0  0  0
 12 28  1  0  0  0  0
 12 29  1  0  0  0  0
 13 30  1  0  0  0  0
 13 31  1  0  0  0  0
 14 15  1  0  0  0  0
 14 32  1  0  0  0  0
M  END
>  <DRUGBANK_ID>
DB07482

>  <COMMON_NAME>
(2R)-N-[(2R)-2-(DIHYDROXYBORYL)-1-L-PROLYLPYRROLIDIN-2-YL]-N-[(5R)-5-(DIHYDROXYBORYL)-1-L-PROLYLPYRROLIDIN-2-YL]-L-PROLINAMIDE

$$$$
