540
 OpenBabel10282417072D

 41 43  0  0  0  0  0  0  0  0999 V2000
    2.5991   -1.7284    0.0000 N   0  0  0  0  0  0  0  0  0  0  0  0
    4.4402    2.5532    0.0000 C   0  0  0  0  0  0  0  0  0  0  0  0
    3.6154    2.5532    0.0000 C   0  0  0  0  0  0  0  0  0  0  0  0
    4.9546    1.9082    0.0000 C   0  0  0  0  0  0  0  0  0  0  0  0
    3.1010    1.9082    0.0000 C   0  0  0  0  0  0  0  0  0  0  0  0
    4.0279    0.7462    0.0000 C   0  0  0  0  0  0  0  0  0  0  0  0
    4.7710    1.1041    0.0000 C   0  0  0  0  0  0  0  0  0  0  0  0
    3.2845    1.1041    0.0000 C   0  0  0  0  0  0  0  0  0  0  0  0
    4.0279   -0.0786    0.0000 C   0  0  0  0  0  0  0  0  0  0  0  0
    5.7715    2.1741    0.0000 C   0  0  0  0  0  0  0  0  0  0  0  0
    2.2840    2.1741    0.0000 C   0  0  0  0  0  0  0  0  0  0  0  0
    5.3918    0.5102    0.0000 C   0  0  0  0  0  0  0  0  0  0  0  0
    2.6639    0.5102    0.0000 C   0  0  0  0  0  0  0  0  0  0  0  0
    3.3134   -0.4911    0.0000 C   0  0  0  0  0  0  0  0  0  0  0  0
    6.4059    1.5947    0.0000 C   0  0  0  0  0  0  0  0  0  0  0  0
    1.6498    1.5948    0.0000 C   0  0  0  0  0  0  0  0  0  0  0  0
    3.3133   -1.3159    0.0000 C   0  0  0  0  0  0  0  0  0  0  0  0
    6.2147    0.7569    0.0000 C   0  0  0  0  0  0  0  0  0  0  0  0
    1.8408    0.7569    0.0000 C   0  0  0  0  0  0  0  0  0  0  0  0
    2.5991   -2.5532    0.0000 C   0  0  0  0  0  0  0  0  0  0  0  0
    1.7157   -1.2185    0.0000 H   0  0  0  0  0  0  0  0  0  0  0  0
    4.9044    3.5172    0.0000 H   0  0  0  0  0  0  0  0  0  0  0  0
    5.5035    2.6730    0.0000 H   0  0  0  0  0  0  0  0  0  0  0  0
    3.1512    3.5172    0.0000 H   0  0  0  0  0  0  0  0  0  0  0  0
    2.5521    2.6730    0.0000 H   0  0  0  0  0  0  0  0  0  0  0  0
    4.9216   -0.5946    0.0000 H   0  0  0  0  0  0  0  0  0  0  0  0
    5.9894    3.1828    0.0000 H   0  0  0  0  0  0  0  0  0  0  0  0
    2.0661    3.1828    0.0000 H   0  0  0  0  0  0  0  0  0  0  0  0
    5.1505   -0.4932    0.0000 H   0  0  0  0  0  0  0  0  0  0  0  0
    2.9053   -0.4932    0.0000 H   0  0  0  0  0  0  0  0  0  0  0  0
    2.3868    0.0440    0.0000 H   0  0  0  0  0  0  0  0  0  0  0  0
    2.3867   -1.0260    0.0000 H   0  0  0  0  0  0  0  0  0  0  0  0
    7.3908    1.9028    0.0000 H   0  0  0  0  0  0  0  0  0  0  0  0
    0.6649    1.9030    0.0000 H   0  0  0  0  0  0  0  0  0  0  0  0
    4.2400   -1.8509    0.0000 H   0  0  0  0  0  0  0  0  0  0  0  0
    4.2400   -0.7809    0.0000 H   0  0  0  0  0  0  0  0  0  0  0  0
    6.9684    0.0520    0.0000 H   0  0  0  0  0  0  0  0  0  0  0  0
    1.0870    0.0520    0.0000 H   0  0  0  0  0  0  0  0  0  0  0  0
    1.6725   -3.0882    0.0000 H   0  0  0  0  0  0  0  0  0  0  0  0
    3.5257   -3.0882    0.0000 H   0  0  0  0  0  0  0  0  0  0  0  0
    2.5991   -3.6232    0.0000 H   0  0  0  0  0  0  0  0  0  0  0  0
  1 17  1  0  0  0  0
  1 20  1  0  0  0  0
  1 21  1  0  0  0  0
  2  3  1  0  0  0  0
  2  4  1  0  0  0  0
  2 22  1  0  0  0  0
  2 23  1  0  0  0  0
  3  5  1  0  0  0  0
  3 24  1  0  0  0  0
  3 25  1  0  0  0  0
  4  7  1  0  0  0  0
  4 10  2  0  0  0  0
  5  8  1  0  0  0  0
  5 11  2  0  0  0  0
  6  7  1  0  0  0  0
  6  8  1  0  0  0  0
  6  9  2  0  0  0  0
  7 12  2  0  0  0  0
  8 13  2  0  0  0  0
  9 14  1  0  0  0  0
  9 26  1  0  0  0  0
 10 15  1  0  0  0  0
 10 27  1  0  0  0  0
 11 16  1  0  0  0  0
 11 28  1  0  0  0  0
 12 18  1  0  0  0  0
 12 29  1  0  0  0  0
 13 19  1  0  0  0  0
 13 30  1  0  0  0  0
 14 17  1  0  0  0  0
 14 31  1  0  0  0  0
 14 32  1  0  0  0  0
 15 18  2  0  0  0  0
 15 33  1  0  0  0  0
 16 19  2  0  0  0  0
 16 34  1  0  0  0  0
 17 35  1  0  0  0  0
 17 36  1  0  0  0  0
 18 37  1  0  0  0  0
 19 38  1  0  0  0  0
 20 39  1  0  0  0  0
 20 40  1  0  0  0  0
 20 41  1  0  0  0  0
M  END
>  <DRUGBANK_ID>
DB00540

>  <SECONDARY_ACCESSION_NUMBERS>
APRD00602

>  <COMMON_NAME>
Nortriptyline

>  <CAS_NUMBER>
72-69-5

>  <UNII>
BL03SY4LXB

>  <SYNONYMS>
10,11-dihydro-N-methyl-5H-dibenzo[a,d]cycloheptene-Δ5,γ-propylamine; 3-(10,11-dihydro-5H-dibenzo[a,d]cyclohepten-5-ylidene)-N-methyl-1-propanamine; Demethylamitriptyline; Desmethylamitriptyline; Nortriptylina; Nortriptyline; Nortriptylinum

$$$$
