1236
 OpenBabel10282417072D

 15 14  0  0  0  0  0  0  0  0999 V2000
    1.6500    1.2928    0.0000 F   0  0  0  0  0  0  0  0  0  0  0  0
    1.9520    0.1658    0.0000 F   0  0  0  0  0  0  0  0  0  0  0  0
    2.7770    1.5948    0.0000 F   0  0  0  0  0  0  0  0  0  0  0  0
    4.5080    1.2928    0.0000 F   0  0  0  0  0  0  0  0  0  0  0  0
    4.2060    0.1658    0.0000 F   0  0  0  0  0  0  0  0  0  0  0  0
    3.3810    1.5948    0.0000 F   0  0  0  0  0  0  0  0  0  0  0  0
    2.3645   -1.5948    0.0000 F   0  0  0  0  0  0  0  0  0  0  0  0
    3.0791   -0.3572    0.0000 O   0  0  0  0  0  0  0  0  0  0  0  0
    3.0791    0.4678    0.0000 C   0  0  0  0  0  0  0  0  0  0  0  0
    2.3645    0.8803    0.0000 C   0  0  0  0  0  0  0  0  0  0  0  0
    3.7935    0.8803    0.0000 C   0  0  0  0  0  0  0  0  0  0  0  0
    2.3645   -0.7697    0.0000 C   0  0  0  0  0  0  0  0  0  0  0  0
    3.0790    1.5378    0.0000 H   0  0  0  0  0  0  0  0  0  0  0  0
    1.4379   -0.2347    0.0000 H   0  0  0  0  0  0  0  0  0  0  0  0
    2.3646    0.3003    0.0000 H   0  0  0  0  0  0  0  0  0  0  0  0
  1 10  1  0  0  0  0
  2 10  1  0  0  0  0
  3 10  1  0  0  0  0
  4 11  1  0  0  0  0
  5 11  1  0  0  0  0
  6 11  1  0  0  0  0
  7 12  1  0  0  0  0
  8  9  1  0  0  0  0
  8 12  1  0  0  0  0
  9 10  1  0  0  0  0
  9 11  1  0  0  0  0
  9 13  1  0  0  0  0
 12 14  1  0  0  0  0
 12 15  1  0  0  0  0
M  END
>  <DRUGBANK_ID>
DB01236

>  <SECONDARY_ACCESSION_NUMBERS>
APRD00219

>  <COMMON_NAME>
Sevoflurane

>  <CAS_NUMBER>
28523-86-6

>  <UNII>
38LVP0K73A

>  <SYNONYMS>
1,1,1,3,3,3-Hexafluoro-2-(fluoromethoxy)propane; Sevofluran; Sevoflurane; Sevoflurano; Sevofluranum

$$$$
