
 OpenBabel10282417072D

 18 19  0  0  0  0  0  0  0  0999 V2000
    0.0001   -0.4122    0.0000 C   0  0  0  0  0  0  0  0  0  0  0  0
   -0.0001    0.4127    0.0000 C   0  0  0  0  0  0  0  0  0  0  0  0
   -0.7142   -0.8249    0.0000 C   0  0  0  0  0  0  0  0  0  0  0  0
    0.7147   -0.8245    0.0000 C   0  0  0  0  0  0  0  0  0  0  0  0
   -0.7147    0.8249    0.0000 C   0  0  0  0  0  0  0  0  0  0  0  0
    0.7142    0.8254    0.0000 N   0  0  0  0  0  0  0  0  0  0  0  0
   -1.4287   -0.4127    0.0000 C   0  0  0  0  0  0  0  0  0  0  0  0
   -0.7139   -1.6499    0.0000 Cl  0  0  0  0  0  0  0  0  0  0  0  0
    1.4290   -0.4117    0.0000 C   0  0  0  0  0  0  0  0  0  0  0  0
   -1.4290    0.4122    0.0000 C   0  0  0  0  0  0  0  0  0  0  0  0
   -0.7150    1.6499    0.0000 O   0  0  0  0  0  0  0  0  0  0  0  0
    1.4288    0.4132    0.0000 C   0  0  0  0  0  0  0  0  0  0  0  0
    0.7151   -1.8565    0.0000 H   0  0  0  0  0  0  0  0  0  0  0  0
   -2.3223   -0.9290    0.0000 H   0  0  0  0  0  0  0  0  0  0  0  0
    2.3229   -0.9274    0.0000 H   0  0  0  0  0  0  0  0  0  0  0  0
   -2.3229    0.9279    0.0000 H   0  0  0  0  0  0  0  0  0  0  0  0
    0.0963    2.1187    0.0000 H   0  0  0  0  0  0  0  0  0  0  0  0
    2.3224    0.9295    0.0000 H   0  0  0  0  0  0  0  0  0  0  0  0
  1  2  1  0  0  0  0
  1  3  1  0  0  0  0
  1  4  2  0  0  0  0
  2  5  1  0  0  0  0
  2  6  2  0  0  0  0
  3  7  2  0  0  0  0
  3  8  1  0  0  0  0
  4  9  1  0  0  0  0
  4 13  1  0  0  0  0
  5 10  2  0  0  0  0
  5 11  1  0  0  0  0
  6 12  1  0  0  0  0
  7 10  1  0  0  0  0
  7 14  1  0  0  0  0
  9 12  2  0  0  0  0
  9 15  1  0  0  0  0
 10 16  1  0  0  0  0
 11 17  1  0  0  0  0
 12 18  1  0  0  0  0
M  END
>  <DRUGBANK_ID>
DB15933

>  <COMMON_NAME>
Cloxyquin

>  <CAS_NUMBER>
130-16-5

>  <UNII>
BPF36H1G6S

>  <SYNONYMS>
5-Chloro-8-hydroxyquinoline; Cloxiquina; Cloxiquine; Cloxiquinum; Cloxyquin

$$$$
