A94
 OpenBabel10282417072D

 46 48  0  0  0  0  0  0  0  0999 V2000
   -3.8625   -1.6288    0.0000 C   0  0  0  0  0  0  0  0  0  0  0  0
   -4.1981   -0.8751    0.0000 N   0  0  0  0  0  0  0  0  0  0  0  0
   -3.7131   -0.2077    0.0000 C   0  0  0  0  0  0  0  0  0  0  0  0
   -2.8927   -0.2939    0.0000 N   0  0  0  0  0  0  0  0  0  0  0  0
   -2.5571   -1.0476    0.0000 C   0  0  0  0  0  0  0  0  0  0  0  0
   -3.0420   -1.7150    0.0000 C   0  0  0  0  0  0  0  0  0  0  0  0
   -4.3474   -2.2962    0.0000 C   0  0  0  0  0  0  0  0  0  0  0  0
   -4.0487    0.5460    0.0000 N   0  0  0  0  0  0  0  0  0  0  0  0
   -1.7366   -1.1338    0.0000 C   0  0  0  0  0  0  0  0  0  0  0  0
   -1.2517   -0.4664    0.0000 N   0  0  0  0  0  0  0  0  0  0  0  0
   -0.4312   -0.5526    0.0000 S   0  0  0  0  0  0  0  0  0  0  0  0
   -0.5175   -1.3731    0.0000 O   0  0  0  0  0  0  0  0  0  0  0  0
   -0.3450    0.2678    0.0000 O   0  0  0  0  0  0  0  0  0  0  0  0
    3.8975    2.4605    0.0000 C   0  0  0  0  0  0  0  0  0  0  0  0
    3.2301    1.9756    0.0000 C   0  0  0  0  0  0  0  0  0  0  0  0
    3.4850    1.1910    0.0000 C   0  0  0  0  0  0  0  0  0  0  0  0
    4.3100    1.1910    0.0000 C   0  0  0  0  0  0  0  0  0  0  0  0
    4.5649    1.9756    0.0000 O   0  0  0  0  0  0  0  0  0  0  0  0
    4.7949    0.5235    0.0000 O   0  0  0  0  0  0  0  0  0  0  0  0
    3.0001    0.5235    0.0000 C   0  0  0  0  0  0  0  0  0  0  0  0
    2.1796    0.6098    0.0000 N   0  0  0  0  0  0  0  0  0  0  0  0
    1.6947   -0.0577    0.0000 C   0  0  0  0  0  0  0  0  0  0  0  0
    2.0302   -0.8113    0.0000 C   0  0  0  0  0  0  0  0  0  0  0  0
    1.5453   -1.4788    0.0000 C   0  0  0  0  0  0  0  0  0  0  0  0
    0.7248   -1.3925    0.0000 C   0  0  0  0  0  0  0  0  0  0  0  0
    0.3893   -0.6389    0.0000 C   0  0  0  0  0  0  0  0  0  0  0  0
    0.8742    0.0286    0.0000 C   0  0  0  0  0  0  0  0  0  0  0  0
   -2.6222   -2.6578    0.0000 H   0  0  0  0  0  0  0  0  0  0  0  0
   -5.4115   -2.1843    0.0000 H   0  0  0  0  0  0  0  0  0  0  0  0
   -3.9122   -3.2737    0.0000 H   0  0  0  0  0  0  0  0  0  0  0  0
   -4.9763   -3.1618    0.0000 H   0  0  0  0  0  0  0  0  0  0  0  0
   -3.4701    1.3425    0.0000 H   0  0  0  0  0  0  0  0  0  0  0  0
   -5.0278    0.6489    0.0000 H   0  0  0  0  0  0  0  0  0  0  0  0
   -1.3014   -2.1113    0.0000 H   0  0  0  0  0  0  0  0  0  0  0  0
   -0.6725   -1.2456    0.0000 H   0  0  0  0  0  0  0  0  0  0  0  0
   -1.6666    0.4654    0.0000 H   0  0  0  0  0  0  0  0  0  0  0  0
    3.8975    3.5305    0.0000 H   0  0  0  0  0  0  0  0  0  0  0  0
    2.9441    2.9463    0.0000 H   0  0  0  0  0  0  0  0  0  0  0  0
    2.2125    2.3063    0.0000 H   0  0  0  0  0  0  0  0  0  0  0  0
    2.4735    1.2190    0.0000 H   0  0  0  0  0  0  0  0  0  0  0  0
    3.4198   -0.4193    0.0000 H   0  0  0  0  0  0  0  0  0  0  0  0
    1.7792    1.5092    0.0000 H   0  0  0  0  0  0  0  0  0  0  0  0
    3.0565   -0.9192    0.0000 H   0  0  0  0  0  0  0  0  0  0  0  0
    1.9650   -2.4216    0.0000 H   0  0  0  0  0  0  0  0  0  0  0  0
    0.1182   -2.2274    0.0000 H   0  0  0  0  0  0  0  0  0  0  0  0
    0.4545    0.9714    0.0000 H   0  0  0  0  0  0  0  0  0  0  0  0
  1  2  2  0  0  0  0
  1  6  1  0  0  0  0
  1  7  1  0  0  0  0
  2  3  1  0  0  0  0
  3  8  1  0  0  0  0
  3  4  2  0  0  0  0
  4  5  1  0  0  0  0
  5  9  1  0  0  0  0
  5  6  2  0  0  0  0
  6 28  1  0  0  0  0
  7 29  1  0  0  0  0
  7 30  1  0  0  0  0
  7 31  1  0  0  0  0
  8 32  1  0  0  0  0
  8 33  1  0  0  0  0
  9 10  1  0  0  0  0
  9 34  1  0  0  0  0
  9 35  1  0  0  0  0
 10 11  1  0  0  0  0
 10 36  1  0  0  0  0
 11 12  2  0  0  0  0
 11 26  1  0  0  0  0
 11 13  2  0  0  0  0
 14 18  1  0  0  0  0
 14 15  1  0  0  0  0
 14 37  1  0  0  0  0
 14 38  1  0  0  0  0
 15 16  1  0  0  0  0
 15 39  1  0  0  0  0
 15 40  1  0  0  0  0
 16 20  2  0  0  0  0
 16 17  1  0  0  0  0
 17 19  2  0  0  0  0
 17 18  1  0  0  0  0
 20 21  1  0  0  0  0
 20 41  1  0  0  0  0
 21 22  1  0  0  0  0
 21 42  1  0  0  0  0
 22 23  2  0  0  0  0
 22 27  1  0  0  0  0
 23 24  1  0  0  0  0
 23 43  1  0  0  0  0
 24 25  2  0  0  0  0
 24 44  1  0  0  0  0
 25 26  1  0  0  0  0
 25 45  1  0  0  0  0
 26 27  2  0  0  0  0
 27 46  1  0  0  0  0
M  END
>  <DRUGBANK_ID>
DB07325

>  <COMMON_NAME>
N-[(2-AMINO-6-METHYLPYRIMIDIN-4-YL)METHYL]-3-{[(E)-(2-OXODIHYDROFURAN-3(2H)-YLIDENE)METHYL]AMINO}BENZENESULFONAMIDE

$$$$
