
 OpenBabel10282417072D

 53 55  0  0  0  0  0  0  0  0999 V2000
   -1.9816   -2.8875    0.0000 C   0  0  0  0  0  0  0  0  0  0  0  0
   -1.5691   -2.1730    0.0000 O   0  0  0  0  0  0  0  0  0  0  0  0
   -0.7441   -2.1730    0.0000 C   0  0  0  0  0  0  0  0  0  0  0  0
   -0.3316   -1.4586    0.0000 C   0  0  0  0  0  0  0  0  0  0  0  0
    0.4934   -1.4586    0.0000 C   0  0  0  0  0  0  0  0  0  0  0  0
    0.9059   -2.1730    0.0000 C   0  0  0  0  0  0  0  0  0  0  0  0
    1.7309   -2.1730    0.0000 C   0  0  0  0  0  0  0  0  0  0  0  0
    2.1434   -2.8875    0.0000 C   0  0  0  0  0  0  0  0  0  0  0  0
    2.9684   -2.8875    0.0000 C   0  0  0  0  0  0  0  0  0  0  0  0
    3.3809   -3.6020    0.0000 O   0  0  0  0  0  0  0  0  0  0  0  0
    4.2059   -3.6020    0.0000 C   0  0  3  0  0  0  0  0  0  0  0  0
    4.6184   -2.8875    0.0000 C   0  0  0  0  0  0  0  0  0  0  0  0
    5.4434   -2.8875    0.0000 N   0  0  0  0  0  0  0  0  0  0  0  0
    5.9283   -2.2201    0.0000 C   0  0  0  0  0  0  0  0  0  0  0  0
    6.7130   -2.4750    0.0000 C   0  0  0  0  0  0  0  0  0  0  0  0
    6.7130   -3.3000    0.0000 N   0  0  0  0  0  0  0  0  0  0  0  0
    5.9283   -3.5549    0.0000 C   0  0  0  0  0  0  0  0  0  0  0  0
    4.6184   -4.3164    0.0000 C   0  0  0  0  0  0  0  0  0  0  0  0
    5.4434   -4.3164    0.0000 C   0  0  0  0  0  0  0  0  0  0  0  0
    5.8559   -5.0309    0.0000 C   0  0  0  0  0  0  0  0  0  0  0  0
    5.4434   -5.7454    0.0000 C   0  0  0  0  0  0  0  0  0  0  0  0
    5.8559   -6.4599    0.0000 O   0  0  0  0  0  0  0  0  0  0  0  0
    6.6809   -6.4599    0.0000 C   0  0  0  0  0  0  0  0  0  0  0  0
    4.6184   -5.7454    0.0000 C   0  0  0  0  0  0  0  0  0  0  0  0
    4.2059   -5.0309    0.0000 C   0  0  0  0  0  0  0  0  0  0  0  0
    0.4934   -2.8875    0.0000 C   0  0  0  0  0  0  0  0  0  0  0  0
   -0.3316   -2.8875    0.0000 C   0  0  0  0  0  0  0  0  0  0  0  0
   -3.0516   -2.8875    0.0000 H   0  0  0  0  0  0  0  0  0  0  0  0
   -1.4466   -3.8141    0.0000 H   0  0  0  0  0  0  0  0  0  0  0  0
   -2.5166   -3.8142    0.0000 H   0  0  0  0  0  0  0  0  0  0  0  0
   -0.8476   -0.5649    0.0000 H   0  0  0  0  0  0  0  0  0  0  0  0
    1.0094   -0.5649    0.0000 H   0  0  0  0  0  0  0  0  0  0  0  0
    2.2659   -1.2464    0.0000 H   0  0  0  0  0  0  0  0  0  0  0  0
    2.8009   -2.1730    0.0000 H   0  0  0  0  0  0  0  0  0  0  0  0
    1.6084   -3.8141    0.0000 H   0  0  0  0  0  0  0  0  0  0  0  0
    2.6784   -3.8141    0.0000 H   0  0  0  0  0  0  0  0  0  0  0  0
    3.5034   -1.9609    0.0000 H   0  0  0  0  0  0  0  0  0  0  0  0
    4.0384   -2.8875    0.0000 H   0  0  0  0  0  0  0  0  0  0  0  0
    3.6709   -2.6754    0.0000 H   0  0  0  0  0  0  0  0  0  0  0  0
    4.0834   -1.9609    0.0000 H   0  0  0  0  0  0  0  0  0  0  0  0
    5.1534   -1.9609    0.0000 H   0  0  0  0  0  0  0  0  0  0  0  0
    5.6094   -1.2386    0.0000 H   0  0  0  0  0  0  0  0  0  0  0  0
    7.5479   -1.8684    0.0000 H   0  0  0  0  0  0  0  0  0  0  0  0
    5.6094   -4.5364    0.0000 H   0  0  0  0  0  0  0  0  0  0  0  0
    5.9594   -3.4227    0.0000 H   0  0  0  0  0  0  0  0  0  0  0  0
    6.8879   -5.0309    0.0000 H   0  0  0  0  0  0  0  0  0  0  0  0
    7.2159   -7.3865    0.0000 H   0  0  0  0  0  0  0  0  0  0  0  0
    7.2159   -5.5333    0.0000 H   0  0  0  0  0  0  0  0  0  0  0  0
    7.7509   -6.4599    0.0000 H   0  0  0  0  0  0  0  0  0  0  0  0
    4.1024   -6.6391    0.0000 H   0  0  0  0  0  0  0  0  0  0  0  0
    3.1739   -5.0309    0.0000 H   0  0  0  0  0  0  0  0  0  0  0  0
    1.0094   -3.7812    0.0000 H   0  0  0  0  0  0  0  0  0  0  0  0
   -0.8476   -3.7812    0.0000 H   0  0  0  0  0  0  0  0  0  0  0  0
  1  2  1  0  0  0  0
  1 28  1  0  0  0  0
  1 29  1  0  0  0  0
  1 30  1  0  0  0  0
  2  3  1  0  0  0  0
  3  4  2  0  0  0  0
  3 27  1  0  0  0  0
  4  5  1  0  0  0  0
  4 31  1  0  0  0  0
  5  6  2  0  0  0  0
  5 32  1  0  0  0  0
  6  7  1  0  0  0  0
  6 26  1  0  0  0  0
  7  8  1  0  0  0  0
  7 33  1  0  0  0  0
  7 34  1  0  0  0  0
  8  9  1  0  0  0  0
  8 35  1  0  0  0  0
  8 36  1  0  0  0  0
  9 10  1  0  0  0  0
  9 37  1  0  0  0  0
  9 38  1  0  0  0  0
 10 11  1  0  0  0  0
 11 12  1  0  0  0  0
 11 18  1  0  0  0  0
 11 39  1  0  0  0  0
 12 13  1  0  0  0  0
 12 40  1  0  0  0  0
 12 41  1  0  0  0  0
 13 14  1  0  0  0  0
 13 17  1  0  0  0  0
 14 15  2  0  0  0  0
 14 42  1  0  0  0  0
 15 16  1  0  0  0  0
 15 43  1  0  0  0  0
 16 17  2  0  0  0  0
 17 44  1  0  0  0  0
 18 19  2  0  0  0  0
 18 25  1  0  0  0  0
 19 20  1  0  0  0  0
 19 45  1  0  0  0  0
 20 21  2  0  0  0  0
 20 46  1  0  0  0  0
 21 22  1  0  0  0  0
 21 24  1  0  0  0  0
 22 23  1  0  0  0  0
 23 47  1  0  0  0  0
 23 48  1  0  0  0  0
 23 49  1  0  0  0  0
 24 25  2  0  0  0  0
 24 50  1  0  0  0  0
 25 51  1  0  0  0  0
 26 27  2  0  0  0  0
 26 52  1  0  0  0  0
 27 53  1  0  0  0  0
M  END
>  <DRUGBANK_ID>
DB17054

>  <COMMON_NAME>
SKF-96365 free base

>  <CAS_NUMBER>
162849-90-3

>  <UNII>
I61V87164A

>  <SYNONYMS>
1-(2-(3-(4-methoxyphenyl)propoxy)-4-methoxyphenylethyl)-1h-imidazole

$$$$
