DZE
 OpenBabel10282417072D

 36 35  0  0  0  0  0  0  0  0999 V2000
   -2.8768    0.1896    0.0000 C   0  0  0  0  0  0  0  0  0  0  0  0
   -2.1624   -0.2229    0.0000 C   0  0  0  0  0  0  0  0  0  0  0  0
   -2.5749   -0.9374    0.0000 C   0  0  0  0  0  0  0  0  0  0  0  0
   -1.7499    0.4916    0.0000 C   0  0  0  0  0  0  0  0  0  0  0  0
   -1.4479   -0.6354    0.0000 O   0  0  0  0  0  0  0  0  0  0  0  0
   -0.7334   -0.2229    0.0000 C   0  0  0  0  0  0  0  0  0  0  0  0
   -0.7334    0.6021    0.0000 O   0  0  0  0  0  0  0  0  0  0  0  0
   -0.0190   -0.6354    0.0000 N   0  0  0  0  0  0  0  0  0  0  0  0
    0.6955   -0.2229    0.0000 C   0  0  2  0  0  0  0  0  0  0  0  0
    0.6955    0.6021    0.0000 C   0  0  0  0  0  0  0  0  0  0  0  0
   -0.0190    1.0146    0.0000 C   0  0  0  0  0  0  0  0  0  0  0  0
    1.4100    1.0146    0.0000 O   0  0  0  0  0  0  0  0  0  0  0  0
    1.4100   -0.6354    0.0000 C   0  0  0  0  0  0  0  0  0  0  0  0
    2.1245   -0.2229    0.0000 C   0  0  0  0  0  0  0  0  0  0  0  0
    2.8389   -0.6354    0.0000 O   0  0  0  0  0  0  0  0  0  0  0  0
    3.5534   -0.2229    0.0000 C   0  0  0  0  0  0  0  0  0  0  0  0
    2.1245    0.6021    0.0000 O   0  0  0  0  0  0  0  0  0  0  0  0
    0.6955   -0.8068    0.0000 H   0  0  0  0  0  0  0  0  0  0  0  0
   -2.8768    1.2596    0.0000 H   0  0  0  0  0  0  0  0  0  0  0  0
   -3.8035   -0.3454    0.0000 H   0  0  0  0  0  0  0  0  0  0  0  0
   -3.8034    0.7246    0.0000 H   0  0  0  0  0  0  0  0  0  0  0  0
   -3.6449   -0.9374    0.0000 H   0  0  0  0  0  0  0  0  0  0  0  0
   -2.0399   -1.8640    0.0000 H   0  0  0  0  0  0  0  0  0  0  0  0
   -3.1099   -1.8641    0.0000 H   0  0  0  0  0  0  0  0  0  0  0  0
   -0.6799    0.4916    0.0000 H   0  0  0  0  0  0  0  0  0  0  0  0
   -2.2849    1.4182    0.0000 H   0  0  0  0  0  0  0  0  0  0  0  0
   -1.2149    1.4183    0.0000 H   0  0  0  0  0  0  0  0  0  0  0  0
   -0.0190   -1.6199    0.0000 H   0  0  0  0  0  0  0  0  0  0  0  0
   -0.0190    2.0846    0.0000 H   0  0  0  0  0  0  0  0  0  0  0  0
   -0.9456    0.4796    0.0000 H   0  0  0  0  0  0  0  0  0  0  0  0
   -0.9457    1.5496    0.0000 H   0  0  0  0  0  0  0  0  0  0  0  0
    1.4100   -1.7054    0.0000 H   0  0  0  0  0  0  0  0  0  0  0  0
    2.3366   -1.1704    0.0000 H   0  0  0  0  0  0  0  0  0  0  0  0
    4.4800   -0.7579    0.0000 H   0  0  0  0  0  0  0  0  0  0  0  0
    3.5534    0.8471    0.0000 H   0  0  0  0  0  0  0  0  0  0  0  0
    4.4801    0.3121    0.0000 H   0  0  0  0  0  0  0  0  0  0  0  0
  1  2  1  0  0  0  0
  1 19  1  0  0  0  0
  1 20  1  0  0  0  0
  1 21  1  0  0  0  0
  2  3  1  0  0  0  0
  2  5  1  0  0  0  0
  3 22  1  0  0  0  0
  3 23  1  0  0  0  0
  3 24  1  0  0  0  0
  4  2  1  0  0  0  0
  4 25  1  0  0  0  0
  4 26  1  0  0  0  0
  4 27  1  0  0  0  0
  5  6  1  0  0  0  0
  6  8  1  0  0  0  0
  7  6  2  0  0  0  0
  8 28  1  0  0  0  0
  9  8  1  0  0  0  0
  9 13  1  0  0  0  0
  9 10  1  0  0  0  0
  9 18  1  1  0  0  0
 10 12  2  0  0  0  0
 11 10  1  0  0  0  0
 11 29  1  0  0  0  0
 11 30  1  0  0  0  0
 11 31  1  0  0  0  0
 13 32  1  0  0  0  0
 13 33  1  0  0  0  0
 14 13  1  0  0  0  0
 14 15  1  0  0  0  0
 15 16  1  0  0  0  0
 16 34  1  0  0  0  0
 16 35  1  0  0  0  0
 16 36  1  0  0  0  0
 17 14  2  0  0  0  0
M  END
>  <DRUGBANK_ID>
DB07696

>  <COMMON_NAME>
methyl (3S)-3-[(tert-butoxycarbonyl)amino]-4-oxopentanoate

$$$$
