
 OpenBabel10282417072D

 21 20  0  0  0  0  0  0  0  0999 V2000
   -0.5230    1.1270    0.0000 C   0  0  0  0  0  0  0  0  0  0  0  0
    0.3020   -0.3020    0.0000 C   0  0  0  0  0  0  0  0  0  0  0  0
   -0.8250    0.0000    0.0000 C   0  0  0  0  0  0  0  0  0  0  0  0
    0.6039    0.8250    0.0000 C   0  0  0  0  0  0  0  0  0  0  0  0
   -0.1105    0.4125    0.0000 C   0  0  0  0  0  0  0  0  0  0  0  0
   -1.3480    1.1270    0.0000 O   0  0  0  0  0  0  0  0  0  0  0  0
    1.1270   -0.3020    0.0000 O   0  0  0  0  0  0  0  0  0  0  0  0
   -1.5395    0.4125    0.0000 O   0  0  0  0  0  0  0  0  0  0  0  0
    1.3184    0.4125    0.0000 O   0  0  0  0  0  0  0  0  0  0  0  0
    0.0120    2.0536    0.0000 H   0  0  0  0  0  0  0  0  0  0  0  0
   -1.0580    2.0536    0.0000 H   0  0  0  0  0  0  0  0  0  0  0  0
   -0.2330   -1.2286    0.0000 H   0  0  0  0  0  0  0  0  0  0  0  0
    0.8370   -1.2286    0.0000 H   0  0  0  0  0  0  0  0  0  0  0  0
   -0.8250   -1.0700    0.0000 H   0  0  0  0  0  0  0  0  0  0  0  0
   -1.7516   -0.5350    0.0000 H   0  0  0  0  0  0  0  0  0  0  0  0
    0.6039    1.8950    0.0000 H   0  0  0  0  0  0  0  0  0  0  0  0
    1.5305    1.3600    0.0000 H   0  0  0  0  0  0  0  0  0  0  0  0
   -1.8330    1.9670    0.0000 H   0  0  0  0  0  0  0  0  0  0  0  0
    1.6120   -1.1420    0.0000 H   0  0  0  0  0  0  0  0  0  0  0  0
   -1.5395    1.3825    0.0000 H   0  0  0  0  0  0  0  0  0  0  0  0
    1.3184   -0.5575    0.0000 H   0  0  0  0  0  0  0  0  0  0  0  0
  1 10  1  0  0  0  0
  1 11  1  0  0  0  0
  2 12  1  0  0  0  0
  2 13  1  0  0  0  0
  3 14  1  0  0  0  0
  3 15  1  0  0  0  0
  4 16  1  0  0  0  0
  4 17  1  0  0  0  0
  5  1  1  0  0  0  0
  5  2  1  0  0  0  0
  5  3  1  0  0  0  0
  5  4  1  0  0  0  0
  6  1  1  0  0  0  0
  6 18  1  0  0  0  0
  7  2  1  0  0  0  0
  7 19  1  0  0  0  0
  8  3  1  0  0  0  0
  8 20  1  0  0  0  0
  9  4  1  0  0  0  0
  9 21  1  0  0  0  0
M  END
>  <DRUGBANK_ID>
DB13526

>  <COMMON_NAME>
Pentaerithrityl

>  <CAS_NUMBER>
115-77-5

>  <UNII>
SU420W1S6N

>  <SYNONYMS>
Pentaerythritol

$$$$
