
 OpenBabel10282417072D

 34 34  0  0  0  0  0  0  0  0999 V2000
   -0.7145    0.4125    0.0000 C   0  0  1  0  0  0  0  0  0  0  0  0
   -0.7145   -0.4124    0.0000 C   0  0  2  0  0  0  0  0  0  0  0  0
    0.0000   -0.8250    0.0000 O   0  0  0  0  0  0  0  0  0  0  0  0
   -1.4290   -0.8250    0.0000 C   0  0  1  0  0  0  0  0  0  0  0  0
   -1.4290   -1.6501    0.0000 O   0  0  0  0  0  0  0  0  0  0  0  0
   -2.1436   -0.4124    0.0000 C   0  0  2  0  0  0  0  0  0  0  0  0
   -2.8580   -0.8250    0.0000 O   0  0  0  0  0  0  0  0  0  0  0  0
   -2.1436    0.4125    0.0000 C   0  0  2  0  0  0  0  0  0  0  0  0
   -1.4290    0.8251    0.0000 O   0  0  0  0  0  0  0  0  0  0  0  0
   -2.8580    0.8251    0.0000 C   0  0  0  0  0  0  0  0  0  0  0  0
   -2.8580    1.6501    0.0000 O   0  0  0  0  0  0  0  0  0  0  0  0
    0.0000    0.8251    0.0000 N   0  0  0  0  0  0  0  0  0  0  0  0
    0.7145    0.4125    0.0000 C   0  0  0  0  0  0  0  0  0  0  0  0
    0.7145   -0.4124    0.0000 O   0  0  0  0  0  0  0  0  0  0  0  0
    1.4290    0.8251    0.0000 N   0  0  0  0  0  0  0  0  0  0  0  0
    2.1436    0.4125    0.0000 C   0  0  0  0  0  0  0  0  0  0  0  0
    2.8580    0.8251    0.0000 C   0  0  0  0  0  0  0  0  0  0  0  0
    2.1436   -0.4124    0.0000 O   0  0  0  0  0  0  0  0  0  0  0  0
    0.2122   -0.1225    0.0000 H   0  0  0  0  0  0  0  0  0  0  0  0
    0.2122    0.1226    0.0000 H   0  0  0  0  0  0  0  0  0  0  0  0
   -0.0001   -1.7950    0.0000 H   0  0  0  0  0  0  0  0  0  0  0  0
   -0.5023   -1.3600    0.0000 H   0  0  0  0  0  0  0  0  0  0  0  0
   -2.2690   -2.1351    0.0000 H   0  0  0  0  0  0  0  0  0  0  0  0
   -2.1435   -1.4824    0.0000 H   0  0  0  0  0  0  0  0  0  0  0  0
   -3.6981   -0.3401    0.0000 H   0  0  0  0  0  0  0  0  0  0  0  0
   -3.0703   -0.1224    0.0000 H   0  0  0  0  0  0  0  0  0  0  0  0
   -3.7847    0.2902    0.0000 H   0  0  0  0  0  0  0  0  0  0  0  0
   -3.7846    1.3601    0.0000 H   0  0  0  0  0  0  0  0  0  0  0  0
   -2.0180    2.1351    0.0000 H   0  0  0  0  0  0  0  0  0  0  0  0
    0.0000    1.8096    0.0000 H   0  0  0  0  0  0  0  0  0  0  0  0
    1.4290    1.8096    0.0000 H   0  0  0  0  0  0  0  0  0  0  0  0
    3.7847    0.2902    0.0000 H   0  0  0  0  0  0  0  0  0  0  0  0
    2.8578    1.8951    0.0000 H   0  0  0  0  0  0  0  0  0  0  0  0
    3.7846    1.3602    0.0000 H   0  0  0  0  0  0  0  0  0  0  0  0
  1  2  1  0  0  0  0
  1  9  1  0  0  0  0
  1 12  1  0  0  0  0
  1 19  1  6  0  0  0
  2  3  1  0  0  0  0
  2  4  1  0  0  0  0
  2 20  1  1  0  0  0
  3 21  1  0  0  0  0
  4  5  1  0  0  0  0
  4  6  1  0  0  0  0
  4 22  1  6  0  0  0
  5 23  1  0  0  0  0
  6  7  1  0  0  0  0
  6  8  1  0  0  0  0
  6 24  1  1  0  0  0
  7 25  1  0  0  0  0
  8  9  1  0  0  0  0
  8 10  1  0  0  0  0
  8 26  1  6  0  0  0
 10 11  1  0  0  0  0
 10 27  1  0  0  0  0
 10 28  1  0  0  0  0
 11 29  1  0  0  0  0
 12 30  1  0  0  0  0
 13 12  1  0  0  0  0
 13 14  2  0  0  0  0
 13 15  1  0  0  0  0
 15 31  1  0  0  0  0
 16 15  1  0  0  0  0
 16 17  1  0  0  0  0
 16 18  2  0  0  0  0
 17 32  1  0  0  0  0
 17 33  1  0  0  0  0
 17 34  1  0  0  0  0
M  END
>  <DRUGBANK_ID>
DB03218

>  <SECONDARY_ACCESSION_NUMBERS>
EXPT00600

>  <COMMON_NAME>
N-acetyl-N'-beta-D-glucopyranosyl urea

$$$$
