MF2
 OpenBabel10282417072D

 49 49  0  0  0  0  0  0  0  0999 V2000
   -1.9448   -0.7420    0.0000 C   0  0  0  0  0  0  0  0  0  0  0  0
   -2.6594   -1.1545    0.0000 C   0  0  1  0  0  0  0  0  0  0  0  0
   -3.3739   -0.7420    0.0000 O   0  0  0  0  0  0  0  0  0  0  0  0
   -4.0884    0.4956    0.0000 C   0  0  0  0  0  0  0  0  0  0  0  0
   -2.6594   -1.9795    0.0000 C   0  0  0  0  0  0  0  0  0  0  0  0
   -1.2303    0.4956    0.0000 C   0  0  0  0  0  0  0  0  0  0  0  0
   -0.5158    0.0831    0.0000 C   0  0  0  0  0  0  0  0  0  0  0  0
    0.1987    0.4956    0.0000 C   0  0  0  0  0  0  0  0  0  0  0  0
    0.9133    0.0831    0.0000 C   0  0  0  0  0  0  0  0  0  0  0  0
    1.6278    0.4956    0.0000 C   0  0  0  0  0  0  0  0  0  0  0  0
    2.3423    0.0831    0.0000 C   0  0  0  0  0  0  0  0  0  0  0  0
    3.0568    0.4956    0.0000 C   0  0  0  0  0  0  0  0  0  0  0  0
    3.7714    0.0831    0.0000 C   0  0  0  0  0  0  0  0  0  0  0  0
   -1.9448    0.0831    0.0000 N   0  0  0  0  0  0  0  0  0  0  0  0
   -3.3739    0.0831    0.0000 C   0  0  2  0  0  0  0  0  0  0  0  0
   -2.6594    0.4956    0.0000 C   0  0  0  0  0  0  0  0  0  0  0  0
    4.4858    0.4956    0.0000 N   0  0  0  0  0  0  0  0  0  0  0  0
    5.2004    0.0831    0.0000 C   0  0  0  0  0  0  0  0  0  0  0  0
    5.9149    0.4956    0.0000 O   0  0  0  0  0  0  0  0  0  0  0  0
   -2.1537   -1.4465    0.0000 H   0  0  0  0  0  0  0  0  0  0  0  0
   -3.8796   -0.2089    0.0000 H   0  0  0  0  0  0  0  0  0  0  0  0
   -1.0182   -1.2770    0.0000 H   0  0  0  0  0  0  0  0  0  0  0  0
   -1.0181   -0.2070    0.0000 H   0  0  0  0  0  0  0  0  0  0  0  0
   -4.0884    1.5656    0.0000 H   0  0  0  0  0  0  0  0  0  0  0  0
   -5.0150   -0.0394    0.0000 H   0  0  0  0  0  0  0  0  0  0  0  0
   -5.0151    1.0306    0.0000 H   0  0  0  0  0  0  0  0  0  0  0  0
   -3.5860   -2.5145    0.0000 H   0  0  0  0  0  0  0  0  0  0  0  0
   -1.7328   -2.5145    0.0000 H   0  0  0  0  0  0  0  0  0  0  0  0
   -2.6594   -3.0495    0.0000 H   0  0  0  0  0  0  0  0  0  0  0  0
   -1.2303    1.5656    0.0000 H   0  0  0  0  0  0  0  0  0  0  0  0
   -2.1569    1.0306    0.0000 H   0  0  0  0  0  0  0  0  0  0  0  0
   -0.5158   -0.9869    0.0000 H   0  0  0  0  0  0  0  0  0  0  0  0
    0.4108   -0.4519    0.0000 H   0  0  0  0  0  0  0  0  0  0  0  0
    0.1987    1.5656    0.0000 H   0  0  0  0  0  0  0  0  0  0  0  0
    1.1253    1.0307    0.0000 H   0  0  0  0  0  0  0  0  0  0  0  0
    0.9133   -0.9869    0.0000 H   0  0  0  0  0  0  0  0  0  0  0  0
    1.8400   -0.4519    0.0000 H   0  0  0  0  0  0  0  0  0  0  0  0
    1.6278    1.5656    0.0000 H   0  0  0  0  0  0  0  0  0  0  0  0
    2.5544    1.0306    0.0000 H   0  0  0  0  0  0  0  0  0  0  0  0
    2.3423   -0.9869    0.0000 H   0  0  0  0  0  0  0  0  0  0  0  0
    3.2689   -0.4519    0.0000 H   0  0  0  0  0  0  0  0  0  0  0  0
    3.0568    1.5656    0.0000 H   0  0  0  0  0  0  0  0  0  0  0  0
    3.9834    1.0307    0.0000 H   0  0  0  0  0  0  0  0  0  0  0  0
    3.7715   -0.9869    0.0000 H   0  0  0  0  0  0  0  0  0  0  0  0
    4.6981   -0.4519    0.0000 H   0  0  0  0  0  0  0  0  0  0  0  0
   -2.6594    1.5656    0.0000 H   0  0  0  0  0  0  0  0  0  0  0  0
   -3.5861    1.0306    0.0000 H   0  0  0  0  0  0  0  0  0  0  0  0
    4.4857    1.4801    0.0000 H   0  0  0  0  0  0  0  0  0  0  0  0
    5.2004   -0.9489    0.0000 H   0  0  0  0  0  0  0  0  0  0  0  0
  1  2  1  0  0  0  0
  1 14  1  0  0  0  0
  1 22  1  0  0  0  0
  1 23  1  0  0  0  0
  2  3  1  0  0  0  0
  2  5  1  0  0  0  0
  2 20  1  1  0  0  0
  3 15  1  0  0  0  0
  4 24  1  0  0  0  0
  4 25  1  0  0  0  0
  4 26  1  0  0  0  0
  5 27  1  0  0  0  0
  5 28  1  0  0  0  0
  5 29  1  0  0  0  0
  6  7  1  0  0  0  0
  6 14  1  0  0  0  0
  6 30  1  0  0  0  0
  6 31  1  0  0  0  0
  7  8  1  0  0  0  0
  7 32  1  0  0  0  0
  7 33  1  0  0  0  0
  8  9  1  0  0  0  0
  8 34  1  0  0  0  0
  8 35  1  0  0  0  0
  9 10  1  0  0  0  0
  9 36  1  0  0  0  0
  9 37  1  0  0  0  0
 10 11  1  0  0  0  0
 10 38  1  0  0  0  0
 10 39  1  0  0  0  0
 11 12  1  0  0  0  0
 11 40  1  0  0  0  0
 11 41  1  0  0  0  0
 12 13  1  0  0  0  0
 12 42  1  0  0  0  0
 12 43  1  0  0  0  0
 13 17  1  0  0  0  0
 13 44  1  0  0  0  0
 13 45  1  0  0  0  0
 14 16  1  0  0  0  0
 15  4  1  0  0  0  0
 15 16  1  0  0  0  0
 15 21  1  1  0  0  0
 16 46  1  0  0  0  0
 16 47  1  0  0  0  0
 17 18  1  0  0  0  0
 17 48  1  0  0  0  0
 18 19  2  0  0  0  0
 18 49  1  0  0  0  0
M  END
>  <DRUGBANK_ID>
DB04021

>  <SECONDARY_ACCESSION_NUMBERS>
EXPT02157

>  <COMMON_NAME>
MF268

$$$$
