
 OpenBabel10282417072D

 40 41  0  0  0  0  0  0  0  0999 V2000
    0.6467    0.0025    0.0000 N   0  0  0  0  0  0  0  0  0  0  0  0
    2.0988    0.2325    0.0000 C   0  0  0  0  0  0  0  0  0  0  0  0
    2.2703   -0.5744    0.0000 O   0  0  0  0  0  0  0  0  0  0  0  0
    1.3142    0.4875    0.0000 C   0  0  2  0  0  0  0  0  0  0  0  0
   -0.0206    0.4875    0.0000 C   0  0  0  0  0  0  0  0  0  0  0  0
    0.2343    1.2722    0.0000 C   0  0  2  0  0  0  0  0  0  0  0  0
    1.0593    1.2721    0.0000 C   0  0  0  0  0  0  0  0  0  0  0  0
    2.7119    0.7845    0.0000 O   0  0  0  0  0  0  0  0  0  0  0  0
    0.6671   -0.8229    0.0000 C   0  0  0  0  0  0  0  0  0  0  0  0
   -0.0438   -1.2413    0.0000 C   0  0  1  0  0  0  0  0  0  0  0  0
    1.3984   -1.2291    0.0000 O   0  0  0  0  0  0  0  0  0  0  0  0
   -0.0438   -2.1027    0.0000 C   0  0  0  0  0  0  0  0  0  0  0  0
   -0.7751   -0.8350    0.0000 C   0  0  0  0  0  0  0  0  0  0  0  0
   -0.7548   -2.5212    0.0000 S   0  0  0  0  0  0  0  0  0  0  0  0
   -0.2504    1.9397    0.0000 S   0  0  0  0  0  0  0  0  0  0  0  0
   -1.0709    1.8536    0.0000 C   0  0  0  0  0  0  0  0  0  0  0  0
   -1.5557    2.5212    0.0000 C   0  0  0  0  0  0  0  0  0  0  0  0
   -1.4066    1.1000    0.0000 C   0  0  0  0  0  0  0  0  0  0  0  0
   -2.3762    2.4351    0.0000 C   0  0  0  0  0  0  0  0  0  0  0  0
   -2.2271    1.0140    0.0000 C   0  0  0  0  0  0  0  0  0  0  0  0
   -2.7119    1.6815    0.0000 C   0  0  0  0  0  0  0  0  0  0  0  0
    1.4816   -0.5693    0.0000 H   0  0  0  0  0  0  0  0  0  0  0  0
   -1.0382    0.1569    0.0000 H   0  0  0  0  0  0  0  0  0  0  0  0
   -0.7772    1.2441    0.0000 H   0  0  0  0  0  0  0  0  0  0  0  0
   -0.8225    1.1049    0.0000 H   0  0  0  0  0  0  0  0  0  0  0  0
    1.6883    2.1377    0.0000 H   0  0  0  0  0  0  0  0  0  0  0  0
    0.5736    2.2255    0.0000 H   0  0  0  0  0  0  0  0  0  0  0  0
    3.6030    0.4949    0.0000 H   0  0  0  0  0  0  0  0  0  0  0  0
   -0.0571   -0.1714    0.0000 H   0  0  0  0  0  0  0  0  0  0  0  0
    0.8851   -2.6338    0.0000 H   0  0  0  0  0  0  0  0  0  0  0  0
   -0.0371   -3.1727    0.0000 H   0  0  0  0  0  0  0  0  0  0  0  0
   -0.7927    0.2349    0.0000 H   0  0  0  0  0  0  0  0  0  0  0  0
   -1.6928   -1.3852    0.0000 H   0  0  0  0  0  0  0  0  0  0  0  0
   -1.7104   -0.3153    0.0000 H   0  0  0  0  0  0  0  0  0  0  0  0
   -1.9383   -1.8511    0.0000 H   0  0  0  0  0  0  0  0  0  0  0  0
   -1.1358    3.4639    0.0000 H   0  0  0  0  0  0  0  0  0  0  0  0
   -0.8002    0.2649    0.0000 H   0  0  0  0  0  0  0  0  0  0  0  0
   -2.9826    3.2701    0.0000 H   0  0  0  0  0  0  0  0  0  0  0  0
   -2.6471    0.0713    0.0000 H   0  0  0  0  0  0  0  0  0  0  0  0
   -3.7383    1.5738    0.0000 H   0  0  0  0  0  0  0  0  0  0  0  0
  1  5  1  0  0  0  0
  1  9  1  0  0  0  0
  2  3  2  0  0  0  0
  4  2  1  0  0  0  0
  4  1  1  0  0  0  0
  4  7  1  0  0  0  0
  4 22  1  6  0  0  0
  5  6  1  0  0  0  0
  5 23  1  0  0  0  0
  5 24  1  0  0  0  0
  6  7  1  0  0  0  0
  6 15  1  0  0  0  0
  6 25  1  6  0  0  0
  7 26  1  0  0  0  0
  7 27  1  0  0  0  0
  8  2  1  0  0  0  0
  8 28  1  0  0  0  0
  9 10  1  0  0  0  0
  9 11  2  0  0  0  0
 10 12  1  0  0  0  0
 10 13  1  0  0  0  0
 10 29  1  6  0  0  0
 12 14  1  0  0  0  0
 12 30  1  0  0  0  0
 12 31  1  0  0  0  0
 13 32  1  0  0  0  0
 13 33  1  0  0  0  0
 13 34  1  0  0  0  0
 14 35  1  0  0  0  0
 15 16  1  0  0  0  0
 17 16  1  0  0  0  0
 17 36  1  0  0  0  0
 18 16  2  0  0  0  0
 18 37  1  0  0  0  0
 19 17  2  0  0  0  0
 19 38  1  0  0  0  0
 20 18  1  0  0  0  0
 20 39  1  0  0  0  0
 21 19  1  0  0  0  0
 21 20  2  0  0  0  0
 21 40  1  0  0  0  0
M  END
>  <DRUGBANK_ID>
DB08766

>  <COMMON_NAME>
Zofenoprilat

>  <CAS_NUMBER>
75176-37-3

>  <UNII>
4G4WDK2YBS

>  <SYNONYMS>
Zofenoprilat

$$$$
