
 OpenBabel10282417072D

 34 33  0  0  0  0  0  0  0  0999 V2000
    4.7586    3.5724    0.0000 C   0  0  0  0  0  0  0  0  0  0  0  0
    5.4730    3.9849    0.0000 O   0  0  0  0  0  0  0  0  0  0  0  0
    6.1875    3.5724    0.0000 C   0  0  0  0  0  0  0  0  0  0  0  0
    6.9020    3.9849    0.0000 C   0  0  0  0  0  0  0  0  0  0  0  0
    7.6164    3.5724    0.0000 O   0  0  0  0  0  0  0  0  0  0  0  0
    8.3309    3.9849    0.0000 C   0  0  0  0  0  0  0  0  0  0  0  0
    9.0454    3.5724    0.0000 C   0  0  0  0  0  0  0  0  0  0  0  0
    9.7599    3.9849    0.0000 O   0  0  0  0  0  0  0  0  0  0  0  0
   10.4743    3.5724    0.0000 C   0  0  0  0  0  0  0  0  0  0  0  0
   11.1888    3.9849    0.0000 C   0  0  0  0  0  0  0  0  0  0  0  0
   11.9033    3.5724    0.0000 O   0  0  0  0  0  0  0  0  0  0  0  0
   12.6177    3.9849    0.0000 C   0  0  0  0  0  0  0  0  0  0  0  0
   13.3322    3.5724    0.0000 C   0  0  0  0  0  0  0  0  0  0  0  0
   14.0467    3.9849    0.0000 O   0  0  0  0  0  0  0  0  0  0  0  0
    3.8319    4.1074    0.0000 H   0  0  0  0  0  0  0  0  0  0  0  0
    4.7586    2.5024    0.0000 H   0  0  0  0  0  0  0  0  0  0  0  0
    3.8320    3.0374    0.0000 H   0  0  0  0  0  0  0  0  0  0  0  0
    6.1875    2.5024    0.0000 H   0  0  0  0  0  0  0  0  0  0  0  0
    7.1141    3.0374    0.0000 H   0  0  0  0  0  0  0  0  0  0  0  0
    6.9020    5.0549    0.0000 H   0  0  0  0  0  0  0  0  0  0  0  0
    7.8287    4.5199    0.0000 H   0  0  0  0  0  0  0  0  0  0  0  0
    8.3309    5.0549    0.0000 H   0  0  0  0  0  0  0  0  0  0  0  0
    9.2575    4.5199    0.0000 H   0  0  0  0  0  0  0  0  0  0  0  0
    9.0454    2.5024    0.0000 H   0  0  0  0  0  0  0  0  0  0  0  0
    9.9720    3.0374    0.0000 H   0  0  0  0  0  0  0  0  0  0  0  0
   10.4743    2.5024    0.0000 H   0  0  0  0  0  0  0  0  0  0  0  0
   11.4009    3.0374    0.0000 H   0  0  0  0  0  0  0  0  0  0  0  0
   11.1888    5.0549    0.0000 H   0  0  0  0  0  0  0  0  0  0  0  0
   12.1154    4.5199    0.0000 H   0  0  0  0  0  0  0  0  0  0  0  0
   12.6177    5.0549    0.0000 H   0  0  0  0  0  0  0  0  0  0  0  0
   13.5443    4.5199    0.0000 H   0  0  0  0  0  0  0  0  0  0  0  0
   13.3322    2.5024    0.0000 H   0  0  0  0  0  0  0  0  0  0  0  0
   14.2588    3.0374    0.0000 H   0  0  0  0  0  0  0  0  0  0  0  0
   14.8867    3.4999    0.0000 H   0  0  0  0  0  0  0  0  0  0  0  0
  1  2  1  0  0  0  0
  1 15  1  0  0  0  0
  1 16  1  0  0  0  0
  1 17  1  0  0  0  0
  2  3  1  0  0  0  0
  3  4  1  0  0  0  0
  3 18  1  0  0  0  0
  3 19  1  0  0  0  0
  4  5  1  0  0  0  0
  4 20  1  0  0  0  0
  4 21  1  0  0  0  0
  5  6  1  0  0  0  0
  6  7  1  0  0  0  0
  6 22  1  0  0  0  0
  6 23  1  0  0  0  0
  7  8  1  0  0  0  0
  7 24  1  0  0  0  0
  7 25  1  0  0  0  0
  8  9  1  0  0  0  0
  9 10  1  0  0  0  0
  9 26  1  0  0  0  0
  9 27  1  0  0  0  0
 10 11  1  0  0  0  0
 10 28  1  0  0  0  0
 10 29  1  0  0  0  0
 11 12  1  0  0  0  0
 12 13  1  0  0  0  0
 12 30  1  0  0  0  0
 12 31  1  0  0  0  0
 13 14  1  0  0  0  0
 13 32  1  0  0  0  0
 13 33  1  0  0  0  0
 14 34  1  0  0  0  0
M  END
>  <DRUGBANK_ID>
DB04332

>  <SECONDARY_ACCESSION_NUMBERS>
EXPT01367

>  <COMMON_NAME>
2-{2-[2-2-(Methoxy-Ethoxy)-Ethoxy]-Ethoxy}-Ethanol

$$$$
