1395
 OpenBabel10282417072D

 57 63  0  0  1  0  0  0  0  0999 V2000
    3.3963   -1.6419    0.0000 O   0  0  0  0  0  0  0  0  0  0  0  0
    3.6170   -3.0361    0.0000 O   0  0  0  0  0  0  0  0  0  0  0  0
    6.8101    3.0361    0.0000 O   0  0  0  0  0  0  0  0  0  0  0  0
    3.1514    0.0426    0.0000 C   0  0  2  0  0  0  0  0  0  0  0  0
    2.3593    0.0426    0.0000 C   0  0  1  0  0  0  0  0  0  0  0  0
    2.1146   -0.7108    0.0000 C   0  0  1  0  0  0  0  0  0  0  0  0
    3.3963   -0.7108    0.0000 C   0  0  1  0  0  0  0  0  0  0  0  0
    3.6940    0.6641    0.0000 C   0  0  2  0  0  0  0  0  0  0  0  0
    2.7553   -1.1763    0.0000 C   0  0  1  0  0  0  0  0  0  0  0  0
    1.5842   -0.1221    0.0000 C   0  0  0  0  0  0  0  0  0  0  0  0
    3.4095    1.4751    0.0000 C   0  0  2  0  0  0  0  0  0  0  0  0
    4.5023    0.4988    0.0000 C   0  0  1  0  0  0  0  0  0  0  0  0
    3.9747    2.1225    0.0000 C   0  0  1  0  0  0  0  0  0  0  0  0
    4.2005   -0.8947    0.0000 C   0  0  0  0  0  0  0  0  0  0  0  0
    3.1312    2.2886    0.0000 C   0  0  0  0  0  0  0  0  0  0  0  0
    5.0822    1.1330    0.0000 C   0  0  2  0  0  0  0  0  0  0  0  0
    4.7573   -0.2858    0.0000 C   0  0  0  0  0  0  0  0  0  0  0  0
    2.1146   -1.6419    0.0000 C   0  0  0  0  0  0  0  0  0  0  0  0
    4.8167    1.9503    0.0000 C   0  0  0  0  0  0  0  0  0  0  0  0
    3.8838   -1.3350    0.0000 C   0  0  0  0  0  0  0  0  0  0  0  0
    5.9550    0.9334    0.0000 C   0  0  0  0  0  0  0  0  0  0  0  0
    2.3593   -2.3953    0.0000 C   0  0  0  0  0  0  0  0  0  0  0  0
    5.3270    0.3797    0.0000 C   0  0  0  0  0  0  0  0  0  0  0  0
    3.1514   -2.3953    0.0000 C   0  0  0  0  0  0  0  0  0  0  0  0
    5.4054    2.6248    0.0000 C   0  0  0  0  0  0  0  0  0  0  0  0
    6.5590    1.5940    0.0000 C   0  0  0  0  0  0  0  0  0  0  0  0
    6.2824    2.4455    0.0000 C   0  0  0  0  0  0  0  0  0  0  0  0
    2.8892    0.6194    0.0000 H   0  0  0  0  0  0  0  0  0  0  0  0
    2.2932    0.6727    0.0000 H   0  0  0  0  0  0  0  0  0  0  0  0
    1.6906   -1.1817    0.0000 H   0  0  0  0  0  0  0  0  0  0  0  0
    4.1107    1.1415    0.0000 H   0  0  0  0  0  0  0  0  0  0  0  0
    2.8108    1.2677    0.0000 H   0  0  0  0  0  0  0  0  0  0  0  0
    5.1216    0.3647    0.0000 H   0  0  0  0  0  0  0  0  0  0  0  0
    4.0994    2.7439    0.0000 H   0  0  0  0  0  0  0  0  0  0  0  0
    0.5665    0.2084    0.0000 H   0  0  0  0  0  0  0  0  0  0  0  0
    1.0016   -1.0196    0.0000 H   0  0  0  0  0  0  0  0  0  0  0  0
    4.5194   -1.9161    0.0000 H   0  0  0  0  0  0  0  0  0  0  0  0
    5.2449   -1.1272    0.0000 H   0  0  0  0  0  0  0  0  0  0  0  0
    2.3252    2.9924    0.0000 H   0  0  0  0  0  0  0  0  0  0  0  0
    3.6025    3.2492    0.0000 H   0  0  0  0  0  0  0  0  0  0  0  0
    5.8031   -0.5122    0.0000 H   0  0  0  0  0  0  0  0  0  0  0  0
    5.0821   -1.3053    0.0000 H   0  0  0  0  0  0  0  0  0  0  0  0
    1.0970   -1.3112    0.0000 H   0  0  0  0  0  0  0  0  0  0  0  0
    1.3580   -2.3985    0.0000 H   0  0  0  0  0  0  0  0  0  0  0  0
    3.4828   -2.3270    0.0000 H   0  0  0  0  0  0  0  0  0  0  0  0
    4.9434   -1.1863    0.0000 H   0  0  0  0  0  0  0  0  0  0  0  0
    4.5424   -2.1783    0.0000 H   0  0  0  0  0  0  0  0  0  0  0  0
    6.2739   -0.0880    0.0000 H   0  0  0  0  0  0  0  0  0  0  0  0
    6.9994    0.7009    0.0000 H   0  0  0  0  0  0  0  0  0  0  0  0
    1.7303   -3.2609    0.0000 H   0  0  0  0  0  0  0  0  0  0  0  0
    2.8450   -3.3487    0.0000 H   0  0  0  0  0  0  0  0  0  0  0  0
    4.6111   -0.4155    0.0000 H   0  0  0  0  0  0  0  0  0  0  0  0
    6.3736    0.1573    0.0000 H   0  0  0  0  0  0  0  0  0  0  0  0
    5.6577   -0.6379    0.0000 H   0  0  0  0  0  0  0  0  0  0  0  0
    5.0751    3.6025    0.0000 H   0  0  0  0  0  0  0  0  0  0  0  0
    7.6048    1.3675    0.0000 H   0  0  0  0  0  0  0  0  0  0  0  0
    7.2765    2.3878    0.0000 H   0  0  0  0  0  0  0  0  0  0  0  0
  1 24  1  0  0  0  0
  2 24  2  0  0  0  0
  3 27  2  0  0  0  0
  4  5  1  0  0  0  0
  4  7  1  0  0  0  0
  4  8  1  0  0  0  0
  4 28  1  6  0  0  0
  5  6  1  0  0  0  0
  5 10  1  0  0  0  0
  5 29  1  6  0  0  0
  6  9  1  0  0  0  0
  6 10  1  0  0  0  0
  6 30  1  6  0  0  0
  7  9  1  0  0  0  0
  7 14  1  0  0  0  0
  7 20  1  1  0  0  0
  8 11  1  0  0  0  0
  8 12  1  0  0  0  0
  8 31  1  1  0  0  0
  9  1  1  1  0  0  0
  9 18  1  0  0  0  0
 10 35  1  0  0  0  0
 10 36  1  0  0  0  0
 11 13  1  0  0  0  0
 11 15  1  0  0  0  0
 11 32  1  6  0  0  0
 12 16  1  0  0  0  0
 12 17  1  0  0  0  0
 12 33  1  6  0  0  0
 13 15  1  0  0  0  0
 13 19  1  0  0  0  0
 13 34  1  6  0  0  0
 14 17  1  0  0  0  0
 14 37  1  0  0  0  0
 14 38  1  0  0  0  0
 15 39  1  0  0  0  0
 15 40  1  0  0  0  0
 16 19  1  0  0  0  0
 16 21  1  0  0  0  0
 16 23  1  1  0  0  0
 17 41  1  0  0  0  0
 17 42  1  0  0  0  0
 18 22  1  0  0  0  0
 18 43  1  0  0  0  0
 18 44  1  0  0  0  0
 19 25  2  0  0  0  0
 20 45  1  0  0  0  0
 20 46  1  0  0  0  0
 20 47  1  0  0  0  0
 21 26  1  0  0  0  0
 21 48  1  0  0  0  0
 21 49  1  0  0  0  0
 22 24  1  0  0  0  0
 22 50  1  0  0  0  0
 22 51  1  0  0  0  0
 23 52  1  0  0  0  0
 23 53  1  0  0  0  0
 23 54  1  0  0  0  0
 25 27  1  0  0  0  0
 25 55  1  0  0  0  0
 26 27  1  0  0  0  0
 26 56  1  0  0  0  0
 26 57  1  0  0  0  0
M  END
>  <DRUGBANK_ID>
DB01395

>  <COMMON_NAME>
Drospirenone

>  <CAS_NUMBER>
67392-87-4

>  <UNII>
N295J34A25

>  <SYNONYMS>
1,2-Dihydrospirorenone; 6β,7β;15β,16β-Dimethylene-3-oxo-17α-pregn-4-ene-21,17-carbolactone; Dehydrospirorenone; Drospirenona; Drospirenone; Drospirénone; Drospirenonum; DRSP

$$$$
