OHM
 OpenBabel10282417072D

 49 49  0  0  0  0  0  0  0  0999 V2000
   -4.1218    2.5731    0.0000 C   0  0  0  0  0  0  0  0  0  0  0  0
   -3.4073    2.9856    0.0000 C   0  0  0  0  0  0  0  0  0  0  0  0
   -2.6928    2.5731    0.0000 C   0  0  0  0  0  0  0  0  0  0  0  0
   -1.9784    2.9856    0.0000 C   0  0  0  0  0  0  0  0  0  0  0  0
   -1.2639    2.5731    0.0000 C   0  0  0  0  0  0  0  0  0  0  0  0
   -0.5494    2.9856    0.0000 C   0  0  0  0  0  0  0  0  0  0  0  0
    0.1651    2.5731    0.0000 C   0  0  0  0  0  0  0  0  0  0  0  0
    0.8795    2.9856    0.0000 C   0  0  0  0  0  0  0  0  0  0  0  0
    1.5940    2.5731    0.0000 C   0  0  0  0  0  0  0  0  0  0  0  0
    2.3085    2.9856    0.0000 C   0  0  0  0  0  0  0  0  0  0  0  0
    2.3085    3.8106    0.0000 O   0  0  0  0  0  0  0  0  0  0  0  0
    3.0229    2.5731    0.0000 C   0  0  0  0  0  0  0  0  0  0  0  0
    3.7374    2.9856    0.0000 C   0  0  0  0  0  0  0  0  0  0  0  0
    3.7374    3.8106    0.0000 O   0  0  0  0  0  0  0  0  0  0  0  0
    4.4519    2.5731    0.0000 N   0  0  0  0  0  0  0  0  0  0  0  0
    5.1664    2.9856    0.0000 C   0  0  1  0  0  0  0  0  0  0  0  0
    5.9200    2.6500    0.0000 C   0  0  0  0  0  0  0  0  0  0  0  0
    6.4721    3.2631    0.0000 C   0  0  0  0  0  0  0  0  0  0  0  0
    6.0596    3.9776    0.0000 N   0  0  0  0  0  0  0  0  0  0  0  0
    5.2526    3.8061    0.0000 C   0  0  0  0  0  0  0  0  0  0  0  0
    4.6395    4.3581    0.0000 O   0  0  0  0  0  0  0  0  0  0  0  0
    4.6766    3.3036    0.0000 H   0  0  0  0  0  0  0  0  0  0  0  0
   -5.0484    3.1081    0.0000 H   0  0  0  0  0  0  0  0  0  0  0  0
   -4.1218    1.5031    0.0000 H   0  0  0  0  0  0  0  0  0  0  0  0
   -5.0485    2.0381    0.0000 H   0  0  0  0  0  0  0  0  0  0  0  0
   -3.4073    4.0556    0.0000 H   0  0  0  0  0  0  0  0  0  0  0  0
   -2.4807    3.5206    0.0000 H   0  0  0  0  0  0  0  0  0  0  0  0
   -2.6928    1.5031    0.0000 H   0  0  0  0  0  0  0  0  0  0  0  0
   -1.7661    2.0381    0.0000 H   0  0  0  0  0  0  0  0  0  0  0  0
   -1.9784    4.0556    0.0000 H   0  0  0  0  0  0  0  0  0  0  0  0
   -1.0518    3.5206    0.0000 H   0  0  0  0  0  0  0  0  0  0  0  0
   -1.2639    1.5031    0.0000 H   0  0  0  0  0  0  0  0  0  0  0  0
   -0.3373    2.0381    0.0000 H   0  0  0  0  0  0  0  0  0  0  0  0
   -0.5494    4.0556    0.0000 H   0  0  0  0  0  0  0  0  0  0  0  0
    0.3772    3.5206    0.0000 H   0  0  0  0  0  0  0  0  0  0  0  0
    0.1651    1.5031    0.0000 H   0  0  0  0  0  0  0  0  0  0  0  0
    1.0918    2.0381    0.0000 H   0  0  0  0  0  0  0  0  0  0  0  0
    0.8795    4.0556    0.0000 H   0  0  0  0  0  0  0  0  0  0  0  0
    1.8061    3.5206    0.0000 H   0  0  0  0  0  0  0  0  0  0  0  0
    1.5940    1.5031    0.0000 H   0  0  0  0  0  0  0  0  0  0  0  0
    2.5206    2.0381    0.0000 H   0  0  0  0  0  0  0  0  0  0  0  0
    3.0229    1.5031    0.0000 H   0  0  0  0  0  0  0  0  0  0  0  0
    3.9495    2.0381    0.0000 H   0  0  0  0  0  0  0  0  0  0  0  0
    4.4519    1.5886    0.0000 H   0  0  0  0  0  0  0  0  0  0  0  0
    6.1424    1.6034    0.0000 H   0  0  0  0  0  0  0  0  0  0  0  0
    6.9535    2.3730    0.0000 H   0  0  0  0  0  0  0  0  0  0  0  0
    7.5362    3.1512    0.0000 H   0  0  0  0  0  0  0  0  0  0  0  0
    7.0549    4.1605    0.0000 H   0  0  0  0  0  0  0  0  0  0  0  0
    6.4601    4.8770    0.0000 H   0  0  0  0  0  0  0  0  0  0  0  0
  1  2  1  0  0  0  0
  1 23  1  0  0  0  0
  1 24  1  0  0  0  0
  1 25  1  0  0  0  0
  2  3  1  0  0  0  0
  2 26  1  0  0  0  0
  2 27  1  0  0  0  0
  3  4  1  0  0  0  0
  3 28  1  0  0  0  0
  3 29  1  0  0  0  0
  4  5  1  0  0  0  0
  4 30  1  0  0  0  0
  4 31  1  0  0  0  0
  5  6  1  0  0  0  0
  5 32  1  0  0  0  0
  5 33  1  0  0  0  0
  6  7  1  0  0  0  0
  6 34  1  0  0  0  0
  6 35  1  0  0  0  0
  7  8  1  0  0  0  0
  7 36  1  0  0  0  0
  7 37  1  0  0  0  0
  8  9  1  0  0  0  0
  8 38  1  0  0  0  0
  8 39  1  0  0  0  0
  9 10  1  0  0  0  0
  9 40  1  0  0  0  0
  9 41  1  0  0  0  0
 10 12  1  0  0  0  0
 10 11  2  0  0  0  0
 12 13  1  0  0  0  0
 12 42  1  0  0  0  0
 12 43  1  0  0  0  0
 13 14  2  0  0  0  0
 13 15  1  0  0  0  0
 15 44  1  0  0  0  0
 16 15  1  0  0  0  0
 16 20  1  0  0  0  0
 16 17  1  0  0  0  0
 16 22  1  1  0  0  0
 17 18  1  0  0  0  0
 17 45  1  0  0  0  0
 17 46  1  0  0  0  0
 18 19  1  0  0  0  0
 18 47  1  0  0  0  0
 18 48  1  0  0  0  0
 19 20  1  0  0  0  0
 19 49  1  0  0  0  0
 20 21  2  0  0  0  0
M  END
>  <DRUGBANK_ID>
DB08323

>  <COMMON_NAME>
3-OXO-N-[(3S)-2-OXOPYRROLIDIN-3-YL]DODECANAMIDE

$$$$
