192
 OpenBabel10282417072D

 47 49  0  0  0  0  0  0  0  0999 V2000
    6.8716    0.2479    0.0000 O   0  0  0  0  0  0  0  0  0  0  0  0
    2.9554    0.8291    0.0000 N   0  0  0  0  0  0  0  0  0  0  0  0
    5.7156    1.0879    0.0000 N   0  0  0  0  0  0  0  0  0  0  0  0
    5.5662   -0.3333    0.0000 C   0  0  0  0  0  0  0  0  0  0  0  0
    5.0813    0.3341    0.0000 C   0  0  0  0  0  0  0  0  0  0  0  0
    6.2336   -0.8182    0.0000 C   0  0  0  0  0  0  0  0  0  0  0  0
    4.8988   -0.8182    0.0000 C   0  0  0  0  0  0  0  0  0  0  0  0
    5.9787   -1.6028    0.0000 C   0  0  0  0  0  0  0  0  0  0  0  0
    5.1537   -1.6028    0.0000 C   0  0  0  0  0  0  0  0  0  0  0  0
    4.2608    0.2479    0.0000 C   0  0  0  0  0  0  0  0  0  0  0  0
    6.0512    0.3341    0.0000 C   0  0  0  0  0  0  0  0  0  0  0  0
    3.7759    0.9153    0.0000 C   0  0  0  0  0  0  0  0  0  0  0  0
    7.0714   -0.6266    0.0000 C   0  0  0  0  0  0  0  0  0  0  0  0
    4.0611   -0.6266    0.0000 C   0  0  0  0  0  0  0  0  0  0  0  0
    6.5439   -2.2503    0.0000 C   0  0  0  0  0  0  0  0  0  0  0  0
    4.5887   -2.2503    0.0000 C   0  0  0  0  0  0  0  0  0  0  0  0
    7.6513   -1.2608    0.0000 C   0  0  0  0  0  0  0  0  0  0  0  0
    3.4812   -1.2608    0.0000 C   0  0  0  0  0  0  0  0  0  0  0  0
    7.3858   -2.0781    0.0000 C   0  0  0  0  0  0  0  0  0  0  0  0
    3.7467   -2.0781    0.0000 C   0  0  0  0  0  0  0  0  0  0  0  0
    2.4705    1.4966    0.0000 C   0  0  0  0  0  0  0  0  0  0  0  0
    1.6500    1.4103    0.0000 C   0  0  0  0  0  0  0  0  0  0  0  0
    2.8061    2.2503    0.0000 C   0  0  0  0  0  0  0  0  0  0  0  0
    2.5405   -0.1027    0.0000 H   0  0  0  0  0  0  0  0  0  0  0  0
    6.2943    1.8844    0.0000 H   0  0  0  0  0  0  0  0  0  0  0  0
    4.7365    1.1908    0.0000 H   0  0  0  0  0  0  0  0  0  0  0  0
    5.5165    1.3116    0.0000 H   0  0  0  0  0  0  0  0  0  0  0  0
    4.4524    1.1998    0.0000 H   0  0  0  0  0  0  0  0  0  0  0  0
    3.8256   -0.7296    0.0000 H   0  0  0  0  0  0  0  0  0  0  0  0
    3.1967    0.1361    0.0000 H   0  0  0  0  0  0  0  0  0  0  0  0
    4.2111    1.8928    0.0000 H   0  0  0  0  0  0  0  0  0  0  0  0
    4.8400    1.0271    0.0000 H   0  0  0  0  0  0  0  0  0  0  0  0
    7.3790    0.3585    0.0000 H   0  0  0  0  0  0  0  0  0  0  0  0
    3.7535    0.3585    0.0000 H   0  0  0  0  0  0  0  0  0  0  0  0
    6.2137   -3.2280    0.0000 H   0  0  0  0  0  0  0  0  0  0  0  0
    4.9190   -3.2280    0.0000 H   0  0  0  0  0  0  0  0  0  0  0  0
    8.6599   -1.0423    0.0000 H   0  0  0  0  0  0  0  0  0  0  0  0
    2.4726   -1.0423    0.0000 H   0  0  0  0  0  0  0  0  0  0  0  0
    8.0734   -2.8477    0.0000 H   0  0  0  0  0  0  0  0  0  0  0  0
    3.0591   -2.8477    0.0000 H   0  0  0  0  0  0  0  0  0  0  0  0
    1.8416    2.3622    0.0000 H   0  0  0  0  0  0  0  0  0  0  0  0
    1.0210    2.2759    0.0000 H   0  0  0  0  0  0  0  0  0  0  0  0
    1.2149    0.4328    0.0000 H   0  0  0  0  0  0  0  0  0  0  0  0
    0.5859    1.2984    0.0000 H   0  0  0  0  0  0  0  0  0  0  0  0
    3.8702    2.3621    0.0000 H   0  0  0  0  0  0  0  0  0  0  0  0
    2.1772    3.1160    0.0000 H   0  0  0  0  0  0  0  0  0  0  0  0
    3.2413    3.2278    0.0000 H   0  0  0  0  0  0  0  0  0  0  0  0
  1 11  2  0  0  0  0
  2 12  1  0  0  0  0
  2 21  1  0  0  0  0
  2 24  1  0  0  0  0
  3 11  1  0  0  0  0
  3 25  1  0  0  0  0
  3 26  1  0  0  0  0
  4  5  1  0  0  0  0
  4  6  1  0  0  0  0
  4  7  1  0  0  0  0
  4 11  1  0  0  0  0
  5 10  1  0  0  0  0
  5 27  1  0  0  0  0
  5 28  1  0  0  0  0
  6  8  1  0  0  0  0
  6 13  2  0  0  0  0
  7  9  1  0  0  0  0
  7 14  2  0  0  0  0
  8  9  1  0  0  0  0
  8 15  2  0  0  0  0
  9 16  2  0  0  0  0
 10 12  1  0  0  0  0
 10 29  1  0  0  0  0
 10 30  1  0  0  0  0
 12 31  1  0  0  0  0
 12 32  1  0  0  0  0
 13 17  1  0  0  0  0
 13 33  1  0  0  0  0
 14 18  1  0  0  0  0
 14 34  1  0  0  0  0
 15 19  1  0  0  0  0
 15 35  1  0  0  0  0
 16 20  1  0  0  0  0
 16 36  1  0  0  0  0
 17 19  2  0  0  0  0
 17 37  1  0  0  0  0
 18 20  2  0  0  0  0
 18 38  1  0  0  0  0
 19 39  1  0  0  0  0
 20 40  1  0  0  0  0
 21 22  1  0  0  0  0
 21 23  1  0  0  0  0
 21 41  1  0  0  0  0
 22 42  1  0  0  0  0
 22 43  1  0  0  0  0
 22 44  1  0  0  0  0
 23 45  1  0  0  0  0
 23 46  1  0  0  0  0
 23 47  1  0  0  0  0
M  END
>  <DRUGBANK_ID>
DB00192

>  <SECONDARY_ACCESSION_NUMBERS>
APRD01032

>  <COMMON_NAME>
Indecainide

>  <CAS_NUMBER>
74517-78-5

>  <UNII>
3AZF20DM1T

>  <SYNONYMS>
Indecainida; Indecainide; Indecainidum

$$$$
