59A
 OpenBabel10282417072D

 38 38  0  0  0  0  0  0  0  0999 V2000
   -2.0283    1.0166    0.0000 C   0  0  1  0  0  0  0  0  0  0  0  0
   -1.6158    1.7311    0.0000 O   0  0  0  0  0  0  0  0  0  0  0  0
   -1.2033    1.0166    0.0000 C   0  0  2  0  0  0  0  0  0  0  0  0
   -0.4888    0.6041    0.0000 C   0  0  0  0  0  0  0  0  0  0  0  0
   -0.4888   -0.2209    0.0000 O   0  0  0  0  0  0  0  0  0  0  0  0
    0.2257    1.0166    0.0000 N   0  0  0  0  0  0  0  0  0  0  0  0
    0.9401    0.6041    0.0000 C   0  0  2  0  0  0  0  0  0  0  0  0
    0.9401   -0.2209    0.0000 C   0  0  0  0  0  0  0  0  0  0  0  0
    1.6546   -0.6334    0.0000 O   0  0  0  0  0  0  0  0  0  0  0  0
    1.6546    1.0166    0.0000 C   0  0  2  0  0  0  0  0  0  0  0  0
    2.3691    0.6041    0.0000 C   0  0  0  0  0  0  0  0  0  0  0  0
    1.6546    1.8416    0.0000 C   0  0  0  0  0  0  0  0  0  0  0  0
    3.0836    1.0166    0.0000 C   0  0  0  0  0  0  0  0  0  0  0  0
    0.2257   -0.6334    0.0000 O   0  0  0  0  0  0  0  0  0  0  0  0
   -2.7427    0.6041    0.0000 C   0  0  0  0  0  0  0  0  0  0  0  0
   -3.4572    1.0166    0.0000 O   0  0  0  0  0  0  0  0  0  0  0  0
   -2.7427   -0.2209    0.0000 O   0  0  0  0  0  0  0  0  0  0  0  0
   -3.4572   -0.6334    0.0000 C   0  0  0  0  0  0  0  0  0  0  0  0
   -3.4572   -1.4584    0.0000 C   0  0  0  0  0  0  0  0  0  0  0  0
   -2.4412    1.4295    0.0000 H   0  0  0  0  0  0  0  0  0  0  0  0
   -1.3544    0.4526    0.0000 H   0  0  0  0  0  0  0  0  0  0  0  0
    0.4344    0.3122    0.0000 H   0  0  0  0  0  0  0  0  0  0  0  0
    1.6546    0.4327    0.0000 H   0  0  0  0  0  0  0  0  0  0  0  0
    0.2257    2.0011    0.0000 H   0  0  0  0  0  0  0  0  0  0  0  0
    1.6546   -1.5704    0.0000 H   0  0  0  0  0  0  0  0  0  0  0  0
    2.3691   -0.4659    0.0000 H   0  0  0  0  0  0  0  0  0  0  0  0
    3.2957    0.0691    0.0000 H   0  0  0  0  0  0  0  0  0  0  0  0
    2.5812    2.3766    0.0000 H   0  0  0  0  0  0  0  0  0  0  0  0
    0.7280    2.3766    0.0000 H   0  0  0  0  0  0  0  0  0  0  0  0
    1.6546    2.9116    0.0000 H   0  0  0  0  0  0  0  0  0  0  0  0
    4.0102    0.4816    0.0000 H   0  0  0  0  0  0  0  0  0  0  0  0
    3.0836    2.0866    0.0000 H   0  0  0  0  0  0  0  0  0  0  0  0
    4.0103    1.5516    0.0000 H   0  0  0  0  0  0  0  0  0  0  0  0
   -4.3838   -0.0984    0.0000 H   0  0  0  0  0  0  0  0  0  0  0  0
   -4.3838   -1.1684    0.0000 H   0  0  0  0  0  0  0  0  0  0  0  0
   -4.3838   -1.9934    0.0000 H   0  0  0  0  0  0  0  0  0  0  0  0
   -2.5306   -1.9934    0.0000 H   0  0  0  0  0  0  0  0  0  0  0  0
   -3.4572   -2.5284    0.0000 H   0  0  0  0  0  0  0  0  0  0  0  0
  1  2  1  0  0  0  0
  1  3  1  0  0  0  0
  1 15  1  0  0  0  0
  1 20  1  6  0  0  0
  2  3  1  0  0  0  0
  3  4  1  0  0  0  0
  3 21  1  1  0  0  0
  4  5  2  0  0  0  0
  4  6  1  0  0  0  0
  6 24  1  0  0  0  0
  7  6  1  0  0  0  0
  7  8  1  0  0  0  0
  7 10  1  0  0  0  0
  7 22  1  6  0  0  0
  8  9  1  0  0  0  0
  8 14  2  0  0  0  0
  9 25  1  0  0  0  0
 10 11  1  0  0  0  0
 10 12  1  0  0  0  0
 10 23  1  6  0  0  0
 11 13  1  0  0  0  0
 11 26  1  0  0  0  0
 11 27  1  0  0  0  0
 12 28  1  0  0  0  0
 12 29  1  0  0  0  0
 12 30  1  0  0  0  0
 13 31  1  0  0  0  0
 13 32  1  0  0  0  0
 13 33  1  0  0  0  0
 15 16  2  0  0  0  0
 15 17  1  0  0  0  0
 17 18  1  0  0  0  0
 18 19  1  0  0  0  0
 18 34  1  0  0  0  0
 18 35  1  0  0  0  0
 19 36  1  0  0  0  0
 19 37  1  0  0  0  0
 19 38  1  0  0  0  0
M  END
>  <DRUGBANK_ID>
DB07160

>  <COMMON_NAME>
N-{[(2S,3S)-3-(ETHOXYCARBONYL)OXIRAN-2-YL]CARBONYL}-L-ISOLEUCINE

$$$$
