
 OpenBabel10282417072D

 40 39  0  0  0  0  0  0  0  0999 V2000
   -4.2942    0.8057    0.0000 O   0  0  0  0  0  0  0  0  0  0  0  0
   -3.5785    0.3955    0.0000 C   0  0  0  0  0  0  0  0  0  0  0  0
   -2.8629    0.8099    0.0000 C   0  0  0  0  0  0  0  0  0  0  0  0
   -2.1471    0.3997    0.0000 N   0  0  0  0  0  0  0  0  0  0  0  0
   -1.4314    0.8141    0.0000 C   0  0  0  0  0  0  0  0  0  0  0  0
   -0.7156    0.4038    0.0000 C   0  0  1  0  0  0  0  0  0  0  0  0
    0.0000    0.8182    0.0000 N   0  0  0  0  0  0  0  0  0  0  0  0
    0.7156    0.4080    0.0000 C   0  0  0  0  0  0  0  0  0  0  0  0
    1.4314    0.8224    0.0000 C   0  0  0  0  0  0  0  0  0  0  0  0
    2.1471    0.4123    0.0000 C   0  0  0  0  0  0  0  0  0  0  0  0
    2.8629    0.8266    0.0000 C   0  0  1  0  0  0  0  0  0  0  0  0
    3.5785    0.4164    0.0000 C   0  0  0  0  0  0  0  0  0  0  0  0
    4.2942    0.8307    0.0000 O   0  0  0  0  0  0  0  0  0  0  0  0
   -3.5767   -0.4332    0.0000 O   0  0  0  0  0  0  0  0  0  0  0  0
   -1.4332    1.6428    0.0000 O   0  0  0  0  0  0  0  0  0  0  0  0
   -0.7156   -0.4206    0.0000 C   0  0  0  0  0  0  0  0  0  0  0  0
   -1.4314   -0.8307    0.0000 S   0  0  0  0  0  0  0  0  0  0  0  0
   -1.4314   -1.6553    0.0000 C   0  0  0  0  0  0  0  0  0  0  0  0
    0.7174   -0.4206    0.0000 O   0  0  0  0  0  0  0  0  0  0  0  0
    2.8610    1.6553    0.0000 N   0  0  0  0  0  0  0  0  0  0  0  0
    3.5803   -0.4123    0.0000 O   0  0  0  0  0  0  0  0  0  0  0  0
   -4.2972    1.7427    0.0000 H   0  0  0  0  0  0  0  0  0  0  0  0
   -2.8653    1.8799    0.0000 H   0  0  0  0  0  0  0  0  0  0  0  0
   -3.7905    1.3432    0.0000 H   0  0  0  0  0  0  0  0  0  0  0  0
   -2.1449   -0.5848    0.0000 H   0  0  0  0  0  0  0  0  0  0  0  0
   -1.6414   -0.1326    0.0000 H   0  0  0  0  0  0  0  0  0  0  0  0
   -0.0022    1.8027    0.0000 H   0  0  0  0  0  0  0  0  0  0  0  0
    1.4290    1.8924    0.0000 H   0  0  0  0  0  0  0  0  0  0  0  0
    2.3566    1.3599    0.0000 H   0  0  0  0  0  0  0  0  0  0  0  0
    2.1494   -0.6577    0.0000 H   0  0  0  0  0  0  0  0  0  0  0  0
    1.2219   -0.1252    0.0000 H   0  0  0  0  0  0  0  0  0  0  0  0
    1.9354    1.3600    0.0000 H   0  0  0  0  0  0  0  0  0  0  0  0
    5.1062    0.3631    0.0000 H   0  0  0  0  0  0  0  0  0  0  0  0
    0.2102   -0.9571    0.0000 H   0  0  0  0  0  0  0  0  0  0  0  0
   -0.7183   -1.4906    0.0000 H   0  0  0  0  0  0  0  0  0  0  0  0
   -2.3580   -2.1903    0.0000 H   0  0  0  0  0  0  0  0  0  0  0  0
   -0.5048   -2.1903    0.0000 H   0  0  0  0  0  0  0  0  0  0  0  0
   -1.4314   -2.7253    0.0000 H   0  0  0  0  0  0  0  0  0  0  0  0
    3.7432    2.1673    0.0000 H   0  0  0  0  0  0  0  0  0  0  0  0
    1.9765    2.1633    0.0000 H   0  0  0  0  0  0  0  0  0  0  0  0
  1  2  1  0  0  0  0
  1 22  1  0  0  0  0
  2 14  2  0  0  0  0
  2  3  1  0  0  0  0
  3  4  1  0  0  0  0
  3 23  1  0  0  0  0
  3 24  1  0  0  0  0
  4  5  1  0  0  0  0
  4 25  1  0  0  0  0
  5  6  1  0  0  0  0
  5 15  2  0  0  0  0
  6  7  1  0  0  0  0
  6 16  1  0  0  0  0
  6 26  1  6  0  0  0
  7  8  1  0  0  0  0
  7 27  1  0  0  0  0
  8  9  1  0  0  0  0
  8 19  2  0  0  0  0
  9 10  1  0  0  0  0
  9 28  1  0  0  0  0
  9 29  1  0  0  0  0
 10 11  1  0  0  0  0
 10 30  1  0  0  0  0
 10 31  1  0  0  0  0
 11 12  1  0  0  0  0
 11 20  1  0  0  0  0
 11 32  1  1  0  0  0
 12 13  1  0  0  0  0
 12 21  2  0  0  0  0
 13 33  1  0  0  0  0
 16 17  1  0  0  0  0
 16 34  1  0  0  0  0
 16 35  1  0  0  0  0
 17 18  1  0  0  0  0
 18 36  1  0  0  0  0
 18 37  1  0  0  0  0
 18 38  1  0  0  0  0
 20 39  1  0  0  0  0
 20 40  1  0  0  0  0
M  END
>  <DRUGBANK_ID>
DB04701

>  <COMMON_NAME>
S-Methyl glutathione

>  <CAS_NUMBER>
2922-56-7

>  <UNII>
OOW3025SR1

>  <SYNONYMS>
Glutathione ester; Glutathione S-methyl ester; L-gamma-Glutamyl-S-methyl-L-cysteinylglycine

$$$$
