
 OpenBabel10282417072D

 31 33  0  0  0  0  0  0  0  0999 V2000
    0.3020    0.6507    0.0000 C   0  0  0  0  0  0  0  0  0  0  0  0
   -0.4125    1.0632    0.0000 C   0  0  0  0  0  0  0  0  0  0  0  0
   -1.1270    0.6507    0.0000 C   0  0  0  0  0  0  0  0  0  0  0  0
   -1.1270   -0.1743    0.0000 N   0  0  0  0  0  0  0  0  0  0  0  0
   -0.7145   -0.8888    0.0000 C   0  0  0  0  0  0  0  0  0  0  0  0
   -1.5395   -0.8888    0.0000 C   0  0  0  0  0  0  0  0  0  0  0  0
   -1.8414    1.0632    0.0000 C   0  0  0  0  0  0  0  0  0  0  0  0
   -2.5559    0.6507    0.0000 O   0  0  0  0  0  0  0  0  0  0  0  0
   -1.8414    1.8882    0.0000 C   0  0  0  0  0  0  0  0  0  0  0  0
   -2.5559    2.3007    0.0000 C   0  0  0  0  0  0  0  0  0  0  0  0
   -2.5559    3.1257    0.0000 O   0  0  0  0  0  0  0  0  0  0  0  0
   -1.1270    2.3007    0.0000 C   0  0  0  0  0  0  0  0  0  0  0  0
   -1.1270    3.1257    0.0000 N   0  0  0  0  0  0  0  0  0  0  0  0
   -1.5395    3.8401    0.0000 C   0  0  0  0  0  0  0  0  0  0  0  0
   -0.7145    3.8401    0.0000 C   0  0  0  0  0  0  0  0  0  0  0  0
   -0.4125    1.8882    0.0000 C   0  0  0  0  0  0  0  0  0  0  0  0
    0.3020    2.3007    0.0000 O   0  0  0  0  0  0  0  0  0  0  0  0
    0.3020   -0.4193    0.0000 H   0  0  0  0  0  0  0  0  0  0  0  0
    1.2286    1.1857    0.0000 H   0  0  0  0  0  0  0  0  0  0  0  0
    1.2287    0.1157    0.0000 H   0  0  0  0  0  0  0  0  0  0  0  0
    0.2121   -1.4238    0.0000 H   0  0  0  0  0  0  0  0  0  0  0  0
   -0.9914   -1.9223    0.0000 H   0  0  0  0  0  0  0  0  0  0  0  0
   -2.4661   -1.4238    0.0000 H   0  0  0  0  0  0  0  0  0  0  0  0
   -2.2961   -0.1322    0.0000 H   0  0  0  0  0  0  0  0  0  0  0  0
   -3.4825    1.7657    0.0000 H   0  0  0  0  0  0  0  0  0  0  0  0
   -3.4825    2.8357    0.0000 H   0  0  0  0  0  0  0  0  0  0  0  0
   -1.7159    3.6107    0.0000 H   0  0  0  0  0  0  0  0  0  0  0  0
   -2.4662    4.3751    0.0000 H   0  0  0  0  0  0  0  0  0  0  0  0
   -1.2626    4.8736    0.0000 H   0  0  0  0  0  0  0  0  0  0  0  0
    0.2122    4.3751    0.0000 H   0  0  0  0  0  0  0  0  0  0  0  0
    0.0421    3.0835    0.0000 H   0  0  0  0  0  0  0  0  0  0  0  0
  1  2  1  0  0  0  0
  1 18  1  0  0  0  0
  1 19  1  0  0  0  0
  1 20  1  0  0  0  0
  2  3  2  0  0  0  0
  2 16  1  0  0  0  0
  3  4  1  0  0  0  0
  3  7  1  0  0  0  0
  4  5  1  0  0  0  0
  4  6  1  0  0  0  0
  5  6  1  0  0  0  0
  5 21  1  0  0  0  0
  5 22  1  0  0  0  0
  6 23  1  0  0  0  0
  6 24  1  0  0  0  0
  7  8  2  0  0  0  0
  7  9  1  0  0  0  0
  9 10  1  0  0  0  0
  9 12  2  0  0  0  0
 10 11  1  0  0  0  0
 10 25  1  0  0  0  0
 10 26  1  0  0  0  0
 11 27  1  0  0  0  0
 12 13  1  0  0  0  0
 12 16  1  0  0  0  0
 13 14  1  0  0  0  0
 13 15  1  0  0  0  0
 14 15  1  0  0  0  0
 14 28  1  0  0  0  0
 14 29  1  0  0  0  0
 15 30  1  0  0  0  0
 15 31  1  0  0  0  0
 16 17  2  0  0  0  0
M  END
>  <DRUGBANK_ID>
DB04090

>  <SECONDARY_ACCESSION_NUMBERS>
EXPT02778; DB06312; DB12103

>  <COMMON_NAME>
RH-1

>  <CAS_NUMBER>
221635-42-3

>  <UNII>
IJ5CEP760Y

>  <SYNONYMS>
2,5-Cyclohexadiene-1,4-dione, 2,5-bis(1-aziridinyl)-3-(hydroxymethyl)-6-methyl-

$$$$
