CTB
 OpenBabel10282417072D

 23 23  0  0  0  0  0  0  0  0999 V2000
   -2.4145    0.3116    0.0000 B   0  0  0  0  0  0  0  0  0  0  0  0
   -3.1290   -0.1009    0.0000 O   0  0  0  0  0  0  0  0  0  0  0  0
   -2.4145    1.1366    0.0000 O   0  0  0  0  0  0  0  0  0  0  0  0
   -1.7000   -0.1009    0.0000 C   0  0  0  0  0  0  0  0  0  0  0  0
   -0.9856    0.3116    0.0000 N   0  0  0  0  0  0  0  0  0  0  0  0
   -0.2711   -0.1009    0.0000 C   0  0  0  0  0  0  0  0  0  0  0  0
   -0.2711   -0.9259    0.0000 O   0  0  0  0  0  0  0  0  0  0  0  0
    0.4434    0.3116    0.0000 C   0  0  0  0  0  0  0  0  0  0  0  0
    1.1578   -0.1009    0.0000 C   0  0  0  0  0  0  0  0  0  0  0  0
    1.9115    0.2346    0.0000 C   0  0  0  0  0  0  0  0  0  0  0  0
    2.4636   -0.3785    0.0000 C   0  0  0  0  0  0  0  0  0  0  0  0
    2.0511   -1.0930    0.0000 C   0  0  0  0  0  0  0  0  0  0  0  0
    1.2441   -0.9214    0.0000 S   0  0  0  0  0  0  0  0  0  0  0  0
   -3.9690    0.3841    0.0000 H   0  0  0  0  0  0  0  0  0  0  0  0
   -1.5745    1.6216    0.0000 H   0  0  0  0  0  0  0  0  0  0  0  0
   -1.7000   -1.1709    0.0000 H   0  0  0  0  0  0  0  0  0  0  0  0
   -0.7733   -0.6359    0.0000 H   0  0  0  0  0  0  0  0  0  0  0  0
   -0.9856    1.2961    0.0000 H   0  0  0  0  0  0  0  0  0  0  0  0
    0.4434    1.3816    0.0000 H   0  0  0  0  0  0  0  0  0  0  0  0
    1.3701    0.8466    0.0000 H   0  0  0  0  0  0  0  0  0  0  0  0
    2.1261    1.2440    0.0000 H   0  0  0  0  0  0  0  0  0  0  0  0
    3.4899   -0.2706    0.0000 H   0  0  0  0  0  0  0  0  0  0  0  0
    2.4708   -2.0358    0.0000 H   0  0  0  0  0  0  0  0  0  0  0  0
  1  2  1  0  0  0  0
  1  3  1  0  0  0  0
  1  4  1  0  0  0  0
  2 14  1  0  0  0  0
  3 15  1  0  0  0  0
  4  5  1  0  0  0  0
  4 16  1  0  0  0  0
  4 17  1  0  0  0  0
  5  6  1  0  0  0  0
  5 18  1  0  0  0  0
  6  7  2  0  0  0  0
  6  8  1  0  0  0  0
  8  9  1  0  0  0  0
  8 19  1  0  0  0  0
  8 20  1  0  0  0  0
  9 10  2  0  0  0  0
  9 13  1  0  0  0  0
 10 11  1  0  0  0  0
 10 21  1  0  0  0  0
 11 12  2  0  0  0  0
 11 22  1  0  0  0  0
 12 13  1  0  0  0  0
 12 23  1  0  0  0  0
M  END
>  <DRUGBANK_ID>
DB02094

>  <SECONDARY_ACCESSION_NUMBERS>
EXPT01048

>  <COMMON_NAME>
N-2-Thiophen-2-Yl-Acetamide Boronic Acid

>  <UNII>
8KWZ834LZM

$$$$
