
 OpenBabel10282417072D

 11 10  0  0  0  0  0  0  0  0999 V2000
   -0.7147   -0.1509    0.0000 C   0  0  0  0  0  0  0  0  0  0  0  0
    0.7142   -0.1509    0.0000 C   0  0  0  0  0  0  0  0  0  0  0  0
   -0.0001    0.2614    0.0000 C   0  0  0  0  0  0  0  0  0  0  0  0
    0.7142   -0.9760    0.0000 F   0  0  0  0  0  0  0  0  0  0  0  0
    1.4287    0.2614    0.0000 F   0  0  0  0  0  0  0  0  0  0  0  0
    1.4290   -0.5662    0.0000 F   0  0  0  0  0  0  0  0  0  0  0  0
   -0.4126    0.9760    0.0000 F   0  0  0  0  0  0  0  0  0  0  0  0
    0.4123    0.9759    0.0000 F   0  0  0  0  0  0  0  0  0  0  0  0
   -1.4290    0.2614    0.0000 F   0  0  0  0  0  0  0  0  0  0  0  0
   -0.7147   -0.9760    0.0000 F   0  0  0  0  0  0  0  0  0  0  0  0
   -1.4261   -0.5563    0.0000 F   0  0  0  0  0  0  0  0  0  0  0  0
  1  3  1  0  0  0  0
  1 10  1  0  0  0  0
  1  9  1  0  0  0  0
  1 11  1  0  0  0  0
  2  4  1  0  0  0  0
  2  5  1  0  0  0  0
  2  6  1  0  0  0  0
  3  2  1  0  0  0  0
  7  3  1  0  0  0  0
  8  3  1  0  0  0  0
M  END
>  <DRUGBANK_ID>
DB00556

>  <SECONDARY_ACCESSION_NUMBERS>
APRD01177

>  <COMMON_NAME>
Perflutren

>  <CAS_NUMBER>
76-19-7

>  <UNII>
CK0N3WH0SR

>  <SYNONYMS>
1,1,1,2,2,3,3,3-octafluoropropane; Freon 218; Octafluoropropane; Octafluorpropan; Oktafluorpropan; Perfluoropropane; Perflutren; Perflutreno

$$$$
