
 OpenBabel10282417072D

 60 65  0  0  1  0  0  0  0  0999 V2000
    5.4019    4.8951    0.0000 C   0  0  0  0  0  0  0  0  0  0  0  0
    5.1060    4.1250    0.0000 C   0  0  0  0  0  0  0  0  0  0  0  0
    4.2911    3.9962    0.0000 C   0  0  0  0  0  0  0  0  0  0  0  0
    3.9952    3.2261    0.0000 N   0  3  1  0  0  0  0  0  0  0  0  0
    3.4037    2.3495    0.0000 C   0  0  1  0  0  0  0  0  0  0  0  0
    4.0650    1.9941    0.0000 C   0  0  0  0  0  0  0  0  0  0  0  0
    4.4925    2.9552    0.0000 C   0  0  1  0  0  0  0  0  0  0  0  0
    4.8497    2.0437    0.0000 C   0  0  1  0  0  0  0  0  0  0  0  0
    4.9783    2.8616    0.0000 C   0  0  1  0  0  0  0  0  0  0  0  0
    5.6901    3.2787    0.0000 O   0  0  0  0  0  0  0  0  0  0  0  0
    4.9393    1.2235    0.0000 C   0  0  0  0  0  0  0  0  0  0  0  0
    5.6944    0.8911    0.0000 C   0  0  0  0  0  0  0  0  0  0  0  0
    3.8235    3.7569    0.0000 C   0  0  1  0  0  0  0  0  0  0  0  0
    3.2916    3.5060    0.0000 C   0  0  2  0  0  0  0  0  0  0  0  0
    2.3521    3.6892    0.0000 C   0  0  0  0  0  0  0  0  0  0  0  0
    2.2589    3.0327    0.0000 C   0  0  2  0  0  0  0  0  0  0  0  0
    2.5408    2.2032    0.0000 C   0  0  1  0  0  0  0  0  0  0  0  0
    1.9041    1.5880    0.0000 N   0  0  0  0  0  0  0  0  0  0  0  0
    1.1908    2.0021    0.0000 C   0  0  0  0  0  0  0  0  0  0  0  0
    1.3857    2.8037    0.0000 C   0  0  0  0  0  0  0  0  0  0  0  0
    0.7889    3.3733    0.0000 C   0  0  0  0  0  0  0  0  0  0  0  0
   -0.0028    3.1413    0.0000 C   0  0  0  0  0  0  0  0  0  0  0  0
   -0.1977    2.3397    0.0000 C   0  0  0  0  0  0  0  0  0  0  0  0
    0.3991    1.7701    0.0000 C   0  0  0  0  0  0  0  0  0  0  0  0
    2.0037    0.7690    0.0000 C   0  0  0  0  0  0  0  0  0  0  0  0
    2.8544    3.9992    0.0000 C   0  0  2  0  0  0  0  0  0  0  0  0
    2.5432    4.7633    0.0000 O   0  0  0  0  0  0  0  0  0  0  0  0
    6.4588    5.0621    0.0000 H   0  0  0  0  0  0  0  0  0  0  0  0
    4.7288    5.7269    0.0000 H   0  0  0  0  0  0  0  0  0  0  0  0
    5.7857    5.8939    0.0000 H   0  0  0  0  0  0  0  0  0  0  0  0
    5.7791    3.2932    0.0000 H   0  0  0  0  0  0  0  0  0  0  0  0
    4.7222    3.1262    0.0000 H   0  0  0  0  0  0  0  0  0  0  0  0
    3.6180    4.8280    0.0000 H   0  0  0  0  0  0  0  0  0  0  0  0
    3.2342    3.8292    0.0000 H   0  0  0  0  0  0  0  0  0  0  0  0
    4.4425    2.6060    0.0000 H   0  0  0  0  0  0  0  0  0  0  0  0
    4.4113    0.9817    0.0000 H   0  0  0  0  0  0  0  0  0  0  0  0
    5.1339    1.9465    0.0000 H   0  0  0  0  0  0  0  0  0  0  0  0
    4.4684    1.8855    0.0000 H   0  0  0  0  0  0  0  0  0  0  0  0
    3.8107    1.7882    0.0000 H   0  0  0  0  0  0  0  0  0  0  0  0
    5.8624    2.2589    0.0000 H   0  0  0  0  0  0  0  0  0  0  0  0
    6.5333    2.7991    0.0000 H   0  0  0  0  0  0  0  0  0  0  0  0
    4.0763    0.5910    0.0000 H   0  0  0  0  0  0  0  0  0  0  0  0
    5.0556    0.1598    0.0000 H   0  0  0  0  0  0  0  0  0  0  0  0
    5.8107   -0.1726    0.0000 H   0  0  0  0  0  0  0  0  0  0  0  0
    6.5574    1.5237    0.0000 H   0  0  0  0  0  0  0  0  0  0  0  0
    6.6737    0.4600    0.0000 H   0  0  0  0  0  0  0  0  0  0  0  0
    3.5928    2.7121    0.0000 H   0  0  0  0  0  0  0  0  0  0  0  0
    2.9901    2.4793    0.0000 H   0  0  0  0  0  0  0  0  0  0  0  0
    1.7316    4.5609    0.0000 H   0  0  0  0  0  0  0  0  0  0  0  0
    1.3125    3.4361    0.0000 H   0  0  0  0  0  0  0  0  0  0  0  0
    1.5008    2.4549    0.0000 H   0  0  0  0  0  0  0  0  0  0  0  0
    1.0327    4.3761    0.0000 H   0  0  0  0  0  0  0  0  0  0  0  0
   -0.7493    3.8539    0.0000 H   0  0  0  0  0  0  0  0  0  0  0  0
   -1.1880    2.0494    0.0000 H   0  0  0  0  0  0  0  0  0  0  0  0
    0.1553    0.7673    0.0000 H   0  0  0  0  0  0  0  0  0  0  0  0
    1.1484    0.1260    0.0000 H   0  0  0  0  0  0  0  0  0  0  0  0
    2.9882    0.3498    0.0000 H   0  0  0  0  0  0  0  0  0  0  0  0
    2.1329   -0.2932    0.0000 H   0  0  0  0  0  0  0  0  0  0  0  0
    1.7881    4.0876    0.0000 H   0  0  0  0  0  0  0  0  0  0  0  0
    3.1383    5.5293    0.0000 H   0  0  0  0  0  0  0  0  0  0  0  0
  1  2  1  0  0  0  0
  1 28  1  0  0  0  0
  1 29  1  0  0  0  0
  1 30  1  0  0  0  0
  2  3  1  0  0  0  0
  2 31  1  0  0  0  0
  2 32  1  0  0  0  0
  3 33  1  0  0  0  0
  3 34  1  0  0  0  0
  4  3  1  6  0  0  0
  4  5  1  0  0  0  0
  4  9  1  0  0  0  0
  4 14  1  0  0  0  0
  5  6  1  0  0  0  0
  5 17  1  0  0  0  0
  5 35  1  6  0  0  0
  6 36  1  0  0  0  0
  6 37  1  0  0  0  0
  7  6  1  0  0  0  0
  7  8  1  0  0  0  0
  7 13  1  0  0  0  0
  7 38  1  1  0  0  0
  8  9  1  0  0  0  0
  8 11  1  0  0  0  0
  8 39  1  6  0  0  0
  9 10  1  0  0  0  0
  9 40  1  1  0  0  0
 10 41  1  0  0  0  0
 11 12  1  0  0  0  0
 11 42  1  0  0  0  0
 11 43  1  0  0  0  0
 12 44  1  0  0  0  0
 12 45  1  0  0  0  0
 12 46  1  0  0  0  0
 13 14  1  0  0  0  0
 13 26  1  0  0  0  0
 13 47  1  6  0  0  0
 14 15  1  0  0  0  0
 14 48  1  6  0  0  0
 15 49  1  0  0  0  0
 15 50  1  0  0  0  0
 16 15  1  0  0  0  0
 16 17  1  0  0  0  0
 16 20  1  1  0  0  0
 16 26  1  0  0  0  0
 17 18  1  0  0  0  0
 17 51  1  1  0  0  0
 18 19  1  0  0  0  0
 18 25  1  0  0  0  0
 19 20  2  0  0  0  0
 19 24  1  0  0  0  0
 20 21  1  0  0  0  0
 21 22  2  0  0  0  0
 21 52  1  0  0  0  0
 22 23  1  0  0  0  0
 22 53  1  0  0  0  0
 23 24  2  0  0  0  0
 23 54  1  0  0  0  0
 24 55  1  0  0  0  0
 25 56  1  0  0  0  0
 25 57  1  0  0  0  0
 25 58  1  0  0  0  0
 26 27  1  0  0  0  0
 26 59  1  1  0  0  0
 27 60  1  0  0  0  0
M  CHG  1   4   1
M  END
>  <DRUGBANK_ID>
DB13555

>  <COMMON_NAME>
Prajmaline

>  <CAS_NUMBER>
35080-11-6

>  <UNII>
75934UD4GJ

>  <SYNONYMS>
Prajmalium

$$$$
