792
 OpenBabel10282417072D

 52 54  0  0  0  0  0  0  0  0999 V2000
    2.2823    4.0654    0.0000 C   0  0  0  0  0  0  0  0  0  0  0  0
    2.0274    3.2807    0.0000 C   0  0  0  0  0  0  0  0  0  0  0  0
    1.2204    3.1092    0.0000 C   0  0  0  0  0  0  0  0  0  0  0  0
    0.6684    3.7223    0.0000 C   0  0  0  0  0  0  0  0  0  0  0  0
    0.9233    4.5069    0.0000 C   0  0  0  0  0  0  0  0  0  0  0  0
    1.7303    4.6785    0.0000 C   0  0  0  0  0  0  0  0  0  0  0  0
   -0.2948   -0.1863    0.0000 S   0  0  0  0  0  0  0  0  0  0  0  0
   -0.2948   -1.0113    0.0000 C   0  0  0  0  0  0  0  0  0  0  0  0
   -1.0092   -1.4238    0.0000 C   0  0  0  0  0  0  0  0  0  0  0  0
   -1.0092   -2.2488    0.0000 C   0  0  0  0  0  0  0  0  0  0  0  0
   -0.2948   -2.6613    0.0000 C   0  0  0  0  0  0  0  0  0  0  0  0
    0.4197   -2.2488    0.0000 C   0  0  0  0  0  0  0  0  0  0  0  0
    0.4197   -1.4238    0.0000 C   0  0  0  0  0  0  0  0  0  0  0  0
   -0.2948   -3.4863    0.0000 O   0  0  0  0  0  0  0  0  0  0  0  0
   -1.0092   -3.8988    0.0000 C   0  0  0  0  0  0  0  0  0  0  0  0
   -1.0092   -4.7238    0.0000 C   0  0  0  0  0  0  0  0  0  0  0  0
   -1.0092   -5.5488    0.0000 C   0  0  0  0  0  0  0  0  0  0  0  0
   -1.0092   -6.3738    0.0000 C   0  0  0  0  0  0  0  0  0  0  0  0
   -1.1198   -0.1863    0.0000 O   0  0  0  0  0  0  0  0  0  0  0  0
    0.5302   -0.1863    0.0000 O   0  0  0  0  0  0  0  0  0  0  0  0
    2.4399    2.5663    0.0000 N   0  0  0  0  0  0  0  0  0  0  0  0
    1.8878    1.9532    0.0000 C   0  0  0  0  0  0  0  0  0  0  0  0
    1.1342    2.2887    0.0000 C   0  0  0  0  0  0  0  0  0  0  0  0
    0.4197    1.8762    0.0000 C   0  0  0  0  0  0  0  0  0  0  0  0
    0.4197    1.0512    0.0000 C   0  0  2  0  0  0  0  0  0  0  0  0
    1.1342    0.6387    0.0000 C   0  0  0  0  0  0  0  0  0  0  0  0
   -0.2948    0.6387    0.0000 N   0  0  0  0  0  0  0  0  0  0  0  0
    1.8486    1.0512    0.0000 O   0  0  0  0  0  0  0  0  0  0  0  0
    1.1342   -0.1863    0.0000 O   0  0  0  0  0  0  0  0  0  0  0  0
    0.3713    5.1200    0.0000 C   0  0  0  0  0  0  0  0  0  0  0  0
    0.9254    1.3432    0.0000 H   0  0  0  0  0  0  0  0  0  0  0  0
    3.2917    4.2800    0.0000 H   0  0  0  0  0  0  0  0  0  0  0  0
   -0.3410    3.5077    0.0000 H   0  0  0  0  0  0  0  0  0  0  0  0
    2.0492    5.6600    0.0000 H   0  0  0  0  0  0  0  0  0  0  0  0
   -1.9029   -0.9078    0.0000 H   0  0  0  0  0  0  0  0  0  0  0  0
   -1.9029   -2.7648    0.0000 H   0  0  0  0  0  0  0  0  0  0  0  0
    1.3134   -2.7648    0.0000 H   0  0  0  0  0  0  0  0  0  0  0  0
    1.3134   -0.9078    0.0000 H   0  0  0  0  0  0  0  0  0  0  0  0
   -1.9359   -3.3638    0.0000 H   0  0  0  0  0  0  0  0  0  0  0  0
   -1.9358   -4.4338    0.0000 H   0  0  0  0  0  0  0  0  0  0  0  0
   -1.9358   -6.9088    0.0000 H   0  0  0  0  0  0  0  0  0  0  0  0
   -0.0826   -6.9088    0.0000 H   0  0  0  0  0  0  0  0  0  0  0  0
   -1.0092   -7.4438    0.0000 H   0  0  0  0  0  0  0  0  0  0  0  0
    3.4190    2.4634    0.0000 H   0  0  0  0  0  0  0  0  0  0  0  0
    2.1024    0.9437    0.0000 H   0  0  0  0  0  0  0  0  0  0  0  0
   -0.5069    2.4112    0.0000 H   0  0  0  0  0  0  0  0  0  0  0  0
   -0.5069    1.3412    0.0000 H   0  0  0  0  0  0  0  0  0  0  0  0
   -1.1781    1.1487    0.0000 H   0  0  0  0  0  0  0  0  0  0  0  0
    2.6601    0.5827    0.0000 H   0  0  0  0  0  0  0  0  0  0  0  0
    0.7020    6.1376    0.0000 H   0  0  0  0  0  0  0  0  0  0  0  0
   -0.6753    4.8976    0.0000 H   0  0  0  0  0  0  0  0  0  0  0  0
   -0.3446    5.9152    0.0000 H   0  0  0  0  0  0  0  0  0  0  0  0
  1  2  1  0  0  0  0
  1 32  1  0  0  0  0
  2 21  1  0  0  0  0
  3  2  2  0  0  0  0
  3 23  1  0  0  0  0
  4  3  1  0  0  0  0
  4 33  1  0  0  0  0
  5  4  2  0  0  0  0
  5  6  1  0  0  0  0
  6  1  2  0  0  0  0
  6 34  1  0  0  0  0
  7  8  1  0  0  0  0
  7 19  2  0  0  0  0
  8 13  1  0  0  0  0
  9  8  2  0  0  0  0
  9 10  1  0  0  0  0
  9 35  1  0  0  0  0
 10 11  2  0  0  0  0
 10 36  1  0  0  0  0
 11 14  1  0  0  0  0
 11 12  1  0  0  0  0
 12 37  1  0  0  0  0
 13 12  2  0  0  0  0
 13 38  1  0  0  0  0
 14 15  1  0  0  0  0
 15 16  1  0  0  0  0
 15 39  1  0  0  0  0
 15 40  1  0  0  0  0
 16 17  3  0  0  0  0
 17 18  1  0  0  0  0
 18 41  1  0  0  0  0
 18 42  1  0  0  0  0
 18 43  1  0  0  0  0
 20  7  2  0  0  0  0
 21 44  1  0  0  0  0
 22 21  1  0  0  0  0
 22 45  1  0  0  0  0
 23 22  2  0  0  0  0
 24 23  1  0  0  0  0
 24 25  1  0  0  0  0
 24 46  1  0  0  0  0
 24 47  1  0  0  0  0
 25 26  1  0  0  0  0
 25 27  1  0  0  0  0
 25 31  1  1  0  0  0
 26 28  1  0  0  0  0
 27  7  1  0  0  0  0
 27 48  1  0  0  0  0
 28 49  1  0  0  0  0
 29 26  2  0  0  0  0
 30  5  1  0  0  0  0
 30 50  1  0  0  0  0
 30 51  1  0  0  0  0
 30 52  1  0  0  0  0
M  END
>  <DRUGBANK_ID>
DB07233

>  <COMMON_NAME>
N-{[4-(but-2-yn-1-yloxy)phenyl]sulfonyl}-5-methyl-D-tryptophan

$$$$
