
 OpenBabel10282417072D

 81 84  0  0  0  0  0  0  0  0999 V2000
   -0.1060    0.2846    0.0000 C   0  0  0  0  0  0  0  0  0  0  0  0
    0.4448   -0.3294    0.0000 C   0  0  2  0  0  0  0  0  0  0  0  0
    1.2521   -0.1593    0.0000 C   0  0  0  0  0  0  0  0  0  0  0  0
    1.5085    0.6248    0.0000 Se  0  0  0  0  0  0  0  0  0  0  0  0
    2.3158    0.7949    0.0000 C   0  0  0  0  0  0  0  0  0  0  0  0
    2.5720    1.5791    0.0000 C   0  0  0  0  0  0  0  0  0  0  0  0
    2.0211    2.1932    0.0000 O   0  0  0  0  0  0  0  0  0  0  0  0
    3.3793    1.7493    0.0000 N   0  0  0  0  0  0  0  0  0  0  0  0
    3.6356    2.5335    0.0000 C   0  0  0  0  0  0  0  0  0  0  0  0
    4.4429    2.7036    0.0000 C   0  0  0  0  0  0  0  0  0  0  0  0
    4.6993    3.4878    0.0000 S   0  0  0  0  0  0  0  0  0  0  0  0
    4.9555    4.2720    0.0000 O   0  0  0  0  0  0  0  0  0  0  0  0
    5.4834    3.2316    0.0000 O   0  0  0  0  0  0  0  0  0  0  0  0
    3.9151    3.7442    0.0000 O   0  0  0  0  0  0  0  0  0  0  0  0
    0.1885   -1.1137    0.0000 C   0  0  1  0  0  0  0  0  0  0  0  0
    0.8406   -1.0112    0.0000 H   0  0  0  0  0  0  0  0  0  0  0  0
    0.6700   -1.7775    0.0000 C   0  0  0  0  0  0  0  0  0  0  0  0
    0.1885   -2.4414    0.0000 C   0  0  0  0  0  0  0  0  0  0  0  0
   -0.5920   -2.1901    0.0000 C   0  0  1  0  0  0  0  0  0  0  0  0
   -0.5221   -2.8464    0.0000 H   0  0  0  0  0  0  0  0  0  0  0  0
   -1.3065   -2.6026    0.0000 C   0  0  2  0  0  0  0  0  0  0  0  0
   -0.7324   -2.9281    0.0000 H   0  0  0  0  0  0  0  0  0  0  0  0
   -1.2932   -3.4618    0.0000 C   0  0  2  0  0  0  0  0  0  0  0  0
   -0.5740   -3.8660    0.0000 O   0  0  0  0  0  0  0  0  0  0  0  0
   -2.0342   -3.8972    0.0000 C   0  0  0  0  0  0  0  0  0  0  0  0
   -2.7784   -3.4675    0.0000 C   0  0  2  0  0  0  0  0  0  0  0  0
   -2.7759   -4.1276    0.0000 H   0  0  0  0  0  0  0  0  0  0  0  0
   -3.5502   -3.9211    0.0000 C   0  0  0  0  0  0  0  0  0  0  0  0
   -4.3253   -3.4736    0.0000 C   0  0  2  0  0  0  0  0  0  0  0  0
   -5.0415   -3.8833    0.0000 O   0  0  0  0  0  0  0  0  0  0  0  0
   -4.3185   -2.5784    0.0000 C   0  0  0  0  0  0  0  0  0  0  0  0
   -3.5365   -2.1428    0.0000 C   0  0  0  0  0  0  0  0  0  0  0  0
   -2.7717   -2.6082    0.0000 C   0  0  1  0  0  0  0  0  0  0  0  0
   -2.7654   -1.7832    0.0000 C   0  0  0  0  0  0  0  0  0  0  0  0
   -2.0210   -2.1901    0.0000 C   0  0  1  0  0  0  0  0  0  0  0  0
   -1.4494   -1.8601    0.0000 H   0  0  0  0  0  0  0  0  0  0  0  0
   -2.0210   -1.3650    0.0000 C   0  0  0  0  0  0  0  0  0  0  0  0
   -1.3065   -0.9525    0.0000 C   0  0  2  0  0  0  0  0  0  0  0  0
   -1.3065   -0.1275    0.0000 O   0  0  0  0  0  0  0  0  0  0  0  0
   -0.5920   -1.3650    0.0000 C   0  0  2  0  0  0  0  0  0  0  0  0
   -0.5920   -0.5400    0.0000 C   0  0  0  0  0  0  0  0  0  0  0  0
    3.7209    1.3686    0.0000 H   0  0  0  0  0  0  0  0  0  0  0  0
    5.4560    4.3775    0.0000 H   0  0  0  0  0  0  0  0  0  0  0  0
   -0.5681   -4.3775    0.0000 H   0  0  0  0  0  0  0  0  0  0  0  0
   -5.4834   -3.6258    0.0000 H   0  0  0  0  0  0  0  0  0  0  0  0
   -1.7495    0.1282    0.0000 H   0  0  0  0  0  0  0  0  0  0  0  0
    0.2265    1.3016    0.0000 H   0  0  0  0  0  0  0  0  0  0  0  0
   -1.1530    0.0641    0.0000 H   0  0  0  0  0  0  0  0  0  0  0  0
   -0.8205    1.0811    0.0000 H   0  0  0  0  0  0  0  0  0  0  0  0
    0.7773    0.6876    0.0000 H   0  0  0  0  0  0  0  0  0  0  0  0
    1.9666   -0.9558    0.0000 H   0  0  0  0  0  0  0  0  0  0  0  0
    2.2991    0.0612    0.0000 H   0  0  0  0  0  0  0  0  0  0  0  0
    3.0304   -0.0015    0.0000 H   0  0  0  0  0  0  0  0  0  0  0  0
    3.3628    1.0156    0.0000 H   0  0  0  0  0  0  0  0  0  0  0  0
    2.9210    3.3299    0.0000 H   0  0  0  0  0  0  0  0  0  0  0  0
    3.9680    3.5505    0.0000 H   0  0  0  0  0  0  0  0  0  0  0  0
    5.1574    1.9071    0.0000 H   0  0  0  0  0  0  0  0  0  0  0  0
    5.4899    2.9242    0.0000 H   0  0  0  0  0  0  0  0  0  0  0  0
    1.7400   -1.7775    0.0000 H   0  0  0  0  0  0  0  0  0  0  0  0
    1.1562   -2.7307    0.0000 H   0  0  0  0  0  0  0  0  0  0  0  0
    0.5209   -3.4584    0.0000 H   0  0  0  0  0  0  0  0  0  0  0  0
   -0.5664   -3.1997    0.0000 H   0  0  0  0  0  0  0  0  0  0  0  0
   -0.3739   -2.9143    0.0000 H   0  0  0  0  0  0  0  0  0  0  0  0
   -2.0301   -4.9672    0.0000 H   0  0  0  0  0  0  0  0  0  0  0  0
   -2.9598   -4.4339    0.0000 H   0  0  0  0  0  0  0  0  0  0  0  0
   -3.5461   -4.9911    0.0000 H   0  0  0  0  0  0  0  0  0  0  0  0
   -4.4758   -4.4579    0.0000 H   0  0  0  0  0  0  0  0  0  0  0  0
   -4.3274   -4.5436    0.0000 H   0  0  0  0  0  0  0  0  0  0  0  0
   -5.2389   -2.0328    0.0000 H   0  0  0  0  0  0  0  0  0  0  0  0
   -4.3041   -1.5085    0.0000 H   0  0  0  0  0  0  0  0  0  0  0  0
   -3.5159   -1.0730    0.0000 H   0  0  0  0  0  0  0  0  0  0  0  0
   -2.5987   -1.6275    0.0000 H   0  0  0  0  0  0  0  0  0  0  0  0
   -1.8347   -1.2553    0.0000 H   0  0  0  0  0  0  0  0  0  0  0  0
   -3.6879   -1.2411    0.0000 H   0  0  0  0  0  0  0  0  0  0  0  0
   -2.7572   -0.7132    0.0000 H   0  0  0  0  0  0  0  0  0  0  0  0
   -2.9476   -0.8300    0.0000 H   0  0  0  0  0  0  0  0  0  0  0  0
   -2.0210   -0.2950    0.0000 H   0  0  0  0  0  0  0  0  0  0  0  0
   -2.2331   -0.4175    0.0000 H   0  0  0  0  0  0  0  0  0  0  0  0
    0.3346   -0.0050    0.0000 H   0  0  0  0  0  0  0  0  0  0  0  0
   -1.5186   -0.0050    0.0000 H   0  0  0  0  0  0  0  0  0  0  0  0
   -0.5920    0.5300    0.0000 H   0  0  0  0  0  0  0  0  0  0  0  0
  1 47  1  0  0  0  0
  1 48  1  0  0  0  0
  1 49  1  0  0  0  0
  2  1  1  0  0  0  0
  2  3  1  0  0  0  0
  2 15  1  0  0  0  0
  2 50  1  1  0  0  0
  3  4  1  0  0  0  0
  3 51  1  0  0  0  0
  3 52  1  0  0  0  0
  4  5  1  0  0  0  0
  5  6  1  0  0  0  0
  5 53  1  0  0  0  0
  5 54  1  0  0  0  0
  6  7  2  0  0  0  0
  6  8  1  0  0  0  0
  8  9  1  0  0  0  0
  8 42  1  0  0  0  0
  9 10  1  0  0  0  0
  9 55  1  0  0  0  0
  9 56  1  0  0  0  0
 10 11  1  0  0  0  0
 10 57  1  0  0  0  0
 10 58  1  0  0  0  0
 11 12  1  0  0  0  0
 11 13  2  0  0  0  0
 11 14  2  0  0  0  0
 12 43  1  0  0  0  0
 15 16  1  6  0  0  0
 15 17  1  0  0  0  0
 15 40  1  0  0  0  0
 17 18  1  0  0  0  0
 17 59  1  0  0  0  0
 17 60  1  0  0  0  0
 18 19  1  0  0  0  0
 18 61  1  0  0  0  0
 18 62  1  0  0  0  0
 19 20  1  6  0  0  0
 19 21  1  0  0  0  0
 19 40  1  0  0  0  0
 21 22  1  1  0  0  0
 21 23  1  0  0  0  0
 21 35  1  0  0  0  0
 23 24  1  0  0  0  0
 23 25  1  0  0  0  0
 23 63  1  1  0  0  0
 24 44  1  0  0  0  0
 25 26  1  0  0  0  0
 25 64  1  0  0  0  0
 25 65  1  0  0  0  0
 26 27  1  1  0  0  0
 26 28  1  0  0  0  0
 26 33  1  0  0  0  0
 28 29  1  0  0  0  0
 28 66  1  0  0  0  0
 28 67  1  0  0  0  0
 29 30  1  0  0  0  0
 29 31  1  0  0  0  0
 29 68  1  1  0  0  0
 30 45  1  0  0  0  0
 31 32  1  0  0  0  0
 31 69  1  0  0  0  0
 31 70  1  0  0  0  0
 32 33  1  0  0  0  0
 32 71  1  0  0  0  0
 32 72  1  0  0  0  0
 33 34  1  1  0  0  0
 33 35  1  0  0  0  0
 34 73  1  0  0  0  0
 34 74  1  0  0  0  0
 34 75  1  0  0  0  0
 35 36  1  6  0  0  0
 35 37  1  0  0  0  0
 37 38  1  0  0  0  0
 37 76  1  0  0  0  0
 37 77  1  0  0  0  0
 38 39  1  0  0  0  0
 38 40  1  0  0  0  0
 38 78  1  1  0  0  0
 39 46  1  0  0  0  0
 40 41  1  1  0  0  0
 41 79  1  0  0  0  0
 41 80  1  0  0  0  0
 41 81  1  0  0  0  0
M  END
>  <DRUGBANK_ID>
DB15973

>  <COMMON_NAME>
Tauroselcholic acid

>  <CAS_NUMBER>
75018-71-2

>  <UNII>
H6630PU5ZJ

>  <SYNONYMS>
SeHCAT; Tauroselcholic acid

$$$$
