W56
 OpenBabel10282417072D

 48 50  0  0  0  0  0  0  0  0999 V2000
   -4.5851    0.3106    0.0000 O   0  0  0  0  0  0  0  0  0  0  0  0
   -5.1371    0.9237    0.0000 N   0  0  0  0  0  0  0  0  0  0  0  0
   -4.7246    1.6381    0.0000 C   0  0  0  0  0  0  0  0  0  0  0  0
   -5.0602    2.3918    0.0000 C   0  0  0  0  0  0  0  0  0  0  0  0
   -3.9177    1.4666    0.0000 C   0  0  0  0  0  0  0  0  0  0  0  0
   -3.8314    0.6461    0.0000 C   0  0  0  0  0  0  0  0  0  0  0  0
   -3.1170    0.2336    0.0000 C   0  0  0  0  0  0  0  0  0  0  0  0
   -2.4025    0.6461    0.0000 C   0  0  0  0  0  0  0  0  0  0  0  0
   -1.6880    0.2336    0.0000 C   0  0  0  0  0  0  0  0  0  0  0  0
   -0.9736    0.6461    0.0000 C   0  0  0  0  0  0  0  0  0  0  0  0
   -0.2591    0.2336    0.0000 C   0  0  0  0  0  0  0  0  0  0  0  0
    0.4554    0.6461    0.0000 O   0  0  0  0  0  0  0  0  0  0  0  0
    1.1699    0.2336    0.0000 C   0  0  0  0  0  0  0  0  0  0  0  0
    1.8843    0.6461    0.0000 C   0  0  0  0  0  0  0  0  0  0  0  0
    2.5988    0.2336    0.0000 C   0  0  0  0  0  0  0  0  0  0  0  0
    2.5988   -0.5914    0.0000 C   0  0  0  0  0  0  0  0  0  0  0  0
    1.8843   -1.0039    0.0000 C   0  0  0  0  0  0  0  0  0  0  0  0
    1.1699   -0.5914    0.0000 C   0  0  0  0  0  0  0  0  0  0  0  0
    3.3133   -1.0039    0.0000 C   0  0  0  0  0  0  0  0  0  0  0  0
    4.0669   -0.6683    0.0000 N   0  0  0  0  0  0  0  0  0  0  0  0
    4.6190   -1.2814    0.0000 C   0  0  1  0  0  0  0  0  0  0  0  0
    5.4395   -1.1952    0.0000 C   0  0  0  0  0  0  0  0  0  0  0  0
    4.2065   -1.9959    0.0000 C   0  0  0  0  0  0  0  0  0  0  0  0
    3.3995   -1.8243    0.0000 O   0  0  0  0  0  0  0  0  0  0  0  0
    4.8282   -0.7363    0.0000 H   0  0  0  0  0  0  0  0  0  0  0  0
   -4.4313    3.2575    0.0000 H   0  0  0  0  0  0  0  0  0  0  0  0
   -6.1243    2.5036    0.0000 H   0  0  0  0  0  0  0  0  0  0  0  0
   -5.4954    3.3693    0.0000 H   0  0  0  0  0  0  0  0  0  0  0  0
   -3.1508    2.1572    0.0000 H   0  0  0  0  0  0  0  0  0  0  0  0
   -3.1170   -0.8364    0.0000 H   0  0  0  0  0  0  0  0  0  0  0  0
   -2.1904   -0.3014    0.0000 H   0  0  0  0  0  0  0  0  0  0  0  0
   -2.4025    1.7161    0.0000 H   0  0  0  0  0  0  0  0  0  0  0  0
   -1.4759    1.1811    0.0000 H   0  0  0  0  0  0  0  0  0  0  0  0
   -1.6880   -0.8364    0.0000 H   0  0  0  0  0  0  0  0  0  0  0  0
   -0.7613   -0.3014    0.0000 H   0  0  0  0  0  0  0  0  0  0  0  0
   -0.9736    1.7161    0.0000 H   0  0  0  0  0  0  0  0  0  0  0  0
   -0.0470    1.1811    0.0000 H   0  0  0  0  0  0  0  0  0  0  0  0
   -0.2591   -0.8364    0.0000 H   0  0  0  0  0  0  0  0  0  0  0  0
    0.6675   -0.3014    0.0000 H   0  0  0  0  0  0  0  0  0  0  0  0
    1.8843    1.6781    0.0000 H   0  0  0  0  0  0  0  0  0  0  0  0
    3.4925    0.7496    0.0000 H   0  0  0  0  0  0  0  0  0  0  0  0
    1.8843   -2.0359    0.0000 H   0  0  0  0  0  0  0  0  0  0  0  0
    0.2762   -1.1074    0.0000 H   0  0  0  0  0  0  0  0  0  0  0  0
    6.0684   -2.0609    0.0000 H   0  0  0  0  0  0  0  0  0  0  0  0
    5.8748   -0.2177    0.0000 H   0  0  0  0  0  0  0  0  0  0  0  0
    6.5036   -1.0834    0.0000 H   0  0  0  0  0  0  0  0  0  0  0  0
    4.6417   -2.9734    0.0000 H   0  0  0  0  0  0  0  0  0  0  0  0
    3.5331   -2.8274    0.0000 H   0  0  0  0  0  0  0  0  0  0  0  0
  1  2  1  0  0  0  0
  1  6  1  0  0  0  0
  2  3  2  0  0  0  0
  3  4  1  0  0  0  0
  3  5  1  0  0  0  0
  4 26  1  0  0  0  0
  4 27  1  0  0  0  0
  4 28  1  0  0  0  0
  5  6  2  0  0  0  0
  5 29  1  0  0  0  0
  6  7  1  0  0  0  0
  7  8  1  0  0  0  0
  7 30  1  0  0  0  0
  7 31  1  0  0  0  0
  8  9  1  0  0  0  0
  8 32  1  0  0  0  0
  8 33  1  0  0  0  0
  9 10  1  0  0  0  0
  9 34  1  0  0  0  0
  9 35  1  0  0  0  0
 10 11  1  0  0  0  0
 10 36  1  0  0  0  0
 10 37  1  0  0  0  0
 11 12  1  0  0  0  0
 11 38  1  0  0  0  0
 11 39  1  0  0  0  0
 12 13  1  0  0  0  0
 13 14  2  0  0  0  0
 13 18  1  0  0  0  0
 14 15  1  0  0  0  0
 14 40  1  0  0  0  0
 15 16  2  0  0  0  0
 15 41  1  0  0  0  0
 16 17  1  0  0  0  0
 16 19  1  0  0  0  0
 17 18  2  0  0  0  0
 17 42  1  0  0  0  0
 18 43  1  0  0  0  0
 19 20  2  0  0  0  0
 19 24  1  0  0  0  0
 20 21  1  0  0  0  0
 21 22  1  0  0  0  0
 21 23  1  0  0  0  0
 21 25  1  6  0  0  0
 22 44  1  0  0  0  0
 22 45  1  0  0  0  0
 22 46  1  0  0  0  0
 23 24  1  0  0  0  0
 23 47  1  0  0  0  0
 23 48  1  0  0  0  0
M  END
>  <DRUGBANK_ID>
DB08724

>  <COMMON_NAME>
5-(5-(4-(5-hydro-4-methyl-2-oxazolyl)phenoxy)pentyl)-3-methyl isoxazole

$$$$
