
 OpenBabel10282417072D

 20 20  0  0  0  0  0  0  0  0999 V2000
    0.3572   -0.7698    0.0000 C   0  0  0  0  0  0  0  0  0  0  0  0
   -0.3572    0.4677    0.0000 C   0  0  0  0  0  0  0  0  0  0  0  0
   -1.0718    0.0552    0.0000 C   0  0  0  0  0  0  0  0  0  0  0  0
   -0.3572   -1.1823    0.0000 C   0  0  0  0  0  0  0  0  0  0  0  0
   -1.0718   -0.7698    0.0000 C   0  0  0  0  0  0  0  0  0  0  0  0
   -1.7862   -1.1823    0.0000 C   0  0  0  0  0  0  0  0  0  0  0  0
    0.3572    0.0552    0.0000 C   0  0  0  0  0  0  0  0  0  0  0  0
    1.0718    0.4677    0.0000 S   0  0  0  0  0  0  0  0  0  0  0  0
    1.7862    0.0552    0.0000 N   0  0  0  0  0  0  0  0  0  0  0  0
    1.7862   -0.7698    0.0000 Cl  0  0  0  0  0  0  0  0  0  0  0  0
    0.6591    1.1823    0.0000 O   0  0  0  0  0  0  0  0  0  0  0  0
    1.4843    1.1823    0.0000 O   0  0  0  0  0  0  0  0  0  0  0  0
    1.2509   -1.2858    0.0000 H   0  0  0  0  0  0  0  0  0  0  0  0
   -0.3571    1.4997    0.0000 H   0  0  0  0  0  0  0  0  0  0  0  0
   -1.9655    0.5712    0.0000 H   0  0  0  0  0  0  0  0  0  0  0  0
   -0.3571   -2.2143    0.0000 H   0  0  0  0  0  0  0  0  0  0  0  0
   -2.7129   -0.6473    0.0000 H   0  0  0  0  0  0  0  0  0  0  0  0
   -1.7862   -2.2523    0.0000 H   0  0  0  0  0  0  0  0  0  0  0  0
   -2.7128   -1.7173    0.0000 H   0  0  0  0  0  0  0  0  0  0  0  0
    2.6696    0.5652    0.0000 H   0  0  0  0  0  0  0  0  0  0  0  0
  1  7  1  0  0  0  0
  1  4  2  0  0  0  0
  1 13  1  0  0  0  0
  2  3  1  0  0  0  0
  2 14  1  0  0  0  0
  3  5  2  0  0  0  0
  3 15  1  0  0  0  0
  4 16  1  0  0  0  0
  5  4  1  0  0  0  0
  5  6  1  0  0  0  0
  6 17  1  0  0  0  0
  6 18  1  0  0  0  0
  6 19  1  0  0  0  0
  7  2  2  0  0  0  0
  7  8  1  0  0  0  0
  8  9  1  0  0  0  0
  9 10  1  0  0  0  0
  9 20  1  0  0  0  0
 11  8  2  0  0  0  0
 12  8  2  0  0  0  0
M  END
>  <DRUGBANK_ID>
DB14708

>  <COMMON_NAME>
Tosylchloramide

>  <CAS_NUMBER>
144-86-5

>  <UNII>
UF17KA8AC5

>  <SYNONYMS>
N-chloro-p-toluenesulfonamide; N-chlorotoluene-p-sulfonamide

$$$$
