
 OpenBabel10282417072D

 83 88  0  0  1  0  0  0  0  0999 V2000
   -2.9917    1.4573    0.0000 C   0  0  0  0  0  0  0  0  0  0  0  0
   -3.1349    0.6448    0.0000 C   0  0  0  0  0  0  0  0  0  0  0  0
   -2.5029    0.1145    0.0000 O   0  0  0  0  0  0  0  0  0  0  0  0
   -2.6462   -0.6979    0.0000 C   0  0  0  0  0  0  0  0  0  0  0  0
   -2.5029   -1.5104    0.0000 C   0  0  0  0  0  0  0  0  0  0  0  0
   -3.1349   -2.0407    0.0000 C   0  0  0  0  0  0  0  0  0  0  0  0
   -3.9102   -1.7585    0.0000 N   0  0  0  0  0  0  0  0  0  0  0  0
   -4.0534   -0.9461    0.0000 C   0  0  0  0  0  0  0  0  0  0  0  0
   -3.4214   -0.4158    0.0000 C   0  0  0  0  0  0  0  0  0  0  0  0
   -4.5422   -2.2888    0.0000 C   0  0  0  0  0  0  0  0  0  0  0  0
   -5.3174   -2.0067    0.0000 C   0  0  0  0  0  0  0  0  0  0  0  0
   -4.3989   -3.1013    0.0000 C   0  0  0  0  0  0  0  0  0  0  0  0
   -1.8212   -0.6979    0.0000 C   0  0  0  0  0  0  0  0  0  0  0  0
   -1.4087    0.0165    0.0000 C   0  0  0  0  0  0  0  0  0  0  0  0
   -0.5837    0.0165    0.0000 C   0  0  0  0  0  0  0  0  0  0  0  0
   -0.1712   -0.6979    0.0000 C   0  0  0  0  0  0  0  0  0  0  0  0
   -0.5837   -1.4124    0.0000 N   0  0  0  0  0  0  0  0  0  0  0  0
   -1.4087   -1.4124    0.0000 C   0  0  0  0  0  0  0  0  0  0  0  0
    0.6538   -0.6979    0.0000 C   0  0  0  0  0  0  0  0  0  0  0  0
    1.1387   -0.0305    0.0000 C   0  0  0  0  0  0  0  0  0  0  0  0
    1.9233   -0.2854    0.0000 C   0  0  0  0  0  0  0  0  0  0  0  0
    2.6378    0.1271    0.0000 C   0  0  0  0  0  0  0  0  0  0  0  0
    3.3523   -0.2854    0.0000 C   0  0  0  0  0  0  0  0  0  0  0  0
    3.3523   -1.1104    0.0000 C   0  0  0  0  0  0  0  0  0  0  0  0
    2.6378   -1.5229    0.0000 N   0  0  0  0  0  0  0  0  0  0  0  0
    1.9233   -1.1104    0.0000 N   0  0  0  0  0  0  0  0  0  0  0  0
    1.1387   -1.3654    0.0000 C   0  0  0  0  0  0  0  0  0  0  0  0
    2.6378    0.9521    0.0000 N   0  0  0  0  0  0  0  0  0  0  0  0
    1.9233    1.3646    0.0000 C   0  0  0  0  0  0  0  0  0  0  0  0
    1.9233    2.1896    0.0000 C   0  0  0  0  0  0  0  0  0  0  0  0
    2.6378    2.6021    0.0000 N   0  0  0  0  0  0  0  0  0  0  0  0
    3.3523    2.1896    0.0000 C   0  0  0  0  0  0  0  0  0  0  0  0
    3.3523    1.3646    0.0000 C   0  0  0  0  0  0  0  0  0  0  0  0
    2.6378    3.4271    0.0000 C   0  0  0  0  0  0  0  0  0  0  0  0
    3.3523    3.8396    0.0000 O   0  0  0  0  0  0  0  0  0  0  0  0
    1.9233    3.8396    0.0000 O   0  0  0  0  0  0  0  0  0  0  0  0
    1.9233    4.6646    0.0000 C   0  0  2  0  0  0  0  0  0  0  0  0
    1.2559    5.1495    0.0000 C   0  0  0  0  0  0  0  0  0  0  0  0
    1.5108    5.9341    0.0000 C   0  0  0  0  0  0  0  0  0  0  0  0
    2.3358    5.9341    0.0000 O   0  0  0  0  0  0  0  0  0  0  0  0
    2.5908    5.1495    0.0000 C   0  0  0  0  0  0  0  0  0  0  0  0
   -1.9863    1.8233    0.0000 H   0  0  0  0  0  0  0  0  0  0  0  0
   -3.8114    2.1450    0.0000 H   0  0  0  0  0  0  0  0  0  0  0  0
   -2.8060    2.5111    0.0000 H   0  0  0  0  0  0  0  0  0  0  0  0
   -4.1404    0.2788    0.0000 H   0  0  0  0  0  0  0  0  0  0  0  0
   -3.3207   -0.4089    0.0000 H   0  0  0  0  0  0  0  0  0  0  0  0
   -1.4974   -1.8763    0.0000 H   0  0  0  0  0  0  0  0  0  0  0  0
   -2.3171   -2.5641    0.0000 H   0  0  0  0  0  0  0  0  0  0  0  0
   -2.9491   -3.0944    0.0000 H   0  0  0  0  0  0  0  0  0  0  0  0
   -3.9546   -2.7285    0.0000 H   0  0  0  0  0  0  0  0  0  0  0  0
   -5.0589   -0.5801    0.0000 H   0  0  0  0  0  0  0  0  0  0  0  0
   -4.2392    0.1076    0.0000 H   0  0  0  0  0  0  0  0  0  0  0  0
   -3.6072    0.6379    0.0000 H   0  0  0  0  0  0  0  0  0  0  0  0
   -2.6018    0.2720    0.0000 H   0  0  0  0  0  0  0  0  0  0  0  0
   -5.3618   -2.9766    0.0000 H   0  0  0  0  0  0  0  0  0  0  0  0
   -5.5033   -0.9530    0.0000 H   0  0  0  0  0  0  0  0  0  0  0  0
   -6.1370   -2.6945    0.0000 H   0  0  0  0  0  0  0  0  0  0  0  0
   -6.3229   -1.6408    0.0000 H   0  0  0  0  0  0  0  0  0  0  0  0
   -5.2185   -3.7891    0.0000 H   0  0  0  0  0  0  0  0  0  0  0  0
   -3.3934   -3.4672    0.0000 H   0  0  0  0  0  0  0  0  0  0  0  0
   -4.2131   -4.1550    0.0000 H   0  0  0  0  0  0  0  0  0  0  0  0
   -1.9247    0.9102    0.0000 H   0  0  0  0  0  0  0  0  0  0  0  0
   -0.0677    0.9102    0.0000 H   0  0  0  0  0  0  0  0  0  0  0  0
   -1.9247   -2.3061    0.0000 H   0  0  0  0  0  0  0  0  0  0  0  0
    0.8198    0.9510    0.0000 H   0  0  0  0  0  0  0  0  0  0  0  0
    4.2460    0.2306    0.0000 H   0  0  0  0  0  0  0  0  0  0  0  0
    4.2460   -1.6264    0.0000 H   0  0  0  0  0  0  0  0  0  0  0  0
    0.8198   -2.3469    0.0000 H   0  0  0  0  0  0  0  0  0  0  0  0
    0.9967    0.8296    0.0000 H   0  0  0  0  0  0  0  0  0  0  0  0
    0.9967    1.8996    0.0000 H   0  0  0  0  0  0  0  0  0  0  0  0
    0.9967    2.7246    0.0000 H   0  0  0  0  0  0  0  0  0  0  0  0
    1.9233    3.2596    0.0000 H   0  0  0  0  0  0  0  0  0  0  0  0
    4.2789    2.7246    0.0000 H   0  0  0  0  0  0  0  0  0  0  0  0
    4.2789    1.6546    0.0000 H   0  0  0  0  0  0  0  0  0  0  0  0
    4.2789    0.8296    0.0000 H   0  0  0  0  0  0  0  0  0  0  0  0
    3.3523    0.2946    0.0000 H   0  0  0  0  0  0  0  0  0  0  0  0
    0.9699    4.1788    0.0000 H   0  0  0  0  0  0  0  0  0  0  0  0
    0.2383    4.8188    0.0000 H   0  0  0  0  0  0  0  0  0  0  0  0
    0.4993    5.9061    0.0000 H   0  0  0  0  0  0  0  0  0  0  0  0
    0.8819    6.7997    0.0000 H   0  0  0  0  0  0  0  0  0  0  0  0
    1.9966    6.8875    0.0000 H   0  0  0  0  0  0  0  0  0  0  0  0
    3.6084    4.8189    0.0000 H   0  0  0  0  0  0  0  0  0  0  0  0
    2.7582    4.0927    0.0000 H   0  0  0  0  0  0  0  0  0  0  0  0
  1  2  1  0  0  0  0
  1 42  1  0  0  0  0
  1 43  1  0  0  0  0
  1 44  1  0  0  0  0
  2  3  1  0  0  0  0
  2 45  1  0  0  0  0
  2 46  1  0  0  0  0
  3  4  1  0  0  0  0
  4  5  1  0  0  0  0
  4  9  1  0  0  0  0
  4 13  1  0  0  0  0
  5  6  1  0  0  0  0
  5 47  1  0  0  0  0
  5 48  1  0  0  0  0
  6  7  1  0  0  0  0
  6 49  1  0  0  0  0
  6 50  1  0  0  0  0
  7  8  1  0  0  0  0
  7 10  1  0  0  0  0
  8  9  1  0  0  0  0
  8 51  1  0  0  0  0
  8 52  1  0  0  0  0
  9 53  1  0  0  0  0
  9 54  1  0  0  0  0
 10 11  1  0  0  0  0
 10 12  1  0  0  0  0
 10 55  1  0  0  0  0
 11 56  1  0  0  0  0
 11 57  1  0  0  0  0
 11 58  1  0  0  0  0
 12 59  1  0  0  0  0
 12 60  1  0  0  0  0
 12 61  1  0  0  0  0
 13 14  2  0  0  0  0
 13 18  1  0  0  0  0
 14 15  1  0  0  0  0
 14 62  1  0  0  0  0
 15 16  2  0  0  0  0
 15 63  1  0  0  0  0
 16 17  1  0  0  0  0
 16 19  1  0  0  0  0
 17 18  2  0  0  0  0
 18 64  1  0  0  0  0
 19 20  1  0  0  0  0
 19 27  2  0  0  0  0
 20 21  2  0  0  0  0
 20 65  1  0  0  0  0
 21 22  1  0  0  0  0
 21 26  1  0  0  0  0
 22 23  2  0  0  0  0
 22 28  1  0  0  0  0
 23 24  1  0  0  0  0
 23 66  1  0  0  0  0
 24 25  2  0  0  0  0
 24 67  1  0  0  0  0
 25 26  1  0  0  0  0
 26 27  1  0  0  0  0
 27 68  1  0  0  0  0
 28 29  1  0  0  0  0
 28 33  1  0  0  0  0
 29 30  1  0  0  0  0
 29 69  1  0  0  0  0
 29 70  1  0  0  0  0
 30 31  1  0  0  0  0
 30 71  1  0  0  0  0
 30 72  1  0  0  0  0
 31 32  1  0  0  0  0
 31 34  1  0  0  0  0
 32 33  1  0  0  0  0
 32 73  1  0  0  0  0
 32 74  1  0  0  0  0
 33 75  1  0  0  0  0
 33 76  1  0  0  0  0
 34 35  2  0  0  0  0
 34 36  1  0  0  0  0
 37 36  1  0  0  0  0
 37 38  1  0  0  0  0
 37 41  1  0  0  0  0
 37 77  1  1  0  0  0
 38 39  1  0  0  0  0
 38 78  1  0  0  0  0
 38 79  1  0  0  0  0
 39 40  1  0  0  0  0
 39 80  1  0  0  0  0
 39 81  1  0  0  0  0
 40 41  1  0  0  0  0
 41 82  1  0  0  0  0
 41 83  1  0  0  0  0
M  END
>  <DRUGBANK_ID>
DB18064

>  <COMMON_NAME>
Fidrisertib

>  <CAS_NUMBER>
2141955-96-4

>  <UNII>
KF4ZI0CJ7M

>  <SYNONYMS>
(r)-tetrahydrofuran-3-yl 4-(6-(5-(4-ethoxy-1-isopropylpiperidin-4-yl)pyridin-2-yl)pyrrolo(1,2-b)pyridazin-4-yl)piperazine-1-carboxylate; 1-piperazinecarboxylic acid, 4-(6-(5-(4-ethoxy-1-(1-methylethyl)-4-piperidinyl)-2-pyridinyl)pyrrolo(1,2-b)pyridazin-4-yl)-, (3r)-tetrahydro-3-furanyl ester

$$$$
