ZMA
 OpenBabel10282417072D

 40 43  0  0  0  0  0  0  0  0999 V2000
    3.0695    0.8823    0.0000 C   0  0  0  0  0  0  0  0  0  0  0  0
    3.7839    0.4698    0.0000 C   0  0  0  0  0  0  0  0  0  0  0  0
    3.7839   -0.3552    0.0000 C   0  0  0  0  0  0  0  0  0  0  0  0
    4.4984   -0.7677    0.0000 O   0  0  0  0  0  0  0  0  0  0  0  0
    3.0695   -0.7677    0.0000 C   0  0  0  0  0  0  0  0  0  0  0  0
    2.3550   -0.3552    0.0000 C   0  0  0  0  0  0  0  0  0  0  0  0
    2.3550    0.4698    0.0000 C   0  0  0  0  0  0  0  0  0  0  0  0
    1.6405    0.8823    0.0000 C   0  0  0  0  0  0  0  0  0  0  0  0
    0.9260    0.4698    0.0000 C   0  0  0  0  0  0  0  0  0  0  0  0
    0.2116    0.8823    0.0000 N   0  0  0  0  0  0  0  0  0  0  0  0
   -0.5029    0.4698    0.0000 C   0  0  0  0  0  0  0  0  0  0  0  0
   -1.2174    0.8823    0.0000 N   0  0  0  0  0  0  0  0  0  0  0  0
   -0.5029   -0.3552    0.0000 N   0  0  0  0  0  0  0  0  0  0  0  0
   -1.2174   -0.7677    0.0000 C   0  0  0  0  0  0  0  0  0  0  0  0
   -1.2174   -1.5927    0.0000 N   0  0  0  0  0  0  0  0  0  0  0  0
   -1.9318   -0.3552    0.0000 N   0  0  0  0  0  0  0  0  0  0  0  0
   -2.7165   -0.6102    0.0000 N   0  0  0  0  0  0  0  0  0  0  0  0
   -1.9318    0.4698    0.0000 C   0  0  0  0  0  0  0  0  0  0  0  0
   -2.7165    0.7247    0.0000 N   0  0  0  0  0  0  0  0  0  0  0  0
   -3.2014    0.0573    0.0000 C   0  0  0  0  0  0  0  0  0  0  0  0
   -4.0264    0.0573    0.0000 C   0  0  0  0  0  0  0  0  0  0  0  0
   -4.5113    0.7247    0.0000 C   0  0  0  0  0  0  0  0  0  0  0  0
   -5.2959    0.4698    0.0000 C   0  0  0  0  0  0  0  0  0  0  0  0
   -5.2959   -0.3552    0.0000 C   0  0  0  0  0  0  0  0  0  0  0  0
   -4.5113   -0.6102    0.0000 O   0  0  0  0  0  0  0  0  0  0  0  0
    3.0695    1.9143    0.0000 H   0  0  0  0  0  0  0  0  0  0  0  0
    4.6776    0.9858    0.0000 H   0  0  0  0  0  0  0  0  0  0  0  0
    4.4984   -1.7047    0.0000 H   0  0  0  0  0  0  0  0  0  0  0  0
    3.0695   -1.7997    0.0000 H   0  0  0  0  0  0  0  0  0  0  0  0
    1.4613   -0.8712    0.0000 H   0  0  0  0  0  0  0  0  0  0  0  0
    1.6405    1.9523    0.0000 H   0  0  0  0  0  0  0  0  0  0  0  0
    0.7139    1.4173    0.0000 H   0  0  0  0  0  0  0  0  0  0  0  0
    0.9260   -0.6002    0.0000 H   0  0  0  0  0  0  0  0  0  0  0  0
   -0.0007   -0.0652    0.0000 H   0  0  0  0  0  0  0  0  0  0  0  0
    0.2116    1.8668    0.0000 H   0  0  0  0  0  0  0  0  0  0  0  0
   -2.0700   -2.0850    0.0000 H   0  0  0  0  0  0  0  0  0  0  0  0
   -0.3648   -2.0850    0.0000 H   0  0  0  0  0  0  0  0  0  0  0  0
   -4.1924    1.7062    0.0000 H   0  0  0  0  0  0  0  0  0  0  0  0
   -6.1308    1.0764    0.0000 H   0  0  0  0  0  0  0  0  0  0  0  0
   -6.1308   -0.9618    0.0000 H   0  0  0  0  0  0  0  0  0  0  0  0
  1  2  1  0  0  0  0
  1 26  1  0  0  0  0
  2  3  2  0  0  0  0
  2 27  1  0  0  0  0
  3  4  1  0  0  0  0
  4 28  1  0  0  0  0
  5  3  1  0  0  0  0
  5 29  1  0  0  0  0
  6  5  2  0  0  0  0
  6 30  1  0  0  0  0
  7  1  2  0  0  0  0
  7  6  1  0  0  0  0
  8  7  1  0  0  0  0
  8 31  1  0  0  0  0
  8 32  1  0  0  0  0
  9  8  1  0  0  0  0
  9 33  1  0  0  0  0
  9 34  1  0  0  0  0
 10  9  1  0  0  0  0
 10 35  1  0  0  0  0
 11 10  1  0  0  0  0
 11 13  1  0  0  0  0
 12 11  2  0  0  0  0
 14 13  2  0  0  0  0
 14 15  1  0  0  0  0
 15 36  1  0  0  0  0
 15 37  1  0  0  0  0
 16 14  1  0  0  0  0
 17 16  1  0  0  0  0
 18 12  1  0  0  0  0
 18 16  1  0  0  0  0
 19 18  2  0  0  0  0
 20 17  2  0  0  0  0
 20 19  1  0  0  0  0
 21 20  1  0  0  0  0
 22 21  2  0  0  0  0
 22 38  1  0  0  0  0
 23 22  1  0  0  0  0
 23 24  2  0  0  0  0
 23 39  1  0  0  0  0
 24 25  1  0  0  0  0
 24 40  1  0  0  0  0
 25 21  1  0  0  0  0
M  END
>  <DRUGBANK_ID>
DB08770

>  <COMMON_NAME>
4-{2-[(7-amino-2-furan-2-yl[1,2,4]triazolo[1,5-a][1,3,5]triazin-5-yl)amino]ethyl}phenol

>  <UNII>
5NIC36BO71

$$$$
