
 OpenBabel10282417072D

 57 59  0  0  1  0  0  0  0  0999 V2000
   11.3948    0.1634    0.0000 O   0  0  0  0  0  0  0  0  0  0  0  0
    9.2379   -0.2205    0.0000 O   0  0  0  0  0  0  0  0  0  0  0  0
    4.9509   -1.0455    0.0000 O   0  0  0  0  0  0  0  0  0  0  0  0
    2.0930   -0.2205    0.0000 O   0  0  0  0  0  0  0  0  0  0  0  0
    2.8075    1.0170    0.0000 O   0  0  0  0  0  0  0  0  0  0  0  0
    2.0930   -2.6956    0.0000 O   0  0  0  0  0  0  0  0  0  0  0  0
    3.5220   -2.6956    0.0000 O   0  0  0  0  0  0  0  0  0  0  0  0
    9.9524    1.0170    0.0000 N   0  0  0  0  0  0  0  0  0  0  0  0
    9.9524    2.6670    0.0000 N   0  0  0  0  0  0  0  0  0  0  0  0
    7.8089    1.4295    0.0000 N   0  0  0  0  0  0  0  0  0  0  0  0
   11.4044    2.6957    0.0000 N   0  0  0  0  0  0  0  0  0  0  0  0
   12.1519    1.4123    0.0000 N   0  0  0  0  0  0  0  0  0  0  0  0
    4.2365    0.1920    0.0000 N   0  0  0  0  0  0  0  0  0  0  0  0
   12.8648    2.6869    0.0000 N   0  0  0  0  0  0  0  0  0  0  0  0
    9.2379    1.4295    0.0000 C   0  0  2  0  0  0  0  0  0  0  0  0
    9.2379    2.2545    0.0000 C   0  0  0  0  0  0  0  0  0  0  0  0
    8.5234    1.0170    0.0000 C   0  0  0  0  0  0  0  0  0  0  0  0
   10.6668    1.4295    0.0000 C   0  0  0  0  0  0  0  0  0  0  0  0
   10.6668    2.2545    0.0000 C   0  0  0  0  0  0  0  0  0  0  0  0
   11.4044    0.9884    0.0000 C   0  0  0  0  0  0  0  0  0  0  0  0
    9.9524    0.1920    0.0000 C   0  0  0  0  0  0  0  0  0  0  0  0
    7.0944    1.0170    0.0000 C   0  0  0  0  0  0  0  0  0  0  0  0
   12.1519    2.2717    0.0000 C   0  0  0  0  0  0  0  0  0  0  0  0
    6.3799    1.4295    0.0000 C   0  0  0  0  0  0  0  0  0  0  0  0
    7.0944    0.1920    0.0000 C   0  0  0  0  0  0  0  0  0  0  0  0
    3.5220   -0.2205    0.0000 C   0  0  1  0  0  0  0  0  0  0  0  0
    3.5220   -1.0455    0.0000 C   0  0  0  0  0  0  0  0  0  0  0  0
    5.6655    0.1920    0.0000 C   0  0  0  0  0  0  0  0  0  0  0  0
    5.6655    1.0170    0.0000 C   0  0  0  0  0  0  0  0  0  0  0  0
    6.3799   -0.2205    0.0000 C   0  0  0  0  0  0  0  0  0  0  0  0
    4.9509   -0.2205    0.0000 C   0  0  0  0  0  0  0  0  0  0  0  0
    2.8075   -1.4581    0.0000 C   0  0  0  0  0  0  0  0  0  0  0  0
    2.8075    0.1920    0.0000 C   0  0  0  0  0  0  0  0  0  0  0  0
    2.8075   -2.2831    0.0000 C   0  0  0  0  0  0  0  0  0  0  0  0
    1.2815    0.2480    0.0000 H   0  0  0  0  0  0  0  0  0  0  0  0
    1.2815   -2.2271    0.0000 H   0  0  0  0  0  0  0  0  0  0  0  0
    9.9524    3.6515    0.0000 H   0  0  0  0  0  0  0  0  0  0  0  0
    7.8089    2.4140    0.0000 H   0  0  0  0  0  0  0  0  0  0  0  0
   11.3930    3.6801    0.0000 H   0  0  0  0  0  0  0  0  0  0  0  0
    4.2365    1.1765    0.0000 H   0  0  0  0  0  0  0  0  0  0  0  0
   13.7193    2.1979    0.0000 H   0  0  0  0  0  0  0  0  0  0  0  0
   12.8611    3.6714    0.0000 H   0  0  0  0  0  0  0  0  0  0  0  0
    9.2379    0.3595    0.0000 H   0  0  0  0  0  0  0  0  0  0  0  0
    8.3113    2.7895    0.0000 H   0  0  0  0  0  0  0  0  0  0  0  0
    8.3113    1.7195    0.0000 H   0  0  0  0  0  0  0  0  0  0  0  0
    8.5234   -0.0530    0.0000 H   0  0  0  0  0  0  0  0  0  0  0  0
    9.4500    0.4820    0.0000 H   0  0  0  0  0  0  0  0  0  0  0  0
   10.8461   -0.3240    0.0000 H   0  0  0  0  0  0  0  0  0  0  0  0
    6.3799    2.4615    0.0000 H   0  0  0  0  0  0  0  0  0  0  0  0
    7.9881   -0.3240    0.0000 H   0  0  0  0  0  0  0  0  0  0  0  0
    4.4486   -0.7555    0.0000 H   0  0  0  0  0  0  0  0  0  0  0  0
    4.4487   -1.5805    0.0000 H   0  0  0  0  0  0  0  0  0  0  0  0
    3.5221   -2.1155    0.0000 H   0  0  0  0  0  0  0  0  0  0  0  0
    4.7718    1.5330    0.0000 H   0  0  0  0  0  0  0  0  0  0  0  0
    6.3799   -1.2525    0.0000 H   0  0  0  0  0  0  0  0  0  0  0  0
    1.8808   -0.9231    0.0000 H   0  0  0  0  0  0  0  0  0  0  0  0
    1.8809   -1.9931    0.0000 H   0  0  0  0  0  0  0  0  0  0  0  0
  1 20  2  0  0  0  0
  2 21  2  0  0  0  0
  3 31  2  0  0  0  0
  4 33  1  0  0  0  0
  4 35  1  0  0  0  0
  5 33  2  0  0  0  0
  6 34  1  0  0  0  0
  6 36  1  0  0  0  0
  7 34  2  0  0  0  0
  8 15  1  0  0  0  0
  8 18  1  0  0  0  0
  8 21  1  0  0  0  0
  9 16  1  0  0  0  0
  9 19  1  0  0  0  0
  9 37  1  0  0  0  0
 10 17  1  0  0  0  0
 10 22  1  0  0  0  0
 10 38  1  0  0  0  0
 11 19  1  0  0  0  0
 11 23  1  0  0  0  0
 11 39  1  0  0  0  0
 12 20  1  0  0  0  0
 12 23  2  0  0  0  0
 13 31  1  0  0  0  0
 13 40  1  0  0  0  0
 14 23  1  0  0  0  0
 14 41  1  0  0  0  0
 14 42  1  0  0  0  0
 15 16  1  0  0  0  0
 15 17  1  0  0  0  0
 15 43  1  6  0  0  0
 16 44  1  0  0  0  0
 16 45  1  0  0  0  0
 17 46  1  0  0  0  0
 17 47  1  0  0  0  0
 18 19  2  0  0  0  0
 18 20  1  0  0  0  0
 21 48  1  0  0  0  0
 22 24  2  0  0  0  0
 22 25  1  0  0  0  0
 24 29  1  0  0  0  0
 24 49  1  0  0  0  0
 25 30  2  0  0  0  0
 25 50  1  0  0  0  0
 26 13  1  0  0  0  0
 26 27  1  0  0  0  0
 26 33  1  0  0  0  0
 26 51  1  6  0  0  0
 27 32  1  0  0  0  0
 27 52  1  0  0  0  0
 27 53  1  0  0  0  0
 28 29  2  0  0  0  0
 28 30  1  0  0  0  0
 28 31  1  0  0  0  0
 29 54  1  0  0  0  0
 30 55  1  0  0  0  0
 32 34  1  0  0  0  0
 32 56  1  0  0  0  0
 32 57  1  0  0  0  0
M  END
>  <DRUGBANK_ID>
DB11596

>  <COMMON_NAME>
Levoleucovorin

>  <CAS_NUMBER>
68538-85-2

>  <UNII>
990S25980Y

>  <SYNONYMS>
(6S)-5-Formyl-5,6,7,8-tetrahydrofolic acid; (6S)-5-formyltetrahydrofolic acid; (6S)-Folinic acid; (6S)-Leucovorin; (S)-Leucovorin; ácido levofolínico; Citrovorum factor; L-Folinic acid; Levofolene; Levofolinic acid; N-[4-({[(6S)-2-amino-5-formyl-4-oxo-1,4,5,6,7,8-hexahydropteridin-6-yl]methyl}amino)benzoyl]-L-glutamic acid

$$$$
