
 OpenBabel10282417072D

 53 56  0  0  1  0  0  0  0  0999 V2000
   -0.7144   -3.0937    0.0000 O   0  0  0  0  0  0  0  0  0  0  0  0
   -0.7144   -2.2687    0.0000 C   0  0  0  0  0  0  0  0  0  0  0  0
   -1.4289   -1.8562    0.0000 C   0  0  0  0  0  0  0  0  0  0  0  0
   -1.4289   -1.0312    0.0000 C   0  0  0  0  0  0  0  0  0  0  0  0
   -2.1434   -0.6187    0.0000 C   0  0  0  0  0  0  0  0  0  0  0  0
   -2.1434    0.2062    0.0000 N   0  0  0  0  0  0  0  0  0  0  0  0
   -1.4289    0.6187    0.0000 C   0  0  0  0  0  0  0  0  0  0  0  0
   -1.4289    1.4437    0.0000 C   0  0  0  0  0  0  0  0  0  0  0  0
   -0.7144    1.8562    0.0000 C   0  0  0  0  0  0  0  0  0  0  0  0
    0.0000    1.4437    0.0000 C   0  0  0  0  0  0  0  0  0  0  0  0
    0.7144    1.8562    0.0000 C   0  0  0  0  0  0  0  0  0  0  0  0
    0.7144    2.6812    0.0000 O   0  0  0  0  0  0  0  0  0  0  0  0
    1.4289    3.0937    0.0000 C   0  0  0  0  0  0  0  0  0  0  0  0
    1.4289    1.4437    0.0000 C   0  0  0  0  0  0  0  0  0  0  0  0
    1.4289    0.6187    0.0000 C   0  0  0  0  0  0  0  0  0  0  0  0
    0.7144    0.2062    0.0000 C   0  0  0  0  0  0  0  0  0  0  0  0
    0.0000    0.6187    0.0000 C   0  0  0  0  0  0  0  0  0  0  0  0
   -0.7144    0.2062    0.0000 C   0  0  0  0  0  0  0  0  0  0  0  0
   -0.7144   -0.6187    0.0000 N   0  0  0  0  0  0  0  0  0  0  0  0
   -2.8578   -1.0312    0.0000 C   0  0  0  0  0  0  0  0  0  0  0  0
   -2.8578   -1.8562    0.0000 C   0  0  0  0  0  0  0  0  0  0  0  0
   -2.1434   -2.2687    0.0000 C   0  0  0  0  0  0  0  0  0  0  0  0
    0.0000   -1.8562    0.0000 N   0  0  0  0  0  0  0  0  0  0  0  0
    0.7144   -2.2687    0.0000 C   0  0  2  0  0  0  0  0  0  0  0  0
    0.7144   -3.0937    0.0000 C   0  0  0  0  0  0  0  0  0  0  0  0
    1.4289   -1.8562    0.0000 C   0  0  0  0  0  0  0  0  0  0  0  0
    2.1434   -2.2687    0.0000 N   0  0  0  0  0  0  0  0  0  0  0  0
    2.8578   -1.8562    0.0000 C   0  0  0  0  0  0  0  0  0  0  0  0
    2.1434   -3.0937    0.0000 C   0  0  0  0  0  0  0  0  0  0  0  0
   -2.3226    1.9597    0.0000 H   0  0  0  0  0  0  0  0  0  0  0  0
   -0.7144    2.8882    0.0000 H   0  0  0  0  0  0  0  0  0  0  0  0
    2.3555    2.5587    0.0000 H   0  0  0  0  0  0  0  0  0  0  0  0
    1.4289    4.1637    0.0000 H   0  0  0  0  0  0  0  0  0  0  0  0
    2.3556    3.6287    0.0000 H   0  0  0  0  0  0  0  0  0  0  0  0
    2.3226    1.9597    0.0000 H   0  0  0  0  0  0  0  0  0  0  0  0
    2.3226    0.1027    0.0000 H   0  0  0  0  0  0  0  0  0  0  0  0
    0.7144   -0.8258    0.0000 H   0  0  0  0  0  0  0  0  0  0  0  0
   -3.7515   -0.5152    0.0000 H   0  0  0  0  0  0  0  0  0  0  0  0
   -3.7515   -2.3722    0.0000 H   0  0  0  0  0  0  0  0  0  0  0  0
   -2.1434   -3.3007    0.0000 H   0  0  0  0  0  0  0  0  0  0  0  0
    0.0000   -0.8717    0.0000 H   0  0  0  0  0  0  0  0  0  0  0  0
   -0.2123   -2.8037    0.0000 H   0  0  0  0  0  0  0  0  0  0  0  0
   -0.2122   -3.6287    0.0000 H   0  0  0  0  0  0  0  0  0  0  0  0
    1.6410   -3.6287    0.0000 H   0  0  0  0  0  0  0  0  0  0  0  0
    0.7144   -4.1637    0.0000 H   0  0  0  0  0  0  0  0  0  0  0  0
    1.4289   -0.7862    0.0000 H   0  0  0  0  0  0  0  0  0  0  0  0
    2.3555   -1.3212    0.0000 H   0  0  0  0  0  0  0  0  0  0  0  0
    3.7845   -2.3912    0.0000 H   0  0  0  0  0  0  0  0  0  0  0  0
    2.8578   -0.7862    0.0000 H   0  0  0  0  0  0  0  0  0  0  0  0
    3.7844   -1.3212    0.0000 H   0  0  0  0  0  0  0  0  0  0  0  0
    1.2168   -3.6287    0.0000 H   0  0  0  0  0  0  0  0  0  0  0  0
    3.0700   -3.6287    0.0000 H   0  0  0  0  0  0  0  0  0  0  0  0
    2.1434   -4.1637    0.0000 H   0  0  0  0  0  0  0  0  0  0  0  0
  1  2  2  0  0  0  0
  2  3  1  0  0  0  0
  2 23  1  0  0  0  0
  3  4  2  0  0  0  0
  3 22  1  0  0  0  0
  4  5  1  0  0  0  0
  4 19  1  0  0  0  0
  5  6  1  0  0  0  0
  5 20  2  0  0  0  0
  6  7  2  0  0  0  0
  7  8  1  0  0  0  0
  7 18  1  0  0  0  0
  8  9  2  0  0  0  0
  8 30  1  0  0  0  0
  9 10  1  0  0  0  0
  9 31  1  0  0  0  0
 10 11  2  0  0  0  0
 10 17  1  0  0  0  0
 11 12  1  0  0  0  0
 11 14  1  0  0  0  0
 12 13  1  0  0  0  0
 13 32  1  0  0  0  0
 13 33  1  0  0  0  0
 13 34  1  0  0  0  0
 14 15  2  0  0  0  0
 14 35  1  0  0  0  0
 15 16  1  0  0  0  0
 15 36  1  0  0  0  0
 16 17  2  0  0  0  0
 16 37  1  0  0  0  0
 17 18  1  0  0  0  0
 18 19  2  0  0  0  0
 20 21  1  0  0  0  0
 20 38  1  0  0  0  0
 21 22  2  0  0  0  0
 21 39  1  0  0  0  0
 22 40  1  0  0  0  0
 23 41  1  0  0  0  0
 24 23  1  0  0  0  0
 24 25  1  0  0  0  0
 24 26  1  0  0  0  0
 24 42  1  6  0  0  0
 25 43  1  0  0  0  0
 25 44  1  0  0  0  0
 25 45  1  0  0  0  0
 26 27  1  0  0  0  0
 26 46  1  0  0  0  0
 26 47  1  0  0  0  0
 27 28  1  0  0  0  0
 27 29  1  0  0  0  0
 28 48  1  0  0  0  0
 28 49  1  0  0  0  0
 28 50  1  0  0  0  0
 29 51  1  0  0  0  0
 29 52  1  0  0  0  0
 29 53  1  0  0  0  0
M  END
>  <DRUGBANK_ID>
DB06517

>  <COMMON_NAME>
MLN576

>  <CAS_NUMBER>
346689-77-8

>  <UNII>
Q2L4XU3YX6

$$$$
