
 OpenBabel10282417072D

 59 58  0  0  1  0  0  0  0  0999 V2000
    1.0461   -1.4289    0.0000 C   0  0  0  0  0  0  0  0  0  0  0  0
    1.7605   -1.8414    0.0000 C   0  0  0  0  0  0  0  0  0  0  0  0
    2.4750   -1.4289    0.0000 O   0  0  0  0  0  0  0  0  0  0  0  0
    3.1895   -1.8414    0.0000 C   0  0  0  0  0  0  0  0  0  0  0  0
    3.1895   -2.6664    0.0000 O   0  0  0  0  0  0  0  0  0  0  0  0
    3.9039   -1.4289    0.0000 C   0  0  0  0  0  0  0  0  0  0  0  0
    4.6184   -1.8414    0.0000 C   0  0  0  0  0  0  0  0  0  0  0  0
    5.3329   -1.4289    0.0000 C   0  0  0  0  0  0  0  0  0  0  0  0
    5.3329   -0.6039    0.0000 C   0  0  0  0  0  0  0  0  0  0  0  0
    4.6184   -0.1914    0.0000 C   0  0  0  0  0  0  0  0  0  0  0  0
    3.9039   -0.6039    0.0000 C   0  0  0  0  0  0  0  0  0  0  0  0
    3.1895   -0.1914    0.0000 C   0  0  0  0  0  0  0  0  0  0  0  0
    3.1895    0.6336    0.0000 C   0  0  0  0  0  0  0  0  0  0  0  0
    3.9039    1.0461    0.0000 C   0  0  0  0  0  0  0  0  0  0  0  0
    4.6184    0.6336    0.0000 C   0  0  0  0  0  0  0  0  0  0  0  0
    5.3329    1.0461    0.0000 C   0  0  0  0  0  0  0  0  0  0  0  0
    5.3329    1.8711    0.0000 C   0  0  0  0  0  0  0  0  0  0  0  0
    6.0474    2.2836    0.0000 C   0  0  0  0  0  0  0  0  0  0  0  0
    6.0474    3.1086    0.0000 C   0  0  1  0  0  0  0  0  0  0  0  0
    6.7618    3.5211    0.0000 O   0  0  0  0  0  0  0  0  0  0  0  0
    5.3329    3.5211    0.0000 C   0  0  0  0  0  0  0  0  0  0  0  0
    5.3329    4.3461    0.0000 C   0  0  0  0  0  0  0  0  0  0  0  0
    4.6184    4.7586    0.0000 C   0  0  0  0  0  0  0  0  0  0  0  0
    3.9039    4.3461    0.0000 C   0  0  0  0  0  0  0  0  0  0  0  0
    3.1895    4.7586    0.0000 C   0  0  0  0  0  0  0  0  0  0  0  0
    1.0461   -0.3589    0.0000 H   0  0  0  0  0  0  0  0  0  0  0  0
    0.1194   -1.9639    0.0000 H   0  0  0  0  0  0  0  0  0  0  0  0
    0.1195   -0.8939    0.0000 H   0  0  0  0  0  0  0  0  0  0  0  0
    1.7605   -2.9114    0.0000 H   0  0  0  0  0  0  0  0  0  0  0  0
    2.6871   -2.3764    0.0000 H   0  0  0  0  0  0  0  0  0  0  0  0
    3.9039   -0.3589    0.0000 H   0  0  0  0  0  0  0  0  0  0  0  0
    4.8305   -0.8939    0.0000 H   0  0  0  0  0  0  0  0  0  0  0  0
    4.6184   -2.9114    0.0000 H   0  0  0  0  0  0  0  0  0  0  0  0
    5.5450   -2.3764    0.0000 H   0  0  0  0  0  0  0  0  0  0  0  0
    6.2595   -1.9639    0.0000 H   0  0  0  0  0  0  0  0  0  0  0  0
    6.2595   -0.8939    0.0000 H   0  0  0  0  0  0  0  0  0  0  0  0
    6.2266   -0.0879    0.0000 H   0  0  0  0  0  0  0  0  0  0  0  0
    4.6184    0.8406    0.0000 H   0  0  0  0  0  0  0  0  0  0  0  0
    3.9039   -1.6739    0.0000 H   0  0  0  0  0  0  0  0  0  0  0  0
    2.9772   -1.1389    0.0000 H   0  0  0  0  0  0  0  0  0  0  0  0
    2.2958   -0.7074    0.0000 H   0  0  0  0  0  0  0  0  0  0  0  0
    2.2958    1.1496    0.0000 H   0  0  0  0  0  0  0  0  0  0  0  0
    3.9039    2.1161    0.0000 H   0  0  0  0  0  0  0  0  0  0  0  0
    4.8305    1.5811    0.0000 H   0  0  0  0  0  0  0  0  0  0  0  0
    4.6184   -0.3984    0.0000 H   0  0  0  0  0  0  0  0  0  0  0  0
    6.2266    0.5301    0.0000 H   0  0  0  0  0  0  0  0  0  0  0  0
    4.4392    2.3871    0.0000 H   0  0  0  0  0  0  0  0  0  0  0  0
    6.9411    1.7676    0.0000 H   0  0  0  0  0  0  0  0  0  0  0  0
    6.9741    2.5736    0.0000 H   0  0  0  0  0  0  0  0  0  0  0  0
    7.6019    3.0361    0.0000 H   0  0  0  0  0  0  0  0  0  0  0  0
    4.4063    2.9861    0.0000 H   0  0  0  0  0  0  0  0  0  0  0  0
    4.4063    4.0561    0.0000 H   0  0  0  0  0  0  0  0  0  0  0  0
    6.2266    4.8621    0.0000 H   0  0  0  0  0  0  0  0  0  0  0  0
    4.6184    5.7906    0.0000 H   0  0  0  0  0  0  0  0  0  0  0  0
    3.9039    3.2761    0.0000 H   0  0  0  0  0  0  0  0  0  0  0  0
    2.9772    3.8111    0.0000 H   0  0  0  0  0  0  0  0  0  0  0  0
    3.1895    5.8286    0.0000 H   0  0  0  0  0  0  0  0  0  0  0  0
    2.2628    4.2236    0.0000 H   0  0  0  0  0  0  0  0  0  0  0  0
    2.2629    5.2936    0.0000 H   0  0  0  0  0  0  0  0  0  0  0  0
  1  2  1  0  0  0  0
  1 26  1  0  0  0  0
  1 27  1  0  0  0  0
  1 28  1  0  0  0  0
  2  3  1  0  0  0  0
  2 29  1  0  0  0  0
  2 30  1  0  0  0  0
  3  4  1  0  0  0  0
  4  5  2  0  0  0  0
  4  6  1  0  0  0  0
  6  7  1  0  0  0  0
  6 31  1  0  0  0  0
  6 32  1  0  0  0  0
  7  8  1  0  0  0  0
  7 33  1  0  0  0  0
  7 34  1  0  0  0  0
  8  9  1  0  0  0  0
  8 35  1  0  0  0  0
  8 36  1  0  0  0  0
  9 10  2  0  0  0  0
  9 37  1  0  0  0  0
 10 11  1  0  0  0  0
 10 38  1  0  0  0  0
 11 12  1  0  0  0  0
 11 39  1  0  0  0  0
 11 40  1  0  0  0  0
 12 13  2  0  0  0  0
 12 41  1  0  0  0  0
 13 14  1  0  0  0  0
 13 42  1  0  0  0  0
 14 15  1  0  0  0  0
 14 43  1  0  0  0  0
 14 44  1  0  0  0  0
 15 16  2  0  0  0  0
 15 45  1  0  0  0  0
 16 17  1  0  0  0  0
 16 46  1  0  0  0  0
 17 18  2  0  0  0  0
 17 47  1  0  0  0  0
 18 48  1  0  0  0  0
 19 18  1  0  0  0  0
 19 20  1  0  0  0  0
 19 21  1  0  0  0  0
 19 49  1  1  0  0  0
 20 50  1  0  0  0  0
 21 22  1  0  0  0  0
 21 51  1  0  0  0  0
 21 52  1  0  0  0  0
 22 23  2  0  0  0  0
 22 53  1  0  0  0  0
 23 24  1  0  0  0  0
 23 54  1  0  0  0  0
 24 25  1  0  0  0  0
 24 55  1  0  0  0  0
 24 56  1  0  0  0  0
 25 57  1  0  0  0  0
 25 58  1  0  0  0  0
 25 59  1  0  0  0  0
M  END
>  <DRUGBANK_ID>
DB18100

>  <COMMON_NAME>
Epeleuton

>  <CAS_NUMBER>
1667760-39-5

>  <UNII>
FA9BPX1T6V

>  <SYNONYMS>
15(s)-hydroxy-(5z,8z,11z,13e,17z)-eicosapentaenoic acid ethyl ester; 5,8,11,13,17-eicosapentaenoic acid, 15-hydroxy-, ethyl ester, (5z,8z,11z,13e,15s,17z)-

$$$$
