
 OpenBabel10282417072D

 19 20  0  0  0  0  0  0  0  0999 V2000
    0.0000    0.0000    0.0000 N   0  0  0  0  0  0  0  0  0  0  0  0
    0.7145   -0.4125    0.0000 C   0  0  0  0  0  0  0  0  0  0  0  0
    1.4289    0.0000    0.0000 N   0  0  0  0  0  0  0  0  0  0  0  0
    2.1434   -0.4125    0.0000 C   0  0  0  0  0  0  0  0  0  0  0  0
    2.8579    0.0000    0.0000 C   0  0  0  0  0  0  0  0  0  0  0  0
    3.5724   -0.4125    0.0000 C   0  0  0  0  0  0  0  0  0  0  0  0
    3.5724   -1.2375    0.0000 C   0  0  0  0  0  0  0  0  0  0  0  0
    2.8579   -1.6500    0.0000 C   0  0  0  0  0  0  0  0  0  0  0  0
    2.1434   -1.2375    0.0000 C   0  0  0  0  0  0  0  0  0  0  0  0
    1.4289   -1.6500    0.0000 C   0  0  0  0  0  0  0  0  0  0  0  0
    1.4289   -2.4750    0.0000 O   0  0  0  0  0  0  0  0  0  0  0  0
    0.7145   -1.2375    0.0000 N   0  0  0  0  0  0  0  0  0  0  0  0
   -0.0000    0.9845    0.0000 H   0  0  0  0  0  0  0  0  0  0  0  0
   -0.8526   -0.4923    0.0000 H   0  0  0  0  0  0  0  0  0  0  0  0
    2.8579    1.0320    0.0000 H   0  0  0  0  0  0  0  0  0  0  0  0
    4.4661    0.1035    0.0000 H   0  0  0  0  0  0  0  0  0  0  0  0
    4.4661   -1.7535    0.0000 H   0  0  0  0  0  0  0  0  0  0  0  0
    2.8579   -2.6820    0.0000 H   0  0  0  0  0  0  0  0  0  0  0  0
   -0.1381   -1.7297    0.0000 H   0  0  0  0  0  0  0  0  0  0  0  0
  1  2  1  0  0  0  0
  1 13  1  0  0  0  0
  1 14  1  0  0  0  0
  2  3  2  0  0  0  0
  2 12  1  0  0  0  0
  3  4  1  0  0  0  0
  4  5  2  0  0  0  0
  4  9  1  0  0  0  0
  5  6  1  0  0  0  0
  5 15  1  0  0  0  0
  6  7  2  0  0  0  0
  6 16  1  0  0  0  0
  7  8  1  0  0  0  0
  7 17  1  0  0  0  0
  8  9  2  0  0  0  0
  8 18  1  0  0  0  0
  9 10  1  0  0  0  0
 10 11  2  0  0  0  0
 10 12  1  0  0  0  0
 12 19  1  0  0  0  0
M  END
>  <DRUGBANK_ID>
DB03780

>  <SECONDARY_ACCESSION_NUMBERS>
EXPT00551

>  <COMMON_NAME>
2-Aminoquinazolin-4(3h)-One

$$$$
