D8G
 OpenBabel10282417072D

 37 40  0  0  0  0  0  0  0  0999 V2000
   -0.4748    1.3694    0.0000 O   0  0  0  0  0  0  0  0  0  0  0  0
   -0.2353    0.5799    0.0000 C   0  0  0  0  0  0  0  0  0  0  0  0
    0.5681    0.3925    0.0000 C   0  0  0  0  0  0  0  0  0  0  0  0
    1.2450    0.8642    0.0000 N   0  0  0  0  0  0  0  0  0  0  0  0
    1.2612    1.6890    0.0000 C   0  0  0  0  0  0  0  0  0  0  0  0
    1.9027    0.3662    0.0000 C   0  0  0  0  0  0  0  0  0  0  0  0
    2.7275    0.3499    0.0000 C   0  0  0  0  0  0  0  0  0  0  0  0
    2.9670   -0.4396    0.0000 C   0  0  0  0  0  0  0  0  0  0  0  0
    3.7464   -0.7099    0.0000 C   0  0  0  0  0  0  0  0  0  0  0  0
    2.2901   -0.9113    0.0000 S   0  0  0  0  0  0  0  0  0  0  0  0
    1.6324   -0.4133    0.0000 C   0  0  0  0  0  0  0  0  0  0  0  0
    0.8075   -0.3970    0.0000 C   0  0  0  0  0  0  0  0  0  0  0  0
    0.2435   -0.9991    0.0000 C   0  0  0  0  0  0  0  0  0  0  0  0
   -0.5599   -0.8117    0.0000 N   0  0  0  0  0  0  0  0  0  0  0  0
   -0.7994   -0.0222    0.0000 N   0  0  0  0  0  0  0  0  0  0  0  0
   -1.6028    0.1652    0.0000 C   0  0  0  0  0  0  0  0  0  0  0  0
   -2.1668   -0.4369    0.0000 C   0  0  0  0  0  0  0  0  0  0  0  0
   -2.9702   -0.2495    0.0000 C   0  0  0  0  0  0  0  0  0  0  0  0
   -3.5342   -0.8516    0.0000 C   0  0  0  0  0  0  0  0  0  0  0  0
   -3.2948   -1.6411    0.0000 C   0  0  0  0  0  0  0  0  0  0  0  0
   -2.4914   -1.8285    0.0000 C   0  0  0  0  0  0  0  0  0  0  0  0
   -1.9274   -1.2264    0.0000 C   0  0  0  0  0  0  0  0  0  0  0  0
   -1.1239   -1.4138    0.0000 F   0  0  0  0  0  0  0  0  0  0  0  0
    2.1982    2.2057    0.0000 H   0  0  0  0  0  0  0  0  0  0  0  0
    0.3452    2.2421    0.0000 H   0  0  0  0  0  0  0  0  0  0  0  0
    1.2822    2.7588    0.0000 H   0  0  0  0  0  0  0  0  0  0  0  0
    3.3504    1.1727    0.0000 H   0  0  0  0  0  0  0  0  0  0  0  0
    3.9482   -1.7607    0.0000 H   0  0  0  0  0  0  0  0  0  0  0  0
    4.5555   -0.0097    0.0000 H   0  0  0  0  0  0  0  0  0  0  0  0
    4.7573   -1.0605    0.0000 H   0  0  0  0  0  0  0  0  0  0  0  0
    0.5430   -1.9867    0.0000 H   0  0  0  0  0  0  0  0  0  0  0  0
   -1.9133    1.1891    0.0000 H   0  0  0  0  0  0  0  0  0  0  0  0
   -2.6448    0.4082    0.0000 H   0  0  0  0  0  0  0  0  0  0  0  0
   -3.2697    0.7381    0.0000 H   0  0  0  0  0  0  0  0  0  0  0  0
   -4.5392   -0.6172    0.0000 H   0  0  0  0  0  0  0  0  0  0  0  0
   -4.0003   -2.3943    0.0000 H   0  0  0  0  0  0  0  0  0  0  0  0
   -2.1919   -2.8161    0.0000 H   0  0  0  0  0  0  0  0  0  0  0  0
  2  1  2  0  0  0  0
  2  3  1  0  0  0  0
  3  4  1  0  0  0  0
  4  5  1  0  0  0  0
  5 24  1  0  0  0  0
  5 25  1  0  0  0  0
  5 26  1  0  0  0  0
  6  4  1  0  0  0  0
  6  7  1  0  0  0  0
  7 27  1  0  0  0  0
  8  7  2  0  0  0  0
  8  9  1  0  0  0  0
  9 28  1  0  0  0  0
  9 29  1  0  0  0  0
  9 30  1  0  0  0  0
 10  8  1  0  0  0  0
 10 11  1  0  0  0  0
 11  6  2  0  0  0  0
 12  3  2  0  0  0  0
 12 11  1  0  0  0  0
 13 12  1  0  0  0  0
 13 31  1  0  0  0  0
 14 13  2  0  0  0  0
 14 15  1  0  0  0  0
 15  2  1  0  0  0  0
 16 15  1  0  0  0  0
 16 32  1  0  0  0  0
 16 33  1  0  0  0  0
 17 16  1  0  0  0  0
 17 22  1  0  0  0  0
 18 17  2  0  0  0  0
 18 34  1  0  0  0  0
 19 18  1  0  0  0  0
 19 20  2  0  0  0  0
 19 35  1  0  0  0  0
 20 21  1  0  0  0  0
 20 36  1  0  0  0  0
 21 22  2  0  0  0  0
 21 37  1  0  0  0  0
 22 23  1  0  0  0  0
M  END
>  <DRUGBANK_ID>
DB07628

>  <COMMON_NAME>
6-(2-fluorobenzyl)-2,4-dimethyl-4,6-dihydro-5H-thieno[2',3':4,5]pyrrolo[2,3-d]pyridazin-5-one

$$$$
