
 OpenBabel10282417072D

 21 20  0  0  1  0  0  0  0  0999 V2000
    2.2539    0.0000    0.0000 C   0  0  0  0  0  0  0  0  0  0  0  0
    1.5395    0.4125    0.0000 C   0  0  1  0  0  0  0  0  0  0  0  0
    2.9684    0.4125    0.0000 C   0  0  1  0  0  0  0  0  0  0  0  0
    0.8250    0.0000    0.0000 C   0  0  2  0  0  0  0  0  0  0  0  0
    3.6829   -0.0000    0.0000 C   0  0  0  0  0  0  0  0  0  0  0  0
    0.1105    0.4125    0.0000 C   0  0  0  0  0  0  0  0  0  0  0  0
    1.5395    1.2375    0.0000 O   0  0  0  0  0  0  0  0  0  0  0  0
    2.9684    1.2375    0.0000 O   0  0  0  0  0  0  0  0  0  0  0  0
    0.8250   -0.8250    0.0000 O   0  0  0  0  0  0  0  0  0  0  0  0
    4.3974    0.4125    0.0000 O   0  0  0  0  0  0  0  0  0  0  0  0
    3.6829   -0.8250    0.0000 O   0  5  0  0  0  0  0  0  0  0  0  0
   -0.6039    0.0000    0.0000 O   0  0  0  0  0  0  0  0  0  0  0  0
    0.1105    1.2375    0.0000 O   0  5  0  0  0  0  0  0  0  0  0  0
    1.5395   -0.4125    0.0000 H   0  0  0  0  0  0  0  0  0  0  0  0
    2.9684   -0.4125    0.0000 H   0  0  0  0  0  0  0  0  0  0  0  0
    0.8250    0.8250    0.0000 H   0  0  0  0  0  0  0  0  0  0  0  0
    2.2539   -1.0700    0.0000 H   0  0  0  0  0  0  0  0  0  0  0  0
    3.1805   -0.5350    0.0000 H   0  0  0  0  0  0  0  0  0  0  0  0
    2.3795    1.7225    0.0000 H   0  0  0  0  0  0  0  0  0  0  0  0
    3.8084    1.7225    0.0000 H   0  0  0  0  0  0  0  0  0  0  0  0
   -0.0150   -1.3100    0.0000 H   0  0  0  0  0  0  0  0  0  0  0  0
  1 17  1  0  0  0  0
  1 18  1  0  0  0  0
  2  1  1  0  0  0  0
  2  7  1  0  0  0  0
  2 14  1  6  0  0  0
  3  1  1  0  0  0  0
  3  8  1  0  0  0  0
  3 15  1  1  0  0  0
  4  2  1  0  0  0  0
  4  9  1  0  0  0  0
  4 16  1  6  0  0  0
  5  3  1  0  0  0  0
  6  4  1  0  0  0  0
  7 19  1  0  0  0  0
  8 20  1  0  0  0  0
  9 21  1  0  0  0  0
 10  5  2  0  0  0  0
 11  5  1  0  0  0  0
 12  6  2  0  0  0  0
 13  6  1  0  0  0  0
M  CHG  2  11  -1  13  -1
M  END
>  <DRUGBANK_ID>
DB03212

>  <SECONDARY_ACCESSION_NUMBERS>
EXPT01307

>  <COMMON_NAME>
4-Deoxyglucarate

$$$$
