KSL
 OpenBabel10282417072D

 42 45  0  0  0  0  0  0  0  0999 V2000
    1.0284   -0.5579    0.0000 C   0  0  0  0  0  0  0  0  0  0  0  0
    1.0284   -1.3829    0.0000 C   0  0  0  0  0  0  0  0  0  0  0  0
    1.7429   -1.7954    0.0000 C   0  0  0  0  0  0  0  0  0  0  0  0
    1.7429   -2.6204    0.0000 C   0  0  0  0  0  0  0  0  0  0  0  0
    1.0284   -3.0329    0.0000 C   0  0  0  0  0  0  0  0  0  0  0  0
    0.3139   -1.7954    0.0000 C   0  0  0  0  0  0  0  0  0  0  0  0
    0.3139   -2.6204    0.0000 C   0  0  0  0  0  0  0  0  0  0  0  0
   -0.4005   -3.0329    0.0000 C   0  0  0  0  0  0  0  0  0  0  0  0
   -0.4005   -1.3829    0.0000 N   0  0  0  0  0  0  0  0  0  0  0  0
   -0.4005   -0.5579    0.0000 C   0  0  0  0  0  0  0  0  0  0  0  0
   -1.1150   -0.1454    0.0000 C   0  0  0  0  0  0  0  0  0  0  0  0
   -1.8996   -0.4003    0.0000 C   0  0  0  0  0  0  0  0  0  0  0  0
   -2.3846    0.2671    0.0000 N   0  0  0  0  0  0  0  0  0  0  0  0
   -1.8996    0.9346    0.0000 C   0  0  0  0  0  0  0  0  0  0  0  0
   -1.1150    0.6796    0.0000 N   0  0  0  0  0  0  0  0  0  0  0  0
   -0.4005    1.0921    0.0000 C   0  0  0  0  0  0  0  0  0  0  0  0
    0.3139    0.6796    0.0000 C   0  0  0  0  0  0  0  0  0  0  0  0
    0.3139   -0.1454    0.0000 N   0  0  0  0  0  0  0  0  0  0  0  0
   -0.4005    1.9171    0.0000 C   0  0  0  0  0  0  0  0  0  0  0  0
   -1.1150    2.3296    0.0000 C   0  0  0  0  0  0  0  0  0  0  0  0
   -1.1150    3.1546    0.0000 C   0  0  0  0  0  0  0  0  0  0  0  0
   -0.4005    3.5671    0.0000 C   0  0  0  0  0  0  0  0  0  0  0  0
    0.3139    3.1546    0.0000 C   0  0  0  0  0  0  0  0  0  0  0  0
    0.3139    2.3296    0.0000 C   0  0  0  0  0  0  0  0  0  0  0  0
    1.9550   -0.0229    0.0000 H   0  0  0  0  0  0  0  0  0  0  0  0
    0.1018   -0.0229    0.0000 H   0  0  0  0  0  0  0  0  0  0  0  0
    1.0284    0.5121    0.0000 H   0  0  0  0  0  0  0  0  0  0  0  0
    2.6366   -1.2794    0.0000 H   0  0  0  0  0  0  0  0  0  0  0  0
    2.6366   -3.1364    0.0000 H   0  0  0  0  0  0  0  0  0  0  0  0
    1.0284   -4.0649    0.0000 H   0  0  0  0  0  0  0  0  0  0  0  0
   -1.3272   -2.4979    0.0000 H   0  0  0  0  0  0  0  0  0  0  0  0
   -0.4005   -4.1029    0.0000 H   0  0  0  0  0  0  0  0  0  0  0  0
   -1.3271   -3.5679    0.0000 H   0  0  0  0  0  0  0  0  0  0  0  0
   -1.2531   -1.8751    0.0000 H   0  0  0  0  0  0  0  0  0  0  0  0
   -2.2185   -1.3818    0.0000 H   0  0  0  0  0  0  0  0  0  0  0  0
   -2.2185    1.9161    0.0000 H   0  0  0  0  0  0  0  0  0  0  0  0
    1.2076    1.1956    0.0000 H   0  0  0  0  0  0  0  0  0  0  0  0
   -2.0087    1.8136    0.0000 H   0  0  0  0  0  0  0  0  0  0  0  0
   -2.0087    3.6706    0.0000 H   0  0  0  0  0  0  0  0  0  0  0  0
   -0.4005    4.5991    0.0000 H   0  0  0  0  0  0  0  0  0  0  0  0
    1.2076    3.6706    0.0000 H   0  0  0  0  0  0  0  0  0  0  0  0
    1.2076    1.8136    0.0000 H   0  0  0  0  0  0  0  0  0  0  0  0
  1  2  1  0  0  0  0
  1 25  1  0  0  0  0
  1 26  1  0  0  0  0
  1 27  1  0  0  0  0
  2  3  2  0  0  0  0
  2  6  1  0  0  0  0
  3  4  1  0  0  0  0
  3 28  1  0  0  0  0
  4  5  2  0  0  0  0
  4 29  1  0  0  0  0
  5  7  1  0  0  0  0
  5 30  1  0  0  0  0
  6  7  2  0  0  0  0
  6  9  1  0  0  0  0
  7  8  1  0  0  0  0
  8 31  1  0  0  0  0
  8 32  1  0  0  0  0
  8 33  1  0  0  0  0
  9 10  1  0  0  0  0
  9 34  1  0  0  0  0
 10 11  1  0  0  0  0
 10 18  2  0  0  0  0
 11 12  2  0  0  0  0
 11 15  1  0  0  0  0
 12 13  1  0  0  0  0
 12 35  1  0  0  0  0
 13 14  2  0  0  0  0
 14 15  1  0  0  0  0
 14 36  1  0  0  0  0
 15 16  1  0  0  0  0
 16 17  2  0  0  0  0
 16 19  1  0  0  0  0
 17 18  1  0  0  0  0
 17 37  1  0  0  0  0
 19 20  2  0  0  0  0
 19 24  1  0  0  0  0
 20 21  1  0  0  0  0
 20 38  1  0  0  0  0
 21 22  2  0  0  0  0
 21 39  1  0  0  0  0
 22 23  1  0  0  0  0
 22 40  1  0  0  0  0
 23 24  2  0  0  0  0
 23 41  1  0  0  0  0
 24 42  1  0  0  0  0
M  END
>  <DRUGBANK_ID>
DB08056

>  <COMMON_NAME>
N-(2,6-dimethylphenyl)-5-phenylimidazo[1,5-a]pyrazin-8-amine

$$$$
