
 OpenBabel10282417072D

  7  6  0  0  0  0  0  0  0  0999 V2000
    0.0000    0.8250    0.0000 O   0  0  0  0  0  0  0  0  0  0  0  0
   -0.0000   -0.8250    0.0000 O   0  0  0  0  0  0  0  0  0  0  0  0
   -0.8250    0.0000    0.0000 O   0  0  0  0  0  0  0  0  0  0  0  0
    0.8250    0.0000    0.0000 S   0  0  0  0  0  0  0  0  0  0  0  0
    0.0000    0.0000    0.0000 S   0  0  0  0  0  0  0  0  0  0  0  0
    0.8400    1.3100    0.0000 H   0  0  0  0  0  0  0  0  0  0  0  0
   -0.8400   -1.3100    0.0000 H   0  0  0  0  0  0  0  0  0  0  0  0
  1  6  1  0  0  0  0
  2  7  1  0  0  0  0
  5  1  1  0  0  0  0
  5  2  1  0  0  0  0
  5  3  2  0  0  0  0
  5  4  2  0  0  0  0
M  END
>  <DRUGBANK_ID>
DB09499

>  <COMMON_NAME>
Thiosulfuric acid

>  <CAS_NUMBER>
13686-28-7

>  <UNII>
7K79Y2EKKP

>  <SYNONYMS>
Monosulfanemonosulfonic acid; Sulfurothioic S-acid

$$$$
