
 OpenBabel10282417072D

 56 59  0  0  1  0  0  0  0  0999 V2000
    1.3939    0.8338    0.0000 C   0  0  2  0  0  0  0  0  0  0  0  0
    2.1785    1.0887    0.0000 C   0  0  2  0  0  0  0  0  0  0  0  0
    2.6635    0.4211    0.0000 C   0  0  0  0  0  0  0  0  0  0  0  0
    2.1785   -0.2461    0.0000 C   0  0  0  0  0  0  0  0  0  0  0  0
    1.3939    0.0087    0.0000 C   0  0  1  0  0  0  0  0  0  0  0  0
    0.6794   -0.4036    0.0000 C   0  0  1  0  0  0  0  0  0  0  0  0
   -0.0350    0.0087    0.0000 C   0  0  1  0  0  0  0  0  0  0  0  0
   -0.7494   -0.4036    0.0000 C   0  0  2  0  0  0  0  0  0  0  0  0
   -0.7494   -1.2286    0.0000 C   0  0  1  0  0  0  0  0  0  0  0  0
   -0.0350   -1.6411    0.0000 C   0  0  0  0  0  0  0  0  0  0  0  0
    0.6794   -1.2286    0.0000 C   0  0  0  0  0  0  0  0  0  0  0  0
   -1.4639   -1.6411    0.0000 C   0  0  0  0  0  0  0  0  0  0  0  0
   -2.1784   -1.2286    0.0000 C   0  0  2  0  0  0  0  0  0  0  0  0
   -2.1784   -0.4037    0.0000 C   0  0  0  0  0  0  0  0  0  0  0  0
   -1.4639    0.0087    0.0000 C   0  0  0  0  0  0  0  0  0  0  0  0
   -2.8930   -1.6411    0.0000 O   0  0  0  0  0  0  0  0  0  0  0  0
   -0.7494   -2.0536    0.0000 H   0  0  0  0  0  0  0  0  0  0  0  0
   -0.7494    0.4211    0.0000 C   0  0  0  0  0  0  0  0  0  0  0  0
   -0.0350    0.8338    0.0000 C   0  0  0  0  0  0  0  0  0  0  0  0
    0.6794    1.2463    0.0000 C   0  0  0  0  0  0  0  0  0  0  0  0
   -0.0350   -0.8161    0.0000 H   0  0  0  0  0  0  0  0  0  0  0  0
    0.6794    0.4211    0.0000 H   0  0  0  0  0  0  0  0  0  0  0  0
    1.4800   -0.8116    0.0000 H   0  0  0  0  0  0  0  0  0  0  0  0
    2.8930    1.5011    0.0000 O   0  0  0  0  0  0  0  0  0  0  0  0
    2.1950    2.0536    0.0000 C   0  0  0  0  0  0  0  0  0  0  0  0
    1.3363    1.6568    0.0000 C   0  0  0  0  0  0  0  0  0  0  0  0
    3.7335    0.4209    0.0000 H   0  0  0  0  0  0  0  0  0  0  0  0
    3.1491   -0.5324    0.0000 H   0  0  0  0  0  0  0  0  0  0  0  0
    2.5091   -1.2637    0.0000 H   0  0  0  0  0  0  0  0  0  0  0  0
    1.4219   -1.0027    0.0000 H   0  0  0  0  0  0  0  0  0  0  0  0
   -0.0350   -2.7111    0.0000 H   0  0  0  0  0  0  0  0  0  0  0  0
    0.8917   -2.1761    0.0000 H   0  0  0  0  0  0  0  0  0  0  0  0
    1.6061   -1.7636    0.0000 H   0  0  0  0  0  0  0  0  0  0  0  0
    1.6060   -0.6936    0.0000 H   0  0  0  0  0  0  0  0  0  0  0  0
   -1.4639   -2.7111    0.0000 H   0  0  0  0  0  0  0  0  0  0  0  0
   -2.3905   -2.1761    0.0000 H   0  0  0  0  0  0  0  0  0  0  0  0
   -2.1784   -2.2986    0.0000 H   0  0  0  0  0  0  0  0  0  0  0  0
   -3.1050    0.1314    0.0000 H   0  0  0  0  0  0  0  0  0  0  0  0
   -2.1783    0.6663    0.0000 H   0  0  0  0  0  0  0  0  0  0  0  0
   -1.4640    1.0787    0.0000 H   0  0  0  0  0  0  0  0  0  0  0  0
   -0.5373    0.5438    0.0000 H   0  0  0  0  0  0  0  0  0  0  0  0
   -3.7330   -1.1560    0.0000 H   0  0  0  0  0  0  0  0  0  0  0  0
    0.1772    0.9561    0.0000 H   0  0  0  0  0  0  0  0  0  0  0  0
   -1.6760    0.9561    0.0000 H   0  0  0  0  0  0  0  0  0  0  0  0
   -0.7494    1.4911    0.0000 H   0  0  0  0  0  0  0  0  0  0  0  0
   -0.9617    1.3688    0.0000 H   0  0  0  0  0  0  0  0  0  0  0  0
   -0.0350    1.9038    0.0000 H   0  0  0  0  0  0  0  0  0  0  0  0
    0.6794    2.3163    0.0000 H   0  0  0  0  0  0  0  0  0  0  0  0
    1.6060    1.7813    0.0000 H   0  0  0  0  0  0  0  0  0  0  0  0
    3.7330    1.0160    0.0000 H   0  0  0  0  0  0  0  0  0  0  0  0
    3.1307    2.5727    0.0000 H   0  0  0  0  0  0  0  0  0  0  0  0
    1.2776    2.6044    0.0000 H   0  0  0  0  0  0  0  0  0  0  0  0
    2.2133    3.1234    0.0000 H   0  0  0  0  0  0  0  0  0  0  0  0
    2.2233    2.2552    0.0000 H   0  0  0  0  0  0  0  0  0  0  0  0
    0.3746    2.1258    0.0000 H   0  0  0  0  0  0  0  0  0  0  0  0
    1.2616    2.7242    0.0000 H   0  0  0  0  0  0  0  0  0  0  0  0
  1 26  1  1  0  0  0
  2  1  1  0  0  0  0
  2 24  1  1  0  0  0
  2 25  1  0  0  0  0
  3  2  1  0  0  0  0
  3  4  1  0  0  0  0
  3 27  1  0  0  0  0
  3 28  1  0  0  0  0
  4  5  1  0  0  0  0
  4 29  1  0  0  0  0
  4 30  1  0  0  0  0
  5  1  1  0  0  0  0
  5 23  1  6  0  0  0
  6  5  1  0  0  0  0
  6  7  1  0  0  0  0
  6 22  1  1  0  0  0
  7 19  1  0  0  0  0
  7 21  1  6  0  0  0
  8  7  1  0  0  0  0
  8 18  1  1  0  0  0
  9  8  1  0  0  0  0
  9 17  1  6  0  0  0
 10  9  1  0  0  0  0
 10 11  1  0  0  0  0
 10 31  1  0  0  0  0
 10 32  1  0  0  0  0
 11  6  1  0  0  0  0
 11 33  1  0  0  0  0
 11 34  1  0  0  0  0
 12  9  1  0  0  0  0
 12 35  1  0  0  0  0
 12 36  1  0  0  0  0
 13 12  1  0  0  0  0
 13 14  1  0  0  0  0
 13 16  1  0  0  0  0
 13 37  1  6  0  0  0
 14 15  1  0  0  0  0
 14 38  1  0  0  0  0
 14 39  1  0  0  0  0
 15  8  1  0  0  0  0
 15 40  1  0  0  0  0
 15 41  1  0  0  0  0
 16 42  1  0  0  0  0
 18 43  1  0  0  0  0
 18 44  1  0  0  0  0
 18 45  1  0  0  0  0
 19 20  1  0  0  0  0
 19 46  1  0  0  0  0
 19 47  1  0  0  0  0
 20  1  1  0  0  0  0
 20 48  1  0  0  0  0
 20 49  1  0  0  0  0
 24 50  1  0  0  0  0
 25 51  1  0  0  0  0
 25 52  1  0  0  0  0
 25 53  1  0  0  0  0
 26 54  1  0  0  0  0
 26 55  1  0  0  0  0
 26 56  1  0  0  0  0
M  END
>  <DRUGBANK_ID>
DB01513

>  <COMMON_NAME>
17Alpha-methyl-3beta,17beta-dihydroxy-5alpha-androstane

>  <CAS_NUMBER>
641-83-8

>  <UNII>
ZA9UE4Q47V

$$$$
