
 OpenBabel10282417072D

 39 39  0  0  1  0  0  0  0  0999 V2000
    1.6500   -2.2193    0.0000 O   0  0  0  0  0  0  0  0  0  0  0  0
    4.5080    1.9058    0.0000 N   0  0  0  0  0  0  0  0  0  0  0  0
    3.0791    0.2558    0.0000 C   0  0  1  0  0  0  0  0  0  0  0  0
    3.7935    0.6683    0.0000 C   0  0  2  0  0  0  0  0  0  0  0  0
    3.7935    1.4933    0.0000 C   0  0  0  0  0  0  0  0  0  0  0  0
    2.3645    0.6683    0.0000 C   0  0  0  0  0  0  0  0  0  0  0  0
    3.0791   -0.5693    0.0000 C   0  0  0  0  0  0  0  0  0  0  0  0
    4.5080    0.2558    0.0000 C   0  0  0  0  0  0  0  0  0  0  0  0
    2.3645    1.4933    0.0000 C   0  0  0  0  0  0  0  0  0  0  0  0
    2.3645   -0.9818    0.0000 C   0  0  0  0  0  0  0  0  0  0  0  0
    3.7935   -0.9818    0.0000 C   0  0  0  0  0  0  0  0  0  0  0  0
    4.5080    2.7308    0.0000 C   0  0  0  0  0  0  0  0  0  0  0  0
    5.2224    1.4933    0.0000 C   0  0  0  0  0  0  0  0  0  0  0  0
    2.3645   -1.8068    0.0000 C   0  0  0  0  0  0  0  0  0  0  0  0
    3.7935   -1.8068    0.0000 C   0  0  0  0  0  0  0  0  0  0  0  0
    3.0791   -2.2193    0.0000 C   0  0  0  0  0  0  0  0  0  0  0  0
    0.8385   -1.7508    0.0000 H   0  0  0  0  0  0  0  0  0  0  0  0
    3.0790    1.3258    0.0000 H   0  0  0  0  0  0  0  0  0  0  0  0
    3.7935   -0.4017    0.0000 H   0  0  0  0  0  0  0  0  0  0  0  0
    2.8669    2.0283    0.0000 H   0  0  0  0  0  0  0  0  0  0  0  0
    2.8669    0.9583    0.0000 H   0  0  0  0  0  0  0  0  0  0  0  0
    1.4379    0.1333    0.0000 H   0  0  0  0  0  0  0  0  0  0  0  0
    1.4378    1.2033    0.0000 H   0  0  0  0  0  0  0  0  0  0  0  0
    4.5080   -0.8142    0.0000 H   0  0  0  0  0  0  0  0  0  0  0  0
    5.4346    0.7908    0.0000 H   0  0  0  0  0  0  0  0  0  0  0  0
    5.4347   -0.2792    0.0000 H   0  0  0  0  0  0  0  0  0  0  0  0
    3.2911    2.0283    0.0000 H   0  0  0  0  0  0  0  0  0  0  0  0
    1.4379    2.0283    0.0000 H   0  0  0  0  0  0  0  0  0  0  0  0
    2.3645    2.5633    0.0000 H   0  0  0  0  0  0  0  0  0  0  0  0
    1.4708   -0.4658    0.0000 H   0  0  0  0  0  0  0  0  0  0  0  0
    4.6872   -0.4658    0.0000 H   0  0  0  0  0  0  0  0  0  0  0  0
    5.4346    3.2658    0.0000 H   0  0  0  0  0  0  0  0  0  0  0  0
    3.5814    3.2658    0.0000 H   0  0  0  0  0  0  0  0  0  0  0  0
    4.5080    3.8008    0.0000 H   0  0  0  0  0  0  0  0  0  0  0  0
    5.2224    0.4233    0.0000 H   0  0  0  0  0  0  0  0  0  0  0  0
    6.1491    2.0283    0.0000 H   0  0  0  0  0  0  0  0  0  0  0  0
    6.1490    0.9583    0.0000 H   0  0  0  0  0  0  0  0  0  0  0  0
    4.6872   -2.3228    0.0000 H   0  0  0  0  0  0  0  0  0  0  0  0
    3.0792   -3.2513    0.0000 H   0  0  0  0  0  0  0  0  0  0  0  0
  1 14  1  0  0  0  0
  1 17  1  0  0  0  0
  2  5  1  0  0  0  0
  2 12  1  0  0  0  0
  2 13  1  0  0  0  0
  3  4  1  0  0  0  0
  3  6  1  0  0  0  0
  3  7  1  0  0  0  0
  3 18  1  1  0  0  0
  4  5  1  0  0  0  0
  4  8  1  0  0  0  0
  4 19  1  1  0  0  0
  5 20  1  0  0  0  0
  5 21  1  0  0  0  0
  6  9  1  0  0  0  0
  6 22  1  0  0  0  0
  6 23  1  0  0  0  0
  7 10  2  0  0  0  0
  7 11  1  0  0  0  0
  8 24  1  0  0  0  0
  8 25  1  0  0  0  0
  8 26  1  0  0  0  0
  9 27  1  0  0  0  0
  9 28  1  0  0  0  0
  9 29  1  0  0  0  0
 10 14  1  0  0  0  0
 10 30  1  0  0  0  0
 11 15  2  0  0  0  0
 11 31  1  0  0  0  0
 12 32  1  0  0  0  0
 12 33  1  0  0  0  0
 12 34  1  0  0  0  0
 13 35  1  0  0  0  0
 13 36  1  0  0  0  0
 13 37  1  0  0  0  0
 14 16  2  0  0  0  0
 15 16  1  0  0  0  0
 15 38  1  0  0  0  0
 16 39  1  0  0  0  0
M  END
>  <DRUGBANK_ID>
DB06204

>  <COMMON_NAME>
Tapentadol

>  <CAS_NUMBER>
175591-23-8

>  <UNII>
H8A007M585

>  <SYNONYMS>
3-[(1R,2R)-3-(Dimethylamino)-1-ethyl-2-methylpropyl]phenol; PHENOL, 3-((1R,2R)-3-(DIMETHYLAMINO)-1-ETHYL-2-METHYLPROPYL)-; Tapentadol

$$$$
