
 OpenBabel10282417072D

 12 11  0  0  0  0  0  0  0  0999 V2000
    0.3520   -0.2018    0.0000 C   0  0  0  0  0  0  0  0  0  0  0  0
   -0.3596   -0.6141    0.0000 C   0  0  0  0  0  0  0  0  0  0  0  0
    1.0771   -0.6207    0.0000 N   0  0  0  0  0  0  0  0  0  0  0  0
    0.3520    0.6207    0.0000 O   0  0  0  0  0  0  0  0  0  0  0  0
   -1.0771   -0.2018    0.0000 C   0  0  0  0  0  0  0  0  0  0  0  0
   -0.3577   -1.6841    0.0000 H   0  0  0  0  0  0  0  0  0  0  0  0
   -1.2852   -1.1509    0.0000 H   0  0  0  0  0  0  0  0  0  0  0  0
    1.0768   -1.6052    0.0000 H   0  0  0  0  0  0  0  0  0  0  0  0
    1.9298   -0.1287    0.0000 H   0  0  0  0  0  0  0  0  0  0  0  0
   -1.0793    0.8682    0.0000 H   0  0  0  0  0  0  0  0  0  0  0  0
   -2.0027   -0.7387    0.0000 H   0  0  0  0  0  0  0  0  0  0  0  0
   -2.0048    0.3313    0.0000 H   0  0  0  0  0  0  0  0  0  0  0  0
  1  2  1  0  0  0  0
  1  3  1  0  0  0  0
  1  4  2  0  0  0  0
  2  5  1  0  0  0  0
  2  6  1  0  0  0  0
  2  7  1  0  0  0  0
  3  8  1  0  0  0  0
  3  9  1  0  0  0  0
  5 10  1  0  0  0  0
  5 11  1  0  0  0  0
  5 12  1  0  0  0  0
M  END
>  <DRUGBANK_ID>
DB04161

>  <SECONDARY_ACCESSION_NUMBERS>
EXPT02807

>  <COMMON_NAME>
Propionamide

>  <CAS_NUMBER>
79-05-0

>  <UNII>
QK07G0HP47

>  <SYNONYMS>
Propanimidic acid; Propionic acid amide; Propionic amide

$$$$
