
 OpenBabel10282417072D

 54 56  0  0  0  0  0  0  0  0999 V2000
    0.7842    0.1536    0.0000 O   0  0  0  0  0  0  0  0  0  0  0  0
   -0.4539   -0.5597    0.0000 O   0  0  0  0  0  0  0  0  0  0  0  0
    2.0195   -1.9910    0.0000 O   0  0  0  0  0  0  0  0  0  0  0  0
   -1.2551    2.1103    0.0000 N   0  3  3  0  0  0  0  0  0  0  0  0
   -0.6945    1.6703    0.0000 C   0  0  1  0  0  0  0  0  0  0  0  0
   -1.1154    1.2972    0.0000 C   0  0  2  0  0  0  0  0  0  0  0  0
   -1.1650    2.9303    0.0000 C   0  0  0  0  0  0  0  0  0  0  0  0
    0.3724    0.8685    0.0000 C   0  0  1  0  0  0  0  0  0  0  0  0
    0.2342    1.6858    0.0000 C   0  0  0  0  0  0  0  0  0  0  0  0
   -0.1437    1.2972    0.0000 C   0  0  0  0  0  0  0  0  0  0  0  0
   -1.0150    0.9617    0.0000 C   0  0  0  0  0  0  0  0  0  0  0  0
   -1.6353    0.5848    0.0000 C   0  0  0  0  0  0  0  0  0  0  0  0
   -2.0195    2.4206    0.0000 C   0  0  0  0  0  0  0  0  0  0  0  0
    0.3710   -0.5605    0.0000 C   0  0  0  0  0  0  0  0  0  0  0  0
    0.7828   -1.2754    0.0000 C   0  0  3  0  0  0  0  0  0  0  0  0
   -1.8302    3.4184    0.0000 C   0  0  0  0  0  0  0  0  0  0  0  0
   -0.4098    3.2623    0.0000 C   0  0  0  0  0  0  0  0  0  0  0  0
    0.3695   -1.9894    0.0000 C   0  0  0  0  0  0  0  0  0  0  0  0
    1.6078   -1.2762    0.0000 C   0  0  0  0  0  0  0  0  0  0  0  0
    0.7813   -2.7043    0.0000 C   0  0  0  0  0  0  0  0  0  0  0  0
   -0.4554   -1.9886    0.0000 C   0  0  0  0  0  0  0  0  0  0  0  0
    0.3681   -3.4184    0.0000 C   0  0  0  0  0  0  0  0  0  0  0  0
   -0.8686   -2.7027    0.0000 C   0  0  0  0  0  0  0  0  0  0  0  0
   -0.4568   -3.4175    0.0000 C   0  0  0  0  0  0  0  0  0  0  0  0
   -0.6624    0.4056    0.0000 H   0  0  0  0  0  0  0  0  0  0  0  0
   -0.1453    0.8346    0.0000 H   0  0  0  0  0  0  0  0  0  0  0  0
    1.5336   -2.8305    0.0000 H   0  0  0  0  0  0  0  0  0  0  0  0
   -1.0482    3.9939    0.0000 H   0  0  0  0  0  0  0  0  0  0  0  0
    1.3793    1.2304    0.0000 H   0  0  0  0  0  0  0  0  0  0  0  0
    0.9180    2.5088    0.0000 H   0  0  0  0  0  0  0  0  0  0  0  0
    1.2674    1.4077    0.0000 H   0  0  0  0  0  0  0  0  0  0  0  0
    0.2198    2.3036    0.0000 H   0  0  0  0  0  0  0  0  0  0  0  0
    0.8888    1.5780    0.0000 H   0  0  0  0  0  0  0  0  0  0  0  0
   -0.2140    0.2523    0.0000 H   0  0  0  0  0  0  0  0  0  0  0  0
   -1.1105   -0.1040    0.0000 H   0  0  0  0  0  0  0  0  0  0  0  0
   -2.4232   -0.1392    0.0000 H   0  0  0  0  0  0  0  0  0  0  0  0
   -0.9924   -0.2705    0.0000 H   0  0  0  0  0  0  0  0  0  0  0  0
   -2.1667    3.4804    0.0000 H   0  0  0  0  0  0  0  0  0  0  0  0
   -2.8638    1.7632    0.0000 H   0  0  0  0  0  0  0  0  0  0  0  0
   -3.0109    2.8231    0.0000 H   0  0  0  0  0  0  0  0  0  0  0  0
   -0.2872   -1.2743    0.0000 H   0  0  0  0  0  0  0  0  0  0  0  0
   -1.7133    4.4820    0.0000 H   0  0  0  0  0  0  0  0  0  0  0  0
   -2.8097    2.9878    0.0000 H   0  0  0  0  0  0  0  0  0  0  0  0
   -2.6929    4.0514    0.0000 H   0  0  0  0  0  0  0  0  0  0  0  0
    0.4529    2.6293    0.0000 H   0  0  0  0  0  0  0  0  0  0  0  0
   -0.2930    4.3259    0.0000 H   0  0  0  0  0  0  0  0  0  0  0  0
    0.5697    3.6929    0.0000 H   0  0  0  0  0  0  0  0  0  0  0  0
    2.1437   -0.3501    0.0000 H   0  0  0  0  0  0  0  0  0  0  0  0
    1.0737   -0.3490    0.0000 H   0  0  0  0  0  0  0  0  0  0  0  0
    1.8133   -2.7053    0.0000 H   0  0  0  0  0  0  0  0  0  0  0  0
   -0.9705   -1.0944    0.0000 H   0  0  0  0  0  0  0  0  0  0  0  0
    0.8832   -4.3127    0.0000 H   0  0  0  0  0  0  0  0  0  0  0  0
   -1.9006   -2.7017    0.0000 H   0  0  0  0  0  0  0  0  0  0  0  0
   -0.9737   -4.3107    0.0000 H   0  0  0  0  0  0  0  0  0  0  0  0
  1 14  1  0  0  0  0
  2 14  2  0  0  0  0
  3 19  1  0  0  0  0
  3 27  1  0  0  0  0
  4  5  1  0  0  0  0
  4  6  1  0  0  0  0
  4  7  1  0  0  0  0
  4 13  1  0  0  0  0
  5  9  1  0  0  0  0
  5 11  1  0  0  0  0
  5 26  1  6  0  0  0
  6 10  1  0  0  0  0
  6 12  1  0  0  0  0
  6 25  1  1  0  0  0
  7 16  1  0  0  0  0
  7 17  1  0  0  0  0
  7 28  1  0  0  0  0
  8  1  1  0  0  0  0
  8  9  1  0  0  0  0
  8 10  1  0  0  0  0
  8 29  1  1  0  0  0
  9 30  1  0  0  0  0
  9 31  1  0  0  0  0
 10 32  1  0  0  0  0
 10 33  1  0  0  0  0
 11 12  1  0  0  0  0
 11 34  1  0  0  0  0
 11 35  1  0  0  0  0
 12 36  1  0  0  0  0
 12 37  1  0  0  0  0
 13 38  1  0  0  0  0
 13 39  1  0  0  0  0
 13 40  1  0  0  0  0
 14 15  1  0  0  0  0
 15 18  1  0  0  0  0
 15 19  1  0  0  0  0
 15 41  1  0  0  0  0
 16 42  1  0  0  0  0
 16 43  1  0  0  0  0
 16 44  1  0  0  0  0
 17 45  1  0  0  0  0
 17 46  1  0  0  0  0
 17 47  1  0  0  0  0
 18 20  2  0  0  0  0
 18 21  1  0  0  0  0
 19 48  1  0  0  0  0
 19 49  1  0  0  0  0
 20 22  1  0  0  0  0
 20 50  1  0  0  0  0
 21 23  2  0  0  0  0
 21 51  1  0  0  0  0
 22 24  2  0  0  0  0
 22 52  1  0  0  0  0
 23 24  1  0  0  0  0
 23 53  1  0  0  0  0
 24 54  1  0  0  0  0
M  CHG  1   4   1
M  END
>  <DRUGBANK_ID>
DB00332

>  <SECONDARY_ACCESSION_NUMBERS>
APRD00537

>  <COMMON_NAME>
Ipratropium

>  <CAS_NUMBER>
60205-81-4

>  <UNII>
GR88G0I6UL

>  <SYNONYMS>
bromuro de ipratropio; Ipratropium cation; Ipratropium ion

$$$$
