
 OpenBabel10282417072D

197197  0  0  0  0  0  0  0  0999 V2000
    3.6565   -2.5408    0.0000 C   0  0  2  0  0  0  0  0  0  0  0  0
    2.9879   -2.9288    0.0000 C   0  0  0  0  0  0  0  0  0  0  0  0
    2.3145   -2.5463    0.0000 N   0  0  0  0  0  0  0  0  0  0  0  0
    1.6520   -2.9290    0.0000 C   0  0  2  0  0  0  0  0  0  0  0  0
    0.9759   -2.5612    0.0000 C   0  0  0  0  0  0  0  0  0  0  0  0
    0.3040   -2.9562    0.0000 N   0  0  0  0  0  0  0  0  0  0  0  0
   -0.3767   -2.5628    0.0000 C   0  0  2  0  0  0  0  0  0  0  0  0
   -1.0439   -2.9576    0.0000 C   0  0  0  0  0  0  0  0  0  0  0  0
   -1.7177   -2.5729    0.0000 N   0  0  0  0  0  0  0  0  0  0  0  0
   -2.3843   -2.9753    0.0000 C   0  0  2  0  0  0  0  0  0  0  0  0
   -3.0588   -2.6018    0.0000 C   0  0  0  0  0  0  0  0  0  0  0  0
   -3.7197   -3.0024    0.0000 N   0  0  0  0  0  0  0  0  0  0  0  0
   -4.4057   -2.6360    0.0000 C   0  0  2  0  0  0  0  0  0  0  0  0
    4.3797   -2.9395    0.0000 C   0  0  0  0  0  0  0  0  0  0  0  0
    1.6619   -3.7539    0.0000 C   0  0  0  0  0  0  0  0  0  0  0  0
    0.9496   -4.1720    0.0000 C   0  0  0  0  0  0  0  0  0  0  0  0
    2.3842   -4.1577    0.0000 C   0  0  0  0  0  0  0  0  0  0  0  0
   -0.3848   -1.7378    0.0000 C   0  0  0  0  0  0  0  0  0  0  0  0
   -2.3631   -3.8001    0.0000 C   0  0  0  0  0  0  0  0  0  0  0  0
   -5.1150   -3.0669    0.0000 C   0  0  0  0  0  0  0  0  0  0  0  0
    4.3749   -3.7663    0.0000 C   0  0  0  0  0  0  0  0  0  0  0  0
    3.6522   -4.1746    0.0000 C   0  0  0  0  0  0  0  0  0  0  0  0
    5.0868   -4.1800    0.0000 C   0  0  0  0  0  0  0  0  0  0  0  0
    2.9885   -3.7537    0.0000 O   0  0  0  0  0  0  0  0  0  0  0  0
   -1.0367   -3.7825    0.0000 O   0  0  0  0  0  0  0  0  0  0  0  0
   -3.0788   -1.7771    0.0000 O   0  0  0  0  0  0  0  0  0  0  0  0
    0.3053   -3.7812    0.0000 C   0  0  0  0  0  0  0  0  0  0  0  0
    0.9613   -1.7363    0.0000 O   0  0  0  0  0  0  0  0  0  0  0  0
   -1.1078   -1.3358    0.0000 C   0  0  0  0  0  0  0  0  0  0  0  0
   -1.1130   -0.5108    0.0000 C   0  0  0  0  0  0  0  0  0  0  0  0
   -1.8253   -1.7470    0.0000 C   0  0  0  0  0  0  0  0  0  0  0  0
   -4.4022   -1.4780    0.0000 C   0  0  0  0  0  0  0  0  0  0  0  0
    2.9935    1.6934    0.0000 N   0  0  0  0  0  0  0  0  0  0  0  0
    2.3088    1.3057    0.0000 C   0  0  0  0  0  0  0  0  0  0  0  0
    1.6315    1.6912    0.0000 C   0  0  1  0  0  0  0  0  0  0  0  0
    4.3535   -1.0049    0.0000 C   0  0  0  0  0  0  0  0  0  0  0  0
    3.6694   -1.3900    0.0000 N   0  0  0  0  0  0  0  0  0  0  0  0
    0.9561    1.3026    0.0000 N   0  0  0  0  0  0  0  0  0  0  0  0
    0.2779    1.6827    0.0000 C   0  0  0  0  0  0  0  0  0  0  0  0
   -0.3958    1.2920    0.0000 C   0  0  1  0  0  0  0  0  0  0  0  0
   -1.0756    1.6688    0.0000 N   0  0  0  0  0  0  0  0  0  0  0  0
   -3.7644    0.0813    0.0000 C   0  0  1  0  0  0  0  0  0  0  0  0
   -3.0938    0.4795    0.0000 C   0  0  0  0  0  0  0  0  0  0  0  0
   -3.1098    1.2550    0.0000 N   0  0  0  0  0  0  0  0  0  0  0  0
   -2.4394    1.6505    0.0000 C   0  0  2  0  0  0  0  0  0  0  0  0
   -1.7502    1.2793    0.0000 C   0  0  0  0  0  0  0  0  0  0  0  0
   -3.7361   -1.0812    0.0000 N   0  0  0  0  0  0  0  0  0  0  0  0
    3.6578    1.3057    0.0000 C   0  0  2  0  0  0  0  0  0  0  0  0
    4.3574    0.1540    0.0000 C   0  0  0  0  0  0  0  0  0  0  0  0
    4.9083    0.6994    0.0000 N   0  0  0  0  0  0  0  0  0  0  0  0
    4.4186    1.5099    0.0000 C   0  0  0  0  0  0  0  0  0  0  0  0
    3.6607    0.4779    0.0000 C   0  0  0  0  0  0  0  0  0  0  0  0
    1.6292    2.5162    0.0000 C   0  0  1  0  0  0  0  0  0  0  0  0
   -2.4539    2.4753    0.0000 C   0  0  0  0  0  0  0  0  0  0  0  0
   -3.1812    2.8752    0.0000 C   0  0  0  0  0  0  0  0  0  0  0  0
   -3.2015    3.7001    0.0000 C   0  0  0  0  0  0  0  0  0  0  0  0
   -3.8941    2.4532    0.0000 C   0  0  0  0  0  0  0  0  0  0  0  0
   -0.3896    0.4670    0.0000 C   0  0  0  0  0  0  0  0  0  0  0  0
   -1.1039    0.0551    0.0000 C   0  0  0  0  0  0  0  0  0  0  0  0
    0.2729    2.5076    0.0000 O   0  0  0  0  0  0  0  0  0  0  0  0
    0.9628    0.4777    0.0000 C   0  0  0  0  0  0  0  0  0  0  0  0
    2.3086    0.4779    0.0000 O   0  0  0  0  0  0  0  0  0  0  0  0
    4.7363    2.2736    0.0000 O   0  0  0  0  0  0  0  0  0  0  0  0
    5.0672   -1.4176    0.0000 O   0  0  0  0  0  0  0  0  0  0  0  0
   -2.3651    0.0850    0.0000 O   0  0  0  0  0  0  0  0  0  0  0  0
   -1.7554    0.4546    0.0000 O   0  0  0  0  0  0  0  0  0  0  0  0
   -5.1315   -1.0830    0.0000 O   0  0  0  0  0  0  0  0  0  0  0  0
    2.3511    2.9278    0.0000 C   0  0  2  0  0  0  0  0  0  0  0  0
    0.9107    2.9266    0.0000 O   0  0  0  0  0  0  0  0  0  0  0  0
    3.0697    2.5232    0.0000 C   0  0  0  0  0  0  0  0  0  0  0  0
    2.3373    3.7544    0.0000 C   0  0  0  0  0  0  0  0  0  0  0  0
    3.0573    4.1596    0.0000 C   0  0  0  0  0  0  0  0  0  0  0  0
    3.7773    3.7573    0.0000 C   0  0  0  0  0  0  0  0  0  0  0  0
    5.7362    0.6994    0.0000 C   0  0  0  0  0  0  0  0  0  0  0  0
    2.9513   -0.9762    0.0000 C   0  0  0  0  0  0  0  0  0  0  0  0
   -2.9126   -1.0786    0.0000 C   0  0  0  0  0  0  0  0  0  0  0  0
   -1.0818    2.4937    0.0000 C   0  0  0  0  0  0  0  0  0  0  0  0
    0.3335    0.0628    0.0000 C   0  0  0  0  0  0  0  0  0  0  0  0
   -3.8372    1.6517    0.0000 C   0  0  0  0  0  0  0  0  0  0  0  0
    2.9419    0.0650    0.0000 C   0  0  0  0  0  0  0  0  0  0  0  0
   -4.4939    0.4775    0.0000 C   0  0  0  0  0  0  0  0  0  0  0  0
   -5.3175    0.4779    0.0000 C   0  0  0  0  0  0  0  0  0  0  0  0
   -5.7354    1.1896    0.0000 C   0  0  0  0  0  0  0  0  0  0  0  0
   -5.7362   -0.2362    0.0000 C   0  0  0  0  0  0  0  0  0  0  0  0
    1.6289    0.8685    0.0000 H   0  0  0  0  0  0  0  0  0  0  0  0
    4.4856    4.1800    0.0000 C   0  0  0  0  0  0  0  0  0  0  0  0
    5.2057    3.7807    0.0000 C   0  0  0  0  0  0  0  0  0  0  0  0
    4.5809   -2.0018    0.0000 H   0  0  0  0  0  0  0  0  0  0  0  0
    2.3109   -1.5618    0.0000 H   0  0  0  0  0  0  0  0  0  0  0  0
    2.5819   -3.4583    0.0000 H   0  0  0  0  0  0  0  0  0  0  0  0
    0.5474   -2.0235    0.0000 H   0  0  0  0  0  0  0  0  0  0  0  0
   -1.7297   -1.5885    0.0000 H   0  0  0  0  0  0  0  0  0  0  0  0
   -1.4458   -3.4892    0.0000 H   0  0  0  0  0  0  0  0  0  0  0  0
   -3.6929   -3.9865    0.0000 H   0  0  0  0  0  0  0  0  0  0  0  0
   -4.3761   -3.7056    0.0000 H   0  0  0  0  0  0  0  0  0  0  0  0
    5.3026   -2.3980    0.0000 H   0  0  0  0  0  0  0  0  0  0  0  0
    5.3067   -3.4740    0.0000 H   0  0  0  0  0  0  0  0  0  0  0  0
    1.6731   -4.8238    0.0000 H   0  0  0  0  0  0  0  0  0  0  0  0
    0.0191   -3.6437    0.0000 H   0  0  0  0  0  0  0  0  0  0  0  0
    0.9573   -5.2420    0.0000 H   0  0  0  0  0  0  0  0  0  0  0  0
    0.0268   -4.7136    0.0000 H   0  0  0  0  0  0  0  0  0  0  0  0
    2.3990   -5.2276    0.0000 H   0  0  0  0  0  0  0  0  0  0  0  0
    3.3034   -3.6099    0.0000 H   0  0  0  0  0  0  0  0  0  0  0  0
    3.3182   -4.6798    0.0000 H   0  0  0  0  0  0  0  0  0  0  0  0
    0.5348   -1.1908    0.0000 H   0  0  0  0  0  0  0  0  0  0  0  0
   -0.4004   -0.6679    0.0000 H   0  0  0  0  0  0  0  0  0  0  0  0
   -3.2757   -4.3587    0.0000 H   0  0  0  0  0  0  0  0  0  0  0  0
   -1.4230   -4.3111    0.0000 H   0  0  0  0  0  0  0  0  0  0  0  0
   -2.3356   -4.8697    0.0000 H   0  0  0  0  0  0  0  0  0  0  0  0
   -6.0534   -2.5527    0.0000 H   0  0  0  0  0  0  0  0  0  0  0  0
   -5.0911   -4.1366    0.0000 H   0  0  0  0  0  0  0  0  0  0  0  0
   -6.0295   -3.6224    0.0000 H   0  0  0  0  0  0  0  0  0  0  0  0
    4.3684   -4.8363    0.0000 H   0  0  0  0  0  0  0  0  0  0  0  0
    2.7306   -3.6310    0.0000 H   0  0  0  0  0  0  0  0  0  0  0  0
    3.6422   -5.2446    0.0000 H   0  0  0  0  0  0  0  0  0  0  0  0
    2.7206   -4.7009    0.0000 H   0  0  0  0  0  0  0  0  0  0  0  0
    5.0838   -5.2500    0.0000 H   0  0  0  0  0  0  0  0  0  0  0  0
    6.0150   -3.6476    0.0000 H   0  0  0  0  0  0  0  0  0  0  0  0
    6.0119   -4.7176    0.0000 H   0  0  0  0  0  0  0  0  0  0  0  0
   -0.6205   -4.3177    0.0000 H   0  0  0  0  0  0  0  0  0  0  0  0
    1.2328   -4.3147    0.0000 H   0  0  0  0  0  0  0  0  0  0  0  0
    0.3070   -4.8512    0.0000 H   0  0  0  0  0  0  0  0  0  0  0  0
   -2.0353   -0.8022    0.0000 H   0  0  0  0  0  0  0  0  0  0  0  0
   -0.1897    0.0300    0.0000 H   0  0  0  0  0  0  0  0  0  0  0  0
   -2.0430    0.0183    0.0000 H   0  0  0  0  0  0  0  0  0  0  0  0
   -1.1197    0.5592    0.0000 H   0  0  0  0  0  0  0  0  0  0  0  0
   -2.7502   -1.2090    0.0000 H   0  0  0  0  0  0  0  0  0  0  0  0
   -1.8287   -2.8170    0.0000 H   0  0  0  0  0  0  0  0  0  0  0  0
   -2.7537   -2.2790    0.0000 H   0  0  0  0  0  0  0  0  0  0  0  0
    2.9999    2.6779    0.0000 H   0  0  0  0  0  0  0  0  0  0  0  0
    0.5334    0.7614    0.0000 H   0  0  0  0  0  0  0  0  0  0  0  0
   -4.6773   -0.4769    0.0000 H   0  0  0  0  0  0  0  0  0  0  0  0
   -3.3732    2.1730    0.0000 H   0  0  0  0  0  0  0  0  0  0  0  0
    2.7308    0.7713    0.0000 H   0  0  0  0  0  0  0  0  0  0  0  0
    3.3706    0.5676    0.0000 H   0  0  0  0  0  0  0  0  0  0  0  0
    4.1535    1.2044    0.0000 H   0  0  0  0  0  0  0  0  0  0  0  0
    4.5877   -0.0565    0.0000 H   0  0  0  0  0  0  0  0  0  0  0  0
    4.5862    1.0148    0.0000 H   0  0  0  0  0  0  0  0  0  0  0  0
    1.6296    3.5862    0.0000 H   0  0  0  0  0  0  0  0  0  0  0  0
   -1.5377    3.0280    0.0000 H   0  0  0  0  0  0  0  0  0  0  0  0
   -2.4754    3.5451    0.0000 H   0  0  0  0  0  0  0  0  0  0  0  0
   -4.1172    3.3937    0.0000 H   0  0  0  0  0  0  0  0  0  0  0  0
   -2.2883    4.2577    0.0000 H   0  0  0  0  0  0  0  0  0  0  0  0
   -4.1410    4.2121    0.0000 H   0  0  0  0  0  0  0  0  0  0  0  0
   -3.2278    4.7698    0.0000 H   0  0  0  0  0  0  0  0  0  0  0  0
   -4.8265    2.9781    0.0000 H   0  0  0  0  0  0  0  0  0  0  0  0
   -3.8825    1.3833    0.0000 H   0  0  0  0  0  0  0  0  0  0  0  0
   -4.8149    1.9082    0.0000 H   0  0  0  0  0  0  0  0  0  0  0  0
   -1.3181    0.9988    0.0000 H   0  0  0  0  0  0  0  0  0  0  0  0
   -2.0303    0.5906    0.0000 H   0  0  0  0  0  0  0  0  0  0  0  0
   -1.1045   -1.0149    0.0000 H   0  0  0  0  0  0  0  0  0  0  0  0
   -2.0308   -0.4794    0.0000 H   0  0  0  0  0  0  0  0  0  0  0  0
    0.0405   -0.0648    0.0000 H   0  0  0  0  0  0  0  0  0  0  0  0
    1.8938   -0.0498    0.0000 H   0  0  0  0  0  0  0  0  0  0  0  0
    0.9715   -0.5923    0.0000 H   0  0  0  0  0  0  0  0  0  0  0  0
    2.3540    1.8578    0.0000 H   0  0  0  0  0  0  0  0  0  0  0  0
    0.9062    3.8966    0.0000 H   0  0  0  0  0  0  0  0  0  0  0  0
    3.0813    1.4533    0.0000 H   0  0  0  0  0  0  0  0  0  0  0  0
    3.9905    3.0682    0.0000 H   0  0  0  0  0  0  0  0  0  0  0  0
    4.0021    1.9982    0.0000 H   0  0  0  0  0  0  0  0  0  0  0  0
    1.4091    4.2868    0.0000 H   0  0  0  0  0  0  0  0  0  0  0  0
    2.3417    4.8244    0.0000 H   0  0  0  0  0  0  0  0  0  0  0  0
    3.0557    5.1916    0.0000 H   0  0  0  0  0  0  0  0  0  0  0  0
    3.7920    2.7254    0.0000 H   0  0  0  0  0  0  0  0  0  0  0  0
    6.2712   -0.2272    0.0000 H   0  0  0  0  0  0  0  0  0  0  0  0
    6.2712    1.6260    0.0000 H   0  0  0  0  0  0  0  0  0  0  0  0
    6.8062    0.6994    0.0000 H   0  0  0  0  0  0  0  0  0  0  0  0
    2.9504    0.0938    0.0000 H   0  0  0  0  0  0  0  0  0  0  0  0
    2.0251   -1.5120    0.0000 H   0  0  0  0  0  0  0  0  0  0  0  0
    2.0242   -0.4420    0.0000 H   0  0  0  0  0  0  0  0  0  0  0  0
   -2.3747   -2.0036    0.0000 H   0  0  0  0  0  0  0  0  0  0  0  0
   -2.3805   -0.1503    0.0000 H   0  0  0  0  0  0  0  0  0  0  0  0
   -1.8426   -1.0752    0.0000 H   0  0  0  0  0  0  0  0  0  0  0  0
   -0.1592    3.0356    0.0000 H   0  0  0  0  0  0  0  0  0  0  0  0
   -2.0124    3.0217    0.0000 H   0  0  0  0  0  0  0  0  0  0  0  0
   -1.0898    3.5637    0.0000 H   0  0  0  0  0  0  0  0  0  0  0  0
    0.3484   -1.0071    0.0000 H   0  0  0  0  0  0  0  0  0  0  0  0
    1.2526    0.6106    0.0000 H   0  0  0  0  0  0  0  0  0  0  0  0
    1.2675   -0.4593    0.0000 H   0  0  0  0  0  0  0  0  0  0  0  0
   -3.8632    2.7214    0.0000 H   0  0  0  0  0  0  0  0  0  0  0  0
   -4.7506    1.0943    0.0000 H   0  0  0  0  0  0  0  0  0  0  0  0
   -4.7766    2.1640    0.0000 H   0  0  0  0  0  0  0  0  0  0  0  0
    2.0164    0.6020    0.0000 H   0  0  0  0  0  0  0  0  0  0  0  0
    2.9396   -1.0050    0.0000 H   0  0  0  0  0  0  0  0  0  0  0  0
    2.0141   -0.4680    0.0000 H   0  0  0  0  0  0  0  0  0  0  0  0
   -4.2302    1.5145    0.0000 H   0  0  0  0  0  0  0  0  0  0  0  0
   -5.1505    1.3224    0.0000 H   0  0  0  0  0  0  0  0  0  0  0  0
   -6.3875    0.4776    0.0000 H   0  0  0  0  0  0  0  0  0  0  0  0
   -5.2072    2.1202    0.0000 H   0  0  0  0  0  0  0  0  0  0  0  0
   -6.8054    1.1817    0.0000 H   0  0  0  0  0  0  0  0  0  0  0  0
   -6.2772    2.1123    0.0000 H   0  0  0  0  0  0  0  0  0  0  0  0
   -6.8062   -0.2290    0.0000 H   0  0  0  0  0  0  0  0  0  0  0  0
   -5.2074   -1.1664    0.0000 H   0  0  0  0  0  0  0  0  0  0  0  0
   -6.2774   -1.1592    0.0000 H   0  0  0  0  0  0  0  0  0  0  0  0
    4.4692    5.2119    0.0000 H   0  0  0  0  0  0  0  0  0  0  0  0
    5.2236    2.7489    0.0000 H   0  0  0  0  0  0  0  0  0  0  0  0
    6.0904    4.3121    0.0000 H   0  0  0  0  0  0  0  0  0  0  0  0
  1 14  1  0  0  0  0
  1 37  1  0  0  0  0
  1  2  1  0  0  0  0
  1 88  1  6  0  0  0
  2 24  2  0  0  0  0
  2  3  1  0  0  0  0
  3  4  1  0  0  0  0
  3 89  1  0  0  0  0
  4 15  1  0  0  0  0
  4  5  1  0  0  0  0
  4 90  1  6  0  0  0
  5 28  2  0  0  0  0
  5  6  1  0  0  0  0
  6 27  1  0  0  0  0
  6  7  1  0  0  0  0
  7 18  1  0  0  0  0
  7  8  1  0  0  0  0
  7 91  1  1  0  0  0
  8 25  2  0  0  0  0
  8  9  1  0  0  0  0
  9 10  1  0  0  0  0
  9 92  1  0  0  0  0
 10 11  1  0  0  0  0
 10 19  1  0  0  0  0
 10 93  1  6  0  0  0
 11 12  1  0  0  0  0
 11 26  2  0  0  0  0
 12 13  1  0  0  0  0
 12 94  1  0  0  0  0
 13 20  1  0  0  0  0
 13 95  1  1  0  0  0
 14 21  1  0  0  0  0
 14 96  1  0  0  0  0
 14 97  1  0  0  0  0
 15 16  1  0  0  0  0
 15 17  1  0  0  0  0
 15 98  1  0  0  0  0
 16 99  1  0  0  0  0
 16100  1  0  0  0  0
 16101  1  0  0  0  0
 17102  1  0  0  0  0
 17103  1  0  0  0  0
 17104  1  0  0  0  0
 18 29  1  0  0  0  0
 18105  1  0  0  0  0
 18106  1  0  0  0  0
 19107  1  0  0  0  0
 19108  1  0  0  0  0
 19109  1  0  0  0  0
 20110  1  0  0  0  0
 20111  1  0  0  0  0
 20112  1  0  0  0  0
 21 22  1  0  0  0  0
 21 23  1  0  0  0  0
 21113  1  0  0  0  0
 22114  1  0  0  0  0
 22115  1  0  0  0  0
 22116  1  0  0  0  0
 23117  1  0  0  0  0
 23118  1  0  0  0  0
 23119  1  0  0  0  0
 27120  1  0  0  0  0
 27121  1  0  0  0  0
 27122  1  0  0  0  0
 29 30  1  0  0  0  0
 29 31  1  0  0  0  0
 29123  1  0  0  0  0
 30124  1  0  0  0  0
 30125  1  0  0  0  0
 30126  1  0  0  0  0
 31127  1  0  0  0  0
 31128  1  0  0  0  0
 31129  1  0  0  0  0
 32 67  2  0  0  0  0
 32 13  1  0  0  0  0
 33130  1  0  0  0  0
 34 62  2  0  0  0  0
 34 33  1  0  0  0  0
 34 35  1  0  0  0  0
 35 85  1  6  0  0  0
 35 53  1  0  0  0  0
 36 64  2  0  0  0  0
 36 49  1  0  0  0  0
 36 37  1  0  0  0  0
 37 75  1  0  0  0  0
 38 61  1  0  0  0  0
 38 35  1  0  0  0  0
 38 39  1  0  0  0  0
 39 60  2  0  0  0  0
 40 39  1  0  0  0  0
 40 41  1  0  0  0  0
 40 58  1  0  0  0  0
 40131  1  1  0  0  0
 41 77  1  0  0  0  0
 42 81  1  0  0  0  0
 42 43  1  0  0  0  0
 42132  1  6  0  0  0
 43 65  2  0  0  0  0
 43 44  1  0  0  0  0
 44 79  1  0  0  0  0
 44 45  1  0  0  0  0
 45 46  1  0  0  0  0
 45 54  1  0  0  0  0
 45133  1  6  0  0  0
 46 66  2  0  0  0  0
 46 41  1  0  0  0  0
 47 76  1  0  0  0  0
 47 42  1  0  0  0  0
 47 32  1  0  0  0  0
 48 33  1  0  0  0  0
 48 51  1  0  0  0  0
 48 52  1  0  0  0  0
 48134  1  1  0  0  0
 49 50  1  0  0  0  0
 49135  1  0  0  0  0
 49136  1  0  0  0  0
 50 74  1  0  0  0  0
 50 51  1  0  0  0  0
 51 63  2  0  0  0  0
 52 80  1  0  0  0  0
 52137  1  0  0  0  0
 52138  1  0  0  0  0
 53 68  1  0  0  0  0
 53 69  1  0  0  0  0
 53139  1  1  0  0  0
 54 55  1  0  0  0  0
 54140  1  0  0  0  0
 54141  1  0  0  0  0
 55 56  1  0  0  0  0
 55 57  1  0  0  0  0
 55142  1  0  0  0  0
 56143  1  0  0  0  0
 56144  1  0  0  0  0
 56145  1  0  0  0  0
 57146  1  0  0  0  0
 57147  1  0  0  0  0
 57148  1  0  0  0  0
 58 78  1  0  0  0  0
 58 59  1  0  0  0  0
 58149  1  0  0  0  0
 59150  1  0  0  0  0
 59151  1  0  0  0  0
 59152  1  0  0  0  0
 61153  1  0  0  0  0
 61154  1  0  0  0  0
 61155  1  0  0  0  0
 68 70  1  0  0  0  0
 68 71  1  0  0  0  0
 68156  1  6  0  0  0
 69157  1  0  0  0  0
 70158  1  0  0  0  0
 70159  1  0  0  0  0
 70160  1  0  0  0  0
 71 72  1  0  0  0  0
 71161  1  0  0  0  0
 71162  1  0  0  0  0
 72 73  2  0  0  0  0
 72163  1  0  0  0  0
 73 86  1  0  0  0  0
 73164  1  0  0  0  0
 74165  1  0  0  0  0
 74166  1  0  0  0  0
 74167  1  0  0  0  0
 75168  1  0  0  0  0
 75169  1  0  0  0  0
 75170  1  0  0  0  0
 76171  1  0  0  0  0
 76172  1  0  0  0  0
 76173  1  0  0  0  0
 77174  1  0  0  0  0
 77175  1  0  0  0  0
 77176  1  0  0  0  0
 78177  1  0  0  0  0
 78178  1  0  0  0  0
 78179  1  0  0  0  0
 79180  1  0  0  0  0
 79181  1  0  0  0  0
 79182  1  0  0  0  0
 80183  1  0  0  0  0
 80184  1  0  0  0  0
 80185  1  0  0  0  0
 81 82  1  0  0  0  0
 81186  1  0  0  0  0
 81187  1  0  0  0  0
 82 83  1  0  0  0  0
 82 84  1  0  0  0  0
 82188  1  0  0  0  0
 83189  1  0  0  0  0
 83190  1  0  0  0  0
 83191  1  0  0  0  0
 84192  1  0  0  0  0
 84193  1  0  0  0  0
 84194  1  0  0  0  0
 86 87  2  0  0  0  0
 86195  1  0  0  0  0
 87196  1  0  0  0  0
 87197  1  0  0  0  0
M  END
>  <DRUGBANK_ID>
DB11693

>  <SECONDARY_ACCESSION_NUMBERS>
DB04906

>  <COMMON_NAME>
Voclosporin

>  <CAS_NUMBER>
515814-01-4

>  <UNII>
2PN063X6B1

>  <SYNONYMS>
Voclosporin

$$$$
