
 OpenBabel10282417072D

 19 18  0  0  1  0  0  0  0  0999 V2000
    1.9224    1.0164    0.0000 C   0  0  0  0  0  0  0  0  0  0  0  0
   -0.2211    1.4289    0.0000 C   0  0  0  0  0  0  0  0  0  0  0  0
    1.2079    1.4289    0.0000 C   0  0  0  0  0  0  0  0  0  0  0  0
   -0.9355    1.0164    0.0000 C   0  0  1  0  0  0  0  0  0  0  0  0
   -1.6500    1.4289    0.0000 C   0  0  0  0  0  0  0  0  0  0  0  0
   -0.9355    0.1914    0.0000 N   0  0  0  0  0  0  0  0  0  0  0  0
    1.2079    2.2539    0.0000 O   0  0  0  0  0  0  0  0  0  0  0  0
   -2.3645    1.0164    0.0000 O   0  0  0  0  0  0  0  0  0  0  0  0
   -1.6500    2.2539    0.0000 O   0  0  0  0  0  0  0  0  0  0  0  0
    0.4934    1.0164    0.0000 S   0  0  0  0  0  0  0  0  0  0  0  0
   -0.9355    1.8414    0.0000 H   0  0  0  0  0  0  0  0  0  0  0  0
    1.9224   -0.0536    0.0000 H   0  0  0  0  0  0  0  0  0  0  0  0
    2.8490    1.5514    0.0000 H   0  0  0  0  0  0  0  0  0  0  0  0
    2.8491    0.4814    0.0000 H   0  0  0  0  0  0  0  0  0  0  0  0
   -0.2211    2.4989    0.0000 H   0  0  0  0  0  0  0  0  0  0  0  0
    0.7055    1.9639    0.0000 H   0  0  0  0  0  0  0  0  0  0  0  0
   -1.8188   -0.3186    0.0000 H   0  0  0  0  0  0  0  0  0  0  0  0
   -0.0522   -0.3186    0.0000 H   0  0  0  0  0  0  0  0  0  0  0  0
   -0.8385    2.7224    0.0000 H   0  0  0  0  0  0  0  0  0  0  0  0
  1 12  1  0  0  0  0
  1 13  1  0  0  0  0
  1 14  1  0  0  0  0
  2 15  1  0  0  0  0
  2 16  1  0  0  0  0
  3  1  1  0  0  0  0
  4  2  1  0  0  0  0
  4  6  1  0  0  0  0
  4 11  1  1  0  0  0
  5  4  1  0  0  0  0
  6 17  1  0  0  0  0
  6 18  1  0  0  0  0
  7  3  2  0  0  0  0
  8  5  2  0  0  0  0
  9  5  1  0  0  0  0
  9 19  1  0  0  0  0
 10  2  1  0  0  0  0
 10  3  1  0  0  0  0
M  END
>  <DRUGBANK_ID>
DB02039

>  <SECONDARY_ACCESSION_NUMBERS>
EXPT02873

>  <COMMON_NAME>
S-Acetyl-Cysteine

>  <UNII>
SSR768695G

$$$$
