
 OpenBabel10282417072D

 63 65  0  0  0  0  0  0  0  0999 V2000
   -3.5724   -2.8875    0.0000 C   0  0  0  0  0  0  0  0  0  0  0  0
   -3.5724   -3.7125    0.0000 C   0  0  0  0  0  0  0  0  0  0  0  0
   -2.8579   -4.1250    0.0000 C   0  0  0  0  0  0  0  0  0  0  0  0
   -2.8579   -4.9500    0.0000 C   0  0  0  0  0  0  0  0  0  0  0  0
   -2.1434   -5.3625    0.0000 N   0  0  0  0  0  0  0  0  0  0  0  0
   -1.4289   -4.9500    0.0000 O   0  0  0  0  0  0  0  0  0  0  0  0
   -0.7145   -5.3625    0.0000 C   0  0  0  0  0  0  0  0  0  0  0  0
    0.0000   -4.9500    0.0000 C   0  0  3  0  0  0  0  0  0  0  0  0
    0.0000   -4.1250    0.0000 C   0  0  0  0  0  0  0  0  0  0  0  0
    0.7145   -5.3625    0.0000 O   0  0  0  0  0  0  0  0  0  0  0  0
    1.4289   -4.9500    0.0000 C   0  0  0  0  0  0  0  0  0  0  0  0
    1.4289   -4.1250    0.0000 C   0  0  0  0  0  0  0  0  0  0  0  0
    2.1434   -3.7125    0.0000 C   0  0  0  0  0  0  0  0  0  0  0  0
    2.8579   -4.1250    0.0000 C   0  0  0  0  0  0  0  0  0  0  0  0
    3.5724   -3.7125    0.0000 Cl  0  0  0  0  0  0  0  0  0  0  0  0
    2.8579   -4.9500    0.0000 C   0  0  0  0  0  0  0  0  0  0  0  0
    2.1434   -5.3625    0.0000 C   0  0  0  0  0  0  0  0  0  0  0  0
   -3.5724   -5.3625    0.0000 C   0  0  0  0  0  0  0  0  0  0  0  0
   -3.5724   -6.1875    0.0000 C   0  0  0  0  0  0  0  0  0  0  0  0
   -2.8579   -6.6000    0.0000 O   0  0  0  0  0  0  0  0  0  0  0  0
   -4.2868   -6.6000    0.0000 C   0  0  0  0  0  0  0  0  0  0  0  0
   -5.0013   -6.1875    0.0000 C   0  0  3  0  0  0  0  0  0  0  0  0
   -5.0013   -5.3625    0.0000 C   0  0  0  0  0  0  0  0  0  0  0  0
   -4.2868   -4.9500    0.0000 C   0  0  0  0  0  0  0  0  0  0  0  0
   -4.2868   -4.1250    0.0000 O   0  0  0  0  0  0  0  0  0  0  0  0
   -5.7158   -6.6000    0.0000 C   0  0  3  0  0  0  0  0  0  0  0  0
   -5.7158   -7.4250    0.0000 C   0  0  0  0  0  0  0  0  0  0  0  0
   -6.4302   -7.8375    0.0000 C   0  0  0  0  0  0  0  0  0  0  0  0
   -7.1447   -7.4250    0.0000 C   0  0  0  0  0  0  0  0  0  0  0  0
   -7.1447   -6.6000    0.0000 S   0  0  0  0  0  0  0  0  0  0  0  0
   -6.4302   -6.1875    0.0000 C   0  0  0  0  0  0  0  0  0  0  0  0
   -2.6458   -2.3525    0.0000 H   0  0  0  0  0  0  0  0  0  0  0  0
   -4.4990   -2.3525    0.0000 H   0  0  0  0  0  0  0  0  0  0  0  0
   -3.5724   -1.8175    0.0000 H   0  0  0  0  0  0  0  0  0  0  0  0
   -4.4990   -4.2475    0.0000 H   0  0  0  0  0  0  0  0  0  0  0  0
   -3.5724   -4.7825    0.0000 H   0  0  0  0  0  0  0  0  0  0  0  0
   -1.9313   -3.5900    0.0000 H   0  0  0  0  0  0  0  0  0  0  0  0
   -1.9313   -4.6600    0.0000 H   0  0  0  0  0  0  0  0  0  0  0  0
   -0.7145   -6.4325    0.0000 H   0  0  0  0  0  0  0  0  0  0  0  0
    0.2121   -5.8975    0.0000 H   0  0  0  0  0  0  0  0  0  0  0  0
   -0.9266   -4.4150    0.0000 H   0  0  0  0  0  0  0  0  0  0  0  0
    0.9266   -3.5900    0.0000 H   0  0  0  0  0  0  0  0  0  0  0  0
   -0.9266   -3.5900    0.0000 H   0  0  0  0  0  0  0  0  0  0  0  0
    0.0000   -3.0550    0.0000 H   0  0  0  0  0  0  0  0  0  0  0  0
    0.5352   -3.6090    0.0000 H   0  0  0  0  0  0  0  0  0  0  0  0
    2.1434   -2.6805    0.0000 H   0  0  0  0  0  0  0  0  0  0  0  0
    3.7516   -5.4660    0.0000 H   0  0  0  0  0  0  0  0  0  0  0  0
    2.1434   -6.3945    0.0000 H   0  0  0  0  0  0  0  0  0  0  0  0
   -2.8579   -7.5370    0.0000 H   0  0  0  0  0  0  0  0  0  0  0  0
   -4.2868   -7.6700    0.0000 H   0  0  0  0  0  0  0  0  0  0  0  0
   -5.2134   -7.1350    0.0000 H   0  0  0  0  0  0  0  0  0  0  0  0
   -4.0747   -5.6525    0.0000 H   0  0  0  0  0  0  0  0  0  0  0  0
   -5.9279   -4.8275    0.0000 H   0  0  0  0  0  0  0  0  0  0  0  0
   -5.0013   -4.2925    0.0000 H   0  0  0  0  0  0  0  0  0  0  0  0
   -4.7892   -7.1350    0.0000 H   0  0  0  0  0  0  0  0  0  0  0  0
   -4.7891   -7.9600    0.0000 H   0  0  0  0  0  0  0  0  0  0  0  0
   -5.7158   -8.4950    0.0000 H   0  0  0  0  0  0  0  0  0  0  0  0
   -6.4302   -8.9075    0.0000 H   0  0  0  0  0  0  0  0  0  0  0  0
   -7.3568   -8.3725    0.0000 H   0  0  0  0  0  0  0  0  0  0  0  0
   -8.0713   -7.9600    0.0000 H   0  0  0  0  0  0  0  0  0  0  0  0
   -8.0713   -6.8900    0.0000 H   0  0  0  0  0  0  0  0  0  0  0  0
   -6.4302   -5.1175    0.0000 H   0  0  0  0  0  0  0  0  0  0  0  0
   -5.5035   -5.6525    0.0000 H   0  0  0  0  0  0  0  0  0  0  0  0
  1  2  1  0  0  0  0
  1 32  1  0  0  0  0
  1 33  1  0  0  0  0
  1 34  1  0  0  0  0
  2  3  1  0  0  0  0
  2 35  1  0  0  0  0
  2 36  1  0  0  0  0
  3  4  1  0  0  0  0
  3 37  1  0  0  0  0
  3 38  1  0  0  0  0
  4  5  2  3  0  0  0
  4 18  1  0  0  0  0
  5  6  1  0  0  0  0
  6  7  1  0  0  0  0
  7  8  1  0  0  0  0
  7 39  1  0  0  0  0
  7 40  1  0  0  0  0
  8  9  1  0  0  0  0
  8 10  1  0  0  0  0
  8 41  1  0  0  0  0
  9 42  1  0  0  0  0
  9 43  1  0  0  0  0
  9 44  1  0  0  0  0
 10 11  1  0  0  0  0
 11 12  2  0  0  0  0
 11 17  1  0  0  0  0
 12 13  1  0  0  0  0
 12 45  1  0  0  0  0
 13 14  2  0  0  0  0
 13 46  1  0  0  0  0
 14 15  1  0  0  0  0
 14 16  1  0  0  0  0
 16 17  2  0  0  0  0
 16 47  1  0  0  0  0
 17 48  1  0  0  0  0
 18 19  2  0  0  0  0
 18 24  1  0  0  0  0
 19 20  1  0  0  0  0
 19 21  1  0  0  0  0
 20 49  1  0  0  0  0
 21 22  1  0  0  0  0
 21 50  1  0  0  0  0
 21 51  1  0  0  0  0
 22 23  1  0  0  0  0
 22 26  1  0  0  0  0
 22 52  1  0  0  0  0
 23 24  1  0  0  0  0
 23 53  1  0  0  0  0
 23 54  1  0  0  0  0
 24 25  2  0  0  0  0
 26 27  1  0  0  0  0
 26 31  1  0  0  0  0
 26 55  1  0  0  0  0
 27 28  1  0  0  0  0
 27 56  1  0  0  0  0
 27 57  1  0  0  0  0
 28 29  1  0  0  0  0
 28 58  1  0  0  0  0
 28 59  1  0  0  0  0
 29 30  1  0  0  0  0
 29 60  1  0  0  0  0
 29 61  1  0  0  0  0
 30 31  1  0  0  0  0
 31 62  1  0  0  0  0
 31 63  1  0  0  0  0
M  END
>  <DRUGBANK_ID>
DB14820

>  <COMMON_NAME>
Profoxydim

>  <CAS_NUMBER>
139001-49-3

>  <UNII>
T7QYT6EW74

>  <SYNONYMS>
TETRIS

$$$$
