
 OpenBabel10282417072D

 48 52  0  0  0  0  0  0  0  0999 V2000
    0.8761   -3.7687    0.0000 N   0  0  0  0  0  0  0  0  0  0  0  0
    0.0691   -3.5972    0.0000 N   0  0  0  0  0  0  0  0  0  0  0  0
   -0.7316   -2.3642    0.0000 N   0  0  0  0  0  0  0  0  0  0  0  0
   -0.0170   -1.1266    0.0000 N   0  0  0  0  0  0  0  0  0  0  0  0
   -0.7316    0.1108    0.0000 N   0  0  0  0  0  0  0  0  0  0  0  0
    0.6974    0.1108    0.0000 N   0  0  0  0  0  0  0  0  0  0  0  0
    2.1263    4.2360    0.0000 N   0  0  0  0  0  0  0  0  0  0  0  0
    2.1092   -2.9680    0.0000 C   0  0  0  0  0  0  0  0  0  0  0  0
    2.8628   -3.3036    0.0000 C   0  0  0  0  0  0  0  0  0  0  0  0
    2.7766   -2.4831    0.0000 C   0  0  0  0  0  0  0  0  0  0  0  0
    1.2886   -3.0542    0.0000 C   0  0  0  0  0  0  0  0  0  0  0  0
    0.7365   -2.4411    0.0000 C   0  0  0  0  0  0  0  0  0  0  0  0
   -0.0170   -2.7767    0.0000 C   0  0  0  0  0  0  0  0  0  0  0  0
   -0.7316   -1.5391    0.0000 C   0  0  0  0  0  0  0  0  0  0  0  0
   -1.4461   -1.1266    0.0000 C   0  0  0  0  0  0  0  0  0  0  0  0
    0.6974    2.5860    0.0000 C   0  0  3  0  0  0  0  0  0  0  0  0
   -1.4461   -0.3016    0.0000 C   0  0  0  0  0  0  0  0  0  0  0  0
   -2.1836   -1.5677    0.0000 C   0  0  0  0  0  0  0  0  0  0  0  0
   -0.0170   -0.3016    0.0000 C   0  0  0  0  0  0  0  0  0  0  0  0
    1.4118    2.1734    0.0000 C   0  0  0  0  0  0  0  0  0  0  0  0
   -0.0170    2.1734    0.0000 C   0  0  0  0  0  0  0  0  0  0  0  0
    0.6974    0.9359    0.0000 C   0  0  0  0  0  0  0  0  0  0  0  0
    0.6974    3.4110    0.0000 C   0  0  0  0  0  0  0  0  0  0  0  0
   -2.1836    0.1395    0.0000 C   0  0  0  0  0  0  0  0  0  0  0  0
    1.4118    1.3484    0.0000 C   0  0  0  0  0  0  0  0  0  0  0  0
   -0.0170    1.3484    0.0000 C   0  0  0  0  0  0  0  0  0  0  0  0
   -2.9312   -1.1438    0.0000 C   0  0  0  0  0  0  0  0  0  0  0  0
   -2.9312   -0.2844    0.0000 C   0  0  0  0  0  0  0  0  0  0  0  0
    1.4118    3.8235    0.0000 C   0  0  0  0  0  0  0  0  0  0  0  0
    1.2766   -4.6681    0.0000 H   0  0  0  0  0  0  0  0  0  0  0  0
   -1.5842   -2.8565    0.0000 H   0  0  0  0  0  0  0  0  0  0  0  0
    1.7258   -1.9691    0.0000 H   0  0  0  0  0  0  0  0  0  0  0  0
    3.4917   -4.1693    0.0000 H   0  0  0  0  0  0  0  0  0  0  0  0
    3.8618   -2.9202    0.0000 H   0  0  0  0  0  0  0  0  0  0  0  0
    3.2118   -1.5056    0.0000 H   0  0  0  0  0  0  0  0  0  0  0  0
    3.8334   -2.6505    0.0000 H   0  0  0  0  0  0  0  0  0  0  0  0
    0.9510   -1.4316    0.0000 H   0  0  0  0  0  0  0  0  0  0  0  0
    0.6974    1.5160    0.0000 H   0  0  0  0  0  0  0  0  0  0  0  0
   -2.1716   -2.5996    0.0000 H   0  0  0  0  0  0  0  0  0  0  0  0
    2.3056    2.6893    0.0000 H   0  0  0  0  0  0  0  0  0  0  0  0
   -0.9108    2.6893    0.0000 H   0  0  0  0  0  0  0  0  0  0  0  0
   -0.2293    3.9460    0.0000 H   0  0  0  0  0  0  0  0  0  0  0  0
    0.6974    4.4810    0.0000 H   0  0  0  0  0  0  0  0  0  0  0  0
   -2.1716    1.1714    0.0000 H   0  0  0  0  0  0  0  0  0  0  0  0
    2.3055    0.8324    0.0000 H   0  0  0  0  0  0  0  0  0  0  0  0
   -0.9107    0.8324    0.0000 H   0  0  0  0  0  0  0  0  0  0  0  0
   -3.8229   -1.6633    0.0000 H   0  0  0  0  0  0  0  0  0  0  0  0
   -3.8229    0.2351    0.0000 H   0  0  0  0  0  0  0  0  0  0  0  0
  1  2  1  0  0  0  0
  1 11  1  0  0  0  0
  1 30  1  0  0  0  0
  2 13  2  0  0  0  0
  3 13  1  0  0  0  0
  3 14  1  0  0  0  0
  3 31  1  0  0  0  0
  4 14  2  0  0  0  0
  4 19  1  0  0  0  0
  5 17  1  0  0  0  0
  5 19  2  0  0  0  0
  6 19  1  0  0  0  0
  6 22  2  0  0  0  0
  7 29  3  0  0  0  0
  8  9  1  0  0  0  0
  8 10  1  0  0  0  0
  8 11  1  0  0  0  0
  8 32  1  0  0  0  0
  9 10  1  0  0  0  0
  9 33  1  0  0  0  0
  9 34  1  0  0  0  0
 10 35  1  0  0  0  0
 10 36  1  0  0  0  0
 11 12  2  0  0  0  0
 12 13  1  0  0  0  0
 12 37  1  0  0  0  0
 14 15  1  0  0  0  0
 15 17  1  0  0  0  0
 15 18  2  0  0  0  0
 16 20  1  0  0  0  0
 16 21  1  0  0  0  0
 16 23  1  0  0  0  0
 16 38  1  0  0  0  0
 17 24  2  0  0  0  0
 18 27  1  0  0  0  0
 18 39  1  0  0  0  0
 20 25  2  0  0  0  0
 20 40  1  0  0  0  0
 21 26  2  0  0  0  0
 21 41  1  0  0  0  0
 22 25  1  0  0  0  0
 22 26  1  0  0  0  0
 23 29  1  0  0  0  0
 23 42  1  0  0  0  0
 23 43  1  0  0  0  0
 24 28  1  0  0  0  0
 24 44  1  0  0  0  0
 25 45  1  0  0  0  0
 26 46  1  0  0  0  0
 27 28  2  0  0  0  0
 27 47  1  0  0  0  0
 28 48  1  0  0  0  0
M  END
>  <DRUGBANK_ID>
DB07853

>  <COMMON_NAME>
2-[4-[4-[(5-cyclopropyl-1H-pyrazol-3-yl)amino]quinazolin-2-yl]iminocyclohexa-2,5-dien-1-yl]acetonitrile

$$$$
