
 OpenBabel10282417072D

 32 32  0  0  0  0  0  0  0  0999 V2000
   -1.7189   -3.0934    0.0000 C   0  0  0  0  0  0  0  0  0  0  0  0
    1.1486    1.8559    0.0000 C   0  0  0  0  0  0  0  0  0  0  0  0
   -1.7202   -3.7534    0.0000 C   0  0  0  0  0  0  0  0  0  0  0  0
    1.1486    2.6809    0.0000 C   0  0  0  0  0  0  0  0  0  0  0  0
    0.4342    1.4434    0.0000 C   0  0  0  0  0  0  0  0  0  0  0  0
   -0.2802    1.8559    0.0000 C   0  0  0  0  0  0  0  0  0  0  0  0
    0.4342    3.0934    0.0000 C   0  0  0  0  0  0  0  0  0  0  0  0
    1.7202    1.5259    0.0000 Cl  0  0  0  0  0  0  0  0  0  0  0  0
   -1.0017   -1.8563    0.0000 N   0  0  0  0  0  0  0  0  0  0  0  0
   -0.2802    2.6809    0.0000 C   0  0  0  0  0  0  0  0  0  0  0  0
    0.4342    3.7534    0.0000 Cl  0  0  0  0  0  0  0  0  0  0  0  0
   -1.7172   -2.2680    0.0000 C   0  0  0  0  0  0  0  0  0  0  0  0
    0.4325    0.6180    0.0000 O   0  0  0  0  0  0  0  0  0  0  0  0
   -0.2846   -0.6191    0.0000 C   0  0  0  0  0  0  0  0  0  0  0  0
   -1.0000   -1.0308    0.0000 C   0  0  0  0  0  0  0  0  0  0  0  0
   -0.2829    0.2063    0.0000 C   0  0  0  0  0  0  0  0  0  0  0  0
   -0.4307   -2.1872    0.0000 C   0  0  0  0  0  0  0  0  0  0  0  0
   -1.7222   -4.7474    0.0000 H   0  0  0  0  0  0  0  0  0  0  0  0
    2.0423    3.1969    0.0000 H   0  0  0  0  0  0  0  0  0  0  0  0
   -1.1739    1.3399    0.0000 H   0  0  0  0  0  0  0  0  0  0  0  0
   -1.1739    3.1969    0.0000 H   0  0  0  0  0  0  0  0  0  0  0  0
   -2.6429   -1.7314    0.0000 H   0  0  0  0  0  0  0  0  0  0  0  0
   -1.7155   -1.1980    0.0000 H   0  0  0  0  0  0  0  0  0  0  0  0
    0.6411   -1.1557    0.0000 H   0  0  0  0  0  0  0  0  0  0  0  0
    0.6431   -0.0859    0.0000 H   0  0  0  0  0  0  0  0  0  0  0  0
   -1.9257   -0.4942    0.0000 H   0  0  0  0  0  0  0  0  0  0  0  0
   -0.9983    0.0392    0.0000 H   0  0  0  0  0  0  0  0  0  0  0  0
   -1.2086    0.7429    0.0000 H   0  0  0  0  0  0  0  0  0  0  0  0
   -1.2106   -0.3269    0.0000 H   0  0  0  0  0  0  0  0  0  0  0  0
   -0.4324   -3.2572    0.0000 H   0  0  0  0  0  0  0  0  0  0  0  0
    0.4968   -1.6537    0.0000 H   0  0  0  0  0  0  0  0  0  0  0  0
    0.4951   -2.7237    0.0000 H   0  0  0  0  0  0  0  0  0  0  0  0
  1  3  3  0  0  0  0
  1 12  1  0  0  0  0
  2  4  1  0  0  0  0
  2  5  2  0  0  0  0
  2  8  1  0  0  0  0
  3 18  1  0  0  0  0
  4  7  2  0  0  0  0
  4 19  1  0  0  0  0
  5  6  1  0  0  0  0
  5 13  1  0  0  0  0
  6 10  2  0  0  0  0
  6 20  1  0  0  0  0
  7 10  1  0  0  0  0
  7 11  1  0  0  0  0
  9 12  1  0  0  0  0
  9 15  1  0  0  0  0
  9 17  1  0  0  0  0
 10 21  1  0  0  0  0
 12 22  1  0  0  0  0
 12 23  1  0  0  0  0
 13 16  1  0  0  0  0
 14 15  1  0  0  0  0
 14 16  1  0  0  0  0
 14 24  1  0  0  0  0
 14 25  1  0  0  0  0
 15 26  1  0  0  0  0
 15 27  1  0  0  0  0
 16 28  1  0  0  0  0
 16 29  1  0  0  0  0
 17 30  1  0  0  0  0
 17 31  1  0  0  0  0
 17 32  1  0  0  0  0
M  END
>  <DRUGBANK_ID>
DB04017

>  <SECONDARY_ACCESSION_NUMBERS>
EXPT02182; DB14032

>  <COMMON_NAME>
Clorgiline

>  <CAS_NUMBER>
17780-72-2

>  <UNII>
LYJ16FZU9Q

>  <SYNONYMS>
Clorgilina; Clorgiline; Clorgilinum; Clorgyline

$$$$
