
 OpenBabel10282417072D

 37 38  0  0  1  0  0  0  0  0999 V2000
    2.8579   -1.6500    0.0000 C   0  0  0  0  0  0  0  0  0  0  0  0
    3.5724   -1.2375    0.0000 C   0  0  0  0  0  0  0  0  0  0  0  0
    2.1434   -1.2375    0.0000 C   0  0  0  0  0  0  0  0  0  0  0  0
    3.5724   -0.4125    0.0000 C   0  0  0  0  0  0  0  0  0  0  0  0
    2.1434   -0.4125    0.0000 C   0  0  0  0  0  0  0  0  0  0  0  0
    2.1434    2.0625    0.0000 C   0  0  0  0  0  0  0  0  0  0  0  0
    3.5724    2.0625    0.0000 C   0  0  0  0  0  0  0  0  0  0  0  0
    2.1434    1.2375    0.0000 C   0  0  0  0  0  0  0  0  0  0  0  0
    3.5724    1.2375    0.0000 C   0  0  0  0  0  0  0  0  0  0  0  0
    2.8579    3.3000    0.0000 C   0  0  0  0  0  0  0  0  0  0  0  0
    2.1434    4.5375    0.0000 C   0  0  0  0  0  0  0  0  0  0  0  0
    2.8579    0.0000    0.0000 C   0  0  0  0  0  0  0  0  0  0  0  0
    2.1434    3.7125    0.0000 C   0  0  1  0  0  0  0  0  0  0  0  0
    2.8579    2.4750    0.0000 N   0  0  0  0  0  0  0  0  0  0  0  0
    2.8579    0.8250    0.0000 N   0  0  0  0  0  0  0  0  0  0  0  0
    1.4289    4.9500    0.0000 O   0  0  0  0  0  0  0  0  0  0  0  0
    1.4289    3.3000    0.0000 O   0  0  0  0  0  0  0  0  0  0  0  0
    2.8579    4.1250    0.0000 H   0  0  0  0  0  0  0  0  0  0  0  0
    2.8579   -2.6820    0.0000 H   0  0  0  0  0  0  0  0  0  0  0  0
    4.4661   -1.7535    0.0000 H   0  0  0  0  0  0  0  0  0  0  0  0
    1.2497   -1.7535    0.0000 H   0  0  0  0  0  0  0  0  0  0  0  0
    4.4661    0.1035    0.0000 H   0  0  0  0  0  0  0  0  0  0  0  0
    1.2497    0.1035    0.0000 H   0  0  0  0  0  0  0  0  0  0  0  0
    1.2168    2.5975    0.0000 H   0  0  0  0  0  0  0  0  0  0  0  0
    2.1434    3.1325    0.0000 H   0  0  0  0  0  0  0  0  0  0  0  0
    4.4990    2.5975    0.0000 H   0  0  0  0  0  0  0  0  0  0  0  0
    3.5724    3.1325    0.0000 H   0  0  0  0  0  0  0  0  0  0  0  0
    1.2168    0.7025    0.0000 H   0  0  0  0  0  0  0  0  0  0  0  0
    2.1434    0.1675    0.0000 H   0  0  0  0  0  0  0  0  0  0  0  0
    4.4990    0.7025    0.0000 H   0  0  0  0  0  0  0  0  0  0  0  0
    3.5724    0.1675    0.0000 H   0  0  0  0  0  0  0  0  0  0  0  0
    3.7845    3.8350    0.0000 H   0  0  0  0  0  0  0  0  0  0  0  0
    3.7845    2.7650    0.0000 H   0  0  0  0  0  0  0  0  0  0  0  0
    3.0700    5.0725    0.0000 H   0  0  0  0  0  0  0  0  0  0  0  0
    2.1434    5.6075    0.0000 H   0  0  0  0  0  0  0  0  0  0  0  0
    1.4289    5.9200    0.0000 H   0  0  0  0  0  0  0  0  0  0  0  0
    0.5889    3.7850    0.0000 H   0  0  0  0  0  0  0  0  0  0  0  0
  1 19  1  0  0  0  0
  2  1  2  0  0  0  0
  2 20  1  0  0  0  0
  3  1  1  0  0  0  0
  3 21  1  0  0  0  0
  4  2  1  0  0  0  0
  4 22  1  0  0  0  0
  5  3  2  0  0  0  0
  5 23  1  0  0  0  0
  6 24  1  0  0  0  0
  6 25  1  0  0  0  0
  7 26  1  0  0  0  0
  7 27  1  0  0  0  0
  8  6  1  0  0  0  0
  8 28  1  0  0  0  0
  8 29  1  0  0  0  0
  9  7  1  0  0  0  0
  9 30  1  0  0  0  0
  9 31  1  0  0  0  0
 10 32  1  0  0  0  0
 10 33  1  0  0  0  0
 11 34  1  0  0  0  0
 11 35  1  0  0  0  0
 12  4  2  0  0  0  0
 12  5  1  0  0  0  0
 13 10  1  0  0  0  0
 13 11  1  0  0  0  0
 13 17  1  0  0  0  0
 13 18  1  1  0  0  0
 14  6  1  0  0  0  0
 14  7  1  0  0  0  0
 14 10  1  0  0  0  0
 15  8  1  0  0  0  0
 15  9  1  0  0  0  0
 15 12  1  0  0  0  0
 16 11  1  0  0  0  0
 16 36  1  0  0  0  0
 17 37  1  0  0  0  0
M  END
>  <DRUGBANK_ID>
DB12472

>  <COMMON_NAME>
Levodropropizine

>  <CAS_NUMBER>
99291-25-5

>  <UNII>
3O31P6T4G3

>  <SYNONYMS>
levodropropizina; Levodropropizine

$$$$
