
 OpenBabel10282417072D

 37 36  0  0  0  0  0  0  0  0999 V2000
    4.2794   -0.6205    0.0000 Cl  0  0  0  0  0  0  0  0  0  0  0  0
    3.5605    0.6205    0.0000 O   0  0  0  0  0  0  0  0  0  0  0  0
    3.5605   -0.2011    0.0000 C   0  0  0  0  0  0  0  0  0  0  0  0
    2.8502   -0.6205    0.0000 C   0  0  0  0  0  0  0  0  0  0  0  0
    2.1483   -0.2011    0.0000 C   0  0  0  0  0  0  0  0  0  0  0  0
    1.4293   -0.6205    0.0000 C   0  0  0  0  0  0  0  0  0  0  0  0
    0.7189   -0.2011    0.0000 C   0  0  0  0  0  0  0  0  0  0  0  0
    0.0000   -0.6205    0.0000 C   0  0  0  0  0  0  0  0  0  0  0  0
   -0.7189   -0.2011    0.0000 C   0  0  0  0  0  0  0  0  0  0  0  0
   -1.4293   -0.6205    0.0000 C   0  0  0  0  0  0  0  0  0  0  0  0
   -2.1483   -0.2011    0.0000 C   0  0  0  0  0  0  0  0  0  0  0  0
   -2.8587   -0.6205    0.0000 C   0  0  0  0  0  0  0  0  0  0  0  0
   -3.5604   -0.2011    0.0000 C   0  0  0  0  0  0  0  0  0  0  0  0
   -4.2794   -0.6205    0.0000 C   0  0  0  0  0  0  0  0  0  0  0  0
    2.8474   -1.6905    0.0000 H   0  0  0  0  0  0  0  0  0  0  0  0
    1.9189   -1.1473    0.0000 H   0  0  0  0  0  0  0  0  0  0  0  0
    2.1539    0.8689    0.0000 H   0  0  0  0  0  0  0  0  0  0  0  0
    1.2219    0.3343    0.0000 H   0  0  0  0  0  0  0  0  0  0  0  0
    1.4265   -1.6905    0.0000 H   0  0  0  0  0  0  0  0  0  0  0  0
    0.4994   -1.1498    0.0000 H   0  0  0  0  0  0  0  0  0  0  0  0
    0.7217    0.8689    0.0000 H   0  0  0  0  0  0  0  0  0  0  0  0
   -0.2083    0.3330    0.0000 H   0  0  0  0  0  0  0  0  0  0  0  0
    0.0000   -1.6905    0.0000 H   0  0  0  0  0  0  0  0  0  0  0  0
   -0.9279   -1.1534    0.0000 H   0  0  0  0  0  0  0  0  0  0  0  0
   -0.7217    0.8689    0.0000 H   0  0  0  0  0  0  0  0  0  0  0  0
   -1.6488    0.3282    0.0000 H   0  0  0  0  0  0  0  0  0  0  0  0
   -1.4265   -1.6905    0.0000 H   0  0  0  0  0  0  0  0  0  0  0  0
   -2.3564   -1.1547    0.0000 H   0  0  0  0  0  0  0  0  0  0  0  0
   -2.1511    0.8689    0.0000 H   0  0  0  0  0  0  0  0  0  0  0  0
   -3.0782    0.3282    0.0000 H   0  0  0  0  0  0  0  0  0  0  0  0
   -2.8616   -1.6905    0.0000 H   0  0  0  0  0  0  0  0  0  0  0  0
   -3.7901   -1.1472    0.0000 H   0  0  0  0  0  0  0  0  0  0  0  0
   -3.5547    0.8689    0.0000 H   0  0  0  0  0  0  0  0  0  0  0  0
   -4.4868    0.3343    0.0000 H   0  0  0  0  0  0  0  0  0  0  0  0
   -5.2084   -0.0896    0.0000 H   0  0  0  0  0  0  0  0  0  0  0  0
   -4.2746   -1.6905    0.0000 H   0  0  0  0  0  0  0  0  0  0  0  0
   -5.2037   -1.1596    0.0000 H   0  0  0  0  0  0  0  0  0  0  0  0
  1  3  1  0  0  0  0
  2  3  2  0  0  0  0
  3  4  1  0  0  0  0
  4  5  1  0  0  0  0
  4 15  1  0  0  0  0
  4 16  1  0  0  0  0
  5  6  1  0  0  0  0
  5 17  1  0  0  0  0
  5 18  1  0  0  0  0
  6  7  1  0  0  0  0
  6 19  1  0  0  0  0
  6 20  1  0  0  0  0
  7  8  1  0  0  0  0
  7 21  1  0  0  0  0
  7 22  1  0  0  0  0
  8  9  1  0  0  0  0
  8 23  1  0  0  0  0
  8 24  1  0  0  0  0
  9 10  1  0  0  0  0
  9 25  1  0  0  0  0
  9 26  1  0  0  0  0
 10 11  1  0  0  0  0
 10 27  1  0  0  0  0
 10 28  1  0  0  0  0
 11 12  1  0  0  0  0
 11 29  1  0  0  0  0
 11 30  1  0  0  0  0
 12 13  1  0  0  0  0
 12 31  1  0  0  0  0
 12 32  1  0  0  0  0
 13 14  1  0  0  0  0
 13 33  1  0  0  0  0
 13 34  1  0  0  0  0
 14 35  1  0  0  0  0
 14 36  1  0  0  0  0
 14 37  1  0  0  0  0
M  END
>  <DRUGBANK_ID>
DB14670

>  <SECONDARY_ACCESSION_NUMBERS>
DBSALT002257

>  <COMMON_NAME>
Lauroyl chloride

>  <CAS_NUMBER>
112-16-3

>  <UNII>
9LHL10777I

>  <SYNONYMS>
Dodecanoic acid, chloride; Dodecanoyl chloride; Lauric acid chloride; N-dodecanoyl chloride

$$$$
