
 OpenBabel10282417072D

 29 29  0  0  0  0  0  0  0  0999 V2000
   -0.0068   -1.2360    0.0000 C   0  0  0  0  0  0  0  0  0  0  0  0
   -0.0068   -0.4017    0.0000 C   0  0  3  0  0  0  0  0  0  0  0  0
    0.8275   -1.2360    0.0000 C   0  0  0  0  0  0  0  0  0  0  0  0
   -0.8275   -1.2360    0.0000 C   0  0  0  0  0  0  0  0  0  0  0  0
   -0.0068   -2.0464    0.0000 O   0  0  0  0  0  0  0  0  0  0  0  0
   -0.7175    0.0171    0.0000 C   0  0  0  0  0  0  0  0  0  0  0  0
    0.7175    0.0000    0.0000 C   0  0  0  0  0  0  0  0  0  0  0  0
   -0.7175    0.8171    0.0000 C   0  0  0  0  0  0  0  0  0  0  0  0
    0.7175    0.8343    0.0000 C   0  0  0  0  0  0  0  0  0  0  0  0
   -0.0068    1.2360    0.0000 C   0  0  0  0  0  0  0  0  0  0  0  0
   -0.0068    2.0464    0.0000 C   0  0  0  0  0  0  0  0  0  0  0  0
   -0.9358   -0.9326    0.0000 H   0  0  0  0  0  0  0  0  0  0  0  0
    1.3625   -2.1626    0.0000 H   0  0  0  0  0  0  0  0  0  0  0  0
    1.3625   -0.3094    0.0000 H   0  0  0  0  0  0  0  0  0  0  0  0
    1.8975   -1.2360    0.0000 H   0  0  0  0  0  0  0  0  0  0  0  0
   -1.3625   -0.3094    0.0000 H   0  0  0  0  0  0  0  0  0  0  0  0
   -1.3625   -2.1626    0.0000 H   0  0  0  0  0  0  0  0  0  0  0  0
   -1.8975   -1.2360    0.0000 H   0  0  0  0  0  0  0  0  0  0  0  0
   -0.8468   -2.5314    0.0000 H   0  0  0  0  0  0  0  0  0  0  0  0
   -1.6465   -0.5138    0.0000 H   0  0  0  0  0  0  0  0  0  0  0  0
   -1.6430    0.5542    0.0000 H   0  0  0  0  0  0  0  0  0  0  0  0
    1.6395   -0.5430    0.0000 H   0  0  0  0  0  0  0  0  0  0  0  0
    1.6464    0.5310    0.0000 H   0  0  0  0  0  0  0  0  0  0  0  0
   -1.6465    1.3479    0.0000 H   0  0  0  0  0  0  0  0  0  0  0  0
   -0.7247    1.8871    0.0000 H   0  0  0  0  0  0  0  0  0  0  0  0
    1.6068    1.3580    0.0000 H   0  0  0  0  0  0  0  0  0  0  0  0
    0.9198    2.5814    0.0000 H   0  0  0  0  0  0  0  0  0  0  0  0
   -0.9334    2.5814    0.0000 H   0  0  0  0  0  0  0  0  0  0  0  0
   -0.0068    3.1164    0.0000 H   0  0  0  0  0  0  0  0  0  0  0  0
  1  2  1  0  0  0  0
  1  3  1  0  0  0  0
  1  4  1  0  0  0  0
  1  5  1  0  0  0  0
  2  6  1  0  0  0  0
  2  7  1  0  0  0  0
  2 12  1  0  0  0  0
  3 13  1  0  0  0  0
  3 14  1  0  0  0  0
  3 15  1  0  0  0  0
  4 16  1  0  0  0  0
  4 17  1  0  0  0  0
  4 18  1  0  0  0  0
  5 19  1  0  0  0  0
  6  8  1  0  0  0  0
  6 20  1  0  0  0  0
  6 21  1  0  0  0  0
  7  9  1  0  0  0  0
  7 22  1  0  0  0  0
  7 23  1  0  0  0  0
  8 10  1  0  0  0  0
  8 24  1  0  0  0  0
  8 25  1  0  0  0  0
  9 10  2  0  0  0  0
  9 26  1  0  0  0  0
 10 11  1  0  0  0  0
 11 27  1  0  0  0  0
 11 28  1  0  0  0  0
 11 29  1  0  0  0  0
M  END
>  <DRUGBANK_ID>
DB15956

>  <COMMON_NAME>
Terpineol

>  <CAS_NUMBER>
8000-41-7

>  <UNII>
21334LVV8W

$$$$
