
 OpenBabel10282417072D

 84 88  0  0  0  0  0  0  0  0999 V2000
    2.8579   -0.0000    0.0000 C   0  0  0  0  0  0  0  0  0  0  0  0
    2.1434   -0.4125    0.0000 C   0  0  0  0  0  0  0  0  0  0  0  0
    2.1434   -1.2375    0.0000 C   0  0  0  0  0  0  0  0  0  0  0  0
    2.8579   -1.6500    0.0000 C   0  0  0  0  0  0  0  0  0  0  0  0
    2.8579   -2.4750    0.0000 N   0  0  0  0  0  0  0  0  0  0  0  0
    2.1434   -2.8875    0.0000 C   0  0  0  0  0  0  0  0  0  0  0  0
    1.4289   -2.4750    0.0000 C   0  0  0  0  0  0  0  0  0  0  0  0
    1.4289   -1.6500    0.0000 N   0  0  0  0  0  0  0  0  0  0  0  0
    0.7145   -2.8875    0.0000 C   0  0  0  0  0  0  0  0  0  0  0  0
    0.0000   -2.4750    0.0000 O   0  0  0  0  0  0  0  0  0  0  0  0
    0.7145   -3.7125    0.0000 N   0  0  0  0  0  0  0  0  0  0  0  0
    2.1434   -3.7125    0.0000 N   0  0  0  0  0  0  0  0  0  0  0  0
    2.8579   -4.1250    0.0000 C   0  0  0  0  0  0  0  0  0  0  0  0
    3.5724   -3.7125    0.0000 C   0  0  0  0  0  0  0  0  0  0  0  0
    4.2868   -4.1250    0.0000 C   0  0  0  0  0  0  0  0  0  0  0  0
    4.2868   -4.9500    0.0000 C   0  0  0  0  0  0  0  0  0  0  0  0
    3.5724   -5.3625    0.0000 C   0  0  0  0  0  0  0  0  0  0  0  0
    2.8579   -4.9500    0.0000 C   0  0  0  0  0  0  0  0  0  0  0  0
    3.5724   -6.1875    0.0000 O   0  0  0  0  0  0  0  0  0  0  0  0
    2.8579   -6.6000    0.0000 C   0  0  0  0  0  0  0  0  0  0  0  0
    5.0013   -5.3625    0.0000 N   0  0  0  0  0  0  0  0  0  0  0  0
    5.7158   -4.9500    0.0000 C   0  0  0  0  0  0  0  0  0  0  0  0
    6.4302   -5.3625    0.0000 C   0  0  0  0  0  0  0  0  0  0  0  0
    6.4302   -6.1875    0.0000 C   0  0  0  0  0  0  0  0  0  0  0  0
    5.7158   -6.6000    0.0000 C   0  0  0  0  0  0  0  0  0  0  0  0
    5.0013   -6.1875    0.0000 C   0  0  0  0  0  0  0  0  0  0  0  0
    7.1447   -6.6000    0.0000 N   0  0  0  0  0  0  0  0  0  0  0  0
    7.8592   -6.1875    0.0000 C   0  0  0  0  0  0  0  0  0  0  0  0
    8.5737   -6.6000    0.0000 C   0  0  0  0  0  0  0  0  0  0  0  0
    8.5737   -7.4250    0.0000 N   0  0  0  0  0  0  0  0  0  0  0  0
    7.8592   -7.8375    0.0000 C   0  0  0  0  0  0  0  0  0  0  0  0
    7.1447   -7.4250    0.0000 C   0  0  0  0  0  0  0  0  0  0  0  0
    9.2881   -7.8375    0.0000 C   0  0  0  0  0  0  0  0  0  0  0  0
    3.5724   -1.2375    0.0000 N   0  0  0  0  0  0  0  0  0  0  0  0
    4.2868   -1.6500    0.0000 C   0  0  0  0  0  0  0  0  0  0  0  0
    5.0013   -1.2375    0.0000 C   0  0  0  0  0  0  0  0  0  0  0  0
    5.7158   -1.6500    0.0000 C   0  0  0  0  0  0  0  0  0  0  0  0
    5.7158   -2.4750    0.0000 O   0  0  0  0  0  0  0  0  0  0  0  0
    5.0013   -2.8875    0.0000 C   0  0  0  0  0  0  0  0  0  0  0  0
    4.2868   -2.4750    0.0000 C   0  0  0  0  0  0  0  0  0  0  0  0
    3.7845   -0.5350    0.0000 H   0  0  0  0  0  0  0  0  0  0  0  0
    2.8579    1.0700    0.0000 H   0  0  0  0  0  0  0  0  0  0  0  0
    3.7846    0.5350    0.0000 H   0  0  0  0  0  0  0  0  0  0  0  0
    1.2168    0.1225    0.0000 H   0  0  0  0  0  0  0  0  0  0  0  0
    1.2168   -0.9475    0.0000 H   0  0  0  0  0  0  0  0  0  0  0  0
   -0.1381   -4.2047    0.0000 H   0  0  0  0  0  0  0  0  0  0  0  0
    1.5671   -4.2047    0.0000 H   0  0  0  0  0  0  0  0  0  0  0  0
    1.2908   -4.2048    0.0000 H   0  0  0  0  0  0  0  0  0  0  0  0
    3.5724   -2.6805    0.0000 H   0  0  0  0  0  0  0  0  0  0  0  0
    5.1805   -3.6090    0.0000 H   0  0  0  0  0  0  0  0  0  0  0  0
    1.9642   -5.4660    0.0000 H   0  0  0  0  0  0  0  0  0  0  0  0
    1.9313   -6.0650    0.0000 H   0  0  0  0  0  0  0  0  0  0  0  0
    2.8579   -7.6700    0.0000 H   0  0  0  0  0  0  0  0  0  0  0  0
    1.9312   -7.1350    0.0000 H   0  0  0  0  0  0  0  0  0  0  0  0
    5.7158   -3.8800    0.0000 H   0  0  0  0  0  0  0  0  0  0  0  0
    6.6425   -4.4150    0.0000 H   0  0  0  0  0  0  0  0  0  0  0  0
    7.3569   -4.8275    0.0000 H   0  0  0  0  0  0  0  0  0  0  0  0
    7.3568   -5.8975    0.0000 H   0  0  0  0  0  0  0  0  0  0  0  0
    6.4302   -7.2575    0.0000 H   0  0  0  0  0  0  0  0  0  0  0  0
    5.7158   -7.6700    0.0000 H   0  0  0  0  0  0  0  0  0  0  0  0
    4.7892   -7.1350    0.0000 H   0  0  0  0  0  0  0  0  0  0  0  0
    4.0747   -6.7225    0.0000 H   0  0  0  0  0  0  0  0  0  0  0  0
    4.0747   -5.6525    0.0000 H   0  0  0  0  0  0  0  0  0  0  0  0
    7.8592   -5.1175    0.0000 H   0  0  0  0  0  0  0  0  0  0  0  0
    8.7858   -5.6525    0.0000 H   0  0  0  0  0  0  0  0  0  0  0  0
    9.5003   -6.0650    0.0000 H   0  0  0  0  0  0  0  0  0  0  0  0
    9.5003   -7.1350    0.0000 H   0  0  0  0  0  0  0  0  0  0  0  0
    7.8592   -8.9075    0.0000 H   0  0  0  0  0  0  0  0  0  0  0  0
    6.9326   -8.3725    0.0000 H   0  0  0  0  0  0  0  0  0  0  0  0
    6.2181   -7.9600    0.0000 H   0  0  0  0  0  0  0  0  0  0  0  0
    6.2181   -6.8900    0.0000 H   0  0  0  0  0  0  0  0  0  0  0  0
    9.2881   -8.9075    0.0000 H   0  0  0  0  0  0  0  0  0  0  0  0
   10.2148   -7.3025    0.0000 H   0  0  0  0  0  0  0  0  0  0  0  0
   10.2147   -8.3725    0.0000 H   0  0  0  0  0  0  0  0  0  0  0  0
    3.5724   -0.2530    0.0000 H   0  0  0  0  0  0  0  0  0  0  0  0
    5.2134   -2.1850    0.0000 H   0  0  0  0  0  0  0  0  0  0  0  0
    5.0013   -0.1675    0.0000 H   0  0  0  0  0  0  0  0  0  0  0  0
    5.9279   -0.7025    0.0000 H   0  0  0  0  0  0  0  0  0  0  0  0
    6.6424   -1.1150    0.0000 H   0  0  0  0  0  0  0  0  0  0  0  0
    6.6424   -2.1850    0.0000 H   0  0  0  0  0  0  0  0  0  0  0  0
    5.0013   -3.9575    0.0000 H   0  0  0  0  0  0  0  0  0  0  0  0
    4.0747   -3.4225    0.0000 H   0  0  0  0  0  0  0  0  0  0  0  0
    3.3602   -3.0100    0.0000 H   0  0  0  0  0  0  0  0  0  0  0  0
    3.3602   -1.9400    0.0000 H   0  0  0  0  0  0  0  0  0  0  0  0
  1  2  1  0  0  0  0
  1 41  1  0  0  0  0
  1 42  1  0  0  0  0
  1 43  1  0  0  0  0
  2  3  1  0  0  0  0
  2 44  1  0  0  0  0
  2 45  1  0  0  0  0
  3  4  2  0  0  0  0
  3  8  1  0  0  0  0
  4  5  1  0  0  0  0
  4 34  1  0  0  0  0
  5  6  2  0  0  0  0
  6  7  1  0  0  0  0
  6 12  1  0  0  0  0
  7  8  2  0  0  0  0
  7  9  1  0  0  0  0
  9 10  2  0  0  0  0
  9 11  1  0  0  0  0
 11 46  1  0  0  0  0
 11 47  1  0  0  0  0
 12 13  1  0  0  0  0
 12 48  1  0  0  0  0
 13 14  2  0  0  0  0
 13 18  1  0  0  0  0
 14 15  1  0  0  0  0
 14 49  1  0  0  0  0
 15 16  2  0  0  0  0
 15 50  1  0  0  0  0
 16 17  1  0  0  0  0
 16 21  1  0  0  0  0
 17 18  2  0  0  0  0
 17 19  1  0  0  0  0
 18 51  1  0  0  0  0
 19 20  1  0  0  0  0
 20 52  1  0  0  0  0
 20 53  1  0  0  0  0
 20 54  1  0  0  0  0
 21 22  1  0  0  0  0
 21 26  1  0  0  0  0
 22 23  1  0  0  0  0
 22 55  1  0  0  0  0
 22 56  1  0  0  0  0
 23 24  1  0  0  0  0
 23 57  1  0  0  0  0
 23 58  1  0  0  0  0
 24 25  1  0  0  0  0
 24 27  1  0  0  0  0
 24 59  1  0  0  0  0
 25 26  1  0  0  0  0
 25 60  1  0  0  0  0
 25 61  1  0  0  0  0
 26 62  1  0  0  0  0
 26 63  1  0  0  0  0
 27 28  1  0  0  0  0
 27 32  1  0  0  0  0
 28 29  1  0  0  0  0
 28 64  1  0  0  0  0
 28 65  1  0  0  0  0
 29 30  1  0  0  0  0
 29 66  1  0  0  0  0
 29 67  1  0  0  0  0
 30 31  1  0  0  0  0
 30 33  1  0  0  0  0
 31 32  1  0  0  0  0
 31 68  1  0  0  0  0
 31 69  1  0  0  0  0
 32 70  1  0  0  0  0
 32 71  1  0  0  0  0
 33 72  1  0  0  0  0
 33 73  1  0  0  0  0
 33 74  1  0  0  0  0
 34 35  1  0  0  0  0
 34 75  1  0  0  0  0
 35 36  1  0  0  0  0
 35 40  1  0  0  0  0
 35 76  1  0  0  0  0
 36 37  1  0  0  0  0
 36 77  1  0  0  0  0
 36 78  1  0  0  0  0
 37 38  1  0  0  0  0
 37 79  1  0  0  0  0
 37 80  1  0  0  0  0
 38 39  1  0  0  0  0
 39 40  1  0  0  0  0
 39 81  1  0  0  0  0
 39 82  1  0  0  0  0
 40 83  1  0  0  0  0
 40 84  1  0  0  0  0
M  END
>  <DRUGBANK_ID>
DB12141

>  <COMMON_NAME>
Gilteritinib

>  <CAS_NUMBER>
1254053-43-4

>  <UNII>
66D92MGC8M

>  <SYNONYMS>
Gilteritinib

$$$$
