RXB
 OpenBabel10282417072D

 41 43  0  0  0  0  0  0  0  0999 V2000
   -1.9123    3.1119    0.0000 O   0  0  0  0  0  0  0  0  0  0  0  0
   -1.1978    2.6994    0.0000 C   0  0  0  0  0  0  0  0  0  0  0  0
   -0.4833    3.1119    0.0000 N   0  0  0  0  0  0  0  0  0  0  0  0
    0.2311    2.6994    0.0000 C   0  0  0  0  0  0  0  0  0  0  0  0
    0.9456    3.1119    0.0000 O   0  0  0  0  0  0  0  0  0  0  0  0
   -1.1978    1.8744    0.0000 C   0  0  0  0  0  0  0  0  0  0  0  0
   -0.4833    1.4619    0.0000 C   0  0  0  0  0  0  0  0  0  0  0  0
    0.2311    1.8744    0.0000 C   0  0  0  0  0  0  0  0  0  0  0  0
    0.9456    1.4619    0.0000 O   0  0  0  0  0  0  0  0  0  0  0  0
   -1.9123    1.4619    0.0000 C   0  0  0  0  0  0  0  0  0  0  0  0
   -1.9123    0.6369    0.0000 C   0  0  0  0  0  0  0  0  0  0  0  0
   -1.1978    0.2244    0.0000 C   0  0  0  0  0  0  0  0  0  0  0  0
   -0.4833    0.6369    0.0000 C   0  0  0  0  0  0  0  0  0  0  0  0
    0.2311    0.2244    0.0000 N   0  0  0  0  0  0  0  0  0  0  0  0
    0.2311   -0.6006    0.0000 C   0  0  0  0  0  0  0  0  0  0  0  0
   -0.4833   -1.0131    0.0000 O   0  0  0  0  0  0  0  0  0  0  0  0
    0.9456   -1.0131    0.0000 C   0  0  1  0  0  0  0  0  0  0  0  0
    1.6601   -0.6006    0.0000 O   0  0  0  0  0  0  0  0  0  0  0  0
    1.6601    0.2244    0.0000 C   0  0  0  0  0  0  0  0  0  0  0  0
    0.9456    0.6369    0.0000 O   0  0  0  0  0  0  0  0  0  0  0  0
    2.3746    0.6369    0.0000 C   0  0  0  0  0  0  0  0  0  0  0  0
    0.9456   -1.8381    0.0000 C   0  0  0  0  0  0  0  0  0  0  0  0
    1.6601   -2.2506    0.0000 C   0  0  0  0  0  0  0  0  0  0  0  0
    1.6601   -3.0756    0.0000 C   0  0  0  0  0  0  0  0  0  0  0  0
    0.9456   -3.4881    0.0000 C   0  0  0  0  0  0  0  0  0  0  0  0
    0.2311   -3.0756    0.0000 C   0  0  0  0  0  0  0  0  0  0  0  0
    0.2311   -2.2506    0.0000 C   0  0  0  0  0  0  0  0  0  0  0  0
    0.9456   -0.4291    0.0000 H   0  0  0  0  0  0  0  0  0  0  0  0
   -0.4833    4.0964    0.0000 H   0  0  0  0  0  0  0  0  0  0  0  0
   -2.8060    1.9779    0.0000 H   0  0  0  0  0  0  0  0  0  0  0  0
   -2.8060    0.1209    0.0000 H   0  0  0  0  0  0  0  0  0  0  0  0
   -1.1978   -0.8076    0.0000 H   0  0  0  0  0  0  0  0  0  0  0  0
    1.0837    0.7166    0.0000 H   0  0  0  0  0  0  0  0  0  0  0  0
    3.3012    0.1019    0.0000 H   0  0  0  0  0  0  0  0  0  0  0  0
    2.3746    1.7069    0.0000 H   0  0  0  0  0  0  0  0  0  0  0  0
    3.3013    1.1719    0.0000 H   0  0  0  0  0  0  0  0  0  0  0  0
    2.5538   -1.7346    0.0000 H   0  0  0  0  0  0  0  0  0  0  0  0
    2.5538   -3.5916    0.0000 H   0  0  0  0  0  0  0  0  0  0  0  0
    0.9456   -4.5201    0.0000 H   0  0  0  0  0  0  0  0  0  0  0  0
   -0.6626   -3.5916    0.0000 H   0  0  0  0  0  0  0  0  0  0  0  0
   -0.6626   -1.7346    0.0000 H   0  0  0  0  0  0  0  0  0  0  0  0
  1  2  2  0  0  0  0
  2  3  1  0  0  0  0
  2  6  1  0  0  0  0
  3  4  1  0  0  0  0
  3 29  1  0  0  0  0
  4  5  2  0  0  0  0
  4  8  1  0  0  0  0
  6  7  2  0  0  0  0
  6 10  1  0  0  0  0
  7  8  1  0  0  0  0
  7 13  1  0  0  0  0
  8  9  2  0  0  0  0
 10 11  2  0  0  0  0
 10 30  1  0  0  0  0
 11 12  1  0  0  0  0
 11 31  1  0  0  0  0
 12 13  2  0  0  0  0
 12 32  1  0  0  0  0
 13 14  1  0  0  0  0
 14 15  1  0  0  0  0
 14 33  1  0  0  0  0
 15 16  2  0  0  0  0
 15 17  1  0  0  0  0
 17 18  1  0  0  0  0
 17 22  1  0  0  0  0
 17 28  1  6  0  0  0
 18 19  1  0  0  0  0
 19 20  2  0  0  0  0
 19 21  1  0  0  0  0
 21 34  1  0  0  0  0
 21 35  1  0  0  0  0
 21 36  1  0  0  0  0
 22 23  2  0  0  0  0
 22 27  1  0  0  0  0
 23 24  1  0  0  0  0
 23 37  1  0  0  0  0
 24 25  2  0  0  0  0
 24 38  1  0  0  0  0
 25 26  1  0  0  0  0
 25 39  1  0  0  0  0
 26 27  2  0  0  0  0
 26 40  1  0  0  0  0
 27 41  1  0  0  0  0
M  END
>  <DRUGBANK_ID>
DB08497

>  <COMMON_NAME>
(1S)-2-oxo-1-phenyl-2-[(1,3,4-trioxo-1,2,3,4-tetrahydroisoquinolin-5-yl)amino]ethyl acetate

$$$$
