
 OpenBabel10282417072D

 54 56  0  0  0  0  0  0  0  0999 V2000
    5.0013    2.0625    0.0000 C   0  0  0  0  0  0  0  0  0  0  0  0
    5.7158    1.6500    0.0000 C   0  0  0  0  0  0  0  0  0  0  0  0
    5.7158    0.8250    0.0000 C   0  0  0  0  0  0  0  0  0  0  0  0
    5.0013    0.4125    0.0000 O   0  0  0  0  0  0  0  0  0  0  0  0
    6.4302    0.4125    0.0000 N   0  0  0  0  0  0  0  0  0  0  0  0
    6.4302   -0.4125    0.0000 S   0  0  0  0  0  0  0  0  0  0  0  0
    5.6052   -0.4125    0.0000 O   0  0  0  0  0  0  0  0  0  0  0  0
    7.2552   -0.4125    0.0000 O   0  0  0  0  0  0  0  0  0  0  0  0
    6.4302   -1.2375    0.0000 C   0  0  0  0  0  0  0  0  0  0  0  0
    7.1447   -1.6500    0.0000 C   0  0  0  0  0  0  0  0  0  0  0  0
    7.1447   -2.4750    0.0000 C   0  0  0  0  0  0  0  0  0  0  0  0
    7.8592   -2.8875    0.0000 Cl  0  0  0  0  0  0  0  0  0  0  0  0
    6.4302   -2.8875    0.0000 C   0  0  0  0  0  0  0  0  0  0  0  0
    6.4302   -3.7125    0.0000 N   0  0  0  0  0  0  0  0  0  0  0  0
    7.1447   -4.1250    0.0000 C   0  0  0  0  0  0  0  0  0  0  0  0
    7.8592   -3.7125    0.0000 O   0  0  0  0  0  0  0  0  0  0  0  0
    7.1447   -4.9500    0.0000 C   0  0  0  0  0  0  0  0  0  0  0  0
    7.8592   -5.3625    0.0000 C   0  0  0  0  0  0  0  0  0  0  0  0
    8.5737   -4.9500    0.0000 C   0  0  0  0  0  0  0  0  0  0  0  0
    9.2881   -5.3625    0.0000 C   0  0  0  0  0  0  0  0  0  0  0  0
    9.2881   -6.1875    0.0000 C   0  0  0  0  0  0  0  0  0  0  0  0
   10.0026   -6.6000    0.0000 Br  0  0  0  0  0  0  0  0  0  0  0  0
    8.5737   -6.6000    0.0000 C   0  0  0  0  0  0  0  0  0  0  0  0
    8.5737   -7.4250    0.0000 O   0  0  0  0  0  0  0  0  0  0  0  0
    7.8592   -7.8375    0.0000 C   0  0  0  0  0  0  0  0  0  0  0  0
    7.8592   -8.6625    0.0000 C   0  0  0  0  0  0  0  0  0  0  0  0
    7.1447   -9.0750    0.0000 C   0  0  0  0  0  0  0  0  0  0  0  0
    6.4302   -8.6625    0.0000 C   0  0  0  0  0  0  0  0  0  0  0  0
    6.4302   -7.8375    0.0000 C   0  0  0  0  0  0  0  0  0  0  0  0
    5.7158   -7.4250    0.0000 Cl  0  0  0  0  0  0  0  0  0  0  0  0
    7.1447   -7.4250    0.0000 C   0  0  0  0  0  0  0  0  0  0  0  0
    7.1447   -9.9000    0.0000 C   0  0  0  0  0  0  0  0  0  0  0  0
    7.1447  -10.7250    0.0000 N   0  0  0  0  0  0  0  0  0  0  0  0
    7.8592   -6.1875    0.0000 C   0  0  0  0  0  0  0  0  0  0  0  0
    7.1447   -6.6000    0.0000 F   0  0  0  0  0  0  0  0  0  0  0  0
    5.7158   -2.4750    0.0000 C   0  0  0  0  0  0  0  0  0  0  0  0
    5.7158   -1.6500    0.0000 C   0  0  0  0  0  0  0  0  0  0  0  0
    5.0013    3.1325    0.0000 H   0  0  0  0  0  0  0  0  0  0  0  0
    4.0747    1.5275    0.0000 H   0  0  0  0  0  0  0  0  0  0  0  0
    4.0746    2.5975    0.0000 H   0  0  0  0  0  0  0  0  0  0  0  0
    6.6424    2.1850    0.0000 H   0  0  0  0  0  0  0  0  0  0  0  0
    6.6424    1.1150    0.0000 H   0  0  0  0  0  0  0  0  0  0  0  0
    7.2828    0.9047    0.0000 H   0  0  0  0  0  0  0  0  0  0  0  0
    8.0384   -1.1340    0.0000 H   0  0  0  0  0  0  0  0  0  0  0  0
    5.5776   -4.2048    0.0000 H   0  0  0  0  0  0  0  0  0  0  0  0
    6.2181   -5.4850    0.0000 H   0  0  0  0  0  0  0  0  0  0  0  0
    7.1447   -6.0200    0.0000 H   0  0  0  0  0  0  0  0  0  0  0  0
    8.5737   -3.9180    0.0000 H   0  0  0  0  0  0  0  0  0  0  0  0
   10.1818   -4.8465    0.0000 H   0  0  0  0  0  0  0  0  0  0  0  0
    8.7529   -9.1785    0.0000 H   0  0  0  0  0  0  0  0  0  0  0  0
    5.5365   -9.1785    0.0000 H   0  0  0  0  0  0  0  0  0  0  0  0
    7.1447   -6.3930    0.0000 H   0  0  0  0  0  0  0  0  0  0  0  0
    4.8221   -2.9910    0.0000 H   0  0  0  0  0  0  0  0  0  0  0  0
    4.8221   -1.1340    0.0000 H   0  0  0  0  0  0  0  0  0  0  0  0
  1  2  1  0  0  0  0
  1 38  1  0  0  0  0
  1 39  1  0  0  0  0
  1 40  1  0  0  0  0
  2  3  1  0  0  0  0
  2 41  1  0  0  0  0
  2 42  1  0  0  0  0
  3  4  2  0  0  0  0
  3  5  1  0  0  0  0
  5  6  1  0  0  0  0
  5 43  1  0  0  0  0
  6  7  2  0  0  0  0
  6  8  2  0  0  0  0
  6  9  1  0  0  0  0
  9 10  2  0  0  0  0
  9 37  1  0  0  0  0
 10 11  1  0  0  0  0
 10 44  1  0  0  0  0
 11 12  1  0  0  0  0
 11 13  2  0  0  0  0
 13 14  1  0  0  0  0
 13 36  1  0  0  0  0
 14 15  1  0  0  0  0
 14 45  1  0  0  0  0
 15 16  2  0  0  0  0
 15 17  1  0  0  0  0
 17 18  1  0  0  0  0
 17 46  1  0  0  0  0
 17 47  1  0  0  0  0
 18 19  2  0  0  0  0
 18 34  1  0  0  0  0
 19 20  1  0  0  0  0
 19 48  1  0  0  0  0
 20 21  2  0  0  0  0
 20 49  1  0  0  0  0
 21 22  1  0  0  0  0
 21 23  1  0  0  0  0
 23 24  1  0  0  0  0
 23 34  2  0  0  0  0
 24 25  1  0  0  0  0
 25 26  2  0  0  0  0
 25 31  1  0  0  0  0
 26 27  1  0  0  0  0
 26 50  1  0  0  0  0
 27 28  2  0  0  0  0
 27 32  1  0  0  0  0
 28 29  1  0  0  0  0
 28 51  1  0  0  0  0
 29 30  1  0  0  0  0
 29 31  2  0  0  0  0
 31 52  1  0  0  0  0
 32 33  3  0  0  0  0
 34 35  1  0  0  0  0
 36 37  2  0  0  0  0
 36 53  1  0  0  0  0
 37 54  1  0  0  0  0
M  END
>  <DRUGBANK_ID>
DB14929

>  <COMMON_NAME>
Elsulfavirine

>  <CAS_NUMBER>
868046-19-9

>  <UNII>
ZC4CGO0RUG

>  <SYNONYMS>
Elsulfavirine

$$$$
