
 OpenBabel10282417072D

 84 86  0  0  0  0  0  0  0  0999 V2000
    3.5293    1.0312    0.0000 O   0  0  0  0  0  0  0  0  0  0  0  0
   -0.7575    1.8562    0.0000 O   0  0  0  0  0  0  0  0  0  0  0  0
   -2.9010    2.2687    0.0000 O   0  0  0  0  0  0  0  0  0  0  0  0
   -1.4720    2.2687    0.0000 O   0  0  0  0  0  0  0  0  0  0  0  0
   -5.8569   -1.3004    0.0000 O   0  0  0  0  0  0  0  0  0  0  0  0
    6.3872    1.0312    0.0000 O   0  0  0  0  0  0  0  0  0  0  0  0
   -6.1392   -4.0123    0.0000 O   0  0  0  0  0  0  0  0  0  0  0  0
   -5.7589   -0.2062    0.0000 O   0  0  0  0  0  0  0  0  0  0  0  0
    5.6728    2.2687    0.0000 O   0  0  0  0  0  0  0  0  0  0  0  0
   -6.3872   -2.6050    0.0000 O   0  0  0  0  0  0  0  0  0  0  0  0
   -4.3300   -0.2062    0.0000 O   0  0  0  0  0  0  0  0  0  0  0  0
    4.2438    2.2687    0.0000 O   0  0  0  0  0  0  0  0  0  0  0  0
   -0.0430    0.6187    0.0000 N   0  0  0  0  0  0  0  0  0  0  0  0
   -2.1865    1.0312    0.0000 N   0  0  0  0  0  0  0  0  0  0  0  0
   -4.3300   -1.8562    0.0000 N   0  0  0  0  0  0  0  0  0  0  0  0
   -1.4720    0.6187    0.0000 C   0  0  1  0  0  0  0  0  0  0  0  0
   -1.4720   -0.2062    0.0000 C   0  0  0  0  0  0  0  0  0  0  0  0
   -2.1865   -0.6187    0.0000 C   0  0  0  0  0  0  0  0  0  0  0  0
    1.3858    0.6187    0.0000 C   0  0  0  0  0  0  0  0  0  0  0  0
    0.6713    1.0312    0.0000 C   0  0  0  0  0  0  0  0  0  0  0  0
   -0.7575    1.0312    0.0000 C   0  0  0  0  0  0  0  0  0  0  0  0
    2.1004    1.0312    0.0000 C   0  0  0  0  0  0  0  0  0  0  0  0
   -2.1865   -1.4437    0.0000 C   0  0  0  0  0  0  0  0  0  0  0  0
   -2.9010   -0.2062    0.0000 C   0  0  0  0  0  0  0  0  0  0  0  0
    2.8148    0.6187    0.0000 C   0  0  0  0  0  0  0  0  0  0  0  0
   -3.6154   -1.4437    0.0000 C   0  0  0  0  0  0  0  0  0  0  0  0
   -2.9010   -1.8562    0.0000 C   0  0  0  0  0  0  0  0  0  0  0  0
   -3.6154   -0.6187    0.0000 C   0  0  0  0  0  0  0  0  0  0  0  0
   -2.1865    1.8562    0.0000 C   0  0  0  0  0  0  0  0  0  0  0  0
   -4.3300   -2.6813    0.0000 C   0  0  0  0  0  0  0  0  0  0  0  0
   -5.0444   -3.0938    0.0000 C   0  0  0  0  0  0  0  0  0  0  0  0
   -5.0444   -1.4437    0.0000 C   0  0  0  0  0  0  0  0  0  0  0  0
    4.2438    0.6187    0.0000 C   0  0  0  0  0  0  0  0  0  0  0  0
   -3.6154   -3.0938    0.0000 C   0  0  0  0  0  0  0  0  0  0  0  0
    4.9583    1.0312    0.0000 C   0  0  0  0  0  0  0  0  0  0  0  0
   -5.0444   -3.9188    0.0000 C   0  0  0  0  0  0  0  0  0  0  0  0
   -3.6154   -3.9188    0.0000 C   0  0  0  0  0  0  0  0  0  0  0  0
    4.2438   -0.2062    0.0000 C   0  0  0  0  0  0  0  0  0  0  0  0
   -4.3300   -4.3313    0.0000 C   0  0  0  0  0  0  0  0  0  0  0  0
    5.6728    0.6187    0.0000 C   0  0  0  0  0  0  0  0  0  0  0  0
   -2.9010    3.0938    0.0000 C   0  0  0  0  0  0  0  0  0  0  0  0
   -5.8569   -3.2370    0.0000 C   0  0  0  0  0  0  0  0  0  0  0  0
   -5.0444   -0.6187    0.0000 C   0  0  0  0  0  0  0  0  0  0  0  0
    4.9583   -0.6187    0.0000 C   0  0  0  0  0  0  0  0  0  0  0  0
    5.6728   -0.2062    0.0000 C   0  0  0  0  0  0  0  0  0  0  0  0
    4.9583    1.8562    0.0000 C   0  0  0  0  0  0  0  0  0  0  0  0
   -3.6154    3.5063    0.0000 C   0  0  0  0  0  0  0  0  0  0  0  0
   -3.6154    4.3313    0.0000 C   0  0  0  0  0  0  0  0  0  0  0  0
    5.6728    3.0938    0.0000 C   0  0  0  0  0  0  0  0  0  0  0  0
   -0.0430    0.1072    0.0000 H   0  0  0  0  0  0  0  0  0  0  0  0
   -2.6294    0.7755    0.0000 H   0  0  0  0  0  0  0  0  0  0  0  0
    7.1987    0.5627    0.0000 H   0  0  0  0  0  0  0  0  0  0  0  0
   -7.0620   -4.1749    0.0000 H   0  0  0  0  0  0  0  0  0  0  0  0
   -5.7589    0.7308    0.0000 H   0  0  0  0  0  0  0  0  0  0  0  0
   -2.3986    0.0837    0.0000 H   0  0  0  0  0  0  0  0  0  0  0  0
   -0.5454   -0.7412    0.0000 H   0  0  0  0  0  0  0  0  0  0  0  0
   -1.4720   -1.2762    0.0000 H   0  0  0  0  0  0  0  0  0  0  0  0
    1.3858   -0.4513    0.0000 H   0  0  0  0  0  0  0  0  0  0  0  0
    2.3124    0.0836    0.0000 H   0  0  0  0  0  0  0  0  0  0  0  0
    0.6712    2.1012    0.0000 H   0  0  0  0  0  0  0  0  0  0  0  0
    1.5979    1.5662    0.0000 H   0  0  0  0  0  0  0  0  0  0  0  0
    2.1005    2.1012    0.0000 H   0  0  0  0  0  0  0  0  0  0  0  0
    3.0271    1.5662    0.0000 H   0  0  0  0  0  0  0  0  0  0  0  0
   -1.2928   -1.9597    0.0000 H   0  0  0  0  0  0  0  0  0  0  0  0
   -2.9010    0.8258    0.0000 H   0  0  0  0  0  0  0  0  0  0  0  0
    2.8148   -0.4513    0.0000 H   0  0  0  0  0  0  0  0  0  0  0  0
    1.8881    0.0837    0.0000 H   0  0  0  0  0  0  0  0  0  0  0  0
   -2.9010   -2.8882    0.0000 H   0  0  0  0  0  0  0  0  0  0  0  0
   -4.5091   -0.1027    0.0000 H   0  0  0  0  0  0  0  0  0  0  0  0
   -2.7217   -2.5778    0.0000 H   0  0  0  0  0  0  0  0  0  0  0  0
   -5.9381   -4.4348    0.0000 H   0  0  0  0  0  0  0  0  0  0  0  0
   -2.7217   -4.4348    0.0000 H   0  0  0  0  0  0  0  0  0  0  0  0
    3.3501   -0.7222    0.0000 H   0  0  0  0  0  0  0  0  0  0  0  0
   -4.3301   -5.3633    0.0000 H   0  0  0  0  0  0  0  0  0  0  0  0
   -1.9743    3.6288    0.0000 H   0  0  0  0  0  0  0  0  0  0  0  0
   -2.9010    4.1638    0.0000 H   0  0  0  0  0  0  0  0  0  0  0  0
    4.9583   -1.6507    0.0000 H   0  0  0  0  0  0  0  0  0  0  0  0
    6.5665   -0.7222    0.0000 H   0  0  0  0  0  0  0  0  0  0  0  0
   -4.5091    2.9903    0.0000 H   0  0  0  0  0  0  0  0  0  0  0  0
   -2.7217    4.8473    0.0000 H   0  0  0  0  0  0  0  0  0  0  0  0
   -4.5091    4.8473    0.0000 H   0  0  0  0  0  0  0  0  0  0  0  0
    6.5994    3.6288    0.0000 H   0  0  0  0  0  0  0  0  0  0  0  0
    4.7462    3.6288    0.0000 H   0  0  0  0  0  0  0  0  0  0  0  0
    5.6728    4.1638    0.0000 H   0  0  0  0  0  0  0  0  0  0  0  0
  1 25  1  0  0  0  0
  1 33  1  0  0  0  0
  2 21  2  0  0  0  0
  3 29  1  0  0  0  0
  3 41  1  0  0  0  0
  4 29  2  0  0  0  0
  5 32  2  0  0  0  0
  6 40  1  0  0  0  0
  6 52  1  0  0  0  0
  7 42  1  0  0  0  0
  7 53  1  0  0  0  0
  8 43  1  0  0  0  0
  8 54  1  0  0  0  0
  9 46  1  0  0  0  0
  9 49  1  0  0  0  0
 10 42  2  0  0  0  0
 11 43  2  0  0  0  0
 12 46  2  0  0  0  0
 13 20  1  0  0  0  0
 13 21  1  0  0  0  0
 13 50  1  0  0  0  0
 14 29  1  0  0  0  0
 14 51  1  0  0  0  0
 15 26  1  0  0  0  0
 15 30  1  0  0  0  0
 15 32  1  0  0  0  0
 16 14  1  0  0  0  0
 16 17  1  0  0  0  0
 16 21  1  0  0  0  0
 16 55  1  1  0  0  0
 17 18  1  0  0  0  0
 17 56  1  0  0  0  0
 17 57  1  0  0  0  0
 18 23  2  0  0  0  0
 18 24  1  0  0  0  0
 19 20  1  0  0  0  0
 19 22  1  0  0  0  0
 19 58  1  0  0  0  0
 19 59  1  0  0  0  0
 20 60  1  0  0  0  0
 20 61  1  0  0  0  0
 22 25  1  0  0  0  0
 22 62  1  0  0  0  0
 22 63  1  0  0  0  0
 23 27  1  0  0  0  0
 23 64  1  0  0  0  0
 24 28  2  0  0  0  0
 24 65  1  0  0  0  0
 25 66  1  0  0  0  0
 25 67  1  0  0  0  0
 26 27  2  0  0  0  0
 26 28  1  0  0  0  0
 27 68  1  0  0  0  0
 28 69  1  0  0  0  0
 30 31  1  0  0  0  0
 30 34  2  0  0  0  0
 31 36  2  0  0  0  0
 31 42  1  0  0  0  0
 32 43  1  0  0  0  0
 33 35  1  0  0  0  0
 33 38  2  0  0  0  0
 34 37  1  0  0  0  0
 34 70  1  0  0  0  0
 35 40  2  0  0  0  0
 35 46  1  0  0  0  0
 36 39  1  0  0  0  0
 36 71  1  0  0  0  0
 37 39  2  0  0  0  0
 37 72  1  0  0  0  0
 38 44  1  0  0  0  0
 38 73  1  0  0  0  0
 39 74  1  0  0  0  0
 40 45  1  0  0  0  0
 41 47  1  0  0  0  0
 41 75  1  0  0  0  0
 41 76  1  0  0  0  0
 44 45  2  0  0  0  0
 44 77  1  0  0  0  0
 45 78  1  0  0  0  0
 47 48  2  0  0  0  0
 47 79  1  0  0  0  0
 48 80  1  0  0  0  0
 48 81  1  0  0  0  0
 49 82  1  0  0  0  0
 49 83  1  0  0  0  0
 49 84  1  0  0  0  0
M  END
>  <DRUGBANK_ID>
DB04088

>  <SECONDARY_ACCESSION_NUMBERS>
EXPT00193

>  <COMMON_NAME>
2-[{4-[(2S)-2-{[(Allyloxy)carbonyl]amino}-3-({4-[3-hydroxy-2-(methoxycarbonyl)phenoxy]butyl}amino)-3-oxopropyl]phenyl}(carboxycarbonyl)amino]benzoic acid

$$$$
