
 OpenBabel10282417072D

 51 54  0  0  1  0  0  0  0  0999 V2000
   10.4746   -7.8095    0.0000 C   0  0  0  0  0  0  0  0  0  0  0  0
   10.4746   -8.6345    0.0000 C   0  0  0  0  0  0  0  0  0  0  0  0
    9.7601   -7.3970    0.0000 C   0  0  0  0  0  0  0  0  0  0  0  0
    9.7601   -9.0470    0.0000 C   0  0  0  0  0  0  0  0  0  0  0  0
    9.0457   -7.8095    0.0000 C   0  0  0  0  0  0  0  0  0  0  0  0
    9.0457   -8.6345    0.0000 C   0  0  0  0  0  0  0  0  0  0  0  0
   11.9036   -7.8095    0.0000 C   0  0  2  0  0  0  0  0  0  0  0  0
   11.9036   -8.6345    0.0000 C   0  0  0  0  0  0  0  0  0  0  0  0
   11.1890   -7.3970    0.0000 C   0  0  0  0  0  0  0  0  0  0  0  0
   11.1890   -9.0470    0.0000 C   0  0  0  0  0  0  0  0  0  0  0  0
   12.6182   -6.5720    0.0000 C   0  0  2  0  0  0  0  0  0  0  0  0
   12.6182   -7.3970    0.0000 C   0  0  1  0  0  0  0  0  0  0  0  0
   11.9036   -6.1595    0.0000 C   0  0  0  0  0  0  0  0  0  0  0  0
   11.1892   -6.5720    0.0000 C   0  0  0  0  0  0  0  0  0  0  0  0
   13.3329   -6.1493    0.0000 C   0  0  1  0  0  0  0  0  0  0  0  0
   14.0555   -6.5929    0.0000 C   0  0  0  0  0  0  0  0  0  0  0  0
   14.0461   -7.4002    0.0000 C   0  0  0  0  0  0  0  0  0  0  0  0
   12.5987   -5.9288    0.0000 C   0  0  0  0  0  0  0  0  0  0  0  0
   12.5987   -8.1381    0.0000 H   0  0  0  0  0  0  0  0  0  0  0  0
   11.8995   -7.0474    0.0000 H   0  0  0  0  0  0  0  0  0  0  0  0
    8.4737   -8.9911    0.0000 O   0  0  0  0  0  0  0  0  0  0  0  0
   13.0741   -5.6771    0.0000 C   0  0  0  0  0  0  0  0  0  0  0  0
   13.7733   -5.5652    0.0000 O   0  0  0  0  0  0  0  0  0  0  0  0
   12.1373   -5.6212    0.0000 C   0  0  0  0  0  0  0  0  0  0  0  0
   13.0741   -5.1597    0.0000 C   0  0  0  0  0  0  0  0  0  0  0  0
    9.7601   -6.3270    0.0000 H   0  0  0  0  0  0  0  0  0  0  0  0
    8.8334   -6.8620    0.0000 H   0  0  0  0  0  0  0  0  0  0  0  0
    9.7601  -10.0790    0.0000 H   0  0  0  0  0  0  0  0  0  0  0  0
    8.1190   -7.2745    0.0000 H   0  0  0  0  0  0  0  0  0  0  0  0
    8.1191   -8.3445    0.0000 H   0  0  0  0  0  0  0  0  0  0  0  0
   12.8302   -9.1695    0.0000 H   0  0  0  0  0  0  0  0  0  0  0  0
   11.9035   -9.7045    0.0000 H   0  0  0  0  0  0  0  0  0  0  0  0
   11.1889  -10.1170    0.0000 H   0  0  0  0  0  0  0  0  0  0  0  0
   10.2623   -9.5820    0.0000 H   0  0  0  0  0  0  0  0  0  0  0  0
   11.9035   -5.1275    0.0000 H   0  0  0  0  0  0  0  0  0  0  0  0
   10.2955   -6.0559    0.0000 H   0  0  0  0  0  0  0  0  0  0  0  0
   14.9923   -6.0759    0.0000 H   0  0  0  0  0  0  0  0  0  0  0  0
   14.9738   -7.1422    0.0000 H   0  0  0  0  0  0  0  0  0  0  0  0
   14.7974   -8.1620    0.0000 H   0  0  0  0  0  0  0  0  0  0  0  0
   15.0384   -6.9999    0.0000 H   0  0  0  0  0  0  0  0  0  0  0  0
   13.5343   -5.4097    0.0000 H   0  0  0  0  0  0  0  0  0  0  0  0
   12.6423   -4.8597    0.0000 H   0  0  0  0  0  0  0  0  0  0  0  0
   12.0375   -5.9425    0.0000 H   0  0  0  0  0  0  0  0  0  0  0  0
   12.2288   -5.0210    0.0000 H   0  0  0  0  0  0  0  0  0  0  0  0
   14.7360   -5.6837    0.0000 H   0  0  0  0  0  0  0  0  0  0  0  0
   12.2062   -4.5534    0.0000 H   0  0  0  0  0  0  0  0  0  0  0  0
   11.1781   -6.0955    0.0000 H   0  0  0  0  0  0  0  0  0  0  0  0
   11.2470   -5.0277    0.0000 H   0  0  0  0  0  0  0  0  0  0  0  0
   14.0007   -4.6247    0.0000 H   0  0  0  0  0  0  0  0  0  0  0  0
   12.1475   -4.6247    0.0000 H   0  0  0  0  0  0  0  0  0  0  0  0
   13.0741   -4.0897    0.0000 H   0  0  0  0  0  0  0  0  0  0  0  0
  1  9  2  0  0  0  0
  2 10  1  0  0  0  0
  2  1  1  0  0  0  0
  3  1  1  0  0  0  0
  3 26  1  0  0  0  0
  3 27  1  0  0  0  0
  4  2  2  0  0  0  0
  4 28  1  0  0  0  0
  5  3  1  0  0  0  0
  5 29  1  0  0  0  0
  5 30  1  0  0  0  0
  6  4  1  0  0  0  0
  6  5  1  0  0  0  0
  6 21  2  0  0  0  0
  7 12  1  0  0  0  0
  7 20  1  1  0  0  0
  8  7  1  0  0  0  0
  8 31  1  0  0  0  0
  8 32  1  0  0  0  0
  9  7  1  0  0  0  0
  9 14  1  0  0  0  0
 10  8  1  0  0  0  0
 10 33  1  0  0  0  0
 10 34  1  0  0  0  0
 11 18  1  1  0  0  0
 12 11  1  0  0  0  0
 12 19  1  6  0  0  0
 13 11  1  0  0  0  0
 13 35  1  0  0  0  0
 14 13  2  0  0  0  0
 14 36  1  0  0  0  0
 15 11  1  0  0  0  0
 15 22  1  0  0  0  0
 15 23  1  1  0  0  0
 16 15  1  0  0  0  0
 16 37  1  0  0  0  0
 16 38  1  0  0  0  0
 17 12  1  0  0  0  0
 17 16  1  0  0  0  0
 17 39  1  0  0  0  0
 17 40  1  0  0  0  0
 18 24  1  0  0  0  0
 18 41  1  0  0  0  0
 18 42  1  0  0  0  0
 22 25  1  0  0  0  0
 22 43  1  0  0  0  0
 22 44  1  0  0  0  0
 23 45  1  0  0  0  0
 24 46  1  0  0  0  0
 24 47  1  0  0  0  0
 24 48  1  0  0  0  0
 25 49  1  0  0  0  0
 25 50  1  0  0  0  0
 25 51  1  0  0  0  0
M  END
>  <DRUGBANK_ID>
DB06870

>  <COMMON_NAME>
Tetrahydrogestrinone

>  <CAS_NUMBER>
618903-56-3

>  <UNII>
643MR6L9LB

$$$$
