MXX
 OpenBabel10282417072D

 32 33  0  0  0  0  0  0  0  0999 V2000
   -2.0507   -0.9809    0.0000 O   0  0  0  0  0  0  0  0  0  0  0  0
   -1.3362   -0.5684    0.0000 C   0  0  0  0  0  0  0  0  0  0  0  0
   -0.6217   -0.9809    0.0000 N   0  0  0  0  0  0  0  0  0  0  0  0
   -0.6217   -1.8059    0.0000 C   0  0  0  0  0  0  0  0  0  0  0  0
    0.0927   -0.5684    0.0000 C   0  0  0  0  0  0  0  0  0  0  0  0
    0.8072   -0.9809    0.0000 C   0  0  0  0  0  0  0  0  0  0  0  0
    0.8072   -1.8059    0.0000 O   0  0  0  0  0  0  0  0  0  0  0  0
    1.5217   -2.2184    0.0000 C   0  0  0  0  0  0  0  0  0  0  0  0
    1.5217   -0.5684    0.0000 C   0  0  0  0  0  0  0  0  0  0  0  0
    1.5217    0.2566    0.0000 C   0  0  0  0  0  0  0  0  0  0  0  0
    0.8072    0.6691    0.0000 C   0  0  0  0  0  0  0  0  0  0  0  0
    0.8072    1.4941    0.0000 O   0  0  0  0  0  0  0  0  0  0  0  0
    0.0927    1.9066    0.0000 C   0  0  0  0  0  0  0  0  0  0  0  0
    0.0927    0.2566    0.0000 C   0  0  0  0  0  0  0  0  0  0  0  0
   -0.6217    0.6691    0.0000 C   0  0  0  0  0  0  0  0  0  0  0  0
   -0.6217    1.4941    0.0000 C   0  0  0  0  0  0  0  0  0  0  0  0
   -1.3362    0.2566    0.0000 C   0  0  0  0  0  0  0  0  0  0  0  0
   -1.5483   -2.3409    0.0000 H   0  0  0  0  0  0  0  0  0  0  0  0
    0.3049   -2.3409    0.0000 H   0  0  0  0  0  0  0  0  0  0  0  0
   -0.6217   -2.8759    0.0000 H   0  0  0  0  0  0  0  0  0  0  0  0
    1.5217   -3.2884    0.0000 H   0  0  0  0  0  0  0  0  0  0  0  0
    2.4483   -1.6834    0.0000 H   0  0  0  0  0  0  0  0  0  0  0  0
    2.4484   -2.7534    0.0000 H   0  0  0  0  0  0  0  0  0  0  0  0
    2.4154   -1.0844    0.0000 H   0  0  0  0  0  0  0  0  0  0  0  0
    2.4154    0.7726    0.0000 H   0  0  0  0  0  0  0  0  0  0  0  0
    0.0927    2.9766    0.0000 H   0  0  0  0  0  0  0  0  0  0  0  0
   -0.8339    1.3716    0.0000 H   0  0  0  0  0  0  0  0  0  0  0  0
   -0.8340    2.4416    0.0000 H   0  0  0  0  0  0  0  0  0  0  0  0
    0.3049    2.0291    0.0000 H   0  0  0  0  0  0  0  0  0  0  0  0
   -1.5483    2.0291    0.0000 H   0  0  0  0  0  0  0  0  0  0  0  0
   -0.6217    2.5641    0.0000 H   0  0  0  0  0  0  0  0  0  0  0  0
   -2.2299    0.7726    0.0000 H   0  0  0  0  0  0  0  0  0  0  0  0
  1  2  2  0  0  0  0
  2 17  1  0  0  0  0
  3  2  1  0  0  0  0
  3  5  1  0  0  0  0
  4  3  1  0  0  0  0
  4 18  1  0  0  0  0
  4 19  1  0  0  0  0
  4 20  1  0  0  0  0
  5 14  1  0  0  0  0
  6  5  2  0  0  0  0
  6  9  1  0  0  0  0
  7  6  1  0  0  0  0
  8  7  1  0  0  0  0
  8 21  1  0  0  0  0
  8 22  1  0  0  0  0
  8 23  1  0  0  0  0
  9 10  2  0  0  0  0
  9 24  1  0  0  0  0
 10 11  1  0  0  0  0
 10 25  1  0  0  0  0
 11 12  1  0  0  0  0
 12 13  1  0  0  0  0
 13 26  1  0  0  0  0
 13 27  1  0  0  0  0
 13 28  1  0  0  0  0
 14 11  2  0  0  0  0
 14 15  1  0  0  0  0
 15 16  1  0  0  0  0
 16 29  1  0  0  0  0
 16 30  1  0  0  0  0
 16 31  1  0  0  0  0
 17 15  2  0  0  0  0
 17 32  1  0  0  0  0
M  END
>  <DRUGBANK_ID>
DB08228

>  <COMMON_NAME>
5,8-dimethoxy-1,4-dimethylquinolin-2(1H)-one

$$$$
