D4G
 OpenBabel10282417072D

 22 23  0  0  0  0  0  0  0  0999 V2000
    1.7862    0.4470    0.0000 C   0  0  0  0  0  0  0  0  0  0  0  0
    2.5006    0.0345    0.0000 C   0  0  0  0  0  0  0  0  0  0  0  0
    2.5006   -0.7905    0.0000 N   0  0  0  0  0  0  0  0  0  0  0  0
    1.7862   -1.2030    0.0000 C   0  0  0  0  0  0  0  0  0  0  0  0
    1.0717   -0.7905    0.0000 C   0  0  0  0  0  0  0  0  0  0  0  0
    1.0717    0.0345    0.0000 C   0  0  0  0  0  0  0  0  0  0  0  0
    0.3572    0.4470    0.0000 S   0  0  0  0  0  0  0  0  0  0  0  0
   -0.3572    0.0345    0.0000 S   0  0  0  0  0  0  0  0  0  0  0  0
   -1.0717    0.4470    0.0000 C   0  0  0  0  0  0  0  0  0  0  0  0
   -1.7862    0.0345    0.0000 C   0  0  0  0  0  0  0  0  0  0  0  0
   -2.5006    0.4470    0.0000 C   0  0  0  0  0  0  0  0  0  0  0  0
   -2.5006    1.2720    0.0000 N   0  0  0  0  0  0  0  0  0  0  0  0
   -1.7862    1.6845    0.0000 C   0  0  0  0  0  0  0  0  0  0  0  0
   -1.0717    1.2720    0.0000 C   0  0  0  0  0  0  0  0  0  0  0  0
    1.7862    1.4790    0.0000 H   0  0  0  0  0  0  0  0  0  0  0  0
    3.3943    0.5505    0.0000 H   0  0  0  0  0  0  0  0  0  0  0  0
    1.7862   -2.2350    0.0000 H   0  0  0  0  0  0  0  0  0  0  0  0
    0.1780   -1.3065    0.0000 H   0  0  0  0  0  0  0  0  0  0  0  0
   -1.7862   -0.9975    0.0000 H   0  0  0  0  0  0  0  0  0  0  0  0
   -3.3943   -0.0690    0.0000 H   0  0  0  0  0  0  0  0  0  0  0  0
   -1.7862    2.7165    0.0000 H   0  0  0  0  0  0  0  0  0  0  0  0
   -0.1780    1.7880    0.0000 H   0  0  0  0  0  0  0  0  0  0  0  0
  1  2  1  0  0  0  0
  1  6  2  0  0  0  0
  1 15  1  0  0  0  0
  2  3  2  0  0  0  0
  2 16  1  0  0  0  0
  3  4  1  0  0  0  0
  4  5  2  0  0  0  0
  4 17  1  0  0  0  0
  5  6  1  0  0  0  0
  5 18  1  0  0  0  0
  6  7  1  0  0  0  0
  7  8  1  0  0  0  0
  8  9  1  0  0  0  0
  9 10  1  0  0  0  0
  9 14  2  0  0  0  0
 10 11  2  0  0  0  0
 10 19  1  0  0  0  0
 11 12  1  0  0  0  0
 11 20  1  0  0  0  0
 12 13  2  0  0  0  0
 13 14  1  0  0  0  0
 13 21  1  0  0  0  0
 14 22  1  0  0  0  0
M  END
>  <DRUGBANK_ID>
DB07623

>  <COMMON_NAME>
4,4'-DIPYRIDYL DISULFIDE

>  <UNII>
EI4LXL5JH8

$$$$
