
 OpenBabel10282417072D

 57 61  0  0  0  0  0  0  0  0999 V2000
   -4.3089    2.1511    0.0000 C   0  0  0  0  0  0  0  0  0  0  0  0
   -4.4805    1.3441    0.0000 N   0  0  0  0  0  0  0  0  0  0  0  0
   -5.2341    1.0085    0.0000 N   0  0  0  0  0  0  0  0  0  0  0  0
   -5.1479    0.1881    0.0000 C   0  0  0  0  0  0  0  0  0  0  0  0
   -4.3409    0.0165    0.0000 C   0  0  0  0  0  0  0  0  0  0  0  0
   -3.9284    0.7310    0.0000 C   0  0  0  0  0  0  0  0  0  0  0  0
   -3.1034    0.7310    0.0000 C   0  0  0  0  0  0  0  0  0  0  0  0
   -2.6909    0.0165    0.0000 C   0  0  0  0  0  0  0  0  0  0  0  0
   -3.1034   -0.6979    0.0000 C   0  0  0  0  0  0  0  0  0  0  0  0
   -3.9284   -0.6979    0.0000 C   0  0  0  0  0  0  0  0  0  0  0  0
   -2.6909   -1.4124    0.0000 C   0  0  0  0  0  0  0  0  0  0  0  0
   -1.8659   -1.4124    0.0000 C   0  0  0  0  0  0  0  0  0  0  0  0
   -1.4534   -0.6979    0.0000 O   0  0  0  0  0  0  0  0  0  0  0  0
   -0.6284   -0.6979    0.0000 C   0  0  0  0  0  0  0  0  0  0  0  0
   -0.1435   -1.3654    0.0000 C   0  0  0  0  0  0  0  0  0  0  0  0
    0.6411   -1.1104    0.0000 C   0  0  0  0  0  0  0  0  0  0  0  0
    0.6411   -0.2854    0.0000 C   0  0  0  0  0  0  0  0  0  0  0  0
   -0.1435   -0.0305    0.0000 C   0  0  0  0  0  0  0  0  0  0  0  0
    1.3556    0.1271    0.0000 C   0  0  0  0  0  0  0  0  0  0  0  0
    2.0701   -0.2854    0.0000 C   0  0  0  0  0  0  0  0  0  0  0  0
    2.0701   -1.1104    0.0000 C   0  0  0  0  0  0  0  0  0  0  0  0
    1.3556   -1.5229    0.0000 C   0  0  0  0  0  0  0  0  0  0  0  0
   -1.4534   -2.1269    0.0000 C   0  0  0  0  0  0  0  0  0  0  0  0
   -0.6284   -2.1269    0.0000 N   0  0  0  0  0  0  0  0  0  0  0  0
   -1.8659   -2.8414    0.0000 C   0  0  0  0  0  0  0  0  0  0  0  0
   -2.6909   -2.8414    0.0000 C   0  0  0  0  0  0  0  0  0  0  0  0
   -3.1034   -3.5558    0.0000 C   0  0  0  0  0  0  0  0  0  0  0  0
   -3.9284   -3.5558    0.0000 C   0  0  0  0  0  0  0  0  0  0  0  0
   -4.3409   -4.2703    0.0000 C   0  0  0  0  0  0  0  0  0  0  0  0
   -3.9284   -4.9848    0.0000 O   0  0  0  0  0  0  0  0  0  0  0  0
   -5.1659   -4.2703    0.0000 O   0  0  0  0  0  0  0  0  0  0  0  0
   -3.1034   -2.1269    0.0000 C   0  0  0  0  0  0  0  0  0  0  0  0
   -3.2912    2.4817    0.0000 H   0  0  0  0  0  0  0  0  0  0  0  0
   -5.1040    2.8671    0.0000 H   0  0  0  0  0  0  0  0  0  0  0  0
   -4.0864    3.1977    0.0000 H   0  0  0  0  0  0  0  0  0  0  0  0
   -5.9149   -0.5024    0.0000 H   0  0  0  0  0  0  0  0  0  0  0  0
   -2.5874    1.6247    0.0000 H   0  0  0  0  0  0  0  0  0  0  0  0
   -1.6589    0.0165    0.0000 H   0  0  0  0  0  0  0  0  0  0  0  0
   -4.4444   -1.5916    0.0000 H   0  0  0  0  0  0  0  0  0  0  0  0
    0.4416   -0.6979    0.0000 H   0  0  0  0  0  0  0  0  0  0  0  0
   -0.4741   -2.3830    0.0000 H   0  0  0  0  0  0  0  0  0  0  0  0
    0.6131   -2.1220    0.0000 H   0  0  0  0  0  0  0  0  0  0  0  0
   -0.4742    0.9871    0.0000 H   0  0  0  0  0  0  0  0  0  0  0  0
   -1.2003    0.1369    0.0000 H   0  0  0  0  0  0  0  0  0  0  0  0
    1.3556    1.1591    0.0000 H   0  0  0  0  0  0  0  0  0  0  0  0
    2.9638    0.2306    0.0000 H   0  0  0  0  0  0  0  0  0  0  0  0
    2.9638   -1.6264    0.0000 H   0  0  0  0  0  0  0  0  0  0  0  0
    1.3556   -2.5549    0.0000 H   0  0  0  0  0  0  0  0  0  0  0  0
   -0.1361   -2.9795    0.0000 H   0  0  0  0  0  0  0  0  0  0  0  0
   -0.1362   -1.2743    0.0000 H   0  0  0  0  0  0  0  0  0  0  0  0
   -1.3499   -3.7351    0.0000 H   0  0  0  0  0  0  0  0  0  0  0  0
   -2.5684   -4.4825    0.0000 H   0  0  0  0  0  0  0  0  0  0  0  0
   -3.6384   -4.4824    0.0000 H   0  0  0  0  0  0  0  0  0  0  0  0
   -4.4634   -2.6292    0.0000 H   0  0  0  0  0  0  0  0  0  0  0  0
   -4.9984   -3.5558    0.0000 H   0  0  0  0  0  0  0  0  0  0  0  0
   -4.3969   -5.7963    0.0000 H   0  0  0  0  0  0  0  0  0  0  0  0
   -4.1354   -2.1269    0.0000 H   0  0  0  0  0  0  0  0  0  0  0  0
  1  2  1  0  0  0  0
  1 33  1  0  0  0  0
  1 34  1  0  0  0  0
  1 35  1  0  0  0  0
  2  3  1  0  0  0  0
  2  6  1  0  0  0  0
  3  4  2  0  0  0  0
  4  5  1  0  0  0  0
  4 36  1  0  0  0  0
  5  6  2  0  0  0  0
  5 10  1  0  0  0  0
  6  7  1  0  0  0  0
  7  8  2  0  0  0  0
  7 37  1  0  0  0  0
  8  9  1  0  0  0  0
  8 38  1  0  0  0  0
  9 10  2  0  0  0  0
  9 11  1  0  0  0  0
 10 39  1  0  0  0  0
 11 12  2  0  0  0  0
 11 32  1  0  0  0  0
 12 13  1  0  0  0  0
 12 23  1  0  0  0  0
 13 14  1  0  0  0  0
 14 15  1  0  0  0  0
 14 18  1  0  0  0  0
 14 40  1  0  0  0  0
 15 16  1  0  0  0  0
 15 41  1  0  0  0  0
 15 42  1  0  0  0  0
 16 17  2  0  0  0  0
 16 22  1  0  0  0  0
 17 18  1  0  0  0  0
 17 19  1  0  0  0  0
 18 43  1  0  0  0  0
 18 44  1  0  0  0  0
 19 20  2  0  0  0  0
 19 45  1  0  0  0  0
 20 21  1  0  0  0  0
 20 46  1  0  0  0  0
 21 22  2  0  0  0  0
 21 47  1  0  0  0  0
 22 48  1  0  0  0  0
 23 24  1  0  0  0  0
 23 25  2  0  0  0  0
 24 49  1  0  0  0  0
 24 50  1  0  0  0  0
 25 26  1  0  0  0  0
 25 51  1  0  0  0  0
 26 27  1  0  0  0  0
 26 32  2  0  0  0  0
 27 28  1  0  0  0  0
 27 52  1  0  0  0  0
 27 53  1  0  0  0  0
 28 29  1  0  0  0  0
 28 54  1  0  0  0  0
 28 55  1  0  0  0  0
 29 30  1  0  0  0  0
 29 31  2  0  0  0  0
 30 56  1  0  0  0  0
 32 57  1  0  0  0  0
M  END
>  <DRUGBANK_ID>
DB16058

>  <COMMON_NAME>
AK106-001616

>  <CAS_NUMBER>
590416-75-4

>  <UNII>
I2CST2BV1Q

$$$$
