
 OpenBabel10282417072D

 54 56  0  0  0  0  0  0  0  0999 V2000
    3.9849    0.6507    0.0000 C   0  0  0  0  0  0  0  0  0  0  0  0
    3.9849   -0.1743    0.0000 C   0  0  0  0  0  0  0  0  0  0  0  0
    4.6993   -0.5868    0.0000 C   0  0  0  0  0  0  0  0  0  0  0  0
    4.6993   -1.4118    0.0000 C   0  0  0  0  0  0  0  0  0  0  0  0
    3.9849   -1.8243    0.0000 C   0  0  0  0  0  0  0  0  0  0  0  0
    3.2704   -1.4118    0.0000 C   0  0  0  0  0  0  0  0  0  0  0  0
    3.2704   -0.5868    0.0000 C   0  0  0  0  0  0  0  0  0  0  0  0
    2.5559   -0.1743    0.0000 F   0  0  0  0  0  0  0  0  0  0  0  0
    3.9849   -2.6493    0.0000 C   0  0  0  0  0  0  0  0  0  0  0  0
    4.6993   -3.0618    0.0000 O   0  0  0  0  0  0  0  0  0  0  0  0
    3.2704   -3.0618    0.0000 N   0  0  0  0  0  0  0  0  0  0  0  0
    3.2704   -3.8868    0.0000 C   0  0  0  0  0  0  0  0  0  0  0  0
    3.6829   -4.6013    0.0000 C   0  0  0  0  0  0  0  0  0  0  0  0
    2.8579   -4.6013    0.0000 C   0  0  0  0  0  0  0  0  0  0  0  0
    5.4138   -0.1743    0.0000 C   0  0  0  0  0  0  0  0  0  0  0  0
    5.4138    0.6507    0.0000 C   0  0  0  0  0  0  0  0  0  0  0  0
    6.1283    1.0632    0.0000 C   0  0  0  0  0  0  0  0  0  0  0  0
    6.8427    0.6507    0.0000 C   0  0  0  0  0  0  0  0  0  0  0  0
    6.8427   -0.1743    0.0000 C   0  0  0  0  0  0  0  0  0  0  0  0
    6.1283   -0.5868    0.0000 N   0  0  0  0  0  0  0  0  0  0  0  0
    7.5572    1.0632    0.0000 C   0  0  0  0  0  0  0  0  0  0  0  0
    8.2717    0.6507    0.0000 O   0  0  0  0  0  0  0  0  0  0  0  0
    7.5572    1.8882    0.0000 N   0  0  0  0  0  0  0  0  0  0  0  0
    8.2717    2.3007    0.0000 C   0  0  0  0  0  0  0  0  0  0  0  0
    8.2717    3.1257    0.0000 C   0  0  0  0  0  0  0  0  0  0  0  0
    8.2717    3.9507    0.0000 C   0  0  0  0  0  0  0  0  0  0  0  0
    9.0967    3.1257    0.0000 C   0  0  0  0  0  0  0  0  0  0  0  0
    7.4467    3.1257    0.0000 C   0  0  0  0  0  0  0  0  0  0  0  0
    4.9115    1.1857    0.0000 H   0  0  0  0  0  0  0  0  0  0  0  0
    3.0583    1.1857    0.0000 H   0  0  0  0  0  0  0  0  0  0  0  0
    3.9849    1.7207    0.0000 H   0  0  0  0  0  0  0  0  0  0  0  0
    5.5930   -1.9278    0.0000 H   0  0  0  0  0  0  0  0  0  0  0  0
    2.3767   -1.9278    0.0000 H   0  0  0  0  0  0  0  0  0  0  0  0
    2.4178   -2.5695    0.0000 H   0  0  0  0  0  0  0  0  0  0  0  0
    3.2704   -4.9568    0.0000 H   0  0  0  0  0  0  0  0  0  0  0  0
    4.6095   -5.1363    0.0000 H   0  0  0  0  0  0  0  0  0  0  0  0
    3.4060   -5.6348    0.0000 H   0  0  0  0  0  0  0  0  0  0  0  0
    1.9313   -5.1363    0.0000 H   0  0  0  0  0  0  0  0  0  0  0  0
    2.1013   -3.8447    0.0000 H   0  0  0  0  0  0  0  0  0  0  0  0
    4.5201    1.1667    0.0000 H   0  0  0  0  0  0  0  0  0  0  0  0
    6.1283    2.0952    0.0000 H   0  0  0  0  0  0  0  0  0  0  0  0
    7.7364   -0.6903    0.0000 H   0  0  0  0  0  0  0  0  0  0  0  0
    6.7046    2.3805    0.0000 H   0  0  0  0  0  0  0  0  0  0  0  0
    9.1983    1.7657    0.0000 H   0  0  0  0  0  0  0  0  0  0  0  0
    9.1983    2.8357    0.0000 H   0  0  0  0  0  0  0  0  0  0  0  0
    9.1983    4.4857    0.0000 H   0  0  0  0  0  0  0  0  0  0  0  0
    7.3451    4.4857    0.0000 H   0  0  0  0  0  0  0  0  0  0  0  0
    8.2717    5.0207    0.0000 H   0  0  0  0  0  0  0  0  0  0  0  0
    9.6317    2.1991    0.0000 H   0  0  0  0  0  0  0  0  0  0  0  0
    9.6317    4.0523    0.0000 H   0  0  0  0  0  0  0  0  0  0  0  0
   10.1667    3.1257    0.0000 H   0  0  0  0  0  0  0  0  0  0  0  0
    6.9117    4.0523    0.0000 H   0  0  0  0  0  0  0  0  0  0  0  0
    6.9117    2.1991    0.0000 H   0  0  0  0  0  0  0  0  0  0  0  0
    6.3767    3.1257    0.0000 H   0  0  0  0  0  0  0  0  0  0  0  0
  1  2  1  0  0  0  0
  1 29  1  0  0  0  0
  1 30  1  0  0  0  0
  1 31  1  0  0  0  0
  2  3  2  0  0  0  0
  2  7  1  0  0  0  0
  3  4  1  0  0  0  0
  3 15  1  0  0  0  0
  4  5  2  0  0  0  0
  4 32  1  0  0  0  0
  5  6  1  0  0  0  0
  5  9  1  0  0  0  0
  6  7  2  0  0  0  0
  6 33  1  0  0  0  0
  7  8  1  0  0  0  0
  9 10  2  0  0  0  0
  9 11  1  0  0  0  0
 11 12  1  0  0  0  0
 11 34  1  0  0  0  0
 12 13  1  0  0  0  0
 12 14  1  0  0  0  0
 12 35  1  0  0  0  0
 13 14  1  0  0  0  0
 13 36  1  0  0  0  0
 13 37  1  0  0  0  0
 14 38  1  0  0  0  0
 14 39  1  0  0  0  0
 15 16  2  0  0  0  0
 15 20  1  0  0  0  0
 16 17  1  0  0  0  0
 16 40  1  0  0  0  0
 17 18  2  0  0  0  0
 17 41  1  0  0  0  0
 18 19  1  0  0  0  0
 18 21  1  0  0  0  0
 19 20  2  0  0  0  0
 19 42  1  0  0  0  0
 21 22  2  0  0  0  0
 21 23  1  0  0  0  0
 23 24  1  0  0  0  0
 23 43  1  0  0  0  0
 24 25  1  0  0  0  0
 24 44  1  0  0  0  0
 24 45  1  0  0  0  0
 25 26  1  0  0  0  0
 25 27  1  0  0  0  0
 25 28  1  0  0  0  0
 26 46  1  0  0  0  0
 26 47  1  0  0  0  0
 26 48  1  0  0  0  0
 27 49  1  0  0  0  0
 27 50  1  0  0  0  0
 27 51  1  0  0  0  0
 28 52  1  0  0  0  0
 28 53  1  0  0  0  0
 28 54  1  0  0  0  0
M  END
>  <DRUGBANK_ID>
DB12270

>  <COMMON_NAME>
Losmapimod

>  <CAS_NUMBER>
585543-15-3

>  <UNII>
F2DQF16BXE

>  <SYNONYMS>
Losmapimod

$$$$
