
 OpenBabel10282417072D

 42 43  0  0  1  0  0  0  0  0999 V2000
   -4.3455   -0.1418    0.0000 C   0  0  0  0  0  0  0  0  0  0  0  0
    0.1298    2.0602    0.0000 C   0  0  0  0  0  0  0  0  0  0  0  0
    0.3957    0.4394    0.0000 C   0  0  0  0  0  0  0  0  0  0  0  0
   -3.0401    0.4394    0.0000 C   0  0  0  0  0  0  0  0  0  0  0  0
   -1.3222    3.1152    0.0000 C   0  0  0  0  0  0  0  0  0  0  0  0
   -3.5251   -0.2280    0.0000 C   0  0  0  0  0  0  0  0  0  0  0  0
   -0.6548    1.8053    0.0000 C   0  0  2  0  0  0  0  0  0  0  0  0
   -1.3222    2.2902    0.0000 C   0  0  2  0  0  0  0  0  0  0  0  0
   -0.9097    1.0206    0.0000 C   0  0  2  0  0  0  0  0  0  0  0  0
   -3.1895   -0.9817    0.0000 C   0  0  0  0  0  0  0  0  0  0  0  0
   -1.7347    1.0206    0.0000 C   0  0  2  0  0  0  0  0  0  0  0  0
   -1.8841   -0.4005    0.0000 C   0  0  0  0  0  0  0  0  0  0  0  0
   -2.3690   -1.0679    0.0000 N   0  0  0  0  0  0  0  0  0  0  0  0
   -2.2197    0.3532    0.0000 N   0  0  0  0  0  0  0  0  0  0  0  0
   -3.6744   -1.6491    0.0000 O   0  0  0  0  0  0  0  0  0  0  0  0
   -1.0636   -0.4867    0.0000 O   0  0  0  0  0  0  0  0  0  0  0  0
   -0.6078    5.1777    0.0000 O   0  0  0  0  0  0  0  0  0  0  0  0
    0.2172    4.3527    0.0000 O   0  0  0  0  0  0  0  0  0  0  0  0
   -1.4328    4.3527    0.0000 O   0  0  0  0  0  0  0  0  0  0  0  0
   -0.4248    0.3532    0.0000 O   0  0  0  0  0  0  0  0  0  0  0  0
   -0.6078    3.5277    0.0000 O   0  0  0  0  0  0  0  0  0  0  0  0
   -1.9897    1.8053    0.0000 O   0  0  0  0  0  0  0  0  0  0  0  0
   -0.6078    4.3527    0.0000 P   0  0  0  0  0  0  0  0  0  0  0  0
   -0.8122    2.6151    0.0000 H   0  0  0  0  0  0  0  0  0  0  0  0
   -0.7596    2.8935    0.0000 H   0  0  0  0  0  0  0  0  0  0  0  0
   -0.0949    1.1497    0.0000 H   0  0  0  0  0  0  0  0  0  0  0  0
   -1.3602    0.2856    0.0000 H   0  0  0  0  0  0  0  0  0  0  0  0
   -4.7807    0.8357    0.0000 H   0  0  0  0  0  0  0  0  0  0  0  0
   -4.9744   -1.0075    0.0000 H   0  0  0  0  0  0  0  0  0  0  0  0
   -5.4096   -0.0300    0.0000 H   0  0  0  0  0  0  0  0  0  0  0  0
    0.9249    1.3442    0.0000 H   0  0  0  0  0  0  0  0  0  0  0  0
    0.3523    3.1068    0.0000 H   0  0  0  0  0  0  0  0  0  0  0  0
    1.1474    2.3908    0.0000 H   0  0  0  0  0  0  0  0  0  0  0  0
    1.0246   -0.4263    0.0000 H   0  0  0  0  0  0  0  0  0  0  0  0
    0.8310    1.4169    0.0000 H   0  0  0  0  0  0  0  0  0  0  0  0
    1.4598    0.5512    0.0000 H   0  0  0  0  0  0  0  0  0  0  0  0
   -3.4598    1.3822    0.0000 H   0  0  0  0  0  0  0  0  0  0  0  0
   -2.2489    3.6502    0.0000 H   0  0  0  0  0  0  0  0  0  0  0  0
   -1.3222    4.1852    0.0000 H   0  0  0  0  0  0  0  0  0  0  0  0
   -1.9685   -1.9673    0.0000 H   0  0  0  0  0  0  0  0  0  0  0  0
    0.2322    5.6627    0.0000 H   0  0  0  0  0  0  0  0  0  0  0  0
    0.7022    3.5127    0.0000 H   0  0  0  0  0  0  0  0  0  0  0  0
  1 28  1  0  0  0  0
  1 29  1  0  0  0  0
  1 30  1  0  0  0  0
  2 31  1  0  0  0  0
  2 32  1  0  0  0  0
  2 33  1  0  0  0  0
  3 34  1  0  0  0  0
  3 35  1  0  0  0  0
  3 36  1  0  0  0  0
  4 37  1  0  0  0  0
  5 38  1  0  0  0  0
  5 39  1  0  0  0  0
  6  1  1  0  0  0  0
  6  4  2  0  0  0  0
  7  2  1  0  0  0  0
  7 24  1  6  0  0  0
  8  5  1  0  0  0  0
  8  7  1  0  0  0  0
  8 25  1  1  0  0  0
  9  7  1  0  0  0  0
  9 20  1  0  0  0  0
  9 26  1  6  0  0  0
 10  6  1  0  0  0  0
 11  9  1  0  0  0  0
 11 14  1  0  0  0  0
 11 27  1  1  0  0  0
 13 10  1  0  0  0  0
 13 12  1  0  0  0  0
 13 40  1  0  0  0  0
 14  4  1  0  0  0  0
 14 12  1  0  0  0  0
 15 10  2  0  0  0  0
 16 12  2  0  0  0  0
 17 41  1  0  0  0  0
 18 42  1  0  0  0  0
 20  3  1  0  0  0  0
 21  5  1  0  0  0  0
 22  8  1  0  0  0  0
 22 11  1  0  0  0  0
 23 17  1  0  0  0  0
 23 18  1  0  0  0  0
 23 19  2  0  0  0  0
 23 21  1  0  0  0  0
M  END
>  <DRUGBANK_ID>
DB03249

>  <SECONDARY_ACCESSION_NUMBERS>
EXPT02991

>  <COMMON_NAME>
2'-O-Methyl-3'-Methyl-3'-Deoxy-Arabinofuranosyl-Thymine-5'-Phosphate

$$$$
