LI6
 OpenBabel10282417072D

 23 24  0  0  0  0  0  0  0  0999 V2000
   -1.1747   -0.5580    0.0000 C   0  0  0  0  0  0  0  0  0  0  0  0
   -0.4602   -0.1455    0.0000 C   0  0  0  0  0  0  0  0  0  0  0  0
   -0.4602    0.6795    0.0000 C   0  0  0  0  0  0  0  0  0  0  0  0
    0.2543    1.0920    0.0000 C   0  0  0  0  0  0  0  0  0  0  0  0
    0.9687    0.6795    0.0000 C   0  0  0  0  0  0  0  0  0  0  0  0
    1.6832   -0.5580    0.0000 O   0  0  0  0  0  0  0  0  0  0  0  0
    0.9687   -0.1455    0.0000 C   0  0  0  0  0  0  0  0  0  0  0  0
    1.6832    1.0920    0.0000 O   0  0  0  0  0  0  0  0  0  0  0  0
    0.2543   -0.5580    0.0000 N   0  0  0  0  0  0  0  0  0  0  0  0
    0.2543   -1.3830    0.0000 C   0  0  0  0  0  0  0  0  0  0  0  0
    0.2543    1.9170    0.0000 O   0  0  0  0  0  0  0  0  0  0  0  0
   -1.8891   -0.1455    0.0000 C   0  0  0  0  0  0  0  0  0  0  0  0
   -1.8891    0.6795    0.0000 C   0  0  0  0  0  0  0  0  0  0  0  0
   -1.1747    1.0920    0.0000 C   0  0  0  0  0  0  0  0  0  0  0  0
   -1.1747   -1.5900    0.0000 H   0  0  0  0  0  0  0  0  0  0  0  0
    2.4947    0.6235    0.0000 H   0  0  0  0  0  0  0  0  0  0  0  0
   -0.6723   -1.9180    0.0000 H   0  0  0  0  0  0  0  0  0  0  0  0
    1.1809   -1.9180    0.0000 H   0  0  0  0  0  0  0  0  0  0  0  0
    0.2543   -2.4530    0.0000 H   0  0  0  0  0  0  0  0  0  0  0  0
    1.0658    2.3855    0.0000 H   0  0  0  0  0  0  0  0  0  0  0  0
   -2.7828   -0.6615    0.0000 H   0  0  0  0  0  0  0  0  0  0  0  0
   -2.7828    1.1955    0.0000 H   0  0  0  0  0  0  0  0  0  0  0  0
   -1.1747    2.1240    0.0000 H   0  0  0  0  0  0  0  0  0  0  0  0
  1  2  2  0  0  0  0
  1 12  1  0  0  0  0
  1 15  1  0  0  0  0
  2  3  1  0  0  0  0
  2  9  1  0  0  0  0
  3  4  1  0  0  0  0
  3 14  2  0  0  0  0
  4  5  2  0  0  0  0
  4 11  1  0  0  0  0
  5  7  1  0  0  0  0
  5  8  1  0  0  0  0
  6  7  2  0  0  0  0
  7  9  1  0  0  0  0
  8 16  1  0  0  0  0
  9 10  1  0  0  0  0
 10 17  1  0  0  0  0
 10 18  1  0  0  0  0
 10 19  1  0  0  0  0
 11 20  1  0  0  0  0
 12 13  2  0  0  0  0
 12 21  1  0  0  0  0
 13 14  1  0  0  0  0
 13 22  1  0  0  0  0
 14 23  1  0  0  0  0
M  END
>  <DRUGBANK_ID>
DB01754

>  <SECONDARY_ACCESSION_NUMBERS>
EXPT02028

>  <COMMON_NAME>
3,4-Dihydroxy-1-Methylquinolin-2(1h)-One

>  <UNII>
3LH3M77BN6

$$$$
