
 OpenBabel10282417072D

 59 62  0  0  0  0  0  0  0  0999 V2000
   -2.4045   -4.5861    0.0000 C   0  0  0  0  0  0  0  0  0  0  0  0
    1.1828   -1.3652    0.0000 C   0  0  0  0  0  0  0  0  0  0  0  0
    2.0078   -1.3652    0.0000 C   0  0  0  0  0  0  0  0  0  0  0  0
   -0.9129   -2.9925    0.0000 C   0  0  0  0  0  0  0  0  0  0  0  0
   -0.5774   -2.2389    0.0000 C   0  0  0  0  0  0  0  0  0  0  0  0
    1.1828    3.9187    0.0000 C   0  0  0  0  0  0  0  0  0  0  0  0
    0.9279    3.1341    0.0000 C   0  0  0  0  0  0  0  0  0  0  0  0
    1.5953    0.1741    0.0000 C   0  0  0  0  0  0  0  0  0  0  0  0
   -2.2183   -2.4113    0.0000 C   0  0  0  0  0  0  0  0  0  0  0  0
    2.2627    3.1341    0.0000 C   0  0  0  0  0  0  0  0  0  0  0  0
    1.5953   -0.6508    0.0000 C   0  0  0  0  0  0  0  0  0  0  0  0
    2.0078    3.9187    0.0000 C   0  0  1  0  0  0  0  0  0  0  0  0
   -1.7334   -3.0788    0.0000 C   0  0  0  0  0  0  0  0  0  0  0  0
   -1.0623   -1.5714    0.0000 C   0  0  0  0  0  0  0  0  0  0  0  0
    0.8808    0.5866    0.0000 C   0  0  1  0  0  0  0  0  0  0  0  0
   -1.8828   -1.6577    0.0000 C   0  0  0  0  0  0  0  0  0  0  0  0
    0.8808    1.4116    0.0000 C   0  0  1  0  0  0  0  0  0  0  0  0
   -0.7267   -0.8178    0.0000 C   0  0  2  0  0  0  0  0  0  0  0  0
    0.1664    0.1741    0.0000 C   0  0  3  0  0  0  0  0  0  0  0  0
    1.5953    1.8241    0.0000 C   0  0  0  0  0  0  0  0  0  0  0  0
    2.4927    4.5861    0.0000 F   0  0  0  0  0  0  0  0  0  0  0  0
   -2.3677   -0.9902    0.0000 F   0  0  0  0  0  0  0  0  0  0  0  0
    0.1664    1.8241    0.0000 N   0  0  0  0  0  0  0  0  0  0  0  0
    0.0801   -0.6462    0.0000 N   0  0  0  0  0  0  0  0  0  0  0  0
   -1.1392   -0.1033    0.0000 N   0  0  0  0  0  0  0  0  0  0  0  0
    1.5953    2.6491    0.0000 N   0  0  0  0  0  0  0  0  0  0  0  0
    2.3098    1.4116    0.0000 O   0  0  0  0  0  0  0  0  0  0  0  0
   -1.3153   -4.1680    0.0000 O   0  0  0  0  0  0  0  0  0  0  0  0
   -2.8226   -3.4969    0.0000 O   0  0  0  0  0  0  0  0  0  0  0  0
   -0.5872    0.5097    0.0000 O   0  0  0  0  0  0  0  0  0  0  0  0
   -2.0690   -3.8325    0.0000 S   0  0  0  0  0  0  0  0  0  0  0  0
    2.8226    3.7896    0.0000 H   0  0  0  0  0  0  0  0  0  0  0  0
    1.5953    0.9991    0.0000 H   0  0  0  0  0  0  0  0  0  0  0  0
    0.8808    2.2366    0.0000 H   0  0  0  0  0  0  0  0  0  0  0  0
   -0.2076   -1.4589    0.0000 H   0  0  0  0  0  0  0  0  0  0  0  0
    0.8583   -0.2751    0.0000 H   0  0  0  0  0  0  0  0  0  0  0  0
   -3.4686   -4.6980    0.0000 H   0  0  0  0  0  0  0  0  0  0  0  0
   -1.7755   -5.4517    0.0000 H   0  0  0  0  0  0  0  0  0  0  0  0
   -2.8397   -5.5636    0.0000 H   0  0  0  0  0  0  0  0  0  0  0  0
    0.2561   -1.9002    0.0000 H   0  0  0  0  0  0  0  0  0  0  0  0
    0.4262   -0.6086    0.0000 H   0  0  0  0  0  0  0  0  0  0  0  0
    2.9345   -1.9002    0.0000 H   0  0  0  0  0  0  0  0  0  0  0  0
    2.7644   -0.6086    0.0000 H   0  0  0  0  0  0  0  0  0  0  0  0
   -0.3063   -3.8274    0.0000 H   0  0  0  0  0  0  0  0  0  0  0  0
    0.4489   -2.1310    0.0000 H   0  0  0  0  0  0  0  0  0  0  0  0
    0.5539    4.7843    0.0000 H   0  0  0  0  0  0  0  0  0  0  0  0
    1.6686    4.8721    0.0000 H   0  0  0  0  0  0  0  0  0  0  0  0
   -0.0897    2.8035    0.0000 H   0  0  0  0  0  0  0  0  0  0  0  0
    0.7604    2.0773    0.0000 H   0  0  0  0  0  0  0  0  0  0  0  0
    2.5219    0.7091    0.0000 H   0  0  0  0  0  0  0  0  0  0  0  0
    1.5953    1.2441    0.0000 H   0  0  0  0  0  0  0  0  0  0  0  0
   -3.2446   -2.5192    0.0000 H   0  0  0  0  0  0  0  0  0  0  0  0
    3.2803    2.8035    0.0000 H   0  0  0  0  0  0  0  0  0  0  0  0
    2.4302    2.0773    0.0000 H   0  0  0  0  0  0  0  0  0  0  0  0
    2.6288   -0.3738    0.0000 H   0  0  0  0  0  0  0  0  0  0  0  0
    0.1664    2.8441    0.0000 H   0  0  0  0  0  0  0  0  0  0  0  0
   -0.7170    1.3141    0.0000 H   0  0  0  0  0  0  0  0  0  0  0  0
    0.8381   -1.3287    0.0000 H   0  0  0  0  0  0  0  0  0  0  0  0
   -2.1536    0.0034    0.0000 H   0  0  0  0  0  0  0  0  0  0  0  0
  1 37  1  0  0  0  0
  1 38  1  0  0  0  0
  1 39  1  0  0  0  0
  2 40  1  0  0  0  0
  2 41  1  0  0  0  0
  3  2  1  0  0  0  0
  3 42  1  0  0  0  0
  3 43  1  0  0  0  0
  4 44  1  0  0  0  0
  5  4  2  0  0  0  0
  5 45  1  0  0  0  0
  6 46  1  0  0  0  0
  6 47  1  0  0  0  0
  7  6  1  0  0  0  0
  7 48  1  0  0  0  0
  7 49  1  0  0  0  0
  8 50  1  0  0  0  0
  8 51  1  0  0  0  0
  9 52  1  0  0  0  0
 10 53  1  0  0  0  0
 10 54  1  0  0  0  0
 11  2  1  0  0  0  0
 11  3  1  0  0  0  0
 11  8  1  0  0  0  0
 11 55  1  0  0  0  0
 12  6  1  0  0  0  0
 12 10  1  0  0  0  0
 12 21  1  0  0  0  0
 12 32  1  1  0  0  0
 13  4  1  0  0  0  0
 13  9  2  0  0  0  0
 14  5  1  0  0  0  0
 15  8  1  0  0  0  0
 15 17  1  0  0  0  0
 15 19  1  0  0  0  0
 15 33  1  1  0  0  0
 16  9  1  0  0  0  0
 16 14  2  0  0  0  0
 17 20  1  0  0  0  0
 17 23  1  0  0  0  0
 17 34  1  1  0  0  0
 18 14  1  0  0  0  0
 18 24  1  0  0  0  0
 18 25  1  0  0  0  0
 18 35  1  6  0  0  0
 22 16  1  0  0  0  0
 23 56  1  0  0  0  0
 23 57  1  0  0  0  0
 24 19  1  0  0  0  0
 24 58  1  0  0  0  0
 25 59  1  0  0  0  0
 26  7  1  0  0  0  0
 26 10  1  0  0  0  0
 26 20  1  0  0  0  0
 27 20  2  0  0  0  0
 30 19  1  0  0  0  0
 30 25  1  0  0  0  0
 31  1  1  0  0  0  0
 31 13  1  0  0  0  0
 31 28  2  0  0  0  0
 31 29  2  0  0  0  0
 36 19  1  0  0  0  0
M  END
>  <DRUGBANK_ID>
DB06993

>  <COMMON_NAME>
(2S,3S)-4-cyclopropyl-3-{(3R,5R)-3-[2-fluoro-4-(methylsulfonyl)phenyl]-1,2,4-oxadiazolidin-5-yl}-1-[(3S)-3-fluoropyrrolidin-1-yl]-1-oxobutan-2-amine

$$$$
