
 OpenBabel10282417072D

 84 87  0  0  0  0  0  0  0  0999 V2000
   -4.1145    2.6805    0.0000 C   0  0  0  0  0  0  0  0  0  0  0  0
   -2.7909    2.1421    0.0000 C   0  0  0  0  0  0  0  0  0  0  0  0
    2.4865   -2.6805    0.0000 C   0  0  0  0  0  0  0  0  0  0  0  0
    3.4840   -2.3202    0.0000 C   0  0  0  0  0  0  0  0  0  0  0  0
    1.3978   -0.2089    0.0000 C   0  0  0  0  0  0  0  0  0  0  0  0
   -0.2802   -2.1261    0.0000 C   0  0  0  0  0  0  0  0  0  0  0  0
    0.0233   -2.2345    0.0000 C   0  0  0  0  0  0  0  0  0  0  0  0
   -1.4377    0.5816    0.0000 C   0  0  0  0  0  0  0  0  0  0  0  0
   -3.4127    0.6137    0.0000 C   0  0  0  0  0  0  0  0  0  0  0  0
   -3.9190    1.2650    0.0000 C   0  0  0  0  0  0  0  0  0  0  0  0
   -0.2263    0.0814    0.0000 C   0  0  0  0  0  0  0  0  0  0  0  0
    0.5857   -0.0637    0.0000 C   0  0  0  0  0  0  0  0  0  0  0  0
   -1.8120   -1.3685    0.0000 C   0  0  0  0  0  0  0  0  0  0  0  0
    1.4266   -2.3915    0.0000 C   0  0  0  0  0  0  0  0  0  0  0  0
    3.0221   -0.4993    0.0000 C   0  0  0  0  0  0  0  0  0  0  0  0
   -2.5954    0.7266    0.0000 C   0  0  0  0  0  0  0  0  0  0  0  0
    2.2099   -0.3541    0.0000 C   0  0  0  0  0  0  0  0  0  0  0  0
   -1.1292   -1.8315    0.0000 C   0  0  0  0  0  0  0  0  0  0  0  0
    0.6145   -2.2463    0.0000 C   0  0  0  0  0  0  0  0  0  0  0  0
   -3.6081    2.0292    0.0000 C   0  0  0  0  0  0  0  0  0  0  0  0
   -0.7581   -0.5492    0.0000 C   0  0  3  0  0  0  0  0  0  0  0  0
   -1.5827   -0.5760    0.0000 C   0  0  1  0  0  0  0  0  0  0  0  0
    1.9584   -1.7608    0.0000 C   0  0  1  0  0  0  0  0  0  0  0  0
    0.8660   -0.8396    0.0000 C   0  0  2  0  0  0  0  0  0  0  0  0
    3.3024   -1.2753    0.0000 C   0  0  1  0  0  0  0  0  0  0  0  0
    2.7705   -1.9060    0.0000 C   0  0  0  0  0  0  0  0  0  0  0  0
    1.6781   -0.9848    0.0000 C   0  0  2  0  0  0  0  0  0  0  0  0
   -0.4778   -1.3251    0.0000 C   0  0  1  0  0  0  0  0  0  0  0  0
    0.3342   -1.4703    0.0000 C   0  0  1  0  0  0  0  0  0  0  0  0
   -2.0891    0.0752    0.0000 C   0  0  3  0  0  0  0  0  0  0  0  0
    4.1145   -1.4205    0.0000 O   0  0  0  0  0  0  0  0  0  0  0  0
   -2.7404   -0.4310    0.0000 O   0  0  0  0  0  0  0  0  0  0  0  0
    0.0539   -0.6944    0.0000 H   0  0  0  0  0  0  0  0  0  0  0  0
   -1.2322    0.1708    0.0000 H   0  0  0  0  0  0  0  0  0  0  0  0
    2.4902   -1.1301    0.0000 H   0  0  0  0  0  0  0  0  0  0  0  0
    1.1463   -1.6156    0.0000 H   0  0  0  0  0  0  0  0  0  0  0  0
    3.5827   -2.0512    0.0000 H   0  0  0  0  0  0  0  0  0  0  0  0
   -3.7113    3.6716    0.0000 H   0  0  0  0  0  0  0  0  0  0  0  0
   -5.1744    2.5341    0.0000 H   0  0  0  0  0  0  0  0  0  0  0  0
   -4.7713    3.5252    0.0000 H   0  0  0  0  0  0  0  0  0  0  0  0
   -2.1341    1.2974    0.0000 H   0  0  0  0  0  0  0  0  0  0  0  0
   -2.3877    3.1332    0.0000 H   0  0  0  0  0  0  0  0  0  0  0  0
   -1.7310    2.2885    0.0000 H   0  0  0  0  0  0  0  0  0  0  0  0
    1.4323   -2.8638    0.0000 H   0  0  0  0  0  0  0  0  0  0  0  0
    3.1723   -3.5018    0.0000 H   0  0  0  0  0  0  0  0  0  0  0  0
    2.1181   -3.6851    0.0000 H   0  0  0  0  0  0  0  0  0  0  0  0
    3.4815   -3.3902    0.0000 H   0  0  0  0  0  0  0  0  0  0  0  0
    4.4119   -1.7874    0.0000 H   0  0  0  0  0  0  0  0  0  0  0  0
    4.4094   -2.8574    0.0000 H   0  0  0  0  0  0  0  0  0  0  0  0
    2.0875    0.6091    0.0000 H   0  0  0  0  0  0  0  0  0  0  0  0
    0.3445   -0.0206    0.0000 H   0  0  0  0  0  0  0  0  0  0  0  0
    1.0342    0.7974    0.0000 H   0  0  0  0  0  0  0  0  0  0  0  0
   -1.0517   -2.8675    0.0000 H   0  0  0  0  0  0  0  0  0  0  0  0
    0.7476   -2.4236    0.0000 H   0  0  0  0  0  0  0  0  0  0  0  0
   -0.0239   -3.1650    0.0000 H   0  0  0  0  0  0  0  0  0  0  0  0
   -1.0366   -2.3809    0.0000 H   0  0  0  0  0  0  0  0  0  0  0  0
    0.6800   -3.0793    0.0000 H   0  0  0  0  0  0  0  0  0  0  0  0
   -0.3799   -3.2256    0.0000 H   0  0  0  0  0  0  0  0  0  0  0  0
   -0.4466    0.1784    0.0000 H   0  0  0  0  0  0  0  0  0  0  0  0
   -1.5841    1.6415    0.0000 H   0  0  0  0  0  0  0  0  0  0  0  0
   -0.5929    1.2383    0.0000 H   0  0  0  0  0  0  0  0  0  0  0  0
   -3.8159   -0.3774    0.0000 H   0  0  0  0  0  0  0  0  0  0  0  0
   -2.7559   -0.2310    0.0000 H   0  0  0  0  0  0  0  0  0  0  0  0
   -4.9413    1.1238    0.0000 H   0  0  0  0  0  0  0  0  0  0  0  0
   -0.5899    1.0877    0.0000 H   0  0  0  0  0  0  0  0  0  0  0  0
   -1.2796    0.2698    0.0000 H   0  0  0  0  0  0  0  0  0  0  0  0
    1.2754    0.7544    0.0000 H   0  0  0  0  0  0  0  0  0  0  0  0
    1.6390   -0.2520    0.0000 H   0  0  0  0  0  0  0  0  0  0  0  0
   -2.8184   -1.7320    0.0000 H   0  0  0  0  0  0  0  0  0  0  0  0
   -2.5928   -0.6369    0.0000 H   0  0  0  0  0  0  0  0  0  0  0  0
    1.7902   -3.3978    0.0000 H   0  0  0  0  0  0  0  0  0  0  0  0
    2.4799   -2.5798    0.0000 H   0  0  0  0  0  0  0  0  0  0  0  0
    3.7119    0.3187    0.0000 H   0  0  0  0  0  0  0  0  0  0  0  0
    4.0754   -0.6877    0.0000 H   0  0  0  0  0  0  0  0  0  0  0  0
   -2.1922    1.7177    0.0000 H   0  0  0  0  0  0  0  0  0  0  0  0
   -1.5354    0.8729    0.0000 H   0  0  0  0  0  0  0  0  0  0  0  0
    1.8463    0.6522    0.0000 H   0  0  0  0  0  0  0  0  0  0  0  0
    1.1566   -0.1658    0.0000 H   0  0  0  0  0  0  0  0  0  0  0  0
   -1.0945   -2.9009    0.0000 H   0  0  0  0  0  0  0  0  0  0  0  0
   -0.1606   -2.2861    0.0000 H   0  0  0  0  0  0  0  0  0  0  0  0
   -0.0753   -3.0643    0.0000 H   0  0  0  0  0  0  0  0  0  0  0  0
   -0.4388   -2.0579    0.0000 H   0  0  0  0  0  0  0  0  0  0  0  0
    4.4441   -2.3328    0.0000 H   0  0  0  0  0  0  0  0  0  0  0  0
   -3.6388   -0.0654    0.0000 H   0  0  0  0  0  0  0  0  0  0  0  0
  1 38  1  0  0  0  0
  1 39  1  0  0  0  0
  1 40  1  0  0  0  0
  2 41  1  0  0  0  0
  2 42  1  0  0  0  0
  2 43  1  0  0  0  0
  3 44  1  0  0  0  0
  3 45  1  0  0  0  0
  3 46  1  0  0  0  0
  4 47  1  0  0  0  0
  4 48  1  0  0  0  0
  4 49  1  0  0  0  0
  5 50  1  0  0  0  0
  5 51  1  0  0  0  0
  5 52  1  0  0  0  0
  6 53  1  0  0  0  0
  6 54  1  0  0  0  0
  6 55  1  0  0  0  0
  7 56  1  0  0  0  0
  7 57  1  0  0  0  0
  7 58  1  0  0  0  0
  8 59  1  0  0  0  0
  8 60  1  0  0  0  0
  8 61  1  0  0  0  0
  9 62  1  0  0  0  0
  9 63  1  0  0  0  0
 10  9  1  0  0  0  0
 10 64  1  0  0  0  0
 11 65  1  0  0  0  0
 11 66  1  0  0  0  0
 12 11  1  0  0  0  0
 12 67  1  0  0  0  0
 12 68  1  0  0  0  0
 13 69  1  0  0  0  0
 13 70  1  0  0  0  0
 14 71  1  0  0  0  0
 14 72  1  0  0  0  0
 15 73  1  0  0  0  0
 15 74  1  0  0  0  0
 16  9  1  0  0  0  0
 16 75  1  0  0  0  0
 16 76  1  0  0  0  0
 17 15  1  0  0  0  0
 17 77  1  0  0  0  0
 17 78  1  0  0  0  0
 18 13  1  0  0  0  0
 18 79  1  0  0  0  0
 18 80  1  0  0  0  0
 19 14  1  0  0  0  0
 19 81  1  0  0  0  0
 19 82  1  0  0  0  0
 20  1  1  0  0  0  0
 20  2  1  0  0  0  0
 20 10  2  0  0  0  0
 21 11  1  0  0  0  0
 22 13  1  0  0  0  0
 22 21  1  0  0  0  0
 22 30  1  0  0  0  0
 22 34  1  1  0  0  0
 23 14  1  0  0  0  0
 23 26  1  0  0  0  0
 23 35  1  1  0  0  0
 24 12  1  0  0  0  0
 24 27  1  0  0  0  0
 24 29  1  0  0  0  0
 24 36  1  1  0  0  0
 25 15  1  0  0  0  0
 25 26  1  0  0  0  0
 25 31  1  0  0  0  0
 25 37  1  1  0  0  0
 26  3  1  0  0  0  0
 26  4  1  0  0  0  0
 27  5  1  6  0  0  0
 27 17  1  0  0  0  0
 27 23  1  0  0  0  0
 28  6  1  1  0  0  0
 28 18  1  0  0  0  0
 28 21  1  0  0  0  0
 29  7  1  6  0  0  0
 29 19  1  0  0  0  0
 29 28  1  0  0  0  0
 30  8  1  0  0  0  0
 30 16  1  0  0  0  0
 31 83  1  0  0  0  0
 32 30  1  0  0  0  0
 32 84  1  0  0  0  0
 33 21  1  0  0  0  0
M  END
>  <DRUGBANK_ID>
DB14152

>  <COMMON_NAME>
Ginsenosides

>  <CAS_NUMBER>
74749-74-9

>  <UNII>
3K198YD54P

>  <SYNONYMS>
Ginseng root-neutral saponins; Ginsenoside; Neutral saponins of panax ginseng root

$$$$
