
 OpenBabel10282417072D

 42 43  0  0  0  0  0  0  0  0999 V2000
   -3.3819    4.0565    0.0000 C   0  0  0  0  0  0  0  0  0  0  0  0
   -1.2159    3.1003    0.0000 C   0  0  0  0  0  0  0  0  0  0  0  0
   -2.4174    2.1738    0.0000 C   0  0  0  0  0  0  0  0  0  0  0  0
    0.4402    4.9396    0.0000 C   0  0  0  0  0  0  0  0  0  0  0  0
    0.9922    5.5527    0.0000 C   0  0  0  0  0  0  0  0  0  0  0  0
   -2.1624    2.9585    0.0000 C   0  0  0  0  0  0  0  0  0  0  0  0
   -3.2424    2.1738    0.0000 C   0  0  0  0  0  0  0  0  0  0  0  0
   -0.6217    5.8958    0.0000 C   0  0  0  0  0  0  0  0  0  0  0  0
   -2.2778    4.0565    0.0000 C   0  0  0  0  0  0  0  0  0  0  0  0
   -0.3668    5.1111    0.0000 C   0  0  0  0  0  0  0  0  0  0  0  0
    0.7373    6.3373    0.0000 C   0  0  0  0  0  0  0  0  0  0  0  0
   -0.0697    6.5088    0.0000 C   0  0  0  0  0  0  0  0  0  0  0  0
   -2.8299    3.4434    0.0000 C   0  0  3  0  0  0  0  0  0  0  0  0
    1.2893    6.9504    0.0000 Cl  0  0  0  0  0  0  0  0  0  0  0  0
   -0.5796    8.0781    0.0000 N   0  0  0  0  0  0  0  0  0  0  0  0
   -1.4709    3.8849    0.0000 N   0  0  0  0  0  0  0  0  0  0  0  0
    0.4600    7.5484    0.0000 O   0  0  0  0  0  0  0  0  0  0  0  0
   -1.1093    7.0385    0.0000 O   0  0  0  0  0  0  0  0  0  0  0  0
   -0.3057    3.9460    0.0000 O   0  0  0  0  0  0  0  0  0  0  0  0
   -1.5319    5.0501    0.0000 O   0  0  0  0  0  0  0  0  0  0  0  0
   -3.4973    2.9585    0.0000 O   0  0  0  0  0  0  0  0  0  0  0  0
   -0.3246    7.2935    0.0000 S   0  0  0  0  0  0  0  0  0  0  0  0
   -0.9188    4.4980    0.0000 S   0  0  0  0  0  0  0  0  0  0  0  0
   -3.0512    5.0741    0.0000 H   0  0  0  0  0  0  0  0  0  0  0  0
   -4.4285    3.8341    0.0000 H   0  0  0  0  0  0  0  0  0  0  0  0
   -4.0978    4.8517    0.0000 H   0  0  0  0  0  0  0  0  0  0  0  0
   -1.9318    2.3051    0.0000 H   0  0  0  0  0  0  0  0  0  0  0  0
   -0.1693    2.8779    0.0000 H   0  0  0  0  0  0  0  0  0  0  0  0
   -0.8852    2.0827    0.0000 H   0  0  0  0  0  0  0  0  0  0  0  0
   -1.7885    1.3081    0.0000 H   0  0  0  0  0  0  0  0  0  0  0  0
   -2.9032    1.2204    0.0000 H   0  0  0  0  0  0  0  0  0  0  0  0
    0.7591    3.9581    0.0000 H   0  0  0  0  0  0  0  0  0  0  0  0
    2.0016    5.3381    0.0000 H   0  0  0  0  0  0  0  0  0  0  0  0
   -1.1448    3.2892    0.0000 H   0  0  0  0  0  0  0  0  0  0  0  0
   -1.9951    4.0153    0.0000 H   0  0  0  0  0  0  0  0  0  0  0  0
   -3.8714    1.3082    0.0000 H   0  0  0  0  0  0  0  0  0  0  0  0
   -4.2992    2.3412    0.0000 H   0  0  0  0  0  0  0  0  0  0  0  0
   -1.6311    6.1104    0.0000 H   0  0  0  0  0  0  0  0  0  0  0  0
   -2.6084    5.0742    0.0000 H   0  0  0  0  0  0  0  0  0  0  0  0
   -1.5618    4.8516    0.0000 H   0  0  0  0  0  0  0  0  0  0  0  0
    0.1029    8.8362    0.0000 H   0  0  0  0  0  0  0  0  0  0  0  0
   -1.5773    8.2901    0.0000 H   0  0  0  0  0  0  0  0  0  0  0  0
  1 24  1  0  0  0  0
  1 25  1  0  0  0  0
  1 26  1  0  0  0  0
  2 27  1  0  0  0  0
  2 28  1  0  0  0  0
  2 29  1  0  0  0  0
  3 30  1  0  0  0  0
  3 31  1  0  0  0  0
  4 32  1  0  0  0  0
  5  4  2  0  0  0  0
  5 33  1  0  0  0  0
  6  3  1  0  0  0  0
  6 34  1  0  0  0  0
  6 35  1  0  0  0  0
  7  3  1  0  0  0  0
  7 36  1  0  0  0  0
  7 37  1  0  0  0  0
  8 38  1  0  0  0  0
  9 39  1  0  0  0  0
  9 40  1  0  0  0  0
 10  4  1  0  0  0  0
 10  8  2  0  0  0  0
 11  5  1  0  0  0  0
 12  8  1  0  0  0  0
 12 11  2  0  0  0  0
 13  1  1  0  0  0  0
 13  6  1  0  0  0  0
 13  9  1  0  0  0  0
 14 11  1  0  0  0  0
 15 41  1  0  0  0  0
 15 42  1  0  0  0  0
 16  2  1  0  0  0  0
 16  9  1  0  0  0  0
 21  7  1  0  0  0  0
 21 13  1  0  0  0  0
 22 12  1  0  0  0  0
 22 15  1  0  0  0  0
 22 17  2  0  0  0  0
 22 18  2  0  0  0  0
 23 10  1  0  0  0  0
 23 16  1  0  0  0  0
 23 19  2  0  0  0  0
 23 20  2  0  0  0  0
M  END
>  <DRUGBANK_ID>
DB13405

>  <COMMON_NAME>
Mefruside

>  <CAS_NUMBER>
7195-27-9

>  <UNII>
X1NS9SNS92

>  <SYNONYMS>
Mefruside

$$$$
