
 OpenBabel10282417072D

 29 32  0  0  0  0  0  0  0  0999 V2000
    0.5175   -0.4060    0.0000 C   0  0  0  0  0  0  0  0  0  0  0  0
    0.5188    0.4184    0.0000 C   0  0  0  0  0  0  0  0  0  0  0  0
   -0.1944    0.8298    0.0000 C   0  0  0  0  0  0  0  0  0  0  0  0
   -0.1924   -0.8174    0.0000 C   0  0  0  0  0  0  0  0  0  0  0  0
   -0.9016   -0.4104    0.0000 C   0  0  0  0  0  0  0  0  0  0  0  0
   -0.9029    0.4141    0.0000 C   0  0  0  0  0  0  0  0  0  0  0  0
   -1.6165    0.8237    0.0000 N   0  0  0  0  0  0  0  0  0  0  0  0
   -2.3296    0.4096    0.0000 C   0  0  0  0  0  0  0  0  0  0  0  0
   -2.3243   -0.4181    0.0000 C   0  0  0  0  0  0  0  0  0  0  0  0
   -1.6100   -0.8240    0.0000 N   0  0  0  0  0  0  0  0  0  0  0  0
    1.9809    0.7352    0.0000 C   0  0  0  0  0  0  0  0  0  0  0  0
    2.3296   -0.0076    0.0000 N   0  0  0  0  0  0  0  0  0  0  0  0
    1.9627   -0.7520    0.0000 C   0  0  0  0  0  0  0  0  0  0  0  0
    1.1734    0.9300    0.0000 C   0  0  3  0  0  0  0  0  0  0  0  0
    1.1552   -0.9300    0.0000 C   0  0  3  0  0  0  0  0  0  0  0  0
    1.4666   -0.0112    0.0000 C   0  0  0  0  0  0  0  0  0  0  0  0
   -0.1982    1.8618    0.0000 H   0  0  0  0  0  0  0  0  0  0  0  0
   -0.1902   -1.8494    0.0000 H   0  0  0  0  0  0  0  0  0  0  0  0
   -3.2256    0.9216    0.0000 H   0  0  0  0  0  0  0  0  0  0  0  0
   -3.2146   -0.9400    0.0000 H   0  0  0  0  0  0  0  0  0  0  0  0
    2.6573    1.5643    0.0000 H   0  0  0  0  0  0  0  0  0  0  0  0
    3.0429    0.6042    0.0000 H   0  0  0  0  0  0  0  0  0  0  0  0
    3.3496   -0.0173    0.0000 H   0  0  0  0  0  0  0  0  0  0  0  0
    2.6229   -1.5941    0.0000 H   0  0  0  0  0  0  0  0  0  0  0  0
    1.6014   -1.7591    0.0000 H   0  0  0  0  0  0  0  0  0  0  0  0
    1.3999   -0.1157    0.0000 H   0  0  0  0  0  0  0  0  0  0  0  0
    1.4048    0.1105    0.0000 H   0  0  0  0  0  0  0  0  0  0  0  0
    2.5365   -0.0245    0.0000 H   0  0  0  0  0  0  0  0  0  0  0  0
    2.1061    0.8467    0.0000 H   0  0  0  0  0  0  0  0  0  0  0  0
  1  2  2  0  0  0  0
  2  3  1  0  0  0  0
  3  6  2  0  0  0  0
  3 17  1  0  0  0  0
  4  1  1  0  0  0  0
  4 18  1  0  0  0  0
  5  6  1  0  0  0  0
  5  4  2  0  0  0  0
  6  7  1  0  0  0  0
  7  8  2  0  0  0  0
  8  9  1  0  0  0  0
  8 19  1  0  0  0  0
  9 10  2  0  0  0  0
  9 20  1  0  0  0  0
 10  5  1  0  0  0  0
 11 14  1  0  0  0  0
 11 12  1  0  0  0  0
 11 21  1  0  0  0  0
 11 22  1  0  0  0  0
 12 13  1  0  0  0  0
 12 23  1  0  0  0  0
 13 15  1  0  0  0  0
 13 24  1  0  0  0  0
 13 25  1  0  0  0  0
 14  2  1  0  0  0  0
 14 26  1  0  0  0  0
 15  1  1  0  0  0  0
 15 16  1  0  0  0  0
 15 27  1  0  0  0  0
 16 14  1  0  0  0  0
 16 28  1  0  0  0  0
 16 29  1  0  0  0  0
M  END
>  <DRUGBANK_ID>
DB01273

>  <COMMON_NAME>
Varenicline

>  <CAS_NUMBER>
249296-44-4

>  <UNII>
W6HS99O8ZO

>  <SYNONYMS>
Vareniclina; Varenicline; Vareniclinum

$$$$
