HHG
 OpenBabel10282417072D

 36 35  0  0  0  0  0  0  0  0999 V2000
   -3.5971   -0.5920    0.0000 O   0  0  0  0  0  0  0  0  0  0  0  0
   -2.8826   -0.1796    0.0000 P   0  0  0  0  0  0  0  0  0  0  0  0
   -2.4702   -0.8940    0.0000 O   0  0  0  0  0  0  0  0  0  0  0  0
   -3.2951    0.5348    0.0000 O   0  0  0  0  0  0  0  0  0  0  0  0
   -2.1682    0.2329    0.0000 O   0  0  0  0  0  0  0  0  0  0  0  0
   -1.4537   -0.1796    0.0000 C   0  0  0  0  0  0  0  0  0  0  0  0
   -0.7394    0.2329    0.0000 C   0  0  1  0  0  0  0  0  0  0  0  0
   -0.7394    1.0579    0.0000 O   0  0  0  0  0  0  0  0  0  0  0  0
   -0.0249   -0.1796    0.0000 C   0  0  0  0  0  0  0  0  0  0  0  0
    0.6896    0.2329    0.0000 O   0  0  0  0  0  0  0  0  0  0  0  0
    1.4039   -0.1796    0.0000 C   0  0  0  0  0  0  0  0  0  0  0  0
    1.4039   -1.0046    0.0000 O   0  0  0  0  0  0  0  0  0  0  0  0
    2.1184    0.2329    0.0000 C   0  0  0  0  0  0  0  0  0  0  0  0
    2.8328   -0.1796    0.0000 C   0  0  0  0  0  0  0  0  0  0  0  0
    3.5473    0.2329    0.0000 C   0  0  0  0  0  0  0  0  0  0  0  0
    4.2617   -0.1796    0.0000 C   0  0  0  0  0  0  0  0  0  0  0  0
    4.9762    0.2329    0.0000 C   0  0  0  0  0  0  0  0  0  0  0  0
   -1.2450    0.5248    0.0000 H   0  0  0  0  0  0  0  0  0  0  0  0
   -4.4371   -0.1069    0.0000 H   0  0  0  0  0  0  0  0  0  0  0  0
   -2.8101    1.3749    0.0000 H   0  0  0  0  0  0  0  0  0  0  0  0
   -1.4536   -1.2496    0.0000 H   0  0  0  0  0  0  0  0  0  0  0  0
   -0.5270   -0.7145    0.0000 H   0  0  0  0  0  0  0  0  0  0  0  0
    0.1006    1.5429    0.0000 H   0  0  0  0  0  0  0  0  0  0  0  0
   -0.0249   -1.2496    0.0000 H   0  0  0  0  0  0  0  0  0  0  0  0
    0.9017   -0.7146    0.0000 H   0  0  0  0  0  0  0  0  0  0  0  0
    2.1184    1.3029    0.0000 H   0  0  0  0  0  0  0  0  0  0  0  0
    3.0451    0.7679    0.0000 H   0  0  0  0  0  0  0  0  0  0  0  0
    2.8328   -1.2496    0.0000 H   0  0  0  0  0  0  0  0  0  0  0  0
    3.7594   -0.7146    0.0000 H   0  0  0  0  0  0  0  0  0  0  0  0
    3.5473    1.3029    0.0000 H   0  0  0  0  0  0  0  0  0  0  0  0
    4.4740    0.7679    0.0000 H   0  0  0  0  0  0  0  0  0  0  0  0
    4.2617   -1.2496    0.0000 H   0  0  0  0  0  0  0  0  0  0  0  0
    5.1883   -0.7146    0.0000 H   0  0  0  0  0  0  0  0  0  0  0  0
    5.9028   -0.3021    0.0000 H   0  0  0  0  0  0  0  0  0  0  0  0
    4.9762    1.3029    0.0000 H   0  0  0  0  0  0  0  0  0  0  0  0
    5.9029    0.7679    0.0000 H   0  0  0  0  0  0  0  0  0  0  0  0
  1  2  1  0  0  0  0
  1 19  1  0  0  0  0
  2  3  2  0  0  0  0
  2  4  1  0  0  0  0
  2  5  1  0  0  0  0
  4 20  1  0  0  0  0
  5  6  1  0  0  0  0
  6  7  1  0  0  0  0
  6 21  1  0  0  0  0
  6 22  1  0  0  0  0
  7  8  1  0  0  0  0
  7  9  1  0  0  0  0
  7 18  1  6  0  0  0
  8 23  1  0  0  0  0
  9 10  1  0  0  0  0
  9 24  1  0  0  0  0
  9 25  1  0  0  0  0
 10 11  1  0  0  0  0
 11 12  2  0  0  0  0
 11 13  1  0  0  0  0
 13 14  1  0  0  0  0
 13 26  1  0  0  0  0
 13 27  1  0  0  0  0
 14 15  1  0  0  0  0
 14 28  1  0  0  0  0
 14 29  1  0  0  0  0
 15 16  1  0  0  0  0
 15 30  1  0  0  0  0
 15 31  1  0  0  0  0
 16 17  1  0  0  0  0
 16 32  1  0  0  0  0
 16 33  1  0  0  0  0
 17 34  1  0  0  0  0
 17 35  1  0  0  0  0
 17 36  1  0  0  0  0
M  END
>  <DRUGBANK_ID>
DB04199

>  <SECONDARY_ACCESSION_NUMBERS>
EXPT01744

>  <COMMON_NAME>
1-Monohexanoyl-2-Hydroxy-Sn-Glycero-3-Phosphate

$$$$
