
 OpenBabel10282417072D

 14 14  0  0  0  0  0  0  0  0999 V2000
   -1.4290    1.0808    0.0000 F   0  0  0  0  0  0  0  0  0  0  0  0
   -1.4290   -0.5692    0.0000 O   0  0  0  0  0  0  0  0  0  0  0  0
    1.4290   -0.5692    0.0000 O   0  0  0  0  0  0  0  0  0  0  0  0
    0.0000   -0.5692    0.0000 N   0  0  0  0  0  0  0  0  0  0  0  0
    0.7146    0.6682    0.0000 N   0  0  0  0  0  0  0  0  0  0  0  0
   -0.7146   -0.1567    0.0000 C   0  0  2  0  0  0  0  0  0  0  0  0
   -0.7146    0.6682    0.0000 C   0  0  0  0  0  0  0  0  0  0  0  0
    0.7146   -0.1567    0.0000 C   0  0  0  0  0  0  0  0  0  0  0  0
    0.0000    1.0808    0.0000 C   0  0  0  0  0  0  0  0  0  0  0  0
    0.0000   -1.0808    0.0000 H   0  0  0  0  0  0  0  0  0  0  0  0
    1.1575    0.9241    0.0000 H   0  0  0  0  0  0  0  0  0  0  0  0
   -2.2691   -0.0842    0.0000 H   0  0  0  0  0  0  0  0  0  0  0  0
   -0.7145   -1.2267    0.0000 H   0  0  0  0  0  0  0  0  0  0  0  0
    0.0000    2.1128    0.0000 H   0  0  0  0  0  0  0  0  0  0  0  0
  1  7  1  0  0  0  0
  2 12  1  0  0  0  0
  3  8  2  0  0  0  0
  4  6  1  0  0  0  0
  4  8  1  0  0  0  0
  4 10  1  0  0  0  0
  5  8  1  0  0  0  0
  5  9  1  0  0  0  0
  5 11  1  0  0  0  0
  6  2  1  0  0  0  0
  6  7  1  0  0  0  0
  6 13  1  6  0  0  0
  7  9  2  0  0  0  0
  9 14  1  0  0  0  0
M  END
>  <DRUGBANK_ID>
DB04135

>  <SECONDARY_ACCESSION_NUMBERS>
EXPT01480

>  <COMMON_NAME>
(4S)-5-Fluoro-4-hydroxy-3,4-dihydro-2(1H)-pyrimidinone

>  <SYNONYMS>
(4S)-5-Fluoro-4-hydroxy-3,4-dihydropyrimidin-2(1H)-one

$$$$
