
 OpenBabel10282417072D

 51 54  0  0  0  0  0  0  0  0999 V2000
   -2.9144    7.2674    0.0000 C   0  0  0  0  0  0  0  0  0  0  0  0
   -3.2724    8.0107    0.0000 C   0  0  0  0  0  0  0  0  0  0  0  0
   -2.8077    8.6924    0.0000 C   0  0  0  0  0  0  0  0  0  0  0  0
   -1.9850    8.6307    0.0000 C   0  0  0  0  0  0  0  0  0  0  0  0
   -1.6270    7.8874    0.0000 C   0  0  0  0  0  0  0  0  0  0  0  0
   -2.0918    7.2058    0.0000 C   0  0  0  0  0  0  0  0  0  0  0  0
   -1.7338    6.4625    0.0000 O   0  0  0  0  0  0  0  0  0  0  0  0
   -0.9111    6.4008    0.0000 C   0  0  0  0  0  0  0  0  0  0  0  0
   -0.4464    7.0824    0.0000 C   0  0  0  0  0  0  0  0  0  0  0  0
    0.3763    7.0208    0.0000 C   0  0  0  0  0  0  0  0  0  0  0  0
    0.7343    6.2775    0.0000 C   0  0  0  0  0  0  0  0  0  0  0  0
    0.2695    5.5959    0.0000 C   0  0  0  0  0  0  0  0  0  0  0  0
   -0.5532    5.6575    0.0000 N   0  0  0  0  0  0  0  0  0  0  0  0
    1.5570    6.2158    0.0000 C   0  0  0  0  0  0  0  0  0  0  0  0
    2.0217    6.8975    0.0000 O   0  0  0  0  0  0  0  0  0  0  0  0
    1.9149    5.4725    0.0000 N   0  0  0  0  0  0  0  0  0  0  0  0
    2.7399    5.4725    0.0000 C   0  0  0  0  0  0  0  0  0  0  0  0
    3.2543    4.8275    0.0000 C   0  0  0  0  0  0  0  0  0  0  0  0
    3.0707    4.0232    0.0000 C   0  0  0  0  0  0  0  0  0  0  0  0
    2.3274    3.6653    0.0000 N   0  0  3  0  0  0  0  0  0  0  0  0
    1.5841    4.0232    0.0000 C   0  0  0  0  0  0  0  0  0  0  0  0
    1.4005    4.8275    0.0000 C   0  0  0  0  0  0  0  0  0  0  0  0
    2.3274    2.8403    0.0000 C   0  0  0  0  0  0  0  0  0  0  0  0
    2.9108    2.2569    0.0000 C   0  0  0  0  0  0  0  0  0  0  0  0
    2.3274    1.6735    0.0000 C   0  0  0  0  0  0  0  0  0  0  0  0
    1.7441    2.2569    0.0000 C   0  0  0  0  0  0  0  0  0  0  0  0
   -3.1656    9.4357    0.0000 F   0  0  0  0  0  0  0  0  0  0  0  0
   -3.4957    6.4147    0.0000 H   0  0  0  0  0  0  0  0  0  0  0  0
   -4.3015    8.0878    0.0000 H   0  0  0  0  0  0  0  0  0  0  0  0
   -1.4037    9.4834    0.0000 H   0  0  0  0  0  0  0  0  0  0  0  0
   -0.5979    7.8103    0.0000 H   0  0  0  0  0  0  0  0  0  0  0  0
   -0.8942    8.0122    0.0000 H   0  0  0  0  0  0  0  0  0  0  0  0
    0.9576    7.8735    0.0000 H   0  0  0  0  0  0  0  0  0  0  0  0
    0.7173    4.6661    0.0000 H   0  0  0  0  0  0  0  0  0  0  0  0
    3.2041    6.4365    0.0000 H   0  0  0  0  0  0  0  0  0  0  0  0
    3.8032    5.5923    0.0000 H   0  0  0  0  0  0  0  0  0  0  0  0
    4.2975    5.0656    0.0000 H   0  0  0  0  0  0  0  0  0  0  0  0
    4.0109    4.0709    0.0000 H   0  0  0  0  0  0  0  0  0  0  0  0
    3.9072    3.3560    0.0000 H   0  0  0  0  0  0  0  0  0  0  0  0
    2.9508    2.9599    0.0000 H   0  0  0  0  0  0  0  0  0  0  0  0
    0.7476    3.3560    0.0000 H   0  0  0  0  0  0  0  0  0  0  0  0
    0.5741    4.3766    0.0000 H   0  0  0  0  0  0  0  0  0  0  0  0
    0.3573    5.0656    0.0000 H   0  0  0  0  0  0  0  0  0  0  0  0
    1.0471    5.8375    0.0000 H   0  0  0  0  0  0  0  0  0  0  0  0
    2.3274    1.7703    0.0000 H   0  0  0  0  0  0  0  0  0  0  0  0
    3.9808    2.2569    0.0000 H   0  0  0  0  0  0  0  0  0  0  0  0
    3.3203    1.2683    0.0000 H   0  0  0  0  0  0  0  0  0  0  0  0
    2.3274    0.6035    0.0000 H   0  0  0  0  0  0  0  0  0  0  0  0
    1.3388    1.2641    0.0000 H   0  0  0  0  0  0  0  0  0  0  0  0
    0.6741    2.2569    0.0000 H   0  0  0  0  0  0  0  0  0  0  0  0
    1.3346    3.2454    0.0000 H   0  0  0  0  0  0  0  0  0  0  0  0
  1  2  2  0  0  0  0
  1  6  1  0  0  0  0
  1 28  1  0  0  0  0
  2  3  1  0  0  0  0
  2 29  1  0  0  0  0
  3  4  2  0  0  0  0
  3 27  1  0  0  0  0
  4  5  1  0  0  0  0
  4 30  1  0  0  0  0
  5  6  2  0  0  0  0
  5 31  1  0  0  0  0
  6  7  1  0  0  0  0
  7  8  1  0  0  0  0
  8  9  2  0  0  0  0
  8 13  1  0  0  0  0
  9 10  1  0  0  0  0
  9 32  1  0  0  0  0
 10 11  2  0  0  0  0
 10 33  1  0  0  0  0
 11 12  1  0  0  0  0
 11 14  1  0  0  0  0
 12 13  2  0  0  0  0
 12 34  1  0  0  0  0
 14 15  2  0  0  0  0
 14 16  1  0  0  0  0
 16 17  1  0  0  0  0
 16 22  1  0  0  0  0
 17 18  1  0  0  0  0
 17 35  1  0  0  0  0
 17 36  1  0  0  0  0
 18 19  1  0  0  0  0
 18 37  1  0  0  0  0
 18 38  1  0  0  0  0
 19 20  1  0  0  0  0
 19 39  1  0  0  0  0
 19 40  1  0  0  0  0
 20 21  1  0  0  0  0
 20 23  1  0  0  0  0
 21 22  1  0  0  0  0
 21 41  1  0  0  0  0
 21 42  1  0  0  0  0
 22 43  1  0  0  0  0
 22 44  1  0  0  0  0
 23 24  1  0  0  0  0
 23 26  1  0  0  0  0
 23 45  1  0  0  0  0
 24 25  1  0  0  0  0
 24 46  1  0  0  0  0
 24 47  1  0  0  0  0
 25 26  1  0  0  0  0
 25 48  1  0  0  0  0
 25 49  1  0  0  0  0
 26 50  1  0  0  0  0
 26 51  1  0  0  0  0
M  END
>  <DRUGBANK_ID>
DB12929

>  <COMMON_NAME>
JNJ-39220675

>  <CAS_NUMBER>
959740-39-7

>  <UNII>
41WC0AZ27V

$$$$
