
 OpenBabel10282417072D

 60 63  0  0  0  0  0  0  0  0999 V2000
    1.8721    4.6732    0.0000 C   0  0  0  0  0  0  0  0  0  0  0  0
    1.1576    4.2607    0.0000 C   0  0  0  0  0  0  0  0  0  0  0  0
    1.1576    3.4357    0.0000 C   0  0  0  0  0  0  0  0  0  0  0  0
    0.4431    3.0232    0.0000 C   0  0  0  0  0  0  0  0  0  0  0  0
    0.4431    2.1982    0.0000 C   0  0  0  0  0  0  0  0  0  0  0  0
   -0.2712    1.7857    0.0000 N   0  0  0  0  0  0  0  0  0  0  0  0
   -0.2712    0.9607    0.0000 C   0  0  0  0  0  0  0  0  0  0  0  0
    0.3961    0.4758    0.0000 C   0  0  0  0  0  0  0  0  0  0  0  0
    1.1807    0.7307    0.0000 C   0  0  0  0  0  0  0  0  0  0  0  0
    1.7938    0.1787    0.0000 N   0  0  0  0  0  0  0  0  0  0  0  0
    1.3523    1.5377    0.0000 O   0  0  0  0  0  0  0  0  0  0  0  0
    0.1412   -0.3087    0.0000 C   0  0  0  0  0  0  0  0  0  0  0  0
    0.6261   -0.9762    0.0000 N   0  0  0  0  0  0  0  0  0  0  0  0
    0.2905   -1.7299    0.0000 C   0  0  0  0  0  0  0  0  0  0  0  0
    0.7755   -2.3972    0.0000 C   0  0  0  0  0  0  0  0  0  0  0  0
    0.4399   -3.1509    0.0000 C   0  0  0  0  0  0  0  0  0  0  0  0
   -0.3805   -3.2372    0.0000 C   0  0  0  0  0  0  0  0  0  0  0  0
   -0.8654   -2.5697    0.0000 C   0  0  0  0  0  0  0  0  0  0  0  0
   -0.5299   -1.8160    0.0000 C   0  0  0  0  0  0  0  0  0  0  0  0
   -0.7161   -3.9908    0.0000 N   0  0  0  0  0  0  0  0  0  0  0  0
   -0.2311   -4.6583    0.0000 C   0  0  0  0  0  0  0  0  0  0  0  0
   -0.5667   -5.4120    0.0000 C   0  0  0  0  0  0  0  0  0  0  0  0
   -1.3872   -5.4982    0.0000 O   0  0  0  0  0  0  0  0  0  0  0  0
   -1.8721   -4.8308    0.0000 C   0  0  0  0  0  0  0  0  0  0  0  0
   -1.5365   -4.0771    0.0000 C   0  0  0  0  0  0  0  0  0  0  0  0
   -0.6837   -0.3087    0.0000 N   0  0  0  0  0  0  0  0  0  0  0  0
   -0.9387    0.4758    0.0000 N   0  0  0  0  0  0  0  0  0  0  0  0
   -0.2712    3.4357    0.0000 C   0  0  0  0  0  0  0  0  0  0  0  0
   -0.2712    4.2607    0.0000 C   0  0  0  0  0  0  0  0  0  0  0  0
   -0.9857    4.6732    0.0000 C   0  0  0  0  0  0  0  0  0  0  0  0
    0.4431    4.6732    0.0000 C   0  0  0  0  0  0  0  0  0  0  0  0
    0.4431    5.4982    0.0000 O   0  0  0  0  0  0  0  0  0  0  0  0
    2.7987    4.1382    0.0000 H   0  0  0  0  0  0  0  0  0  0  0  0
    1.8721    5.7432    0.0000 H   0  0  0  0  0  0  0  0  0  0  0  0
    2.7988    5.2082    0.0000 H   0  0  0  0  0  0  0  0  0  0  0  0
    2.0513    2.9197    0.0000 H   0  0  0  0  0  0  0  0  0  0  0  0
    1.3698    1.6632    0.0000 H   0  0  0  0  0  0  0  0  0  0  0  0
    0.4432    1.1282    0.0000 H   0  0  0  0  0  0  0  0  0  0  0  0
   -1.1238    2.2779    0.0000 H   0  0  0  0  0  0  0  0  0  0  0  0
    1.5891   -0.7843    0.0000 H   0  0  0  0  0  0  0  0  0  0  0  0
    2.7301    0.4830    0.0000 H   0  0  0  0  0  0  0  0  0  0  0  0
    1.6052   -0.8733    0.0000 H   0  0  0  0  0  0  0  0  0  0  0  0
    1.8018   -2.2893    0.0000 H   0  0  0  0  0  0  0  0  0  0  0  0
    1.0465   -3.9858    0.0000 H   0  0  0  0  0  0  0  0  0  0  0  0
   -1.8917   -2.6776    0.0000 H   0  0  0  0  0  0  0  0  0  0  0  0
   -1.1365   -0.9811    0.0000 H   0  0  0  0  0  0  0  0  0  0  0  0
    0.8330   -4.5465    0.0000 H   0  0  0  0  0  0  0  0  0  0  0  0
    0.3978   -5.5240    0.0000 H   0  0  0  0  0  0  0  0  0  0  0  0
    0.0622   -6.2777    0.0000 H   0  0  0  0  0  0  0  0  0  0  0  0
   -1.0020   -6.3895    0.0000 H   0  0  0  0  0  0  0  0  0  0  0  0
   -2.9362   -4.9426    0.0000 H   0  0  0  0  0  0  0  0  0  0  0  0
   -2.5010   -3.9651    0.0000 H   0  0  0  0  0  0  0  0  0  0  0  0
   -2.1655   -3.2115    0.0000 H   0  0  0  0  0  0  0  0  0  0  0  0
   -1.1013   -3.0996    0.0000 H   0  0  0  0  0  0  0  0  0  0  0  0
   -1.8750    0.7800    0.0000 H   0  0  0  0  0  0  0  0  0  0  0  0
   -1.1650    2.9197    0.0000 H   0  0  0  0  0  0  0  0  0  0  0  0
   -0.9857    5.7432    0.0000 H   0  0  0  0  0  0  0  0  0  0  0  0
   -1.9123    4.1382    0.0000 H   0  0  0  0  0  0  0  0  0  0  0  0
   -1.9124    5.2082    0.0000 H   0  0  0  0  0  0  0  0  0  0  0  0
    1.2546    5.9667    0.0000 H   0  0  0  0  0  0  0  0  0  0  0  0
  1  2  1  0  0  0  0
  1 33  1  0  0  0  0
  1 34  1  0  0  0  0
  1 35  1  0  0  0  0
  2  3  2  0  0  0  0
  2 31  1  0  0  0  0
  3  4  1  0  0  0  0
  3 36  1  0  0  0  0
  4  5  1  0  0  0  0
  4 28  2  0  0  0  0
  5  6  1  0  0  0  0
  5 37  1  0  0  0  0
  5 38  1  0  0  0  0
  6  7  1  0  0  0  0
  6 39  1  0  0  0  0
  7  8  2  0  0  0  0
  7 27  1  0  0  0  0
  8  9  1  0  0  0  0
  8 12  1  0  0  0  0
  9 10  1  0  0  0  0
  9 11  2  0  0  0  0
 10 40  1  0  0  0  0
 10 41  1  0  0  0  0
 12 13  1  0  0  0  0
 12 26  2  0  0  0  0
 13 14  1  0  0  0  0
 13 42  1  0  0  0  0
 14 15  2  0  0  0  0
 14 19  1  0  0  0  0
 15 16  1  0  0  0  0
 15 43  1  0  0  0  0
 16 17  2  0  0  0  0
 16 44  1  0  0  0  0
 17 18  1  0  0  0  0
 17 20  1  0  0  0  0
 18 19  2  0  0  0  0
 18 45  1  0  0  0  0
 19 46  1  0  0  0  0
 20 21  1  0  0  0  0
 20 25  1  0  0  0  0
 21 22  1  0  0  0  0
 21 47  1  0  0  0  0
 21 48  1  0  0  0  0
 22 23  1  0  0  0  0
 22 49  1  0  0  0  0
 22 50  1  0  0  0  0
 23 24  1  0  0  0  0
 24 25  1  0  0  0  0
 24 51  1  0  0  0  0
 24 52  1  0  0  0  0
 25 53  1  0  0  0  0
 25 54  1  0  0  0  0
 26 27  1  0  0  0  0
 27 55  1  0  0  0  0
 28 29  1  0  0  0  0
 28 56  1  0  0  0  0
 29 30  1  0  0  0  0
 29 31  2  0  0  0  0
 30 57  1  0  0  0  0
 30 58  1  0  0  0  0
 30 59  1  0  0  0  0
 31 32  1  0  0  0  0
 32 60  1  0  0  0  0
M  END
>  <DRUGBANK_ID>
DB18063

>  <COMMON_NAME>
MG-S-2525

>  <UNII>
I45A327R6A

>  <SYNONYMS>
5-(3,5-Dimethyl-4-hydroxybenzylamino)-3-(4-morpholin-4-yl-phenylamino)-1H-pyrazole-4-carboxylic acid amide

$$$$
