ADB
 OpenBabel10282417072D

 35 37  0  0  0  0  0  0  0  0999 V2000
   -1.6217   -1.8802    0.0000 C   0  0  0  0  0  0  0  0  0  0  0  0
   -1.6217   -1.0552    0.0000 O   0  0  0  0  0  0  0  0  0  0  0  0
   -0.9072   -2.2927    0.0000 C   0  0  0  0  0  0  0  0  0  0  0  0
   -0.1928   -1.8802    0.0000 Cl  0  0  0  0  0  0  0  0  0  0  0  0
   -0.9072   -3.1177    0.0000 C   0  0  0  0  0  0  0  0  0  0  0  0
   -1.6217   -3.5302    0.0000 C   0  0  0  0  0  0  0  0  0  0  0  0
   -2.3362   -3.1177    0.0000 C   0  0  0  0  0  0  0  0  0  0  0  0
   -2.3362   -2.2927    0.0000 C   0  0  0  0  0  0  0  0  0  0  0  0
   -3.0506   -1.8802    0.0000 Cl  0  0  0  0  0  0  0  0  0  0  0  0
   -0.9072   -0.6427    0.0000 C   0  0  0  0  0  0  0  0  0  0  0  0
   -0.9072    0.1823    0.0000 N   0  0  0  0  0  0  0  0  0  0  0  0
   -0.1928    0.5948    0.0000 C   0  0  0  0  0  0  0  0  0  0  0  0
   -0.1928    1.4198    0.0000 N   0  0  0  0  0  0  0  0  0  0  0  0
    0.5217    0.1823    0.0000 N   0  0  0  0  0  0  0  0  0  0  0  0
    0.5217   -0.6427    0.0000 C   0  0  0  0  0  0  0  0  0  0  0  0
    1.2362   -1.0552    0.0000 N   0  0  0  0  0  0  0  0  0  0  0  0
   -0.1928   -1.0552    0.0000 N   0  0  0  0  0  0  0  0  0  0  0  0
    0.5217    1.8323    0.0000 C   0  0  0  0  0  0  0  0  0  0  0  0
    0.5217    2.6573    0.0000 C   0  0  0  0  0  0  0  0  0  0  0  0
    1.2362    3.0698    0.0000 C   0  0  0  0  0  0  0  0  0  0  0  0
    1.9507    2.6573    0.0000 C   0  0  0  0  0  0  0  0  0  0  0  0
    1.9507    1.8323    0.0000 C   0  0  0  0  0  0  0  0  0  0  0  0
    1.2362    1.4198    0.0000 C   0  0  0  0  0  0  0  0  0  0  0  0
    2.6651    3.0698    0.0000 C   0  0  0  0  0  0  0  0  0  0  0  0
    3.3796    3.4823    0.0000 N   0  0  0  0  0  0  0  0  0  0  0  0
   -0.0135   -3.6337    0.0000 H   0  0  0  0  0  0  0  0  0  0  0  0
   -1.6217   -4.5622    0.0000 H   0  0  0  0  0  0  0  0  0  0  0  0
   -3.2299   -3.6337    0.0000 H   0  0  0  0  0  0  0  0  0  0  0  0
   -1.0454    1.9121    0.0000 H   0  0  0  0  0  0  0  0  0  0  0  0
    1.2362   -2.0397    0.0000 H   0  0  0  0  0  0  0  0  0  0  0  0
    2.0888   -0.5629    0.0000 H   0  0  0  0  0  0  0  0  0  0  0  0
   -0.3720    3.1733    0.0000 H   0  0  0  0  0  0  0  0  0  0  0  0
    1.2362    4.1018    0.0000 H   0  0  0  0  0  0  0  0  0  0  0  0
    2.8444    1.3163    0.0000 H   0  0  0  0  0  0  0  0  0  0  0  0
    1.2362    0.3878    0.0000 H   0  0  0  0  0  0  0  0  0  0  0  0
  1  2  1  0  0  0  0
  1  3  2  0  0  0  0
  1  8  1  0  0  0  0
  2 10  1  0  0  0  0
  3  4  1  0  0  0  0
  3  5  1  0  0  0  0
  5  6  2  0  0  0  0
  5 26  1  0  0  0  0
  6  7  1  0  0  0  0
  6 27  1  0  0  0  0
  7  8  2  0  0  0  0
  7 28  1  0  0  0  0
  8  9  1  0  0  0  0
 10 11  2  0  0  0  0
 10 17  1  0  0  0  0
 11 12  1  0  0  0  0
 12 13  1  0  0  0  0
 12 14  2  0  0  0  0
 13 18  1  0  0  0  0
 13 29  1  0  0  0  0
 14 15  1  0  0  0  0
 15 16  1  0  0  0  0
 15 17  2  0  0  0  0
 16 30  1  0  0  0  0
 16 31  1  0  0  0  0
 18 19  2  0  0  0  0
 18 23  1  0  0  0  0
 19 20  1  0  0  0  0
 19 32  1  0  0  0  0
 20 21  2  0  0  0  0
 20 33  1  0  0  0  0
 21 22  1  0  0  0  0
 21 24  1  0  0  0  0
 22 23  2  0  0  0  0
 22 34  1  0  0  0  0
 23 35  1  0  0  0  0
 24 25  3  0  0  0  0
M  END
>  <DRUGBANK_ID>
DB07343

>  <COMMON_NAME>
4-[4-AMINO-6-(2,6-DICHLORO-PHENOXY)-[1,3,5]TRIAZIN-2-YLAMINO]-BENZONITRILE

$$$$
