
 OpenBabel10282417072D

 24 24  0  0  0  0  0  0  0  0999 V2000
   -3.2128   -0.8246    0.0000 C   0  0  0  0  0  0  0  0  0  0  0  0
   -3.2128    0.0021    0.0000 C   0  0  0  0  0  0  0  0  0  0  0  0
   -2.4952    0.4154    0.0000 C   0  0  0  0  0  0  0  0  0  0  0  0
   -1.7817    0.0021    0.0000 C   0  0  0  0  0  0  0  0  0  0  0  0
   -1.7817   -0.8246    0.0000 C   0  0  0  0  0  0  0  0  0  0  0  0
   -2.4952   -1.2379    0.0000 N   0  0  0  0  0  0  0  0  0  0  0  0
   -1.0709    0.4112    0.0000 C   0  0  0  0  0  0  0  0  0  0  0  0
   -0.3569   -0.0020    0.0000 N   0  0  0  0  0  0  0  0  0  0  0  0
    0.3569    0.4071    0.0000 C   0  0  0  0  0  0  0  0  0  0  0  0
    1.0709   -0.0061    0.0000 C   0  0  0  0  0  0  0  0  0  0  0  0
    1.7848    0.4029    0.0000 O   0  0  0  0  0  0  0  0  0  0  0  0
    2.4989   -0.0104    0.0000 N   0  3  0  0  0  0  0  0  0  0  0  0
    3.2128    0.3987    0.0000 O   0  5  0  0  0  0  0  0  0  0  0  0
   -1.0699    1.2379    0.0000 O   0  0  0  0  0  0  0  0  0  0  0  0
    2.4971   -0.8370    0.0000 O   0  0  0  0  0  0  0  0  0  0  0  0
   -4.1063   -1.3411    0.0000 H   0  0  0  0  0  0  0  0  0  0  0  0
   -4.1063    0.5186    0.0000 H   0  0  0  0  0  0  0  0  0  0  0  0
   -2.4939    1.4474    0.0000 H   0  0  0  0  0  0  0  0  0  0  0  0
   -0.8876   -1.3400    0.0000 H   0  0  0  0  0  0  0  0  0  0  0  0
   -0.3590   -0.9865    0.0000 H   0  0  0  0  0  0  0  0  0  0  0  0
    0.3591    1.4771    0.0000 H   0  0  0  0  0  0  0  0  0  0  0  0
    1.2844    0.9407    0.0000 H   0  0  0  0  0  0  0  0  0  0  0  0
    1.0686   -1.0761    0.0000 H   0  0  0  0  0  0  0  0  0  0  0  0
    1.9961   -0.5437    0.0000 H   0  0  0  0  0  0  0  0  0  0  0  0
  1  2  2  0  0  0  0
  1 16  1  0  0  0  0
  2  3  1  0  0  0  0
  2 17  1  0  0  0  0
  3  4  2  0  0  0  0
  3 18  1  0  0  0  0
  4  5  1  0  0  0  0
  4  7  1  0  0  0  0
  5  6  2  0  0  0  0
  5 19  1  0  0  0  0
  6  1  1  0  0  0  0
  7  8  1  0  0  0  0
  7 14  2  0  0  0  0
  8  9  1  0  0  0  0
  8 20  1  0  0  0  0
  9 10  1  0  0  0  0
  9 21  1  0  0  0  0
  9 22  1  0  0  0  0
 10 11  1  0  0  0  0
 10 23  1  0  0  0  0
 10 24  1  0  0  0  0
 11 12  1  0  0  0  0
 12 13  1  0  0  0  0
 12 15  2  0  0  0  0
M  CHG  2  12   1  13  -1
M  END
>  <DRUGBANK_ID>
DB09220

>  <COMMON_NAME>
Nicorandil

>  <CAS_NUMBER>
65141-46-0

>  <UNII>
260456HAM0

>  <SYNONYMS>
2-Nicotinamidoethyl nitrate; N-(2-Hydroxyethyl)nicotinamide nitrate; N-(2-Hydroxyethyl)nicotinamide nitrate (ester); Nicorandil; Nicorandilum

$$$$
