
 OpenBabel10282417072D

 26 27  0  0  0  0  0  0  0  0999 V2000
    2.4751   -2.8876    0.0000 Cl  0  0  0  0  0  0  0  0  0  0  0  0
    5.3330    2.8876    0.0000 Cl  0  0  0  0  0  0  0  0  0  0  0  0
    2.4751    0.4125    0.0000 S   0  0  0  0  0  0  0  0  0  0  0  0
    2.4751    1.2375    0.0000 O   0  0  0  0  0  0  0  0  0  0  0  0
    3.3001    0.4125    0.0000 O   0  0  0  0  0  0  0  0  0  0  0  0
    1.6500    0.4125    0.0000 O   0  0  0  0  0  0  0  0  0  0  0  0
    2.4751   -0.4125    0.0000 C   0  0  0  0  0  0  0  0  0  0  0  0
    3.1895   -0.8250    0.0000 C   0  0  0  0  0  0  0  0  0  0  0  0
    1.7606   -0.8250    0.0000 C   0  0  0  0  0  0  0  0  0  0  0  0
    3.1895    1.6500    0.0000 C   0  0  0  0  0  0  0  0  0  0  0  0
    3.1895   -1.6500    0.0000 C   0  0  0  0  0  0  0  0  0  0  0  0
    1.7606   -1.6500    0.0000 C   0  0  0  0  0  0  0  0  0  0  0  0
    3.9041    1.2375    0.0000 C   0  0  0  0  0  0  0  0  0  0  0  0
    3.1895    2.4751    0.0000 C   0  0  0  0  0  0  0  0  0  0  0  0
    2.4751   -2.0625    0.0000 C   0  0  0  0  0  0  0  0  0  0  0  0
    4.6185    1.6500    0.0000 C   0  0  0  0  0  0  0  0  0  0  0  0
    3.9041    2.8876    0.0000 C   0  0  0  0  0  0  0  0  0  0  0  0
    4.6185    2.4751    0.0000 C   0  0  0  0  0  0  0  0  0  0  0  0
    4.0832   -0.3090    0.0000 H   0  0  0  0  0  0  0  0  0  0  0  0
    0.8669   -0.3090    0.0000 H   0  0  0  0  0  0  0  0  0  0  0  0
    4.0832   -2.1660    0.0000 H   0  0  0  0  0  0  0  0  0  0  0  0
    0.8669   -2.1660    0.0000 H   0  0  0  0  0  0  0  0  0  0  0  0
    3.9042    0.2055    0.0000 H   0  0  0  0  0  0  0  0  0  0  0  0
    2.2958    2.9911    0.0000 H   0  0  0  0  0  0  0  0  0  0  0  0
    5.5122    1.1340    0.0000 H   0  0  0  0  0  0  0  0  0  0  0  0
    3.9042    3.9196    0.0000 H   0  0  0  0  0  0  0  0  0  0  0  0
  1 15  1  0  0  0  0
  2 18  1  0  0  0  0
  3  4  1  0  0  0  0
  3  5  2  0  0  0  0
  3  6  2  0  0  0  0
  3  7  1  0  0  0  0
  4 10  1  0  0  0  0
  7  8  2  0  0  0  0
  7  9  1  0  0  0  0
  8 11  1  0  0  0  0
  8 19  1  0  0  0  0
  9 12  2  0  0  0  0
  9 20  1  0  0  0  0
 10 13  2  0  0  0  0
 10 14  1  0  0  0  0
 11 15  2  0  0  0  0
 11 21  1  0  0  0  0
 12 15  1  0  0  0  0
 12 22  1  0  0  0  0
 13 16  1  0  0  0  0
 13 23  1  0  0  0  0
 14 17  2  0  0  0  0
 14 24  1  0  0  0  0
 16 18  2  0  0  0  0
 16 25  1  0  0  0  0
 17 18  1  0  0  0  0
 17 26  1  0  0  0  0
M  END
>  <DRUGBANK_ID>
DB05377

>  <COMMON_NAME>
Chlorfenson

>  <CAS_NUMBER>
80-33-1

>  <UNII>
LW65NJ3YWV

>  <SYNONYMS>
4-Chlorophenyl 4-chlorobenzenesulfonate; Ester sulfonate

$$$$
