
 OpenBabel10282417072D

 37 39  0  0  0  0  0  0  0  0999 V2000
    3.3522    1.1104    0.0000 C   0  0  0  0  0  0  0  0  0  0  0  0
    3.3522    1.9354    0.0000 C   0  0  0  0  0  0  0  0  0  0  0  0
    2.6378    0.6979    0.0000 C   0  0  0  0  0  0  0  0  0  0  0  0
    2.6378    2.3479    0.0000 C   0  0  0  0  0  0  0  0  0  0  0  0
    0.0768   -0.1006    0.0000 C   0  0  0  0  0  0  0  0  0  0  0  0
    0.8837    0.0708    0.0000 C   0  0  0  0  0  0  0  0  0  0  0  0
   -0.9851   -1.0567    0.0000 C   0  0  0  0  0  0  0  0  0  0  0  0
    0.3739   -1.4983    0.0000 C   0  0  0  0  0  0  0  0  0  0  0  0
   -1.2400   -1.8414    0.0000 C   0  0  0  0  0  0  0  0  0  0  0  0
    0.1189   -2.2829    0.0000 C   0  0  0  0  0  0  0  0  0  0  0  0
    0.6537    1.5229    0.0000 C   0  0  0  0  0  0  0  0  0  0  0  0
   -0.1781   -0.8852    0.0000 C   0  0  0  0  0  0  0  0  0  0  0  0
    1.1387    0.8555    0.0000 C   0  0  0  0  0  0  0  0  0  0  0  0
    1.9233    1.1104    0.0000 C   0  0  0  0  0  0  0  0  0  0  0  0
    1.9233    1.9354    0.0000 C   0  0  0  0  0  0  0  0  0  0  0  0
   -0.6880   -2.4545    0.0000 N   0  0  0  0  0  0  0  0  0  0  0  0
    1.1387    2.1903    0.0000 N   0  0  0  0  0  0  0  0  0  0  0  0
    4.2459    0.5944    0.0000 H   0  0  0  0  0  0  0  0  0  0  0  0
    4.2459    2.4514    0.0000 H   0  0  0  0  0  0  0  0  0  0  0  0
    2.6378   -0.3341    0.0000 H   0  0  0  0  0  0  0  0  0  0  0  0
    2.6378    3.3799    0.0000 H   0  0  0  0  0  0  0  0  0  0  0  0
   -0.6391    0.6946    0.0000 H   0  0  0  0  0  0  0  0  0  0  0  0
   -0.9698   -0.3231    0.0000 H   0  0  0  0  0  0  0  0  0  0  0  0
    1.5996   -0.7244    0.0000 H   0  0  0  0  0  0  0  0  0  0  0  0
    1.9303    0.2932    0.0000 H   0  0  0  0  0  0  0  0  0  0  0  0
   -1.7011   -0.2615    0.0000 H   0  0  0  0  0  0  0  0  0  0  0  0
   -0.6544   -0.0391    0.0000 H   0  0  0  0  0  0  0  0  0  0  0  0
    1.4205   -1.2759    0.0000 H   0  0  0  0  0  0  0  0  0  0  0  0
    0.7046   -0.4807    0.0000 H   0  0  0  0  0  0  0  0  0  0  0  0
   -2.2866   -2.0639    0.0000 H   0  0  0  0  0  0  0  0  0  0  0  0
   -1.5707   -2.8590    0.0000 H   0  0  0  0  0  0  0  0  0  0  0  0
    0.8349   -3.0781    0.0000 H   0  0  0  0  0  0  0  0  0  0  0  0
   -0.2117   -3.3005    0.0000 H   0  0  0  0  0  0  0  0  0  0  0  0
   -0.3783    1.5229    0.0000 H   0  0  0  0  0  0  0  0  0  0  0  0
   -0.5088   -1.9028    0.0000 H   0  0  0  0  0  0  0  0  0  0  0  0
   -1.0032   -3.4246    0.0000 H   0  0  0  0  0  0  0  0  0  0  0  0
    0.8345    3.1266    0.0000 H   0  0  0  0  0  0  0  0  0  0  0  0
  1 18  1  0  0  0  0
  2  1  2  0  0  0  0
  2 19  1  0  0  0  0
  3  1  1  0  0  0  0
  3 20  1  0  0  0  0
  4  2  1  0  0  0  0
  4 21  1  0  0  0  0
  5 22  1  0  0  0  0
  5 23  1  0  0  0  0
  6  5  1  0  0  0  0
  6 24  1  0  0  0  0
  6 25  1  0  0  0  0
  7 26  1  0  0  0  0
  7 27  1  0  0  0  0
  8 28  1  0  0  0  0
  8 29  1  0  0  0  0
  9  7  1  0  0  0  0
  9 30  1  0  0  0  0
  9 31  1  0  0  0  0
 10  8  1  0  0  0  0
 10 32  1  0  0  0  0
 10 33  1  0  0  0  0
 11 34  1  0  0  0  0
 12  5  1  0  0  0  0
 12  7  1  0  0  0  0
 12  8  1  0  0  0  0
 12 35  1  0  0  0  0
 13  6  1  0  0  0  0
 13 11  2  0  0  0  0
 14  3  2  0  0  0  0
 14 13  1  0  0  0  0
 15  4  2  0  0  0  0
 15 14  1  0  0  0  0
 16  9  1  0  0  0  0
 16 10  1  0  0  0  0
 16 36  1  0  0  0  0
 17 11  1  0  0  0  0
 17 15  1  0  0  0  0
 17 37  1  0  0  0  0
M  END
>  <DRUGBANK_ID>
DB08953

>  <COMMON_NAME>
Indalpine

>  <CAS_NUMBER>
63758-79-2

>  <UNII>
V35562QSVT

>  <SYNONYMS>
Indalpine

$$$$
