
 OpenBabel10282417072D

 20 19  0  0  0  0  0  0  0  0999 V2000
    1.2375   -0.7145    0.0000 C   0  0  0  0  0  0  0  0  0  0  0  0
    0.8250    0.0000    0.0000 C   0  0  0  0  0  0  0  0  0  0  0  0
   -0.4125   -0.7145    0.0000 C   0  0  0  0  0  0  0  0  0  0  0  0
    0.0000   -1.4289    0.0000 C   0  0  0  0  0  0  0  0  0  0  0  0
    0.0000    0.0000    0.0000 C   0  0  0  0  0  0  0  0  0  0  0  0
   -0.4125   -2.1434    0.0000 C   0  0  0  0  0  0  0  0  0  0  0  0
   -0.4125    0.7145    0.0000 N   0  0  0  0  0  0  0  0  0  0  0  0
    0.0000   -2.8579    0.0000 O   0  0  0  0  0  0  0  0  0  0  0  0
   -1.2375   -2.1434    0.0000 O   0  0  0  0  0  0  0  0  0  0  0  0
    1.2375    0.7145    0.0000 H   0  0  0  0  0  0  0  0  0  0  0  0
    0.7025   -1.6411    0.0000 H   0  0  0  0  0  0  0  0  0  0  0  0
    2.3075   -0.7145    0.0000 H   0  0  0  0  0  0  0  0  0  0  0  0
    1.7725   -1.6412    0.0000 H   0  0  0  0  0  0  0  0  0  0  0  0
   -1.4825   -0.7145    0.0000 H   0  0  0  0  0  0  0  0  0  0  0  0
   -0.9475    0.2121    0.0000 H   0  0  0  0  0  0  0  0  0  0  0  0
    1.0700   -1.4289    0.0000 H   0  0  0  0  0  0  0  0  0  0  0  0
    0.5350   -2.3555    0.0000 H   0  0  0  0  0  0  0  0  0  0  0  0
    0.0798    1.5671    0.0000 H   0  0  0  0  0  0  0  0  0  0  0  0
   -1.3970    0.7145    0.0000 H   0  0  0  0  0  0  0  0  0  0  0  0
   -1.7060   -1.3319    0.0000 H   0  0  0  0  0  0  0  0  0  0  0  0
  1 11  1  0  0  0  0
  1 12  1  0  0  0  0
  1 13  1  0  0  0  0
  2  1  1  0  0  0  0
  3 14  1  0  0  0  0
  3 15  1  0  0  0  0
  4  3  1  0  0  0  0
  4 16  1  0  0  0  0
  4 17  1  0  0  0  0
  5  2  2  0  0  0  0
  5  3  1  0  0  0  0
  6  4  1  0  0  0  0
  7  5  1  0  0  0  0
  7 18  1  0  0  0  0
  7 19  1  0  0  0  0
  8  6  2  0  0  0  0
  9  6  1  0  0  0  0
  9 20  1  0  0  0  0
 10  2  1  0  0  0  0
M  END
>  <DRUGBANK_ID>
DB01699

>  <SECONDARY_ACCESSION_NUMBERS>
EXPT01579

>  <COMMON_NAME>
(4e)-4-Aminohex-4-Enoic Acid

$$$$
