
 OpenBabel10282417072D

 52 55  0  0  0  0  0  0  0  0999 V2000
    4.2868   -3.3000    0.0000 C   0  0  0  0  0  0  0  0  0  0  0  0
    4.2868   -4.1250    0.0000 S   0  0  0  0  0  0  0  0  0  0  0  0
    3.4618   -4.1250    0.0000 O   0  0  0  0  0  0  0  0  0  0  0  0
    5.1118   -4.1250    0.0000 O   0  0  0  0  0  0  0  0  0  0  0  0
    4.2868   -4.9500    0.0000 C   0  0  0  0  0  0  0  0  0  0  0  0
    5.0013   -5.3625    0.0000 C   0  0  0  0  0  0  0  0  0  0  0  0
    5.0013   -6.1875    0.0000 C   0  0  0  0  0  0  0  0  0  0  0  0
    4.2868   -6.6000    0.0000 C   0  0  0  0  0  0  0  0  0  0  0  0
    3.5724   -6.1875    0.0000 C   0  0  0  0  0  0  0  0  0  0  0  0
    3.5724   -5.3625    0.0000 C   0  0  0  0  0  0  0  0  0  0  0  0
    2.8579   -6.6000    0.0000 F   0  0  0  0  0  0  0  0  0  0  0  0
    4.2868   -7.4250    0.0000 N   0  0  0  0  0  0  0  0  0  0  0  0
    5.0013   -7.8375    0.0000 C   0  0  0  0  0  0  0  0  0  0  0  0
    5.0013   -8.6625    0.0000 C   0  0  0  0  0  0  0  0  0  0  0  0
    4.2868   -9.0750    0.0000 C   0  0  0  0  0  0  0  0  0  0  0  0
    3.5724   -8.6625    0.0000 C   0  0  0  0  0  0  0  0  0  0  0  0
    3.5724   -7.8375    0.0000 C   0  0  0  0  0  0  0  0  0  0  0  0
    2.8579   -7.4250    0.0000 O   0  0  0  0  0  0  0  0  0  0  0  0
    4.2868   -9.9000    0.0000 O   0  0  0  0  0  0  0  0  0  0  0  0
    3.5724  -10.3125    0.0000 C   0  0  0  0  0  0  0  0  0  0  0  0
    3.5724  -11.1375    0.0000 C   0  0  0  0  0  0  0  0  0  0  0  0
    2.8579  -11.5500    0.0000 C   0  0  0  0  0  0  0  0  0  0  0  0
    2.1434  -11.1375    0.0000 N   0  0  0  0  0  0  0  0  0  0  0  0
    2.1434  -10.3125    0.0000 C   0  0  0  0  0  0  0  0  0  0  0  0
    2.8579   -9.9000    0.0000 C   0  0  0  0  0  0  0  0  0  0  0  0
    1.4289  -11.5500    0.0000 C   0  0  0  0  0  0  0  0  0  0  0  0
    1.4289  -12.3750    0.0000 N   0  0  0  0  0  0  0  0  0  0  0  0
    0.7145  -12.7875    0.0000 C   0  0  0  0  0  0  0  0  0  0  0  0
   -0.0000  -12.3750    0.0000 C   0  0  0  0  0  0  0  0  0  0  0  0
   -0.0000  -11.5500    0.0000 C   0  0  0  0  0  0  0  0  0  0  0  0
    0.7145  -11.1375    0.0000 N   0  0  0  0  0  0  0  0  0  0  0  0
   -0.7145  -12.7875    0.0000 Cl  0  0  0  0  0  0  0  0  0  0  0  0
    5.7158   -9.0750    0.0000 Cl  0  0  0  0  0  0  0  0  0  0  0  0
    5.2134   -2.7650    0.0000 H   0  0  0  0  0  0  0  0  0  0  0  0
    3.3602   -2.7650    0.0000 H   0  0  0  0  0  0  0  0  0  0  0  0
    4.2868   -2.2300    0.0000 H   0  0  0  0  0  0  0  0  0  0  0  0
    5.8950   -4.8465    0.0000 H   0  0  0  0  0  0  0  0  0  0  0  0
    5.8950   -6.7035    0.0000 H   0  0  0  0  0  0  0  0  0  0  0  0
    2.6787   -4.8465    0.0000 H   0  0  0  0  0  0  0  0  0  0  0  0
    5.8950   -7.3215    0.0000 H   0  0  0  0  0  0  0  0  0  0  0  0
    2.6787   -9.1785    0.0000 H   0  0  0  0  0  0  0  0  0  0  0  0
    2.6458  -10.8475    0.0000 H   0  0  0  0  0  0  0  0  0  0  0  0
    4.4990  -11.6725    0.0000 H   0  0  0  0  0  0  0  0  0  0  0  0
    3.5724  -12.2075    0.0000 H   0  0  0  0  0  0  0  0  0  0  0  0
    2.8579  -12.6200    0.0000 H   0  0  0  0  0  0  0  0  0  0  0  0
    1.9313  -12.0850    0.0000 H   0  0  0  0  0  0  0  0  0  0  0  0
    1.2168   -9.7775    0.0000 H   0  0  0  0  0  0  0  0  0  0  0  0
    2.1434   -9.2425    0.0000 H   0  0  0  0  0  0  0  0  0  0  0  0
    2.8579   -8.8300    0.0000 H   0  0  0  0  0  0  0  0  0  0  0  0
    3.7845   -9.3650    0.0000 H   0  0  0  0  0  0  0  0  0  0  0  0
    0.7145  -13.8195    0.0000 H   0  0  0  0  0  0  0  0  0  0  0  0
   -0.8937  -11.0340    0.0000 H   0  0  0  0  0  0  0  0  0  0  0  0
  1  2  1  0  0  0  0
  1 34  1  0  0  0  0
  1 35  1  0  0  0  0
  1 36  1  0  0  0  0
  2  3  2  0  0  0  0
  2  4  2  0  0  0  0
  2  5  1  0  0  0  0
  5  6  2  0  0  0  0
  5 10  1  0  0  0  0
  6  7  1  0  0  0  0
  6 37  1  0  0  0  0
  7  8  2  0  0  0  0
  7 38  1  0  0  0  0
  8  9  1  0  0  0  0
  8 12  1  0  0  0  0
  9 10  2  0  0  0  0
  9 11  1  0  0  0  0
 10 39  1  0  0  0  0
 12 13  1  0  0  0  0
 12 17  1  0  0  0  0
 13 14  2  0  0  0  0
 13 40  1  0  0  0  0
 14 15  1  0  0  0  0
 14 33  1  0  0  0  0
 15 16  2  0  0  0  0
 15 19  1  0  0  0  0
 16 17  1  0  0  0  0
 16 41  1  0  0  0  0
 17 18  2  0  0  0  0
 19 20  1  0  0  0  0
 20 21  1  0  0  0  0
 20 25  1  0  0  0  0
 20 42  1  0  0  0  0
 21 22  1  0  0  0  0
 21 43  1  0  0  0  0
 21 44  1  0  0  0  0
 22 23  1  0  0  0  0
 22 45  1  0  0  0  0
 22 46  1  0  0  0  0
 23 24  1  0  0  0  0
 23 26  1  0  0  0  0
 24 25  1  0  0  0  0
 24 47  1  0  0  0  0
 24 48  1  0  0  0  0
 25 49  1  0  0  0  0
 25 50  1  0  0  0  0
 26 27  2  0  0  0  0
 26 31  1  0  0  0  0
 27 28  1  0  0  0  0
 28 29  2  0  0  0  0
 28 51  1  0  0  0  0
 29 30  1  0  0  0  0
 29 32  1  0  0  0  0
 30 31  2  0  0  0  0
 30 52  1  0  0  0  0
M  END
>  <DRUGBANK_ID>
DB11773

>  <COMMON_NAME>
BMS-903452

>  <CAS_NUMBER>
1339944-47-6

>  <UNII>
49731B9ULN

$$$$
