R04
 OpenBabel10282417072D

 51 53  0  0  0  0  0  0  0  0999 V2000
   -5.4744   -1.6664    0.0000 C   0  0  0  0  0  0  0  0  0  0  0  0
   -4.7600   -1.2539    0.0000 C   0  0  0  0  0  0  0  0  0  0  0  0
   -4.0455   -1.6664    0.0000 C   0  0  0  0  0  0  0  0  0  0  0  0
   -3.3310   -1.2539    0.0000 N   0  0  0  0  0  0  0  0  0  0  0  0
   -2.6165   -1.6664    0.0000 C   0  0  0  0  0  0  0  0  0  0  0  0
   -1.9021   -1.2539    0.0000 C   0  0  0  0  0  0  0  0  0  0  0  0
   -1.1876   -1.6664    0.0000 C   0  0  0  0  0  0  0  0  0  0  0  0
   -0.4731   -1.2539    0.0000 C   0  0  0  0  0  0  0  0  0  0  0  0
   -0.4731   -0.4289    0.0000 O   0  0  0  0  0  0  0  0  0  0  0  0
    0.2413   -0.0164    0.0000 C   0  0  0  0  0  0  0  0  0  0  0  0
    0.2413    0.8086    0.0000 C   0  0  0  0  0  0  0  0  0  0  0  0
    0.9558    1.2211    0.0000 C   0  0  0  0  0  0  0  0  0  0  0  0
    1.1273    2.0281    0.0000 N   0  0  0  0  0  0  0  0  0  0  0  0
    1.9478    2.1143    0.0000 N   0  0  0  0  0  0  0  0  0  0  0  0
    2.2834    1.3606    0.0000 C   0  0  0  0  0  0  0  0  0  0  0  0
    1.6703    0.8086    0.0000 C   0  0  0  0  0  0  0  0  0  0  0  0
    1.6703   -0.0164    0.0000 C   0  0  0  0  0  0  0  0  0  0  0  0
    0.9558   -0.4289    0.0000 C   0  0  0  0  0  0  0  0  0  0  0  0
    3.0904    1.1891    0.0000 C   0  0  0  0  0  0  0  0  0  0  0  0
    3.6424    1.8022    0.0000 C   0  0  0  0  0  0  0  0  0  0  0  0
    4.4494    1.6307    0.0000 C   0  0  0  0  0  0  0  0  0  0  0  0
    4.7043    0.8461    0.0000 C   0  0  0  0  0  0  0  0  0  0  0  0
    4.1523    0.2330    0.0000 C   0  0  0  0  0  0  0  0  0  0  0  0
    3.3453    0.4045    0.0000 C   0  0  0  0  0  0  0  0  0  0  0  0
    0.9558   -1.2539    0.0000 F   0  0  0  0  0  0  0  0  0  0  0  0
    5.5113    0.6745    0.0000 Br  0  0  0  0  0  0  0  0  0  0  0  0
    0.5753    2.6412    0.0000 C   0  0  0  0  0  0  0  0  0  0  0  0
   -3.3310   -0.4289    0.0000 C   0  0  0  0  0  0  0  0  0  0  0  0
   -6.3682   -1.1504    0.0000 H   0  0  0  0  0  0  0  0  0  0  0  0
   -5.4744   -2.6984    0.0000 H   0  0  0  0  0  0  0  0  0  0  0  0
   -4.7600   -0.2219    0.0000 H   0  0  0  0  0  0  0  0  0  0  0  0
   -4.0455   -2.7364    0.0000 H   0  0  0  0  0  0  0  0  0  0  0  0
   -3.1189   -2.2014    0.0000 H   0  0  0  0  0  0  0  0  0  0  0  0
   -2.6165   -2.7364    0.0000 H   0  0  0  0  0  0  0  0  0  0  0  0
   -1.6898   -2.2014    0.0000 H   0  0  0  0  0  0  0  0  0  0  0  0
   -1.9021   -0.2219    0.0000 H   0  0  0  0  0  0  0  0  0  0  0  0
   -1.1876   -2.6984    0.0000 H   0  0  0  0  0  0  0  0  0  0  0  0
    0.4535   -1.7889    0.0000 H   0  0  0  0  0  0  0  0  0  0  0  0
    0.4535   -0.7189    0.0000 H   0  0  0  0  0  0  0  0  0  0  0  0
   -0.6524    1.3246    0.0000 H   0  0  0  0  0  0  0  0  0  0  0  0
    2.5640   -0.5324    0.0000 H   0  0  0  0  0  0  0  0  0  0  0  0
    3.3235    2.7837    0.0000 H   0  0  0  0  0  0  0  0  0  0  0  0
    5.1399    2.3976    0.0000 H   0  0  0  0  0  0  0  0  0  0  0  0
    4.4712   -0.7485    0.0000 H   0  0  0  0  0  0  0  0  0  0  0  0
    2.6548   -0.3624    0.0000 H   0  0  0  0  0  0  0  0  0  0  0  0
    0.9060    3.6588    0.0000 H   0  0  0  0  0  0  0  0  0  0  0  0
   -0.4713    2.4188    0.0000 H   0  0  0  0  0  0  0  0  0  0  0  0
   -0.1406    3.4364    0.0000 H   0  0  0  0  0  0  0  0  0  0  0  0
   -2.4044    0.1061    0.0000 H   0  0  0  0  0  0  0  0  0  0  0  0
   -4.2576    0.1061    0.0000 H   0  0  0  0  0  0  0  0  0  0  0  0
   -3.3310    0.6411    0.0000 H   0  0  0  0  0  0  0  0  0  0  0  0
  1  2  2  0  0  0  0
  1 29  1  0  0  0  0
  1 30  1  0  0  0  0
  2  3  1  0  0  0  0
  2 31  1  0  0  0  0
  3  4  1  0  0  0  0
  3 32  1  0  0  0  0
  3 33  1  0  0  0  0
  4  5  1  0  0  0  0
  4 28  1  0  0  0  0
  5  6  1  0  0  0  0
  5 34  1  0  0  0  0
  5 35  1  0  0  0  0
  6  7  2  0  0  0  0
  6 36  1  0  0  0  0
  7  8  1  0  0  0  0
  7 37  1  0  0  0  0
  8  9  1  0  0  0  0
  8 38  1  0  0  0  0
  8 39  1  0  0  0  0
  9 10  1  0  0  0  0
 10 11  2  0  0  0  0
 10 18  1  0  0  0  0
 11 12  1  0  0  0  0
 11 40  1  0  0  0  0
 12 13  1  0  0  0  0
 12 16  2  0  0  0  0
 13 14  1  0  0  0  0
 13 27  1  0  0  0  0
 14 15  2  0  0  0  0
 15 16  1  0  0  0  0
 15 19  1  0  0  0  0
 16 17  1  0  0  0  0
 17 18  2  0  0  0  0
 17 41  1  0  0  0  0
 18 25  1  0  0  0  0
 19 20  2  0  0  0  0
 19 24  1  0  0  0  0
 20 21  1  0  0  0  0
 20 42  1  0  0  0  0
 21 22  2  0  0  0  0
 21 43  1  0  0  0  0
 22 23  1  0  0  0  0
 22 26  1  0  0  0  0
 23 24  2  0  0  0  0
 23 44  1  0  0  0  0
 24 45  1  0  0  0  0
 27 46  1  0  0  0  0
 27 47  1  0  0  0  0
 27 48  1  0  0  0  0
 28 49  1  0  0  0  0
 28 50  1  0  0  0  0
 28 51  1  0  0  0  0
M  END
>  <DRUGBANK_ID>
DB02139

>  <SECONDARY_ACCESSION_NUMBERS>
EXPT02738

>  <COMMON_NAME>
(2e)-N-Allyl-4-{[3-(4-Bromophenyl)-5-Fluoro-1-Methyl-1h-Indazol-6-Yl]Oxy}-N-Methyl-2-Buten-1-Amine

$$$$
