
 OpenBabel10282417072D

 52 54  0  0  0  0  0  0  0  0999 V2000
    0.7447    1.2640    0.0000 N   0  0  0  0  0  0  0  0  0  0  0  0
    2.1969    1.4940    0.0000 C   0  0  0  0  0  0  0  0  0  0  0  0
    2.3683    0.6870    0.0000 O   0  0  0  0  0  0  0  0  0  0  0  0
    1.4122    1.7490    0.0000 C   0  0  2  0  0  0  0  0  0  0  0  0
    0.0773    1.7490    0.0000 C   0  0  0  0  0  0  0  0  0  0  0  0
    0.3323    2.5336    0.0000 C   0  0  2  0  0  0  0  0  0  0  0  0
    1.1573    2.5336    0.0000 C   0  0  0  0  0  0  0  0  0  0  0  0
    2.8099    2.0460    0.0000 O   0  0  0  0  0  0  0  0  0  0  0  0
    0.7650    0.4385    0.0000 C   0  0  0  0  0  0  0  0  0  0  0  0
    0.0541    0.0201    0.0000 C   0  0  1  0  0  0  0  0  0  0  0  0
    1.4965    0.0323    0.0000 O   0  0  0  0  0  0  0  0  0  0  0  0
    0.0541   -0.8412    0.0000 C   0  0  0  0  0  0  0  0  0  0  0  0
   -0.6771    0.4264    0.0000 C   0  0  0  0  0  0  0  0  0  0  0  0
   -0.6568   -1.2596    0.0000 S   0  0  0  0  0  0  0  0  0  0  0  0
   -0.6364   -2.0844    0.0000 C   0  0  0  0  0  0  0  0  0  0  0  0
   -1.3677   -2.5394    0.0000 C   0  0  0  0  0  0  0  0  0  0  0  0
    0.0948   -2.4907    0.0000 O   0  0  0  0  0  0  0  0  0  0  0  0
   -2.0990   -2.1332    0.0000 C   0  0  0  0  0  0  0  0  0  0  0  0
   -2.8099   -2.5517    0.0000 C   0  0  0  0  0  0  0  0  0  0  0  0
   -2.7897   -3.3764    0.0000 C   0  0  0  0  0  0  0  0  0  0  0  0
   -2.0583   -3.7827    0.0000 C   0  0  0  0  0  0  0  0  0  0  0  0
   -1.3474   -3.3642    0.0000 C   0  0  0  0  0  0  0  0  0  0  0  0
   -0.1524    3.2012    0.0000 S   0  0  0  0  0  0  0  0  0  0  0  0
   -0.9729    3.1151    0.0000 C   0  0  0  0  0  0  0  0  0  0  0  0
   -1.4577    3.7827    0.0000 C   0  0  0  0  0  0  0  0  0  0  0  0
   -1.3086    2.3615    0.0000 C   0  0  0  0  0  0  0  0  0  0  0  0
   -2.2782    3.6966    0.0000 C   0  0  0  0  0  0  0  0  0  0  0  0
   -2.1291    2.2755    0.0000 C   0  0  0  0  0  0  0  0  0  0  0  0
   -2.6139    2.9430    0.0000 C   0  0  0  0  0  0  0  0  0  0  0  0
    1.5796    0.6922    0.0000 H   0  0  0  0  0  0  0  0  0  0  0  0
   -0.9404    1.4184    0.0000 H   0  0  0  0  0  0  0  0  0  0  0  0
   -0.6792    2.5057    0.0000 H   0  0  0  0  0  0  0  0  0  0  0  0
   -0.7246    2.3664    0.0000 H   0  0  0  0  0  0  0  0  0  0  0  0
    1.7862    3.3992    0.0000 H   0  0  0  0  0  0  0  0  0  0  0  0
    0.6715    3.4870    0.0000 H   0  0  0  0  0  0  0  0  0  0  0  0
    3.7011    1.7565    0.0000 H   0  0  0  0  0  0  0  0  0  0  0  0
    0.0408    1.0900    0.0000 H   0  0  0  0  0  0  0  0  0  0  0  0
    0.9830   -1.3723    0.0000 H   0  0  0  0  0  0  0  0  0  0  0  0
    0.0608   -1.9112    0.0000 H   0  0  0  0  0  0  0  0  0  0  0  0
   -0.6947    1.4963    0.0000 H   0  0  0  0  0  0  0  0  0  0  0  0
   -1.5948   -0.1237    0.0000 H   0  0  0  0  0  0  0  0  0  0  0  0
   -1.6124    0.9461    0.0000 H   0  0  0  0  0  0  0  0  0  0  0  0
   -2.1119   -1.1013    0.0000 H   0  0  0  0  0  0  0  0  0  0  0  0
   -3.7120   -2.0505    0.0000 H   0  0  0  0  0  0  0  0  0  0  0  0
   -3.6727   -3.9106    0.0000 H   0  0  0  0  0  0  0  0  0  0  0  0
   -2.0454   -4.8146    0.0000 H   0  0  0  0  0  0  0  0  0  0  0  0
   -0.4453   -3.8654    0.0000 H   0  0  0  0  0  0  0  0  0  0  0  0
   -1.0378    4.7254    0.0000 H   0  0  0  0  0  0  0  0  0  0  0  0
   -0.7022    1.5264    0.0000 H   0  0  0  0  0  0  0  0  0  0  0  0
   -2.8846    4.5316    0.0000 H   0  0  0  0  0  0  0  0  0  0  0  0
   -2.5491    1.3328    0.0000 H   0  0  0  0  0  0  0  0  0  0  0  0
   -3.6403    2.8353    0.0000 H   0  0  0  0  0  0  0  0  0  0  0  0
  1  5  1  0  0  0  0
  1  9  1  0  0  0  0
  2  3  2  0  0  0  0
  4  2  1  0  0  0  0
  4  1  1  0  0  0  0
  4  7  1  0  0  0  0
  4 30  1  6  0  0  0
  5  6  1  0  0  0  0
  5 31  1  0  0  0  0
  5 32  1  0  0  0  0
  6  7  1  0  0  0  0
  6 23  1  0  0  0  0
  6 33  1  6  0  0  0
  7 34  1  0  0  0  0
  7 35  1  0  0  0  0
  8  2  1  0  0  0  0
  8 36  1  0  0  0  0
  9 10  1  0  0  0  0
  9 11  2  0  0  0  0
 10 12  1  0  0  0  0
 10 13  1  0  0  0  0
 10 37  1  6  0  0  0
 12 14  1  0  0  0  0
 12 38  1  0  0  0  0
 12 39  1  0  0  0  0
 13 40  1  0  0  0  0
 13 41  1  0  0  0  0
 13 42  1  0  0  0  0
 14 15  1  0  0  0  0
 15 16  1  0  0  0  0
 15 17  2  0  0  0  0
 16 18  2  0  0  0  0
 16 22  1  0  0  0  0
 18 19  1  0  0  0  0
 18 43  1  0  0  0  0
 19 20  2  0  0  0  0
 19 44  1  0  0  0  0
 20 21  1  0  0  0  0
 20 45  1  0  0  0  0
 21 22  2  0  0  0  0
 21 46  1  0  0  0  0
 22 47  1  0  0  0  0
 23 24  1  0  0  0  0
 25 24  1  0  0  0  0
 25 48  1  0  0  0  0
 26 24  2  0  0  0  0
 26 49  1  0  0  0  0
 27 25  2  0  0  0  0
 27 50  1  0  0  0  0
 28 26  1  0  0  0  0
 28 51  1  0  0  0  0
 29 27  1  0  0  0  0
 29 28  2  0  0  0  0
 29 52  1  0  0  0  0
M  END
>  <DRUGBANK_ID>
DB13166

>  <COMMON_NAME>
Zofenopril

>  <CAS_NUMBER>
81872-10-8

>  <UNII>
290ZY759PI

>  <SYNONYMS>
Zofenil; Zof√©nopril; Zofenopril; Zofenoprilum

$$$$
