
 OpenBabel10282417072D

 72 74  0  0  1  0  0  0  0  0999 V2000
    4.4449    5.8498    0.0000 N   0  0  0  0  0  0  0  0  0  0  0  0
    5.2699    5.8498    0.0000 C   0  0  0  0  0  0  0  0  0  0  0  0
    5.6824    6.5643    0.0000 N   0  0  0  0  0  0  0  0  0  0  0  0
    5.6824    5.1354    0.0000 C   0  0  0  0  0  0  0  0  0  0  0  0
    6.5074    5.1354    0.0000 C   0  0  0  0  0  0  0  0  0  0  0  0
    6.9199    4.4209    0.0000 C   0  0  0  0  0  0  0  0  0  0  0  0
    6.5074    3.7064    0.0000 C   0  0  0  0  0  0  0  0  0  0  0  0
    6.9199    2.9920    0.0000 C   0  0  0  0  0  0  0  0  0  0  0  0
    6.5074    2.2775    0.0000 N   0  0  0  0  0  0  0  0  0  0  0  0
    6.9199    1.5630    0.0000 C   0  0  0  0  0  0  0  0  0  0  0  0
    7.7449    1.5630    0.0000 O   0  0  0  0  0  0  0  0  0  0  0  0
    6.5074    0.8485    0.0000 C   0  0  2  0  0  0  0  0  0  0  0  0
    5.6824    0.8485    0.0000 C   0  0  0  0  0  0  0  0  0  0  0  0
    5.2699    0.1341    0.0000 C   0  0  0  0  0  0  0  0  0  0  0  0
    4.4449    0.1341    0.0000 C   0  0  0  0  0  0  0  0  0  0  0  0
    4.0324   -0.5804    0.0000 N   0  0  0  0  0  0  0  0  0  0  0  0
    4.0324    0.8485    0.0000 O   0  0  0  0  0  0  0  0  0  0  0  0
    6.9199    0.1341    0.0000 N   0  0  0  0  0  0  0  0  0  0  0  0
    6.5074   -0.5804    0.0000 C   0  0  0  0  0  0  0  0  0  0  0  0
    5.6824   -0.5804    0.0000 O   0  0  0  0  0  0  0  0  0  0  0  0
    6.9199   -1.2949    0.0000 C   0  0  1  0  0  0  0  0  0  0  0  0
    6.5074   -2.0093    0.0000 C   0  0  0  0  0  0  0  0  0  0  0  0
    6.9199   -2.7238    0.0000 C   0  0  0  0  0  0  0  0  0  0  0  0
    7.7404   -2.8100    0.0000 C   0  0  0  0  0  0  0  0  0  0  0  0
    7.9119   -3.6170    0.0000 N   0  0  0  0  0  0  0  0  0  0  0  0
    7.1975   -4.0295    0.0000 C   0  0  0  0  0  0  0  0  0  0  0  0
    7.0259   -4.8365    0.0000 C   0  0  0  0  0  0  0  0  0  0  0  0
    6.2413   -5.0914    0.0000 C   0  0  0  0  0  0  0  0  0  0  0  0
    5.6282   -4.5394    0.0000 C   0  0  0  0  0  0  0  0  0  0  0  0
    5.7997   -3.7324    0.0000 C   0  0  0  0  0  0  0  0  0  0  0  0
    6.5844   -3.4775    0.0000 C   0  0  0  0  0  0  0  0  0  0  0  0
    7.7449   -1.2949    0.0000 N   0  0  0  0  0  0  0  0  0  0  0  0
    8.1574   -0.5804    0.0000 S   0  0  0  0  0  0  0  0  0  0  0  0
    7.4430   -0.1679    0.0000 O   0  0  0  0  0  0  0  0  0  0  0  0
    8.8719   -0.9929    0.0000 O   0  0  0  0  0  0  0  0  0  0  0  0
    8.5699    0.1341    0.0000 C   0  0  0  0  0  0  0  0  0  0  0  0
    9.3949    0.1341    0.0000 C   0  0  0  0  0  0  0  0  0  0  0  0
    5.6824    3.7064    0.0000 C   0  0  0  0  0  0  0  0  0  0  0  0
    5.2699    4.4209    0.0000 C   0  0  0  0  0  0  0  0  0  0  0  0
    3.9526    6.7024    0.0000 H   0  0  0  0  0  0  0  0  0  0  0  0
    6.6669    6.5643    0.0000 H   0  0  0  0  0  0  0  0  0  0  0  0
    5.1901    7.4169    0.0000 H   0  0  0  0  0  0  0  0  0  0  0  0
    7.0234    6.0291    0.0000 H   0  0  0  0  0  0  0  0  0  0  0  0
    7.9519    4.4209    0.0000 H   0  0  0  0  0  0  0  0  0  0  0  0
    7.9899    2.9920    0.0000 H   0  0  0  0  0  0  0  0  0  0  0  0
    7.4549    2.0654    0.0000 H   0  0  0  0  0  0  0  0  0  0  0  0
    5.5229    2.2775    0.0000 H   0  0  0  0  0  0  0  0  0  0  0  0
    7.5774    0.8485    0.0000 H   0  0  0  0  0  0  0  0  0  0  0  0
    5.1474    1.7752    0.0000 H   0  0  0  0  0  0  0  0  0  0  0  0
    4.6124    0.8485    0.0000 H   0  0  0  0  0  0  0  0  0  0  0  0
    5.8049   -0.7926    0.0000 H   0  0  0  0  0  0  0  0  0  0  0  0
    4.7349   -0.7925    0.0000 H   0  0  0  0  0  0  0  0  0  0  0  0
    3.0479   -0.5804    0.0000 H   0  0  0  0  0  0  0  0  0  0  0  0
    4.5247   -1.4330    0.0000 H   0  0  0  0  0  0  0  0  0  0  0  0
    7.9044    0.1341    0.0000 H   0  0  0  0  0  0  0  0  0  0  0  0
    7.4549   -0.3683    0.0000 H   0  0  0  0  0  0  0  0  0  0  0  0
    5.4374   -2.0093    0.0000 H   0  0  0  0  0  0  0  0  0  0  0  0
    5.9724   -2.9359    0.0000 H   0  0  0  0  0  0  0  0  0  0  0  0
    8.4309   -2.0431    0.0000 H   0  0  0  0  0  0  0  0  0  0  0  0
    8.8113   -4.0174    0.0000 H   0  0  0  0  0  0  0  0  0  0  0  0
    7.7928   -5.5271    0.0000 H   0  0  0  0  0  0  0  0  0  0  0  0
    6.0267   -6.1008    0.0000 H   0  0  0  0  0  0  0  0  0  0  0  0
    4.6467   -4.8583    0.0000 H   0  0  0  0  0  0  0  0  0  0  0  0
    5.0328   -3.0418    0.0000 H   0  0  0  0  0  0  0  0  0  0  0  0
    8.2549   -2.1782    0.0000 H   0  0  0  0  0  0  0  0  0  0  0  0
    8.0349    1.0607    0.0000 H   0  0  0  0  0  0  0  0  0  0  0  0
    9.1049    1.0607    0.0000 H   0  0  0  0  0  0  0  0  0  0  0  0
    9.9299   -0.7925    0.0000 H   0  0  0  0  0  0  0  0  0  0  0  0
    9.9299    1.0607    0.0000 H   0  0  0  0  0  0  0  0  0  0  0  0
   10.4649    0.1341    0.0000 H   0  0  0  0  0  0  0  0  0  0  0  0
    5.1664    2.8127    0.0000 H   0  0  0  0  0  0  0  0  0  0  0  0
    4.2379    4.4209    0.0000 H   0  0  0  0  0  0  0  0  0  0  0  0
  1  2  2  0  0  0  0
  1 40  1  0  0  0  0
  2  3  1  0  0  0  0
  2  4  1  0  0  0  0
  3 41  1  0  0  0  0
  3 42  1  0  0  0  0
  4  5  2  0  0  0  0
  4 39  1  0  0  0  0
  5  6  1  0  0  0  0
  5 43  1  0  0  0  0
  6  7  2  0  0  0  0
  6 44  1  0  0  0  0
  7  8  1  0  0  0  0
  7 38  1  0  0  0  0
  8  9  1  0  0  0  0
  8 45  1  0  0  0  0
  8 46  1  0  0  0  0
  9 10  1  0  0  0  0
  9 47  1  0  0  0  0
 10 11  2  0  0  0  0
 10 12  1  0  0  0  0
 12 13  1  0  0  0  0
 12 18  1  0  0  0  0
 12 48  1  6  0  0  0
 13 14  1  0  0  0  0
 13 49  1  0  0  0  0
 13 50  1  0  0  0  0
 14 15  1  0  0  0  0
 14 51  1  0  0  0  0
 14 52  1  0  0  0  0
 15 16  1  0  0  0  0
 15 17  2  0  0  0  0
 16 53  1  0  0  0  0
 16 54  1  0  0  0  0
 18 19  1  0  0  0  0
 18 55  1  0  0  0  0
 19 20  2  0  0  0  0
 19 21  1  0  0  0  0
 21 22  1  0  0  0  0
 21 32  1  0  0  0  0
 21 56  1  1  0  0  0
 22 23  1  0  0  0  0
 22 57  1  0  0  0  0
 22 58  1  0  0  0  0
 23 24  2  0  0  0  0
 23 31  1  0  0  0  0
 24 25  1  0  0  0  0
 24 59  1  0  0  0  0
 25 26  1  0  0  0  0
 25 60  1  0  0  0  0
 26 27  2  0  0  0  0
 26 31  1  0  0  0  0
 27 28  1  0  0  0  0
 27 61  1  0  0  0  0
 28 29  2  0  0  0  0
 28 62  1  0  0  0  0
 29 30  1  0  0  0  0
 29 63  1  0  0  0  0
 30 31  2  0  0  0  0
 30 64  1  0  0  0  0
 32 33  1  0  0  0  0
 32 65  1  0  0  0  0
 33 34  2  0  0  0  0
 33 35  2  0  0  0  0
 33 36  1  0  0  0  0
 36 37  1  0  0  0  0
 36 66  1  0  0  0  0
 36 67  1  0  0  0  0
 37 68  1  0  0  0  0
 37 69  1  0  0  0  0
 37 70  1  0  0  0  0
 38 39  2  0  0  0  0
 38 71  1  0  0  0  0
 39 72  1  0  0  0  0
M  END
>  <DRUGBANK_ID>
DB04758

>  <COMMON_NAME>
2-[2-ETHANESULFONYLAMINO-3-(1H-INDOL-3-YL)-PROPIONYLAMINO]-PENTANEDIOIC ACID 5-AMIDE 1-(4-CARBAMIM IDOYL-BENZYLAMIDE)

$$$$
