
 OpenBabel10282417072D

 78 81  0  0  1  0  0  0  0  0999 V2000
    6.4765   -0.4537    0.0000 C   0  0  0  0  0  0  0  0  0  0  0  0
    6.9682   -1.1162    0.0000 C   0  0  2  0  0  0  0  0  0  0  0  0
    7.7878   -1.0215    0.0000 C   0  0  0  0  0  0  0  0  0  0  0  0
    8.1156   -0.2645    0.0000 N   0  0  0  0  0  0  0  0  0  0  0  0
    8.9352   -0.1698    0.0000 C   0  0  2  0  0  0  0  0  0  0  0  0
    9.4269   -0.8323    0.0000 C   0  0  0  0  0  0  0  0  0  0  0  0
    9.0991   -1.5893    0.0000 O   0  0  0  0  0  0  0  0  0  0  0  0
   10.2464   -0.7376    0.0000 N   0  0  0  0  0  0  0  0  0  0  0  0
   10.7382   -1.4001    0.0000 C   0  0  1  0  0  0  0  0  0  0  0  0
   10.4104   -2.1571    0.0000 C   0  0  0  0  0  0  0  0  0  0  0  0
   10.9021   -2.8196    0.0000 O   0  0  0  0  0  0  0  0  0  0  0  0
    9.5908   -2.2518    0.0000 N   0  0  0  0  0  0  0  0  0  0  0  0
    9.2630   -3.0088    0.0000 C   0  0  1  0  0  0  0  0  0  0  0  0
    8.4434   -3.1035    0.0000 C   0  0  0  0  0  0  0  0  0  0  0  0
    7.9517   -2.4410    0.0000 O   0  0  0  0  0  0  0  0  0  0  0  0
    8.1156   -3.8605    0.0000 N   0  0  0  0  0  0  0  0  0  0  0  0
    7.2960   -3.9552    0.0000 C   0  0  0  0  0  0  0  0  0  0  0  0
    6.8043   -3.2927    0.0000 C   0  0  0  0  0  0  0  0  0  0  0  0
    5.9848   -3.3874    0.0000 C   0  0  0  0  0  0  0  0  0  0  0  0
    5.4930   -2.7249    0.0000 C   0  0  0  0  0  0  0  0  0  0  0  0
    4.6735   -2.8196    0.0000 C   0  0  0  0  0  0  0  0  0  0  0  0
    4.1817   -2.1571    0.0000 C   0  0  0  0  0  0  0  0  0  0  0  0
    4.5096   -1.4001    0.0000 C   0  0  0  0  0  0  0  0  0  0  0  0
    5.3291   -1.3054    0.0000 C   0  0  0  0  0  0  0  0  0  0  0  0
    5.8209   -1.9679    0.0000 C   0  0  0  0  0  0  0  0  0  0  0  0
    6.6404   -1.8732    0.0000 O   0  0  0  0  0  0  0  0  0  0  0  0
    9.7547   -3.6713    0.0000 C   0  0  0  0  0  0  0  0  0  0  0  0
    9.4269   -4.4283    0.0000 C   0  0  0  0  0  0  0  0  0  0  0  0
    9.9186   -5.0908    0.0000 C   0  0  0  0  0  0  0  0  0  0  0  0
    9.5908   -5.8479    0.0000 C   0  0  0  0  0  0  0  0  0  0  0  0
    8.7712   -5.9425    0.0000 C   0  0  0  0  0  0  0  0  0  0  0  0
    8.2795   -5.2801    0.0000 C   0  0  0  0  0  0  0  0  0  0  0  0
    8.6073   -4.5230    0.0000 C   0  0  0  0  0  0  0  0  0  0  0  0
    8.4434   -6.6996    0.0000 F   0  0  0  0  0  0  0  0  0  0  0  0
   11.5577   -1.3054    0.0000 C   0  0  0  0  0  0  0  0  0  0  0  0
   10.5743    0.0194    0.0000 C   0  0  0  0  0  0  0  0  0  0  0  0
    9.2630    0.5873    0.0000 C   0  0  0  0  0  0  0  0  0  0  0  0
    9.1683    1.4068    0.0000 C   0  0  0  0  0  0  0  0  0  0  0  0
    9.9254    1.0790    0.0000 C   0  0  0  0  0  0  0  0  0  0  0  0
    6.9018    0.5282    0.0000 H   0  0  0  0  0  0  0  0  0  0  0  0
    5.4136   -0.5764    0.0000 H   0  0  0  0  0  0  0  0  0  0  0  0
    5.8388    0.4055    0.0000 H   0  0  0  0  0  0  0  0  0  0  0  0
    7.3934   -0.1343    0.0000 H   0  0  0  0  0  0  0  0  0  0  0  0
    8.4256   -1.8806    0.0000 H   0  0  0  0  0  0  0  0  0  0  0  0
    8.8507   -0.8988    0.0000 H   0  0  0  0  0  0  0  0  0  0  0  0
    7.5076    0.5545    0.0000 H   0  0  0  0  0  0  0  0  0  0  0  0
    8.2974    0.6893    0.0000 H   0  0  0  0  0  0  0  0  0  0  0  0
   11.1633   -0.4182    0.0000 H   0  0  0  0  0  0  0  0  0  0  0  0
    9.0040   -1.4613    0.0000 H   0  0  0  0  0  0  0  0  0  0  0  0
   10.3259   -2.8861    0.0000 H   0  0  0  0  0  0  0  0  0  0  0  0
    8.7024   -4.6510    0.0000 H   0  0  0  0  0  0  0  0  0  0  0  0
    6.8708   -4.9371    0.0000 H   0  0  0  0  0  0  0  0  0  0  0  0
    6.2331   -4.0779    0.0000 H   0  0  0  0  0  0  0  0  0  0  0  0
    7.2295   -2.3108    0.0000 H   0  0  0  0  0  0  0  0  0  0  0  0
    6.1665   -2.4336    0.0000 H   0  0  0  0  0  0  0  0  0  0  0  0
    5.5597   -4.3693    0.0000 H   0  0  0  0  0  0  0  0  0  0  0  0
    4.9219   -3.5102    0.0000 H   0  0  0  0  0  0  0  0  0  0  0  0
    4.2635   -3.7667    0.0000 H   0  0  0  0  0  0  0  0  0  0  0  0
    3.1565   -2.2754    0.0000 H   0  0  0  0  0  0  0  0  0  0  0  0
    3.8945   -0.5714    0.0000 H   0  0  0  0  0  0  0  0  0  0  0  0
    5.7391   -0.3583    0.0000 H   0  0  0  0  0  0  0  0  0  0  0  0
   10.8176   -3.5486    0.0000 H   0  0  0  0  0  0  0  0  0  0  0  0
   10.3924   -4.5305    0.0000 H   0  0  0  0  0  0  0  0  0  0  0  0
   10.9438   -4.9724    0.0000 H   0  0  0  0  0  0  0  0  0  0  0  0
   10.2059   -6.6766    0.0000 H   0  0  0  0  0  0  0  0  0  0  0  0
    7.2543   -5.3985    0.0000 H   0  0  0  0  0  0  0  0  0  0  0  0
    7.9921   -3.6944    0.0000 H   0  0  0  0  0  0  0  0  0  0  0  0
   12.1955   -2.1645    0.0000 H   0  0  0  0  0  0  0  0  0  0  0  0
   11.9828   -0.3235    0.0000 H   0  0  0  0  0  0  0  0  0  0  0  0
   12.6206   -1.1826    0.0000 H   0  0  0  0  0  0  0  0  0  0  0  0
   11.6373    0.1420    0.0000 H   0  0  0  0  0  0  0  0  0  0  0  0
    9.9366    0.8786    0.0000 H   0  0  0  0  0  0  0  0  0  0  0  0
   10.9996    1.0012    0.0000 H   0  0  0  0  0  0  0  0  0  0  0  0
    9.6881    1.5692    0.0000 H   0  0  0  0  0  0  0  0  0  0  0  0
    8.5305    2.2659    0.0000 H   0  0  0  0  0  0  0  0  0  0  0  0
    9.8331    2.2452    0.0000 H   0  0  0  0  0  0  0  0  0  0  0  0
   10.9883    1.2018    0.0000 H   0  0  0  0  0  0  0  0  0  0  0  0
   10.3191    0.0841    0.0000 H   0  0  0  0  0  0  0  0  0  0  0  0
  1 40  1  0  0  0  0
  1 41  1  0  0  0  0
  1 42  1  0  0  0  0
  2  1  1  0  0  0  0
  2  3  1  0  0  0  0
  2 26  1  0  0  0  0
  2 43  1  1  0  0  0
  3  4  1  0  0  0  0
  3 44  1  0  0  0  0
  3 45  1  0  0  0  0
  4  5  1  0  0  0  0
  4 46  1  0  0  0  0
  5  6  1  0  0  0  0
  5 37  1  0  0  0  0
  5 47  1  6  0  0  0
  6  7  2  0  0  0  0
  6  8  1  0  0  0  0
  8  9  1  0  0  0  0
  8 36  1  0  0  0  0
  9 10  1  0  0  0  0
  9 35  1  0  0  0  0
  9 48  1  1  0  0  0
 10 11  2  0  0  0  0
 10 12  1  0  0  0  0
 12 13  1  0  0  0  0
 12 49  1  0  0  0  0
 13 14  1  0  0  0  0
 13 27  1  0  0  0  0
 13 50  1  1  0  0  0
 14 15  2  0  0  0  0
 14 16  1  0  0  0  0
 16 17  1  0  0  0  0
 16 51  1  0  0  0  0
 17 18  1  0  0  0  0
 17 52  1  0  0  0  0
 17 53  1  0  0  0  0
 18 19  1  0  0  0  0
 18 54  1  0  0  0  0
 18 55  1  0  0  0  0
 19 20  1  0  0  0  0
 19 56  1  0  0  0  0
 19 57  1  0  0  0  0
 20 21  2  0  0  0  0
 20 25  1  0  0  0  0
 21 22  1  0  0  0  0
 21 58  1  0  0  0  0
 22 23  2  0  0  0  0
 22 59  1  0  0  0  0
 23 24  1  0  0  0  0
 23 60  1  0  0  0  0
 24 25  2  0  0  0  0
 24 61  1  0  0  0  0
 25 26  1  0  0  0  0
 27 28  1  0  0  0  0
 27 62  1  0  0  0  0
 27 63  1  0  0  0  0
 28 29  2  0  0  0  0
 28 33  1  0  0  0  0
 29 30  1  0  0  0  0
 29 64  1  0  0  0  0
 30 31  2  0  0  0  0
 30 65  1  0  0  0  0
 31 32  1  0  0  0  0
 31 34  1  0  0  0  0
 32 33  2  0  0  0  0
 32 66  1  0  0  0  0
 33 67  1  0  0  0  0
 35 68  1  0  0  0  0
 35 69  1  0  0  0  0
 35 70  1  0  0  0  0
 36 71  1  0  0  0  0
 36 72  1  0  0  0  0
 36 73  1  0  0  0  0
 37 38  1  0  0  0  0
 37 39  1  0  0  0  0
 37 74  1  0  0  0  0
 38 39  1  0  0  0  0
 38 75  1  0  0  0  0
 38 76  1  0  0  0  0
 39 77  1  0  0  0  0
 39 78  1  0  0  0  0
M  END
>  <DRUGBANK_ID>
DB12128

>  <SECONDARY_ACCESSION_NUMBERS>
DB05657

>  <COMMON_NAME>
Ulimorelin

>  <CAS_NUMBER>
842131-33-3

>  <UNII>
LGI67MCW2S

>  <SYNONYMS>
Ulimorelin

$$$$
