
 OpenBabel10282417072D

 32 35  0  0  0  0  0  0  0  0999 V2000
    1.7099   -2.4055    0.0000 C   0  0  0  0  0  0  0  0  0  0  0  0
    5.0883    1.2320    0.0000 C   0  0  0  0  0  0  0  0  0  0  0  0
    4.9654    2.0478    0.0000 C   0  0  0  0  0  0  0  0  0  0  0  0
    4.4433    0.7176    0.0000 C   0  0  0  0  0  0  0  0  0  0  0  0
    4.1974    2.3492    0.0000 C   0  0  0  0  0  0  0  0  0  0  0  0
    3.9863   -0.5894    0.0000 C   0  0  0  0  0  0  0  0  0  0  0  0
    1.5437    0.5047    0.0000 C   0  0  0  0  0  0  0  0  0  0  0  0
    1.4200   -1.6331    0.0000 C   0  0  0  0  0  0  0  0  0  0  0  0
    3.6753    1.0190    0.0000 C   0  0  0  0  0  0  0  0  0  0  0  0
    3.2139   -0.2996    0.0000 C   0  0  0  0  0  0  0  0  0  0  0  0
    3.5524    1.8348    0.0000 C   0  0  0  0  0  0  0  0  0  0  0  0
    3.9493   -1.4136    0.0000 C   0  0  0  0  0  0  0  0  0  0  0  0
    1.3602   -0.2996    0.0000 C   0  0  0  0  0  0  0  0  0  0  0  0
    3.0303    0.5047    0.0000 C   0  0  0  0  0  0  0  0  0  0  0  0
    2.6995   -0.9446    0.0000 C   0  0  0  0  0  0  0  0  0  0  0  0
    4.5943   -1.9280    0.0000 Br  0  0  0  0  0  0  0  0  0  0  0  0
    2.7844    2.1362    0.0000 Cl  0  0  0  0  0  0  0  0  0  0  0  0
    2.2870    0.8626    0.0000 N   0  0  0  0  0  0  0  0  0  0  0  0
    0.6248   -1.4136    0.0000 N   0  0  0  0  0  0  0  0  0  0  0  0
    0.5878   -0.5894    0.0000 N   0  0  0  0  0  0  0  0  0  0  0  0
    1.8745   -0.9446    0.0000 N   0  0  0  0  0  0  0  0  0  0  0  0
    3.1540   -1.6331    0.0000 S   0  0  0  0  0  0  0  0  0  0  0  0
    1.0303   -3.2320    0.0000 H   0  0  0  0  0  0  0  0  0  0  0  0
    2.7654   -2.5808    0.0000 H   0  0  0  0  0  0  0  0  0  0  0  0
    2.0859   -3.4073    0.0000 H   0  0  0  0  0  0  0  0  0  0  0  0
    6.0490    0.8549    0.0000 H   0  0  0  0  0  0  0  0  0  0  0  0
    5.7723    2.6912    0.0000 H   0  0  0  0  0  0  0  0  0  0  0  0
    4.5971   -0.3029    0.0000 H   0  0  0  0  0  0  0  0  0  0  0  0
    4.0436    3.3697    0.0000 H   0  0  0  0  0  0  0  0  0  0  0  0
    4.8475   -0.0208    0.0000 H   0  0  0  0  0  0  0  0  0  0  0  0
    0.7071    1.1718    0.0000 H   0  0  0  0  0  0  0  0  0  0  0  0
    1.6635    1.5680    0.0000 H   0  0  0  0  0  0  0  0  0  0  0  0
  1 23  1  0  0  0  0
  1 24  1  0  0  0  0
  1 25  1  0  0  0  0
  2 26  1  0  0  0  0
  3  2  2  0  0  0  0
  3 27  1  0  0  0  0
  4  2  1  0  0  0  0
  4 28  1  0  0  0  0
  5  3  1  0  0  0  0
  5 29  1  0  0  0  0
  6 30  1  0  0  0  0
  7 31  1  0  0  0  0
  7 32  1  0  0  0  0
  8  1  1  0  0  0  0
  9  4  2  0  0  0  0
 10  6  1  0  0  0  0
 11  5  2  0  0  0  0
 11  9  1  0  0  0  0
 12  6  2  0  0  0  0
 13  7  1  0  0  0  0
 14  9  1  0  0  0  0
 14 10  1  0  0  0  0
 15 10  2  0  0  0  0
 16 12  1  0  0  0  0
 17 11  1  0  0  0  0
 18  7  1  0  0  0  0
 18 14  2  0  0  0  0
 19  8  2  0  0  0  0
 20 13  2  0  0  0  0
 20 19  1  0  0  0  0
 21  8  1  0  0  0  0
 21 13  1  0  0  0  0
 21 15  1  0  0  0  0
 22 12  1  0  0  0  0
 22 15  1  0  0  0  0
M  END
>  <DRUGBANK_ID>
DB09017

>  <COMMON_NAME>
Brotizolam

>  <CAS_NUMBER>
57801-81-7

>  <UNII>
5XZM1R3DKF

>  <SYNONYMS>
Brotizolam; Brotizolamum

$$$$
