HAB
 OpenBabel10282417072D

 28 29  0  0  0  0  0  0  0  0999 V2000
    0.2106   -1.1055    0.0000 C   0  0  0  0  0  0  0  0  0  0  0  0
    0.9250   -1.5180    0.0000 C   0  0  0  0  0  0  0  0  0  0  0  0
    0.9250   -2.3430    0.0000 C   0  0  0  0  0  0  0  0  0  0  0  0
    0.2106   -2.7555    0.0000 C   0  0  0  0  0  0  0  0  0  0  0  0
   -0.5039   -2.3430    0.0000 C   0  0  0  0  0  0  0  0  0  0  0  0
   -0.5039   -1.5180    0.0000 C   0  0  0  0  0  0  0  0  0  0  0  0
   -0.5039    0.9570    0.0000 C   0  0  0  0  0  0  0  0  0  0  0  0
   -1.2184    1.3695    0.0000 C   0  0  0  0  0  0  0  0  0  0  0  0
   -1.2184    2.1945    0.0000 C   0  0  0  0  0  0  0  0  0  0  0  0
   -0.5039    2.6070    0.0000 C   0  0  0  0  0  0  0  0  0  0  0  0
    0.2106    2.1945    0.0000 C   0  0  0  0  0  0  0  0  0  0  0  0
    0.2106    1.3695    0.0000 C   0  0  0  0  0  0  0  0  0  0  0  0
    1.6395   -1.1055    0.0000 C   0  0  0  0  0  0  0  0  0  0  0  0
    0.2106   -0.2805    0.0000 N   0  0  0  0  0  0  0  0  0  0  0  0
   -0.5039    0.1320    0.0000 N   0  0  0  0  0  0  0  0  0  0  0  0
    2.3540   -1.5180    0.0000 O   0  0  0  0  0  0  0  0  0  0  0  0
    1.6395   -0.2805    0.0000 O   0  0  0  0  0  0  0  0  0  0  0  0
   -0.5039    3.4320    0.0000 O   0  0  0  0  0  0  0  0  0  0  0  0
    1.8187   -2.8590    0.0000 H   0  0  0  0  0  0  0  0  0  0  0  0
    0.2106   -3.7875    0.0000 H   0  0  0  0  0  0  0  0  0  0  0  0
   -1.3976   -2.8590    0.0000 H   0  0  0  0  0  0  0  0  0  0  0  0
   -1.3976   -1.0020    0.0000 H   0  0  0  0  0  0  0  0  0  0  0  0
   -2.1121    0.8535    0.0000 H   0  0  0  0  0  0  0  0  0  0  0  0
   -2.1121    2.7105    0.0000 H   0  0  0  0  0  0  0  0  0  0  0  0
    1.1043    2.7105    0.0000 H   0  0  0  0  0  0  0  0  0  0  0  0
    1.1043    0.8535    0.0000 H   0  0  0  0  0  0  0  0  0  0  0  0
    2.4510    0.1880    0.0000 H   0  0  0  0  0  0  0  0  0  0  0  0
    0.3076    3.9005    0.0000 H   0  0  0  0  0  0  0  0  0  0  0  0
  1  2  1  0  0  0  0
  1  6  2  0  0  0  0
  1 14  1  0  0  0  0
  2  3  2  0  0  0  0
  2 13  1  0  0  0  0
  3  4  1  0  0  0  0
  3 19  1  0  0  0  0
  4  5  2  0  0  0  0
  4 20  1  0  0  0  0
  5  6  1  0  0  0  0
  5 21  1  0  0  0  0
  6 22  1  0  0  0  0
  7  8  1  0  0  0  0
  7 12  2  0  0  0  0
  7 15  1  0  0  0  0
  8  9  2  0  0  0  0
  8 23  1  0  0  0  0
  9 10  1  0  0  0  0
  9 24  1  0  0  0  0
 10 11  2  0  0  0  0
 10 18  1  0  0  0  0
 11 12  1  0  0  0  0
 11 25  1  0  0  0  0
 12 26  1  0  0  0  0
 13 16  2  0  0  0  0
 13 17  1  0  0  0  0
 14 15  2  0  0  0  0
 17 27  1  0  0  0  0
 18 28  1  0  0  0  0
M  END
>  <DRUGBANK_ID>
DB07880

>  <COMMON_NAME>
2-((4'-HYDROXYPHENYL)-AZO)BENZOIC ACID

$$$$
