428
 OpenBabel10282417072D

 33 33  0  0  1  0  0  0  0  0999 V2000
    4.2365   -1.1880    0.0000 O   0  0  0  0  0  0  0  0  0  0  0  0
    2.0930    0.0495    0.0000 O   0  0  0  0  0  0  0  0  0  0  0  0
    2.0930   -1.6005    0.0000 O   0  0  0  0  0  0  0  0  0  0  0  0
    4.9509    0.0495    0.0000 O   0  0  0  0  0  0  0  0  0  0  0  0
    4.2365   -2.8381    0.0000 O   0  0  0  0  0  0  0  0  0  0  0  0
    4.9509    0.8745    0.0000 O   0  0  0  0  0  0  0  0  0  0  0  0
    4.9509    3.3496    0.0000 O   0  0  0  0  0  0  0  0  0  0  0  0
    3.5220    0.8745    0.0000 N   0  0  0  0  0  0  0  0  0  0  0  0
    4.2365    2.1120    0.0000 N   0  0  0  0  0  0  0  0  0  0  0  0
    4.9509    2.5246    0.0000 N   0  0  0  0  0  0  0  0  0  0  0  0
    2.8075   -0.3630    0.0000 C   0  0  2  0  0  0  0  0  0  0  0  0
    3.5220    0.0495    0.0000 C   0  0  2  0  0  0  0  0  0  0  0  0
    2.8075   -1.1880    0.0000 C   0  0  1  0  0  0  0  0  0  0  0  0
    3.5220   -1.6005    0.0000 C   0  0  1  0  0  0  0  0  0  0  0  0
    4.2365   -0.3630    0.0000 C   0  0  2  0  0  0  0  0  0  0  0  0
    3.5220   -2.4256    0.0000 C   0  0  0  0  0  0  0  0  0  0  0  0
    4.2365    1.2870    0.0000 C   0  0  0  0  0  0  0  0  0  0  0  0
    3.5220    2.5246    0.0000 C   0  0  0  0  0  0  0  0  0  0  0  0
    2.0930    1.0195    0.0000 H   0  0  0  0  0  0  0  0  0  0  0  0
    1.2530   -1.1155    0.0000 H   0  0  0  0  0  0  0  0  0  0  0  0
    5.7910   -0.4355    0.0000 H   0  0  0  0  0  0  0  0  0  0  0  0
    4.2365   -3.8081    0.0000 H   0  0  0  0  0  0  0  0  0  0  0  0
    2.6694    1.3668    0.0000 H   0  0  0  0  0  0  0  0  0  0  0  0
    2.8075    0.7070    0.0000 H   0  0  0  0  0  0  0  0  0  0  0  0
    2.5954    0.5845    0.0000 H   0  0  0  0  0  0  0  0  0  0  0  0
    1.8809   -0.6530    0.0000 H   0  0  0  0  0  0  0  0  0  0  0  0
    4.4486   -2.1355    0.0000 H   0  0  0  0  0  0  0  0  0  0  0  0
    5.1632   -0.8980    0.0000 H   0  0  0  0  0  0  0  0  0  0  0  0
    2.5954   -2.9606    0.0000 H   0  0  0  0  0  0  0  0  0  0  0  0
    2.5954   -1.8906    0.0000 H   0  0  0  0  0  0  0  0  0  0  0  0
    3.5221    3.5946    0.0000 H   0  0  0  0  0  0  0  0  0  0  0  0
    2.5953    1.9897    0.0000 H   0  0  0  0  0  0  0  0  0  0  0  0
    2.5954    3.0597    0.0000 H   0  0  0  0  0  0  0  0  0  0  0  0
  1 14  1  0  0  0  0
  1 15  1  0  0  0  0
  2 19  1  0  0  0  0
  3 20  1  0  0  0  0
  4 21  1  0  0  0  0
  5 16  1  0  0  0  0
  5 22  1  0  0  0  0
  6 17  2  0  0  0  0
  7 10  2  0  0  0  0
  8 17  1  0  0  0  0
  8 23  1  0  0  0  0
  9 10  1  0  0  0  0
  9 17  1  0  0  0  0
  9 18  1  0  0  0  0
 11  2  1  0  0  0  0
 11 12  1  0  0  0  0
 11 13  1  0  0  0  0
 11 24  1  1  0  0  0
 12  8  1  0  0  0  0
 12 15  1  0  0  0  0
 12 25  1  6  0  0  0
 13  3  1  0  0  0  0
 13 14  1  0  0  0  0
 13 26  1  6  0  0  0
 14 16  1  0  0  0  0
 14 27  1  1  0  0  0
 15  4  1  0  0  0  0
 15 28  1  6  0  0  0
 16 29  1  0  0  0  0
 16 30  1  0  0  0  0
 18 31  1  0  0  0  0
 18 32  1  0  0  0  0
 18 33  1  0  0  0  0
M  END
>  <DRUGBANK_ID>
DB00428

>  <SECONDARY_ACCESSION_NUMBERS>
APRD00209

>  <COMMON_NAME>
Streptozocin

>  <CAS_NUMBER>
66395-18-4

>  <UNII>
8H27GUR065

>  <SYNONYMS>
2-Deoxy-2-(((methylnitrosoamino)carbonyl)amino)-D-glucopyranose; 2-Deoxy-2-(3-methyl-3-nitrosoureido)-D-glucopyranose; Estreptozocina; N-D-Glucosyl-(2)-N'-nitrosomethylharnstoff; N-D-Glucosyl-(2)-N'-nitrosomethylurea; Streptozocin; Streptozocine; Streptozocinium; Streptozocinum; Streptozotocin

$$$$
