5HE
 OpenBabel10282417072D

 53 52  0  0  0  0  0  0  0  0999 V2000
    0.0043   -0.0440    0.0000 C   0  0  0  0  0  0  0  0  0  0  0  0
    0.7188   -0.4565    0.0000 C   0  0  0  0  0  0  0  0  0  0  0  0
    1.4332   -0.0440    0.0000 C   0  0  0  0  0  0  0  0  0  0  0  0
    1.4332    0.7810    0.0000 C   0  0  0  0  0  0  0  0  0  0  0  0
    0.7188    1.1935    0.0000 C   0  0  0  0  0  0  0  0  0  0  0  0
    0.7188    2.0185    0.0000 C   0  0  0  0  0  0  0  0  0  0  0  0
    0.0043    2.4310    0.0000 C   0  0  0  0  0  0  0  0  0  0  0  0
   -0.7102    2.0185    0.0000 C   0  0  0  0  0  0  0  0  0  0  0  0
   -1.4247    2.4310    0.0000 C   0  0  0  0  0  0  0  0  0  0  0  0
   -2.1391    2.0185    0.0000 C   0  0  0  0  0  0  0  0  0  0  0  0
   -2.1391    1.1935    0.0000 C   0  0  0  0  0  0  0  0  0  0  0  0
   -2.8536    0.7810    0.0000 C   0  0  0  0  0  0  0  0  0  0  0  0
   -2.8536   -0.0440    0.0000 C   0  0  0  0  0  0  0  0  0  0  0  0
   -2.1391   -0.4565    0.0000 C   0  0  0  0  0  0  0  0  0  0  0  0
   -2.1391   -1.2815    0.0000 C   0  0  0  0  0  0  0  0  0  0  0  0
   -1.4247   -1.6940    0.0000 C   0  0  1  0  0  0  0  0  0  0  0  0
   -0.7102   -1.2815    0.0000 C   0  0  0  0  0  0  0  0  0  0  0  0
    0.0043   -1.6940    0.0000 C   0  0  0  0  0  0  0  0  0  0  0  0
    0.7188   -1.2815    0.0000 C   0  0  0  0  0  0  0  0  0  0  0  0
    1.4332   -1.6940    0.0000 C   0  0  0  0  0  0  0  0  0  0  0  0
    2.1477   -1.2815    0.0000 O   0  0  0  0  0  0  0  0  0  0  0  0
    1.4332   -2.5190    0.0000 O   0  0  0  0  0  0  0  0  0  0  0  0
   -1.4247   -2.5190    0.0000 O   0  0  0  0  0  0  0  0  0  0  0  0
   -1.4247   -1.1100    0.0000 H   0  0  0  0  0  0  0  0  0  0  0  0
    0.0043    1.0260    0.0000 H   0  0  0  0  0  0  0  0  0  0  0  0
   -0.9223   -0.5790    0.0000 H   0  0  0  0  0  0  0  0  0  0  0  0
   -0.9224    0.4910    0.0000 H   0  0  0  0  0  0  0  0  0  0  0  0
    0.7188   -1.5265    0.0000 H   0  0  0  0  0  0  0  0  0  0  0  0
    1.6455   -0.9915    0.0000 H   0  0  0  0  0  0  0  0  0  0  0  0
    2.3269   -0.5600    0.0000 H   0  0  0  0  0  0  0  0  0  0  0  0
    2.3269    1.2970    0.0000 H   0  0  0  0  0  0  0  0  0  0  0  0
   -0.2079    0.6585    0.0000 H   0  0  0  0  0  0  0  0  0  0  0  0
   -0.2078    1.7285    0.0000 H   0  0  0  0  0  0  0  0  0  0  0  0
    1.6125    2.5345    0.0000 H   0  0  0  0  0  0  0  0  0  0  0  0
    0.0043    3.4630    0.0000 H   0  0  0  0  0  0  0  0  0  0  0  0
   -0.7102    0.9485    0.0000 H   0  0  0  0  0  0  0  0  0  0  0  0
   -1.6368    1.4835    0.0000 H   0  0  0  0  0  0  0  0  0  0  0  0
   -1.4247    3.4630    0.0000 H   0  0  0  0  0  0  0  0  0  0  0  0
   -3.0328    2.5345    0.0000 H   0  0  0  0  0  0  0  0  0  0  0  0
   -1.2125    0.6585    0.0000 H   0  0  0  0  0  0  0  0  0  0  0  0
   -2.1391    0.1235    0.0000 H   0  0  0  0  0  0  0  0  0  0  0  0
   -3.7473    1.2970    0.0000 H   0  0  0  0  0  0  0  0  0  0  0  0
   -3.7473   -0.5600    0.0000 H   0  0  0  0  0  0  0  0  0  0  0  0
   -1.2454    0.0595    0.0000 H   0  0  0  0  0  0  0  0  0  0  0  0
   -3.0328   -1.7975    0.0000 H   0  0  0  0  0  0  0  0  0  0  0  0
   -0.7102   -0.2115    0.0000 H   0  0  0  0  0  0  0  0  0  0  0  0
    0.2164   -0.7465    0.0000 H   0  0  0  0  0  0  0  0  0  0  0  0
    0.0043   -2.7640    0.0000 H   0  0  0  0  0  0  0  0  0  0  0  0
    0.9309   -2.2290    0.0000 H   0  0  0  0  0  0  0  0  0  0  0  0
    0.7188   -0.2115    0.0000 H   0  0  0  0  0  0  0  0  0  0  0  0
    1.6455   -0.7465    0.0000 H   0  0  0  0  0  0  0  0  0  0  0  0
    2.9592   -1.7500    0.0000 H   0  0  0  0  0  0  0  0  0  0  0  0
   -2.2647   -3.0040    0.0000 H   0  0  0  0  0  0  0  0  0  0  0  0
  1  2  1  0  0  0  0
  1 25  1  0  0  0  0
  1 26  1  0  0  0  0
  1 27  1  0  0  0  0
  2  3  1  0  0  0  0
  2 28  1  0  0  0  0
  2 29  1  0  0  0  0
  3  4  2  0  0  0  0
  3 30  1  0  0  0  0
  4  5  1  0  0  0  0
  4 31  1  0  0  0  0
  5  6  1  0  0  0  0
  5 32  1  0  0  0  0
  5 33  1  0  0  0  0
  6  7  2  0  0  0  0
  6 34  1  0  0  0  0
  7  8  1  0  0  0  0
  7 35  1  0  0  0  0
  8  9  1  0  0  0  0
  8 36  1  0  0  0  0
  8 37  1  0  0  0  0
  9 10  2  0  0  0  0
  9 38  1  0  0  0  0
 10 11  1  0  0  0  0
 10 39  1  0  0  0  0
 11 12  1  0  0  0  0
 11 40  1  0  0  0  0
 11 41  1  0  0  0  0
 12 13  2  0  0  0  0
 12 42  1  0  0  0  0
 13 14  1  0  0  0  0
 13 43  1  0  0  0  0
 14 15  2  0  0  0  0
 14 44  1  0  0  0  0
 15 16  1  0  0  0  0
 15 45  1  0  0  0  0
 16 17  1  0  0  0  0
 16 23  1  0  0  0  0
 16 24  1  6  0  0  0
 17 18  1  0  0  0  0
 17 46  1  0  0  0  0
 17 47  1  0  0  0  0
 18 19  1  0  0  0  0
 18 48  1  0  0  0  0
 18 49  1  0  0  0  0
 19 20  1  0  0  0  0
 19 50  1  0  0  0  0
 19 51  1  0  0  0  0
 20 21  1  0  0  0  0
 20 22  2  0  0  0  0
 21 52  1  0  0  0  0
 23 53  1  0  0  0  0
M  END
>  <DRUGBANK_ID>
DB07172

>  <COMMON_NAME>
(5R,6E,8Z,11Z,14Z,17Z)-5-hydroxyicosa-6,8,11,14,17-pentaenoic acid

$$$$
