
 OpenBabel10282417072D

 45 47  0  0  1  0  0  0  0  0999 V2000
    6.2398   -1.7185    0.0000 C   0  0  0  0  0  0  0  0  0  0  0  0
    5.6877   -2.3316    0.0000 C   0  0  1  0  0  0  0  0  0  0  0  0
    5.0203   -2.8165    0.0000 C   0  0  0  0  0  0  0  0  0  0  0  0
    4.2357   -2.5616    0.0000 O   0  0  0  0  0  0  0  0  0  0  0  0
    5.2752   -3.6012    0.0000 N   0  0  0  0  0  0  0  0  0  0  0  0
    6.1002   -3.6012    0.0000 C   0  0  0  0  0  0  0  0  0  0  0  0
    6.5852   -4.2686    0.0000 O   0  0  0  0  0  0  0  0  0  0  0  0
    6.3552   -2.8165    0.0000 N   0  0  0  0  0  0  0  0  0  0  0  0
    5.1357   -1.7185    0.0000 C   0  0  0  0  0  0  0  0  0  0  0  0
    5.3907   -0.9339    0.0000 S   0  0  0  0  0  0  0  0  0  0  0  0
    6.1753   -1.1888    0.0000 O   0  0  0  0  0  0  0  0  0  0  0  0
    4.6060   -0.6790    0.0000 O   0  0  0  0  0  0  0  0  0  0  0  0
    5.6456   -0.1493    0.0000 N   0  0  0  0  0  0  0  0  0  0  0  0
    5.0936    0.4638    0.0000 C   0  0  0  0  0  0  0  0  0  0  0  0
    5.3485    1.2484    0.0000 C   0  0  0  0  0  0  0  0  0  0  0  0
    6.1555    1.4200    0.0000 C   0  0  3  0  0  0  0  0  0  0  0  0
    6.7075    0.8069    0.0000 C   0  0  0  0  0  0  0  0  0  0  0  0
    6.4526    0.0222    0.0000 C   0  0  0  0  0  0  0  0  0  0  0  0
    6.4104    2.2046    0.0000 O   0  0  0  0  0  0  0  0  0  0  0  0
    7.2174    2.3761    0.0000 C   0  0  0  0  0  0  0  0  0  0  0  0
    7.4723    3.1607    0.0000 C   0  0  0  0  0  0  0  0  0  0  0  0
    8.2793    3.3323    0.0000 C   0  0  0  0  0  0  0  0  0  0  0  0
    8.8313    2.7192    0.0000 C   0  0  0  0  0  0  0  0  0  0  0  0
    8.5764    1.9345    0.0000 C   0  0  0  0  0  0  0  0  0  0  0  0
    7.7694    1.7630    0.0000 N   0  0  0  0  0  0  0  0  0  0  0  0
    9.6383    2.8907    0.0000 Cl  0  0  0  0  0  0  0  0  0  0  0  0
    7.2864   -1.9410    0.0000 H   0  0  0  0  0  0  0  0  0  0  0  0
    5.9092   -0.7009    0.0000 H   0  0  0  0  0  0  0  0  0  0  0  0
    6.9558   -0.9234    0.0000 H   0  0  0  0  0  0  0  0  0  0  0  0
    4.6965   -4.3977    0.0000 H   0  0  0  0  0  0  0  0  0  0  0  0
    7.2915   -2.5123    0.0000 H   0  0  0  0  0  0  0  0  0  0  0  0
    4.0891   -1.9409    0.0000 H   0  0  0  0  0  0  0  0  0  0  0  0
    4.4198   -0.9233    0.0000 H   0  0  0  0  0  0  0  0  0  0  0  0
    4.0470    0.2413    0.0000 H   0  0  0  0  0  0  0  0  0  0  0  0
    4.3776    1.2590    0.0000 H   0  0  0  0  0  0  0  0  0  0  0  0
    4.6325    2.0435    0.0000 H   0  0  0  0  0  0  0  0  0  0  0  0
    5.6791    2.2661    0.0000 H   0  0  0  0  0  0  0  0  0  0  0  0
    5.8249    0.4024    0.0000 H   0  0  0  0  0  0  0  0  0  0  0  0
    7.7541    1.0294    0.0000 H   0  0  0  0  0  0  0  0  0  0  0  0
    7.4235    0.0118    0.0000 H   0  0  0  0  0  0  0  0  0  0  0  0
    7.1686   -0.7730    0.0000 H   0  0  0  0  0  0  0  0  0  0  0  0
    6.1219   -0.9954    0.0000 H   0  0  0  0  0  0  0  0  0  0  0  0
    6.7817    3.9276    0.0000 H   0  0  0  0  0  0  0  0  0  0  0  0
    8.5982    4.3138    0.0000 H   0  0  0  0  0  0  0  0  0  0  0  0
    9.2670    1.1676    0.0000 H   0  0  0  0  0  0  0  0  0  0  0  0
  1 27  1  0  0  0  0
  1 28  1  0  0  0  0
  1 29  1  0  0  0  0
  2  1  1  6  0  0  0
  2  3  1  0  0  0  0
  2  8  1  0  0  0  0
  2  9  1  0  0  0  0
  3  4  2  0  0  0  0
  3  5  1  0  0  0  0
  5  6  1  0  0  0  0
  5 30  1  0  0  0  0
  6  7  2  0  0  0  0
  6  8  1  0  0  0  0
  8 31  1  0  0  0  0
  9 10  1  0  0  0  0
  9 32  1  0  0  0  0
  9 33  1  0  0  0  0
 10 11  2  0  0  0  0
 10 12  2  0  0  0  0
 10 13  1  0  0  0  0
 13 14  1  0  0  0  0
 13 18  1  0  0  0  0
 14 15  1  0  0  0  0
 14 34  1  0  0  0  0
 14 35  1  0  0  0  0
 15 16  1  0  0  0  0
 15 36  1  0  0  0  0
 15 37  1  0  0  0  0
 16 17  1  0  0  0  0
 16 19  1  0  0  0  0
 16 38  1  0  0  0  0
 17 18  1  0  0  0  0
 17 39  1  0  0  0  0
 17 40  1  0  0  0  0
 18 41  1  0  0  0  0
 18 42  1  0  0  0  0
 19 20  1  0  0  0  0
 20 21  2  0  0  0  0
 20 25  1  0  0  0  0
 21 22  1  0  0  0  0
 21 43  1  0  0  0  0
 22 23  2  0  0  0  0
 22 44  1  0  0  0  0
 23 24  1  0  0  0  0
 23 26  1  0  0  0  0
 24 25  2  0  0  0  0
 24 45  1  0  0  0  0
M  END
>  <DRUGBANK_ID>
DB11961

>  <COMMON_NAME>
AZD-1236

>  <CAS_NUMBER>
459814-89-2

>  <UNII>
B4OQY51WZS

$$$$
