
 OpenBabel10282417072D

 56 60  0  0  1  0  0  0  0  0999 V2000
    2.0307    1.7357    0.0000 C   0  0  0  0  0  0  0  0  0  0  0  0
    9.9799   -1.0895    0.0000 C   0  0  0  0  0  0  0  0  0  0  0  0
    9.6996   -0.3136    0.0000 C   0  0  0  0  0  0  0  0  0  0  0  0
    9.4481   -1.7202    0.0000 C   0  0  0  0  0  0  0  0  0  0  0  0
    8.8875   -0.1684    0.0000 C   0  0  0  0  0  0  0  0  0  0  0  0
    8.6360   -1.5750    0.0000 C   0  0  0  0  0  0  0  0  0  0  0  0
    4.5754   -0.8489    0.0000 C   0  0  0  0  0  0  0  0  0  0  0  0
    6.1708    1.0432    0.0000 C   0  0  0  0  0  0  0  0  0  0  0  0
    3.7633   -0.7037    0.0000 C   0  0  0  0  0  0  0  0  0  0  0  0
    5.3587    1.1884    0.0000 C   0  0  0  0  0  0  0  0  0  0  0  0
    2.0195   -0.2889    0.0000 C   0  0  0  0  0  0  0  0  0  0  0  0
    1.3367    0.1741    0.0000 C   0  0  0  0  0  0  0  0  0  0  0  0
    3.7345    1.4789    0.0000 C   0  0  0  0  0  0  0  0  0  0  0  0
    2.9224    1.6241    0.0000 C   0  0  0  0  0  0  0  0  0  0  0  0
    5.9193   -0.3634    0.0000 C   0  0  0  0  0  0  0  0  0  0  0  0
    8.3557   -0.7991    0.0000 C   0  0  0  0  0  0  0  0  0  0  0  0
    5.1072   -0.2182    0.0000 C   0  0  0  0  0  0  0  0  0  0  0  0
    6.4511    0.2673    0.0000 C   0  0  0  0  0  0  0  0  0  0  0  0
    4.8269    0.5577    0.0000 C   0  0  0  0  0  0  0  0  0  0  0  0
    4.0148    0.7029    0.0000 C   0  0  2  0  0  0  0  0  0  0  0  0
    3.4830    0.0722    0.0000 C   0  0  2  0  0  0  0  0  0  0  0  0
    2.6708    0.2174    0.0000 C   0  0  1  0  0  0  0  0  0  0  0  0
    1.5660    0.9666    0.0000 C   0  0  1  0  0  0  0  0  0  0  0  0
    7.5435   -0.6539    0.0000 C   0  0  0  0  0  0  0  0  0  0  0  0
    2.3905    0.9934    0.0000 C   0  0  2  0  0  0  0  0  0  0  0  0
    1.0596    1.6179    0.0000 O   0  0  0  0  0  0  0  0  0  0  0  0
    7.0117   -1.2846    0.0000 O   0  0  0  0  0  0  0  0  0  0  0  0
    7.2632    0.1221    0.0000 O   0  0  0  0  0  0  0  0  0  0  0  0
    4.5466    1.3336    0.0000 H   0  0  0  0  0  0  0  0  0  0  0  0
    3.1989   -0.7023    0.0000 H   0  0  0  0  0  0  0  0  0  0  0  0
    2.5826   -0.6028    0.0000 H   0  0  0  0  0  0  0  0  0  0  0  0
    0.7557    0.8111    0.0000 H   0  0  0  0  0  0  0  0  0  0  0  0
    2.6312    2.6213    0.0000 H   0  0  0  0  0  0  0  0  0  0  0  0
    0.9635    1.8129    0.0000 H   0  0  0  0  0  0  0  0  0  0  0  0
    1.5640    2.6986    0.0000 H   0  0  0  0  0  0  0  0  0  0  0  0
   10.9958   -1.2711    0.0000 H   0  0  0  0  0  0  0  0  0  0  0  0
   10.3648    0.4754    0.0000 H   0  0  0  0  0  0  0  0  0  0  0  0
    9.7987   -2.6908    0.0000 H   0  0  0  0  0  0  0  0  0  0  0  0
    8.5369    0.8022    0.0000 H   0  0  0  0  0  0  0  0  0  0  0  0
    7.9708   -2.3640    0.0000 H   0  0  0  0  0  0  0  0  0  0  0  0
    4.9390   -1.8552    0.0000 H   0  0  0  0  0  0  0  0  0  0  0  0
    5.6287   -1.0372    0.0000 H   0  0  0  0  0  0  0  0  0  0  0  0
    6.8360    1.8322    0.0000 H   0  0  0  0  0  0  0  0  0  0  0  0
    3.0736   -1.5217    0.0000 H   0  0  0  0  0  0  0  0  0  0  0  0
    2.7100   -0.5154    0.0000 H   0  0  0  0  0  0  0  0  0  0  0  0
    5.0081    2.1590    0.0000 H   0  0  0  0  0  0  0  0  0  0  0  0
    2.0542   -1.3583    0.0000 H   0  0  0  0  0  0  0  0  0  0  0  0
    2.9881   -0.7435    0.0000 H   0  0  0  0  0  0  0  0  0  0  0  0
    0.3303   -0.1894    0.0000 H   0  0  0  0  0  0  0  0  0  0  0  0
    0.5559    0.9057    0.0000 H   0  0  0  0  0  0  0  0  0  0  0  0
    4.4243    2.2969    0.0000 H   0  0  0  0  0  0  0  0  0  0  0  0
    4.7878    1.2905    0.0000 H   0  0  0  0  0  0  0  0  0  0  0  0
    2.5589    2.6305    0.0000 H   0  0  0  0  0  0  0  0  0  0  0  0
    1.8691    1.8125    0.0000 H   0  0  0  0  0  0  0  0  0  0  0  0
    6.2699   -1.3340    0.0000 H   0  0  0  0  0  0  0  0  0  0  0  0
    1.4251    2.5164    0.0000 H   0  0  0  0  0  0  0  0  0  0  0  0
  1 33  1  0  0  0  0
  1 34  1  0  0  0  0
  1 35  1  0  0  0  0
  2 36  1  0  0  0  0
  3  2  2  0  0  0  0
  3 37  1  0  0  0  0
  4  2  1  0  0  0  0
  4 38  1  0  0  0  0
  5  3  1  0  0  0  0
  5 39  1  0  0  0  0
  6  4  2  0  0  0  0
  6 40  1  0  0  0  0
  7 41  1  0  0  0  0
  7 42  1  0  0  0  0
  8 43  1  0  0  0  0
  9  7  1  0  0  0  0
  9 44  1  0  0  0  0
  9 45  1  0  0  0  0
 10  8  1  0  0  0  0
 10 46  1  0  0  0  0
 11 47  1  0  0  0  0
 11 48  1  0  0  0  0
 12 11  1  0  0  0  0
 12 49  1  0  0  0  0
 12 50  1  0  0  0  0
 13 51  1  0  0  0  0
 13 52  1  0  0  0  0
 14 13  1  0  0  0  0
 14 53  1  0  0  0  0
 14 54  1  0  0  0  0
 15 55  1  0  0  0  0
 16  5  2  0  0  0  0
 16  6  1  0  0  0  0
 17  7  1  0  0  0  0
 17 15  2  0  0  0  0
 18  8  2  0  0  0  0
 18 15  1  0  0  0  0
 19 10  2  0  0  0  0
 19 17  1  0  0  0  0
 20 13  1  0  0  0  0
 20 19  1  0  0  0  0
 20 29  1  1  0  0  0
 21  9  1  0  0  0  0
 21 20  1  0  0  0  0
 21 30  1  6  0  0  0
 22 11  1  0  0  0  0
 22 21  1  0  0  0  0
 22 31  1  1  0  0  0
 23 12  1  0  0  0  0
 23 26  1  0  0  0  0
 23 32  1  1  0  0  0
 24 16  1  0  0  0  0
 25  1  1  6  0  0  0
 25 14  1  0  0  0  0
 25 22  1  0  0  0  0
 25 23  1  0  0  0  0
 26 56  1  0  0  0  0
 27 24  2  0  0  0  0
 28 18  1  0  0  0  0
 28 24  1  0  0  0  0
M  END
>  <DRUGBANK_ID>
DB13953

>  <SECONDARY_ACCESSION_NUMBERS>
DBSALT000066

>  <COMMON_NAME>
Estradiol benzoate

>  <CAS_NUMBER>
50-50-0

>  <UNII>
1S4CJB5ZGN

>  <SYNONYMS>
benzoato de estradiol; Estradiol benzoate

$$$$
