
 OpenBabel10282417072D

 66 71  0  0  0  0  0  0  0  0999 V2000
    5.6154   -6.6379    0.0000 C   0  0  0  0  0  0  0  0  0  0  0  0
    5.3048   -5.8736    0.0000 N   0  0  0  0  0  0  0  0  0  0  0  0
    4.4876   -5.7605    0.0000 C   0  0  0  0  0  0  0  0  0  0  0  0
    4.1769   -4.9962    0.0000 C   0  0  0  0  0  0  0  0  0  0  0  0
    4.6835   -4.3450    0.0000 C   0  0  0  0  0  0  0  0  0  0  0  0
    5.5007   -4.4581    0.0000 C   0  0  0  0  0  0  0  0  0  0  0  0
    5.8113   -5.2224    0.0000 C   0  0  0  0  0  0  0  0  0  0  0  0
    4.3728   -3.5808    0.0000 C   0  0  0  0  0  0  0  0  0  0  0  0
    3.5556   -3.4677    0.0000 C   0  0  0  0  0  0  0  0  0  0  0  0
    3.2449   -2.7034    0.0000 C   0  0  0  0  0  0  0  0  0  0  0  0
    3.7515   -2.0522    0.0000 C   0  0  0  0  0  0  0  0  0  0  0  0
    3.4409   -1.2879    0.0000 N   0  0  0  0  0  0  0  0  0  0  0  0
    2.6236   -1.1748    0.0000 C   0  0  0  0  0  0  0  0  0  0  0  0
    2.1171   -1.8260    0.0000 N   0  0  0  0  0  0  0  0  0  0  0  0
    1.2999   -1.7129    0.0000 C   0  0  0  0  0  0  0  0  0  0  0  0
    0.9892   -0.9486    0.0000 C   0  0  0  0  0  0  0  0  0  0  0  0
    0.1720   -0.8355    0.0000 F   0  0  0  0  0  0  0  0  0  0  0  0
    1.4958   -0.2974    0.0000 C   0  0  0  0  0  0  0  0  0  0  0  0
    2.3130   -0.4105    0.0000 N   0  0  0  0  0  0  0  0  0  0  0  0
    1.1851    0.4668    0.0000 C   0  0  0  0  0  0  0  0  0  0  0  0
    0.3679    0.5800    0.0000 C   0  0  0  0  0  0  0  0  0  0  0  0
    0.0573    1.3442    0.0000 C   0  0  0  0  0  0  0  0  0  0  0  0
    0.5638    1.9954    0.0000 C   0  0  0  0  0  0  0  0  0  0  0  0
    0.1011    2.6784    0.0000 N   0  0  0  0  0  0  0  0  0  0  0  0
   -0.6915    2.4493    0.0000 C   0  0  0  0  0  0  0  0  0  0  0  0
   -1.3427    2.9559    0.0000 C   0  0  0  0  0  0  0  0  0  0  0  0
   -0.7186    1.6248    0.0000 C   0  0  0  0  0  0  0  0  0  0  0  0
   -0.7456    0.8002    0.0000 C   0  0  0  0  0  0  0  0  0  0  0  0
   -1.5382    0.5712    0.0000 C   0  0  0  0  0  0  0  0  0  0  0  0
   -2.0010    1.2541    0.0000 C   0  0  0  0  0  0  0  0  0  0  0  0
   -1.4944    1.9053    0.0000 C   0  0  0  0  0  0  0  0  0  0  0  0
    1.3810    1.8823    0.0000 C   0  0  0  0  0  0  0  0  0  0  0  0
    1.8876    2.5335    0.0000 F   0  0  0  0  0  0  0  0  0  0  0  0
    1.6917    1.1180    0.0000 C   0  0  0  0  0  0  0  0  0  0  0  0
    4.5687   -2.1653    0.0000 N   0  0  0  0  0  0  0  0  0  0  0  0
    4.8794   -2.9296    0.0000 C   0  0  0  0  0  0  0  0  0  0  0  0
    4.9584   -7.4824    0.0000 H   0  0  0  0  0  0  0  0  0  0  0  0
    6.6753   -6.7847    0.0000 H   0  0  0  0  0  0  0  0  0  0  0  0
    6.0182   -7.6292    0.0000 H   0  0  0  0  0  0  0  0  0  0  0  0
    3.8306   -6.6051    0.0000 H   0  0  0  0  0  0  0  0  0  0  0  0
    3.4277   -5.6138    0.0000 H   0  0  0  0  0  0  0  0  0  0  0  0
    3.1170   -4.8495    0.0000 H   0  0  0  0  0  0  0  0  0  0  0  0
    3.7740   -4.0050    0.0000 H   0  0  0  0  0  0  0  0  0  0  0  0
    5.3404   -3.5004    0.0000 H   0  0  0  0  0  0  0  0  0  0  0  0
    6.1577   -3.6136    0.0000 H   0  0  0  0  0  0  0  0  0  0  0  0
    6.5606   -4.6048    0.0000 H   0  0  0  0  0  0  0  0  0  0  0  0
    6.8712   -5.3691    0.0000 H   0  0  0  0  0  0  0  0  0  0  0  0
    6.2142   -6.2136    0.0000 H   0  0  0  0  0  0  0  0  0  0  0  0
    2.9220   -4.2823    0.0000 H   0  0  0  0  0  0  0  0  0  0  0  0
    2.2226   -2.5619    0.0000 H   0  0  0  0  0  0  0  0  0  0  0  0
    4.0454   -0.5108    0.0000 H   0  0  0  0  0  0  0  0  0  0  0  0
    0.6663   -2.5275    0.0000 H   0  0  0  0  0  0  0  0  0  0  0  0
   -0.2658   -0.2345    0.0000 H   0  0  0  0  0  0  0  0  0  0  0  0
   -1.1960    4.0158    0.0000 H   0  0  0  0  0  0  0  0  0  0  0  0
   -2.3340    2.5530    0.0000 H   0  0  0  0  0  0  0  0  0  0  0  0
   -2.1872    3.6129    0.0000 H   0  0  0  0  0  0  0  0  0  0  0  0
    0.0989    0.1432    0.0000 H   0  0  0  0  0  0  0  0  0  0  0  0
   -0.9476   -0.2506    0.0000 H   0  0  0  0  0  0  0  0  0  0  0  0
   -1.9020   -0.4350    0.0000 H   0  0  0  0  0  0  0  0  0  0  0  0
   -2.5999    0.4385    0.0000 H   0  0  0  0  0  0  0  0  0  0  0  0
   -3.0704    1.2892    0.0000 H   0  0  0  0  0  0  0  0  0  0  0  0
   -2.4552    2.2229    0.0000 H   0  0  0  0  0  0  0  0  0  0  0  0
   -1.7915    2.9332    0.0000 H   0  0  0  0  0  0  0  0  0  0  0  0
   -0.7134    2.6367    0.0000 H   0  0  0  0  0  0  0  0  0  0  0  0
    2.7140    0.9765    0.0000 H   0  0  0  0  0  0  0  0  0  0  0  0
    5.9017   -3.0711    0.0000 H   0  0  0  0  0  0  0  0  0  0  0  0
  1  2  1  0  0  0  0
  1 37  1  0  0  0  0
  1 38  1  0  0  0  0
  1 39  1  0  0  0  0
  2  3  1  0  0  0  0
  2  7  1  0  0  0  0
  3  4  1  0  0  0  0
  3 40  1  0  0  0  0
  3 41  1  0  0  0  0
  4  5  1  0  0  0  0
  4 42  1  0  0  0  0
  4 43  1  0  0  0  0
  5  6  1  0  0  0  0
  5  8  1  0  0  0  0
  5 44  1  0  0  0  0
  6  7  1  0  0  0  0
  6 45  1  0  0  0  0
  6 46  1  0  0  0  0
  7 47  1  0  0  0  0
  7 48  1  0  0  0  0
  8  9  2  0  0  0  0
  8 36  1  0  0  0  0
  9 10  1  0  0  0  0
  9 49  1  0  0  0  0
 10 11  2  0  0  0  0
 10 50  1  0  0  0  0
 11 12  1  0  0  0  0
 11 35  1  0  0  0  0
 12 13  1  0  0  0  0
 12 51  1  0  0  0  0
 13 14  2  0  0  0  0
 13 19  1  0  0  0  0
 14 15  1  0  0  0  0
 15 16  2  0  0  0  0
 15 52  1  0  0  0  0
 16 17  1  0  0  0  0
 16 18  1  0  0  0  0
 18 19  2  0  0  0  0
 18 20  1  0  0  0  0
 20 21  2  0  0  0  0
 20 34  1  0  0  0  0
 21 22  1  0  0  0  0
 21 53  1  0  0  0  0
 22 23  2  0  0  0  0
 22 27  1  0  0  0  0
 23 24  1  0  0  0  0
 23 32  1  0  0  0  0
 24 25  2  0  0  0  0
 25 26  1  0  0  0  0
 25 27  1  0  0  0  0
 26 54  1  0  0  0  0
 26 55  1  0  0  0  0
 26 56  1  0  0  0  0
 27 28  1  0  0  0  0
 27 31  1  0  0  0  0
 28 29  1  0  0  0  0
 28 57  1  0  0  0  0
 28 58  1  0  0  0  0
 29 30  1  0  0  0  0
 29 59  1  0  0  0  0
 29 60  1  0  0  0  0
 30 31  1  0  0  0  0
 30 61  1  0  0  0  0
 30 62  1  0  0  0  0
 31 63  1  0  0  0  0
 31 64  1  0  0  0  0
 32 33  1  0  0  0  0
 32 34  2  0  0  0  0
 34 65  1  0  0  0  0
 35 36  2  0  0  0  0
 36 66  1  0  0  0  0
M  END
>  <DRUGBANK_ID>
DB18081

>  <COMMON_NAME>
Crozbaciclib

>  <CAS_NUMBER>
2099128-41-1

>  <UNII>
5Y2Z8AH65E

>  <SYNONYMS>
2-PYRIMIDINAMINE, 5-FLUORO-4-(7'-FLUORO-2'-METHYLSPIRO(CYCLOPENTANE-1,3'-(3H)INDOL)-5'-YL)-N-(5-(1-METHYL-4-PIPERIDINYL)-2-PYRIDINYL)-; 5-fluoro-4-(7'-fluoro-2'-methylspiro[cyclopentane-1,3'- indol]-5'-yl)-N-[5-(1-methylpiperidin-4-yl)pyridin-2- yl]pyrimidin-2-amine

$$$$
