GTC
 OpenBabel10282417072D

 28 29  0  0  0  0  0  0  0  0999 V2000
    0.4038   -0.2813    0.0000 C   0  0  2  0  0  0  0  0  0  0  0  0
    0.5532   -1.7024    0.0000 C   0  0  0  0  0  0  0  0  0  0  0  0
    1.2243   -0.1950    0.0000 C   0  0  1  0  0  0  0  0  0  0  0  0
    1.7092   -0.8625    0.0000 C   0  0  0  0  0  0  0  0  0  0  0  0
   -1.1610    1.1708    0.0000 C   0  0  0  0  0  0  0  0  0  0  0  0
    2.3804    0.6449    0.0000 O   0  0  0  0  0  0  0  0  0  0  0  0
    1.5599    0.5586    0.0000 C   0  0  0  0  0  0  0  0  0  0  0  0
    1.0750    1.2261    0.0000 O   0  0  0  0  0  0  0  0  0  0  0  0
    1.3737   -1.6161    0.0000 C   0  0  0  0  0  0  0  0  0  0  0  0
    0.0683   -1.0349    0.0000 C   0  0  0  0  0  0  0  0  0  0  0  0
   -0.0811    0.3862    0.0000 C   0  0  0  0  0  0  0  0  0  0  0  0
    0.1739    1.1708    0.0000 N   0  0  0  0  0  0  0  0  0  0  0  0
   -0.4936    1.6557    0.0000 N   0  0  0  0  0  0  0  0  0  0  0  0
   -0.9061    0.3862    0.0000 N   0  0  0  0  0  0  0  0  0  0  0  0
   -1.9456    1.4257    0.0000 S   0  0  0  0  0  0  0  0  0  0  0  0
    0.4446    0.3012    0.0000 H   0  0  0  0  0  0  0  0  0  0  0  0
    1.0634    0.3663    0.0000 H   0  0  0  0  0  0  0  0  0  0  0  0
    0.1180   -2.6799    0.0000 H   0  0  0  0  0  0  0  0  0  0  0  0
    1.1822   -2.5680    0.0000 H   0  0  0  0  0  0  0  0  0  0  0  0
    2.7733   -0.7507    0.0000 H   0  0  0  0  0  0  0  0  0  0  0  0
    2.3381   -1.7281    0.0000 H   0  0  0  0  0  0  0  0  0  0  0  0
    1.4562    2.0821    0.0000 H   0  0  0  0  0  0  0  0  0  0  0  0
    2.0027   -2.4817    0.0000 H   0  0  0  0  0  0  0  0  0  0  0  0
    2.4378   -1.5042    0.0000 H   0  0  0  0  0  0  0  0  0  0  0  0
   -0.9958   -1.1467    0.0000 H   0  0  0  0  0  0  0  0  0  0  0  0
   -0.5606   -0.1693    0.0000 H   0  0  0  0  0  0  0  0  0  0  0  0
   -0.4936    2.6402    0.0000 H   0  0  0  0  0  0  0  0  0  0  0  0
   -1.4848   -0.4103    0.0000 H   0  0  0  0  0  0  0  0  0  0  0  0
  1 11  1  0  0  0  0
  1  3  1  0  0  0  0
  1 16  1  1  0  0  0
  2 10  1  0  0  0  0
  2  9  1  0  0  0  0
  2 18  1  0  0  0  0
  2 19  1  0  0  0  0
  3  7  1  0  0  0  0
  3 17  1  1  0  0  0
  4  3  1  0  0  0  0
  4 20  1  0  0  0  0
  4 21  1  0  0  0  0
  5 15  2  0  0  0  0
  6  7  2  0  0  0  0
  7  8  1  0  0  0  0
  8 22  1  0  0  0  0
  9  4  1  0  0  0  0
  9 23  1  0  0  0  0
  9 24  1  0  0  0  0
 10  1  1  0  0  0  0
 10 25  1  0  0  0  0
 10 26  1  0  0  0  0
 11 14  1  0  0  0  0
 12 11  2  0  0  0  0
 12 13  1  0  0  0  0
 13  5  1  0  0  0  0
 13 27  1  0  0  0  0
 14  5  1  0  0  0  0
 14 28  1  0  0  0  0
M  END
>  <DRUGBANK_ID>
DB07850

>  <COMMON_NAME>
(1R,2S)-2-(5-thioxo-4,5-dihydro-1H-1,2,4-triazol-3-yl)cyclohexanecarboxylic acid

$$$$
