1064
 OpenBabel10282417072D

 32 32  0  0  1  0  0  0  0  0999 V2000
    2.8075    0.9529    0.0000 O   0  0  0  0  0  0  0  0  0  0  0  0
    2.0930   -1.9347    0.0000 O   0  0  0  0  0  0  0  0  0  0  0  0
    3.5220   -2.7597    0.0000 O   0  0  0  0  0  0  0  0  0  0  0  0
    4.2365    1.7779    0.0000 N   0  0  0  0  0  0  0  0  0  0  0  0
    3.5220    0.5404    0.0000 C   0  0  3  0  0  0  0  0  0  0  0  0
    4.2365    0.9529    0.0000 C   0  0  0  0  0  0  0  0  0  0  0  0
    4.9509    2.1904    0.0000 C   0  0  0  0  0  0  0  0  0  0  0  0
    3.5220   -0.2846    0.0000 C   0  0  0  0  0  0  0  0  0  0  0  0
    4.9509    3.0154    0.0000 C   0  0  0  0  0  0  0  0  0  0  0  0
    5.6655    1.7779    0.0000 C   0  0  0  0  0  0  0  0  0  0  0  0
    2.8075   -0.6971    0.0000 C   0  0  0  0  0  0  0  0  0  0  0  0
    4.2365   -0.6971    0.0000 C   0  0  0  0  0  0  0  0  0  0  0  0
    2.8075   -1.5222    0.0000 C   0  0  0  0  0  0  0  0  0  0  0  0
    4.2365   -1.5222    0.0000 C   0  0  0  0  0  0  0  0  0  0  0  0
    3.5220   -1.9347    0.0000 C   0  0  0  0  0  0  0  0  0  0  0  0
    2.8075    1.9229    0.0000 H   0  0  0  0  0  0  0  0  0  0  0  0
    1.2815   -1.4662    0.0000 H   0  0  0  0  0  0  0  0  0  0  0  0
    2.7105   -3.2282    0.0000 H   0  0  0  0  0  0  0  0  0  0  0  0
    3.3531    2.2879    0.0000 H   0  0  0  0  0  0  0  0  0  0  0  0
    3.5220    1.6104    0.0000 H   0  0  0  0  0  0  0  0  0  0  0  0
    5.1631    0.4179    0.0000 H   0  0  0  0  0  0  0  0  0  0  0  0
    4.2365   -0.1171    0.0000 H   0  0  0  0  0  0  0  0  0  0  0  0
    5.8775    2.7254    0.0000 H   0  0  0  0  0  0  0  0  0  0  0  0
    5.8775    3.5504    0.0000 H   0  0  0  0  0  0  0  0  0  0  0  0
    4.0243    3.5504    0.0000 H   0  0  0  0  0  0  0  0  0  0  0  0
    4.9509    4.0854    0.0000 H   0  0  0  0  0  0  0  0  0  0  0  0
    5.6656    0.7079    0.0000 H   0  0  0  0  0  0  0  0  0  0  0  0
    6.5921    2.3130    0.0000 H   0  0  0  0  0  0  0  0  0  0  0  0
    6.5922    1.2430    0.0000 H   0  0  0  0  0  0  0  0  0  0  0  0
    1.9138   -0.1811    0.0000 H   0  0  0  0  0  0  0  0  0  0  0  0
    5.1302   -0.1811    0.0000 H   0  0  0  0  0  0  0  0  0  0  0  0
    5.1302   -2.0382    0.0000 H   0  0  0  0  0  0  0  0  0  0  0  0
  1  5  1  0  0  0  0
  1 16  1  0  0  0  0
  2 13  1  0  0  0  0
  2 17  1  0  0  0  0
  3 15  1  0  0  0  0
  3 18  1  0  0  0  0
  4  6  1  0  0  0  0
  4  7  1  0  0  0  0
  4 19  1  0  0  0  0
  5  6  1  0  0  0  0
  5  8  1  0  0  0  0
  5 20  1  0  0  0  0
  6 21  1  0  0  0  0
  6 22  1  0  0  0  0
  7  9  1  0  0  0  0
  7 10  1  0  0  0  0
  7 23  1  0  0  0  0
  8 11  2  0  0  0  0
  8 12  1  0  0  0  0
  9 24  1  0  0  0  0
  9 25  1  0  0  0  0
  9 26  1  0  0  0  0
 10 27  1  0  0  0  0
 10 28  1  0  0  0  0
 10 29  1  0  0  0  0
 11 13  1  0  0  0  0
 11 30  1  0  0  0  0
 12 14  2  0  0  0  0
 12 31  1  0  0  0  0
 13 15  2  0  0  0  0
 14 15  1  0  0  0  0
 14 32  1  0  0  0  0
M  END
>  <DRUGBANK_ID>
DB01064

>  <SECONDARY_ACCESSION_NUMBERS>
APRD00182

>  <COMMON_NAME>
Isoprenaline

>  <CAS_NUMBER>
7683-59-2

>  <UNII>
L628TT009W

>  <SYNONYMS>
(±)-isoprenaline; (±)-isoproterenol; 1-(3,4-dihydroxyphenyl)-2-(isopropylamino)ethanol; 1-(3,4-dihydroxyphenyl)-2-isopropylaminoethanol; 3,4-dihydroxy-α-[(isopropylamino)methyl]benzyl alcohol; Isoprenalina; Isoprénaline; Isoprenaline; Isoprenalinum; Isopropyl noradrenaline; Isoproterenol; N-isopropyl-β-dihydroxyphenyl-β-hydroxyethylamine; N-Isopropylnoradrenaline; N-Isopropylnorepinephrine; α-(isopropylaminomethyl)protocatechuyl alcohol

$$$$
