G44
 OpenBabel10282417072D

 46 48  0  0  0  0  0  0  0  0999 V2000
   -3.3082    2.6252    0.0000 C   0  0  0  0  0  0  0  0  0  0  0  0
   -3.3082    1.8002    0.0000 C   0  0  0  0  0  0  0  0  0  0  0  0
   -4.0227    1.3877    0.0000 C   0  0  0  0  0  0  0  0  0  0  0  0
   -4.0227    0.5627    0.0000 C   0  0  0  0  0  0  0  0  0  0  0  0
   -3.3082    0.1502    0.0000 C   0  0  0  0  0  0  0  0  0  0  0  0
   -2.5937    0.5627    0.0000 C   0  0  0  0  0  0  0  0  0  0  0  0
   -2.5937    1.3877    0.0000 C   0  0  0  0  0  0  0  0  0  0  0  0
   -1.8793    0.1502    0.0000 C   0  0  0  0  0  0  0  0  0  0  0  0
   -1.8793   -0.6748    0.0000 O   0  0  0  0  0  0  0  0  0  0  0  0
   -1.1648    0.5627    0.0000 C   0  0  0  0  0  0  0  0  0  0  0  0
   -1.1648    1.3877    0.0000 C   0  0  0  0  0  0  0  0  0  0  0  0
   -0.4503    1.8002    0.0000 C   0  0  0  0  0  0  0  0  0  0  0  0
    0.2641    1.3877    0.0000 N   0  0  0  0  0  0  0  0  0  0  0  0
    0.2641    0.5627    0.0000 C   0  0  0  0  0  0  0  0  0  0  0  0
    0.9786    0.1502    0.0000 N   0  0  0  0  0  0  0  0  0  0  0  0
    0.9786   -0.6748    0.0000 C   0  0  0  0  0  0  0  0  0  0  0  0
    1.6931   -1.0873    0.0000 C   0  0  0  0  0  0  0  0  0  0  0  0
    1.6931   -1.9123    0.0000 C   0  0  0  0  0  0  0  0  0  0  0  0
    2.4076   -2.3248    0.0000 C   0  0  0  0  0  0  0  0  0  0  0  0
    3.1220   -1.9123    0.0000 C   0  0  0  0  0  0  0  0  0  0  0  0
    3.1220   -1.0873    0.0000 C   0  0  0  0  0  0  0  0  0  0  0  0
    2.4076   -0.6748    0.0000 C   0  0  0  0  0  0  0  0  0  0  0  0
    3.8365   -2.3248    0.0000 C   0  0  0  0  0  0  0  0  0  0  0  0
    4.5510   -1.9123    0.0000 N   0  0  0  0  0  0  0  0  0  0  0  0
    3.8365   -3.1498    0.0000 N   0  0  0  0  0  0  0  0  0  0  0  0
   -0.4503    0.1502    0.0000 C   0  0  0  0  0  0  0  0  0  0  0  0
   -2.3816    3.1602    0.0000 H   0  0  0  0  0  0  0  0  0  0  0  0
   -4.2348    3.1602    0.0000 H   0  0  0  0  0  0  0  0  0  0  0  0
   -3.3082    3.6952    0.0000 H   0  0  0  0  0  0  0  0  0  0  0  0
   -4.9164    1.9037    0.0000 H   0  0  0  0  0  0  0  0  0  0  0  0
   -4.9164    0.0467    0.0000 H   0  0  0  0  0  0  0  0  0  0  0  0
   -3.3082   -0.8818    0.0000 H   0  0  0  0  0  0  0  0  0  0  0  0
   -1.7000    1.9037    0.0000 H   0  0  0  0  0  0  0  0  0  0  0  0
   -2.0585    1.9037    0.0000 H   0  0  0  0  0  0  0  0  0  0  0  0
   -0.4503    2.8322    0.0000 H   0  0  0  0  0  0  0  0  0  0  0  0
    1.8312    0.6425    0.0000 H   0  0  0  0  0  0  0  0  0  0  0  0
    0.0520   -1.2098    0.0000 H   0  0  0  0  0  0  0  0  0  0  0  0
    0.9786   -1.7448    0.0000 H   0  0  0  0  0  0  0  0  0  0  0  0
    0.7994   -2.4283    0.0000 H   0  0  0  0  0  0  0  0  0  0  0  0
    2.4076   -3.3568    0.0000 H   0  0  0  0  0  0  0  0  0  0  0  0
    4.0157   -0.5713    0.0000 H   0  0  0  0  0  0  0  0  0  0  0  0
    2.4076    0.3572    0.0000 H   0  0  0  0  0  0  0  0  0  0  0  0
    5.4036   -2.4046    0.0000 H   0  0  0  0  0  0  0  0  0  0  0  0
    4.5510   -0.9278    0.0000 H   0  0  0  0  0  0  0  0  0  0  0  0
    2.9839   -3.6421    0.0000 H   0  0  0  0  0  0  0  0  0  0  0  0
   -0.4503   -0.8818    0.0000 H   0  0  0  0  0  0  0  0  0  0  0  0
  1  2  1  0  0  0  0
  1 27  1  0  0  0  0
  1 28  1  0  0  0  0
  1 29  1  0  0  0  0
  2  7  1  0  0  0  0
  2  3  2  0  0  0  0
  3  4  1  0  0  0  0
  3 30  1  0  0  0  0
  4  5  2  0  0  0  0
  4 31  1  0  0  0  0
  5  6  1  0  0  0  0
  5 32  1  0  0  0  0
  6  8  1  0  0  0  0
  6  7  2  0  0  0  0
  7 33  1  0  0  0  0
  8 10  1  0  0  0  0
  8  9  2  0  0  0  0
 10 11  2  0  0  0  0
 10 26  1  0  0  0  0
 11 12  1  0  0  0  0
 11 34  1  0  0  0  0
 12 13  2  0  0  0  0
 12 35  1  0  0  0  0
 13 14  1  0  0  0  0
 14 15  1  0  0  0  0
 14 26  2  0  0  0  0
 15 16  1  0  0  0  0
 15 36  1  0  0  0  0
 16 17  1  0  0  0  0
 16 37  1  0  0  0  0
 16 38  1  0  0  0  0
 17 22  2  0  0  0  0
 17 18  1  0  0  0  0
 18 19  2  0  0  0  0
 18 39  1  0  0  0  0
 19 20  1  0  0  0  0
 19 40  1  0  0  0  0
 20 21  2  0  0  0  0
 20 23  1  0  0  0  0
 21 22  1  0  0  0  0
 21 41  1  0  0  0  0
 22 42  1  0  0  0  0
 23 24  1  0  0  0  0
 23 25  2  0  0  0  0
 24 43  1  0  0  0  0
 24 44  1  0  0  0  0
 25 45  1  0  0  0  0
 26 46  1  0  0  0  0
M  END
>  <DRUGBANK_ID>
DB07809

>  <COMMON_NAME>
4-({[4-(3-METHYLBENZOYL)PYRIDIN-2-YL]AMINO}METHYL)BENZENECARBOXIMIDAMIDE

$$$$
