
 OpenBabel10282417072D

 35 36  0  0  0  0  0  0  0  0999 V2000
   -2.8578    1.6495    0.0000 C   0  0  0  0  0  0  0  0  0  0  0  0
   -2.1434    2.0621    0.0000 C   0  0  0  0  0  0  0  0  0  0  0  0
   -1.4290    1.6497    0.0000 C   0  0  0  0  0  0  0  0  0  0  0  0
   -1.4290    0.8247    0.0000 C   0  0  0  0  0  0  0  0  0  0  0  0
   -2.1434    0.4121    0.0000 C   0  0  0  0  0  0  0  0  0  0  0  0
   -2.8578    0.8245    0.0000 C   0  0  0  0  0  0  0  0  0  0  0  0
   -0.7144    0.4122    0.0000 N   0  0  0  0  0  0  0  0  0  0  0  0
   -0.7144   -0.4126    0.0000 N   0  0  0  0  0  0  0  0  0  0  0  0
    0.0000   -0.8251    0.0000 C   0  0  0  0  0  0  0  0  0  0  0  0
    0.7144   -0.4125    0.0000 C   0  0  0  0  0  0  0  0  0  0  0  0
    1.4290   -0.8249    0.0000 C   0  0  0  0  0  0  0  0  0  0  0  0
    1.4290   -1.6499    0.0000 C   0  0  0  0  0  0  0  0  0  0  0  0
    0.7146   -2.0624    0.0000 C   0  0  0  0  0  0  0  0  0  0  0  0
    0.0001   -1.6500    0.0000 C   0  0  0  0  0  0  0  0  0  0  0  0
    2.1434   -2.0624    0.0000 N   0  0  0  0  0  0  0  0  0  0  0  0
   -0.7146    2.0621    0.0000 C   0  0  0  0  0  0  0  0  0  0  0  0
   -0.0002    1.6499    0.0000 O   0  0  0  0  0  0  0  0  0  0  0  0
   -0.7148    2.8873    0.0000 O   0  0  0  0  0  0  0  0  0  0  0  0
    2.1436   -2.8873    0.0000 C   0  0  0  0  0  0  0  0  0  0  0  0
    2.8578   -1.6498    0.0000 C   0  0  0  0  0  0  0  0  0  0  0  0
   -3.7516    2.1654    0.0000 H   0  0  0  0  0  0  0  0  0  0  0  0
   -2.1435    3.0941    0.0000 H   0  0  0  0  0  0  0  0  0  0  0  0
   -2.1433   -0.6199    0.0000 H   0  0  0  0  0  0  0  0  0  0  0  0
   -3.7515    0.3085    0.0000 H   0  0  0  0  0  0  0  0  0  0  0  0
    0.7142    0.6195    0.0000 H   0  0  0  0  0  0  0  0  0  0  0  0
    2.3227   -0.3088    0.0000 H   0  0  0  0  0  0  0  0  0  0  0  0
    0.7147   -3.0944    0.0000 H   0  0  0  0  0  0  0  0  0  0  0  0
   -0.8936   -2.1661    0.0000 H   0  0  0  0  0  0  0  0  0  0  0  0
    0.0001    0.7129    0.0000 H   0  0  0  0  0  0  0  0  0  0  0  0
    1.2171   -3.4225    0.0000 H   0  0  0  0  0  0  0  0  0  0  0  0
    3.0704   -3.4221    0.0000 H   0  0  0  0  0  0  0  0  0  0  0  0
    2.1439   -3.9573    0.0000 H   0  0  0  0  0  0  0  0  0  0  0  0
    3.7845   -2.1847    0.0000 H   0  0  0  0  0  0  0  0  0  0  0  0
    2.8576   -0.5798    0.0000 H   0  0  0  0  0  0  0  0  0  0  0  0
    3.7844   -1.1147    0.0000 H   0  0  0  0  0  0  0  0  0  0  0  0
  1  2  1  0  0  0  0
  1  6  2  0  0  0  0
  1 21  1  0  0  0  0
  2  3  2  0  0  0  0
  2 22  1  0  0  0  0
  3  4  1  0  0  0  0
  3 16  1  0  0  0  0
  4  5  2  0  0  0  0
  4  7  1  0  0  0  0
  5  6  1  0  0  0  0
  5 23  1  0  0  0  0
  6 24  1  0  0  0  0
  7  8  2  0  0  0  0
  8  9  1  0  0  0  0
  9 10  1  0  0  0  0
  9 14  2  0  0  0  0
 10 11  2  0  0  0  0
 10 25  1  0  0  0  0
 11 12  1  0  0  0  0
 11 26  1  0  0  0  0
 12 13  2  0  0  0  0
 12 15  1  0  0  0  0
 13 14  1  0  0  0  0
 13 27  1  0  0  0  0
 14 28  1  0  0  0  0
 15 19  1  0  0  0  0
 15 20  1  0  0  0  0
 16 17  1  0  0  0  0
 16 18  2  0  0  0  0
 17 29  1  0  0  0  0
 19 30  1  0  0  0  0
 19 31  1  0  0  0  0
 19 32  1  0  0  0  0
 20 33  1  0  0  0  0
 20 34  1  0  0  0  0
 20 35  1  0  0  0  0
M  END
>  <DRUGBANK_ID>
DB08209

>  <COMMON_NAME>
Methyl red

>  <CAS_NUMBER>
493-52-7

>  <UNII>
69083AX1ZX

>  <SYNONYMS>
2-((4-Dimethylamino)phenylazo)benzoic acid; 2-[(p-Dimethylamino)phenyl]azobenzoic acid; 2-Carboxy-4'-(dimethylamino)azobenzene; 4-Dimethylamino-2'-carboxylazobenzene; 4'-(Dimethylamino)azobenzene-2-carboxylic acid; 4'-Dimethylaminoazobenzene-2-carboxylic acid; C.I. Acid Red 2; o-((p-(Dimethylamino)phenyl)azo)benzoic acid; o-Methyl red; p-(Dimethylamino)azobenzene-o-carboxylic acid

$$$$
