
 OpenBabel10282417072D

 76 78  0  0  1  0  0  0  0  0999 V2000
    4.9482   11.5285    0.0000 C   0  0  0  0  0  0  0  0  0  0  0  0
    4.3031   11.0141    0.0000 C   0  0  0  0  0  0  0  0  0  0  0  0
    3.5352   11.3155    0.0000 C   0  0  0  0  0  0  0  0  0  0  0  0
    2.8902   10.8011    0.0000 C   0  0  0  0  0  0  0  0  0  0  0  0
    3.0131    9.9854    0.0000 C   0  0  2  0  0  0  0  0  0  0  0  0
    3.4779    9.3037    0.0000 C   0  0  0  0  0  0  0  0  0  0  0  0
    3.2347    8.5154    0.0000 S   0  0  0  0  0  0  0  0  0  0  0  0
    4.0574    8.4537    0.0000 O   0  0  0  0  0  0  0  0  0  0  0  0
    3.3576    7.6996    0.0000 O   0  0  0  0  0  0  0  0  0  0  0  0
    2.4667    8.2140    0.0000 C   0  0  0  0  0  0  0  0  0  0  0  0
    2.4667    7.3890    0.0000 C   0  0  0  0  0  0  0  0  0  0  0  0
    1.7522    6.9765    0.0000 C   0  0  0  0  0  0  0  0  0  0  0  0
    1.0378    7.3890    0.0000 C   0  0  0  0  0  0  0  0  0  0  0  0
    1.0378    8.2140    0.0000 C   0  0  0  0  0  0  0  0  0  0  0  0
    1.7522    8.6265    0.0000 C   0  0  0  0  0  0  0  0  0  0  0  0
    1.6293    9.4422    0.0000 C   0  0  2  0  0  0  0  0  0  0  0  0
    2.1904   10.0470    0.0000 N   0  0  0  0  0  0  0  0  0  0  0  0
    0.8409    9.6854    0.0000 C   0  0  0  0  0  0  0  0  0  0  0  0
    0.2362    9.1243    0.0000 C   0  0  0  0  0  0  0  0  0  0  0  0
   -0.5522    9.3674    0.0000 C   0  0  0  0  0  0  0  0  0  0  0  0
   -0.7358   10.1718    0.0000 C   0  0  0  0  0  0  0  0  0  0  0  0
   -0.1310   10.7329    0.0000 C   0  0  0  0  0  0  0  0  0  0  0  0
    0.6574   10.4897    0.0000 C   0  0  0  0  0  0  0  0  0  0  0  0
    0.3233    6.9765    0.0000 O   0  0  0  0  0  0  0  0  0  0  0  0
   -0.3912    7.3890    0.0000 C   0  0  0  0  0  0  0  0  0  0  0  0
    1.7522    6.1515    0.0000 C   0  0  0  0  0  0  0  0  0  0  0  0
    2.4667    5.7390    0.0000 N   0  0  0  0  0  0  0  0  0  0  0  0
    2.4667    4.9140    0.0000 C   0  0  0  0  0  0  0  0  0  0  0  0
    1.7522    4.5015    0.0000 C   0  0  0  0  0  0  0  0  0  0  0  0
    1.0378    4.9140    0.0000 C   0  0  0  0  0  0  0  0  0  0  0  0
    0.3233    4.5015    0.0000 O   0  0  0  0  0  0  0  0  0  0  0  0
    1.0378    5.7390    0.0000 O   0  0  0  0  0  0  0  0  0  0  0  0
    3.1812    4.5015    0.0000 C   0  0  0  0  0  0  0  0  0  0  0  0
    3.8957    4.9140    0.0000 C   0  0  0  0  0  0  0  0  0  0  0  0
    3.8957    5.7390    0.0000 O   0  0  0  0  0  0  0  0  0  0  0  0
    4.6101    4.5015    0.0000 O   0  0  0  0  0  0  0  0  0  0  0  0
    3.7811   10.2868    0.0000 C   0  0  0  0  0  0  0  0  0  0  0  0
    4.4261    9.7724    0.0000 C   0  0  0  0  0  0  0  0  0  0  0  0
    5.9442   11.1375    0.0000 H   0  0  0  0  0  0  0  0  0  0  0  0
    4.7888   12.5866    0.0000 H   0  0  0  0  0  0  0  0  0  0  0  0
    5.7848   12.1956    0.0000 H   0  0  0  0  0  0  0  0  0  0  0  0
    4.4625    9.9560    0.0000 H   0  0  0  0  0  0  0  0  0  0  0  0
    3.4665   10.3470    0.0000 H   0  0  0  0  0  0  0  0  0  0  0  0
    3.3757   12.3735    0.0000 H   0  0  0  0  0  0  0  0  0  0  0  0
    2.5392   11.7064    0.0000 H   0  0  0  0  0  0  0  0  0  0  0  0
    1.8942   11.1920    0.0000 H   0  0  0  0  0  0  0  0  0  0  0  0
    2.0536   10.1340    0.0000 H   0  0  0  0  0  0  0  0  0  0  0  0
    4.5360    9.4632    0.0000 H   0  0  0  0  0  0  0  0  0  0  0  0
    4.1758    8.4926    0.0000 H   0  0  0  0  0  0  0  0  0  0  0  0
    3.3604    6.8730    0.0000 H   0  0  0  0  0  0  0  0  0  0  0  0
    0.1441    8.7300    0.0000 H   0  0  0  0  0  0  0  0  0  0  0  0
    0.8182    8.7443    0.0000 H   0  0  0  0  0  0  0  0  0  0  0  0
    1.8177   10.9965    0.0000 H   0  0  0  0  0  0  0  0  0  0  0  0
    0.4659    8.1182    0.0000 H   0  0  0  0  0  0  0  0  0  0  0  0
   -1.3087    8.6654    0.0000 H   0  0  0  0  0  0  0  0  0  0  0  0
   -1.7219   10.4760    0.0000 H   0  0  0  0  0  0  0  0  0  0  0  0
   -0.3606   11.7390    0.0000 H   0  0  0  0  0  0  0  0  0  0  0  0
    1.4139   11.1916    0.0000 H   0  0  0  0  0  0  0  0  0  0  0  0
   -0.3912    8.4590    0.0000 H   0  0  0  0  0  0  0  0  0  0  0  0
   -1.3178    6.8540    0.0000 H   0  0  0  0  0  0  0  0  0  0  0  0
   -1.3179    7.9240    0.0000 H   0  0  0  0  0  0  0  0  0  0  0  0
    0.8256    5.6165    0.0000 H   0  0  0  0  0  0  0  0  0  0  0  0
    1.7522    5.0815    0.0000 H   0  0  0  0  0  0  0  0  0  0  0  0
    3.3500    6.2490    0.0000 H   0  0  0  0  0  0  0  0  0  0  0  0
    2.4667    3.8440    0.0000 H   0  0  0  0  0  0  0  0  0  0  0  0
    1.7522    3.4315    0.0000 H   0  0  0  0  0  0  0  0  0  0  0  0
    0.8255    3.9665    0.0000 H   0  0  0  0  0  0  0  0  0  0  0  0
    1.8493    6.2075    0.0000 H   0  0  0  0  0  0  0  0  0  0  0  0
    3.1812    3.4315    0.0000 H   0  0  0  0  0  0  0  0  0  0  0  0
    4.1078    3.9665    0.0000 H   0  0  0  0  0  0  0  0  0  0  0  0
    4.6101    3.5645    0.0000 H   0  0  0  0  0  0  0  0  0  0  0  0
    3.9406   11.3448    0.0000 H   0  0  0  0  0  0  0  0  0  0  0  0
    4.7771   10.6777    0.0000 H   0  0  0  0  0  0  0  0  0  0  0  0
    4.2666    8.7144    0.0000 H   0  0  0  0  0  0  0  0  0  0  0  0
    5.4221   10.1633    0.0000 H   0  0  0  0  0  0  0  0  0  0  0  0
    5.2626    9.1052    0.0000 H   0  0  0  0  0  0  0  0  0  0  0  0
  1  2  1  0  0  0  0
  1 39  1  0  0  0  0
  1 40  1  0  0  0  0
  1 41  1  0  0  0  0
  2  3  1  0  0  0  0
  2 42  1  0  0  0  0
  2 43  1  0  0  0  0
  3  4  1  0  0  0  0
  3 44  1  0  0  0  0
  3 45  1  0  0  0  0
  4 46  1  0  0  0  0
  4 47  1  0  0  0  0
  5  4  1  6  0  0  0
  5  6  1  0  0  0  0
  5 17  1  0  0  0  0
  5 37  1  0  0  0  0
  6  7  1  0  0  0  0
  6 48  1  0  0  0  0
  6 49  1  0  0  0  0
  7  8  2  0  0  0  0
  7  9  2  0  0  0  0
  7 10  1  0  0  0  0
 10 11  2  0  0  0  0
 10 15  1  0  0  0  0
 11 12  1  0  0  0  0
 11 50  1  0  0  0  0
 12 13  2  0  0  0  0
 12 26  1  0  0  0  0
 13 14  1  0  0  0  0
 13 24  1  0  0  0  0
 14 15  2  0  0  0  0
 14 51  1  0  0  0  0
 15 16  1  0  0  0  0
 16 17  1  0  0  0  0
 16 18  1  0  0  0  0
 16 52  1  6  0  0  0
 17 53  1  0  0  0  0
 18 19  2  0  0  0  0
 18 23  1  0  0  0  0
 19 20  1  0  0  0  0
 19 54  1  0  0  0  0
 20 21  2  0  0  0  0
 20 55  1  0  0  0  0
 21 22  1  0  0  0  0
 21 56  1  0  0  0  0
 22 23  2  0  0  0  0
 22 57  1  0  0  0  0
 23 58  1  0  0  0  0
 24 25  1  0  0  0  0
 25 59  1  0  0  0  0
 25 60  1  0  0  0  0
 25 61  1  0  0  0  0
 26 27  1  0  0  0  0
 26 62  1  0  0  0  0
 26 63  1  0  0  0  0
 27 28  1  0  0  0  0
 27 64  1  0  0  0  0
 28 29  1  0  0  0  0
 28 33  1  0  0  0  0
 28 65  1  0  0  0  0
 29 30  1  0  0  0  0
 29 66  1  0  0  0  0
 29 67  1  0  0  0  0
 30 31  2  0  0  0  0
 30 32  1  0  0  0  0
 32 68  1  0  0  0  0
 33 34  1  0  0  0  0
 33 69  1  0  0  0  0
 33 70  1  0  0  0  0
 34 35  2  0  0  0  0
 34 36  1  0  0  0  0
 36 71  1  0  0  0  0
 37 38  1  0  0  0  0
 37 72  1  0  0  0  0
 37 73  1  0  0  0  0
 38 74  1  0  0  0  0
 38 75  1  0  0  0  0
 38 76  1  0  0  0  0
M  END
>  <DRUGBANK_ID>
DB11729

>  <COMMON_NAME>
Linerixibat

>  <CAS_NUMBER>
1345982-69-5

>  <UNII>
386012Z45S

>  <SYNONYMS>
3-((((3R,5R)-3-BUTYL-3-ETHYL-7-METHOXY-1,1-DIOXO-5-PHENYL-2,3,4,5-TETRAHYDRO- 1H-1.LAMBDA.6,4-BENZOTHIAZEPIN-8-YL)METHYL)AMINO)PENTANEDIOIC ACID; PENTANEDIOIC ACID, 3-((((3R,5R)-3-BUTYL-3-ETHYL-2,3,4,5-TETRAHYDRO-7-METHOXY-1,1-DIOXIDO-5-PHENYL-1,4-BENZOTHIAZEPIN-8-YL)METHYL)AMINO)-

$$$$
