BL6
 OpenBabel10282417072D

 38 41  0  0  0  0  0  0  0  0999 V2000
    1.0223    1.1193    0.0000 C   0  0  0  0  0  0  0  0  0  0  0  0
    0.3079    1.5318    0.0000 C   0  0  0  0  0  0  0  0  0  0  0  0
   -0.4066    1.1193    0.0000 C   0  0  2  0  0  0  0  0  0  0  0  0
   -1.1912    1.3742    0.0000 C   0  0  0  0  0  0  0  0  0  0  0  0
   -1.6762    0.7068    0.0000 C   0  0  0  0  0  0  0  0  0  0  0  0
    1.7368    1.5318    0.0000 C   0  0  0  0  0  0  0  0  0  0  0  0
    2.4513    0.2943    0.0000 C   0  0  0  0  0  0  0  0  0  0  0  0
    1.0223    0.2943    0.0000 C   0  0  0  0  0  0  0  0  0  0  0  0
   -0.4066    0.2943    0.0000 C   0  0  0  0  0  0  0  0  0  0  0  0
   -1.4462   -0.7453    0.0000 C   0  0  0  0  0  0  0  0  0  0  0  0
   -0.8941   -1.3584    0.0000 C   0  0  0  0  0  0  0  0  0  0  0  0
   -1.1491   -2.1430    0.0000 C   0  0  0  0  0  0  0  0  0  0  0  0
   -2.2531   -0.9168    0.0000 C   0  0  0  0  0  0  0  0  0  0  0  0
    0.3079    2.3568    0.0000 O   0  0  0  0  0  0  0  0  0  0  0  0
   -0.4928    1.9398    0.0000 O   0  0  0  0  0  0  0  0  0  0  0  0
   -1.1912    0.0393    0.0000 N   0  0  0  0  0  0  0  0  0  0  0  0
   -2.5081   -1.7014    0.0000 C   0  0  0  0  0  0  0  0  0  0  0  0
   -1.9560   -2.3145    0.0000 C   0  0  0  0  0  0  0  0  0  0  0  0
    0.3079   -0.1182    0.0000 N   0  0  0  0  0  0  0  0  0  0  0  0
    1.7368   -0.1182    0.0000 C   0  0  0  0  0  0  0  0  0  0  0  0
    3.1657   -0.1182    0.0000 C   0  0  0  0  0  0  0  0  0  0  0  0
    2.4513    1.1193    0.0000 C   0  0  0  0  0  0  0  0  0  0  0  0
   -1.5218    2.3918    0.0000 H   0  0  0  0  0  0  0  0  0  0  0  0
   -2.2480    1.5417    0.0000 H   0  0  0  0  0  0  0  0  0  0  0  0
   -2.7462    0.7068    0.0000 H   0  0  0  0  0  0  0  0  0  0  0  0
   -2.1620   -0.2466    0.0000 H   0  0  0  0  0  0  0  0  0  0  0  0
    1.7368    2.5638    0.0000 H   0  0  0  0  0  0  0  0  0  0  0  0
    0.1154   -1.1438    0.0000 H   0  0  0  0  0  0  0  0  0  0  0  0
   -0.4586   -2.9100    0.0000 H   0  0  0  0  0  0  0  0  0  0  0  0
   -2.9436   -0.1498    0.0000 H   0  0  0  0  0  0  0  0  0  0  0  0
    0.2920    2.5099    0.0000 H   0  0  0  0  0  0  0  0  0  0  0  0
   -3.5176   -1.9160    0.0000 H   0  0  0  0  0  0  0  0  0  0  0  0
   -2.2749   -3.2960    0.0000 H   0  0  0  0  0  0  0  0  0  0  0  0
    1.7368   -1.1502    0.0000 H   0  0  0  0  0  0  0  0  0  0  0  0
    3.1657   -1.1882    0.0000 H   0  0  0  0  0  0  0  0  0  0  0  0
    4.0924    0.4168    0.0000 H   0  0  0  0  0  0  0  0  0  0  0  0
    4.0923   -0.6532    0.0000 H   0  0  0  0  0  0  0  0  0  0  0  0
    3.3450    1.6353    0.0000 H   0  0  0  0  0  0  0  0  0  0  0  0
  1  2  1  0  0  0  0
  1  6  2  0  0  0  0
  1  8  1  0  0  0  0
  2  3  1  0  0  0  0
  2 14  2  0  0  0  0
  3  4  1  0  0  0  0
  3  9  1  0  0  0  0
  3 15  1  6  0  0  0
  4  5  1  0  0  0  0
  4 23  1  0  0  0  0
  4 24  1  0  0  0  0
  5 16  1  0  0  0  0
  5 25  1  0  0  0  0
  5 26  1  0  0  0  0
  6 22  1  0  0  0  0
  6 27  1  0  0  0  0
  7 20  1  0  0  0  0
  7 21  1  0  0  0  0
  7 22  2  0  0  0  0
  8 19  1  0  0  0  0
  8 20  2  0  0  0  0
  9 16  1  0  0  0  0
  9 19  2  0  0  0  0
 10 11  2  0  0  0  0
 10 13  1  0  0  0  0
 10 16  1  0  0  0  0
 11 12  1  0  0  0  0
 11 28  1  0  0  0  0
 12 18  2  0  0  0  0
 12 29  1  0  0  0  0
 13 17  2  0  0  0  0
 13 30  1  0  0  0  0
 15 31  1  0  0  0  0
 17 18  1  0  0  0  0
 17 32  1  0  0  0  0
 18 33  1  0  0  0  0
 20 34  1  0  0  0  0
 21 35  1  0  0  0  0
 21 36  1  0  0  0  0
 21 37  1  0  0  0  0
 22 38  1  0  0  0  0
M  END
>  <DRUGBANK_ID>
DB07469

>  <COMMON_NAME>
(3aS)-3a-hydroxy-7-methyl-1-phenyl-1,2,3,3a-tetrahydro-4H-pyrrolo[2,3-b]quinolin-4-one

$$$$
