
 OpenBabel10282417072D

 93 97  0  0  1  0  0  0  0  0999 V2000
   -4.4673   -5.8923    0.0000 C   0  0  0  0  0  0  0  0  0  0  0  0
   -4.1870   -5.1163    0.0000 O   0  0  0  0  0  0  0  0  0  0  0  0
   -3.3749   -4.9711    0.0000 C   0  0  0  0  0  0  0  0  0  0  0  0
   -3.0946   -4.1952    0.0000 C   0  0  0  0  0  0  0  0  0  0  0  0
   -3.6264   -3.5645    0.0000 Cl  0  0  0  0  0  0  0  0  0  0  0  0
   -2.2825   -4.0500    0.0000 C   0  0  0  0  0  0  0  0  0  0  0  0
   -2.0022   -3.2741    0.0000 O   0  0  0  0  0  0  0  0  0  0  0  0
   -1.1901   -3.1289    0.0000 C   0  0  0  0  0  0  0  0  0  0  0  0
   -0.6582   -3.7596    0.0000 O   0  0  0  0  0  0  0  0  0  0  0  0
   -0.9098   -2.3529    0.0000 O   0  0  0  0  0  0  0  0  0  0  0  0
   -0.0976   -2.2077    0.0000 C   0  0  1  0  0  0  0  0  0  0  0  0
    0.1827   -1.4318    0.0000 C   0  0  0  0  0  0  0  0  0  0  0  0
    0.9948   -1.2866    0.0000 C   0  0  0  0  0  0  0  0  0  0  0  0
    1.5266   -1.9173    0.0000 C   0  0  2  0  0  0  0  0  0  0  0  0
    1.8069   -1.1414    0.0000 C   0  0  0  0  0  0  0  0  0  0  0  0
    2.3387   -1.7721    0.0000 C   0  0  1  0  0  0  0  0  0  0  0  0
    2.6190   -0.9961    0.0000 C   0  0  0  0  0  0  0  0  0  0  0  0
    3.4311   -0.8509    0.0000 C   0  0  0  0  0  0  0  0  0  0  0  0
    3.9629   -1.4816    0.0000 C   0  0  2  0  0  0  0  0  0  0  0  0
    4.3228   -0.7393    0.0000 C   0  0  0  0  0  0  0  0  0  0  0  0
    4.7875   -1.5084    0.0000 C   0  0  2  0  0  0  0  0  0  0  0  0
    5.0168   -2.3009    0.0000 C   0  0  0  0  0  0  0  0  0  0  0  0
    4.3340   -2.7639    0.0000 C   0  0  0  0  0  0  0  0  0  0  0  0
    3.6826   -2.2576    0.0000 C   0  0  1  0  0  0  0  0  0  0  0  0
    2.8705   -2.4028    0.0000 C   0  0  2  0  0  0  0  0  0  0  0  0
    2.5902   -3.1787    0.0000 C   0  0  0  0  0  0  0  0  0  0  0  0
    1.7781   -3.3239    0.0000 C   0  0  0  0  0  0  0  0  0  0  0  0
    1.2463   -2.6932    0.0000 C   0  0  0  0  0  0  0  0  0  0  0  0
    0.4342   -2.8384    0.0000 C   0  0  0  0  0  0  0  0  0  0  0  0
    5.2939   -0.8571    0.0000 C   0  0  2  0  0  0  0  0  0  0  0  0
    6.1111   -0.9700    0.0000 C   0  0  0  0  0  0  0  0  0  0  0  0
    4.9830   -0.0929    0.0000 C   0  0  0  0  0  0  0  0  0  0  0  0
    5.4893    0.5584    0.0000 C   0  0  0  0  0  0  0  0  0  0  0  0
    5.1784    1.3226    0.0000 C   0  0  0  0  0  0  0  0  0  0  0  0
    5.6848    1.9739    0.0000 C   0  0  0  0  0  0  0  0  0  0  0  0
    5.3739    2.7381    0.0000 C   0  0  0  0  0  0  0  0  0  0  0  0
    6.5020    1.8611    0.0000 C   0  0  0  0  0  0  0  0  0  0  0  0
   -1.7507   -4.6807    0.0000 C   0  0  0  0  0  0  0  0  0  0  0  0
   -0.9385   -4.5355    0.0000 Cl  0  0  0  0  0  0  0  0  0  0  0  0
   -2.0310   -5.4566    0.0000 C   0  0  0  0  0  0  0  0  0  0  0  0
   -2.8431   -5.6018    0.0000 N   0  0  0  0  0  0  0  0  0  0  0  0
   -1.4991   -6.0873    0.0000 C   0  0  0  0  0  0  0  0  0  0  0  0
   -0.9673   -6.7180    0.0000 Cl  0  0  0  0  0  0  0  0  0  0  0  0
   -2.1299   -6.6192    0.0000 Cl  0  0  0  0  0  0  0  0  0  0  0  0
   -0.8684   -5.5555    0.0000 Cl  0  0  0  0  0  0  0  0  0  0  0  0
   -5.5206   -6.0807    0.0000 H   0  0  0  0  0  0  0  0  0  0  0  0
   -3.7775   -6.7103    0.0000 H   0  0  0  0  0  0  0  0  0  0  0  0
   -4.8308   -6.8987    0.0000 H   0  0  0  0  0  0  0  0  0  0  0  0
   -0.7873   -1.3897    0.0000 H   0  0  0  0  0  0  0  0  0  0  0  0
   -0.5070   -0.6138    0.0000 H   0  0  0  0  0  0  0  0  0  0  0  0
    0.5463   -0.4255    0.0000 H   0  0  0  0  0  0  0  0  0  0  0  0
    1.3584   -0.2803    0.0000 H   0  0  0  0  0  0  0  0  0  0  0  0
    2.0481   -1.0983    0.0000 H   0  0  0  0  0  0  0  0  0  0  0  0
    2.8602   -0.9531    0.0000 H   0  0  0  0  0  0  0  0  0  0  0  0
    1.1172   -0.3234    0.0000 H   0  0  0  0  0  0  0  0  0  0  0  0
    2.1705   -0.1351    0.0000 H   0  0  0  0  0  0  0  0  0  0  0  0
    1.6489   -0.9541    0.0000 H   0  0  0  0  0  0  0  0  0  0  0  0
    1.9292   -0.1781    0.0000 H   0  0  0  0  0  0  0  0  0  0  0  0
    2.9825    0.0102    0.0000 H   0  0  0  0  0  0  0  0  0  0  0  0
    3.7947    0.1554    0.0000 H   0  0  0  0  0  0  0  0  0  0  0  0
    4.4844   -0.6626    0.0000 H   0  0  0  0  0  0  0  0  0  0  0  0
    5.3900   -0.6622    0.0000 H   0  0  0  0  0  0  0  0  0  0  0  0
    3.7224    0.1464    0.0000 H   0  0  0  0  0  0  0  0  0  0  0  0
    4.7896    0.2235    0.0000 H   0  0  0  0  0  0  0  0  0  0  0  0
    4.3330   -0.5397    0.0000 H   0  0  0  0  0  0  0  0  0  0  0  0
    6.0232   -2.6644    0.0000 H   0  0  0  0  0  0  0  0  0  0  0  0
    5.1498   -3.3626    0.0000 H   0  0  0  0  0  0  0  0  0  0  0  0
    4.2993   -3.8333    0.0000 H   0  0  0  0  0  0  0  0  0  0  0  0
    3.3654   -3.2185    0.0000 H   0  0  0  0  0  0  0  0  0  0  0  0
    4.7104   -1.9601    0.0000 H   0  0  0  0  0  0  0  0  0  0  0  0
    3.5602   -3.2208    0.0000 H   0  0  0  0  0  0  0  0  0  0  0  0
    3.2799   -3.9967    0.0000 H   0  0  0  0  0  0  0  0  0  0  0  0
    2.2266   -4.1850    0.0000 H   0  0  0  0  0  0  0  0  0  0  0  0
    1.4275   -4.2945    0.0000 H   0  0  0  0  0  0  0  0  0  0  0  0
    0.0706   -3.8447    0.0000 H   0  0  0  0  0  0  0  0  0  0  0  0
   -0.6191   -3.0267    0.0000 H   0  0  0  0  0  0  0  0  0  0  0  0
    5.9507   -0.0124    0.0000 H   0  0  0  0  0  0  0  0  0  0  0  0
    6.5143   -1.9611    0.0000 H   0  0  0  0  0  0  0  0  0  0  0  0
    6.7679   -0.1253    0.0000 H   0  0  0  0  0  0  0  0  0  0  0  0
    7.1710   -1.1164    0.0000 H   0  0  0  0  0  0  0  0  0  0  0  0
    3.9231    0.0534    0.0000 H   0  0  0  0  0  0  0  0  0  0  0  0
    4.5798    0.8982    0.0000 H   0  0  0  0  0  0  0  0  0  0  0  0
    6.5492    0.4121    0.0000 H   0  0  0  0  0  0  0  0  0  0  0  0
    6.1460    1.4032    0.0000 H   0  0  0  0  0  0  0  0  0  0  0  0
    4.1185    1.4690    0.0000 H   0  0  0  0  0  0  0  0  0  0  0  0
    4.7752    2.3137    0.0000 H   0  0  0  0  0  0  0  0  0  0  0  0
    6.3415    2.8187    0.0000 H   0  0  0  0  0  0  0  0  0  0  0  0
    6.0306    3.5829    0.0000 H   0  0  0  0  0  0  0  0  0  0  0  0
    4.3140    2.8845    0.0000 H   0  0  0  0  0  0  0  0  0  0  0  0
    4.9707    3.7292    0.0000 H   0  0  0  0  0  0  0  0  0  0  0  0
    6.9053    0.8700    0.0000 H   0  0  0  0  0  0  0  0  0  0  0  0
    7.1587    2.7059    0.0000 H   0  0  0  0  0  0  0  0  0  0  0  0
    7.5620    1.7148    0.0000 H   0  0  0  0  0  0  0  0  0  0  0  0
  1  2  1  0  0  0  0
  1 46  1  0  0  0  0
  1 47  1  0  0  0  0
  1 48  1  0  0  0  0
  2  3  1  0  0  0  0
  3  4  2  0  0  0  0
  3 41  1  0  0  0  0
  4  5  1  0  0  0  0
  4  6  1  0  0  0  0
  6  7  1  0  0  0  0
  6 38  2  0  0  0  0
  7  8  1  0  0  0  0
  8  9  2  0  0  0  0
  8 10  1  0  0  0  0
 11 10  1  0  0  0  0
 11 12  1  0  0  0  0
 11 29  1  0  0  0  0
 11 49  1  6  0  0  0
 12 13  1  0  0  0  0
 12 50  1  0  0  0  0
 12 51  1  0  0  0  0
 13 52  1  0  0  0  0
 13 53  1  0  0  0  0
 14 13  1  0  0  0  0
 14 15  1  1  0  0  0
 14 28  1  0  0  0  0
 15 54  1  0  0  0  0
 15 55  1  0  0  0  0
 15 56  1  0  0  0  0
 16 14  1  0  0  0  0
 16 17  1  0  0  0  0
 16 25  1  0  0  0  0
 16 57  1  6  0  0  0
 17 18  1  0  0  0  0
 17 58  1  0  0  0  0
 17 59  1  0  0  0  0
 18 60  1  0  0  0  0
 18 61  1  0  0  0  0
 19 18  1  0  0  0  0
 19 20  1  1  0  0  0
 19 21  1  0  0  0  0
 20 62  1  0  0  0  0
 20 63  1  0  0  0  0
 20 64  1  0  0  0  0
 21 22  1  0  0  0  0
 21 30  1  0  0  0  0
 21 65  1  6  0  0  0
 22 23  1  0  0  0  0
 22 66  1  0  0  0  0
 22 67  1  0  0  0  0
 23 68  1  0  0  0  0
 23 69  1  0  0  0  0
 24 23  1  0  0  0  0
 24 19  1  0  0  0  0
 24 70  1  6  0  0  0
 25 24  1  0  0  0  0
 25 26  1  0  0  0  0
 25 71  1  1  0  0  0
 26 27  1  0  0  0  0
 26 72  1  0  0  0  0
 26 73  1  0  0  0  0
 27 28  2  0  0  0  0
 27 74  1  0  0  0  0
 28 29  1  0  0  0  0
 29 75  1  0  0  0  0
 29 76  1  0  0  0  0
 30 31  1  0  0  0  0
 30 32  1  0  0  0  0
 30 77  1  6  0  0  0
 31 78  1  0  0  0  0
 31 79  1  0  0  0  0
 31 80  1  0  0  0  0
 32 33  1  0  0  0  0
 32 81  1  0  0  0  0
 32 82  1  0  0  0  0
 33 34  1  0  0  0  0
 33 83  1  0  0  0  0
 33 84  1  0  0  0  0
 34 35  1  0  0  0  0
 34 85  1  0  0  0  0
 34 86  1  0  0  0  0
 35 36  1  0  0  0  0
 35 37  1  0  0  0  0
 35 87  1  0  0  0  0
 36 88  1  0  0  0  0
 36 89  1  0  0  0  0
 36 90  1  0  0  0  0
 37 91  1  0  0  0  0
 37 92  1  0  0  0  0
 37 93  1  0  0  0  0
 38 39  1  0  0  0  0
 38 40  1  0  0  0  0
 40 41  2  0  0  0  0
 40 42  1  0  0  0  0
 42 43  1  0  0  0  0
 42 44  1  0  0  0  0
 42 45  1  0  0  0  0
M  END
>  <DRUGBANK_ID>
DB15075

>  <COMMON_NAME>
4-demethyl-4-cholesteryloxycarbonylpenclomedine

>  <CAS_NUMBER>
942149-56-6

>  <UNII>
1S83F4T2WE

>  <SYNONYMS>
4-DEMETHYLCHOLESTERYLOXYCARBONYLPENCLOMEDINE; DM-CHOC-PEN

$$$$
