
 OpenBabel10282417072D

 58 60  0  0  1  0  0  0  0  0999 V2000
   -0.4599    6.1891    0.0000 C   0  0  0  0  0  0  0  0  0  0  0  0
   -1.1743    5.7766    0.0000 C   0  0  0  0  0  0  0  0  0  0  0  0
    0.2546    5.7766    0.0000 C   0  0  0  0  0  0  0  0  0  0  0  0
   -1.8888    6.1891    0.0000 C   0  0  0  0  0  0  0  0  0  0  0  0
   -2.6033    4.9516    0.0000 C   0  0  0  0  0  0  0  0  0  0  0  0
    0.9691    6.1891    0.0000 C   0  0  0  0  0  0  0  0  0  0  0  0
   -3.3177    4.5391    0.0000 C   0  0  0  0  0  0  0  0  0  0  0  0
   -4.0322    5.7766    0.0000 C   0  0  0  0  0  0  0  0  0  0  0  0
   -8.0061    8.2989    0.0000 C   0  0  0  0  0  0  0  0  0  0  0  0
   -7.2854    5.6659    0.0000 C   0  0  0  0  0  0  0  0  0  0  0  0
   -2.6033    5.7766    0.0000 C   0  0  0  0  0  0  0  0  0  0  0  0
   -4.7467    6.1891    0.0000 C   0  0  2  0  0  0  0  0  0  0  0  0
   -8.1786    6.6580    0.0000 C   0  0  0  0  0  0  0  0  0  0  0  0
   -4.8329    7.0096    0.0000 C   0  0  2  0  0  0  0  0  0  0  0  0
   -5.6399    7.1811    0.0000 C   0  0  2  0  0  0  0  0  0  0  0  0
   -8.8460    7.1429    0.0000 C   0  0  0  0  0  0  0  0  0  0  0  0
   -7.4249    6.9935    0.0000 C   0  0  0  0  0  0  0  0  0  0  0  0
   -6.0524    6.4667    0.0000 C   0  0  2  0  0  0  0  0  0  0  0  0
    1.6836    5.7766    0.0000 N   0  0  0  0  0  0  0  0  0  0  0  0
   -3.3177    3.7141    0.0000 N   0  0  0  0  0  0  0  0  0  0  0  0
   -9.5997    6.8073    0.0000 N   0  0  0  0  0  0  0  0  0  0  0  0
   -8.7598    7.9634    0.0000 N   0  0  0  0  0  0  0  0  0  0  0  0
   -7.3387    7.8140    0.0000 N   0  0  0  0  0  0  0  0  0  0  0  0
   -8.0923    5.8375    0.0000 N   0  0  0  0  0  0  0  0  0  0  0  0
   -6.8729    6.3804    0.0000 N   0  0  0  0  0  0  0  0  0  0  0  0
   -4.2198    7.5616    0.0000 O   0  0  0  0  0  0  0  0  0  0  0  0
   -5.9754    7.9348    0.0000 O   0  0  0  0  0  0  0  0  0  0  0  0
   -5.5004    5.8536    0.0000 O   0  0  0  0  0  0  0  0  0  0  0  0
   -3.3177    6.1891    0.0000 S   0  0  0  0  0  0  0  0  0  0  0  0
   -4.2502    6.8480    0.0000 H   0  0  0  0  0  0  0  0  0  0  0  0
   -4.0080    6.9952    0.0000 H   0  0  0  0  0  0  0  0  0  0  0  0
   -5.1207    7.8223    0.0000 H   0  0  0  0  0  0  0  0  0  0  0  0
   -6.5017    7.1586    0.0000 H   0  0  0  0  0  0  0  0  0  0  0  0
   -0.4599    7.2591    0.0000 H   0  0  0  0  0  0  0  0  0  0  0  0
    0.4667    6.7241    0.0000 H   0  0  0  0  0  0  0  0  0  0  0  0
   -1.1743    4.7066    0.0000 H   0  0  0  0  0  0  0  0  0  0  0  0
   -2.1009    5.2416    0.0000 H   0  0  0  0  0  0  0  0  0  0  0  0
    0.2546    4.7066    0.0000 H   0  0  0  0  0  0  0  0  0  0  0  0
    1.1812    5.2416    0.0000 H   0  0  0  0  0  0  0  0  0  0  0  0
   -1.8888    7.2591    0.0000 H   0  0  0  0  0  0  0  0  0  0  0  0
   -2.8154    6.7241    0.0000 H   0  0  0  0  0  0  0  0  0  0  0  0
   -1.7096    4.4356    0.0000 H   0  0  0  0  0  0  0  0  0  0  0  0
    0.9691    7.2591    0.0000 H   0  0  0  0  0  0  0  0  0  0  0  0
    1.8957    6.7241    0.0000 H   0  0  0  0  0  0  0  0  0  0  0  0
   -4.2444    5.0741    0.0000 H   0  0  0  0  0  0  0  0  0  0  0  0
   -4.2443    4.0041    0.0000 H   0  0  0  0  0  0  0  0  0  0  0  0
   -4.0322    4.7066    0.0000 H   0  0  0  0  0  0  0  0  0  0  0  0
   -3.1056    5.2416    0.0000 H   0  0  0  0  0  0  0  0  0  0  0  0
   -7.8982    9.3252    0.0000 H   0  0  0  0  0  0  0  0  0  0  0  0
   -6.8657    4.7231    0.0000 H   0  0  0  0  0  0  0  0  0  0  0  0
    1.6836    4.7566    0.0000 H   0  0  0  0  0  0  0  0  0  0  0  0
    2.5669    6.2866    0.0000 H   0  0  0  0  0  0  0  0  0  0  0  0
   -4.2010    3.2041    0.0000 H   0  0  0  0  0  0  0  0  0  0  0  0
   -2.4344    3.2041    0.0000 H   0  0  0  0  0  0  0  0  0  0  0  0
  -10.3962    7.3859    0.0000 H   0  0  0  0  0  0  0  0  0  0  0  0
   -9.7026    5.8282    0.0000 H   0  0  0  0  0  0  0  0  0  0  0  0
   -3.2973    7.2618    0.0000 H   0  0  0  0  0  0  0  0  0  0  0  0
   -5.4052    8.7195    0.0000 H   0  0  0  0  0  0  0  0  0  0  0  0
  1 34  1  0  0  0  0
  1 35  1  0  0  0  0
  2  1  1  0  0  0  0
  2 36  1  0  0  0  0
  2 37  1  0  0  0  0
  3  1  1  0  0  0  0
  3 38  1  0  0  0  0
  3 39  1  0  0  0  0
  4  2  1  0  0  0  0
  4 40  1  0  0  0  0
  4 41  1  0  0  0  0
  5  7  1  0  0  0  0
  5 42  1  0  0  0  0
  6  3  1  0  0  0  0
  6 43  1  0  0  0  0
  6 44  1  0  0  0  0
  7 45  1  0  0  0  0
  7 46  1  0  0  0  0
  8 47  1  0  0  0  0
  8 48  1  0  0  0  0
  9 49  1  0  0  0  0
 10 50  1  0  0  0  0
 11  4  1  0  0  0  0
 11  5  2  3  0  0  0
 12  8  1  0  0  0  0
 12 30  1  6  0  0  0
 14 12  1  0  0  0  0
 14 26  1  0  0  0  0
 14 31  1  1  0  0  0
 15 14  1  0  0  0  0
 15 27  1  0  0  0  0
 15 32  1  1  0  0  0
 16 13  2  0  0  0  0
 17 13  1  0  0  0  0
 18 15  1  0  0  0  0
 18 25  1  0  0  0  0
 18 33  1  6  0  0  0
 19  6  1  0  0  0  0
 19 51  1  0  0  0  0
 19 52  1  0  0  0  0
 20  7  1  0  0  0  0
 20 53  1  0  0  0  0
 20 54  1  0  0  0  0
 21 16  1  0  0  0  0
 21 55  1  0  0  0  0
 21 56  1  0  0  0  0
 22  9  2  0  0  0  0
 22 16  1  0  0  0  0
 23  9  1  0  0  0  0
 23 17  2  0  0  0  0
 24 10  2  0  0  0  0
 24 13  1  0  0  0  0
 25 10  1  0  0  0  0
 25 17  1  0  0  0  0
 26 57  1  0  0  0  0
 27 58  1  0  0  0  0
 28 12  1  0  0  0  0
 28 18  1  0  0  0  0
 29  8  1  0  0  0  0
 29 11  1  0  0  0  0
M  END
>  <DRUGBANK_ID>
DB02844

>  <SECONDARY_ACCESSION_NUMBERS>
EXPT00386

>  <COMMON_NAME>
S-Adenosyl-1,8-Diamino-3-Thiooctane

>  <CAS_NUMBER>
76426-40-9

$$$$
