
 OpenBabel10282417072D

 44 46  0  0  0  0  0  0  0  0999 V2000
    1.1325    2.0596    0.0000 P   0  0  1  0  0  0  0  0  0  0  0  0
    1.4320    3.4567    0.0000 P   0  0  1  0  0  0  0  0  0  0  0  0
    0.6005   -0.7892    0.0000 O   0  0  0  0  0  0  0  0  0  0  0  0
    2.5359   -1.6901    0.0000 O   0  0  0  0  0  0  0  0  0  0  0  0
    2.5390    0.1047    0.0000 O   0  0  0  0  0  0  0  0  0  0  0  0
    1.3860    1.2745    0.0000 O   0  0  0  0  0  0  0  0  0  0  0  0
    0.8789    2.8446    0.0000 O   0  0  0  0  0  0  0  0  0  0  0  0
    1.9176    2.3131    0.0000 O   0  0  0  0  0  0  0  0  0  0  0  0
    0.3474    1.8060    0.0000 O   0  0  0  0  0  0  0  0  0  0  0  0
   -0.6671   -4.5557    0.0000 O   0  0  0  0  0  0  0  0  0  0  0  0
    0.8198    4.0098    0.0000 O   0  0  0  0  0  0  0  0  0  0  0  0
    2.0442    2.9037    0.0000 O   0  0  0  0  0  0  0  0  0  0  0  0
    0.8279   -2.2417    0.0000 N   0  0  0  0  0  0  0  0  0  0  0  0
   -0.6671   -2.0806    0.0000 N   0  0  0  0  0  0  0  0  0  0  0  0
    0.8279   -3.5695    0.0000 N   0  0  0  0  0  0  0  0  0  0  0  0
   -1.3815   -3.3181    0.0000 N   0  0  0  0  0  0  0  0  0  0  0  0
   -2.0961   -2.0806    0.0000 N   0  0  0  0  0  0  0  0  0  0  0  0
    1.9851    4.0689    0.0000 N   0  0  0  0  0  0  0  0  0  0  0  0
    1.8693   -1.2040    0.0000 C   0  0  2  0  0  0  0  0  0  0  0  0
    1.8707   -0.3790    0.0000 C   0  0  1  0  0  0  0  0  0  0  0  0
    1.0843   -1.4575    0.0000 C   0  0  1  0  0  0  0  0  0  0  0  0
    1.0866   -0.1226    0.0000 C   0  0  1  0  0  0  0  0  0  0  0  0
    0.8330    0.6624    0.0000 C   0  0  0  0  0  0  0  0  0  0  0  0
    0.0473   -2.4931    0.0000 C   0  0  0  0  0  0  0  0  0  0  0  0
    1.3094   -2.9056    0.0000 C   0  0  0  0  0  0  0  0  0  0  0  0
    0.0473   -3.3181    0.0000 C   0  0  0  0  0  0  0  0  0  0  0  0
   -0.6671   -3.7306    0.0000 C   0  0  0  0  0  0  0  0  0  0  0  0
   -1.3815   -2.4931    0.0000 C   0  0  0  0  0  0  0  0  0  0  0  0
   -0.6671   -1.5691    0.0000 H   0  0  0  0  0  0  0  0  0  0  0  0
   -2.5390   -2.3364    0.0000 H   0  0  0  0  0  0  0  0  0  0  0  0
   -2.0961   -1.5691    0.0000 H   0  0  0  0  0  0  0  0  0  0  0  0
    1.8279    4.5557    0.0000 H   0  0  0  0  0  0  0  0  0  0  0  0
    2.4853    3.9617    0.0000 H   0  0  0  0  0  0  0  0  0  0  0  0
    2.4328   -2.6546    0.0000 H   0  0  0  0  0  0  0  0  0  0  0  0
    3.4244   -0.2914    0.0000 H   0  0  0  0  0  0  0  0  0  0  0  0
    2.6373    1.6627    0.0000 H   0  0  0  0  0  0  0  0  0  0  0  0
    1.0231    4.9583    0.0000 H   0  0  0  0  0  0  0  0  0  0  0  0
    2.8235   -0.7199    0.0000 H   0  0  0  0  0  0  0  0  0  0  0  0
    2.8232   -0.8664    0.0000 H   0  0  0  0  0  0  0  0  0  0  0  0
    0.0272   -1.6230    0.0000 H   0  0  0  0  0  0  0  0  0  0  0  0
    0.0301    0.0466    0.0000 H   0  0  0  0  0  0  0  0  0  0  0  0
   -0.2132    0.8866    0.0000 H   0  0  0  0  0  0  0  0  0  0  0  0
    0.1157   -0.1316    0.0000 H   0  0  0  0  0  0  0  0  0  0  0  0
    2.3414   -2.9056    0.0000 H   0  0  0  0  0  0  0  0  0  0  0  0
  1  6  1  0  0  0  0
  1  7  1  0  0  0  0
  1  8  1  0  0  0  0
  1  9  2  6  0  0  0
  2  7  1  0  0  0  0
  2 11  1  0  0  0  0
  2 12  2  1  0  0  0
  2 18  1  0  0  0  0
  3 21  1  0  0  0  0
  3 22  1  0  0  0  0
  4 34  1  0  0  0  0
  5 35  1  0  0  0  0
  6 23  1  0  0  0  0
  8 36  1  0  0  0  0
 10 27  2  0  0  0  0
 11 37  1  0  0  0  0
 13 24  1  0  0  0  0
 13 25  1  0  0  0  0
 14 24  1  0  0  0  0
 14 28  1  0  0  0  0
 14 29  1  0  0  0  0
 15 25  2  0  0  0  0
 15 26  1  0  0  0  0
 16 27  1  0  0  0  0
 16 28  2  0  0  0  0
 17 28  1  0  0  0  0
 17 30  1  0  0  0  0
 17 31  1  0  0  0  0
 18 32  1  0  0  0  0
 18 33  1  0  0  0  0
 19  4  1  0  0  0  0
 19 20  1  0  0  0  0
 19 21  1  0  0  0  0
 19 38  1  6  0  0  0
 20  5  1  0  0  0  0
 20 22  1  0  0  0  0
 20 39  1  6  0  0  0
 21 13  1  0  0  0  0
 21 40  1  1  0  0  0
 22 23  1  0  0  0  0
 22 41  1  1  0  0  0
 23 42  1  0  0  0  0
 23 43  1  0  0  0  0
 24 26  2  0  0  0  0
 25 44  1  0  0  0  0
 26 27  1  0  0  0  0
M  END
>  <DRUGBANK_ID>
DB02623

>  <SECONDARY_ACCESSION_NUMBERS>
EXPT01626

>  <COMMON_NAME>
Aminophosphonic acid-guanylate ester

$$$$
