
 OpenBabel10282417072D

 64 63  0  0  0  0  0  0  0  0999 V2000
    6.1875   -5.9240    0.0000 C   0  0  0  0  0  0  0  0  0  0  0  0
    6.3434   -5.1139    0.0000 C   0  0  0  0  0  0  0  0  0  0  0  0
    7.1230   -4.8439    0.0000 O   0  0  0  0  0  0  0  0  0  0  0  0
    7.2789   -4.0337    0.0000 C   0  0  0  0  0  0  0  0  0  0  0  0
    8.0584   -3.7637    0.0000 C   0  0  0  0  0  0  0  0  0  0  0  0
    8.2143   -2.9535    0.0000 P   0  0  0  0  0  0  0  0  0  0  0  0
    7.5907   -2.4135    0.0000 C   0  0  0  0  0  0  0  0  0  0  0  0
    6.8111   -2.6835    0.0000 C   0  0  0  0  0  0  0  0  0  0  0  0
    6.1875   -2.1434    0.0000 O   0  0  0  0  0  0  0  0  0  0  0  0
    5.4079   -2.4135    0.0000 C   0  0  0  0  0  0  0  0  0  0  0  0
    4.7843   -1.8734    0.0000 C   0  0  0  0  0  0  0  0  0  0  0  0
    8.9939   -2.6835    0.0000 C   0  0  0  0  0  0  0  0  0  0  0  0
    9.1498   -1.8734    0.0000 C   0  0  0  0  0  0  0  0  0  0  0  0
    9.9293   -1.6033    0.0000 P   0  0  0  0  0  0  0  0  0  0  0  0
   10.0853   -0.7932    0.0000 C   0  0  0  0  0  0  0  0  0  0  0  0
   10.8648   -0.5231    0.0000 C   0  0  0  0  0  0  0  0  0  0  0  0
   11.0207    0.2870    0.0000 O   0  0  0  0  0  0  0  0  0  0  0  0
   11.8003    0.5570    0.0000 C   0  0  0  0  0  0  0  0  0  0  0  0
   11.9562    1.3672    0.0000 C   0  0  0  0  0  0  0  0  0  0  0  0
   10.5530   -2.1434    0.0000 C   0  0  0  0  0  0  0  0  0  0  0  0
   11.3325   -1.8734    0.0000 C   0  0  0  0  0  0  0  0  0  0  0  0
   11.9562   -2.4135    0.0000 O   0  0  0  0  0  0  0  0  0  0  0  0
   12.7357   -2.1434    0.0000 C   0  0  0  0  0  0  0  0  0  0  0  0
   13.3594   -2.6835    0.0000 C   0  0  0  0  0  0  0  0  0  0  0  0
    5.1764   -6.2742    0.0000 H   0  0  0  0  0  0  0  0  0  0  0  0
    6.9963   -6.6245    0.0000 H   0  0  0  0  0  0  0  0  0  0  0  0
    5.9853   -6.9747    0.0000 H   0  0  0  0  0  0  0  0  0  0  0  0
    5.5346   -4.4134    0.0000 H   0  0  0  0  0  0  0  0  0  0  0  0
    6.5457   -4.0632    0.0000 H   0  0  0  0  0  0  0  0  0  0  0  0
    6.4701   -3.3332    0.0000 H   0  0  0  0  0  0  0  0  0  0  0  0
    7.4811   -2.9830    0.0000 H   0  0  0  0  0  0  0  0  0  0  0  0
    8.8672   -4.4642    0.0000 H   0  0  0  0  0  0  0  0  0  0  0  0
    9.0695   -3.4134    0.0000 H   0  0  0  0  0  0  0  0  0  0  0  0
    7.7929   -1.3628    0.0000 H   0  0  0  0  0  0  0  0  0  0  0  0
    6.7819   -1.7130    0.0000 H   0  0  0  0  0  0  0  0  0  0  0  0
    6.6088   -3.7342    0.0000 H   0  0  0  0  0  0  0  0  0  0  0  0
    5.8000   -3.0337    0.0000 H   0  0  0  0  0  0  0  0  0  0  0  0
    5.2057   -3.4642    0.0000 H   0  0  0  0  0  0  0  0  0  0  0  0
    4.3968   -2.7637    0.0000 H   0  0  0  0  0  0  0  0  0  0  0  0
    4.9866   -0.8227    0.0000 H   0  0  0  0  0  0  0  0  0  0  0  0
    3.7732   -2.2236    0.0000 H   0  0  0  0  0  0  0  0  0  0  0  0
    3.9755   -1.1729    0.0000 H   0  0  0  0  0  0  0  0  0  0  0  0
    9.8027   -3.3840    0.0000 H   0  0  0  0  0  0  0  0  0  0  0  0
   10.0050   -2.3333    0.0000 H   0  0  0  0  0  0  0  0  0  0  0  0
    8.3409   -1.1730    0.0000 H   0  0  0  0  0  0  0  0  0  0  0  0
    9.3519   -0.8227    0.0000 H   0  0  0  0  0  0  0  0  0  0  0  0
    9.2765   -0.0927    0.0000 H   0  0  0  0  0  0  0  0  0  0  0  0
   10.2875    0.2575    0.0000 H   0  0  0  0  0  0  0  0  0  0  0  0
   11.6737   -1.2235    0.0000 H   0  0  0  0  0  0  0  0  0  0  0  0
   11.8758   -0.1728    0.0000 H   0  0  0  0  0  0  0  0  0  0  0  0
   12.6091   -0.1435    0.0000 H   0  0  0  0  0  0  0  0  0  0  0  0
   12.8114    0.9072    0.0000 H   0  0  0  0  0  0  0  0  0  0  0  0
   12.9672    1.7175    0.0000 H   0  0  0  0  0  0  0  0  0  0  0  0
   11.1473    2.0677    0.0000 H   0  0  0  0  0  0  0  0  0  0  0  0
   12.1584    2.4179    0.0000 H   0  0  0  0  0  0  0  0  0  0  0  0
   10.3508   -3.1941    0.0000 H   0  0  0  0  0  0  0  0  0  0  0  0
   11.3618   -2.8439    0.0000 H   0  0  0  0  0  0  0  0  0  0  0  0
   11.5347   -0.8227    0.0000 H   0  0  0  0  0  0  0  0  0  0  0  0
   12.3435   -1.5231    0.0000 H   0  0  0  0  0  0  0  0  0  0  0  0
   12.9378   -1.0927    0.0000 H   0  0  0  0  0  0  0  0  0  0  0  0
   13.7467   -1.7931    0.0000 H   0  0  0  0  0  0  0  0  0  0  0  0
   13.1572   -3.7342    0.0000 H   0  0  0  0  0  0  0  0  0  0  0  0
   14.3704   -2.3332    0.0000 H   0  0  0  0  0  0  0  0  0  0  0  0
   14.1683   -3.3839    0.0000 H   0  0  0  0  0  0  0  0  0  0  0  0
  1  2  1  0  0  0  0
  1 25  1  0  0  0  0
  1 26  1  0  0  0  0
  1 27  1  0  0  0  0
  2  3  1  0  0  0  0
  2 28  1  0  0  0  0
  2 29  1  0  0  0  0
  3  4  1  0  0  0  0
  4  5  1  0  0  0  0
  4 30  1  0  0  0  0
  4 31  1  0  0  0  0
  5  6  1  0  0  0  0
  5 32  1  0  0  0  0
  5 33  1  0  0  0  0
  6  7  1  0  0  0  0
  6 12  1  0  0  0  0
  7  8  1  0  0  0  0
  7 34  1  0  0  0  0
  7 35  1  0  0  0  0
  8  9  1  0  0  0  0
  8 36  1  0  0  0  0
  8 37  1  0  0  0  0
  9 10  1  0  0  0  0
 10 11  1  0  0  0  0
 10 38  1  0  0  0  0
 10 39  1  0  0  0  0
 11 40  1  0  0  0  0
 11 41  1  0  0  0  0
 11 42  1  0  0  0  0
 12 13  1  0  0  0  0
 12 43  1  0  0  0  0
 12 44  1  0  0  0  0
 13 14  1  0  0  0  0
 13 45  1  0  0  0  0
 13 46  1  0  0  0  0
 14 15  1  0  0  0  0
 14 20  1  0  0  0  0
 15 16  1  0  0  0  0
 15 47  1  0  0  0  0
 15 48  1  0  0  0  0
 16 17  1  0  0  0  0
 16 49  1  0  0  0  0
 16 50  1  0  0  0  0
 17 18  1  0  0  0  0
 18 19  1  0  0  0  0
 18 51  1  0  0  0  0
 18 52  1  0  0  0  0
 19 53  1  0  0  0  0
 19 54  1  0  0  0  0
 19 55  1  0  0  0  0
 20 21  1  0  0  0  0
 20 56  1  0  0  0  0
 20 57  1  0  0  0  0
 21 22  1  0  0  0  0
 21 58  1  0  0  0  0
 21 59  1  0  0  0  0
 22 23  1  0  0  0  0
 23 24  1  0  0  0  0
 23 60  1  0  0  0  0
 23 61  1  0  0  0  0
 24 62  1  0  0  0  0
 24 63  1  0  0  0  0
 24 64  1  0  0  0  0
M  END
>  <DRUGBANK_ID>
DB11180

>  <COMMON_NAME>
Tetrofosmin

>  <CAS_NUMBER>
127502-06-1

>  <UNII>
3J0KPB596Q

>  <SYNONYMS>
Tetrofosmin; Tetrofosmina

$$$$
