
 OpenBabel10282417072D

136135  0  0  0  0  0  0  0  0999 V2000
    6.8000    1.8369    0.0000 P   0  0  3  0  0  0  0  0  0  0  0  0
    7.1772    1.1031    0.0000 O   0  0  0  0  0  0  0  0  0  0  0  0
    8.0012    1.0628    0.0000 C   0  0  0  0  0  0  0  0  0  0  0  0
    8.3783    0.3290    0.0000 C   0  0  1  0  0  0  0  0  0  0  0  0
    9.2024    0.2888    0.0000 C   0  0  0  0  0  0  0  0  0  0  0  0
    9.6492    0.9822    0.0000 O   0  0  0  0  0  0  0  0  0  0  0  0
    9.5794   -0.4449    0.0000 O   0  0  0  0  0  0  0  0  0  0  0  0
    7.9314   -0.3644    0.0000 N   0  0  0  0  0  0  0  0  0  0  0  0
    7.5337    2.2141    0.0000 O   0  0  0  0  0  0  0  0  0  0  0  0
    6.0662    1.4598    0.0000 O   0  0  0  0  0  0  0  0  0  0  0  0
    5.3728    1.9067    0.0000 C   0  0  0  0  0  0  0  0  0  0  0  0
    4.6388    1.5296    0.0000 C   0  0  1  0  0  0  0  0  0  0  0  0
    3.9454    1.9764    0.0000 C   0  0  0  0  0  0  0  0  0  0  0  0
    3.2116    1.5993    0.0000 O   0  0  0  0  0  0  0  0  0  0  0  0
    4.5986    0.7054    0.0000 O   0  0  0  0  0  0  0  0  0  0  0  0
    6.4228    2.5706    0.0000 O   0  0  0  0  0  0  0  0  0  0  0  0
    2.4972    2.0118    0.0000 C   0  0  0  0  0  0  0  0  0  0  0  0
    1.7825    1.5993    0.0000 C   0  0  0  0  0  0  0  0  0  0  0  0
    1.0681    2.0118    0.0000 C   0  0  0  0  0  0  0  0  0  0  0  0
    0.3537    1.5993    0.0000 C   0  0  0  0  0  0  0  0  0  0  0  0
   -0.3608    2.0118    0.0000 C   0  0  0  0  0  0  0  0  0  0  0  0
   -1.0753    1.5993    0.0000 C   0  0  0  0  0  0  0  0  0  0  0  0
   -1.7898    2.0118    0.0000 C   0  0  0  0  0  0  0  0  0  0  0  0
   -2.5042    1.5993    0.0000 C   0  0  0  0  0  0  0  0  0  0  0  0
   -3.2188    2.0118    0.0000 C   0  0  0  0  0  0  0  0  0  0  0  0
   -3.9332    1.5993    0.0000 C   0  0  0  0  0  0  0  0  0  0  0  0
   -4.6478    2.0118    0.0000 C   0  0  0  0  0  0  0  0  0  0  0  0
   -5.3622    1.5993    0.0000 C   0  0  0  0  0  0  0  0  0  0  0  0
   -6.0768    2.0118    0.0000 C   0  0  0  0  0  0  0  0  0  0  0  0
   -6.7912    1.5993    0.0000 C   0  0  0  0  0  0  0  0  0  0  0  0
   -7.5058    2.0118    0.0000 C   0  0  0  0  0  0  0  0  0  0  0  0
   -8.2203    1.5993    0.0000 C   0  0  0  0  0  0  0  0  0  0  0  0
    4.0152    0.1221    0.0000 C   0  0  0  0  0  0  0  0  0  0  0  0
    3.2183    0.3356    0.0000 C   0  0  0  0  0  0  0  0  0  0  0  0
    2.6350   -0.2477    0.0000 C   0  0  0  0  0  0  0  0  0  0  0  0
    1.8380   -0.0342    0.0000 C   0  0  0  0  0  0  0  0  0  0  0  0
    1.2547   -0.6176    0.0000 C   0  0  0  0  0  0  0  0  0  0  0  0
    0.4577   -0.4041    0.0000 C   0  0  0  0  0  0  0  0  0  0  0  0
   -0.1255   -0.9874    0.0000 C   0  0  0  0  0  0  0  0  0  0  0  0
   -0.9225   -0.7739    0.0000 C   0  0  0  0  0  0  0  0  0  0  0  0
   -1.5058   -1.3573    0.0000 C   0  0  0  0  0  0  0  0  0  0  0  0
   -2.3028   -1.1437    0.0000 C   0  0  0  0  0  0  0  0  0  0  0  0
   -2.8862   -1.7271    0.0000 C   0  0  0  0  0  0  0  0  0  0  0  0
   -3.6832   -1.5136    0.0000 C   0  0  0  0  0  0  0  0  0  0  0  0
   -4.2664   -2.0970    0.0000 C   0  0  0  0  0  0  0  0  0  0  0  0
   -5.0634   -1.8835    0.0000 C   0  0  0  0  0  0  0  0  0  0  0  0
   -5.6469   -2.4668    0.0000 C   0  0  0  0  0  0  0  0  0  0  0  0
   -6.4437   -2.2533    0.0000 C   0  0  0  0  0  0  0  0  0  0  0  0
    2.4972    2.8368    0.0000 O   0  0  0  0  0  0  0  0  0  0  0  0
    4.2288   -0.6748    0.0000 O   0  0  0  0  0  0  0  0  0  0  0  0
   -8.9347    2.0118    0.0000 C   0  0  0  0  0  0  0  0  0  0  0  0
   -9.6492    1.5993    0.0000 C   0  0  0  0  0  0  0  0  0  0  0  0
   -7.0271   -2.8368    0.0000 C   0  0  0  0  0  0  0  0  0  0  0  0
   -7.8241   -2.6231    0.0000 C   0  0  0  0  0  0  0  0  0  0  0  0
    8.5808    1.9622    0.0000 H   0  0  0  0  0  0  0  0  0  0  0  0
    9.0699    1.0105    0.0000 H   0  0  0  0  0  0  0  0  0  0  0  0
    7.3096    0.3813    0.0000 H   0  0  0  0  0  0  0  0  0  0  0  0
    9.0718   -1.2325    0.0000 H   0  0  0  0  0  0  0  0  0  0  0  0
    6.9126   -0.3145    0.0000 H   0  0  0  0  0  0  0  0  0  0  0  0
    8.3976   -1.2716    0.0000 H   0  0  0  0  0  0  0  0  0  0  0  0
    5.4252    2.9754    0.0000 H   0  0  0  0  0  0  0  0  0  0  0  0
    4.4735    2.4864    0.0000 H   0  0  0  0  0  0  0  0  0  0  0  0
    5.5382    0.9500    0.0000 H   0  0  0  0  0  0  0  0  0  0  0  0
    3.9976    3.0451    0.0000 H   0  0  0  0  0  0  0  0  0  0  0  0
    3.0460    2.5560    0.0000 H   0  0  0  0  0  0  0  0  0  0  0  0
    6.9481    3.3860    0.0000 H   0  0  0  0  0  0  0  0  0  0  0  0
    1.7824    0.5293    0.0000 H   0  0  0  0  0  0  0  0  0  0  0  0
    0.8558    1.0644    0.0000 H   0  0  0  0  0  0  0  0  0  0  0  0
    1.0681    3.0818    0.0000 H   0  0  0  0  0  0  0  0  0  0  0  0
    0.1414    2.5468    0.0000 H   0  0  0  0  0  0  0  0  0  0  0  0
    0.3537    0.5293    0.0000 H   0  0  0  0  0  0  0  0  0  0  0  0
   -0.5729    1.0643    0.0000 H   0  0  0  0  0  0  0  0  0  0  0  0
   -0.3608    3.0818    0.0000 H   0  0  0  0  0  0  0  0  0  0  0  0
   -1.2874    2.5468    0.0000 H   0  0  0  0  0  0  0  0  0  0  0  0
   -1.0753    0.5293    0.0000 H   0  0  0  0  0  0  0  0  0  0  0  0
   -2.0019    1.0643    0.0000 H   0  0  0  0  0  0  0  0  0  0  0  0
   -1.7898    3.0818    0.0000 H   0  0  0  0  0  0  0  0  0  0  0  0
   -2.7165    2.5468    0.0000 H   0  0  0  0  0  0  0  0  0  0  0  0
   -2.5041    0.5293    0.0000 H   0  0  0  0  0  0  0  0  0  0  0  0
   -3.4308    1.0642    0.0000 H   0  0  0  0  0  0  0  0  0  0  0  0
   -3.2189    3.0818    0.0000 H   0  0  0  0  0  0  0  0  0  0  0  0
   -4.1455    2.5468    0.0000 H   0  0  0  0  0  0  0  0  0  0  0  0
   -3.9331    0.5293    0.0000 H   0  0  0  0  0  0  0  0  0  0  0  0
   -4.8598    1.0642    0.0000 H   0  0  0  0  0  0  0  0  0  0  0  0
   -4.6479    3.0818    0.0000 H   0  0  0  0  0  0  0  0  0  0  0  0
   -5.5745    2.5468    0.0000 H   0  0  0  0  0  0  0  0  0  0  0  0
   -5.3621    0.5293    0.0000 H   0  0  0  0  0  0  0  0  0  0  0  0
   -6.2888    1.0642    0.0000 H   0  0  0  0  0  0  0  0  0  0  0  0
   -6.0769    3.0818    0.0000 H   0  0  0  0  0  0  0  0  0  0  0  0
   -7.0035    2.5468    0.0000 H   0  0  0  0  0  0  0  0  0  0  0  0
   -6.7911    0.5293    0.0000 H   0  0  0  0  0  0  0  0  0  0  0  0
   -7.7178    1.0642    0.0000 H   0  0  0  0  0  0  0  0  0  0  0  0
   -7.5058    3.0818    0.0000 H   0  0  0  0  0  0  0  0  0  0  0  0
   -8.4325    2.5468    0.0000 H   0  0  0  0  0  0  0  0  0  0  0  0
   -8.2203    0.5293    0.0000 H   0  0  0  0  0  0  0  0  0  0  0  0
   -9.1470    1.0643    0.0000 H   0  0  0  0  0  0  0  0  0  0  0  0
    2.9413    1.3691    0.0000 H   0  0  0  0  0  0  0  0  0  0  0  0
    2.1848    0.6125    0.0000 H   0  0  0  0  0  0  0  0  0  0  0  0
    2.9120   -1.2812    0.0000 H   0  0  0  0  0  0  0  0  0  0  0  0
    1.8784   -1.0043    0.0000 H   0  0  0  0  0  0  0  0  0  0  0  0
    1.5610    0.9993    0.0000 H   0  0  0  0  0  0  0  0  0  0  0  0
    0.8044    0.2427    0.0000 H   0  0  0  0  0  0  0  0  0  0  0  0
    1.5317   -1.6511    0.0000 H   0  0  0  0  0  0  0  0  0  0  0  0
    0.4981   -1.3743    0.0000 H   0  0  0  0  0  0  0  0  0  0  0  0
    0.1807    0.6294    0.0000 H   0  0  0  0  0  0  0  0  0  0  0  0
   -0.5759   -0.1272    0.0000 H   0  0  0  0  0  0  0  0  0  0  0  0
    0.1515   -2.0209    0.0000 H   0  0  0  0  0  0  0  0  0  0  0  0
   -0.8821   -1.7441    0.0000 H   0  0  0  0  0  0  0  0  0  0  0  0
   -1.1995    0.2596    0.0000 H   0  0  0  0  0  0  0  0  0  0  0  0
   -1.9561   -0.4970    0.0000 H   0  0  0  0  0  0  0  0  0  0  0  0
   -1.2288   -2.3908    0.0000 H   0  0  0  0  0  0  0  0  0  0  0  0
   -2.2624   -2.1139    0.0000 H   0  0  0  0  0  0  0  0  0  0  0  0
   -2.5797   -0.1102    0.0000 H   0  0  0  0  0  0  0  0  0  0  0  0
   -3.3363   -0.8668    0.0000 H   0  0  0  0  0  0  0  0  0  0  0  0
   -2.6092   -2.7606    0.0000 H   0  0  0  0  0  0  0  0  0  0  0  0
   -3.6428   -2.4837    0.0000 H   0  0  0  0  0  0  0  0  0  0  0  0
   -3.9603   -0.4801    0.0000 H   0  0  0  0  0  0  0  0  0  0  0  0
   -4.7168   -1.2368    0.0000 H   0  0  0  0  0  0  0  0  0  0  0  0
   -3.9893   -3.1305    0.0000 H   0  0  0  0  0  0  0  0  0  0  0  0
   -5.0229   -2.8537    0.0000 H   0  0  0  0  0  0  0  0  0  0  0  0
   -5.3403   -0.8499    0.0000 H   0  0  0  0  0  0  0  0  0  0  0  0
   -6.0969   -1.6064    0.0000 H   0  0  0  0  0  0  0  0  0  0  0  0
   -5.3701   -3.5004    0.0000 H   0  0  0  0  0  0  0  0  0  0  0  0
   -6.4035   -3.2234    0.0000 H   0  0  0  0  0  0  0  0  0  0  0  0
   -6.7207   -1.2198    0.0000 H   0  0  0  0  0  0  0  0  0  0  0  0
   -7.4773   -1.9764    0.0000 H   0  0  0  0  0  0  0  0  0  0  0  0
   -8.9347    3.0818    0.0000 H   0  0  0  0  0  0  0  0  0  0  0  0
   -9.8613    2.5468    0.0000 H   0  0  0  0  0  0  0  0  0  0  0  0
  -10.5758    2.1343    0.0000 H   0  0  0  0  0  0  0  0  0  0  0  0
   -9.6492    0.5293    0.0000 H   0  0  0  0  0  0  0  0  0  0  0  0
  -10.5759    1.0643    0.0000 H   0  0  0  0  0  0  0  0  0  0  0  0
   -6.7502   -3.8704    0.0000 H   0  0  0  0  0  0  0  0  0  0  0  0
   -7.7838   -3.5933    0.0000 H   0  0  0  0  0  0  0  0  0  0  0  0
   -8.1009   -1.5895    0.0000 H   0  0  0  0  0  0  0  0  0  0  0  0
   -8.5808   -3.3796    0.0000 H   0  0  0  0  0  0  0  0  0  0  0  0
   -8.8576   -2.3460    0.0000 H   0  0  0  0  0  0  0  0  0  0  0  0
  2  1  1  0  0  0  0
  3  2  1  0  0  0  0
  3 55  1  0  0  0  0
  3 56  1  0  0  0  0
  4  3  1  0  0  0  0
  4  8  1  0  0  0  0
  4 57  1  6  0  0  0
  5  4  1  0  0  0  0
  6  5  2  0  0  0  0
  7  5  1  0  0  0  0
  7 58  1  0  0  0  0
  8 59  1  0  0  0  0
  8 60  1  0  0  0  0
  9  1  2  0  0  0  0
 10  1  1  0  0  0  0
 10 11  1  0  0  0  0
 11 12  1  0  0  0  0
 11 61  1  0  0  0  0
 11 62  1  0  0  0  0
 12 13  1  0  0  0  0
 12 15  1  0  0  0  0
 12 63  1  1  0  0  0
 13 14  1  0  0  0  0
 13 64  1  0  0  0  0
 13 65  1  0  0  0  0
 14 17  1  0  0  0  0
 15 33  1  0  0  0  0
 16  1  1  0  0  0  0
 16 66  1  0  0  0  0
 17 18  1  0  0  0  0
 17 49  2  0  0  0  0
 18 19  1  0  0  0  0
 18 67  1  0  0  0  0
 18 68  1  0  0  0  0
 19 20  1  0  0  0  0
 19 69  1  0  0  0  0
 19 70  1  0  0  0  0
 20 21  1  0  0  0  0
 20 71  1  0  0  0  0
 20 72  1  0  0  0  0
 21 22  1  0  0  0  0
 21 73  1  0  0  0  0
 21 74  1  0  0  0  0
 22 23  1  0  0  0  0
 22 75  1  0  0  0  0
 22 76  1  0  0  0  0
 23 24  1  0  0  0  0
 23 77  1  0  0  0  0
 23 78  1  0  0  0  0
 24 25  1  0  0  0  0
 24 79  1  0  0  0  0
 24 80  1  0  0  0  0
 25 26  1  0  0  0  0
 25 81  1  0  0  0  0
 25 82  1  0  0  0  0
 26 27  1  0  0  0  0
 26 83  1  0  0  0  0
 26 84  1  0  0  0  0
 27 28  1  0  0  0  0
 27 85  1  0  0  0  0
 27 86  1  0  0  0  0
 28 29  1  0  0  0  0
 28 87  1  0  0  0  0
 28 88  1  0  0  0  0
 29 30  1  0  0  0  0
 29 89  1  0  0  0  0
 29 90  1  0  0  0  0
 30 31  1  0  0  0  0
 30 91  1  0  0  0  0
 30 92  1  0  0  0  0
 31 32  1  0  0  0  0
 31 93  1  0  0  0  0
 31 94  1  0  0  0  0
 32 51  1  0  0  0  0
 32 95  1  0  0  0  0
 32 96  1  0  0  0  0
 33 34  1  0  0  0  0
 33 50  2  0  0  0  0
 34 35  1  0  0  0  0
 34 97  1  0  0  0  0
 34 98  1  0  0  0  0
 35 36  1  0  0  0  0
 35 99  1  0  0  0  0
 35100  1  0  0  0  0
 36 37  1  0  0  0  0
 36101  1  0  0  0  0
 36102  1  0  0  0  0
 37 38  1  0  0  0  0
 37103  1  0  0  0  0
 37104  1  0  0  0  0
 38 39  1  0  0  0  0
 38105  1  0  0  0  0
 38106  1  0  0  0  0
 39 40  1  0  0  0  0
 39107  1  0  0  0  0
 39108  1  0  0  0  0
 40 41  1  0  0  0  0
 40109  1  0  0  0  0
 40110  1  0  0  0  0
 41 42  1  0  0  0  0
 41111  1  0  0  0  0
 41112  1  0  0  0  0
 42 43  1  0  0  0  0
 42113  1  0  0  0  0
 42114  1  0  0  0  0
 43 44  1  0  0  0  0
 43115  1  0  0  0  0
 43116  1  0  0  0  0
 44 45  1  0  0  0  0
 44117  1  0  0  0  0
 44118  1  0  0  0  0
 45 46  1  0  0  0  0
 45119  1  0  0  0  0
 45120  1  0  0  0  0
 46 47  1  0  0  0  0
 46121  1  0  0  0  0
 46122  1  0  0  0  0
 47 48  1  0  0  0  0
 47123  1  0  0  0  0
 47124  1  0  0  0  0
 48 53  1  0  0  0  0
 48125  1  0  0  0  0
 48126  1  0  0  0  0
 51 52  1  0  0  0  0
 51127  1  0  0  0  0
 51128  1  0  0  0  0
 52129  1  0  0  0  0
 52130  1  0  0  0  0
 52131  1  0  0  0  0
 53 54  1  0  0  0  0
 53132  1  0  0  0  0
 53133  1  0  0  0  0
 54134  1  0  0  0  0
 54135  1  0  0  0  0
 54136  1  0  0  0  0
M  END
>  <DRUGBANK_ID>
DB00144

>  <SECONDARY_ACCESSION_NUMBERS>
NUTR00048

>  <COMMON_NAME>
Phosphatidyl serine

>  <CAS_NUMBER>
1446756-47-3

>  <UNII>
394XK0IH40

>  <SYNONYMS>
Phosphatidyl serine; Phosphatidylserine; PS

$$$$
