
 OpenBabel10282417072D

 49 51  0  0  0  0  0  0  0  0999 V2000
    2.9475    0.7879    0.0000 N   0  0  0  0  0  0  0  0  0  0  0  0
    2.1630    1.0427    0.0000 C   0  0  0  0  0  0  0  0  0  0  0  0
    2.9647   -1.2966    0.0000 C   0  0  2  0  0  0  0  0  0  0  0  0
    3.4325    1.4551    0.0000 C   0  0  0  0  0  0  0  0  0  0  0  0
    2.1630    1.8677    0.0000 C   0  0  0  0  0  0  0  0  0  0  0  0
    1.5512    0.6553    0.0000 N   0  0  0  0  0  0  0  0  0  0  0  0
    1.8750   -0.7789    0.0000 O   0  0  0  0  0  0  0  0  0  0  0  0
    2.5484   -2.1114    0.0000 C   0  0  1  0  0  0  0  0  0  0  0  0
    2.9475    2.1225    0.0000 N   0  0  0  0  0  0  0  0  0  0  0  0
    1.5294    2.1434    0.0000 C   0  0  0  0  0  0  0  0  0  0  0  0
    0.9139    1.0463    0.0000 C   0  0  0  0  0  0  0  0  0  0  0  0
    0.8829   -1.2966    0.0000 C   0  0  1  0  0  0  0  0  0  0  0  0
    1.2919   -2.1114    0.0000 C   0  0  1  0  0  0  0  0  0  0  0  0
    2.9274   -2.8328    0.0000 O   0  0  0  0  0  0  0  0  0  0  0  0
    0.9139    1.7416    0.0000 N   0  0  0  0  0  0  0  0  0  0  0  0
    1.5294    2.8328    0.0000 N   0  0  0  0  0  0  0  0  0  0  0  0
    0.7603   -0.3749    0.0000 C   0  0  0  0  0  0  0  0  0  0  0  0
    0.8938   -2.7954    0.0000 O   0  0  0  0  0  0  0  0  0  0  0  0
    0.0832    0.0633    0.0000 S   0  3  3  0  0  0  0  0  0  0  0  0
   -0.5973   -0.3749    0.0000 C   0  0  0  0  0  0  0  0  0  0  0  0
    0.0669    0.9530    0.0000 C   0  0  0  0  0  0  0  0  0  0  0  0
   -1.2961    0.0633    0.0000 C   0  0  0  0  0  0  0  0  0  0  0  0
   -1.9951   -0.3749    0.0000 C   0  0  1  0  0  0  0  0  0  0  0  0
   -2.7229    0.0885    0.0000 C   0  0  0  0  0  0  0  0  0  0  0  0
   -1.9835   -1.2587    0.0000 N   0  0  0  0  0  0  0  0  0  0  0  0
   -3.4325   -0.3749    0.0000 O   0  0  0  0  0  0  0  0  0  0  0  0
   -2.7229    0.8525    0.0000 O   0  5  0  0  0  0  0  0  0  0  0  0
    2.3893   -0.3945    0.0000 H   0  0  0  0  0  0  0  0  0  0  0  0
    4.4645    1.4550    0.0000 H   0  0  0  0  0  0  0  0  0  0  0  0
    3.6184   -2.1053    0.0000 H   0  0  0  0  0  0  0  0  0  0  0  0
    0.0134    0.5423    0.0000 H   0  0  0  0  0  0  0  0  0  0  0  0
    1.3759   -0.3469    0.0000 H   0  0  0  0  0  0  0  0  0  0  0  0
    1.8253   -3.0390    0.0000 H   0  0  0  0  0  0  0  0  0  0  0  0
    2.4093   -3.6528    0.0000 H   0  0  0  0  0  0  0  0  0  0  0  0
    2.3820    3.3251    0.0000 H   0  0  0  0  0  0  0  0  0  0  0  0
    0.6768    3.3251    0.0000 H   0  0  0  0  0  0  0  0  0  0  0  0
    1.6644    0.1974    0.0000 H   0  0  0  0  0  0  0  0  0  0  0  0
    0.7657    0.6951    0.0000 H   0  0  0  0  0  0  0  0  0  0  0  0
   -0.0762   -2.7920    0.0000 H   0  0  0  0  0  0  0  0  0  0  0  0
   -0.5909   -1.4449    0.0000 H   0  0  0  0  0  0  0  0  0  0  0  0
   -1.5320   -0.8957    0.0000 H   0  0  0  0  0  0  0  0  0  0  0  0
    0.9836    1.5049    0.0000 H   0  0  0  0  0  0  0  0  0  0  0  0
   -0.8694    1.4709    0.0000 H   0  0  0  0  0  0  0  0  0  0  0  0
    0.0473    2.0228    0.0000 H   0  0  0  0  0  0  0  0  0  0  0  0
   -1.2960    1.1333    0.0000 H   0  0  0  0  0  0  0  0  0  0  0  0
   -2.2323    0.5814    0.0000 H   0  0  0  0  0  0  0  0  0  0  0  0
   -1.0555   -0.8868    0.0000 H   0  0  0  0  0  0  0  0  0  0  0  0
   -2.8601   -1.7802    0.0000 H   0  0  0  0  0  0  0  0  0  0  0  0
   -1.0935   -1.7571    0.0000 H   0  0  0  0  0  0  0  0  0  0  0  0
  1  2  1  0  0  0  0
  1  4  1  0  0  0  0
  2  5  2  0  0  0  0
  2  6  1  0  0  0  0
  3  1  1  0  0  0  0
  3  7  1  0  0  0  0
  3  8  1  0  0  0  0
  3 28  1  6  0  0  0
  4  9  2  0  0  0  0
  4 29  1  0  0  0  0
  5 10  1  0  0  0  0
  5  9  1  0  0  0  0
  6 11  2  0  0  0  0
  7 12  1  0  0  0  0
  8 13  1  0  0  0  0
  8 14  1  0  0  0  0
  8 30  1  1  0  0  0
 10 15  2  0  0  0  0
 10 16  1  0  0  0  0
 11 15  1  0  0  0  0
 11 31  1  0  0  0  0
 12 17  1  0  0  0  0
 12 13  1  0  0  0  0
 12 32  1  6  0  0  0
 13 18  1  0  0  0  0
 13 33  1  1  0  0  0
 14 34  1  0  0  0  0
 16 35  1  0  0  0  0
 16 36  1  0  0  0  0
 17 19  1  0  0  0  0
 17 37  1  0  0  0  0
 17 38  1  0  0  0  0
 18 39  1  0  0  0  0
 19 20  1  0  0  0  0
 19 21  1  0  0  0  0
 20 22  1  0  0  0  0
 20 40  1  0  0  0  0
 20 41  1  0  0  0  0
 21 42  1  0  0  0  0
 21 43  1  0  0  0  0
 21 44  1  0  0  0  0
 22 23  1  0  0  0  0
 22 45  1  0  0  0  0
 22 46  1  0  0  0  0
 23 24  1  0  0  0  0
 23 25  1  0  0  0  0
 23 47  1  1  0  0  0
 24 26  2  0  0  0  0
 24 27  1  0  0  0  0
 25 48  1  0  0  0  0
 25 49  1  0  0  0  0
M  CHG  2  19   1  27  -1
M  END
>  <DRUGBANK_ID>
DB00118

>  <SECONDARY_ACCESSION_NUMBERS>
NUTR00052

>  <COMMON_NAME>
Ademetionine

>  <CAS_NUMBER>
29908-03-0

>  <UNII>
7LP2MPO46S

>  <SYNONYMS>
Ademetionine; AdoMet; L-S-Adenosylmethionine; S-Adenosylmethionine; SAM; SAM-e; SAMe

$$$$
