
 OpenBabel10282417072D

169173  0  0  0  0  0  0  0  0999 V2000
   -3.5668   -7.3220    0.0000 O   0  0  0  0  0  0  0  0  0  0  0  0
   -4.1613   -6.7500    0.0000 C   0  0  0  0  0  0  0  0  0  0  0  0
   -4.9539   -6.9788    0.0000 C   0  0  1  0  0  0  0  0  0  0  0  0
   -5.1521   -7.7796    0.0000 C   0  0  0  0  0  0  0  0  0  0  0  0
   -5.9447   -8.0084    0.0000 C   0  0  0  0  0  0  0  0  0  0  0  0
   -5.5484   -6.4067    0.0000 C   0  0  0  0  0  0  0  0  0  0  0  0
   -3.9631   -5.9491    0.0000 N   0  0  0  0  0  0  0  0  0  0  0  0
   -4.5576   -5.3771    0.0000 C   0  0  1  0  0  0  0  0  0  0  0  0
   -3.7650   -5.1483    0.0000 O   0  0  0  0  0  0  0  0  0  0  0  0
   -5.3502   -5.6059    0.0000 C   0  0  1  0  0  0  0  0  0  0  0  0
   -5.9447   -5.0338    0.0000 C   0  0  0  0  0  0  0  0  0  0  0  0
   -5.1521   -4.8050    0.0000 C   0  0  1  0  0  0  0  0  0  0  0  0
   -5.9278   -4.5243    0.0000 C   0  0  0  0  0  0  0  0  0  0  0  0
   -4.9539   -4.0042    0.0000 C   0  0  1  0  0  0  0  0  0  0  0  0
   -5.5484   -3.4322    0.0000 O   0  0  0  0  0  0  0  0  0  0  0  0
   -4.1613   -3.7754    0.0000 C   0  0  1  0  0  0  0  0  0  0  0  0
   -3.9631   -2.9745    0.0000 C   0  0  0  0  0  0  0  0  0  0  0  0
   -3.5668   -4.3474    0.0000 C   0  0  2  0  0  0  0  0  0  0  0  0
   -2.7742   -4.1186    0.0000 C   0  0  0  0  0  0  0  0  0  0  0  0
   -2.5760   -3.3177    0.0000 C   0  0  2  0  0  0  0  0  0  0  0  0
   -3.1705   -2.7457    0.0000 O   0  0  0  0  0  0  0  0  0  0  0  0
   -1.7834   -3.0889    0.0000 C   0  0  1  0  0  0  0  0  0  0  0  0
   -1.1889   -3.6610    0.0000 C   0  0  0  0  0  0  0  0  0  0  0  0
   -1.5852   -2.2881    0.0000 C   0  0  0  0  0  0  0  0  0  0  0  0
   -0.7926   -2.0593    0.0000 C   0  0  0  0  0  0  0  0  0  0  0  0
   -0.5944   -1.2584    0.0000 C   0  0  0  0  0  0  0  0  0  0  0  0
   -1.1889   -0.6864    0.0000 C   0  0  0  0  0  0  0  0  0  0  0  0
   -0.9908    0.1144    0.0000 C   0  0  0  0  0  0  0  0  0  0  0  0
   -1.5852    0.6864    0.0000 C   0  0  0  0  0  0  0  0  0  0  0  0
   -2.3779    0.4576    0.0000 C   0  0  0  0  0  0  0  0  0  0  0  0
   -1.3871    1.4872    0.0000 C   0  0  1  0  0  0  0  0  0  0  0  0
   -2.1797    1.2584    0.0000 O   0  0  0  0  0  0  0  0  0  0  0  0
   -0.7926    0.9152    0.0000 C   0  0  0  0  0  0  0  0  0  0  0  0
    0.0000    1.1440    0.0000 C   0  0  0  0  0  0  0  0  0  0  0  0
    0.1981    1.9449    0.0000 C   0  0  0  0  0  0  0  0  0  0  0  0
    0.9907    2.1737    0.0000 C   0  0  0  0  0  0  0  0  0  0  0  0
    1.1889    2.9745    0.0000 C   0  0  0  0  0  0  0  0  0  0  0  0
    1.9815    3.2033    0.0000 C   0  0  2  0  0  0  0  0  0  0  0  0
    2.5760    2.6313    0.0000 O   0  0  0  0  0  0  0  0  0  0  0  0
    2.1797    4.0042    0.0000 C   0  0  2  0  0  0  0  0  0  0  0  0
    1.5852    4.5762    0.0000 C   0  0  0  0  0  0  0  0  0  0  0  0
    2.9723    4.2330    0.0000 C   0  0  1  0  0  0  0  0  0  0  0  0
    3.5668    3.6610    0.0000 O   0  0  0  0  0  0  0  0  0  0  0  0
    3.1705    5.0339    0.0000 C   0  0  1  0  0  0  0  0  0  0  0  0
    3.9631    5.2627    0.0000 C   0  0  0  0  0  0  0  0  0  0  0  0
    4.5576    4.6906    0.0000 C   0  0  0  0  0  0  0  0  0  0  0  0
    5.3502    4.9195    0.0000 C   0  0  0  0  0  0  0  0  0  0  0  0
    5.9447    4.3474    0.0000 C   0  0  0  0  0  0  0  0  0  0  0  0
    5.5484    5.7203    0.0000 O   0  0  0  0  0  0  0  0  0  0  0  0
    2.5760    5.6059    0.0000 C   0  0  0  0  0  0  0  0  0  0  0  0
    2.7742    6.4067    0.0000 O   0  0  0  0  0  0  0  0  0  0  0  0
    1.7834    5.3771    0.0000 N   0  0  0  0  0  0  0  0  0  0  0  0
    1.1889    5.9491    0.0000 C   0  0  1  0  0  0  0  0  0  0  0  0
    1.3870    6.7500    0.0000 C   0  0  0  0  0  0  0  0  0  0  0  0
    0.7926    7.3220    0.0000 C   0  0  0  0  0  0  0  0  0  0  0  0
    2.1797    6.9788    0.0000 C   0  0  0  0  0  0  0  0  0  0  0  0
    0.3963    5.7203    0.0000 C   0  0  0  0  0  0  0  0  0  0  0  0
    0.2515    6.5325    0.0000 O   0  0  0  0  0  0  0  0  0  0  0  0
    0.1981    4.9195    0.0000 N   0  0  0  0  0  0  0  0  0  0  0  0
   -0.5944    4.6906    0.0000 C   0  0  1  0  0  0  0  0  0  0  0  0
   -1.1889    5.2627    0.0000 C   0  0  0  0  0  0  0  0  0  0  0  0
   -0.9908    6.0635    0.0000 C   0  0  0  0  0  0  0  0  0  0  0  0
   -1.5852    6.6356    0.0000 C   0  0  0  0  0  0  0  0  0  0  0  0
   -1.3871    7.4364    0.0000 C   0  0  0  0  0  0  0  0  0  0  0  0
   -1.9816    8.0084    0.0000 O   0  0  0  0  0  0  0  0  0  0  0  0
   -0.5944    7.6652    0.0000 C   0  0  0  0  0  0  0  0  0  0  0  0
    0.0000    7.0932    0.0000 C   0  0  0  0  0  0  0  0  0  0  0  0
   -0.1981    6.2923    0.0000 C   0  0  0  0  0  0  0  0  0  0  0  0
   -0.7926    3.8898    0.0000 C   0  0  0  0  0  0  0  0  0  0  0  0
   -0.1981    3.3178    0.0000 O   0  0  0  0  0  0  0  0  0  0  0  0
   -1.5852    3.6610    0.0000 N   0  0  0  0  0  0  0  0  0  0  0  0
   -1.7834    2.8601    0.0000 N   0  0  0  0  0  0  0  0  0  0  0  0
   -2.1797    4.2330    0.0000 C   0  0  0  0  0  0  0  0  0  0  0  0
   -2.9723    4.0042    0.0000 C   0  0  0  0  0  0  0  0  0  0  0  0
   -3.1705    3.2033    0.0000 C   0  0  0  0  0  0  0  0  0  0  0  0
   -2.5760    2.6313    0.0000 C   0  0  1  0  0  0  0  0  0  0  0  0
   -2.7742    1.8305    0.0000 C   0  0  0  0  0  0  0  0  0  0  0  0
   -3.5668    1.6017    0.0000 O   0  0  0  0  0  0  0  0  0  0  0  0
   -3.5368    2.3540    0.0000 H   0  0  0  0  0  0  0  0  0  0  0  0
   -4.1829   -7.7207    0.0000 H   0  0  0  0  0  0  0  0  0  0  0  0
   -4.3811   -8.5215    0.0000 H   0  0  0  0  0  0  0  0  0  0  0  0
   -5.4091   -8.8183    0.0000 H   0  0  0  0  0  0  0  0  0  0  0  0
   -6.7157   -7.2665    0.0000 H   0  0  0  0  0  0  0  0  0  0  0  0
   -6.2017   -9.0471    0.0000 H   0  0  0  0  0  0  0  0  0  0  0  0
   -6.9727   -8.3052    0.0000 H   0  0  0  0  0  0  0  0  0  0  0  0
   -6.5764   -6.7034    0.0000 H   0  0  0  0  0  0  0  0  0  0  0  0
   -6.3194   -5.6647    0.0000 H   0  0  0  0  0  0  0  0  0  0  0  0
   -3.0172   -5.6760    0.0000 H   0  0  0  0  0  0  0  0  0  0  0  0
   -6.3782   -5.9026    0.0000 H   0  0  0  0  0  0  0  0  0  0  0  0
   -5.6877   -3.9951    0.0000 H   0  0  0  0  0  0  0  0  0  0  0  0
   -6.9727   -5.3305    0.0000 H   0  0  0  0  0  0  0  0  0  0  0  0
   -6.7157   -4.2919    0.0000 H   0  0  0  0  0  0  0  0  0  0  0  0
   -5.7175   -5.7134    0.0000 H   0  0  0  0  0  0  0  0  0  0  0  0
   -6.1156   -3.4709    0.0000 H   0  0  0  0  0  0  0  0  0  0  0  0
   -6.7462   -5.2136    0.0000 H   0  0  0  0  0  0  0  0  0  0  0  0
   -6.9339   -4.1602    0.0000 H   0  0  0  0  0  0  0  0  0  0  0  0
   -5.9819   -4.3010    0.0000 H   0  0  0  0  0  0  0  0  0  0  0  0
   -5.3155   -2.4906    0.0000 H   0  0  0  0  0  0  0  0  0  0  0  0
   -4.9323   -3.0335    0.0000 H   0  0  0  0  0  0  0  0  0  0  0  0
   -2.9351   -2.6778    0.0000 H   0  0  0  0  0  0  0  0  0  0  0  0
   -4.7341   -2.2326    0.0000 H   0  0  0  0  0  0  0  0  0  0  0  0
   -3.7061   -1.9358    0.0000 H   0  0  0  0  0  0  0  0  0  0  0  0
   -2.7958   -5.0893    0.0000 H   0  0  0  0  0  0  0  0  0  0  0  0
   -2.0032   -4.8605    0.0000 H   0  0  0  0  0  0  0  0  0  0  0  0
   -1.7462   -3.8219    0.0000 H   0  0  0  0  0  0  0  0  0  0  0  0
   -3.6040   -3.6145    0.0000 H   0  0  0  0  0  0  0  0  0  0  0  0
   -2.9376   -1.8041    0.0000 H   0  0  0  0  0  0  0  0  0  0  0  0
   -2.0404   -4.1276    0.0000 H   0  0  0  0  0  0  0  0  0  0  0  0
   -1.4459   -4.6997    0.0000 H   0  0  0  0  0  0  0  0  0  0  0  0
   -0.1609   -3.3643    0.0000 H   0  0  0  0  0  0  0  0  0  0  0  0
   -0.4179   -4.4029    0.0000 H   0  0  0  0  0  0  0  0  0  0  0  0
   -2.3562   -1.5462    0.0000 H   0  0  0  0  0  0  0  0  0  0  0  0
   -1.3282   -1.2494    0.0000 H   0  0  0  0  0  0  0  0  0  0  0  0
   -0.0216   -2.8012    0.0000 H   0  0  0  0  0  0  0  0  0  0  0  0
    0.2354   -1.7626    0.0000 H   0  0  0  0  0  0  0  0  0  0  0  0
    0.3971   -0.9722    0.0000 H   0  0  0  0  0  0  0  0  0  0  0  0
   -2.1804   -0.9727    0.0000 H   0  0  0  0  0  0  0  0  0  0  0  0
    0.0007    0.4006    0.0000 H   0  0  0  0  0  0  0  0  0  0  0  0
   -3.1489    1.1995    0.0000 H   0  0  0  0  0  0  0  0  0  0  0  0
   -2.6349   -0.5811    0.0000 H   0  0  0  0  0  0  0  0  0  0  0  0
   -3.4059    0.1609    0.0000 H   0  0  0  0  0  0  0  0  0  0  0  0
   -2.1290    0.7162    0.0000 H   0  0  0  0  0  0  0  0  0  0  0  0
   -1.0496   -0.1235    0.0000 H   0  0  0  0  0  0  0  0  0  0  0  0
   -0.0216    0.1733    0.0000 H   0  0  0  0  0  0  0  0  0  0  0  0
    0.7437    0.4285    0.0000 H   0  0  0  0  0  0  0  0  0  0  0  0
   -0.5456    2.6604    0.0000 H   0  0  0  0  0  0  0  0  0  0  0  0
    1.7343    1.4581    0.0000 H   0  0  0  0  0  0  0  0  0  0  0  0
    0.4453    3.6901    0.0000 H   0  0  0  0  0  0  0  0  0  0  0  0
    1.7245    2.1646    0.0000 H   0  0  0  0  0  0  0  0  0  0  0  0
    2.3431    1.6897    0.0000 H   0  0  0  0  0  0  0  0  0  0  0  0
    1.1517    3.7074    0.0000 H   0  0  0  0  0  0  0  0  0  0  0  0
    1.8422    5.6149    0.0000 H   0  0  0  0  0  0  0  0  0  0  0  0
    0.5572    4.2794    0.0000 H   0  0  0  0  0  0  0  0  0  0  0  0
    0.8141    5.3181    0.0000 H   0  0  0  0  0  0  0  0  0  0  0  0
    2.7153    3.1943    0.0000 H   0  0  0  0  0  0  0  0  0  0  0  0
    3.3339    2.7194    0.0000 H   0  0  0  0  0  0  0  0  0  0  0  0
    3.9415    4.2920    0.0000 H   0  0  0  0  0  0  0  0  0  0  0  0
    4.2201    6.3014    0.0000 H   0  0  0  0  0  0  0  0  0  0  0  0
    4.9911    5.5594    0.0000 H   0  0  0  0  0  0  0  0  0  0  0  0
    4.3006    3.6519    0.0000 H   0  0  0  0  0  0  0  0  0  0  0  0
    5.3287    3.9487    0.0000 H   0  0  0  0  0  0  0  0  0  0  0  0
    5.6877    3.3087    0.0000 H   0  0  0  0  0  0  0  0  0  0  0  0
    6.9727    4.6441    0.0000 H   0  0  0  0  0  0  0  0  0  0  0  0
    6.7157    3.6055    0.0000 H   0  0  0  0  0  0  0  0  0  0  0  0
    1.5470    4.4214    0.0000 H   0  0  0  0  0  0  0  0  0  0  0  0
    2.2169    6.2459    0.0000 H   0  0  0  0  0  0  0  0  0  0  0  0
    1.6440    7.7887    0.0000 H   0  0  0  0  0  0  0  0  0  0  0  0
    1.0496    8.3607    0.0000 H   0  0  0  0  0  0  0  0  0  0  0  0
   -0.2354    7.0253    0.0000 H   0  0  0  0  0  0  0  0  0  0  0  0
    0.0216    8.0639    0.0000 H   0  0  0  0  0  0  0  0  0  0  0  0
    2.9507    6.2369    0.0000 H   0  0  0  0  0  0  0  0  0  0  0  0
    2.4367    8.0175    0.0000 H   0  0  0  0  0  0  0  0  0  0  0  0
    3.2077    7.2755    0.0000 H   0  0  0  0  0  0  0  0  0  0  0  0
    0.9075    4.2369    0.0000 H   0  0  0  0  0  0  0  0  0  0  0  0
   -0.3375    5.7293    0.0000 H   0  0  0  0  0  0  0  0  0  0  0  0
   -2.2169    4.9659    0.0000 H   0  0  0  0  0  0  0  0  0  0  0  0
   -1.9599    6.0046    0.0000 H   0  0  0  0  0  0  0  0  0  0  0  0
   -2.5767    6.3494    0.0000 H   0  0  0  0  0  0  0  0  0  0  0  0
   -1.7566    8.9180    0.0000 H   0  0  0  0  0  0  0  0  0  0  0  0
   -0.3465    8.6670    0.0000 H   0  0  0  0  0  0  0  0  0  0  0  0
    0.9915    7.3795    0.0000 H   0  0  0  0  0  0  0  0  0  0  0  0
    0.5456    5.5768    0.0000 H   0  0  0  0  0  0  0  0  0  0  0  0
   -1.0484    2.1528    0.0000 H   0  0  0  0  0  0  0  0  0  0  0  0
   -1.9227    5.2717    0.0000 H   0  0  0  0  0  0  0  0  0  0  0  0
   -2.9507    4.9749    0.0000 H   0  0  0  0  0  0  0  0  0  0  0  0
   -3.7433    4.7461    0.0000 H   0  0  0  0  0  0  0  0  0  0  0  0
   -4.0003    3.7075    0.0000 H   0  0  0  0  0  0  0  0  0  0  0  0
   -4.1985    2.9065    0.0000 H   0  0  0  0  0  0  0  0  0  0  0  0
   -3.4275    2.1646    0.0000 H   0  0  0  0  0  0  0  0  0  0  0  0
  2  1  2  0  0  0  0
  2  7  1  0  0  0  0
  3  2  1  0  0  0  0
  3  4  1  0  0  0  0
  3 80  1  6  0  0  0
  4  5  1  0  0  0  0
  4 81  1  0  0  0  0
  4 82  1  0  0  0  0
  5 83  1  0  0  0  0
  5 84  1  0  0  0  0
  5 85  1  0  0  0  0
  6  3  1  0  0  0  0
  6 86  1  0  0  0  0
  6 87  1  0  0  0  0
  7 88  1  0  0  0  0
  8  7  1  0  0  0  0
  8  9  1  6  0  0  0
  8 10  1  0  0  0  0
 10  6  1  0  0  0  0
 10 11  1  0  0  0  0
 10 89  1  1  0  0  0
 11 90  1  0  0  0  0
 11 91  1  0  0  0  0
 11 92  1  0  0  0  0
 12  8  1  0  0  0  0
 12 13  1  0  0  0  0
 12 93  1  6  0  0  0
 13 94  1  0  0  0  0
 13 95  1  0  0  0  0
 13 96  1  0  0  0  0
 14 12  1  0  0  0  0
 14 15  1  0  0  0  0
 14 97  1  6  0  0  0
 15 98  1  0  0  0  0
 16 14  1  0  0  0  0
 16 17  1  0  0  0  0
 16 99  1  6  0  0  0
 17100  1  0  0  0  0
 17101  1  0  0  0  0
 17102  1  0  0  0  0
 18  9  1  0  0  0  0
 18 16  1  0  0  0  0
 18 19  1  0  0  0  0
 18103  1  1  0  0  0
 19104  1  0  0  0  0
 19105  1  0  0  0  0
 20 19  1  0  0  0  0
 20 21  1  0  0  0  0
 20106  1  1  0  0  0
 21107  1  0  0  0  0
 22 20  1  0  0  0  0
 22 23  1  0  0  0  0
 22108  1  1  0  0  0
 23109  1  0  0  0  0
 23110  1  0  0  0  0
 23111  1  0  0  0  0
 24 22  1  0  0  0  0
 24112  1  0  0  0  0
 24113  1  0  0  0  0
 25 24  1  0  0  0  0
 25114  1  0  0  0  0
 25115  1  0  0  0  0
 26 25  1  0  0  0  0
 26116  1  0  0  0  0
 27 26  2  0  0  0  0
 27117  1  0  0  0  0
 28 27  1  0  0  0  0
 28118  1  0  0  0  0
 29 28  2  0  0  0  0
 29 30  1  0  0  0  0
 30119  1  0  0  0  0
 30120  1  0  0  0  0
 30121  1  0  0  0  0
 31 29  1  0  0  0  0
 31 32  1  0  0  0  0
 31122  1  6  0  0  0
 33 31  1  0  0  0  0
 33123  1  0  0  0  0
 33124  1  0  0  0  0
 34 33  1  0  0  0  0
 34125  1  0  0  0  0
 35 34  2  0  0  0  0
 35126  1  0  0  0  0
 36 35  1  0  0  0  0
 36127  1  0  0  0  0
 37 36  2  0  0  0  0
 37128  1  0  0  0  0
 38 37  1  0  0  0  0
 38 39  1  0  0  0  0
 38129  1  6  0  0  0
 39130  1  0  0  0  0
 40 38  1  0  0  0  0
 40 41  1  0  0  0  0
 40131  1  1  0  0  0
 41132  1  0  0  0  0
 41133  1  0  0  0  0
 41134  1  0  0  0  0
 42 40  1  0  0  0  0
 42 43  1  0  0  0  0
 42135  1  1  0  0  0
 43136  1  0  0  0  0
 44 42  1  0  0  0  0
 44 45  1  0  0  0  0
 44137  1  1  0  0  0
 45 46  1  0  0  0  0
 45138  1  0  0  0  0
 45139  1  0  0  0  0
 46 47  1  0  0  0  0
 46140  1  0  0  0  0
 46141  1  0  0  0  0
 47 48  1  0  0  0  0
 47 49  2  0  0  0  0
 48142  1  0  0  0  0
 48143  1  0  0  0  0
 48144  1  0  0  0  0
 50 44  1  0  0  0  0
 50 51  2  0  0  0  0
 50 52  1  0  0  0  0
 52145  1  0  0  0  0
 53 52  1  0  0  0  0
 53 54  1  0  0  0  0
 53146  1  1  0  0  0
 54 55  1  0  0  0  0
 54 56  1  0  0  0  0
 54147  1  0  0  0  0
 55148  1  0  0  0  0
 55149  1  0  0  0  0
 55150  1  0  0  0  0
 56151  1  0  0  0  0
 56152  1  0  0  0  0
 56153  1  0  0  0  0
 57 53  1  0  0  0  0
 57 58  2  0  0  0  0
 57 59  1  0  0  0  0
 59154  1  0  0  0  0
 60 59  1  0  0  0  0
 60 61  1  0  0  0  0
 60155  1  1  0  0  0
 61 62  1  0  0  0  0
 61156  1  0  0  0  0
 61157  1  0  0  0  0
 62 63  2  0  0  0  0
 62 68  1  0  0  0  0
 63 64  1  0  0  0  0
 63158  1  0  0  0  0
 64 65  1  0  0  0  0
 64 66  2  0  0  0  0
 65159  1  0  0  0  0
 66 67  1  0  0  0  0
 66160  1  0  0  0  0
 67 68  2  0  0  0  0
 67161  1  0  0  0  0
 68162  1  0  0  0  0
 69 60  1  0  0  0  0
 69 70  2  0  0  0  0
 69 71  1  0  0  0  0
 71 72  1  0  0  0  0
 72163  1  0  0  0  0
 73 71  1  0  0  0  0
 73164  1  0  0  0  0
 73165  1  0  0  0  0
 74 73  1  0  0  0  0
 74166  1  0  0  0  0
 74167  1  0  0  0  0
 75 74  1  0  0  0  0
 75168  1  0  0  0  0
 75169  1  0  0  0  0
 76 72  1  0  0  0  0
 76 75  1  0  0  0  0
 76 79  1  1  0  0  0
 77 32  1  0  0  0  0
 77 76  1  0  0  0  0
 77 78  2  0  0  0  0
M  END
>  <DRUGBANK_ID>
DB03393

>  <SECONDARY_ACCESSION_NUMBERS>
EXPT02889

>  <COMMON_NAME>
Sanglifehrin A

$$$$
