
 OpenBabel10282417072D

 58 63  0  0  1  0  0  0  0  0999 V2000
    4.1636   -2.1329    0.0000 C   0  0  0  0  0  0  0  0  0  0  0  0
    3.4050   -2.4572    0.0000 N   0  0  0  0  0  0  0  0  0  0  0  0
    3.3680   -3.2813    0.0000 C   0  0  0  0  0  0  0  0  0  0  0  0
    4.1217   -3.6169    0.0000 C   0  0  0  0  0  0  0  0  0  0  0  0
    4.2079   -4.4374    0.0000 C   0  0  0  0  0  0  0  0  0  0  0  0
    3.5405   -4.9223    0.0000 C   0  0  0  0  0  0  0  0  0  0  0  0
    2.7868   -4.5867    0.0000 C   0  0  0  0  0  0  0  0  0  0  0  0
    2.7006   -3.7663    0.0000 C   0  0  0  0  0  0  0  0  0  0  0  0
    1.9053   -3.5468    0.0000 C   0  0  0  0  0  0  0  0  0  0  0  0
    1.5810   -2.7882    0.0000 N   0  0  0  0  0  0  0  0  0  0  0  0
    1.9720   -2.0617    0.0000 C   0  0  1  0  0  0  0  0  0  0  0  0
    2.7837   -1.9144    0.0000 C   0  0  0  0  0  0  0  0  0  0  0  0
    3.0032   -1.1191    0.0000 O   0  0  0  0  0  0  0  0  0  0  0  0
    1.4871   -1.3942    0.0000 N   0  0  0  0  0  0  0  0  0  0  0  0
    1.8226   -0.6406    0.0000 C   0  0  0  0  0  0  0  0  0  0  0  0
    2.6431   -0.5543    0.0000 O   0  0  0  0  0  0  0  0  0  0  0  0
    1.3377    0.0269    0.0000 C   0  0  0  0  0  0  0  0  0  0  0  0
    0.5127    0.0269    0.0000 C   0  0  0  0  0  0  0  0  0  0  0  0
    0.2578    0.8115    0.0000 C   0  0  0  0  0  0  0  0  0  0  0  0
   -0.4959    1.1470    0.0000 C   0  0  0  0  0  0  0  0  0  0  0  0
   -0.5821    1.9675    0.0000 C   0  0  0  0  0  0  0  0  0  0  0  0
    0.0853    2.4525    0.0000 C   0  0  0  0  0  0  0  0  0  0  0  0
    0.8390    2.1169    0.0000 C   0  0  0  0  0  0  0  0  0  0  0  0
    0.9252    1.2964    0.0000 C   0  0  0  0  0  0  0  0  0  0  0  0
    1.5926    0.8115    0.0000 N   0  0  0  0  0  0  0  0  0  0  0  0
    2.3463    1.1470    0.0000 C   0  0  0  0  0  0  0  0  0  0  0  0
    2.4326    1.9675    0.0000 C   0  0  0  0  0  0  0  0  0  0  0  0
    1.7651    2.4525    0.0000 C   0  0  0  0  0  0  0  0  0  0  0  0
    1.3625   -4.1681    0.0000 C   0  0  0  0  0  0  0  0  0  0  0  0
    1.6291   -4.9488    0.0000 C   0  0  0  0  0  0  0  0  0  0  0  0
    1.0863   -5.5701    0.0000 C   0  0  0  0  0  0  0  0  0  0  0  0
    0.2769   -5.4106    0.0000 C   0  0  0  0  0  0  0  0  0  0  0  0
    0.0102   -4.6299    0.0000 C   0  0  0  0  0  0  0  0  0  0  0  0
    0.5530   -4.0086    0.0000 C   0  0  0  0  0  0  0  0  0  0  0  0
    5.0198   -2.7747    0.0000 H   0  0  0  0  0  0  0  0  0  0  0  0
    4.2913   -1.0705    0.0000 H   0  0  0  0  0  0  0  0  0  0  0  0
    5.1475   -1.7123    0.0000 H   0  0  0  0  0  0  0  0  0  0  0  0
    4.9566   -3.0103    0.0000 H   0  0  0  0  0  0  0  0  0  0  0  0
    5.1507   -4.8572    0.0000 H   0  0  0  0  0  0  0  0  0  0  0  0
    3.6484   -5.9486    0.0000 H   0  0  0  0  0  0  0  0  0  0  0  0
    1.9519   -5.1933    0.0000 H   0  0  0  0  0  0  0  0  0  0  0  0
    0.9044   -2.1336    0.0000 H   0  0  0  0  0  0  0  0  0  0  0  0
    0.5080   -1.4971    0.0000 H   0  0  0  0  0  0  0  0  0  0  0  0
   -0.0939   -0.8080    0.0000 H   0  0  0  0  0  0  0  0  0  0  0  0
   -1.3308    0.5404    0.0000 H   0  0  0  0  0  0  0  0  0  0  0  0
   -1.5249    2.3872    0.0000 H   0  0  0  0  0  0  0  0  0  0  0  0
   -0.0226    3.4788    0.0000 H   0  0  0  0  0  0  0  0  0  0  0  0
    3.2119    0.5180    0.0000 H   0  0  0  0  0  0  0  0  0  0  0  0
    3.3238    1.5821    0.0000 H   0  0  0  0  0  0  0  0  0  0  0  0
    3.4101    2.4027    0.0000 H   0  0  0  0  0  0  0  0  0  0  0  0
    2.5445    3.0316    0.0000 H   0  0  0  0  0  0  0  0  0  0  0  0
    1.9148    3.5120    0.0000 H   0  0  0  0  0  0  0  0  0  0  0  0
    0.9343    3.1268    0.0000 H   0  0  0  0  0  0  0  0  0  0  0  0
    2.6416   -5.1483    0.0000 H   0  0  0  0  0  0  0  0  0  0  0  0
    1.4198   -6.5467    0.0000 H   0  0  0  0  0  0  0  0  0  0  0  0
   -0.4021   -6.1878    0.0000 H   0  0  0  0  0  0  0  0  0  0  0  0
   -1.0024   -4.4305    0.0000 H   0  0  0  0  0  0  0  0  0  0  0  0
    0.2195   -3.0320    0.0000 H   0  0  0  0  0  0  0  0  0  0  0  0
  1  2  1  0  0  0  0
  1 35  1  0  0  0  0
  1 36  1  0  0  0  0
  1 37  1  0  0  0  0
  2  3  1  0  0  0  0
  2 12  1  0  0  0  0
  3  4  2  0  0  0  0
  3  8  1  0  0  0  0
  4  5  1  0  0  0  0
  4 38  1  0  0  0  0
  5  6  2  0  0  0  0
  5 39  1  0  0  0  0
  6  7  1  0  0  0  0
  6 40  1  0  0  0  0
  7  8  2  0  0  0  0
  7 41  1  0  0  0  0
  8  9  1  0  0  0  0
  9 10  2  0  0  0  0
  9 29  1  0  0  0  0
 10 11  1  0  0  0  0
 11 12  1  0  0  0  0
 11 14  1  0  0  0  0
 11 42  1  1  0  0  0
 12 13  2  0  0  0  0
 14 15  1  0  0  0  0
 14 43  1  0  0  0  0
 15 16  2  0  0  0  0
 15 17  1  0  0  0  0
 17 18  2  0  0  0  0
 17 25  1  0  0  0  0
 18 19  1  0  0  0  0
 18 44  1  0  0  0  0
 19 20  2  0  0  0  0
 19 24  1  0  0  0  0
 20 21  1  0  0  0  0
 20 45  1  0  0  0  0
 21 22  2  0  0  0  0
 21 46  1  0  0  0  0
 22 23  1  0  0  0  0
 22 47  1  0  0  0  0
 23 24  2  0  0  0  0
 23 28  1  0  0  0  0
 24 25  1  0  0  0  0
 25 26  1  0  0  0  0
 26 27  1  0  0  0  0
 26 48  1  0  0  0  0
 26 49  1  0  0  0  0
 27 28  1  0  0  0  0
 27 50  1  0  0  0  0
 27 51  1  0  0  0  0
 28 52  1  0  0  0  0
 28 53  1  0  0  0  0
 29 30  2  0  0  0  0
 29 34  1  0  0  0  0
 30 31  1  0  0  0  0
 30 54  1  0  0  0  0
 31 32  2  0  0  0  0
 31 55  1  0  0  0  0
 32 33  1  0  0  0  0
 32 56  1  0  0  0  0
 33 34  2  0  0  0  0
 33 57  1  0  0  0  0
 34 58  1  0  0  0  0
M  END
>  <DRUGBANK_ID>
DB06435

>  <COMMON_NAME>
Tarazepide

>  <CAS_NUMBER>
141374-81-4

>  <UNII>
RK2972YZ2U

>  <SYNONYMS>
Tarazepide

$$$$
