
 OpenBabel10282417072D

 15 16  0  0  0  0  0  0  0  0999 V2000
    0.4442   -0.7329    0.0000 C   0  0  0  0  0  0  0  0  0  0  0  0
    0.4674    0.0977    0.0000 C   0  0  0  0  0  0  0  0  0  0  0  0
    1.2422   -1.0045    0.0000 S   0  0  0  0  0  0  0  0  0  0  0  0
   -0.2860   -1.1168    0.0000 C   0  0  0  0  0  0  0  0  0  0  0  0
    1.2790    0.3160    0.0000 C   0  0  0  0  0  0  0  0  0  0  0  0
   -0.2227    0.5327    0.0000 C   0  0  0  0  0  0  0  0  0  0  0  0
    1.7411   -0.3820    0.0000 N   0  0  0  0  0  0  0  0  0  0  0  0
   -0.9819   -0.6816    0.0000 C   0  0  0  0  0  0  0  0  0  0  0  0
    1.5507    1.1168    0.0000 O   0  0  0  0  0  0  0  0  0  0  0  0
   -0.9819    0.1410    0.0000 C   0  0  0  0  0  0  0  0  0  0  0  0
   -1.7411   -1.0762    0.0000 Cl  0  0  0  0  0  0  0  0  0  0  0  0
   -0.3246   -2.1481    0.0000 H   0  0  0  0  0  0  0  0  0  0  0  0
   -0.1783    1.5637    0.0000 H   0  0  0  0  0  0  0  0  0  0  0  0
    2.7246   -0.4267    0.0000 H   0  0  0  0  0  0  0  0  0  0  0  0
   -1.8632    0.6780    0.0000 H   0  0  0  0  0  0  0  0  0  0  0  0
  1  2  2  0  0  0  0
  1  3  1  0  0  0  0
  1  4  1  0  0  0  0
  2  5  1  0  0  0  0
  2  6  1  0  0  0  0
  3  7  1  0  0  0  0
  4  8  2  0  0  0  0
  4 12  1  0  0  0  0
  5  9  2  0  0  0  0
  5  7  1  0  0  0  0
  6 10  2  0  0  0  0
  6 13  1  0  0  0  0
  7 14  1  0  0  0  0
  8 11  1  0  0  0  0
  8 10  1  0  0  0  0
 10 15  1  0  0  0  0
M  END
>  <DRUGBANK_ID>
DB13613

>  <COMMON_NAME>
Ticlatone

>  <CAS_NUMBER>
70-10-0

>  <UNII>
BHW384Q9GI

>  <SYNONYMS>
Ticlatona; Ticlatone; Ticlatonum

$$$$
