
 OpenBabel10282417072D

 49 51  0  0  0  0  0  0  0  0999 V2000
   -2.1433    0.8249    0.0000 C   0  0  0  0  0  0  0  0  0  0  0  0
   -2.8578    1.2374    0.0000 C   0  0  0  0  0  0  0  0  0  0  0  0
   -2.8578    2.0624    0.0000 C   0  0  0  0  0  0  0  0  0  0  0  0
   -2.1434    2.4749    0.0000 C   0  0  0  0  0  0  0  0  0  0  0  0
   -1.4289    2.0624    0.0000 C   0  0  0  0  0  0  0  0  0  0  0  0
   -1.4289    1.2374    0.0000 C   0  0  0  0  0  0  0  0  0  0  0  0
   -0.7144    0.8249    0.0000 N   0  0  0  0  0  0  0  0  0  0  0  0
   -0.7144    2.4749    0.0000 S   0  0  0  0  0  0  0  0  0  0  0  0
    0.0000    2.0624    0.0000 C   0  0  0  0  0  0  0  0  0  0  0  0
    0.0000    1.2374    0.0000 C   0  0  0  0  0  0  0  0  0  0  0  0
    0.7144    0.8249    0.0000 C   0  0  0  0  0  0  0  0  0  0  0  0
    0.7144    2.4750    0.0000 C   0  0  0  0  0  0  0  0  0  0  0  0
    1.4289    2.0625    0.0000 C   0  0  0  0  0  0  0  0  0  0  0  0
    1.4289    1.2375    0.0000 C   0  0  0  0  0  0  0  0  0  0  0  0
   -0.7144    0.0000    0.0000 C   0  0  0  0  0  0  0  0  0  0  0  0
    0.0000   -0.4125    0.0000 C   0  0  3  0  0  0  0  0  0  0  0  0
    0.0000   -1.2375    0.0000 C   0  0  0  0  0  0  0  0  0  0  0  0
    0.7145   -1.6500    0.0000 N   0  0  0  0  0  0  0  0  0  0  0  0
    0.7145   -2.4750    0.0000 C   0  0  0  0  0  0  0  0  0  0  0  0
    1.4289   -1.2374    0.0000 C   0  0  0  0  0  0  0  0  0  0  0  0
    0.7145    0.0000    0.0000 C   0  0  0  0  0  0  0  0  0  0  0  0
    2.1434    0.8250    0.0000 C   0  0  0  0  0  0  0  0  0  0  0  0
    2.8578    1.2375    0.0000 C   0  0  0  0  0  0  0  0  0  0  0  0
   -2.1433   -0.2071    0.0000 H   0  0  0  0  0  0  0  0  0  0  0  0
   -3.7515    0.7214    0.0000 H   0  0  0  0  0  0  0  0  0  0  0  0
   -3.7515    2.5784    0.0000 H   0  0  0  0  0  0  0  0  0  0  0  0
   -2.1434    3.5069    0.0000 H   0  0  0  0  0  0  0  0  0  0  0  0
    0.7144   -0.2071    0.0000 H   0  0  0  0  0  0  0  0  0  0  0  0
    0.7143    3.5070    0.0000 H   0  0  0  0  0  0  0  0  0  0  0  0
    2.3226    2.5785    0.0000 H   0  0  0  0  0  0  0  0  0  0  0  0
   -1.6411   -0.5350    0.0000 H   0  0  0  0  0  0  0  0  0  0  0  0
   -0.7144   -1.0700    0.0000 H   0  0  0  0  0  0  0  0  0  0  0  0
   -0.9267   -0.9475    0.0000 H   0  0  0  0  0  0  0  0  0  0  0  0
   -0.9266   -1.7725    0.0000 H   0  0  0  0  0  0  0  0  0  0  0  0
    0.0000   -2.3075    0.0000 H   0  0  0  0  0  0  0  0  0  0  0  0
   -0.2121   -3.0100    0.0000 H   0  0  0  0  0  0  0  0  0  0  0  0
    1.6411   -3.0100    0.0000 H   0  0  0  0  0  0  0  0  0  0  0  0
    0.7145   -3.5450    0.0000 H   0  0  0  0  0  0  0  0  0  0  0  0
    2.3556   -1.7723    0.0000 H   0  0  0  0  0  0  0  0  0  0  0  0
    1.4287   -0.1674    0.0000 H   0  0  0  0  0  0  0  0  0  0  0  0
    2.3555   -0.7023    0.0000 H   0  0  0  0  0  0  0  0  0  0  0  0
    1.6411   -0.5350    0.0000 H   0  0  0  0  0  0  0  0  0  0  0  0
    0.7145    1.0700    0.0000 H   0  0  0  0  0  0  0  0  0  0  0  0
    1.6412    0.5350    0.0000 H   0  0  0  0  0  0  0  0  0  0  0  0
    2.1434   -0.2450    0.0000 H   0  0  0  0  0  0  0  0  0  0  0  0
    3.0701    0.2900    0.0000 H   0  0  0  0  0  0  0  0  0  0  0  0
    3.7845    0.7025    0.0000 H   0  0  0  0  0  0  0  0  0  0  0  0
    2.8578    2.3075    0.0000 H   0  0  0  0  0  0  0  0  0  0  0  0
    3.7844    1.7725    0.0000 H   0  0  0  0  0  0  0  0  0  0  0  0
  1  2  1  0  0  0  0
  1  6  2  0  0  0  0
  1 24  1  0  0  0  0
  2  3  2  0  0  0  0
  2 25  1  0  0  0  0
  3  4  1  0  0  0  0
  3 26  1  0  0  0  0
  4  5  2  0  0  0  0
  4 27  1  0  0  0  0
  5  8  1  0  0  0  0
  6  5  1  0  0  0  0
  7  6  1  0  0  0  0
  7 10  1  0  0  0  0
  7 15  1  0  0  0  0
  8  9  1  0  0  0  0
  9 12  1  0  0  0  0
 10  9  2  0  0  0  0
 11 10  1  0  0  0  0
 11 14  2  0  0  0  0
 11 28  1  0  0  0  0
 12 13  2  0  0  0  0
 12 29  1  0  0  0  0
 13 14  1  0  0  0  0
 13 30  1  0  0  0  0
 14 22  1  0  0  0  0
 15 16  1  0  0  0  0
 15 31  1  0  0  0  0
 15 32  1  0  0  0  0
 16 17  1  0  0  0  0
 16 21  1  0  0  0  0
 16 33  1  0  0  0  0
 17 18  1  0  0  0  0
 17 34  1  0  0  0  0
 17 35  1  0  0  0  0
 18 19  1  0  0  0  0
 18 20  1  0  0  0  0
 19 36  1  0  0  0  0
 19 37  1  0  0  0  0
 19 38  1  0  0  0  0
 20 39  1  0  0  0  0
 20 40  1  0  0  0  0
 20 41  1  0  0  0  0
 21 42  1  0  0  0  0
 21 43  1  0  0  0  0
 21 44  1  0  0  0  0
 22 23  1  0  0  0  0
 22 45  1  0  0  0  0
 22 46  1  0  0  0  0
 23 47  1  0  0  0  0
 23 48  1  0  0  0  0
 23 49  1  0  0  0  0
M  END
>  <DRUGBANK_ID>
DB11517

>  <COMMON_NAME>
Etymemazine

>  <UNII>
861J4K81C7

>  <SYNONYMS>
Ethylisobutrazine; Etymemazine

$$$$
