
 OpenBabel10282417072D

 47 49  0  0  1  0  0  0  0  0999 V2000
    1.3222   -1.7116    0.0000 C   0  0  0  0  0  0  0  0  0  0  0  0
    1.3222   -2.5366    0.0000 O   0  0  0  0  0  0  0  0  0  0  0  0
    2.0367   -2.9491    0.0000 N   0  0  0  0  0  0  0  0  0  0  0  0
    2.0367   -3.7741    0.0000 C   0  0  0  0  0  0  0  0  0  0  0  0
    2.7041   -4.2590    0.0000 C   0  0  0  0  0  0  0  0  0  0  0  0
    2.4492   -5.0437    0.0000 C   0  0  1  0  0  0  0  0  0  0  0  0
    2.9341   -5.7111    0.0000 C   0  0  0  0  0  0  0  0  0  0  0  0
    2.5986   -6.4648    0.0000 O   0  0  0  0  0  0  0  0  0  0  0  0
    1.6242   -5.0437    0.0000 N   0  0  0  0  0  0  0  0  0  0  0  0
    1.3693   -4.2590    0.0000 C   0  0  0  0  0  0  0  0  0  0  0  0
    1.1393   -5.7111    0.0000 C   0  0  0  0  0  0  0  0  0  0  0  0
    1.4748   -6.4648    0.0000 O   0  0  0  0  0  0  0  0  0  0  0  0
    0.3188   -5.6249    0.0000 C   0  0  0  0  0  0  0  0  0  0  0  0
   -0.1661   -6.2923    0.0000 C   0  0  0  0  0  0  0  0  0  0  0  0
   -0.9866   -6.2061    0.0000 C   0  0  0  0  0  0  0  0  0  0  0  0
   -1.3222   -5.4524    0.0000 C   0  0  0  0  0  0  0  0  0  0  0  0
   -0.8372   -4.7849    0.0000 C   0  0  0  0  0  0  0  0  0  0  0  0
   -0.0168   -4.8712    0.0000 C   0  0  0  0  0  0  0  0  0  0  0  0
   -2.1426   -5.3661    0.0000 C   0  0  0  0  0  0  0  0  0  0  0  0
   -2.6276   -6.0336    0.0000 C   0  0  0  0  0  0  0  0  0  0  0  0
   -2.2920   -6.7873    0.0000 C   0  0  0  0  0  0  0  0  0  0  0  0
   -3.4480   -5.9473    0.0000 C   0  0  0  0  0  0  0  0  0  0  0  0
   -3.7836   -5.1937    0.0000 C   0  0  0  0  0  0  0  0  0  0  0  0
   -3.2987   -4.5262    0.0000 C   0  0  0  0  0  0  0  0  0  0  0  0
   -2.4782   -4.6125    0.0000 C   0  0  0  0  0  0  0  0  0  0  0  0
    2.2488   -1.1766    0.0000 H   0  0  0  0  0  0  0  0  0  0  0  0
    0.3956   -1.1766    0.0000 H   0  0  0  0  0  0  0  0  0  0  0  0
    1.3222   -0.6416    0.0000 H   0  0  0  0  0  0  0  0  0  0  0  0
    3.7217   -3.9283    0.0000 H   0  0  0  0  0  0  0  0  0  0  0  0
    3.4607   -5.0156    0.0000 H   0  0  0  0  0  0  0  0  0  0  0  0
    3.5060   -4.8763    0.0000 H   0  0  0  0  0  0  0  0  0  0  0  0
    3.9982   -5.5992    0.0000 H   0  0  0  0  0  0  0  0  0  0  0  0
    3.5631   -6.5767    0.0000 H   0  0  0  0  0  0  0  0  0  0  0  0
    1.6339   -6.5663    0.0000 H   0  0  0  0  0  0  0  0  0  0  0  0
    0.3517   -3.9283    0.0000 H   0  0  0  0  0  0  0  0  0  0  0  0
    1.2019   -3.2022    0.0000 H   0  0  0  0  0  0  0  0  0  0  0  0
    0.2537   -7.2351    0.0000 H   0  0  0  0  0  0  0  0  0  0  0  0
   -1.5932   -7.0410    0.0000 H   0  0  0  0  0  0  0  0  0  0  0  0
   -1.2569   -3.8421    0.0000 H   0  0  0  0  0  0  0  0  0  0  0  0
    0.5898   -4.0363    0.0000 H   0  0  0  0  0  0  0  0  0  0  0  0
   -2.9209   -7.6530    0.0000 H   0  0  0  0  0  0  0  0  0  0  0  0
   -1.2279   -6.8991    0.0000 H   0  0  0  0  0  0  0  0  0  0  0  0
   -1.8568   -7.7648    0.0000 H   0  0  0  0  0  0  0  0  0  0  0  0
   -4.0546   -6.7822    0.0000 H   0  0  0  0  0  0  0  0  0  0  0  0
   -4.8100   -5.0859    0.0000 H   0  0  0  0  0  0  0  0  0  0  0  0
   -3.7184   -3.5834    0.0000 H   0  0  0  0  0  0  0  0  0  0  0  0
   -1.8716   -3.7776    0.0000 H   0  0  0  0  0  0  0  0  0  0  0  0
  1  2  1  0  0  0  0
  1 26  1  0  0  0  0
  1 27  1  0  0  0  0
  1 28  1  0  0  0  0
  2  3  1  0  0  0  0
  3  4  2  0  0  0  0
  4  5  1  0  0  0  0
  4 10  1  0  0  0  0
  5 29  1  0  0  0  0
  5 30  1  0  0  0  0
  6  5  1  0  0  0  0
  6  7  1  0  0  0  0
  6  9  1  0  0  0  0
  6 31  1  6  0  0  0
  7  8  1  0  0  0  0
  7 32  1  0  0  0  0
  7 33  1  0  0  0  0
  8 34  1  0  0  0  0
  9 10  1  0  0  0  0
  9 11  1  0  0  0  0
 10 35  1  0  0  0  0
 10 36  1  0  0  0  0
 11 12  2  0  0  0  0
 11 13  1  0  0  0  0
 13 14  2  0  0  0  0
 13 18  1  0  0  0  0
 14 15  1  0  0  0  0
 14 37  1  0  0  0  0
 15 16  2  0  0  0  0
 15 38  1  0  0  0  0
 16 17  1  0  0  0  0
 16 19  1  0  0  0  0
 17 18  2  0  0  0  0
 17 39  1  0  0  0  0
 18 40  1  0  0  0  0
 19 20  2  0  0  0  0
 19 25  1  0  0  0  0
 20 21  1  0  0  0  0
 20 22  1  0  0  0  0
 21 41  1  0  0  0  0
 21 42  1  0  0  0  0
 21 43  1  0  0  0  0
 22 23  2  0  0  0  0
 22 44  1  0  0  0  0
 23 24  1  0  0  0  0
 23 45  1  0  0  0  0
 24 25  2  0  0  0  0
 24 46  1  0  0  0  0
 25 47  1  0  0  0  0
M  END
>  <DRUGBANK_ID>
DB16259

>  <COMMON_NAME>
Nolasiban

>  <CAS_NUMBER>
1477482-19-1

>  <UNII>
3765U8A1EC

>  <SYNONYMS>
Erlosiban; Nolasiban

$$$$
