
 OpenBabel10282417072D

 15 14  0  0  0  0  0  0  0  0999 V2000
    0.8250    1.4289    0.0000 C   0  0  0  0  0  0  0  0  0  0  0  0
    1.2375    0.7145    0.0000 C   0  0  0  0  0  0  0  0  0  0  0  0
    2.0625    0.7145    0.0000 C   0  0  0  0  0  0  0  0  0  0  0  0
    0.8250    0.0000    0.0000 C   0  0  0  0  0  0  0  0  0  0  0  0
    1.2375   -0.7145    0.0000 N   0  0  0  0  0  0  0  0  0  0  0  0
    0.0000    0.0000    0.0000 O   0  0  0  0  0  0  0  0  0  0  0  0
    1.3600    2.3556    0.0000 H   0  0  0  0  0  0  0  0  0  0  0  0
   -0.2450    1.4289    0.0000 H   0  0  0  0  0  0  0  0  0  0  0  0
    0.2900    2.3555    0.0000 H   0  0  0  0  0  0  0  0  0  0  0  0
    1.7725   -0.2121    0.0000 H   0  0  0  0  0  0  0  0  0  0  0  0
    2.5975   -0.2121    0.0000 H   0  0  0  0  0  0  0  0  0  0  0  0
    2.5975    1.6411    0.0000 H   0  0  0  0  0  0  0  0  0  0  0  0
    3.1325    0.7145    0.0000 H   0  0  0  0  0  0  0  0  0  0  0  0
    0.7452   -1.5671    0.0000 H   0  0  0  0  0  0  0  0  0  0  0  0
    2.2220   -0.7145    0.0000 H   0  0  0  0  0  0  0  0  0  0  0  0
  1  2  1  0  0  0  0
  1  7  1  0  0  0  0
  1  8  1  0  0  0  0
  1  9  1  0  0  0  0
  2  3  1  0  0  0  0
  2  4  1  0  0  0  0
  2 10  1  0  0  0  0
  3 11  1  0  0  0  0
  3 12  1  0  0  0  0
  3 13  1  0  0  0  0
  4  5  1  0  0  0  0
  4  6  2  0  0  0  0
  5 14  1  0  0  0  0
  5 15  1  0  0  0  0
M  END
>  <DRUGBANK_ID>
DB17705

>  <COMMON_NAME>
Isobutyramide

>  <CAS_NUMBER>
563-83-7

>  <UNII>
82UOE7B38Z

>  <SYNONYMS>
2-methylpropionamide

$$$$
