
 OpenBabel10282417072D

 12 11  0  0  0  0  0  0  0  0999 V2000
    0.8250    1.4289    0.0000 C   0  0  0  0  0  0  0  0  0  0  0  0
    1.2375    0.7145    0.0000 C   0  0  3  0  0  0  0  0  0  0  0  0
    0.8250    0.0000    0.0000 C   0  0  0  0  0  0  0  0  0  0  0  0
    2.0625    0.7145    0.0000 O   0  0  0  0  0  0  0  0  0  0  0  0
    1.2375   -0.7145    0.0000 O   0  0  0  0  0  0  0  0  0  0  0  0
    0.0000    0.0000    0.0000 O   0  0  0  0  0  0  0  0  0  0  0  0
    1.3600    2.3556    0.0000 H   0  0  0  0  0  0  0  0  0  0  0  0
   -0.2450    1.4289    0.0000 H   0  0  0  0  0  0  0  0  0  0  0  0
    0.2900    2.3555    0.0000 H   0  0  0  0  0  0  0  0  0  0  0  0
    0.1675    0.7145    0.0000 H   0  0  0  0  0  0  0  0  0  0  0  0
    2.5475   -0.1255    0.0000 H   0  0  0  0  0  0  0  0  0  0  0  0
   -0.4685    0.8115    0.0000 H   0  0  0  0  0  0  0  0  0  0  0  0
  1  7  1  0  0  0  0
  1  8  1  0  0  0  0
  1  9  1  0  0  0  0
  2  1  1  0  0  0  0
  2 10  1  0  0  0  0
  3  2  1  0  0  0  0
  4  2  1  0  0  0  0
  4 11  1  0  0  0  0
  5  3  2  0  0  0  0
  6  3  1  0  0  0  0
  6 12  1  0  0  0  0
M  END
>  <DRUGBANK_ID>
DB04398

>  <SECONDARY_ACCESSION_NUMBERS>
EXPT01996; DB09294

>  <COMMON_NAME>
Lactic acid

>  <CAS_NUMBER>
50-21-5

>  <UNII>
3B8D35Y7S4

>  <SYNONYMS>
(±)-2-hydroxypropanoic acid; 2-Hydroxypropanoic acid; 2-Hydroxypropionic acid; ácido láctico; Acidum lacticum; DL- lactic acid; DL-Lactic Acid; DL-Milchsäure; Lactic acid; Lacticum acidum; Milchsäure; Milk acid; rac-lactic acid; α-hydroxypropanoic acid; α-hydroxypropionic acid

$$$$
