
 OpenBabel10282417072D

100103  0  0  1  0  0  0  0  0999 V2000
   -0.4706   -5.0690    0.0000 H   0  0  0  0  0  0  0  0  0  0  0  0
   -0.0581   -4.3545    0.0000 C   0  0  1  0  0  0  0  0  0  0  0  0
   -0.7726   -3.9420    0.0000 C   0  0  2  0  0  0  0  0  0  0  0  0
   -1.5159   -3.5841    0.0000 H   0  0  0  0  0  0  0  0  0  0  0  0
   -1.4176   -4.4564    0.0000 C   0  0  0  0  0  0  0  0  0  0  0  0
   -2.2219   -4.2728    0.0000 C   0  0  0  0  0  0  0  0  0  0  0  0
   -2.7363   -4.9178    0.0000 C   0  0  0  0  0  0  0  0  0  0  0  0
   -3.5521   -4.7949    0.0000 O   0  0  0  0  0  0  0  0  0  0  0  0
   -2.5799   -3.5295    0.0000 C   0  0  0  0  0  0  0  0  0  0  0  0
   -2.2219   -2.7862    0.0000 C   0  0  2  0  0  0  0  0  0  0  0  0
   -3.0461   -2.8232    0.0000 O   0  0  0  0  0  0  0  0  0  0  0  0
   -2.6451   -2.0780    0.0000 C   0  0  0  0  0  0  0  0  0  0  0  0
   -3.4668   -2.0041    0.0000 O   0  0  0  0  0  0  0  0  0  0  0  0
   -2.1023   -1.4567    0.0000 C   0  0  0  0  0  0  0  0  0  0  0  0
   -2.2859   -0.6524    0.0000 C   0  0  0  0  0  0  0  0  0  0  0  0
   -1.3437   -1.7810    0.0000 C   0  0  0  0  0  0  0  0  0  0  0  0
   -1.4176   -2.6027    0.0000 C   0  0  1  0  0  0  0  0  0  0  0  0
   -1.6012   -3.4070    0.0000 H   0  0  0  0  0  0  0  0  0  0  0  0
   -0.7726   -3.1170    0.0000 C   0  0  2  0  0  0  0  0  0  0  0  0
   -0.7110   -2.2943    0.0000 O   0  0  0  0  0  0  0  0  0  0  0  0
   -0.0581   -2.7045    0.0000 C   0  0  2  0  0  0  0  0  0  0  0  0
   -0.0581   -1.8795    0.0000 C   0  0  0  0  0  0  0  0  0  0  0  0
    0.6563   -3.1170    0.0000 C   0  0  1  0  0  0  0  0  0  0  0  0
    1.3708   -2.7045    0.0000 O   0  0  0  0  0  0  0  0  0  0  0  0
    2.0853   -3.1170    0.0000 C   0  0  0  0  0  0  0  0  0  0  0  0
    2.0853   -3.9420    0.0000 O   0  0  0  0  0  0  0  0  0  0  0  0
    2.7997   -2.7045    0.0000 C   0  0  0  0  0  0  0  0  0  0  0  0
    3.5142   -3.1170    0.0000 C   0  0  0  0  0  0  0  0  0  0  0  0
    4.2287   -2.7045    0.0000 C   0  0  0  0  0  0  0  0  0  0  0  0
    4.9431   -3.1170    0.0000 C   0  0  0  0  0  0  0  0  0  0  0  0
    5.6576   -2.7045    0.0000 C   0  0  0  0  0  0  0  0  0  0  0  0
    6.3721   -3.1170    0.0000 C   0  0  0  0  0  0  0  0  0  0  0  0
    7.0866   -2.7045    0.0000 C   0  0  0  0  0  0  0  0  0  0  0  0
    7.8010   -3.1170    0.0000 C   0  0  0  0  0  0  0  0  0  0  0  0
    8.5155   -2.7045    0.0000 C   0  0  0  0  0  0  0  0  0  0  0  0
    9.2300   -3.1170    0.0000 C   0  0  0  0  0  0  0  0  0  0  0  0
    9.9444   -2.7045    0.0000 C   0  0  0  0  0  0  0  0  0  0  0  0
   10.6589   -3.1170    0.0000 C   0  0  0  0  0  0  0  0  0  0  0  0
   11.3734   -2.7045    0.0000 C   0  0  0  0  0  0  0  0  0  0  0  0
    0.6563   -3.9420    0.0000 C   0  0  2  0  0  0  0  0  0  0  0  0
    1.4813   -3.9420    0.0000 O   0  0  0  0  0  0  0  0  0  0  0  0
    1.8938   -4.6565    0.0000 C   0  0  0  0  0  0  0  0  0  0  0  0
    2.7188   -4.6565    0.0000 C   0  0  0  0  0  0  0  0  0  0  0  0
    1.4813   -5.3710    0.0000 O   0  0  0  0  0  0  0  0  0  0  0  0
    0.6563   -4.7670    0.0000 C   0  0  0  0  0  0  0  0  0  0  0  0
    1.0563   -5.4886    0.0000 C   0  0  0  0  0  0  0  0  0  0  0  0
    0.5844   -5.5889    0.0000 C   0  0  0  0  0  0  0  0  0  0  0  0
   -1.1880   -5.4625    0.0000 H   0  0  0  0  0  0  0  0  0  0  0  0
   -2.3454   -5.9138    0.0000 H   0  0  0  0  0  0  0  0  0  0  0  0
   -3.4034   -5.7544    0.0000 H   0  0  0  0  0  0  0  0  0  0  0  0
   -3.9065   -3.8920    0.0000 H   0  0  0  0  0  0  0  0  0  0  0  0
   -3.6499   -3.5295    0.0000 H   0  0  0  0  0  0  0  0  0  0  0  0
   -3.1492   -2.6235    0.0000 H   0  0  0  0  0  0  0  0  0  0  0  0
   -3.5683   -2.0058    0.0000 H   0  0  0  0  0  0  0  0  0  0  0  0
   -1.5016    0.0754    0.0000 H   0  0  0  0  0  0  0  0  0  0  0  0
   -3.3084   -0.3370    0.0000 H   0  0  0  0  0  0  0  0  0  0  0  0
   -2.5240    0.3908    0.0000 H   0  0  0  0  0  0  0  0  0  0  0  0
   -0.4578   -1.2517    0.0000 H   0  0  0  0  0  0  0  0  0  0  0  0
    0.1629   -1.8734    0.0000 H   0  0  0  0  0  0  0  0  0  0  0  0
   -0.9847   -2.1695    0.0000 H   0  0  0  0  0  0  0  0  0  0  0  0
    0.8685   -1.3445    0.0000 H   0  0  0  0  0  0  0  0  0  0  0  0
   -0.9847   -1.3445    0.0000 H   0  0  0  0  0  0  0  0  0  0  0  0
   -0.0581   -0.8095    0.0000 H   0  0  0  0  0  0  0  0  0  0  0  0
    0.6563   -2.0470    0.0000 H   0  0  0  0  0  0  0  0  0  0  0  0
    2.7997   -1.6345    0.0000 H   0  0  0  0  0  0  0  0  0  0  0  0
    3.7263   -2.1695    0.0000 H   0  0  0  0  0  0  0  0  0  0  0  0
    3.5142   -4.1870    0.0000 H   0  0  0  0  0  0  0  0  0  0  0  0
    4.4408   -3.6520    0.0000 H   0  0  0  0  0  0  0  0  0  0  0  0
    4.2287   -1.6345    0.0000 H   0  0  0  0  0  0  0  0  0  0  0  0
    5.1554   -2.1695    0.0000 H   0  0  0  0  0  0  0  0  0  0  0  0
    4.9431   -4.1870    0.0000 H   0  0  0  0  0  0  0  0  0  0  0  0
    5.8697   -3.6520    0.0000 H   0  0  0  0  0  0  0  0  0  0  0  0
    5.6576   -1.6345    0.0000 H   0  0  0  0  0  0  0  0  0  0  0  0
    6.5842   -2.1695    0.0000 H   0  0  0  0  0  0  0  0  0  0  0  0
    6.3721   -4.1870    0.0000 H   0  0  0  0  0  0  0  0  0  0  0  0
    7.2987   -3.6520    0.0000 H   0  0  0  0  0  0  0  0  0  0  0  0
    7.0866   -1.6345    0.0000 H   0  0  0  0  0  0  0  0  0  0  0  0
    8.0133   -2.1695    0.0000 H   0  0  0  0  0  0  0  0  0  0  0  0
    7.8010   -4.1870    0.0000 H   0  0  0  0  0  0  0  0  0  0  0  0
    8.7276   -3.6520    0.0000 H   0  0  0  0  0  0  0  0  0  0  0  0
    8.5155   -1.6345    0.0000 H   0  0  0  0  0  0  0  0  0  0  0  0
    9.4421   -2.1695    0.0000 H   0  0  0  0  0  0  0  0  0  0  0  0
    9.2300   -4.1870    0.0000 H   0  0  0  0  0  0  0  0  0  0  0  0
   10.1567   -3.6520    0.0000 H   0  0  0  0  0  0  0  0  0  0  0  0
    9.9444   -1.6345    0.0000 H   0  0  0  0  0  0  0  0  0  0  0  0
   10.8710   -2.1695    0.0000 H   0  0  0  0  0  0  0  0  0  0  0  0
   10.6589   -4.1870    0.0000 H   0  0  0  0  0  0  0  0  0  0  0  0
   11.5855   -3.6520    0.0000 H   0  0  0  0  0  0  0  0  0  0  0  0
   12.3000   -3.2395    0.0000 H   0  0  0  0  0  0  0  0  0  0  0  0
   11.3734   -1.6345    0.0000 H   0  0  0  0  0  0  0  0  0  0  0  0
   12.3001   -2.1695    0.0000 H   0  0  0  0  0  0  0  0  0  0  0  0
    3.2538   -5.5831    0.0000 H   0  0  0  0  0  0  0  0  0  0  0  0
    3.2538   -3.7299    0.0000 H   0  0  0  0  0  0  0  0  0  0  0  0
    3.7888   -4.6565    0.0000 H   0  0  0  0  0  0  0  0  0  0  0  0
    0.5052   -6.4058    0.0000 H   0  0  0  0  0  0  0  0  0  0  0  0
    2.1261   -5.5073    0.0000 H   0  0  0  0  0  0  0  0  0  0  0  0
    1.5751   -6.4244    0.0000 H   0  0  0  0  0  0  0  0  0  0  0  0
   -0.3853   -6.0411    0.0000 H   0  0  0  0  0  0  0  0  0  0  0  0
    1.4609   -6.2026    0.0000 H   0  0  0  0  0  0  0  0  0  0  0  0
    0.4912   -6.6548    0.0000 H   0  0  0  0  0  0  0  0  0  0  0  0
  2  1  1  6  0  0  0
  2 40  1  0  0  0  0
  2 45  1  0  0  0  0
  3  2  1  0  0  0  0
  3  4  1  1  0  0  0
  3  5  1  0  0  0  0
  5  6  2  0  0  0  0
  5 48  1  0  0  0  0
  6  7  1  0  0  0  0
  6  9  1  0  0  0  0
  7  8  1  0  0  0  0
  7 49  1  0  0  0  0
  7 50  1  0  0  0  0
  8 51  1  0  0  0  0
  9 52  1  0  0  0  0
  9 53  1  0  0  0  0
 10  9  1  0  0  0  0
 10 11  1  1  0  0  0
 10 12  1  0  0  0  0
 11 54  1  0  0  0  0
 12 13  2  0  0  0  0
 12 14  1  0  0  0  0
 14 15  1  0  0  0  0
 14 16  2  0  0  0  0
 15 55  1  0  0  0  0
 15 56  1  0  0  0  0
 15 57  1  0  0  0  0
 16 58  1  0  0  0  0
 17 16  1  0  0  0  0
 17 10  1  0  0  0  0
 17 18  1  6  0  0  0
 19 17  1  0  0  0  0
 19  3  1  0  0  0  0
 19 20  1  6  0  0  0
 19 21  1  0  0  0  0
 20 59  1  0  0  0  0
 21 22  1  0  0  0  0
 21 23  1  0  0  0  0
 21 60  1  1  0  0  0
 22 61  1  0  0  0  0
 22 62  1  0  0  0  0
 22 63  1  0  0  0  0
 23 24  1  0  0  0  0
 23 40  1  0  0  0  0
 23 64  1  6  0  0  0
 24 25  1  0  0  0  0
 25 26  2  0  0  0  0
 25 27  1  0  0  0  0
 27 28  1  0  0  0  0
 27 65  1  0  0  0  0
 27 66  1  0  0  0  0
 28 29  1  0  0  0  0
 28 67  1  0  0  0  0
 28 68  1  0  0  0  0
 29 30  1  0  0  0  0
 29 69  1  0  0  0  0
 29 70  1  0  0  0  0
 30 31  1  0  0  0  0
 30 71  1  0  0  0  0
 30 72  1  0  0  0  0
 31 32  1  0  0  0  0
 31 73  1  0  0  0  0
 31 74  1  0  0  0  0
 32 33  1  0  0  0  0
 32 75  1  0  0  0  0
 32 76  1  0  0  0  0
 33 34  1  0  0  0  0
 33 77  1  0  0  0  0
 33 78  1  0  0  0  0
 34 35  1  0  0  0  0
 34 79  1  0  0  0  0
 34 80  1  0  0  0  0
 35 36  1  0  0  0  0
 35 81  1  0  0  0  0
 35 82  1  0  0  0  0
 36 37  1  0  0  0  0
 36 83  1  0  0  0  0
 36 84  1  0  0  0  0
 37 38  1  0  0  0  0
 37 85  1  0  0  0  0
 37 86  1  0  0  0  0
 38 39  1  0  0  0  0
 38 87  1  0  0  0  0
 38 88  1  0  0  0  0
 39 89  1  0  0  0  0
 39 90  1  0  0  0  0
 39 91  1  0  0  0  0
 40 41  1  6  0  0  0
 40 45  1  0  0  0  0
 41 42  1  0  0  0  0
 42 43  1  0  0  0  0
 42 44  2  0  0  0  0
 43 92  1  0  0  0  0
 43 93  1  0  0  0  0
 43 94  1  0  0  0  0
 45 46  1  0  0  0  0
 45 47  1  0  0  0  0
 46 95  1  0  0  0  0
 46 96  1  0  0  0  0
 46 97  1  0  0  0  0
 47 98  1  0  0  0  0
 47 99  1  0  0  0  0
 47100  1  0  0  0  0
M  END
>  <DRUGBANK_ID>
DB17045

>  <COMMON_NAME>
Phorbol 12-myristate 13-acetate diester

>  <CAS_NUMBER>
16561-29-8

>  <UNII>
NI40JAQ945

>  <SYNONYMS>
12-o-tetradecanoylphorbol-13-acetate; 12-tetradecanoylphorbol 13-acetate; Phorbol 12-myristate 13-acetate; Phorbol myristate acetate; Pma (phorbol ester); Tetradecanoylphorbol acetate; Tpa (phorbol ester)

$$$$
