
 OpenBabel10282417072D

 18 17  0  0  0  0  0  0  0  0999 V2000
    0.1105    0.4125    0.0000 C   0  0  0  0  0  0  0  0  0  0  0  0
    2.2539    0.0000    0.0000 C   0  0  0  0  0  0  0  0  0  0  0  0
    0.8250    0.0000    0.0000 C   0  0  1  0  0  0  0  0  0  0  0  0
    1.5395    0.4125    0.0000 C   0  0  2  0  0  0  0  0  0  0  0  0
    0.8250   -0.8250    0.0000 O   0  0  0  0  0  0  0  0  0  0  0  0
    1.5395    1.2375    0.0000 O   0  0  0  0  0  0  0  0  0  0  0  0
   -0.6039   -0.0000    0.0000 S   0  0  0  0  0  0  0  0  0  0  0  0
    2.9684    0.4125    0.0000 S   0  0  0  0  0  0  0  0  0  0  0  0
    0.8250    0.8250    0.0000 H   0  0  0  0  0  0  0  0  0  0  0  0
    1.5395   -0.4125    0.0000 H   0  0  0  0  0  0  0  0  0  0  0  0
    0.1105    1.4825    0.0000 H   0  0  0  0  0  0  0  0  0  0  0  0
   -0.8162    0.9475    0.0000 H   0  0  0  0  0  0  0  0  0  0  0  0
    2.2539   -1.0700    0.0000 H   0  0  0  0  0  0  0  0  0  0  0  0
    3.1805   -0.5350    0.0000 H   0  0  0  0  0  0  0  0  0  0  0  0
   -0.0150   -1.3100    0.0000 H   0  0  0  0  0  0  0  0  0  0  0  0
    2.3795    1.7225    0.0000 H   0  0  0  0  0  0  0  0  0  0  0  0
   -1.7817    0.6799    0.0000 H   0  0  0  0  0  0  0  0  0  0  0  0
    4.1462   -0.2675    0.0000 H   0  0  0  0  0  0  0  0  0  0  0  0
  1 11  1  0  0  0  0
  1 12  1  0  0  0  0
  2 13  1  0  0  0  0
  2 14  1  0  0  0  0
  3  1  1  0  0  0  0
  3  5  1  0  0  0  0
  3  9  1  6  0  0  0
  4  2  1  0  0  0  0
  4  3  1  0  0  0  0
  4  6  1  0  0  0  0
  4 10  1  1  0  0  0
  5 15  1  0  0  0  0
  6 16  1  0  0  0  0
  7  1  1  0  0  0  0
  7 17  1  0  0  0  0
  8  2  1  0  0  0  0
  8 18  1  0  0  0  0
M  END
>  <DRUGBANK_ID>
DB01692

>  <SECONDARY_ACCESSION_NUMBERS>
EXPT01292

>  <COMMON_NAME>
Dithioerythritol

>  <CAS_NUMBER>
6892-68-8

>  <UNII>
R4SVL81GQI

>  <SYNONYMS>
(2R,3S)-1,4-dimercaptobutane-2,3-diol; (2R*,3S*)-1,4-dimercapto-2,3-butanediol; 1,4-dithioerythritol; DTE; erythro-1,4-Dimercapto-2,3-butanediol

$$$$
