ZZ2
 OpenBabel10282417072D

 26 26  0  0  0  0  0  0  0  0999 V2000
   -2.5783    0.6405    0.0000 N   0  0  0  0  0  0  0  0  0  0  0  0
   -1.8638    0.2280    0.0000 C   0  0  0  0  0  0  0  0  0  0  0  0
   -1.1493    0.6405    0.0000 N   0  0  0  0  0  0  0  0  0  0  0  0
   -0.4348    0.2280    0.0000 C   0  0  0  0  0  0  0  0  0  0  0  0
   -0.4348   -0.5970    0.0000 C   0  0  0  0  0  0  0  0  0  0  0  0
   -1.1493   -1.0095    0.0000 C   0  0  0  0  0  0  0  0  0  0  0  0
   -1.1493   -1.8345    0.0000 C   0  0  0  0  0  0  0  0  0  0  0  0
   -1.8638   -0.5970    0.0000 N   0  0  0  0  0  0  0  0  0  0  0  0
    0.2796    0.6405    0.0000 O   0  0  0  0  0  0  0  0  0  0  0  0
    0.9941    0.2280    0.0000 C   0  0  0  0  0  0  0  0  0  0  0  0
    1.7086    0.6405    0.0000 C   0  0  0  0  0  0  0  0  0  0  0  0
    2.4230    0.2280    0.0000 O   0  0  0  0  0  0  0  0  0  0  0  0
    3.1375    0.6405    0.0000 C   0  0  0  0  0  0  0  0  0  0  0  0
   -2.5783    1.6250    0.0000 H   0  0  0  0  0  0  0  0  0  0  0  0
   -3.4309    0.1482    0.0000 H   0  0  0  0  0  0  0  0  0  0  0  0
    0.4589   -1.1130    0.0000 H   0  0  0  0  0  0  0  0  0  0  0  0
   -2.0759   -2.3695    0.0000 H   0  0  0  0  0  0  0  0  0  0  0  0
   -0.2227   -2.3695    0.0000 H   0  0  0  0  0  0  0  0  0  0  0  0
   -1.1493   -2.9045    0.0000 H   0  0  0  0  0  0  0  0  0  0  0  0
    0.9941   -0.8420    0.0000 H   0  0  0  0  0  0  0  0  0  0  0  0
    1.9207   -0.3070    0.0000 H   0  0  0  0  0  0  0  0  0  0  0  0
    1.7086    1.7105    0.0000 H   0  0  0  0  0  0  0  0  0  0  0  0
    2.6353    1.1755    0.0000 H   0  0  0  0  0  0  0  0  0  0  0  0
    4.0641    0.1055    0.0000 H   0  0  0  0  0  0  0  0  0  0  0  0
    3.1375    1.7105    0.0000 H   0  0  0  0  0  0  0  0  0  0  0  0
    4.0642    1.1755    0.0000 H   0  0  0  0  0  0  0  0  0  0  0  0
  1  2  1  0  0  0  0
  1 14  1  0  0  0  0
  1 15  1  0  0  0  0
  2  3  1  0  0  0  0
  2  8  2  0  0  0  0
  3  4  2  0  0  0  0
  4  5  1  0  0  0  0
  4  9  1  0  0  0  0
  5  6  2  0  0  0  0
  5 16  1  0  0  0  0
  6  7  1  0  0  0  0
  6  8  1  0  0  0  0
  7 17  1  0  0  0  0
  7 18  1  0  0  0  0
  7 19  1  0  0  0  0
  9 10  1  0  0  0  0
 10 11  1  0  0  0  0
 10 20  1  0  0  0  0
 10 21  1  0  0  0  0
 11 12  1  0  0  0  0
 11 22  1  0  0  0  0
 11 23  1  0  0  0  0
 12 13  1  0  0  0  0
 13 24  1  0  0  0  0
 13 25  1  0  0  0  0
 13 26  1  0  0  0  0
M  END
>  <DRUGBANK_ID>
DB08786

>  <COMMON_NAME>
4-(2-methoxyethoxy)-6-methylpyrimidin-2-amine

$$$$
