
 OpenBabel10282417072D

 69 73  0  0  0  0  0  0  0  0999 V2000
    1.0027   -4.7739    0.0000 C   0  0  0  0  0  0  0  0  0  0  0  0
    0.4507   -4.1608    0.0000 C   0  0  0  0  0  0  0  0  0  0  0  0
    1.0638   -3.6088    0.0000 C   0  0  0  0  0  0  0  0  0  0  0  0
   -0.1014   -3.5477    0.0000 C   0  0  0  0  0  0  0  0  0  0  0  0
   -0.9083   -3.7192    0.0000 C   0  0  0  0  0  0  0  0  0  0  0  0
   -1.4604   -3.1062    0.0000 C   0  0  0  0  0  0  0  0  0  0  0  0
   -1.2054   -2.3215    0.0000 C   0  0  0  0  0  0  0  0  0  0  0  0
   -0.3984   -2.1500    0.0000 C   0  0  0  0  0  0  0  0  0  0  0  0
    0.1536   -2.7631    0.0000 N   0  0  0  0  0  0  0  0  0  0  0  0
   -0.1435   -1.3654    0.0000 N   0  0  0  0  0  0  0  0  0  0  0  0
    0.6411   -1.1104    0.0000 C   0  0  0  0  0  0  0  0  0  0  0  0
    0.6411   -0.2854    0.0000 C   0  0  0  0  0  0  0  0  0  0  0  0
    1.3556    0.1271    0.0000 C   0  0  0  0  0  0  0  0  0  0  0  0
    2.0701   -0.2854    0.0000 N   0  0  0  0  0  0  0  0  0  0  0  0
    2.0701   -1.1104    0.0000 C   0  0  0  0  0  0  0  0  0  0  0  0
    1.3556   -1.5229    0.0000 N   0  0  0  0  0  0  0  0  0  0  0  0
    2.7845   -1.5229    0.0000 N   0  0  0  0  0  0  0  0  0  0  0  0
    2.7845   -2.3479    0.0000 C   0  0  0  0  0  0  0  0  0  0  0  0
    3.4990   -2.7604    0.0000 C   0  0  0  0  0  0  0  0  0  0  0  0
    3.4990   -3.5854    0.0000 C   0  0  0  0  0  0  0  0  0  0  0  0
    2.7845   -3.9979    0.0000 C   0  0  0  0  0  0  0  0  0  0  0  0
    2.0701   -3.5854    0.0000 C   0  0  0  0  0  0  0  0  0  0  0  0
    2.0701   -2.7604    0.0000 C   0  0  0  0  0  0  0  0  0  0  0  0
    2.7845   -4.8229    0.0000 N   0  0  0  0  0  0  0  0  0  0  0  0
    3.4990   -5.2354    0.0000 C   0  0  0  0  0  0  0  0  0  0  0  0
    3.4990   -6.0604    0.0000 C   0  0  0  0  0  0  0  0  0  0  0  0
    2.7845   -6.4729    0.0000 N   0  0  0  0  0  0  0  0  0  0  0  0
    2.0701   -6.0604    0.0000 C   0  0  0  0  0  0  0  0  0  0  0  0
    2.0701   -5.2354    0.0000 C   0  0  0  0  0  0  0  0  0  0  0  0
    2.7845   -7.2979    0.0000 C   0  0  0  0  0  0  0  0  0  0  0  0
   -0.1435   -0.0305    0.0000 C   0  0  0  0  0  0  0  0  0  0  0  0
   -0.3984    0.7541    0.0000 O   0  0  0  0  0  0  0  0  0  0  0  0
   -0.6284   -0.6979    0.0000 N   0  0  0  0  0  0  0  0  0  0  0  0
   -1.4534   -0.6979    0.0000 C   0  0  0  0  0  0  0  0  0  0  0  0
   -1.8659   -1.4124    0.0000 C   0  0  0  0  0  0  0  0  0  0  0  0
   -2.6909   -1.4124    0.0000 C   0  0  0  0  0  0  0  0  0  0  0  0
   -0.1624   -4.7128    0.0000 O   0  0  0  0  0  0  0  0  0  0  0  0
    0.6720   -5.7915    0.0000 H   0  0  0  0  0  0  0  0  0  0  0  0
    2.0493   -4.5515    0.0000 H   0  0  0  0  0  0  0  0  0  0  0  0
    1.7186   -5.5691    0.0000 H   0  0  0  0  0  0  0  0  0  0  0  0
    2.0814   -3.9395    0.0000 H   0  0  0  0  0  0  0  0  0  0  0  0
    0.8414   -2.5622    0.0000 H   0  0  0  0  0  0  0  0  0  0  0  0
    1.8590   -2.8929    0.0000 H   0  0  0  0  0  0  0  0  0  0  0  0
   -1.2271   -4.7007    0.0000 H   0  0  0  0  0  0  0  0  0  0  0  0
   -2.4698   -3.3208    0.0000 H   0  0  0  0  0  0  0  0  0  0  0  0
   -1.8959   -1.5545    0.0000 H   0  0  0  0  0  0  0  0  0  0  0  0
    1.3556    1.1591    0.0000 H   0  0  0  0  0  0  0  0  0  0  0  0
    3.6371   -1.0307    0.0000 H   0  0  0  0  0  0  0  0  0  0  0  0
    4.3927   -2.2444    0.0000 H   0  0  0  0  0  0  0  0  0  0  0  0
    4.3927   -4.1014    0.0000 H   0  0  0  0  0  0  0  0  0  0  0  0
    1.1764   -4.1014    0.0000 H   0  0  0  0  0  0  0  0  0  0  0  0
    1.1764   -2.2444    0.0000 H   0  0  0  0  0  0  0  0  0  0  0  0
    4.4256   -4.7004    0.0000 H   0  0  0  0  0  0  0  0  0  0  0  0
    4.4256   -5.7704    0.0000 H   0  0  0  0  0  0  0  0  0  0  0  0
    4.4256   -6.5954    0.0000 H   0  0  0  0  0  0  0  0  0  0  0  0
    3.4990   -7.1304    0.0000 H   0  0  0  0  0  0  0  0  0  0  0  0
    1.1434   -6.5954    0.0000 H   0  0  0  0  0  0  0  0  0  0  0  0
    1.1435   -5.5254    0.0000 H   0  0  0  0  0  0  0  0  0  0  0  0
    1.1434   -4.7004    0.0000 H   0  0  0  0  0  0  0  0  0  0  0  0
    2.0701   -4.1654    0.0000 H   0  0  0  0  0  0  0  0  0  0  0  0
    1.8579   -7.8329    0.0000 H   0  0  0  0  0  0  0  0  0  0  0  0
    3.7111   -7.8329    0.0000 H   0  0  0  0  0  0  0  0  0  0  0  0
    2.7845   -8.3679    0.0000 H   0  0  0  0  0  0  0  0  0  0  0  0
   -1.9884    0.2287    0.0000 H   0  0  0  0  0  0  0  0  0  0  0  0
   -2.5234   -0.6979    0.0000 H   0  0  0  0  0  0  0  0  0  0  0  0
   -1.3499   -2.3061    0.0000 H   0  0  0  0  0  0  0  0  0  0  0  0
   -3.2069   -0.5187    0.0000 H   0  0  0  0  0  0  0  0  0  0  0  0
   -3.2069   -2.3061    0.0000 H   0  0  0  0  0  0  0  0  0  0  0  0
   -1.0849   -4.4130    0.0000 H   0  0  0  0  0  0  0  0  0  0  0  0
  1  2  1  0  0  0  0
  1 38  1  0  0  0  0
  1 39  1  0  0  0  0
  1 40  1  0  0  0  0
  2  3  1  0  0  0  0
  2  4  1  0  0  0  0
  2 37  1  0  0  0  0
  3 41  1  0  0  0  0
  3 42  1  0  0  0  0
  3 43  1  0  0  0  0
  4  5  2  0  0  0  0
  4  9  1  0  0  0  0
  5  6  1  0  0  0  0
  5 44  1  0  0  0  0
  6  7  2  0  0  0  0
  6 45  1  0  0  0  0
  7  8  1  0  0  0  0
  7 46  1  0  0  0  0
  8  9  2  0  0  0  0
  8 10  1  0  0  0  0
 10 11  1  0  0  0  0
 10 33  1  0  0  0  0
 11 12  1  0  0  0  0
 11 16  2  0  0  0  0
 12 13  2  0  0  0  0
 12 31  1  0  0  0  0
 13 14  1  0  0  0  0
 13 47  1  0  0  0  0
 14 15  2  0  0  0  0
 15 16  1  0  0  0  0
 15 17  1  0  0  0  0
 17 18  1  0  0  0  0
 17 48  1  0  0  0  0
 18 19  2  0  0  0  0
 18 23  1  0  0  0  0
 19 20  1  0  0  0  0
 19 49  1  0  0  0  0
 20 21  2  0  0  0  0
 20 50  1  0  0  0  0
 21 22  1  0  0  0  0
 21 24  1  0  0  0  0
 22 23  2  0  0  0  0
 22 51  1  0  0  0  0
 23 52  1  0  0  0  0
 24 25  1  0  0  0  0
 24 29  1  0  0  0  0
 25 26  1  0  0  0  0
 25 53  1  0  0  0  0
 25 54  1  0  0  0  0
 26 27  1  0  0  0  0
 26 55  1  0  0  0  0
 26 56  1  0  0  0  0
 27 28  1  0  0  0  0
 27 30  1  0  0  0  0
 28 29  1  0  0  0  0
 28 57  1  0  0  0  0
 28 58  1  0  0  0  0
 29 59  1  0  0  0  0
 29 60  1  0  0  0  0
 30 61  1  0  0  0  0
 30 62  1  0  0  0  0
 30 63  1  0  0  0  0
 31 32  2  0  0  0  0
 31 33  1  0  0  0  0
 33 34  1  0  0  0  0
 34 35  1  0  0  0  0
 34 64  1  0  0  0  0
 34 65  1  0  0  0  0
 35 36  2  0  0  0  0
 35 66  1  0  0  0  0
 36 67  1  0  0  0  0
 36 68  1  0  0  0  0
 37 69  1  0  0  0  0
M  END
>  <DRUGBANK_ID>
DB11740

>  <COMMON_NAME>
Adavosertib

>  <CAS_NUMBER>
955365-80-7

>  <UNII>
K2T6HJX3I3

$$$$
