
 OpenBabel10282417072D

 56 59  0  0  0  0  0  0  0  0999 V2000
   -2.1434   -1.6500    0.0000 C   0  0  0  0  0  0  0  0  0  0  0  0
   -2.8578   -2.0625    0.0000 C   0  0  0  0  0  0  0  0  0  0  0  0
   -2.8578   -2.8875    0.0000 C   0  0  0  0  0  0  0  0  0  0  0  0
   -2.1434   -3.3000    0.0000 C   0  0  0  0  0  0  0  0  0  0  0  0
   -1.4289   -2.8875    0.0000 C   0  0  0  0  0  0  0  0  0  0  0  0
   -1.4289   -2.0625    0.0000 C   0  0  0  0  0  0  0  0  0  0  0  0
   -0.7144   -1.6500    0.0000 C   0  0  0  0  0  0  0  0  0  0  0  0
   -0.7144   -0.8250    0.0000 N   0  0  0  0  0  0  0  0  0  0  0  0
    0.0000   -2.0625    0.0000 C   0  0  0  0  0  0  0  0  0  0  0  0
   -0.7144    0.8250    0.0000 N   0  0  0  0  0  0  0  0  0  0  0  0
   -1.4289    0.4124    0.0000 C   0  0  0  0  0  0  0  0  0  0  0  0
   -1.4289   -0.4125    0.0000 C   0  0  0  0  0  0  0  0  0  0  0  0
    0.0000   -0.4125    0.0000 C   0  0  0  0  0  0  0  0  0  0  0  0
    0.0000    0.4124    0.0000 C   0  0  0  0  0  0  0  0  0  0  0  0
    0.7144   -1.6500    0.0000 C   0  0  0  0  0  0  0  0  0  0  0  0
    0.0000   -2.8875    0.0000 C   0  0  0  0  0  0  0  0  0  0  0  0
    0.7144   -3.3000    0.0000 C   0  0  0  0  0  0  0  0  0  0  0  0
    1.4289   -2.8875    0.0000 C   0  0  0  0  0  0  0  0  0  0  0  0
    1.4289   -2.0625    0.0000 C   0  0  0  0  0  0  0  0  0  0  0  0
   -0.7144    1.6500    0.0000 C   0  0  0  0  0  0  0  0  0  0  0  0
    0.0000    2.0625    0.0000 C   0  0  0  0  0  0  0  0  0  0  0  0
    0.7144    1.6500    0.0000 C   0  0  0  0  0  0  0  0  0  0  0  0
    1.4289    2.0625    0.0000 C   0  0  0  0  0  0  0  0  0  0  0  0
    2.1434    3.3000    0.0000 C   0  0  0  0  0  0  0  0  0  0  0  0
    1.4289    2.8875    0.0000 C   0  0  0  0  0  0  0  0  0  0  0  0
    2.1434    1.6499    0.0000 C   0  0  0  0  0  0  0  0  0  0  0  0
    2.8578    2.0625    0.0000 C   0  0  0  0  0  0  0  0  0  0  0  0
    2.8578    2.8875    0.0000 C   0  0  0  0  0  0  0  0  0  0  0  0
   -2.1434   -0.6180    0.0000 H   0  0  0  0  0  0  0  0  0  0  0  0
   -3.7515   -1.5465    0.0000 H   0  0  0  0  0  0  0  0  0  0  0  0
   -3.7515   -3.4035    0.0000 H   0  0  0  0  0  0  0  0  0  0  0  0
   -2.1434   -4.3320    0.0000 H   0  0  0  0  0  0  0  0  0  0  0  0
   -0.5352   -3.4035    0.0000 H   0  0  0  0  0  0  0  0  0  0  0  0
    0.2123   -1.1150    0.0000 H   0  0  0  0  0  0  0  0  0  0  0  0
   -2.3556    0.9474    0.0000 H   0  0  0  0  0  0  0  0  0  0  0  0
   -2.3555   -0.1226    0.0000 H   0  0  0  0  0  0  0  0  0  0  0  0
   -2.3555   -0.9475    0.0000 H   0  0  0  0  0  0  0  0  0  0  0  0
   -2.3555    0.1225    0.0000 H   0  0  0  0  0  0  0  0  0  0  0  0
    0.9267   -0.9475    0.0000 H   0  0  0  0  0  0  0  0  0  0  0  0
    0.9266    0.1225    0.0000 H   0  0  0  0  0  0  0  0  0  0  0  0
    0.9267    0.9473    0.0000 H   0  0  0  0  0  0  0  0  0  0  0  0
    0.9266   -0.1226    0.0000 H   0  0  0  0  0  0  0  0  0  0  0  0
    0.7144   -0.6180    0.0000 H   0  0  0  0  0  0  0  0  0  0  0  0
   -0.8937   -3.4035    0.0000 H   0  0  0  0  0  0  0  0  0  0  0  0
    0.7144   -4.3320    0.0000 H   0  0  0  0  0  0  0  0  0  0  0  0
    2.3226   -3.4035    0.0000 H   0  0  0  0  0  0  0  0  0  0  0  0
    2.3226   -1.5465    0.0000 H   0  0  0  0  0  0  0  0  0  0  0  0
   -1.6411    2.1850    0.0000 H   0  0  0  0  0  0  0  0  0  0  0  0
   -0.7144    2.7200    0.0000 H   0  0  0  0  0  0  0  0  0  0  0  0
    0.0000    3.0945    0.0000 H   0  0  0  0  0  0  0  0  0  0  0  0
    0.7144    0.6180    0.0000 H   0  0  0  0  0  0  0  0  0  0  0  0
    2.1434    4.3320    0.0000 H   0  0  0  0  0  0  0  0  0  0  0  0
    0.5352    3.4035    0.0000 H   0  0  0  0  0  0  0  0  0  0  0  0
    2.1434    0.6179    0.0000 H   0  0  0  0  0  0  0  0  0  0  0  0
    3.7516    1.5466    0.0000 H   0  0  0  0  0  0  0  0  0  0  0  0
    3.7515    3.4035    0.0000 H   0  0  0  0  0  0  0  0  0  0  0  0
  1  2  2  0  0  0  0
  1  6  1  0  0  0  0
  1 29  1  0  0  0  0
  2  3  1  0  0  0  0
  2 30  1  0  0  0  0
  3  4  2  0  0  0  0
  3 31  1  0  0  0  0
  4  5  1  0  0  0  0
  4 32  1  0  0  0  0
  5  6  2  0  0  0  0
  5 33  1  0  0  0  0
  6  7  1  0  0  0  0
  7  8  1  0  0  0  0
  7  9  1  0  0  0  0
  7 34  1  0  0  0  0
  8 13  1  0  0  0  0
  9 16  1  0  0  0  0
 10 11  1  0  0  0  0
 10 14  1  0  0  0  0
 10 20  1  0  0  0  0
 11 12  1  0  0  0  0
 11 35  1  0  0  0  0
 11 36  1  0  0  0  0
 12  8  1  0  0  0  0
 12 37  1  0  0  0  0
 12 38  1  0  0  0  0
 13 14  1  0  0  0  0
 13 39  1  0  0  0  0
 13 40  1  0  0  0  0
 14 41  1  0  0  0  0
 14 42  1  0  0  0  0
 15  9  2  0  0  0  0
 15 19  1  0  0  0  0
 15 43  1  0  0  0  0
 16 17  2  0  0  0  0
 16 44  1  0  0  0  0
 17 18  1  0  0  0  0
 17 45  1  0  0  0  0
 18 19  2  0  0  0  0
 18 46  1  0  0  0  0
 19 47  1  0  0  0  0
 20 21  1  0  0  0  0
 20 48  1  0  0  0  0
 20 49  1  0  0  0  0
 21 22  2  0  0  0  0
 21 50  1  0  0  0  0
 22 23  1  0  0  0  0
 22 51  1  0  0  0  0
 23 26  1  0  0  0  0
 24 25  1  0  0  0  0
 24 28  2  0  0  0  0
 24 52  1  0  0  0  0
 25 23  2  0  0  0  0
 25 53  1  0  0  0  0
 26 27  2  0  0  0  0
 26 54  1  0  0  0  0
 27 28  1  0  0  0  0
 27 55  1  0  0  0  0
 28 56  1  0  0  0  0
M  END
>  <DRUGBANK_ID>
DB00568

>  <SECONDARY_ACCESSION_NUMBERS>
APRD00332

>  <COMMON_NAME>
Cinnarizine

>  <CAS_NUMBER>
298-57-7

>  <UNII>
3DI2E1X18L

>  <SYNONYMS>
1-(Diphenylmethyl)-4-(3-phenyl-2-propenyl)piperazine; 1-Benzhydryl-4-cinnamylpiperazin; 1-Cinnamyl-4-(diphenylmethyl)piperazine; Cinarizina; Cinnarizine; Cinnarizinum

$$$$
