
 OpenBabel10282417072D

 65 67  0  0  1  0  0  0  0  0999 V2000
    3.0461   -2.3331    0.0000 C   0  0  0  0  0  0  0  0  0  0  0  0
    2.4413   -1.7720    0.0000 N   0  0  0  0  0  0  0  0  0  0  0  0
    1.6734   -2.0734    0.0000 C   0  0  0  0  0  0  0  0  0  0  0  0
    1.6734   -2.8984    0.0000 C   0  0  0  0  0  0  0  0  0  0  0  0
    0.9589   -3.3109    0.0000 C   0  0  0  0  0  0  0  0  0  0  0  0
    0.2444   -2.8984    0.0000 C   0  0  0  0  0  0  0  0  0  0  0  0
    0.2444   -2.0734    0.0000 C   0  0  0  0  0  0  0  0  0  0  0  0
    0.9589   -1.6609    0.0000 C   0  0  0  0  0  0  0  0  0  0  0  0
    0.8359   -0.8451    0.0000 C   0  0  0  0  0  0  0  0  0  0  0  0
    1.3971   -0.2403    0.0000 N   0  0  0  0  0  0  0  0  0  0  0  0
    2.2198   -0.3020    0.0000 C   0  0  1  0  0  0  0  0  0  0  0  0
    2.6845   -0.9836    0.0000 C   0  0  0  0  0  0  0  0  0  0  0  0
    3.5003   -0.8607    0.0000 O   0  0  0  0  0  0  0  0  0  0  0  0
    2.6323    0.4125    0.0000 N   0  0  0  0  0  0  0  0  0  0  0  0
    3.4573    0.4125    0.0000 C   0  0  0  0  0  0  0  0  0  0  0  0
    3.8698   -0.3020    0.0000 O   0  0  0  0  0  0  0  0  0  0  0  0
    3.8698    1.1270    0.0000 C   0  0  2  0  0  0  0  0  0  0  0  0
    3.4573    1.8414    0.0000 C   0  0  0  0  0  0  0  0  0  0  0  0
    3.8698    2.5559    0.0000 C   0  0  0  0  0  0  0  0  0  0  0  0
    3.4573    3.2704    0.0000 C   0  0  0  0  0  0  0  0  0  0  0  0
    4.1718    3.6829    0.0000 F   0  0  0  0  0  0  0  0  0  0  0  0
    2.7428    2.8579    0.0000 F   0  0  0  0  0  0  0  0  0  0  0  0
    3.0448    3.9849    0.0000 F   0  0  0  0  0  0  0  0  0  0  0  0
    4.6948    1.1270    0.0000 C   0  0  2  0  0  0  0  0  0  0  0  0
    5.1073    1.8414    0.0000 C   0  0  0  0  0  0  0  0  0  0  0  0
    5.9323    1.8414    0.0000 C   0  0  0  0  0  0  0  0  0  0  0  0
    6.3448    2.5559    0.0000 C   0  0  0  0  0  0  0  0  0  0  0  0
    6.7573    3.2704    0.0000 F   0  0  0  0  0  0  0  0  0  0  0  0
    5.6303    2.9684    0.0000 F   0  0  0  0  0  0  0  0  0  0  0  0
    7.0593    2.1434    0.0000 F   0  0  0  0  0  0  0  0  0  0  0  0
    5.1073    0.4125    0.0000 C   0  0  0  0  0  0  0  0  0  0  0  0
    5.9323    0.4125    0.0000 O   0  0  0  0  0  0  0  0  0  0  0  0
    4.6948   -0.3020    0.0000 N   0  0  0  0  0  0  0  0  0  0  0  0
    0.0476   -0.6019    0.0000 C   0  0  0  0  0  0  0  0  0  0  0  0
   -0.5572   -1.1631    0.0000 C   0  0  0  0  0  0  0  0  0  0  0  0
   -1.3455   -0.9199    0.0000 C   0  0  0  0  0  0  0  0  0  0  0  0
   -1.5291   -0.1156    0.0000 C   0  0  0  0  0  0  0  0  0  0  0  0
   -0.9243    0.4456    0.0000 C   0  0  0  0  0  0  0  0  0  0  0  0
   -0.1360    0.2024    0.0000 C   0  0  0  0  0  0  0  0  0  0  0  0
    2.8081   -3.3763    0.0000 H   0  0  0  0  0  0  0  0  0  0  0  0
    4.0685   -2.0176    0.0000 H   0  0  0  0  0  0  0  0  0  0  0  0
    3.8305   -3.0608    0.0000 H   0  0  0  0  0  0  0  0  0  0  0  0
    2.5671   -3.4144    0.0000 H   0  0  0  0  0  0  0  0  0  0  0  0
    0.9589   -4.3429    0.0000 H   0  0  0  0  0  0  0  0  0  0  0  0
   -0.6493   -3.4144    0.0000 H   0  0  0  0  0  0  0  0  0  0  0  0
   -0.6493   -1.5574    0.0000 H   0  0  0  0  0  0  0  0  0  0  0  0
    1.7198    0.6440    0.0000 H   0  0  0  0  0  0  0  0  0  0  0  0
    2.1400    1.2651    0.0000 H   0  0  0  0  0  0  0  0  0  0  0  0
    2.7998    1.1270    0.0000 H   0  0  0  0  0  0  0  0  0  0  0  0
    2.3873    1.8414    0.0000 H   0  0  0  0  0  0  0  0  0  0  0  0
    2.9223    2.7680    0.0000 H   0  0  0  0  0  0  0  0  0  0  0  0
    4.9398    2.5559    0.0000 H   0  0  0  0  0  0  0  0  0  0  0  0
    4.4048    3.4825    0.0000 H   0  0  0  0  0  0  0  0  0  0  0  0
    4.1598    2.0537    0.0000 H   0  0  0  0  0  0  0  0  0  0  0  0
    4.5723    2.7681    0.0000 H   0  0  0  0  0  0  0  0  0  0  0  0
    5.6423    2.7680    0.0000 H   0  0  0  0  0  0  0  0  0  0  0  0
    6.4673    0.9148    0.0000 H   0  0  0  0  0  0  0  0  0  0  0  0
    7.0023    1.8414    0.0000 H   0  0  0  0  0  0  0  0  0  0  0  0
    3.7103   -0.3020    0.0000 H   0  0  0  0  0  0  0  0  0  0  0  0
    5.1871   -1.1546    0.0000 H   0  0  0  0  0  0  0  0  0  0  0  0
   -0.3276   -2.1692    0.0000 H   0  0  0  0  0  0  0  0  0  0  0  0
   -2.1020   -1.6218    0.0000 H   0  0  0  0  0  0  0  0  0  0  0  0
   -2.5153    0.1886    0.0000 H   0  0  0  0  0  0  0  0  0  0  0  0
   -1.1539    1.4517    0.0000 H   0  0  0  0  0  0  0  0  0  0  0  0
    0.6205    0.9043    0.0000 H   0  0  0  0  0  0  0  0  0  0  0  0
  1  2  1  0  0  0  0
  1 40  1  0  0  0  0
  1 41  1  0  0  0  0
  1 42  1  0  0  0  0
  2  3  1  0  0  0  0
  2 12  1  0  0  0  0
  3  4  2  0  0  0  0
  3  8  1  0  0  0  0
  4  5  1  0  0  0  0
  4 43  1  0  0  0  0
  5  6  2  0  0  0  0
  5 44  1  0  0  0  0
  6  7  1  0  0  0  0
  6 45  1  0  0  0  0
  7  8  2  0  0  0  0
  7 46  1  0  0  0  0
  8  9  1  0  0  0  0
  9 10  2  0  0  0  0
  9 34  1  0  0  0  0
 10 11  1  0  0  0  0
 11 12  1  0  0  0  0
 11 14  1  0  0  0  0
 11 47  1  1  0  0  0
 12 13  2  0  0  0  0
 14 15  1  0  0  0  0
 14 48  1  0  0  0  0
 15 16  2  0  0  0  0
 17 15  1  0  0  0  0
 17 18  1  0  0  0  0
 17 24  1  0  0  0  0
 17 49  1  1  0  0  0
 18 19  1  0  0  0  0
 18 50  1  0  0  0  0
 18 51  1  0  0  0  0
 19 20  1  0  0  0  0
 19 52  1  0  0  0  0
 19 53  1  0  0  0  0
 20 21  1  0  0  0  0
 20 22  1  0  0  0  0
 20 23  1  0  0  0  0
 24 25  1  0  0  0  0
 24 31  1  0  0  0  0
 24 54  1  1  0  0  0
 25 26  1  0  0  0  0
 25 55  1  0  0  0  0
 25 56  1  0  0  0  0
 26 27  1  0  0  0  0
 26 57  1  0  0  0  0
 26 58  1  0  0  0  0
 27 28  1  0  0  0  0
 27 29  1  0  0  0  0
 27 30  1  0  0  0  0
 31 32  2  0  0  0  0
 31 33  1  0  0  0  0
 33 59  1  0  0  0  0
 33 60  1  0  0  0  0
 34 35  2  0  0  0  0
 34 39  1  0  0  0  0
 35 36  1  0  0  0  0
 35 61  1  0  0  0  0
 36 37  2  0  0  0  0
 36 62  1  0  0  0  0
 37 38  1  0  0  0  0
 37 63  1  0  0  0  0
 38 39  2  0  0  0  0
 38 64  1  0  0  0  0
 39 65  1  0  0  0  0
M  END
>  <DRUGBANK_ID>
DB12006

>  <COMMON_NAME>
Osugacestat

>  <CAS_NUMBER>
1401066-79-2

>  <UNII>
DRL23N424R

>  <SYNONYMS>
(2R,3S)-N1-((S)-1-methyl-2-oxo-5-phenyl-2,3-dihydro-1H-benzo[e][1,4]diazepin-3-yl)-2,3-bis(3,3,3-trifluoropropyl)succinamide; Butanediamide, N1-((3S)-2,3-dihydro-1-methyl-2-oxo-5-phenyl-1H-1,4-benzodiazepin-3-yl)-2,3-bis(3,3,3-trifluorophenyl)-, (2R,3S)-

$$$$
