SB9
 OpenBabel10282417072D

 28 28  0  0  0  0  0  0  0  0999 V2000
   -1.2741    0.9384    0.0000 C   0  0  0  0  0  0  0  0  0  0  0  0
   -0.5596    0.5259    0.0000 N   0  0  0  0  0  0  0  0  0  0  0  0
   -0.5596   -0.2991    0.0000 C   0  0  0  0  0  0  0  0  0  0  0  0
   -1.2741   -0.7116    0.0000 C   0  0  0  0  0  0  0  0  0  0  0  0
   -1.9886   -0.2991    0.0000 C   0  0  0  0  0  0  0  0  0  0  0  0
   -1.9886    0.5259    0.0000 C   0  0  0  0  0  0  0  0  0  0  0  0
   -1.2741    1.7634    0.0000 C   0  0  0  0  0  0  0  0  0  0  0  0
    0.1548   -0.7116    0.0000 C   0  0  0  0  0  0  0  0  0  0  0  0
    0.8693   -0.2991    0.0000 C   0  0  0  0  0  0  0  0  0  0  0  0
    1.5838   -0.7116    0.0000 C   0  0  0  0  0  0  0  0  0  0  0  0
    2.2982   -0.2991    0.0000 N   0  0  0  0  0  0  0  0  0  0  0  0
    2.2982    0.5259    0.0000 O   0  0  0  0  0  0  0  0  0  0  0  0
    3.0127   -0.7116    0.0000 C   0  0  0  0  0  0  0  0  0  0  0  0
    3.7272   -0.2991    0.0000 O   0  0  0  0  0  0  0  0  0  0  0  0
   -1.2741   -1.7436    0.0000 H   0  0  0  0  0  0  0  0  0  0  0  0
   -2.8823   -0.8151    0.0000 H   0  0  0  0  0  0  0  0  0  0  0  0
   -2.8823    1.0419    0.0000 H   0  0  0  0  0  0  0  0  0  0  0  0
   -0.3475    2.2984    0.0000 H   0  0  0  0  0  0  0  0  0  0  0  0
   -2.2007    2.2984    0.0000 H   0  0  0  0  0  0  0  0  0  0  0  0
   -1.2741    2.8334    0.0000 H   0  0  0  0  0  0  0  0  0  0  0  0
    0.1548   -1.7816    0.0000 H   0  0  0  0  0  0  0  0  0  0  0  0
    1.0814   -1.2466    0.0000 H   0  0  0  0  0  0  0  0  0  0  0  0
    0.8693    0.7709    0.0000 H   0  0  0  0  0  0  0  0  0  0  0  0
    1.7959    0.2359    0.0000 H   0  0  0  0  0  0  0  0  0  0  0  0
    1.5838   -1.7816    0.0000 H   0  0  0  0  0  0  0  0  0  0  0  0
    2.5105   -1.2466    0.0000 H   0  0  0  0  0  0  0  0  0  0  0  0
    3.1382    1.0109    0.0000 H   0  0  0  0  0  0  0  0  0  0  0  0
    3.0127   -1.7436    0.0000 H   0  0  0  0  0  0  0  0  0  0  0  0
  1  2  2  0  0  0  0
  1  6  1  0  0  0  0
  1  7  1  0  0  0  0
  2  3  1  0  0  0  0
  3  4  2  0  0  0  0
  3  8  1  0  0  0  0
  4  5  1  0  0  0  0
  4 15  1  0  0  0  0
  5  6  2  0  0  0  0
  5 16  1  0  0  0  0
  6 17  1  0  0  0  0
  7 18  1  0  0  0  0
  7 19  1  0  0  0  0
  7 20  1  0  0  0  0
  8  9  1  0  0  0  0
  8 21  1  0  0  0  0
  8 22  1  0  0  0  0
  9 10  1  0  0  0  0
  9 23  1  0  0  0  0
  9 24  1  0  0  0  0
 10 11  1  0  0  0  0
 10 25  1  0  0  0  0
 10 26  1  0  0  0  0
 11 12  1  0  0  0  0
 11 13  1  0  0  0  0
 12 27  1  0  0  0  0
 13 14  2  0  0  0  0
 13 28  1  0  0  0  0
M  END
>  <DRUGBANK_ID>
DB08525

>  <COMMON_NAME>
HYDROXY[3-(6-METHYLPYRIDIN-2-YL)PROPYL]FORMAMIDE

$$$$
