
 OpenBabel10282417072D

134142  0  0  1  0  0  0  0  0999 V2000
    7.2076   -4.2801    0.0000 C   0  0  0  0  0  0  0  0  0  0  0  0
    7.3319   -3.4645    0.0000 C   0  0  1  0  0  0  0  0  0  0  0  0
    8.0648   -3.0857    0.0000 C   0  0  1  0  0  0  0  0  0  0  0  0
    7.9311   -2.2716    0.0000 C   0  0  2  0  0  0  0  0  0  0  0  0
    8.6640   -1.8929    0.0000 C   0  0  0  0  0  0  0  0  0  0  0  0
    9.2507   -2.4728    0.0000 C   0  0  1  0  0  0  0  0  0  0  0  0
   10.0743   -2.4249    0.0000 C   0  0  2  0  0  0  0  0  0  0  0  0
   10.4446   -1.6877    0.0000 C   0  0  0  0  0  0  0  0  0  0  0  0
   11.2682   -1.6397    0.0000 C   0  0  0  0  0  0  0  0  0  0  0  0
   11.7215   -2.3290    0.0000 C   0  0  0  0  0  0  0  0  0  0  0  0
   12.5451   -2.2811    0.0000 C   0  0  0  0  0  0  0  0  0  0  0  0
   12.9984   -2.9704    0.0000 C   0  0  2  0  0  0  0  0  0  0  0  0
   12.6282   -3.7076    0.0000 C   0  0  0  0  0  0  0  0  0  0  0  0
   11.8046   -3.7555    0.0000 C   0  0  0  0  0  0  0  0  0  0  0  0
   11.3512   -3.0662    0.0000 C   0  0  1  0  0  0  0  0  0  0  0  0
   10.9810   -3.8035    0.0000 C   0  0  0  0  0  0  0  0  0  0  0  0
   10.5276   -3.1142    0.0000 C   0  0  1  0  0  0  0  0  0  0  0  0
   10.1573   -3.8514    0.0000 C   0  0  0  0  0  0  0  0  0  0  0  0
    9.3337   -3.8994    0.0000 C   0  0  0  0  0  0  0  0  0  0  0  0
    8.8804   -3.2101    0.0000 C   0  0  2  0  0  0  0  0  0  0  0  0
    8.4351   -3.9046    0.0000 C   0  0  0  0  0  0  0  0  0  0  0  0
   13.8221   -2.9224    0.0000 O   0  0  0  0  0  0  0  0  0  0  0  0
   14.2754   -3.6117    0.0000 C   0  0  2  0  0  0  0  0  0  0  0  0
   15.0990   -3.5638    0.0000 O   0  0  0  0  0  0  0  0  0  0  0  0
   15.5523   -4.2531    0.0000 C   0  0  2  0  0  0  0  0  0  0  0  0
   16.3759   -4.2051    0.0000 C   0  0  0  0  0  0  0  0  0  0  0  0
   16.7462   -3.4679    0.0000 O   0  0  0  0  0  0  0  0  0  0  0  0
   15.1820   -4.9903    0.0000 C   0  0  1  0  0  0  0  0  0  0  0  0
   15.6353   -5.6796    0.0000 O   0  0  0  0  0  0  0  0  0  0  0  0
   16.4589   -5.6316    0.0000 C   0  0  2  0  0  0  0  0  0  0  0  0
   16.8292   -4.8944    0.0000 O   0  0  0  0  0  0  0  0  0  0  0  0
   17.6528   -4.8465    0.0000 C   0  0  1  0  0  0  0  0  0  0  0  0
   18.0231   -4.1092    0.0000 C   0  0  0  0  0  0  0  0  0  0  0  0
   18.1062   -5.5358    0.0000 C   0  0  2  0  0  0  0  0  0  0  0  0
   18.9298   -5.4878    0.0000 O   0  0  0  0  0  0  0  0  0  0  0  0
   17.7359   -6.2730    0.0000 C   0  0  1  0  0  0  0  0  0  0  0  0
   18.1892   -6.9623    0.0000 O   0  0  0  0  0  0  0  0  0  0  0  0
   16.9123   -6.3209    0.0000 C   0  0  1  0  0  0  0  0  0  0  0  0
   16.5420   -7.0582    0.0000 O   0  0  0  0  0  0  0  0  0  0  0  0
   14.3584   -5.0382    0.0000 C   0  0  2  0  0  0  0  0  0  0  0  0
   13.9881   -5.7755    0.0000 O   0  0  0  0  0  0  0  0  0  0  0  0
   13.9051   -4.3489    0.0000 C   0  0  1  0  0  0  0  0  0  0  0  0
   13.0815   -4.3969    0.0000 O   0  0  0  0  0  0  0  0  0  0  0  0
   12.7112   -5.1341    0.0000 C   0  0  2  0  0  0  0  0  0  0  0  0
   13.1645   -5.8234    0.0000 O   0  0  0  0  0  0  0  0  0  0  0  0
   12.7942   -6.5606    0.0000 C   0  0  1  0  0  0  0  0  0  0  0  0
   13.2476   -7.2499    0.0000 C   0  0  0  0  0  0  0  0  0  0  0  0
   11.9706   -6.6086    0.0000 C   0  0  2  0  0  0  0  0  0  0  0  0
   11.6003   -7.3458    0.0000 O   0  0  0  0  0  0  0  0  0  0  0  0
   11.5173   -5.9193    0.0000 C   0  0  1  0  0  0  0  0  0  0  0  0
   10.6937   -5.9672    0.0000 O   0  0  0  0  0  0  0  0  0  0  0  0
   11.8876   -5.1821    0.0000 C   0  0  1  0  0  0  0  0  0  0  0  0
   11.4343   -4.4928    0.0000 O   0  0  0  0  0  0  0  0  0  0  0  0
    7.1155   -2.1473    0.0000 O   0  0  0  0  0  0  0  0  0  0  0  0
    6.7452   -2.8845    0.0000 C   0  0  2  0  0  0  0  0  0  0  0  0
    6.4540   -3.6564    0.0000 C   0  0  0  0  0  0  0  0  0  0  0  0
    5.6399   -3.7902    0.0000 C   0  0  0  0  0  0  0  0  0  0  0  0
    5.1170   -3.1521    0.0000 C   0  0  1  0  0  0  0  0  0  0  0  0
    4.3030   -3.2858    0.0000 C   0  0  0  0  0  0  0  0  0  0  0  0
    5.4082   -2.3802    0.0000 C   0  0  0  0  0  0  0  0  0  0  0  0
    6.2223   -2.2464    0.0000 N   0  0  0  0  0  0  0  0  0  0  0  0
    6.2109   -4.6694    0.0000 H   0  0  0  0  0  0  0  0  0  0  0  0
    8.0431   -4.9486    0.0000 H   0  0  0  0  0  0  0  0  0  0  0  0
    7.0464   -5.3379    0.0000 H   0  0  0  0  0  0  0  0  0  0  0  0
    8.2012   -4.0884    0.0000 H   0  0  0  0  0  0  0  0  0  0  0  0
    8.2383   -4.1415    0.0000 H   0  0  0  0  0  0  0  0  0  0  0  0
    8.8872   -2.7519    0.0000 H   0  0  0  0  0  0  0  0  0  0  0  0
    8.8253   -0.8351    0.0000 H   0  0  0  0  0  0  0  0  0  0  0  0
    9.6797   -1.5564    0.0000 H   0  0  0  0  0  0  0  0  0  0  0  0
    9.6284   -1.4717    0.0000 H   0  0  0  0  0  0  0  0  0  0  0  0
    9.4864   -1.5309    0.0000 H   0  0  0  0  0  0  0  0  0  0  0  0
    9.8566   -0.7937    0.0000 H   0  0  0  0  0  0  0  0  0  0  0  0
   10.9248   -0.7315    0.0000 H   0  0  0  0  0  0  0  0  0  0  0  0
   11.7314   -0.7175    0.0000 H   0  0  0  0  0  0  0  0  0  0  0  0
   13.0254   -1.3249    0.0000 H   0  0  0  0  0  0  0  0  0  0  0  0
   13.6133   -2.2190    0.0000 H   0  0  0  0  0  0  0  0  0  0  0  0
   13.4786   -2.0142    0.0000 H   0  0  0  0  0  0  0  0  0  0  0  0
   13.2162   -4.6016    0.0000 H   0  0  0  0  0  0  0  0  0  0  0  0
   12.1479   -4.6638    0.0000 H   0  0  0  0  0  0  0  0  0  0  0  0
   11.3244   -4.7117    0.0000 H   0  0  0  0  0  0  0  0  0  0  0  0
   10.7364   -3.8177    0.0000 H   0  0  0  0  0  0  0  0  0  0  0  0
    9.9128   -3.8658    0.0000 H   0  0  0  0  0  0  0  0  0  0  0  0
   11.5691   -4.6974    0.0000 H   0  0  0  0  0  0  0  0  0  0  0  0
   10.5009   -4.7597    0.0000 H   0  0  0  0  0  0  0  0  0  0  0  0
   11.1156   -4.0082    0.0000 H   0  0  0  0  0  0  0  0  0  0  0  0
   10.7453   -4.7454    0.0000 H   0  0  0  0  0  0  0  0  0  0  0  0
    9.6771   -4.8076    0.0000 H   0  0  0  0  0  0  0  0  0  0  0  0
    8.8535   -4.8556    0.0000 H   0  0  0  0  0  0  0  0  0  0  0  0
    8.2655   -3.9616    0.0000 H   0  0  0  0  0  0  0  0  0  0  0  0
    7.3663   -3.8548    0.0000 H   0  0  0  0  0  0  0  0  0  0  0  0
    8.9264   -4.8551    0.0000 H   0  0  0  0  0  0  0  0  0  0  0  0
    7.8576   -4.8053    0.0000 H   0  0  0  0  0  0  0  0  0  0  0  0
   14.7557   -2.6555    0.0000 H   0  0  0  0  0  0  0  0  0  0  0  0
   16.0325   -3.2969    0.0000 H   0  0  0  0  0  0  0  0  0  0  0  0
   16.9639   -5.0991    0.0000 H   0  0  0  0  0  0  0  0  0  0  0  0
   17.4441   -4.1429    0.0000 H   0  0  0  0  0  0  0  0  0  0  0  0
   17.7146   -3.4116    0.0000 H   0  0  0  0  0  0  0  0  0  0  0  0
   16.2502   -4.9282    0.0000 H   0  0  0  0  0  0  0  0  0  0  0  0
   15.8709   -4.7376    0.0000 H   0  0  0  0  0  0  0  0  0  0  0  0
   17.0649   -3.9525    0.0000 H   0  0  0  0  0  0  0  0  0  0  0  0
   19.0913   -4.0470    0.0000 H   0  0  0  0  0  0  0  0  0  0  0  0
   17.4351   -3.2152    0.0000 H   0  0  0  0  0  0  0  0  0  0  0  0
   18.5033   -3.1530    0.0000 H   0  0  0  0  0  0  0  0  0  0  0  0
   18.5864   -4.5796    0.0000 H   0  0  0  0  0  0  0  0  0  0  0  0
   19.4629   -6.2982    0.0000 H   0  0  0  0  0  0  0  0  0  0  0  0
   18.8041   -6.2109    0.0000 H   0  0  0  0  0  0  0  0  0  0  0  0
   17.7538   -7.8291    0.0000 H   0  0  0  0  0  0  0  0  0  0  0  0
   17.5002   -7.2149    0.0000 H   0  0  0  0  0  0  0  0  0  0  0  0
   15.5736   -7.1146    0.0000 H   0  0  0  0  0  0  0  0  0  0  0  0
   14.9463   -5.9322    0.0000 H   0  0  0  0  0  0  0  0  0  0  0  0
   13.0197   -5.8319    0.0000 H   0  0  0  0  0  0  0  0  0  0  0  0
   13.4249   -5.3051    0.0000 H   0  0  0  0  0  0  0  0  0  0  0  0
   13.7794   -5.0720    0.0000 H   0  0  0  0  0  0  0  0  0  0  0  0
   13.8624   -6.4984    0.0000 H   0  0  0  0  0  0  0  0  0  0  0  0
   12.7674   -8.2061    0.0000 H   0  0  0  0  0  0  0  0  0  0  0  0
   14.3158   -7.1876    0.0000 H   0  0  0  0  0  0  0  0  0  0  0  0
   13.8356   -8.1438    0.0000 H   0  0  0  0  0  0  0  0  0  0  0  0
   12.5586   -7.5026    0.0000 H   0  0  0  0  0  0  0  0  0  0  0  0
   10.6319   -7.4021    0.0000 H   0  0  0  0  0  0  0  0  0  0  0  0
   11.0370   -6.8755    0.0000 H   0  0  0  0  0  0  0  0  0  0  0  0
   10.1607   -5.1567    0.0000 H   0  0  0  0  0  0  0  0  0  0  0  0
   10.8194   -5.2442    0.0000 H   0  0  0  0  0  0  0  0  0  0  0  0
   11.8697   -3.6260    0.0000 H   0  0  0  0  0  0  0  0  0  0  0  0
    7.1322   -4.4840    0.0000 H   0  0  0  0  0  0  0  0  0  0  0  0
    6.0764   -4.6575    0.0000 H   0  0  0  0  0  0  0  0  0  0  0  0
    5.2623   -4.7913    0.0000 H   0  0  0  0  0  0  0  0  0  0  0  0
    4.5841   -3.9637    0.0000 H   0  0  0  0  0  0  0  0  0  0  0  0
    4.7393   -4.1532    0.0000 H   0  0  0  0  0  0  0  0  0  0  0  0
    3.6249   -2.4581    0.0000 H   0  0  0  0  0  0  0  0  0  0  0  0
    3.9253   -4.2869    0.0000 H   0  0  0  0  0  0  0  0  0  0  0  0
    3.2471   -3.4592    0.0000 H   0  0  0  0  0  0  0  0  0  0  0  0
    4.7300   -1.5526    0.0000 H   0  0  0  0  0  0  0  0  0  0  0  0
    5.7858   -1.3791    0.0000 H   0  0  0  0  0  0  0  0  0  0  0  0
    6.5823   -1.2920    0.0000 H   0  0  0  0  0  0  0  0  0  0  0  0
  1 62  1  0  0  0  0
  1 63  1  0  0  0  0
  1 64  1  0  0  0  0
  2  1  1  0  0  0  0
  2  3  1  0  0  0  0
  2 55  1  0  0  0  0
  2 65  1  1  0  0  0
  3  4  1  0  0  0  0
  3 20  1  0  0  0  0
  3 66  1  6  0  0  0
  4  5  1  0  0  0  0
  4 54  1  0  0  0  0
  4 67  1  6  0  0  0
  5 68  1  0  0  0  0
  5 69  1  0  0  0  0
  6  5  1  0  0  0  0
  6  7  1  0  0  0  0
  6 20  1  0  0  0  0
  6 70  1  6  0  0  0
  7  8  1  0  0  0  0
  7 17  1  0  0  0  0
  7 71  1  1  0  0  0
  8  9  1  0  0  0  0
  8 72  1  0  0  0  0
  8 73  1  0  0  0  0
  9 10  2  0  0  0  0
  9 74  1  0  0  0  0
 10 11  1  0  0  0  0
 10 15  1  0  0  0  0
 11 12  1  0  0  0  0
 11 75  1  0  0  0  0
 11 76  1  0  0  0  0
 12 13  1  0  0  0  0
 12 22  1  0  0  0  0
 12 77  1  6  0  0  0
 13 14  1  0  0  0  0
 13 78  1  0  0  0  0
 13 79  1  0  0  0  0
 14 15  1  0  0  0  0
 14 80  1  0  0  0  0
 14 81  1  0  0  0  0
 15 16  1  1  0  0  0
 15 17  1  0  0  0  0
 16 82  1  0  0  0  0
 16 83  1  0  0  0  0
 16 84  1  0  0  0  0
 17 18  1  0  0  0  0
 17 85  1  6  0  0  0
 18 19  1  0  0  0  0
 18 86  1  0  0  0  0
 18 87  1  0  0  0  0
 19 20  1  0  0  0  0
 19 88  1  0  0  0  0
 19 89  1  0  0  0  0
 20 21  1  1  0  0  0
 21 90  1  0  0  0  0
 21 91  1  0  0  0  0
 21 92  1  0  0  0  0
 23 22  1  0  0  0  0
 23 24  1  0  0  0  0
 23 42  1  0  0  0  0
 23 93  1  1  0  0  0
 24 25  1  0  0  0  0
 25 26  1  0  0  0  0
 25 28  1  0  0  0  0
 25 94  1  1  0  0  0
 26 27  1  0  0  0  0
 26 95  1  0  0  0  0
 26 96  1  0  0  0  0
 27 97  1  0  0  0  0
 28 29  1  0  0  0  0
 28 40  1  0  0  0  0
 28 98  1  6  0  0  0
 30 29  1  0  0  0  0
 30 31  1  0  0  0  0
 30 38  1  0  0  0  0
 30 99  1  1  0  0  0
 31 32  1  0  0  0  0
 32 33  1  0  0  0  0
 32 34  1  0  0  0  0
 32100  1  6  0  0  0
 33101  1  0  0  0  0
 33102  1  0  0  0  0
 33103  1  0  0  0  0
 34 35  1  0  0  0  0
 34 36  1  0  0  0  0
 34104  1  1  0  0  0
 35105  1  0  0  0  0
 36 37  1  0  0  0  0
 36 38  1  0  0  0  0
 36106  1  6  0  0  0
 37107  1  0  0  0  0
 38 39  1  0  0  0  0
 38108  1  6  0  0  0
 39109  1  0  0  0  0
 40 41  1  0  0  0  0
 40 42  1  0  0  0  0
 40110  1  1  0  0  0
 41111  1  0  0  0  0
 42 43  1  0  0  0  0
 42112  1  6  0  0  0
 44 43  1  0  0  0  0
 44 45  1  0  0  0  0
 44 52  1  0  0  0  0
 44113  1  1  0  0  0
 45 46  1  0  0  0  0
 46 47  1  0  0  0  0
 46 48  1  0  0  0  0
 46114  1  6  0  0  0
 47115  1  0  0  0  0
 47116  1  0  0  0  0
 47117  1  0  0  0  0
 48 49  1  0  0  0  0
 48 50  1  0  0  0  0
 48118  1  1  0  0  0
 49119  1  0  0  0  0
 50 51  1  0  0  0  0
 50 52  1  0  0  0  0
 50120  1  6  0  0  0
 51121  1  0  0  0  0
 52 53  1  0  0  0  0
 52122  1  6  0  0  0
 53123  1  0  0  0  0
 55 54  1  1  0  0  0
 55 56  1  0  0  0  0
 55 61  1  0  0  0  0
 56 57  1  0  0  0  0
 56124  1  0  0  0  0
 56125  1  0  0  0  0
 57 58  1  0  0  0  0
 57126  1  0  0  0  0
 57127  1  0  0  0  0
 58 59  1  0  0  0  0
 58 60  1  0  0  0  0
 58128  1  6  0  0  0
 59129  1  0  0  0  0
 59130  1  0  0  0  0
 59131  1  0  0  0  0
 60 61  1  0  0  0  0
 60132  1  0  0  0  0
 60133  1  0  0  0  0
 61134  1  0  0  0  0
M  END
>  <DRUGBANK_ID>
DB12700

>  <COMMON_NAME>
Solamargine

>  <CAS_NUMBER>
20311-51-7

>  <UNII>
8KG991E7BN

$$$$
