
 OpenBabel10282417072D

 90 90  0  0  1  0  0  0  0  0999 V2000
   -6.7834   -2.4770    0.0000 O   0  0  0  0  0  0  0  0  0  0  0  0
   -7.4977   -2.0641    0.0000 C   0  0  0  0  0  0  0  0  0  0  0  0
   -7.4977   -1.2431    0.0000 C   0  0  1  0  0  0  0  0  0  0  0  0
   -6.7881   -0.8257    0.0000 O   0  0  0  0  0  0  0  0  0  0  0  0
   -6.0738   -1.2431    0.0000 C   0  0  0  0  0  0  0  0  0  0  0  0
   -5.3548   -0.8350    0.0000 P   0  0  3  0  0  0  0  0  0  0  0  0
   -4.6452   -1.2477    0.0000 O   0  0  0  0  0  0  0  0  0  0  0  0
   -3.9262   -0.8350    0.0000 C   0  0  0  0  0  0  0  0  0  0  0  0
   -3.2167   -1.2525    0.0000 C   0  0  0  0  0  0  0  0  0  0  0  0
   -2.4977   -0.8397    0.0000 C   0  0  0  0  0  0  0  0  0  0  0  0
   -1.7881   -1.2525    0.0000 O   0  0  0  0  0  0  0  0  0  0  0  0
   -1.0691   -0.8397    0.0000 C   0  0  0  0  0  0  0  0  0  0  0  0
   -0.3549   -1.2525    0.0000 C   0  0  0  0  0  0  0  0  0  0  0  0
    0.3594   -0.8397    0.0000 C   0  0  0  0  0  0  0  0  0  0  0  0
    1.0736   -1.2525    0.0000 C   0  0  0  0  0  0  0  0  0  0  0  0
    1.7879   -0.8397    0.0000 C   0  0  0  0  0  0  0  0  0  0  0  0
    2.5021   -1.2525    0.0000 C   0  0  0  0  0  0  0  0  0  0  0  0
    3.2165   -0.8397    0.0000 C   0  0  0  0  0  0  0  0  0  0  0  0
    3.9307   -1.2525    0.0000 C   0  0  0  0  0  0  0  0  0  0  0  0
    4.6451   -0.8397    0.0000 C   0  0  0  0  0  0  0  0  0  0  0  0
    5.3593   -1.2525    0.0000 C   0  0  0  0  0  0  0  0  0  0  0  0
    6.0736   -0.8397    0.0000 C   0  0  0  0  0  0  0  0  0  0  0  0
    6.7878   -1.2525    0.0000 C   0  0  0  0  0  0  0  0  0  0  0  0
    7.5022   -0.8395    0.0000 C   0  0  0  0  0  0  0  0  0  0  0  0
    8.2164   -1.2571    0.0000 C   0  0  0  0  0  0  0  0  0  0  0  0
    8.9307   -0.8490    0.0000 C   0  0  0  0  0  0  0  0  0  0  0  0
    9.6450   -1.2617    0.0000 C   0  0  0  0  0  0  0  0  0  0  0  0
   -4.9467   -0.1161    0.0000 O   0  0  0  0  0  0  0  0  0  0  0  0
   -5.7723   -0.1161    0.0000 O   0  0  0  0  0  0  0  0  0  0  0  0
   -8.2124   -0.8304    0.0000 C   0  0  0  0  0  0  0  0  0  0  0  0
   -8.2124   -0.0032    0.0000 N   0  0  0  0  0  0  0  0  0  0  0  0
   -8.9293    0.4101    0.0000 C   0  0  0  0  0  0  0  0  0  0  0  0
   -8.9293    1.2382    0.0000 N   0  0  0  0  0  0  0  0  0  0  0  0
   -8.2144    1.6514    0.0000 C   0  0  0  0  0  0  0  0  0  0  0  0
   -7.4936    1.2424    0.0000 C   0  0  0  0  0  0  0  0  0  0  0  0
   -7.4936    0.4105    0.0000 C   0  0  0  0  0  0  0  0  0  0  0  0
   -8.2144    2.4769    0.0000 N   0  0  0  0  0  0  0  0  0  0  0  0
   -9.6450   -0.0029    0.0000 O   0  0  0  0  0  0  0  0  0  0  0  0
   -6.7839   -3.4470    0.0000 H   0  0  0  0  0  0  0  0  0  0  0  0
   -8.4245   -2.5989    0.0000 H   0  0  0  0  0  0  0  0  0  0  0  0
   -8.4243   -1.5290    0.0000 H   0  0  0  0  0  0  0  0  0  0  0  0
   -6.5689   -1.7743    0.0000 H   0  0  0  0  0  0  0  0  0  0  0  0
   -6.0805   -2.3131    0.0000 H   0  0  0  0  0  0  0  0  0  0  0  0
   -5.1508   -1.7844    0.0000 H   0  0  0  0  0  0  0  0  0  0  0  0
   -3.9204    0.2350    0.0000 H   0  0  0  0  0  0  0  0  0  0  0  0
   -2.9959   -0.3064    0.0000 H   0  0  0  0  0  0  0  0  0  0  0  0
   -3.2224   -2.3225    0.0000 H   0  0  0  0  0  0  0  0  0  0  0  0
   -2.2921   -1.7911    0.0000 H   0  0  0  0  0  0  0  0  0  0  0  0
   -2.4946    0.2303    0.0000 H   0  0  0  0  0  0  0  0  0  0  0  0
   -1.5694   -0.3075    0.0000 H   0  0  0  0  0  0  0  0  0  0  0  0
   -1.0675    0.2303    0.0000 H   0  0  0  0  0  0  0  0  0  0  0  0
   -0.1419   -0.3056    0.0000 H   0  0  0  0  0  0  0  0  0  0  0  0
   -0.3549   -2.3225    0.0000 H   0  0  0  0  0  0  0  0  0  0  0  0
    0.5719   -1.7873    0.0000 H   0  0  0  0  0  0  0  0  0  0  0  0
    0.3594    0.2303    0.0000 H   0  0  0  0  0  0  0  0  0  0  0  0
    1.2862   -0.3049    0.0000 H   0  0  0  0  0  0  0  0  0  0  0  0
    1.0736   -2.3225    0.0000 H   0  0  0  0  0  0  0  0  0  0  0  0
    2.0004   -1.7873    0.0000 H   0  0  0  0  0  0  0  0  0  0  0  0
    1.7879    0.2303    0.0000 H   0  0  0  0  0  0  0  0  0  0  0  0
    2.7147   -0.3049    0.0000 H   0  0  0  0  0  0  0  0  0  0  0  0
    2.5020   -2.3225    0.0000 H   0  0  0  0  0  0  0  0  0  0  0  0
    3.4288   -1.7874    0.0000 H   0  0  0  0  0  0  0  0  0  0  0  0
    3.2166    0.2303    0.0000 H   0  0  0  0  0  0  0  0  0  0  0  0
    4.1433   -0.3050    0.0000 H   0  0  0  0  0  0  0  0  0  0  0  0
    3.9306   -2.3225    0.0000 H   0  0  0  0  0  0  0  0  0  0  0  0
    4.8574   -1.7874    0.0000 H   0  0  0  0  0  0  0  0  0  0  0  0
    4.6452    0.2303    0.0000 H   0  0  0  0  0  0  0  0  0  0  0  0
    5.5719   -0.3050    0.0000 H   0  0  0  0  0  0  0  0  0  0  0  0
    5.3593   -2.3225    0.0000 H   0  0  0  0  0  0  0  0  0  0  0  0
    6.2861   -1.7873    0.0000 H   0  0  0  0  0  0  0  0  0  0  0  0
    6.0736    0.2303    0.0000 H   0  0  0  0  0  0  0  0  0  0  0  0
    7.0004   -0.3049    0.0000 H   0  0  0  0  0  0  0  0  0  0  0  0
    6.7878   -2.3225    0.0000 H   0  0  0  0  0  0  0  0  0  0  0  0
    7.7146   -1.7872    0.0000 H   0  0  0  0  0  0  0  0  0  0  0  0
    7.5048    0.2305    0.0000 H   0  0  0  0  0  0  0  0  0  0  0  0
    8.4310   -0.3082    0.0000 H   0  0  0  0  0  0  0  0  0  0  0  0
    8.2110   -2.3271    0.0000 H   0  0  0  0  0  0  0  0  0  0  0  0
    9.1405   -1.7965    0.0000 H   0  0  0  0  0  0  0  0  0  0  0  0
    8.9333    0.2210    0.0000 H   0  0  0  0  0  0  0  0  0  0  0  0
    9.8581   -0.3153    0.0000 H   0  0  0  0  0  0  0  0  0  0  0  0
    9.6447   -2.3317    0.0000 H   0  0  0  0  0  0  0  0  0  0  0  0
   10.5718   -0.7270    0.0000 H   0  0  0  0  0  0  0  0  0  0  0  0
   10.5715   -1.7970    0.0000 H   0  0  0  0  0  0  0  0  0  0  0  0
   -5.2894    0.7252    0.0000 H   0  0  0  0  0  0  0  0  0  0  0  0
   -9.1391   -1.3654    0.0000 H   0  0  0  0  0  0  0  0  0  0  0  0
   -9.1390   -0.2954    0.0000 H   0  0  0  0  0  0  0  0  0  0  0  0
   -6.6018    1.7617    0.0000 H   0  0  0  0  0  0  0  0  0  0  0  0
   -6.6002   -0.1061    0.0000 H   0  0  0  0  0  0  0  0  0  0  0  0
   -7.3618    2.9691    0.0000 H   0  0  0  0  0  0  0  0  0  0  0  0
   -9.0670    2.9691    0.0000 H   0  0  0  0  0  0  0  0  0  0  0  0
  1 39  1  0  0  0  0
  2  1  1  0  0  0  0
  2 40  1  0  0  0  0
  2 41  1  0  0  0  0
  3  2  1  0  0  0  0
  3  4  1  0  0  0  0
  3 42  1  1  0  0  0
  4  5  1  0  0  0  0
  5  6  1  0  0  0  0
  5 43  1  0  0  0  0
  5 44  1  0  0  0  0
  6  7  1  0  0  0  0
  6 28  2  0  0  0  0
  6 29  1  0  0  0  0
  7  8  1  0  0  0  0
  8  9  1  0  0  0  0
  8 45  1  0  0  0  0
  8 46  1  0  0  0  0
  9 10  1  0  0  0  0
  9 47  1  0  0  0  0
  9 48  1  0  0  0  0
 10 11  1  0  0  0  0
 10 49  1  0  0  0  0
 10 50  1  0  0  0  0
 11 12  1  0  0  0  0
 12 13  1  0  0  0  0
 12 51  1  0  0  0  0
 12 52  1  0  0  0  0
 13 14  1  0  0  0  0
 13 53  1  0  0  0  0
 13 54  1  0  0  0  0
 14 15  1  0  0  0  0
 14 55  1  0  0  0  0
 14 56  1  0  0  0  0
 15 16  1  0  0  0  0
 15 57  1  0  0  0  0
 15 58  1  0  0  0  0
 16 17  1  0  0  0  0
 16 59  1  0  0  0  0
 16 60  1  0  0  0  0
 17 18  1  0  0  0  0
 17 61  1  0  0  0  0
 17 62  1  0  0  0  0
 18 19  1  0  0  0  0
 18 63  1  0  0  0  0
 18 64  1  0  0  0  0
 19 20  1  0  0  0  0
 19 65  1  0  0  0  0
 19 66  1  0  0  0  0
 20 21  1  0  0  0  0
 20 67  1  0  0  0  0
 20 68  1  0  0  0  0
 21 22  1  0  0  0  0
 21 69  1  0  0  0  0
 21 70  1  0  0  0  0
 22 23  1  0  0  0  0
 22 71  1  0  0  0  0
 22 72  1  0  0  0  0
 23 24  1  0  0  0  0
 23 73  1  0  0  0  0
 23 74  1  0  0  0  0
 24 25  1  0  0  0  0
 24 75  1  0  0  0  0
 24 76  1  0  0  0  0
 25 26  1  0  0  0  0
 25 77  1  0  0  0  0
 25 78  1  0  0  0  0
 26 27  1  0  0  0  0
 26 79  1  0  0  0  0
 26 80  1  0  0  0  0
 27 81  1  0  0  0  0
 27 82  1  0  0  0  0
 27 83  1  0  0  0  0
 29 84  1  0  0  0  0
 30  3  1  0  0  0  0
 30 85  1  0  0  0  0
 30 86  1  0  0  0  0
 31 30  1  0  0  0  0
 31 36  1  0  0  0  0
 32 31  1  0  0  0  0
 32 38  2  0  0  0  0
 33 32  1  0  0  0  0
 34 33  2  0  0  0  0
 34 37  1  0  0  0  0
 35 34  1  0  0  0  0
 35 87  1  0  0  0  0
 36 35  2  0  0  0  0
 36 88  1  0  0  0  0
 37 89  1  0  0  0  0
 37 90  1  0  0  0  0
M  END
>  <DRUGBANK_ID>
DB12151

>  <SECONDARY_ACCESSION_NUMBERS>
DB05176

>  <COMMON_NAME>
Brincidofovir

>  <CAS_NUMBER>
444805-28-1

>  <UNII>
6794O900AX

>  <SYNONYMS>
Brincidofovir; Cidofovir hexadecyloxypropyl ester

$$$$
