
 OpenBabel10282417072D

 20 19  0  0  1  0  0  0  0  0999 V2000
    2.0625   -0.7145    0.0000 C   0  0  2  0  0  0  0  0  0  0  0  0
    2.4750   -1.4289    0.0000 C   0  0  0  0  0  0  0  0  0  0  0  0
    1.2375   -0.7145    0.0000 C   0  0  1  0  0  0  0  0  0  0  0  0
    2.4750   -0.0000    0.0000 N   0  0  0  0  0  0  0  0  0  0  0  0
    3.3000   -1.4289    0.0000 O   0  0  0  0  0  0  0  0  0  0  0  0
    2.0625   -2.1434    0.0000 O   0  0  0  0  0  0  0  0  0  0  0  0
    0.8250   -1.4289    0.0000 O   0  0  0  0  0  0  0  0  0  0  0  0
   -0.8250    0.0000    0.0000 O   0  0  0  0  0  0  0  0  0  0  0  0
    0.0000    0.8250    0.0000 O   0  0  0  0  0  0  0  0  0  0  0  0
    0.0000   -0.8250    0.0000 O   0  0  0  0  0  0  0  0  0  0  0  0
    0.8250    0.0000    0.0000 O   0  0  0  0  0  0  0  0  0  0  0  0
    0.0000    0.0000    0.0000 P   0  0  0  0  0  0  0  0  0  0  0  0
    1.9192   -1.5269    0.0000 H   0  0  0  0  0  0  0  0  0  0  0  0
    1.3808   -1.5269    0.0000 H   0  0  0  0  0  0  0  0  0  0  0  0
    3.4950    0.0000    0.0000 H   0  0  0  0  0  0  0  0  0  0  0  0
    1.9650    0.8833    0.0000 H   0  0  0  0  0  0  0  0  0  0  0  0
    1.1255   -2.1434    0.0000 H   0  0  0  0  0  0  0  0  0  0  0  0
   -0.1450   -1.4289    0.0000 H   0  0  0  0  0  0  0  0  0  0  0  0
   -1.3100    0.8400    0.0000 H   0  0  0  0  0  0  0  0  0  0  0  0
    0.8400    1.3100    0.0000 H   0  0  0  0  0  0  0  0  0  0  0  0
  1  4  1  0  0  0  0
  1 13  1  1  0  0  0
  2  1  1  0  0  0  0
  3  1  1  0  0  0  0
  3  7  1  0  0  0  0
  3 14  1  6  0  0  0
  4 15  1  0  0  0  0
  4 16  1  0  0  0  0
  5  2  2  0  0  0  0
  6  2  1  0  0  0  0
  6 17  1  0  0  0  0
  7 18  1  0  0  0  0
  8 19  1  0  0  0  0
  9 20  1  0  0  0  0
 11  3  1  0  0  0  0
 12  8  1  0  0  0  0
 12  9  1  0  0  0  0
 12 10  2  0  0  0  0
 12 11  1  0  0  0  0
M  END
>  <DRUGBANK_ID>
DB03821

>  <SECONDARY_ACCESSION_NUMBERS>
EXPT01431

>  <COMMON_NAME>
2-Amino-3-Hydroxy-3-Phosphonooxy-Propionic Acid

$$$$
