201
 OpenBabel10282417072D

 39 41  0  0  0  0  0  0  0  0999 V2000
   -1.7551    1.7599    0.0000 C   0  0  0  0  0  0  0  0  0  0  0  0
   -1.0407    1.3474    0.0000 C   0  0  0  0  0  0  0  0  0  0  0  0
   -1.0407    0.5224    0.0000 C   0  0  0  0  0  0  0  0  0  0  0  0
   -1.7551    0.1099    0.0000 C   0  0  0  0  0  0  0  0  0  0  0  0
   -2.4696    0.5224    0.0000 C   0  0  0  0  0  0  0  0  0  0  0  0
   -2.4696    1.3474    0.0000 C   0  0  0  0  0  0  0  0  0  0  0  0
   -0.3262    0.1099    0.0000 C   0  0  0  0  0  0  0  0  0  0  0  0
    0.3883    0.5224    0.0000 C   0  0  0  0  0  0  0  0  0  0  0  0
    1.1028    0.1099    0.0000 C   0  0  0  0  0  0  0  0  0  0  0  0
    1.1028   -0.7151    0.0000 C   0  0  0  0  0  0  0  0  0  0  0  0
    0.3883   -1.1276    0.0000 C   0  0  0  0  0  0  0  0  0  0  0  0
   -0.3262   -0.7151    0.0000 C   0  0  0  0  0  0  0  0  0  0  0  0
    1.8172   -1.1276    0.0000 C   0  0  0  0  0  0  0  0  0  0  0  0
    2.5317   -0.7151    0.0000 C   0  0  0  0  0  0  0  0  0  0  0  0
    3.2462   -1.1276    0.0000 C   0  0  0  0  0  0  0  0  0  0  0  0
    3.2462   -1.9526    0.0000 C   0  0  0  0  0  0  0  0  0  0  0  0
    2.5317   -2.3651    0.0000 C   0  0  0  0  0  0  0  0  0  0  0  0
    1.8172   -1.9526    0.0000 C   0  0  0  0  0  0  0  0  0  0  0  0
   -1.7551    2.5849    0.0000 C   0  0  0  0  0  0  0  0  0  0  0  0
   -3.1841    0.1099    0.0000 C   0  0  0  0  0  0  0  0  0  0  0  0
   -3.1841   -0.7151    0.0000 O   0  0  0  0  0  0  0  0  0  0  0  0
   -3.8985    0.5224    0.0000 N   0  0  0  0  0  0  0  0  0  0  0  0
   -2.4696    2.9974    0.0000 O   0  0  0  0  0  0  0  0  0  0  0  0
   -1.0407    2.9974    0.0000 O   0  0  0  0  0  0  0  0  0  0  0  0
   -0.1470    1.8634    0.0000 H   0  0  0  0  0  0  0  0  0  0  0  0
   -1.7551   -0.9221    0.0000 H   0  0  0  0  0  0  0  0  0  0  0  0
   -3.3633    1.8634    0.0000 H   0  0  0  0  0  0  0  0  0  0  0  0
    0.3883    1.5544    0.0000 H   0  0  0  0  0  0  0  0  0  0  0  0
    1.9965    0.6259    0.0000 H   0  0  0  0  0  0  0  0  0  0  0  0
    0.3883   -2.1596    0.0000 H   0  0  0  0  0  0  0  0  0  0  0  0
   -1.2199   -1.2311    0.0000 H   0  0  0  0  0  0  0  0  0  0  0  0
    2.5317    0.3169    0.0000 H   0  0  0  0  0  0  0  0  0  0  0  0
    4.1399   -0.6116    0.0000 H   0  0  0  0  0  0  0  0  0  0  0  0
    4.1399   -2.4686    0.0000 H   0  0  0  0  0  0  0  0  0  0  0  0
    2.5317   -3.3971    0.0000 H   0  0  0  0  0  0  0  0  0  0  0  0
    0.9235   -2.4686    0.0000 H   0  0  0  0  0  0  0  0  0  0  0  0
   -3.8985    1.5069    0.0000 H   0  0  0  0  0  0  0  0  0  0  0  0
   -4.7511    0.0302    0.0000 H   0  0  0  0  0  0  0  0  0  0  0  0
   -2.4696    3.9344    0.0000 H   0  0  0  0  0  0  0  0  0  0  0  0
  1  2  2  0  0  0  0
  1  6  1  0  0  0  0
  1 19  1  0  0  0  0
  2  3  1  0  0  0  0
  2 25  1  0  0  0  0
  3  4  2  0  0  0  0
  3  7  1  0  0  0  0
  4  5  1  0  0  0  0
  4 26  1  0  0  0  0
  5  6  2  0  0  0  0
  5 20  1  0  0  0  0
  6 27  1  0  0  0  0
  7  8  2  0  0  0  0
  7 12  1  0  0  0  0
  8  9  1  0  0  0  0
  8 28  1  0  0  0  0
  9 10  2  0  0  0  0
  9 29  1  0  0  0  0
 10 11  1  0  0  0  0
 10 13  1  0  0  0  0
 11 12  2  0  0  0  0
 11 30  1  0  0  0  0
 12 31  1  0  0  0  0
 13 14  2  0  0  0  0
 13 18  1  0  0  0  0
 14 15  1  0  0  0  0
 14 32  1  0  0  0  0
 15 16  2  0  0  0  0
 15 33  1  0  0  0  0
 16 17  1  0  0  0  0
 16 34  1  0  0  0  0
 17 18  2  0  0  0  0
 17 35  1  0  0  0  0
 18 36  1  0  0  0  0
 19 23  1  0  0  0  0
 19 24  2  0  0  0  0
 20 21  2  0  0  0  0
 20 22  1  0  0  0  0
 22 37  1  0  0  0  0
 22 38  1  0  0  0  0
 23 39  1  0  0  0  0
M  END
>  <DRUGBANK_ID>
DB04583

>  <COMMON_NAME>
5-Carbamoyl-1,1':4',1''-terphenyl-3-carboxylic acid

$$$$
