
 OpenBabel10282417072D

 31 31  0  0  0  0  0  0  0  0999 V2000
   -1.4289    0.2062    0.0000 O   0  0  0  0  0  0  0  0  0  0  0  0
   -0.7145   -1.0312    0.0000 N   0  0  0  0  0  0  0  0  0  0  0  0
    0.0000    0.2062    0.0000 C   0  0  0  0  0  0  0  0  0  0  0  0
   -0.7145   -0.2062    0.0000 C   0  0  0  0  0  0  0  0  0  0  0  0
    0.0000    1.0312    0.0000 C   0  0  0  0  0  0  0  0  0  0  0  0
    0.7144   -0.2062    0.0000 C   0  0  0  0  0  0  0  0  0  0  0  0
    0.7144    1.4437    0.0000 C   0  0  0  0  0  0  0  0  0  0  0  0
    1.4289    0.2062    0.0000 C   0  0  0  0  0  0  0  0  0  0  0  0
    1.4289    1.0312    0.0000 C   0  0  0  0  0  0  0  0  0  0  0  0
   -1.4289   -1.4437    0.0000 C   0  0  0  0  0  0  0  0  0  0  0  0
    0.0000   -1.4437    0.0000 C   0  0  0  0  0  0  0  0  0  0  0  0
    0.7144    2.2687    0.0000 C   0  0  0  0  0  0  0  0  0  0  0  0
   -1.4289   -2.2687    0.0000 C   0  0  0  0  0  0  0  0  0  0  0  0
    0.0000   -2.2687    0.0000 C   0  0  0  0  0  0  0  0  0  0  0  0
   -0.8937    1.5472    0.0000 H   0  0  0  0  0  0  0  0  0  0  0  0
    0.7144   -1.2382    0.0000 H   0  0  0  0  0  0  0  0  0  0  0  0
    2.3226   -0.3099    0.0000 H   0  0  0  0  0  0  0  0  0  0  0  0
    2.3226    1.5472    0.0000 H   0  0  0  0  0  0  0  0  0  0  0  0
   -2.3556   -0.9087    0.0000 H   0  0  0  0  0  0  0  0  0  0  0  0
   -2.3555   -1.9787    0.0000 H   0  0  0  0  0  0  0  0  0  0  0  0
    0.9266   -0.9087    0.0000 H   0  0  0  0  0  0  0  0  0  0  0  0
    0.9266   -1.9787    0.0000 H   0  0  0  0  0  0  0  0  0  0  0  0
    1.6410    2.8037    0.0000 H   0  0  0  0  0  0  0  0  0  0  0  0
   -0.2122    2.8037    0.0000 H   0  0  0  0  0  0  0  0  0  0  0  0
    0.7144    3.3387    0.0000 H   0  0  0  0  0  0  0  0  0  0  0  0
   -2.3555   -2.8037    0.0000 H   0  0  0  0  0  0  0  0  0  0  0  0
   -0.5023   -2.8037    0.0000 H   0  0  0  0  0  0  0  0  0  0  0  0
   -1.4289   -3.3387    0.0000 H   0  0  0  0  0  0  0  0  0  0  0  0
   -0.9266   -2.8037    0.0000 H   0  0  0  0  0  0  0  0  0  0  0  0
    0.9266   -2.8037    0.0000 H   0  0  0  0  0  0  0  0  0  0  0  0
    0.0000   -3.3387    0.0000 H   0  0  0  0  0  0  0  0  0  0  0  0
  1  4  2  0  0  0  0
  2  4  1  0  0  0  0
  2 10  1  0  0  0  0
  2 11  1  0  0  0  0
  3  4  1  0  0  0  0
  3  5  2  0  0  0  0
  3  6  1  0  0  0  0
  5  7  1  0  0  0  0
  5 15  1  0  0  0  0
  6  8  2  0  0  0  0
  6 16  1  0  0  0  0
  7  9  2  0  0  0  0
  7 12  1  0  0  0  0
  8  9  1  0  0  0  0
  8 17  1  0  0  0  0
  9 18  1  0  0  0  0
 10 13  1  0  0  0  0
 10 19  1  0  0  0  0
 10 20  1  0  0  0  0
 11 14  1  0  0  0  0
 11 21  1  0  0  0  0
 11 22  1  0  0  0  0
 12 23  1  0  0  0  0
 12 24  1  0  0  0  0
 12 25  1  0  0  0  0
 13 26  1  0  0  0  0
 13 27  1  0  0  0  0
 13 28  1  0  0  0  0
 14 29  1  0  0  0  0
 14 30  1  0  0  0  0
 14 31  1  0  0  0  0
M  END
>  <DRUGBANK_ID>
DB11282

>  <COMMON_NAME>
Diethyltoluamide

>  <CAS_NUMBER>
134-62-3

>  <UNII>
FB0C1XZV4Y

>  <SYNONYMS>
3-methyl-N,N-diethylbenzamide; DEET; diethyl toluamide; Diethyltoluamide; di√©thyltoluamide; diethyltoluamidum; dietiltoluamida; N,N-diethyl-m-toluamide

$$$$
