877
 OpenBabel10282417072D

 46 47  0  0  0  0  0  0  0  0999 V2000
   -0.9094    3.2070    0.0000 C   0  0  0  0  0  0  0  0  0  0  0  0
   -0.1949    2.7945    0.0000 C   0  0  0  0  0  0  0  0  0  0  0  0
   -0.1949    1.9695    0.0000 C   0  0  0  0  0  0  0  0  0  0  0  0
   -0.9094    1.5570    0.0000 C   0  0  0  0  0  0  0  0  0  0  0  0
   -1.6239    1.9695    0.0000 C   0  0  0  0  0  0  0  0  0  0  0  0
   -1.6239    2.7945    0.0000 C   0  0  0  0  0  0  0  0  0  0  0  0
    0.5195    1.5570    0.0000 C   0  0  0  0  0  0  0  0  0  0  0  0
    0.5195    0.7320    0.0000 C   0  0  0  0  0  0  0  0  0  0  0  0
    1.2340    0.3195    0.0000 N   0  0  0  0  0  0  0  0  0  0  0  0
    1.2340   -0.5055    0.0000 C   0  0  0  0  0  0  0  0  0  0  0  0
   -0.1949    0.3195    0.0000 O   0  0  0  0  0  0  0  0  0  0  0  0
    1.9485   -0.9180    0.0000 N   0  0  0  0  0  0  0  0  0  0  0  0
    1.9485   -1.7430    0.0000 C   0  0  0  0  0  0  0  0  0  0  0  0
    1.2340   -2.1555    0.0000 C   0  0  0  0  0  0  0  0  0  0  0  0
    0.5195   -1.7430    0.0000 C   0  0  0  0  0  0  0  0  0  0  0  0
    0.5195   -0.9180    0.0000 C   0  0  0  0  0  0  0  0  0  0  0  0
   -2.3384    1.5570    0.0000 O   0  0  0  0  0  0  0  0  0  0  0  0
   -3.0528    1.9695    0.0000 C   0  0  0  0  0  0  0  0  0  0  0  0
    0.5195    3.2070    0.0000 O   0  0  0  0  0  0  0  0  0  0  0  0
    1.2340    2.7945    0.0000 C   0  0  0  0  0  0  0  0  0  0  0  0
   -0.1949   -2.1555    0.0000 N   0  0  0  0  0  0  0  0  0  0  0  0
    1.2340   -2.9805    0.0000 C   0  0  0  0  0  0  0  0  0  0  0  0
    2.6629   -2.1555    0.0000 O   0  0  0  0  0  0  0  0  0  0  0  0
    2.6629   -2.9805    0.0000 C   0  0  0  0  0  0  0  0  0  0  0  0
    3.3774   -3.3930    0.0000 C   0  0  0  0  0  0  0  0  0  0  0  0
   -2.3384    3.2070    0.0000 Br  0  0  0  0  0  0  0  0  0  0  0  0
    1.2340   -3.8055    0.0000 N   0  0  0  0  0  0  0  0  0  0  0  0
   -0.9094    4.2390    0.0000 H   0  0  0  0  0  0  0  0  0  0  0  0
   -0.9094    0.5250    0.0000 H   0  0  0  0  0  0  0  0  0  0  0  0
    1.4462    2.0920    0.0000 H   0  0  0  0  0  0  0  0  0  0  0  0
    1.4461    1.0220    0.0000 H   0  0  0  0  0  0  0  0  0  0  0  0
    2.0866    0.8118    0.0000 H   0  0  0  0  0  0  0  0  0  0  0  0
   -0.3742   -0.4020    0.0000 H   0  0  0  0  0  0  0  0  0  0  0  0
   -3.0528    3.0395    0.0000 H   0  0  0  0  0  0  0  0  0  0  0  0
   -3.9795    1.4345    0.0000 H   0  0  0  0  0  0  0  0  0  0  0  0
   -3.9794    2.5045    0.0000 H   0  0  0  0  0  0  0  0  0  0  0  0
    1.2340    1.7245    0.0000 H   0  0  0  0  0  0  0  0  0  0  0  0
    2.1606    3.3295    0.0000 H   0  0  0  0  0  0  0  0  0  0  0  0
    2.1607    2.2595    0.0000 H   0  0  0  0  0  0  0  0  0  0  0  0
   -1.0475   -1.6633    0.0000 H   0  0  0  0  0  0  0  0  0  0  0  0
   -0.1949   -3.1400    0.0000 H   0  0  0  0  0  0  0  0  0  0  0  0
    1.7363   -3.5155    0.0000 H   0  0  0  0  0  0  0  0  0  0  0  0
    2.6629   -4.0505    0.0000 H   0  0  0  0  0  0  0  0  0  0  0  0
    3.3774   -4.4630    0.0000 H   0  0  0  0  0  0  0  0  0  0  0  0
    4.3040   -2.8580    0.0000 H   0  0  0  0  0  0  0  0  0  0  0  0
    4.3041   -3.9280    0.0000 H   0  0  0  0  0  0  0  0  0  0  0  0
  1  2  2  0  0  0  0
  1  6  1  0  0  0  0
  1 28  1  0  0  0  0
  2  3  1  0  0  0  0
  2 19  1  0  0  0  0
  3  4  2  0  0  0  0
  3  7  1  0  0  0  0
  4  5  1  0  0  0  0
  4 29  1  0  0  0  0
  5  6  2  0  0  0  0
  5 17  1  0  0  0  0
  6 26  1  0  0  0  0
  7  8  1  0  0  0  0
  7 30  1  0  0  0  0
  7 31  1  0  0  0  0
  8  9  1  0  0  0  0
  8 11  2  0  0  0  0
  9 10  1  0  0  0  0
  9 32  1  0  0  0  0
 10 12  1  0  0  0  0
 10 16  2  0  0  0  0
 12 13  2  0  0  0  0
 13 14  1  0  0  0  0
 13 23  1  0  0  0  0
 14 15  2  0  0  0  0
 14 22  1  0  0  0  0
 15 16  1  0  0  0  0
 15 21  1  0  0  0  0
 16 33  1  0  0  0  0
 17 18  1  0  0  0  0
 18 34  1  0  0  0  0
 18 35  1  0  0  0  0
 18 36  1  0  0  0  0
 19 20  1  0  0  0  0
 20 37  1  0  0  0  0
 20 38  1  0  0  0  0
 20 39  1  0  0  0  0
 21 40  1  0  0  0  0
 21 41  1  0  0  0  0
 22 27  3  0  0  0  0
 23 24  1  0  0  0  0
 24 25  1  0  0  0  0
 24 42  1  0  0  0  0
 24 43  1  0  0  0  0
 25 44  1  0  0  0  0
 25 45  1  0  0  0  0
 25 46  1  0  0  0  0
M  END
>  <DRUGBANK_ID>
DB07272

>  <COMMON_NAME>
N-(4-AMINO-5-CYANO-6-ETHOXYPYRIDIN-2-YL)-2-(4-BROMO-2,5-DIMETHOXYPHENYL)ACETAMIDE

$$$$
