
 OpenBabel10282417072D

153152  0  0  0  0  0  0  0  0999 V2000
  -12.5032    2.2539    0.0000 C   0  0  0  0  0  0  0  0  0  0  0  0
  -11.7887    3.4914    0.0000 C   0  0  0  0  0  0  0  0  0  0  0  0
   12.5032    2.6664    0.0000 C   0  0  0  0  0  0  0  0  0  0  0  0
   11.7887    1.4289    0.0000 C   0  0  0  0  0  0  0  0  0  0  0  0
   -8.9308    3.4914    0.0000 C   0  0  0  0  0  0  0  0  0  0  0  0
    8.9308    1.4289    0.0000 C   0  0  0  0  0  0  0  0  0  0  0  0
   -6.0730    3.4914    0.0000 C   0  0  0  0  0  0  0  0  0  0  0  0
    6.0730    1.4289    0.0000 C   0  0  0  0  0  0  0  0  0  0  0  0
   -3.2151    3.4914    0.0000 C   0  0  0  0  0  0  0  0  0  0  0  0
    3.2151    1.4289    0.0000 C   0  0  0  0  0  0  0  0  0  0  0  0
  -10.3598    2.6664    0.0000 C   0  0  0  0  0  0  0  0  0  0  0  0
   10.3598    2.2539    0.0000 C   0  0  0  0  0  0  0  0  0  0  0  0
   -7.5019    2.6664    0.0000 C   0  0  0  0  0  0  0  0  0  0  0  0
    7.5019    2.2539    0.0000 C   0  0  0  0  0  0  0  0  0  0  0  0
   -4.6440    2.6664    0.0000 C   0  0  0  0  0  0  0  0  0  0  0  0
    4.6440    2.2539    0.0000 C   0  0  0  0  0  0  0  0  0  0  0  0
  -11.0742    2.2539    0.0000 C   0  0  0  0  0  0  0  0  0  0  0  0
   11.0742    2.6664    0.0000 C   0  0  0  0  0  0  0  0  0  0  0  0
   -9.6453    2.2539    0.0000 C   0  0  0  0  0  0  0  0  0  0  0  0
    9.6453    2.6664    0.0000 C   0  0  0  0  0  0  0  0  0  0  0  0
   -8.2164    2.2539    0.0000 C   0  0  0  0  0  0  0  0  0  0  0  0
    8.2164    2.6664    0.0000 C   0  0  0  0  0  0  0  0  0  0  0  0
   -6.7874    2.2539    0.0000 C   0  0  0  0  0  0  0  0  0  0  0  0
    6.7874    2.6664    0.0000 C   0  0  0  0  0  0  0  0  0  0  0  0
   -5.3585    2.2539    0.0000 C   0  0  0  0  0  0  0  0  0  0  0  0
    5.3585    2.6664    0.0000 C   0  0  0  0  0  0  0  0  0  0  0  0
   -3.9295    2.2539    0.0000 C   0  0  0  0  0  0  0  0  0  0  0  0
    3.9295    2.6664    0.0000 C   0  0  0  0  0  0  0  0  0  0  0  0
   -2.5006    2.2539    0.0000 C   0  0  0  0  0  0  0  0  0  0  0  0
    2.5006    2.6664    0.0000 C   0  0  0  0  0  0  0  0  0  0  0  0
   -1.7861    2.6664    0.0000 C   0  0  0  0  0  0  0  0  0  0  0  0
    1.7861    2.2539    0.0000 C   0  0  0  0  0  0  0  0  0  0  0  0
    2.3092   -1.9519    0.0000 C   0  0  0  0  0  0  0  0  0  0  0  0
    2.3092   -0.5230    0.0000 C   0  0  0  0  0  0  0  0  0  0  0  0
   -0.3572    2.6664    0.0000 C   0  0  0  0  0  0  0  0  0  0  0  0
    0.3572    1.4289    0.0000 C   0  0  0  0  0  0  0  0  0  0  0  0
  -11.7887    2.6664    0.0000 C   0  0  0  0  0  0  0  0  0  0  0  0
   11.7887    2.2539    0.0000 C   0  0  0  0  0  0  0  0  0  0  0  0
   -8.9308    2.6664    0.0000 C   0  0  3  0  0  0  0  0  0  0  0  0
    8.9308    2.2539    0.0000 C   0  0  3  0  0  0  0  0  0  0  0  0
   -6.0730    2.6664    0.0000 C   0  0  2  0  0  0  0  0  0  0  0  0
    6.0730    2.2539    0.0000 C   0  0  2  0  0  0  0  0  0  0  0  0
   -3.2151    2.6664    0.0000 C   0  0  2  0  0  0  0  0  0  0  0  0
    3.2151    2.2539    0.0000 C   0  0  2  0  0  0  0  0  0  0  0  0
    1.8967   -1.2375    0.0000 C   0  0  2  0  0  0  0  0  0  0  0  0
    0.3572    2.2539    0.0000 C   0  0  1  0  0  0  0  0  0  0  0  0
    1.0717   -1.2375    0.0000 O   0  0  0  0  0  0  0  0  0  0  0  0
    1.0717   -1.8414    0.0000 O   0  5  0  0  0  0  0  0  0  0  0  0
    1.0717   -3.4914    0.0000 O   0  5  0  0  0  0  0  0  0  0  0  0
    0.2467   -2.6664    0.0000 O   0  0  0  0  0  0  0  0  0  0  0  0
    0.2467    0.1914    0.0000 O   0  0  0  0  0  0  0  0  0  0  0  0
    1.0717   -0.6335    0.0000 O   0  0  0  0  0  0  0  0  0  0  0  0
   -1.0717    2.2539    0.0000 O   0  0  0  0  0  0  0  0  0  0  0  0
    1.0717    2.6664    0.0000 O   0  0  0  0  0  0  0  0  0  0  0  0
    1.8967   -2.6664    0.0000 O   0  0  0  0  0  0  0  0  0  0  0  0
    1.8967    0.1914    0.0000 O   0  0  0  0  0  0  0  0  0  0  0  0
    1.0717    1.0164    0.0000 O   0  0  0  0  0  0  0  0  0  0  0  0
    1.0717   -2.6664    0.0000 P   0  0  0  0  0  0  0  0  0  0  0  0
    1.0717    0.1914    0.0000 P   0  0  3  0  0  0  0  0  0  0  0  0
   -9.6453    3.0789    0.0000 H   0  0  0  0  0  0  0  0  0  0  0  0
    9.6453    1.8414    0.0000 H   0  0  0  0  0  0  0  0  0  0  0  0
   -6.7874    3.0789    0.0000 H   0  0  0  0  0  0  0  0  0  0  0  0
    6.7874    1.8414    0.0000 H   0  0  0  0  0  0  0  0  0  0  0  0
   -3.9295    3.0789    0.0000 H   0  0  0  0  0  0  0  0  0  0  0  0
    3.9295    1.8414    0.0000 H   0  0  0  0  0  0  0  0  0  0  0  0
    2.7217   -1.2375    0.0000 H   0  0  0  0  0  0  0  0  0  0  0  0
   -0.3572    1.8414    0.0000 H   0  0  0  0  0  0  0  0  0  0  0  0
  -13.4298    2.7889    0.0000 H   0  0  0  0  0  0  0  0  0  0  0  0
  -12.5032    1.1839    0.0000 H   0  0  0  0  0  0  0  0  0  0  0  0
  -13.4299    1.7189    0.0000 H   0  0  0  0  0  0  0  0  0  0  0  0
  -10.8621    4.0264    0.0000 H   0  0  0  0  0  0  0  0  0  0  0  0
  -12.7153    4.0264    0.0000 H   0  0  0  0  0  0  0  0  0  0  0  0
  -11.7887    4.5614    0.0000 H   0  0  0  0  0  0  0  0  0  0  0  0
   13.4298    2.1314    0.0000 H   0  0  0  0  0  0  0  0  0  0  0  0
   12.5032    3.7364    0.0000 H   0  0  0  0  0  0  0  0  0  0  0  0
   13.4299    3.2014    0.0000 H   0  0  0  0  0  0  0  0  0  0  0  0
   10.8621    0.8939    0.0000 H   0  0  0  0  0  0  0  0  0  0  0  0
   12.7153    0.8939    0.0000 H   0  0  0  0  0  0  0  0  0  0  0  0
   11.7887    0.3589    0.0000 H   0  0  0  0  0  0  0  0  0  0  0  0
   -8.0042    4.0264    0.0000 H   0  0  0  0  0  0  0  0  0  0  0  0
   -9.8574    4.0264    0.0000 H   0  0  0  0  0  0  0  0  0  0  0  0
   -8.9308    4.5614    0.0000 H   0  0  0  0  0  0  0  0  0  0  0  0
    8.0042    0.8939    0.0000 H   0  0  0  0  0  0  0  0  0  0  0  0
    9.8574    0.8939    0.0000 H   0  0  0  0  0  0  0  0  0  0  0  0
    8.9308    0.3589    0.0000 H   0  0  0  0  0  0  0  0  0  0  0  0
   -5.1464    4.0264    0.0000 H   0  0  0  0  0  0  0  0  0  0  0  0
   -6.9996    4.0264    0.0000 H   0  0  0  0  0  0  0  0  0  0  0  0
   -6.0730    4.5614    0.0000 H   0  0  0  0  0  0  0  0  0  0  0  0
    5.1464    0.8939    0.0000 H   0  0  0  0  0  0  0  0  0  0  0  0
    6.9996    0.8939    0.0000 H   0  0  0  0  0  0  0  0  0  0  0  0
    6.0730    0.3589    0.0000 H   0  0  0  0  0  0  0  0  0  0  0  0
   -2.2885    4.0264    0.0000 H   0  0  0  0  0  0  0  0  0  0  0  0
   -4.1417    4.0264    0.0000 H   0  0  0  0  0  0  0  0  0  0  0  0
   -3.2151    4.5614    0.0000 H   0  0  0  0  0  0  0  0  0  0  0  0
    2.2885    0.8939    0.0000 H   0  0  0  0  0  0  0  0  0  0  0  0
    4.1417    0.8939    0.0000 H   0  0  0  0  0  0  0  0  0  0  0  0
    3.2151    0.3589    0.0000 H   0  0  0  0  0  0  0  0  0  0  0  0
  -10.3598    3.7364    0.0000 H   0  0  0  0  0  0  0  0  0  0  0  0
   -9.4332    3.2014    0.0000 H   0  0  0  0  0  0  0  0  0  0  0  0
   10.3598    1.1839    0.0000 H   0  0  0  0  0  0  0  0  0  0  0  0
    9.4332    1.7189    0.0000 H   0  0  0  0  0  0  0  0  0  0  0  0
   -7.5019    3.7364    0.0000 H   0  0  0  0  0  0  0  0  0  0  0  0
   -6.5753    3.2014    0.0000 H   0  0  0  0  0  0  0  0  0  0  0  0
    7.5019    1.1839    0.0000 H   0  0  0  0  0  0  0  0  0  0  0  0
    6.5753    1.7189    0.0000 H   0  0  0  0  0  0  0  0  0  0  0  0
   -4.6440    3.7364    0.0000 H   0  0  0  0  0  0  0  0  0  0  0  0
   -3.7174    3.2014    0.0000 H   0  0  0  0  0  0  0  0  0  0  0  0
    4.6440    1.1839    0.0000 H   0  0  0  0  0  0  0  0  0  0  0  0
    3.7174    1.7189    0.0000 H   0  0  0  0  0  0  0  0  0  0  0  0
  -11.0742    1.1839    0.0000 H   0  0  0  0  0  0  0  0  0  0  0  0
  -12.0008    1.7189    0.0000 H   0  0  0  0  0  0  0  0  0  0  0  0
   11.0742    3.7364    0.0000 H   0  0  0  0  0  0  0  0  0  0  0  0
   12.0008    3.2014    0.0000 H   0  0  0  0  0  0  0  0  0  0  0  0
   -9.6453    1.1839    0.0000 H   0  0  0  0  0  0  0  0  0  0  0  0
   -8.7187    1.7189    0.0000 H   0  0  0  0  0  0  0  0  0  0  0  0
    9.6453    3.7364    0.0000 H   0  0  0  0  0  0  0  0  0  0  0  0
    8.7187    3.2014    0.0000 H   0  0  0  0  0  0  0  0  0  0  0  0
   -8.2164    1.1839    0.0000 H   0  0  0  0  0  0  0  0  0  0  0  0
   -9.1431    1.7189    0.0000 H   0  0  0  0  0  0  0  0  0  0  0  0
    8.2164    3.7364    0.0000 H   0  0  0  0  0  0  0  0  0  0  0  0
    9.1431    3.2014    0.0000 H   0  0  0  0  0  0  0  0  0  0  0  0
   -6.7874    1.1839    0.0000 H   0  0  0  0  0  0  0  0  0  0  0  0
   -5.8607    1.7189    0.0000 H   0  0  0  0  0  0  0  0  0  0  0  0
    6.7874    3.7364    0.0000 H   0  0  0  0  0  0  0  0  0  0  0  0
    5.8607    3.2014    0.0000 H   0  0  0  0  0  0  0  0  0  0  0  0
   -5.3585    1.1839    0.0000 H   0  0  0  0  0  0  0  0  0  0  0  0
   -6.2851    1.7189    0.0000 H   0  0  0  0  0  0  0  0  0  0  0  0
    5.3585    3.7364    0.0000 H   0  0  0  0  0  0  0  0  0  0  0  0
    6.2851    3.2014    0.0000 H   0  0  0  0  0  0  0  0  0  0  0  0
   -3.9295    1.1839    0.0000 H   0  0  0  0  0  0  0  0  0  0  0  0
   -3.0028    1.7189    0.0000 H   0  0  0  0  0  0  0  0  0  0  0  0
    3.9295    3.7364    0.0000 H   0  0  0  0  0  0  0  0  0  0  0  0
    3.0028    3.2014    0.0000 H   0  0  0  0  0  0  0  0  0  0  0  0
   -2.5006    1.1839    0.0000 H   0  0  0  0  0  0  0  0  0  0  0  0
   -3.4272    1.7189    0.0000 H   0  0  0  0  0  0  0  0  0  0  0  0
    2.5006    3.7364    0.0000 H   0  0  0  0  0  0  0  0  0  0  0  0
    3.4272    3.2014    0.0000 H   0  0  0  0  0  0  0  0  0  0  0  0
   -1.7861    3.7364    0.0000 H   0  0  0  0  0  0  0  0  0  0  0  0
   -0.8594    3.2014    0.0000 H   0  0  0  0  0  0  0  0  0  0  0  0
    1.7861    1.1839    0.0000 H   0  0  0  0  0  0  0  0  0  0  0  0
    0.8594    1.7189    0.0000 H   0  0  0  0  0  0  0  0  0  0  0  0
    3.3792   -1.9519    0.0000 H   0  0  0  0  0  0  0  0  0  0  0  0
    2.8442   -2.8785    0.0000 H   0  0  0  0  0  0  0  0  0  0  0  0
    3.3792   -0.5230    0.0000 H   0  0  0  0  0  0  0  0  0  0  0  0
    2.8442    0.4037    0.0000 H   0  0  0  0  0  0  0  0  0  0  0  0
   -0.3572    3.7364    0.0000 H   0  0  0  0  0  0  0  0  0  0  0  0
   -1.2838    3.2014    0.0000 H   0  0  0  0  0  0  0  0  0  0  0  0
   -0.5694    0.8939    0.0000 H   0  0  0  0  0  0  0  0  0  0  0  0
    0.3572    0.3589    0.0000 H   0  0  0  0  0  0  0  0  0  0  0  0
  -10.8621    3.2014    0.0000 H   0  0  0  0  0  0  0  0  0  0  0  0
   10.8621    1.7189    0.0000 H   0  0  0  0  0  0  0  0  0  0  0  0
    0.5867   -0.3975    0.0000 H   0  0  0  0  0  0  0  0  0  0  0  0
   -0.2383    1.0314    0.0000 H   0  0  0  0  0  0  0  0  0  0  0  0
  1 68  1  0  0  0  0
  1 69  1  0  0  0  0
  1 70  1  0  0  0  0
  2 71  1  0  0  0  0
  2 72  1  0  0  0  0
  2 73  1  0  0  0  0
  3 74  1  0  0  0  0
  3 75  1  0  0  0  0
  3 76  1  0  0  0  0
  4 77  1  0  0  0  0
  4 78  1  0  0  0  0
  4 79  1  0  0  0  0
  5 80  1  0  0  0  0
  5 81  1  0  0  0  0
  5 82  1  0  0  0  0
  6 83  1  0  0  0  0
  6 84  1  0  0  0  0
  6 85  1  0  0  0  0
  7 86  1  0  0  0  0
  7 87  1  0  0  0  0
  7 88  1  0  0  0  0
  8 89  1  0  0  0  0
  8 90  1  0  0  0  0
  8 91  1  0  0  0  0
  9 92  1  0  0  0  0
  9 93  1  0  0  0  0
  9 94  1  0  0  0  0
 10 95  1  0  0  0  0
 10 96  1  0  0  0  0
 10 97  1  0  0  0  0
 11 98  1  0  0  0  0
 11 99  1  0  0  0  0
 12100  1  0  0  0  0
 12101  1  0  0  0  0
 13102  1  0  0  0  0
 13103  1  0  0  0  0
 14104  1  0  0  0  0
 14105  1  0  0  0  0
 15106  1  0  0  0  0
 15107  1  0  0  0  0
 16108  1  0  0  0  0
 16109  1  0  0  0  0
 17 11  1  0  0  0  0
 17110  1  0  0  0  0
 17111  1  0  0  0  0
 18 12  1  0  0  0  0
 18112  1  0  0  0  0
 18113  1  0  0  0  0
 19 11  1  0  0  0  0
 19114  1  0  0  0  0
 19115  1  0  0  0  0
 20 12  1  0  0  0  0
 20116  1  0  0  0  0
 20117  1  0  0  0  0
 21 13  1  0  0  0  0
 21118  1  0  0  0  0
 21119  1  0  0  0  0
 22 14  1  0  0  0  0
 22120  1  0  0  0  0
 22121  1  0  0  0  0
 23 13  1  0  0  0  0
 23122  1  0  0  0  0
 23123  1  0  0  0  0
 24 14  1  0  0  0  0
 24124  1  0  0  0  0
 24125  1  0  0  0  0
 25 15  1  0  0  0  0
 25126  1  0  0  0  0
 25127  1  0  0  0  0
 26 16  1  0  0  0  0
 26128  1  0  0  0  0
 26129  1  0  0  0  0
 27 15  1  0  0  0  0
 27130  1  0  0  0  0
 27131  1  0  0  0  0
 28 16  1  0  0  0  0
 28132  1  0  0  0  0
 28133  1  0  0  0  0
 29134  1  0  0  0  0
 29135  1  0  0  0  0
 30136  1  0  0  0  0
 30137  1  0  0  0  0
 31 29  1  0  0  0  0
 31138  1  0  0  0  0
 31139  1  0  0  0  0
 32 30  1  0  0  0  0
 32140  1  0  0  0  0
 32141  1  0  0  0  0
 33142  1  0  0  0  0
 33143  1  0  0  0  0
 34144  1  0  0  0  0
 34145  1  0  0  0  0
 35146  1  0  0  0  0
 35147  1  0  0  0  0
 36148  1  0  0  0  0
 36149  1  0  0  0  0
 37  1  1  0  0  0  0
 37  2  1  0  0  0  0
 37 17  1  0  0  0  0
 37150  1  0  0  0  0
 38  3  1  0  0  0  0
 38  4  1  0  0  0  0
 38 18  1  0  0  0  0
 38151  1  0  0  0  0
 39  5  1  0  0  0  0
 39 19  1  0  0  0  0
 39 21  1  0  0  0  0
 40  6  1  0  0  0  0
 40 20  1  0  0  0  0
 40 22  1  0  0  0  0
 41  7  1  0  0  0  0
 41 23  1  0  0  0  0
 41 25  1  0  0  0  0
 41 62  1  6  0  0  0
 42  8  1  0  0  0  0
 42 24  1  0  0  0  0
 42 26  1  0  0  0  0
 42 63  1  6  0  0  0
 43  9  1  0  0  0  0
 43 27  1  0  0  0  0
 43 29  1  0  0  0  0
 43 64  1  6  0  0  0
 44 10  1  0  0  0  0
 44 28  1  0  0  0  0
 44 30  1  0  0  0  0
 44 65  1  6  0  0  0
 45 33  1  0  0  0  0
 45 34  1  0  0  0  0
 45 47  1  0  0  0  0
 45 66  1  6  0  0  0
 46 35  1  0  0  0  0
 46 36  1  0  0  0  0
 46 54  1  0  0  0  0
 46 67  1  1  0  0  0
 47152  1  0  0  0  0
 51153  1  0  0  0  0
 53 31  1  0  0  0  0
 53 35  1  0  0  0  0
 54 32  1  0  0  0  0
 55 33  1  0  0  0  0
 56 34  1  0  0  0  0
 57 36  1  0  0  0  0
 58 48  1  0  0  0  0
 58 49  1  0  0  0  0
 58 50  2  0  0  0  0
 58 55  1  0  0  0  0
 59 51  1  0  0  0  0
 59 52  2  0  0  0  0
 59 56  1  0  0  0  0
 59 57  1  0  0  0  0
 60 39  1  0  0  0  0
 61 40  1  0  0  0  0
M  CHG  2  48  -1  49  -1
M  END
>  <DRUGBANK_ID>
DB02293

>  <SECONDARY_ACCESSION_NUMBERS>
EXPT01993

>  <COMMON_NAME>
(2S)-2,3-bis{[(3R,7R)-3,7,11,15-tetramethylhexadecyl]oxy}propyl (2R)-2-hydroxy-3-[(hydroxyphosphinato)oxy]propyl phosphate

$$$$
