M5P
 OpenBabel10282417072D

 31 31  0  0  0  0  0  0  0  0999 V2000
   -2.1738    0.5451    0.0000 C   0  0  0  0  0  0  0  0  0  0  0  0
   -2.5863    1.2596    0.0000 C   0  0  0  0  0  0  0  0  0  0  0  0
   -2.1738    1.9741    0.0000 C   0  0  0  0  0  0  0  0  0  0  0  0
   -1.3488    1.9741    0.0000 C   0  0  0  0  0  0  0  0  0  0  0  0
   -0.9363    1.2596    0.0000 C   0  0  0  0  0  0  0  0  0  0  0  0
   -1.3488    0.5451    0.0000 C   0  0  0  0  0  0  0  0  0  0  0  0
   -0.9363   -0.1694    0.0000 C   0  0  0  0  0  0  0  0  0  0  0  0
   -0.1113   -0.1694    0.0000 C   0  0  0  0  0  0  0  0  0  0  0  0
    0.3012   -0.8838    0.0000 C   0  0  0  0  0  0  0  0  0  0  0  0
    1.1262   -0.8838    0.0000 C   0  0  1  0  0  0  0  0  0  0  0  0
    1.5387   -1.5983    0.0000 C   0  0  0  0  0  0  0  0  0  0  0  0
    2.3637   -1.5983    0.0000 O   0  0  0  0  0  0  0  0  0  0  0  0
    1.1262   -2.3128    0.0000 O   0  0  0  0  0  0  0  0  0  0  0  0
    1.5387   -0.1694    0.0000 C   0  0  0  0  0  0  0  0  0  0  0  0
    2.3637   -0.1694    0.0000 S   0  0  0  0  0  0  0  0  0  0  0  0
    0.8342   -1.3895    0.0000 H   0  0  0  0  0  0  0  0  0  0  0  0
   -2.6898   -0.3486    0.0000 H   0  0  0  0  0  0  0  0  0  0  0  0
   -3.6183    1.2596    0.0000 H   0  0  0  0  0  0  0  0  0  0  0  0
   -2.6898    2.8678    0.0000 H   0  0  0  0  0  0  0  0  0  0  0  0
   -0.8328    2.8678    0.0000 H   0  0  0  0  0  0  0  0  0  0  0  0
    0.0957    1.2596    0.0000 H   0  0  0  0  0  0  0  0  0  0  0  0
   -1.4713   -1.0960    0.0000 H   0  0  0  0  0  0  0  0  0  0  0  0
   -0.4013   -1.0960    0.0000 H   0  0  0  0  0  0  0  0  0  0  0  0
    0.4237    0.7573    0.0000 H   0  0  0  0  0  0  0  0  0  0  0  0
    0.9587   -0.1694    0.0000 H   0  0  0  0  0  0  0  0  0  0  0  0
   -0.2338   -1.8105    0.0000 H   0  0  0  0  0  0  0  0  0  0  0  0
    0.8362   -1.8104    0.0000 H   0  0  0  0  0  0  0  0  0  0  0  0
    0.1892   -2.3128    0.0000 H   0  0  0  0  0  0  0  0  0  0  0  0
    1.0037    0.7573    0.0000 H   0  0  0  0  0  0  0  0  0  0  0  0
    2.0737    0.7572    0.0000 H   0  0  0  0  0  0  0  0  0  0  0  0
    3.0437   -1.3472    0.0000 H   0  0  0  0  0  0  0  0  0  0  0  0
  1  2  1  0  0  0  0
  1  6  2  0  0  0  0
  1 17  1  0  0  0  0
  2  3  2  0  0  0  0
  2 18  1  0  0  0  0
  3  4  1  0  0  0  0
  3 19  1  0  0  0  0
  4  5  2  0  0  0  0
  4 20  1  0  0  0  0
  5  6  1  0  0  0  0
  5 21  1  0  0  0  0
  6  7  1  0  0  0  0
  7  8  1  0  0  0  0
  7 22  1  0  0  0  0
  7 23  1  0  0  0  0
  8  9  1  0  0  0  0
  8 24  1  0  0  0  0
  8 25  1  0  0  0  0
  9 10  1  0  0  0  0
  9 26  1  0  0  0  0
  9 27  1  0  0  0  0
 10 11  1  0  0  0  0
 10 14  1  0  0  0  0
 10 16  1  1  0  0  0
 11 12  2  0  0  0  0
 11 13  1  0  0  0  0
 13 28  1  0  0  0  0
 14 15  1  0  0  0  0
 14 29  1  0  0  0  0
 14 30  1  0  0  0  0
 15 31  1  0  0  0  0
M  END
>  <DRUGBANK_ID>
DB08161

>  <COMMON_NAME>
(S)-2-(MERCAPTOMETHYL)-5-PHENYLPENTANOIC ACID

$$$$
