
 OpenBabel10282417072D

 12 11  0  0  0  0  0  0  0  0999 V2000
    0.7144   -0.2062    0.0000 C   0  0  0  0  0  0  0  0  0  0  0  0
    0.0000   -0.6188    0.0000 C   0  0  0  0  0  0  0  0  0  0  0  0
   -0.7144   -0.2063    0.0000 C   0  0  0  0  0  0  0  0  0  0  0  0
    1.4289   -0.6187    0.0000 O   0  0  0  0  0  0  0  0  0  0  0  0
    0.7144    0.6187    0.0000 O   0  0  0  0  0  0  0  0  0  0  0  0
   -1.4289   -0.6187    0.0000 O   0  0  0  0  0  0  0  0  0  0  0  0
    0.0001   -1.6888    0.0000 H   0  0  0  0  0  0  0  0  0  0  0  0
   -0.9266   -1.1538    0.0000 H   0  0  0  0  0  0  0  0  0  0  0  0
   -0.7143    0.8637    0.0000 H   0  0  0  0  0  0  0  0  0  0  0  0
   -1.6410    0.3288    0.0000 H   0  0  0  0  0  0  0  0  0  0  0  0
    1.4289   -1.5557    0.0000 H   0  0  0  0  0  0  0  0  0  0  0  0
   -2.2689   -0.1336    0.0000 H   0  0  0  0  0  0  0  0  0  0  0  0
  2  1  1  0  0  0  0
  2  7  1  0  0  0  0
  2  8  1  0  0  0  0
  3  2  1  0  0  0  0
  3  9  1  0  0  0  0
  3 10  1  0  0  0  0
  4  1  1  0  0  0  0
  4 11  1  0  0  0  0
  5  1  2  0  0  0  0
  6  3  1  0  0  0  0
  6 12  1  0  0  0  0
M  END
>  <DRUGBANK_ID>
DB03688

>  <SECONDARY_ACCESSION_NUMBERS>
EXPT00183

>  <COMMON_NAME>
Hydracrylic acid

>  <CAS_NUMBER>
503-66-2

>  <UNII>
C4ZF6XLD2X

>  <SYNONYMS>
3-Hydroxypropanoic acid; 3-Hydroxypropionic acid; beta-Hydroxypropionic acid; Î²-hydroxypropionic acid

$$$$
