VPU
 OpenBabel10282417072D

 53 54  0  0  0  0  0  0  0  0999 V2000
   -4.5894    0.6353    0.0000 C   0  0  0  0  0  0  0  0  0  0  0  0
   -3.8749    0.2228    0.0000 C   0  0  0  0  0  0  0  0  0  0  0  0
   -3.1604    0.6353    0.0000 C   0  0  0  0  0  0  0  0  0  0  0  0
   -2.4460    0.2228    0.0000 C   0  0  0  0  0  0  0  0  0  0  0  0
   -1.7315    0.6353    0.0000 C   0  0  0  0  0  0  0  0  0  0  0  0
   -1.7315    1.4603    0.0000 O   0  0  0  0  0  0  0  0  0  0  0  0
   -1.0170    0.2228    0.0000 N   0  0  0  0  0  0  0  0  0  0  0  0
   -0.3025    0.6353    0.0000 C   0  0  2  0  0  0  0  0  0  0  0  0
   -0.3025    1.4603    0.0000 C   0  0  1  0  0  0  0  0  0  0  0  0
   -1.0170    1.8728    0.0000 O   0  0  0  0  0  0  0  0  0  0  0  0
    0.4119    1.8728    0.0000 C   0  0  2  0  0  0  0  0  0  0  0  0
    0.4119    2.6978    0.0000 O   0  0  0  0  0  0  0  0  0  0  0  0
    1.1264    1.4603    0.0000 C   0  0  1  0  0  0  0  0  0  0  0  0
    1.8409    1.8728    0.0000 C   0  0  0  0  0  0  0  0  0  0  0  0
    2.5553    1.4603    0.0000 O   0  0  0  0  0  0  0  0  0  0  0  0
    1.1264    0.6353    0.0000 O   0  0  0  0  0  0  0  0  0  0  0  0
    0.4119    0.2228    0.0000 C   0  0  0  0  0  0  0  0  0  0  0  0
    0.4119   -0.6022    0.0000 N   0  0  0  0  0  0  0  0  0  0  0  0
    1.1264   -1.0147    0.0000 O   0  0  0  0  0  0  0  0  0  0  0  0
    1.1264   -1.8397    0.0000 C   0  0  0  0  0  0  0  0  0  0  0  0
    0.4119   -2.2522    0.0000 O   0  0  0  0  0  0  0  0  0  0  0  0
    1.8409   -2.2522    0.0000 N   0  0  0  0  0  0  0  0  0  0  0  0
    2.5553   -1.8397    0.0000 C   0  0  0  0  0  0  0  0  0  0  0  0
    2.5553   -1.0147    0.0000 C   0  0  0  0  0  0  0  0  0  0  0  0
    3.2698   -0.6022    0.0000 C   0  0  0  0  0  0  0  0  0  0  0  0
    3.9843   -1.0147    0.0000 C   0  0  0  0  0  0  0  0  0  0  0  0
    3.9843   -1.8397    0.0000 C   0  0  0  0  0  0  0  0  0  0  0  0
    3.2698   -2.2522    0.0000 C   0  0  0  0  0  0  0  0  0  0  0  0
   -0.8776    0.7367    0.0000 H   0  0  0  0  0  0  0  0  0  0  0  0
   -0.8776    1.3589    0.0000 H   0  0  0  0  0  0  0  0  0  0  0  0
   -0.0938    2.1647    0.0000 H   0  0  0  0  0  0  0  0  0  0  0  0
    1.1264    2.0442    0.0000 H   0  0  0  0  0  0  0  0  0  0  0  0
   -4.5894    1.7053    0.0000 H   0  0  0  0  0  0  0  0  0  0  0  0
   -5.5160    0.1003    0.0000 H   0  0  0  0  0  0  0  0  0  0  0  0
   -5.5161    1.1703    0.0000 H   0  0  0  0  0  0  0  0  0  0  0  0
   -3.8749   -0.8472    0.0000 H   0  0  0  0  0  0  0  0  0  0  0  0
   -2.9483   -0.3122    0.0000 H   0  0  0  0  0  0  0  0  0  0  0  0
   -3.1604    1.7053    0.0000 H   0  0  0  0  0  0  0  0  0  0  0  0
   -2.2337    1.1703    0.0000 H   0  0  0  0  0  0  0  0  0  0  0  0
   -2.4460   -0.8472    0.0000 H   0  0  0  0  0  0  0  0  0  0  0  0
   -1.5194   -0.3122    0.0000 H   0  0  0  0  0  0  0  0  0  0  0  0
   -1.0170   -0.7617    0.0000 H   0  0  0  0  0  0  0  0  0  0  0  0
   -1.0170    2.8428    0.0000 H   0  0  0  0  0  0  0  0  0  0  0  0
    1.2519    3.1828    0.0000 H   0  0  0  0  0  0  0  0  0  0  0  0
    1.8409    2.9428    0.0000 H   0  0  0  0  0  0  0  0  0  0  0  0
    2.7676    2.4078    0.0000 H   0  0  0  0  0  0  0  0  0  0  0  0
    2.5553    0.4903    0.0000 H   0  0  0  0  0  0  0  0  0  0  0  0
    1.8409   -3.2367    0.0000 H   0  0  0  0  0  0  0  0  0  0  0  0
    1.6616   -0.4987    0.0000 H   0  0  0  0  0  0  0  0  0  0  0  0
    3.2698    0.4298    0.0000 H   0  0  0  0  0  0  0  0  0  0  0  0
    4.8780   -0.4987    0.0000 H   0  0  0  0  0  0  0  0  0  0  0  0
    4.8780   -2.3557    0.0000 H   0  0  0  0  0  0  0  0  0  0  0  0
    3.2698   -3.2842    0.0000 H   0  0  0  0  0  0  0  0  0  0  0  0
  1  2  1  0  0  0  0
  1 33  1  0  0  0  0
  1 34  1  0  0  0  0
  1 35  1  0  0  0  0
  2  3  1  0  0  0  0
  2 36  1  0  0  0  0
  2 37  1  0  0  0  0
  3  4  1  0  0  0  0
  3 38  1  0  0  0  0
  3 39  1  0  0  0  0
  4  5  1  0  0  0  0
  4 40  1  0  0  0  0
  4 41  1  0  0  0  0
  5  6  2  0  0  0  0
  5  7  1  0  0  0  0
  7 42  1  0  0  0  0
  8  7  1  0  0  0  0
  8  9  1  0  0  0  0
  8 17  1  0  0  0  0
  8 29  1  1  0  0  0
  9 10  1  0  0  0  0
  9 11  1  0  0  0  0
  9 30  1  6  0  0  0
 10 43  1  0  0  0  0
 11 12  1  0  0  0  0
 11 13  1  0  0  0  0
 11 31  1  1  0  0  0
 12 44  1  0  0  0  0
 13 14  1  0  0  0  0
 13 16  1  0  0  0  0
 13 32  1  6  0  0  0
 14 15  1  0  0  0  0
 14 45  1  0  0  0  0
 14 46  1  0  0  0  0
 15 47  1  0  0  0  0
 16 17  1  0  0  0  0
 17 18  2  0  0  0  0
 18 19  1  0  0  0  0
 19 20  1  0  0  0  0
 20 21  2  0  0  0  0
 20 22  1  0  0  0  0
 22 23  1  0  0  0  0
 22 48  1  0  0  0  0
 23 24  2  0  0  0  0
 23 28  1  0  0  0  0
 24 25  1  0  0  0  0
 24 49  1  0  0  0  0
 25 26  2  0  0  0  0
 25 50  1  0  0  0  0
 26 27  1  0  0  0  0
 26 51  1  0  0  0  0
 27 28  2  0  0  0  0
 27 52  1  0  0  0  0
 28 53  1  0  0  0  0
M  END
>  <DRUGBANK_ID>
DB08704

>  <COMMON_NAME>
[[(3R,4R,5S,6R)-4,5-dihydroxy-6-(hydroxymethyl)-3-(pentanoylamino)oxan-2-ylidene]amino] N-phenylcarbamate

$$$$
