
 OpenBabel10282417072D

 94 95  0  0  1  0  0  0  0  0999 V2000
    6.2966   -0.5631    0.0000 C   0  0  0  0  0  0  0  0  0  0  0  0
    6.1682   -1.3780    0.0000 C   0  0  0  0  0  0  0  0  0  0  0  0
    6.8099   -1.8966    0.0000 O   0  0  0  0  0  0  0  0  0  0  0  0
    6.6815   -2.7116    0.0000 C   0  0  0  0  0  0  0  0  0  0  0  0
    5.9116   -3.0079    0.0000 O   0  0  0  0  0  0  0  0  0  0  0  0
    7.3232   -3.2302    0.0000 C   0  0  0  0  0  0  0  0  0  0  0  0
    7.1948   -4.0452    0.0000 C   0  0  0  0  0  0  0  0  0  0  0  0
    7.8364   -4.5638    0.0000 C   0  0  2  0  0  0  0  0  0  0  0  0
    7.7081   -5.3787    0.0000 C   0  0  0  0  0  0  0  0  0  0  0  0
    6.9382   -5.6751    0.0000 C   0  0  2  0  0  0  0  0  0  0  0  0
    6.7254   -6.4722    0.0000 C   0  0  0  0  0  0  0  0  0  0  0  0
    5.9015   -6.5161    0.0000 C   0  0  0  0  0  0  0  0  0  0  0  0
    5.6052   -5.7462    0.0000 N   0  0  0  0  0  0  0  0  0  0  0  0
    6.2459   -5.2264    0.0000 C   0  0  0  0  0  0  0  0  0  0  0  0
    6.2020   -4.4026    0.0000 O   0  0  0  0  0  0  0  0  0  0  0  0
    8.6064   -4.2674    0.0000 N   0  0  0  0  0  0  0  0  0  0  0  0
    9.2480   -4.7860    0.0000 C   0  0  0  0  0  0  0  0  0  0  0  0
    9.1197   -5.6010    0.0000 O   0  0  0  0  0  0  0  0  0  0  0  0
   10.0179   -4.4897    0.0000 C   0  0  2  0  0  0  0  0  0  0  0  0
   10.1463   -3.6747    0.0000 C   0  0  0  0  0  0  0  0  0  0  0  0
    9.5046   -3.1561    0.0000 C   0  0  0  0  0  0  0  0  0  0  0  0
    8.7347   -3.4525    0.0000 C   0  0  0  0  0  0  0  0  0  0  0  0
    9.6330   -2.3412    0.0000 C   0  0  0  0  0  0  0  0  0  0  0  0
   10.6595   -5.0083    0.0000 N   0  0  0  0  0  0  0  0  0  0  0  0
   11.4295   -4.7120    0.0000 C   0  0  0  0  0  0  0  0  0  0  0  0
   11.5578   -3.8970    0.0000 O   0  0  0  0  0  0  0  0  0  0  0  0
   12.0711   -5.2306    0.0000 C   0  0  1  0  0  0  0  0  0  0  0  0
   12.8410   -4.9342    0.0000 N   0  0  0  0  0  0  0  0  0  0  0  0
   13.4826   -5.4528    0.0000 C   0  0  0  0  0  0  0  0  0  0  0  0
   13.3543   -6.2678    0.0000 O   0  0  0  0  0  0  0  0  0  0  0  0
   14.2526   -5.1565    0.0000 C   0  0  1  0  0  0  0  0  0  0  0  0
   14.8942   -5.6751    0.0000 N   0  0  0  0  0  0  0  0  0  0  0  0
   15.6641   -5.3787    0.0000 C   0  0  0  0  0  0  0  0  0  0  0  0
   15.7925   -4.5638    0.0000 O   0  0  0  0  0  0  0  0  0  0  0  0
   16.3057   -5.8973    0.0000 C   0  0  0  0  0  0  0  0  0  0  0  0
   17.1024   -5.6831    0.0000 C   0  0  0  0  0  0  0  0  0  0  0  0
   17.5524   -6.3746    0.0000 O   0  0  0  0  0  0  0  0  0  0  0  0
   17.0338   -7.0162    0.0000 C   0  0  0  0  0  0  0  0  0  0  0  0
   16.2633   -6.7213    0.0000 C   0  0  0  0  0  0  0  0  0  0  0  0
   14.3809   -4.3415    0.0000 C   0  0  0  0  0  0  0  0  0  0  0  0
   15.1508   -4.0452    0.0000 C   0  0  0  0  0  0  0  0  0  0  0  0
   13.7393   -3.8229    0.0000 C   0  0  0  0  0  0  0  0  0  0  0  0
   11.9428   -6.0455    0.0000 C   0  0  0  0  0  0  0  0  0  0  0  0
   12.5844   -6.5641    0.0000 C   0  0  0  0  0  0  0  0  0  0  0  0
   11.1728   -6.3419    0.0000 C   0  0  0  0  0  0  0  0  0  0  0  0
    7.2952   -0.1788    0.0000 H   0  0  0  0  0  0  0  0  0  0  0  0
    5.4645    0.1096    0.0000 H   0  0  0  0  0  0  0  0  0  0  0  0
    6.4631    0.4939    0.0000 H   0  0  0  0  0  0  0  0  0  0  0  0
    5.1696   -1.7623    0.0000 H   0  0  0  0  0  0  0  0  0  0  0  0
    6.0018   -2.4350    0.0000 H   0  0  0  0  0  0  0  0  0  0  0  0
    8.2863   -2.8595    0.0000 H   0  0  0  0  0  0  0  0  0  0  0  0
    6.2317   -4.4159    0.0000 H   0  0  0  0  0  0  0  0  0  0  0  0
    8.0028   -3.5068    0.0000 H   0  0  0  0  0  0  0  0  0  0  0  0
    8.5403   -6.0513    0.0000 H   0  0  0  0  0  0  0  0  0  0  0  0
    7.5417   -6.4357    0.0000 H   0  0  0  0  0  0  0  0  0  0  0  0
    7.7340   -6.3903    0.0000 H   0  0  0  0  0  0  0  0  0  0  0  0
    7.3995   -7.3031    0.0000 H   0  0  0  0  0  0  0  0  0  0  0  0
    6.2911   -7.4501    0.0000 H   0  0  0  0  0  0  0  0  0  0  0  0
    5.3195   -7.4140    0.0000 H   0  0  0  0  0  0  0  0  0  0  0  0
    4.8373   -6.4052    0.0000 H   0  0  0  0  0  0  0  0  0  0  0  0
    4.6540   -5.4922    0.0000 H   0  0  0  0  0  0  0  0  0  0  0  0
    8.7595   -3.2949    0.0000 H   0  0  0  0  0  0  0  0  0  0  0  0
    9.8514   -5.5467    0.0000 H   0  0  0  0  0  0  0  0  0  0  0  0
   11.1449   -3.2903    0.0000 H   0  0  0  0  0  0  0  0  0  0  0  0
   10.3127   -2.6177    0.0000 H   0  0  0  0  0  0  0  0  0  0  0  0
    8.6725   -2.4835    0.0000 H   0  0  0  0  0  0  0  0  0  0  0  0
    7.9025   -2.7799    0.0000 H   0  0  0  0  0  0  0  0  0  0  0  0
    8.5683   -4.5095    0.0000 H   0  0  0  0  0  0  0  0  0  0  0  0
    7.7361   -3.8369    0.0000 H   0  0  0  0  0  0  0  0  0  0  0  0
   10.6316   -1.9569    0.0000 H   0  0  0  0  0  0  0  0  0  0  0  0
    8.8009   -1.6685    0.0000 H   0  0  0  0  0  0  0  0  0  0  0  0
    9.7995   -1.2842    0.0000 H   0  0  0  0  0  0  0  0  0  0  0  0
   10.5063   -5.9808    0.0000 H   0  0  0  0  0  0  0  0  0  0  0  0
   12.2375   -4.1736    0.0000 H   0  0  0  0  0  0  0  0  0  0  0  0
   12.9941   -3.9617    0.0000 H   0  0  0  0  0  0  0  0  0  0  0  0
   14.0861   -6.2135    0.0000 H   0  0  0  0  0  0  0  0  0  0  0  0
   14.7411   -6.6476    0.0000 H   0  0  0  0  0  0  0  0  0  0  0  0
   17.4714   -4.7193    0.0000 H   0  0  0  0  0  0  0  0  0  0  0  0
   17.3018   -8.0128    0.0000 H   0  0  0  0  0  0  0  0  0  0  0  0
   15.3983   -7.2842    0.0000 H   0  0  0  0  0  0  0  0  0  0  0  0
   14.5474   -3.2845    0.0000 H   0  0  0  0  0  0  0  0  0  0  0  0
   15.9829   -4.7179    0.0000 H   0  0  0  0  0  0  0  0  0  0  0  0
   15.3173   -2.9882    0.0000 H   0  0  0  0  0  0  0  0  0  0  0  0
   16.1494   -3.6609    0.0000 H   0  0  0  0  0  0  0  0  0  0  0  0
   13.9057   -2.7659    0.0000 H   0  0  0  0  0  0  0  0  0  0  0  0
   12.7407   -4.2073    0.0000 H   0  0  0  0  0  0  0  0  0  0  0  0
   12.9071   -3.1503    0.0000 H   0  0  0  0  0  0  0  0  0  0  0  0
   11.7764   -7.1025    0.0000 H   0  0  0  0  0  0  0  0  0  0  0  0
   12.4180   -7.6211    0.0000 H   0  0  0  0  0  0  0  0  0  0  0  0
   13.5830   -6.1797    0.0000 H   0  0  0  0  0  0  0  0  0  0  0  0
   13.4166   -7.2367    0.0000 H   0  0  0  0  0  0  0  0  0  0  0  0
   10.3406   -5.6693    0.0000 H   0  0  0  0  0  0  0  0  0  0  0  0
   11.0064   -7.3989    0.0000 H   0  0  0  0  0  0  0  0  0  0  0  0
   10.1742   -6.7263    0.0000 H   0  0  0  0  0  0  0  0  0  0  0  0
  1  2  1  0  0  0  0
  1 46  1  0  0  0  0
  1 47  1  0  0  0  0
  1 48  1  0  0  0  0
  2  3  1  0  0  0  0
  2 49  1  0  0  0  0
  2 50  1  0  0  0  0
  3  4  1  0  0  0  0
  4  5  2  0  0  0  0
  4  6  1  0  0  0  0
  6  7  2  0  0  0  0
  6 51  1  0  0  0  0
  7  8  1  0  0  0  0
  7 52  1  0  0  0  0
  8  9  1  0  0  0  0
  8 16  1  0  0  0  0
  8 53  1  6  0  0  0
  9 54  1  0  0  0  0
  9 55  1  0  0  0  0
 10  9  1  0  0  0  0
 10 11  1  0  0  0  0
 10 14  1  0  0  0  0
 10 56  1  1  0  0  0
 11 12  1  0  0  0  0
 11 57  1  0  0  0  0
 11 58  1  0  0  0  0
 12 13  1  0  0  0  0
 12 59  1  0  0  0  0
 12 60  1  0  0  0  0
 13 14  1  0  0  0  0
 13 61  1  0  0  0  0
 14 15  2  0  0  0  0
 16 17  1  0  0  0  0
 16 62  1  0  0  0  0
 17 18  2  0  0  0  0
 17 19  1  0  0  0  0
 19 20  1  0  0  0  0
 19 24  1  0  0  0  0
 19 63  1  1  0  0  0
 20 21  1  0  0  0  0
 20 64  1  0  0  0  0
 20 65  1  0  0  0  0
 21 22  1  0  0  0  0
 21 23  1  0  0  0  0
 21 66  1  0  0  0  0
 22 67  1  0  0  0  0
 22 68  1  0  0  0  0
 22 69  1  0  0  0  0
 23 70  1  0  0  0  0
 23 71  1  0  0  0  0
 23 72  1  0  0  0  0
 24 25  1  0  0  0  0
 24 73  1  0  0  0  0
 25 26  2  0  0  0  0
 25 27  1  0  0  0  0
 27 28  1  0  0  0  0
 27 43  1  0  0  0  0
 27 74  1  6  0  0  0
 28 29  1  0  0  0  0
 28 75  1  0  0  0  0
 29 30  2  0  0  0  0
 29 31  1  0  0  0  0
 31 32  1  0  0  0  0
 31 40  1  0  0  0  0
 31 76  1  1  0  0  0
 32 33  1  0  0  0  0
 32 77  1  0  0  0  0
 33 34  2  0  0  0  0
 33 35  1  0  0  0  0
 35 36  2  0  0  0  0
 35 39  1  0  0  0  0
 36 37  1  0  0  0  0
 36 78  1  0  0  0  0
 37 38  1  0  0  0  0
 38 39  2  0  0  0  0
 38 79  1  0  0  0  0
 39 80  1  0  0  0  0
 40 41  1  0  0  0  0
 40 42  1  0  0  0  0
 40 81  1  0  0  0  0
 41 82  1  0  0  0  0
 41 83  1  0  0  0  0
 41 84  1  0  0  0  0
 42 85  1  0  0  0  0
 42 86  1  0  0  0  0
 42 87  1  0  0  0  0
 43 44  1  0  0  0  0
 43 45  1  0  0  0  0
 43 88  1  0  0  0  0
 44 89  1  0  0  0  0
 44 90  1  0  0  0  0
 44 91  1  0  0  0  0
 45 92  1  0  0  0  0
 45 93  1  0  0  0  0
 45 94  1  0  0  0  0
M  END
>  <DRUGBANK_ID>
DB04613

>  <COMMON_NAME>
(E)-(4S,6S)-6-((S)-2-{(S)-2-[(FURAN-2-CARBONYL)-AMINO]-3-METHYL-BUTYRYLAMINO}-3-METHYL-BUTYRYLAMINO)-8-METHYL-5-OXO-4-((R)-2-OXO-PYRROLIDIN-3-YLMETHYL)-NON-2-ENOIC ACID ETHYL ESTER

$$$$
