824
 OpenBabel10282417072D

 37 41  0  0  0  0  0  0  0  0999 V2000
    2.5678    2.6568    0.0000 O   0  0  0  0  0  0  0  0  0  0  0  0
    2.3248    1.8684    0.0000 C   0  0  0  0  0  0  0  0  0  0  0  0
    2.8861    1.2638    0.0000 C   0  0  0  0  0  0  0  0  0  0  0  0
    2.6431    0.4754    0.0000 C   0  0  0  0  0  0  0  0  0  0  0  0
    1.8389    0.2916    0.0000 C   0  0  0  0  0  0  0  0  0  0  0  0
    1.2776    0.8962    0.0000 C   0  0  0  0  0  0  0  0  0  0  0  0
    1.5206    1.6846    0.0000 C   0  0  0  0  0  0  0  0  0  0  0  0
    0.5291    0.5492    0.0000 C   0  0  0  0  0  0  0  0  0  0  0  0
    0.6278   -0.2698    0.0000 C   0  0  0  0  0  0  0  0  0  0  0  0
    1.4373   -0.4291    0.0000 N   0  0  0  0  0  0  0  0  0  0  0  0
   -0.2296    0.8733    0.0000 C   0  0  0  0  0  0  0  0  0  0  0  0
   -0.4964    1.6539    0.0000 C   0  0  0  0  0  0  0  0  0  0  0  0
   -0.0217    2.3287    0.0000 O   0  0  0  0  0  0  0  0  0  0  0  0
   -0.8896    0.3783    0.0000 C   0  0  0  0  0  0  0  0  0  0  0  0
   -1.5643    0.8530    0.0000 C   0  0  0  0  0  0  0  0  0  0  0  0
   -2.3450    0.5862    0.0000 O   0  0  0  0  0  0  0  0  0  0  0  0
   -1.3213    1.6414    0.0000 N   0  0  0  0  0  0  0  0  0  0  0  0
   -0.7909   -0.4408    0.0000 C   0  0  0  0  0  0  0  0  0  0  0  0
   -0.0322   -0.7649    0.0000 C   0  0  0  0  0  0  0  0  0  0  0  0
   -1.4509   -0.9358    0.0000 C   0  0  0  0  0  0  0  0  0  0  0  0
   -1.3522   -1.7549    0.0000 C   0  0  0  0  0  0  0  0  0  0  0  0
   -2.0122   -2.2499    0.0000 C   0  0  0  0  0  0  0  0  0  0  0  0
   -2.7709   -1.9258    0.0000 C   0  0  0  0  0  0  0  0  0  0  0  0
   -2.8696   -1.1068    0.0000 C   0  0  0  0  0  0  0  0  0  0  0  0
   -2.2096   -0.6118    0.0000 C   0  0  0  0  0  0  0  0  0  0  0  0
    3.4813    2.8655    0.0000 H   0  0  0  0  0  0  0  0  0  0  0  0
    3.8922    1.4937    0.0000 H   0  0  0  0  0  0  0  0  0  0  0  0
    3.3452   -0.2809    0.0000 H   0  0  0  0  0  0  0  0  0  0  0  0
    0.8185    2.4409    0.0000 H   0  0  0  0  0  0  0  0  0  0  0  0
    1.8513   -1.3223    0.0000 H   0  0  0  0  0  0  0  0  0  0  0  0
   -1.9120    2.4290    0.0000 H   0  0  0  0  0  0  0  0  0  0  0  0
    0.0913   -1.7895    0.0000 H   0  0  0  0  0  0  0  0  0  0  0  0
   -0.4032   -2.1603    0.0000 H   0  0  0  0  0  0  0  0  0  0  0  0
   -1.8888   -3.2745    0.0000 H   0  0  0  0  0  0  0  0  0  0  0  0
   -3.5965   -2.5450    0.0000 H   0  0  0  0  0  0  0  0  0  0  0  0
   -3.8186   -0.7014    0.0000 H   0  0  0  0  0  0  0  0  0  0  0  0
   -2.3331    0.4128    0.0000 H   0  0  0  0  0  0  0  0  0  0  0  0
  1  2  1  0  0  0  0
  1 26  1  0  0  0  0
  2  3  1  0  0  0  0
  2  7  2  0  0  0  0
  3  4  2  0  0  0  0
  3 27  1  0  0  0  0
  4  5  1  0  0  0  0
  4 28  1  0  0  0  0
  5  6  2  0  0  0  0
  5 10  1  0  0  0  0
  6  7  1  0  0  0  0
  6  8  1  0  0  0  0
  7 29  1  0  0  0  0
  8  9  1  0  0  0  0
  8 11  2  0  0  0  0
  9 10  1  0  0  0  0
  9 19  2  0  0  0  0
 10 30  1  0  0  0  0
 11 12  1  0  0  0  0
 11 14  1  0  0  0  0
 12 13  2  0  0  0  0
 12 17  1  0  0  0  0
 14 15  1  0  0  0  0
 14 18  2  0  0  0  0
 15 16  2  0  0  0  0
 15 17  1  0  0  0  0
 17 31  1  0  0  0  0
 18 19  1  0  0  0  0
 18 20  1  0  0  0  0
 19 32  1  0  0  0  0
 20 21  2  0  0  0  0
 20 25  1  0  0  0  0
 21 22  1  0  0  0  0
 21 33  1  0  0  0  0
 22 23  2  0  0  0  0
 22 34  1  0  0  0  0
 23 24  1  0  0  0  0
 23 35  1  0  0  0  0
 24 25  2  0  0  0  0
 24 36  1  0  0  0  0
 25 37  1  0  0  0  0
M  END
>  <DRUGBANK_ID>
DB04608

>  <COMMON_NAME>
9-HYDROXY-4-PHENYL-6H-PYRROLO[3,4-C]CARBAZOLE-1,3-DIONE

$$$$
