
 OpenBabel10282417072D

 70 72  0  0  0  0  0  0  0  0999 V2000
    0.0000    1.8281    0.0000 P   0  0  0  0  0  0  0  0  0  0  0  0
    0.0000    1.0031    0.0000 C   0  0  0  0  0  0  0  0  0  0  0  0
   -0.7144    0.5906    0.0000 O   0  0  0  0  0  0  0  0  0  0  0  0
   -0.7144   -0.2343    0.0000 C   0  0  0  0  0  0  0  0  0  0  0  0
   -1.4289   -0.6468    0.0000 C   0  0  0  0  0  0  0  0  0  0  0  0
   -0.7144   -1.0593    0.0000 C   0  0  0  0  0  0  0  0  0  0  0  0
    0.0000    0.1781    0.0000 C   0  0  0  0  0  0  0  0  0  0  0  0
    2.0201   -0.5119    0.0000 N   0  0  0  0  0  0  0  0  0  0  0  0
    1.4681    0.1011    0.0000 C   0  0  0  0  0  0  0  0  0  0  0  0
    0.7144   -0.2343    0.0000 N   0  0  0  0  0  0  0  0  0  0  0  0
    0.8006   -1.0548    0.0000 C   0  0  0  0  0  0  0  0  0  0  0  0
    0.2486   -1.6679    0.0000 N   0  0  0  0  0  0  0  0  0  0  0  0
    0.5035   -2.4525    0.0000 C   0  0  0  0  0  0  0  0  0  0  0  0
    1.3105   -2.6240    0.0000 N   0  0  0  0  0  0  0  0  0  0  0  0
    1.8625   -2.0110    0.0000 C   0  0  0  0  0  0  0  0  0  0  0  0
    1.6076   -1.2263    0.0000 C   0  0  0  0  0  0  0  0  0  0  0  0
   -0.0484   -3.0656    0.0000 N   0  0  0  0  0  0  0  0  0  0  0  0
   -1.4289    1.8281    0.0000 C   0  0  0  0  0  0  0  0  0  0  0  0
   -0.7144    2.2406    0.0000 O   0  0  0  0  0  0  0  0  0  0  0  0
    1.4289    1.8281    0.0000 C   0  0  0  0  0  0  0  0  0  0  0  0
    0.7144    2.2406    0.0000 O   0  0  0  0  0  0  0  0  0  0  0  0
   -2.8579    1.8281    0.0000 C   0  0  0  0  0  0  0  0  0  0  0  0
   -3.5723    2.2406    0.0000 C   0  0  0  0  0  0  0  0  0  0  0  0
   -3.5723    3.0656    0.0000 C   0  0  0  0  0  0  0  0  0  0  0  0
   -2.8579    1.0031    0.0000 O   0  0  0  0  0  0  0  0  0  0  0  0
   -2.1434    2.2406    0.0000 O   0  0  0  0  0  0  0  0  0  0  0  0
   -4.2868    2.6531    0.0000 C   0  0  0  0  0  0  0  0  0  0  0  0
   -4.2868    1.8281    0.0000 C   0  0  0  0  0  0  0  0  0  0  0  0
    2.8578    1.8281    0.0000 C   0  0  0  0  0  0  0  0  0  0  0  0
    3.5723    2.2406    0.0000 C   0  0  0  0  0  0  0  0  0  0  0  0
    4.2868    1.8281    0.0000 C   0  0  0  0  0  0  0  0  0  0  0  0
    2.8578    1.0031    0.0000 O   0  0  0  0  0  0  0  0  0  0  0  0
    2.1433    2.2406    0.0000 O   0  0  0  0  0  0  0  0  0  0  0  0
    4.2868    2.6531    0.0000 C   0  0  0  0  0  0  0  0  0  0  0  0
    3.5723    3.0656    0.0000 C   0  0  0  0  0  0  0  0  0  0  0  0
    0.0000    2.6548    0.0000 O   0  0  0  0  0  0  0  0  0  0  0  0
    0.9267    0.4681    0.0000 H   0  0  0  0  0  0  0  0  0  0  0  0
    0.9266    1.5381    0.0000 H   0  0  0  0  0  0  0  0  0  0  0  0
   -2.4989   -0.6468    0.0000 H   0  0  0  0  0  0  0  0  0  0  0  0
   -1.7058   -1.6803    0.0000 H   0  0  0  0  0  0  0  0  0  0  0  0
   -0.1794   -1.9859    0.0000 H   0  0  0  0  0  0  0  0  0  0  0  0
    0.3191   -0.7824    0.0000 H   0  0  0  0  0  0  0  0  0  0  0  0
    0.0000    1.2481    0.0000 H   0  0  0  0  0  0  0  0  0  0  0  0
   -0.9266    0.7131    0.0000 H   0  0  0  0  0  0  0  0  0  0  0  0
    1.6827    1.1105    0.0000 H   0  0  0  0  0  0  0  0  0  0  0  0
    2.8719   -2.2256    0.0000 H   0  0  0  0  0  0  0  0  0  0  0  0
   -1.0114   -2.8610    0.0000 H   0  0  0  0  0  0  0  0  0  0  0  0
    0.2559   -4.0019    0.0000 H   0  0  0  0  0  0  0  0  0  0  0  0
   -1.4289    0.7581    0.0000 H   0  0  0  0  0  0  0  0  0  0  0  0
   -2.3555    1.2931    0.0000 H   0  0  0  0  0  0  0  0  0  0  0  0
    1.4289    0.7581    0.0000 H   0  0  0  0  0  0  0  0  0  0  0  0
    2.3556    1.2931    0.0000 H   0  0  0  0  0  0  0  0  0  0  0  0
   -2.6457    3.6006    0.0000 H   0  0  0  0  0  0  0  0  0  0  0  0
   -4.4989    3.6006    0.0000 H   0  0  0  0  0  0  0  0  0  0  0  0
   -3.5723    4.1356    0.0000 H   0  0  0  0  0  0  0  0  0  0  0  0
   -4.2868    3.7231    0.0000 H   0  0  0  0  0  0  0  0  0  0  0  0
   -5.2134    2.1181    0.0000 H   0  0  0  0  0  0  0  0  0  0  0  0
   -5.2135    3.1881    0.0000 H   0  0  0  0  0  0  0  0  0  0  0  0
   -5.2134    2.3631    0.0000 H   0  0  0  0  0  0  0  0  0  0  0  0
   -4.2868    0.7581    0.0000 H   0  0  0  0  0  0  0  0  0  0  0  0
   -5.2135    1.2931    0.0000 H   0  0  0  0  0  0  0  0  0  0  0  0
    4.2868    0.7581    0.0000 H   0  0  0  0  0  0  0  0  0  0  0  0
    5.2134    2.3631    0.0000 H   0  0  0  0  0  0  0  0  0  0  0  0
    5.2135    1.2931    0.0000 H   0  0  0  0  0  0  0  0  0  0  0  0
    5.2134    2.1181    0.0000 H   0  0  0  0  0  0  0  0  0  0  0  0
    4.2868    3.7231    0.0000 H   0  0  0  0  0  0  0  0  0  0  0  0
    5.2135    3.1881    0.0000 H   0  0  0  0  0  0  0  0  0  0  0  0
    4.4989    3.6006    0.0000 H   0  0  0  0  0  0  0  0  0  0  0  0
    2.6457    3.6006    0.0000 H   0  0  0  0  0  0  0  0  0  0  0  0
    3.5723    4.1356    0.0000 H   0  0  0  0  0  0  0  0  0  0  0  0
  1  2  1  0  0  0  0
  1 19  1  0  0  0  0
  1 21  1  0  0  0  0
  1 36  2  0  0  0  0
  2  3  1  0  0  0  0
  2 37  1  0  0  0  0
  2 38  1  0  0  0  0
  3  4  1  0  0  0  0
  4  5  1  0  0  0  0
  4  6  1  0  0  0  0
  4  7  1  0  0  0  0
  5  6  1  0  0  0  0
  5 39  1  0  0  0  0
  5 40  1  0  0  0  0
  6 41  1  0  0  0  0
  6 42  1  0  0  0  0
  7 10  1  0  0  0  0
  7 43  1  0  0  0  0
  7 44  1  0  0  0  0
  8  9  2  0  0  0  0
  8 16  1  0  0  0  0
  9 10  1  0  0  0  0
  9 45  1  0  0  0  0
 10 11  1  0  0  0  0
 11 12  2  0  0  0  0
 11 16  1  0  0  0  0
 12 13  1  0  0  0  0
 13 14  2  0  0  0  0
 13 17  1  0  0  0  0
 14 15  1  0  0  0  0
 15 16  2  0  0  0  0
 15 46  1  0  0  0  0
 17 47  1  0  0  0  0
 17 48  1  0  0  0  0
 18 19  1  0  0  0  0
 18 26  1  0  0  0  0
 18 49  1  0  0  0  0
 18 50  1  0  0  0  0
 20 21  1  0  0  0  0
 20 33  1  0  0  0  0
 20 51  1  0  0  0  0
 20 52  1  0  0  0  0
 22 23  1  0  0  0  0
 22 25  2  0  0  0  0
 22 26  1  0  0  0  0
 23 24  1  0  0  0  0
 23 27  1  0  0  0  0
 23 28  1  0  0  0  0
 24 53  1  0  0  0  0
 24 54  1  0  0  0  0
 24 55  1  0  0  0  0
 27 56  1  0  0  0  0
 27 57  1  0  0  0  0
 27 58  1  0  0  0  0
 28 59  1  0  0  0  0
 28 60  1  0  0  0  0
 28 61  1  0  0  0  0
 29 30  1  0  0  0  0
 29 32  2  0  0  0  0
 29 33  1  0  0  0  0
 30 31  1  0  0  0  0
 30 34  1  0  0  0  0
 30 35  1  0  0  0  0
 31 62  1  0  0  0  0
 31 63  1  0  0  0  0
 31 64  1  0  0  0  0
 34 65  1  0  0  0  0
 34 66  1  0  0  0  0
 34 67  1  0  0  0  0
 35 68  1  0  0  0  0
 35 69  1  0  0  0  0
 35 70  1  0  0  0  0
M  END
>  <DRUGBANK_ID>
DB05020

>  <COMMON_NAME>
Besifovir dipivoxil

>  <CAS_NUMBER>
441785-26-8

>  <UNII>
S9I9P4J8IU

$$$$
