
 OpenBabel10282417072D

 31 33  0  0  0  0  0  0  0  0999 V2000
   -1.3492    0.2061    0.0000 C   0  0  0  0  0  0  0  0  0  0  0  0
   -1.3492   -0.6187    0.0000 N   0  0  0  0  0  0  0  0  0  0  0  0
   -2.0637   -1.0312    0.0000 C   0  0  0  0  0  0  0  0  0  0  0  0
   -2.7781   -0.6187    0.0000 C   0  0  0  0  0  0  0  0  0  0  0  0
   -2.7781    0.2061    0.0000 C   0  0  0  0  0  0  0  0  0  0  0  0
   -2.0637    0.6187    0.0000 N   0  0  0  0  0  0  0  0  0  0  0  0
   -2.0637   -1.8563    0.0000 N   0  0  0  0  0  0  0  0  0  0  0  0
   -0.6347    0.6187    0.0000 S   0  0  0  0  0  0  0  0  0  0  0  0
    0.0797    0.2061    0.0000 C   0  0  1  0  0  0  0  0  0  0  0  0
    0.0797   -0.6187    0.0000 C   0  0  0  0  0  0  0  0  0  0  0  0
    1.5086    1.8562    0.0000 C   0  0  0  0  0  0  0  0  0  0  0  0
    2.2231    1.4437    0.0000 C   0  0  0  0  0  0  0  0  0  0  0  0
    2.2231    0.6187    0.0000 C   0  0  0  0  0  0  0  0  0  0  0  0
    1.5086    0.2061    0.0000 C   0  0  0  0  0  0  0  0  0  0  0  0
    0.7942    0.6187    0.0000 C   0  0  0  0  0  0  0  0  0  0  0  0
    0.7942    1.4437    0.0000 N   0  0  0  0  0  0  0  0  0  0  0  0
    3.0077    1.6986    0.0000 O   0  0  0  0  0  0  0  0  0  0  0  0
    3.0077    0.3637    0.0000 C   0  0  0  0  0  0  0  0  0  0  0  0
    3.4927    1.0313    0.0000 C   0  0  0  0  0  0  0  0  0  0  0  0
   -3.4927    0.6187    0.0000 Cl  0  0  0  0  0  0  0  0  0  0  0  0
   -3.6718   -1.1347    0.0000 H   0  0  0  0  0  0  0  0  0  0  0  0
   -2.9163   -2.3486    0.0000 H   0  0  0  0  0  0  0  0  0  0  0  0
   -1.2111   -2.3485    0.0000 H   0  0  0  0  0  0  0  0  0  0  0  0
    1.0064   -0.3289    0.0000 H   0  0  0  0  0  0  0  0  0  0  0  0
   -0.8469   -1.1537    0.0000 H   0  0  0  0  0  0  0  0  0  0  0  0
    1.0063   -1.1537    0.0000 H   0  0  0  0  0  0  0  0  0  0  0  0
    0.0797   -1.6887    0.0000 H   0  0  0  0  0  0  0  0  0  0  0  0
    1.5086    2.8882    0.0000 H   0  0  0  0  0  0  0  0  0  0  0  0
    1.5086   -0.8259    0.0000 H   0  0  0  0  0  0  0  0  0  0  0  0
    3.3266   -0.6178    0.0000 H   0  0  0  0  0  0  0  0  0  0  0  0
    4.5247    1.0314    0.0000 H   0  0  0  0  0  0  0  0  0  0  0  0
  1  2  1  0  0  0  0
  1  6  2  0  0  0  0
  1  8  1  0  0  0  0
  2  3  2  0  0  0  0
  3  4  1  0  0  0  0
  3  7  1  0  0  0  0
  4  5  2  0  0  0  0
  4 21  1  0  0  0  0
  5  6  1  0  0  0  0
  5 20  1  0  0  0  0
  7 22  1  0  0  0  0
  7 23  1  0  0  0  0
  8  9  1  0  0  0  0
  9 10  1  0  0  0  0
  9 15  1  0  0  0  0
  9 24  1  1  0  0  0
 10 25  1  0  0  0  0
 10 26  1  0  0  0  0
 10 27  1  0  0  0  0
 11 12  1  0  0  0  0
 11 16  2  0  0  0  0
 11 28  1  0  0  0  0
 12 13  2  0  0  0  0
 13 14  1  0  0  0  0
 14 15  2  0  0  0  0
 14 29  1  0  0  0  0
 15 16  1  0  0  0  0
 17 19  1  0  0  0  0
 17 12  1  0  0  0  0
 18 19  2  0  0  0  0
 18 13  1  0  0  0  0
 18 30  1  0  0  0  0
 19 31  1  0  0  0  0
M  END
>  <DRUGBANK_ID>
DB08414

>  <COMMON_NAME>
PNU-142721

>  <CAS_NUMBER>
185220-03-5

>  <UNII>
U3D0LYB7P0

$$$$
