
 OpenBabel10282417072D

102103  0  0  0  0  0  0  0  0999 V2000
    3.5847    2.7774    0.0000 C   0  0  0  0  0  0  0  0  0  0  0  0
    2.1557    2.7774    0.0000 N   0  0  0  0  0  0  0  0  0  0  0  0
    2.8702    2.3649    0.0000 C   0  0  1  0  0  0  0  0  0  0  0  0
    2.8702    1.5399    0.0000 C   0  0  0  0  0  0  0  0  0  0  0  0
    3.5847    1.1274    0.0000 C   0  0  0  0  0  0  0  0  0  0  0  0
    2.1557    1.1274    0.0000 C   0  0  0  0  0  0  0  0  0  0  0  0
    3.5847    3.6025    0.0000 O   0  0  0  0  0  0  0  0  0  0  0  0
    4.2991    2.3649    0.0000 O   0  0  0  0  0  0  0  0  0  0  0  0
    4.2991    1.5399    0.0000 C   0  0  0  0  0  0  0  0  0  0  0  0
    5.0137    1.1274    0.0000 C   0  0  0  0  0  0  0  0  0  0  0  0
    5.0137    0.3023    0.0000 C   0  0  1  0  0  0  0  0  0  0  0  0
    4.2991   -0.1101    0.0000 C   0  0  0  0  0  0  0  0  0  0  0  0
    3.5847    0.3023    0.0000 O   0  0  0  0  0  0  0  0  0  0  0  0
    2.8702   -0.1101    0.0000 C   0  0  0  0  0  0  0  0  0  0  0  0
    2.8702   -0.9351    0.0000 C   0  0  0  0  0  0  0  0  0  0  0  0
    2.1557   -1.3476    0.0000 C   0  0  0  0  0  0  0  0  0  0  0  0
    1.4412   -0.9351    0.0000 C   0  0  0  0  0  0  0  0  0  0  0  0
    0.7267   -1.3476    0.0000 C   0  0  0  0  0  0  0  0  0  0  0  0
    0.0122   -0.9351    0.0000 C   0  0  0  0  0  0  0  0  0  0  0  0
   -0.7023   -1.3476    0.0000 C   0  0  0  0  0  0  0  0  0  0  0  0
   -1.4167   -0.9351    0.0000 C   0  0  0  0  0  0  0  0  0  0  0  0
   -2.1313   -1.3476    0.0000 C   0  0  0  0  0  0  0  0  0  0  0  0
   -2.8457   -0.9351    0.0000 C   0  0  0  0  0  0  0  0  0  0  0  0
   -3.5602   -1.3476    0.0000 C   0  0  0  0  0  0  0  0  0  0  0  0
   -4.2747   -0.9351    0.0000 C   0  0  0  0  0  0  0  0  0  0  0  0
   -4.9892   -1.3476    0.0000 C   0  0  0  0  0  0  0  0  0  0  0  0
   -5.7036   -0.9351    0.0000 C   0  0  0  0  0  0  0  0  0  0  0  0
   -6.4181   -1.3476    0.0000 C   0  0  0  0  0  0  0  0  0  0  0  0
   -7.1326   -0.9351    0.0000 C   0  0  0  0  0  0  0  0  0  0  0  0
   -7.8471   -1.3476    0.0000 C   0  0  0  0  0  0  0  0  0  0  0  0
   -8.5615   -0.9351    0.0000 C   0  0  0  0  0  0  0  0  0  0  0  0
    2.1557    0.3023    0.0000 O   0  0  0  0  0  0  0  0  0  0  0  0
    5.7280   -0.1101    0.0000 C   0  0  0  0  0  0  0  0  0  0  0  0
    5.3156   -2.2047    0.0000 N   0  0  0  0  0  0  0  0  0  0  0  0
    5.0607   -1.4200    0.0000 C   0  0  0  0  0  0  0  0  0  0  0  0
    5.7280   -0.9351    0.0000 N   0  0  0  0  0  0  0  0  0  0  0  0
    6.3956   -1.4200    0.0000 C   0  0  0  0  0  0  0  0  0  0  0  0
    7.2025   -1.2485    0.0000 N   0  0  0  0  0  0  0  0  0  0  0  0
    7.7547   -1.8615    0.0000 C   0  0  0  0  0  0  0  0  0  0  0  0
    7.4997   -2.6463    0.0000 N   0  0  0  0  0  0  0  0  0  0  0  0
    6.6927   -2.8177    0.0000 C   0  0  0  0  0  0  0  0  0  0  0  0
    6.1407   -2.2047    0.0000 C   0  0  0  0  0  0  0  0  0  0  0  0
    6.4377   -3.6025    0.0000 O   0  0  0  0  0  0  0  0  0  0  0  0
    8.5615   -1.6900    0.0000 N   0  0  0  0  0  0  0  0  0  0  0  0
    2.1557    3.7974    0.0000 H   0  0  0  0  0  0  0  0  0  0  0  0
    1.2724    2.2674    0.0000 H   0  0  0  0  0  0  0  0  0  0  0  0
    2.8702    3.4349    0.0000 H   0  0  0  0  0  0  0  0  0  0  0  0
    2.8702    0.4699    0.0000 H   0  0  0  0  0  0  0  0  0  0  0  0
    3.5847    0.0574    0.0000 H   0  0  0  0  0  0  0  0  0  0  0  0
    4.5113    1.6624    0.0000 H   0  0  0  0  0  0  0  0  0  0  0  0
    4.5114    0.5924    0.0000 H   0  0  0  0  0  0  0  0  0  0  0  0
    1.2291    1.6624    0.0000 H   0  0  0  0  0  0  0  0  0  0  0  0
    2.1557    0.0574    0.0000 H   0  0  0  0  0  0  0  0  0  0  0  0
    1.2290    0.5924    0.0000 H   0  0  0  0  0  0  0  0  0  0  0  0
    3.3725    1.0049    0.0000 H   0  0  0  0  0  0  0  0  0  0  0  0
    3.3724    2.0749    0.0000 H   0  0  0  0  0  0  0  0  0  0  0  0
    5.9403    1.6624    0.0000 H   0  0  0  0  0  0  0  0  0  0  0  0
    5.9404    0.5924    0.0000 H   0  0  0  0  0  0  0  0  0  0  0  0
    4.0871    0.8374    0.0000 H   0  0  0  0  0  0  0  0  0  0  0  0
    4.2990   -1.1801    0.0000 H   0  0  0  0  0  0  0  0  0  0  0  0
    3.3725   -0.6451    0.0000 H   0  0  0  0  0  0  0  0  0  0  0  0
    3.7968   -1.4701    0.0000 H   0  0  0  0  0  0  0  0  0  0  0  0
    2.8702   -2.0051    0.0000 H   0  0  0  0  0  0  0  0  0  0  0  0
    2.1557   -2.4176    0.0000 H   0  0  0  0  0  0  0  0  0  0  0  0
    1.2291   -1.8826    0.0000 H   0  0  0  0  0  0  0  0  0  0  0  0
    1.4412    0.1349    0.0000 H   0  0  0  0  0  0  0  0  0  0  0  0
    0.5146   -0.4001    0.0000 H   0  0  0  0  0  0  0  0  0  0  0  0
    0.7267   -2.4176    0.0000 H   0  0  0  0  0  0  0  0  0  0  0  0
   -0.1999   -1.8826    0.0000 H   0  0  0  0  0  0  0  0  0  0  0  0
    0.0122    0.1349    0.0000 H   0  0  0  0  0  0  0  0  0  0  0  0
   -0.9144   -0.4001    0.0000 H   0  0  0  0  0  0  0  0  0  0  0  0
   -0.7023   -2.4176    0.0000 H   0  0  0  0  0  0  0  0  0  0  0  0
   -1.6290   -1.8826    0.0000 H   0  0  0  0  0  0  0  0  0  0  0  0
   -1.4166    0.1349    0.0000 H   0  0  0  0  0  0  0  0  0  0  0  0
   -2.3433   -0.4000    0.0000 H   0  0  0  0  0  0  0  0  0  0  0  0
   -2.1314   -2.4176    0.0000 H   0  0  0  0  0  0  0  0  0  0  0  0
   -3.0580   -1.8826    0.0000 H   0  0  0  0  0  0  0  0  0  0  0  0
   -2.8457    0.1349    0.0000 H   0  0  0  0  0  0  0  0  0  0  0  0
   -3.7723   -0.4001    0.0000 H   0  0  0  0  0  0  0  0  0  0  0  0
   -3.5602   -2.4176    0.0000 H   0  0  0  0  0  0  0  0  0  0  0  0
   -4.4868   -1.8826    0.0000 H   0  0  0  0  0  0  0  0  0  0  0  0
   -4.2747    0.1349    0.0000 H   0  0  0  0  0  0  0  0  0  0  0  0
   -5.2013   -0.4001    0.0000 H   0  0  0  0  0  0  0  0  0  0  0  0
   -4.9892   -2.4176    0.0000 H   0  0  0  0  0  0  0  0  0  0  0  0
   -5.9159   -1.8826    0.0000 H   0  0  0  0  0  0  0  0  0  0  0  0
   -5.7036    0.1349    0.0000 H   0  0  0  0  0  0  0  0  0  0  0  0
   -6.6302   -0.4001    0.0000 H   0  0  0  0  0  0  0  0  0  0  0  0
   -6.4181   -2.4176    0.0000 H   0  0  0  0  0  0  0  0  0  0  0  0
   -7.3447   -1.8826    0.0000 H   0  0  0  0  0  0  0  0  0  0  0  0
   -7.1326    0.1349    0.0000 H   0  0  0  0  0  0  0  0  0  0  0  0
   -8.0592   -0.4001    0.0000 H   0  0  0  0  0  0  0  0  0  0  0  0
   -7.8471   -2.4176    0.0000 H   0  0  0  0  0  0  0  0  0  0  0  0
   -8.7738   -1.8826    0.0000 H   0  0  0  0  0  0  0  0  0  0  0  0
   -8.5615    0.1349    0.0000 H   0  0  0  0  0  0  0  0  0  0  0  0
   -9.4882   -1.4701    0.0000 H   0  0  0  0  0  0  0  0  0  0  0  0
   -9.4881   -0.4001    0.0000 H   0  0  0  0  0  0  0  0  0  0  0  0
    6.6546    0.4249    0.0000 H   0  0  0  0  0  0  0  0  0  0  0  0
    5.7280    0.9599    0.0000 H   0  0  0  0  0  0  0  0  0  0  0  0
    4.0792   -1.1011    0.0000 H   0  0  0  0  0  0  0  0  0  0  0  0
    8.1584   -3.3780    0.0000 H   0  0  0  0  0  0  0  0  0  0  0  0
    9.2203   -2.4216    0.0000 H   0  0  0  0  0  0  0  0  0  0  0  0
    8.8657   -0.7537    0.0000 H   0  0  0  0  0  0  0  0  0  0  0  0
  1  3  1  0  0  0  0
  1  7  2  0  0  0  0
  1  8  1  0  0  0  0
  2 45  1  0  0  0  0
  2 46  1  0  0  0  0
  3  2  1  0  0  0  0
  3  4  1  0  0  0  0
  3 47  1  1  0  0  0
  4  5  1  0  0  0  0
  4  6  1  0  0  0  0
  4 48  1  0  0  0  0
  5 49  1  0  0  0  0
  5 50  1  0  0  0  0
  5 51  1  0  0  0  0
  6 52  1  0  0  0  0
  6 53  1  0  0  0  0
  6 54  1  0  0  0  0
  8  9  1  0  0  0  0
  9 10  1  0  0  0  0
  9 55  1  0  0  0  0
  9 56  1  0  0  0  0
 10 57  1  0  0  0  0
 10 58  1  0  0  0  0
 11 10  1  0  0  0  0
 11 12  1  0  0  0  0
 11 33  1  0  0  0  0
 11 59  1  1  0  0  0
 12 13  1  0  0  0  0
 12 60  1  0  0  0  0
 12 61  1  0  0  0  0
 13 14  1  0  0  0  0
 14 15  1  0  0  0  0
 14 32  2  0  0  0  0
 15 16  1  0  0  0  0
 15 62  1  0  0  0  0
 15 63  1  0  0  0  0
 16 17  1  0  0  0  0
 16 64  1  0  0  0  0
 16 65  1  0  0  0  0
 17 18  1  0  0  0  0
 17 66  1  0  0  0  0
 17 67  1  0  0  0  0
 18 19  1  0  0  0  0
 18 68  1  0  0  0  0
 18 69  1  0  0  0  0
 19 20  1  0  0  0  0
 19 70  1  0  0  0  0
 19 71  1  0  0  0  0
 20 21  1  0  0  0  0
 20 72  1  0  0  0  0
 20 73  1  0  0  0  0
 21 22  1  0  0  0  0
 21 74  1  0  0  0  0
 21 75  1  0  0  0  0
 22 23  1  0  0  0  0
 22 76  1  0  0  0  0
 22 77  1  0  0  0  0
 23 24  1  0  0  0  0
 23 78  1  0  0  0  0
 23 79  1  0  0  0  0
 24 25  1  0  0  0  0
 24 80  1  0  0  0  0
 24 81  1  0  0  0  0
 25 26  1  0  0  0  0
 25 82  1  0  0  0  0
 25 83  1  0  0  0  0
 26 27  1  0  0  0  0
 26 84  1  0  0  0  0
 26 85  1  0  0  0  0
 27 28  1  0  0  0  0
 27 86  1  0  0  0  0
 27 87  1  0  0  0  0
 28 29  1  0  0  0  0
 28 88  1  0  0  0  0
 28 89  1  0  0  0  0
 29 30  1  0  0  0  0
 29 90  1  0  0  0  0
 29 91  1  0  0  0  0
 30 31  1  0  0  0  0
 30 92  1  0  0  0  0
 30 93  1  0  0  0  0
 31 94  1  0  0  0  0
 31 95  1  0  0  0  0
 31 96  1  0  0  0  0
 33 36  1  0  0  0  0
 33 97  1  0  0  0  0
 33 98  1  0  0  0  0
 34 35  2  0  0  0  0
 34 42  1  0  0  0  0
 35 36  1  0  0  0  0
 35 99  1  0  0  0  0
 36 37  1  0  0  0  0
 37 38  1  0  0  0  0
 37 42  2  0  0  0  0
 38 39  2  0  0  0  0
 39 40  1  0  0  0  0
 39 44  1  0  0  0  0
 40 41  1  0  0  0  0
 40100  1  0  0  0  0
 41 42  1  0  0  0  0
 41 43  2  0  0  0  0
 44101  1  0  0  0  0
 44102  1  0  0  0  0
M  END
>  <DRUGBANK_ID>
DB15651

>  <COMMON_NAME>
Valomaciclovir stearate

>  <CAS_NUMBER>
195156-77-5

>  <UNII>
506LI1B3A3

>  <SYNONYMS>
Valomaciclovir stearate

$$$$
