
 OpenBabel10282417072D

101105  0  0  0  0  0  0  0  0999 V2000
    0.7144   -4.1249    0.0000 C   0  0  0  0  0  0  0  0  0  0  0  0
   -3.5723    0.8250    0.0000 C   0  0  0  0  0  0  0  0  0  0  0  0
    5.0013   -1.6499    0.0000 C   0  0  0  0  0  0  0  0  0  0  0  0
   -2.8578   -0.4124    0.0000 C   0  0  0  0  0  0  0  0  0  0  0  0
   -4.2868    1.2375    0.0000 C   0  0  0  0  0  0  0  0  0  0  0  0
    5.7157   -1.2374    0.0000 C   0  0  0  0  0  0  0  0  0  0  0  0
   -2.1434    0.0000    0.0000 C   0  0  0  0  0  0  0  0  0  0  0  0
    3.5723   -1.6499    0.0000 C   0  0  0  0  0  0  0  0  0  0  0  0
    2.8578   -1.2374    0.0000 C   0  0  0  0  0  0  0  0  0  0  0  0
   -4.2868   -0.4124    0.0000 C   0  0  0  0  0  0  0  0  0  0  0  0
    4.2868   -0.4124    0.0000 C   0  0  0  0  0  0  0  0  0  0  0  0
    0.0000    3.7125    0.0000 C   0  0  0  0  0  0  0  0  0  0  0  0
    0.7144    0.8250    0.0000 C   0  0  0  0  0  0  0  0  0  0  0  0
    0.0000   -3.7124    0.0000 C   0  0  1  0  0  0  0  0  0  0  0  0
   -3.5723    0.0000    0.0000 C   0  0  0  0  0  0  0  0  0  0  0  0
    4.2868   -1.2374    0.0000 C   0  0  0  0  0  0  0  0  0  0  0  0
   -5.0012    0.8250    0.0000 C   0  0  0  0  0  0  0  0  0  0  0  0
    5.7157   -0.4124    0.0000 C   0  0  0  0  0  0  0  0  0  0  0  0
   -5.0012    0.0000    0.0000 C   0  0  0  0  0  0  0  0  0  0  0  0
    5.0013    0.0000    0.0000 C   0  0  0  0  0  0  0  0  0  0  0  0
    0.7144    3.3000    0.0000 C   0  0  2  0  0  0  0  0  0  0  0  0
    0.7144    0.0000    0.0000 C   0  0  2  0  0  0  0  0  0  0  0  0
   -1.4289   -0.4124    0.0000 C   0  0  0  0  0  0  0  0  0  0  0  0
   -0.7144   -4.1249    0.0000 C   0  0  1  0  0  0  0  0  0  0  0  0
    1.4289    3.7125    0.0000 C   0  0  2  0  0  0  0  0  0  0  0  0
   -1.4289   -3.7124    0.0000 C   0  0  2  0  0  0  0  0  0  0  0  0
    2.1434    3.3000    0.0000 C   0  0  1  0  0  0  0  0  0  0  0  0
    2.1434    2.4750    0.0000 C   0  0  2  0  0  0  0  0  0  0  0  0
   -1.4289   -2.8874    0.0000 C   0  0  2  0  0  0  0  0  0  0  0  0
    0.7144   -1.6499    0.0000 C   0  0  2  0  0  0  0  0  0  0  0  0
    0.0000   -0.4124    0.0000 C   0  0  2  0  0  0  0  0  0  0  0  0
    0.0000   -1.2374    0.0000 C   0  0  2  0  0  0  0  0  0  0  0  0
    1.4289    2.0625    0.0000 C   0  0  2  0  0  0  0  0  0  0  0  0
    1.4289   -1.2374    0.0000 C   0  0  2  0  0  0  0  0  0  0  0  0
   -0.7144   -2.4749    0.0000 C   0  0  1  0  0  0  0  0  0  0  0  0
    0.0000    4.5375    0.0000 O   0  0  0  0  0  0  0  0  0  0  0  0
   -5.7157    1.2375    0.0000 O   0  0  0  0  0  0  0  0  0  0  0  0
    6.4302    0.0000    0.0000 O   0  0  0  0  0  0  0  0  0  0  0  0
   -5.7157   -0.4124    0.0000 O   0  0  0  0  0  0  0  0  0  0  0  0
    5.0013    0.8250    0.0000 O   0  0  0  0  0  0  0  0  0  0  0  0
   -1.4289   -1.2374    0.0000 O   0  0  0  0  0  0  0  0  0  0  0  0
   -0.7144   -4.9499    0.0000 O   0  0  0  0  0  0  0  0  0  0  0  0
    1.4289    4.5375    0.0000 O   0  0  0  0  0  0  0  0  0  0  0  0
   -2.1434   -4.1249    0.0000 O   0  0  0  0  0  0  0  0  0  0  0  0
    2.8578    3.7125    0.0000 O   0  0  0  0  0  0  0  0  0  0  0  0
    2.8578    2.0625    0.0000 O   0  0  0  0  0  0  0  0  0  0  0  0
   -2.1434   -2.4749    0.0000 O   0  0  0  0  0  0  0  0  0  0  0  0
    0.7144   -2.4749    0.0000 O   0  0  0  0  0  0  0  0  0  0  0  0
    2.1434   -1.6499    0.0000 O   0  0  0  0  0  0  0  0  0  0  0  0
    1.4289    1.2375    0.0000 O   0  0  0  0  0  0  0  0  0  0  0  0
    0.0000   -2.8874    0.0000 O   0  0  0  0  0  0  0  0  0  0  0  0
    0.7144    2.4750    0.0000 O   0  0  0  0  0  0  0  0  0  0  0  0
    1.4289   -0.4124    0.0000 O   0  0  0  0  0  0  0  0  0  0  0  0
   -0.7144    0.0000    0.0000 O   0  0  0  0  0  0  0  0  0  0  0  0
   -0.7144   -1.6499    0.0000 O   0  0  0  0  0  0  0  0  0  0  0  0
    0.7144   -5.1949    0.0000 H   0  0  0  0  0  0  0  0  0  0  0  0
    1.6411   -3.5899    0.0000 H   0  0  0  0  0  0  0  0  0  0  0  0
    1.6410   -4.6599    0.0000 H   0  0  0  0  0  0  0  0  0  0  0  0
   -2.6786    1.3410    0.0000 H   0  0  0  0  0  0  0  0  0  0  0  0
    5.0013   -2.6819    0.0000 H   0  0  0  0  0  0  0  0  0  0  0  0
   -2.8578   -1.4444    0.0000 H   0  0  0  0  0  0  0  0  0  0  0  0
   -4.2868    2.2695    0.0000 H   0  0  0  0  0  0  0  0  0  0  0  0
    6.6094   -1.7534    0.0000 H   0  0  0  0  0  0  0  0  0  0  0  0
   -2.1434    1.0320    0.0000 H   0  0  0  0  0  0  0  0  0  0  0  0
    3.5723   -2.7199    0.0000 H   0  0  0  0  0  0  0  0  0  0  0  0
    4.4989   -2.1849    0.0000 H   0  0  0  0  0  0  0  0  0  0  0  0
    2.8578   -0.1674    0.0000 H   0  0  0  0  0  0  0  0  0  0  0  0
    1.9311   -0.7024    0.0000 H   0  0  0  0  0  0  0  0  0  0  0  0
   -4.2868   -1.4444    0.0000 H   0  0  0  0  0  0  0  0  0  0  0  0
    3.3931    0.1037    0.0000 H   0  0  0  0  0  0  0  0  0  0  0  0
   -0.9267    3.1775    0.0000 H   0  0  0  0  0  0  0  0  0  0  0  0
   -0.9266    4.2475    0.0000 H   0  0  0  0  0  0  0  0  0  0  0  0
   -0.2122    1.3600    0.0000 H   0  0  0  0  0  0  0  0  0  0  0  0
    0.7144    1.8950    0.0000 H   0  0  0  0  0  0  0  0  0  0  0  0
    0.0000   -4.7824    0.0000 H   0  0  0  0  0  0  0  0  0  0  0  0
    0.7144    4.3700    0.0000 H   0  0  0  0  0  0  0  0  0  0  0  0
   -0.2122    0.5350    0.0000 H   0  0  0  0  0  0  0  0  0  0  0  0
    0.2123   -4.6599    0.0000 H   0  0  0  0  0  0  0  0  0  0  0  0
    0.5023    4.2475    0.0000 H   0  0  0  0  0  0  0  0  0  0  0  0
   -1.4289   -4.7824    0.0000 H   0  0  0  0  0  0  0  0  0  0  0  0
    2.1434    4.3700    0.0000 H   0  0  0  0  0  0  0  0  0  0  0  0
    3.0701    3.0100    0.0000 H   0  0  0  0  0  0  0  0  0  0  0  0
   -2.3555   -3.4224    0.0000 H   0  0  0  0  0  0  0  0  0  0  0  0
   -0.2123   -2.1849    0.0000 H   0  0  0  0  0  0  0  0  0  0  0  0
    0.0000    0.6576    0.0000 H   0  0  0  0  0  0  0  0  0  0  0  0
    0.0000   -2.3074    0.0000 H   0  0  0  0  0  0  0  0  0  0  0  0
    2.3555    1.5275    0.0000 H   0  0  0  0  0  0  0  0  0  0  0  0
    1.4289   -2.3074    0.0000 H   0  0  0  0  0  0  0  0  0  0  0  0
   -1.6410   -1.9399    0.0000 H   0  0  0  0  0  0  0  0  0  0  0  0
    0.8400    5.0225    0.0000 H   0  0  0  0  0  0  0  0  0  0  0  0
   -5.7157    2.1745    0.0000 H   0  0  0  0  0  0  0  0  0  0  0  0
    7.2416   -0.4686    0.0000 H   0  0  0  0  0  0  0  0  0  0  0  0
   -6.5271    0.0562    0.0000 H   0  0  0  0  0  0  0  0  0  0  0  0
    5.8128    1.2935    0.0000 H   0  0  0  0  0  0  0  0  0  0  0  0
   -1.5544   -5.4349    0.0000 H   0  0  0  0  0  0  0  0  0  0  0  0
    2.2689    5.0225    0.0000 H   0  0  0  0  0  0  0  0  0  0  0  0
   -2.9834   -3.6399    0.0000 H   0  0  0  0  0  0  0  0  0  0  0  0
    3.6979    3.2275    0.0000 H   0  0  0  0  0  0  0  0  0  0  0  0
    2.8578    1.0925    0.0000 H   0  0  0  0  0  0  0  0  0  0  0  0
   -2.1434   -1.5049    0.0000 H   0  0  0  0  0  0  0  0  0  0  0  0
   -0.1256   -2.9599    0.0000 H   0  0  0  0  0  0  0  0  0  0  0  0
  1 56  1  0  0  0  0
  1 57  1  0  0  0  0
  1 58  1  0  0  0  0
  2 59  1  0  0  0  0
  3 60  1  0  0  0  0
  4 61  1  0  0  0  0
  5  2  2  0  0  0  0
  5 62  1  0  0  0  0
  6  3  2  0  0  0  0
  6 63  1  0  0  0  0
  7  4  2  0  0  0  0
  7 64  1  0  0  0  0
  8 65  1  0  0  0  0
  8 66  1  0  0  0  0
  9  8  1  0  0  0  0
  9 67  1  0  0  0  0
  9 68  1  0  0  0  0
 10 69  1  0  0  0  0
 11 70  1  0  0  0  0
 12 71  1  0  0  0  0
 12 72  1  0  0  0  0
 13 73  1  0  0  0  0
 13 74  1  0  0  0  0
 14  1  1  0  0  0  0
 14 51  1  0  0  0  0
 14 75  1  6  0  0  0
 15  2  1  0  0  0  0
 15  4  1  0  0  0  0
 15 10  2  0  0  0  0
 16  3  1  0  0  0  0
 16  8  1  0  0  0  0
 16 11  2  0  0  0  0
 17  5  1  0  0  0  0
 18  6  1  0  0  0  0
 19 10  1  0  0  0  0
 19 17  2  0  0  0  0
 20 11  1  0  0  0  0
 20 18  2  0  0  0  0
 21 12  1  0  0  0  0
 21 52  1  0  0  0  0
 21 76  1  1  0  0  0
 22 13  1  0  0  0  0
 22 53  1  0  0  0  0
 22 77  1  6  0  0  0
 23  7  1  0  0  0  0
 24 14  1  0  0  0  0
 24 26  1  0  0  0  0
 24 42  1  0  0  0  0
 24 78  1  1  0  0  0
 25 21  1  0  0  0  0
 25 27  1  0  0  0  0
 25 43  1  0  0  0  0
 25 79  1  6  0  0  0
 26 29  1  0  0  0  0
 26 44  1  0  0  0  0
 26 80  1  6  0  0  0
 27 28  1  0  0  0  0
 27 45  1  0  0  0  0
 27 81  1  1  0  0  0
 28 33  1  0  0  0  0
 28 46  1  0  0  0  0
 28 82  1  6  0  0  0
 29 35  1  0  0  0  0
 29 47  1  0  0  0  0
 29 83  1  6  0  0  0
 30 32  1  0  0  0  0
 30 34  1  0  0  0  0
 30 48  1  0  0  0  0
 30 84  1  1  0  0  0
 31 22  1  0  0  0  0
 31 54  1  0  0  0  0
 31 85  1  1  0  0  0
 32 31  1  0  0  0  0
 32 55  1  0  0  0  0
 32 86  1  6  0  0  0
 33 50  1  0  0  0  0
 33 52  1  0  0  0  0
 33 87  1  1  0  0  0
 34 49  1  0  0  0  0
 34 53  1  0  0  0  0
 34 88  1  6  0  0  0
 35 51  1  0  0  0  0
 35 55  1  0  0  0  0
 35 89  1  1  0  0  0
 36 12  1  0  0  0  0
 36 90  1  0  0  0  0
 37 17  1  0  0  0  0
 37 91  1  0  0  0  0
 38 18  1  0  0  0  0
 38 92  1  0  0  0  0
 39 19  1  0  0  0  0
 39 93  1  0  0  0  0
 40 20  1  0  0  0  0
 40 94  1  0  0  0  0
 41 23  2  0  0  0  0
 42 95  1  0  0  0  0
 43 96  1  0  0  0  0
 44 97  1  0  0  0  0
 45 98  1  0  0  0  0
 46 99  1  0  0  0  0
 47100  1  0  0  0  0
 48101  1  0  0  0  0
 49  9  1  0  0  0  0
 50 13  1  0  0  0  0
 54 23  1  0  0  0  0
M  END
>  <DRUGBANK_ID>
DB15488

>  <COMMON_NAME>
Echinacoside

>  <CAS_NUMBER>
82854-37-3

>  <UNII>
I04O1DT48T

$$$$
