
 OpenBabel10282417072D

 97 99  0  0  1  0  0  0  0  0999 V2000
   13.3597   -9.2112    0.0000 C   0  0  0  0  0  0  0  0  0  0  0  0
   12.5897   -8.9149    0.0000 C   0  0  0  0  0  0  0  0  0  0  0  0
   12.4614   -8.0999    0.0000 C   0  0  0  0  0  0  0  0  0  0  0  0
   11.9481   -9.4335    0.0000 C   0  0  0  0  0  0  0  0  0  0  0  0
   12.0764  -10.2485    0.0000 C   0  0  2  0  0  0  0  0  0  0  0  0
   11.4348  -10.7671    0.0000 N   0  0  0  0  0  0  0  0  0  0  0  0
   10.6649  -10.4707    0.0000 C   0  0  0  0  0  0  0  0  0  0  0  0
   10.5366   -9.6558    0.0000 O   0  0  0  0  0  0  0  0  0  0  0  0
   10.0233  -10.9893    0.0000 C   0  0  1  0  0  0  0  0  0  0  0  0
    9.2533  -10.6930    0.0000 N   0  0  0  0  0  0  0  0  0  0  0  0
    8.6117  -11.2116    0.0000 C   0  0  0  0  0  0  0  0  0  0  0  0
    8.7400  -12.0265    0.0000 O   0  0  0  0  0  0  0  0  0  0  0  0
    7.8418  -10.9152    0.0000 C   0  0  2  0  0  0  0  0  0  0  0  0
    7.7135  -10.1003    0.0000 C   0  0  0  0  0  0  0  0  0  0  0  0
    7.2002  -11.4338    0.0000 N   0  0  0  0  0  0  0  0  0  0  0  0
    6.4302  -11.1375    0.0000 C   0  0  0  0  0  0  0  0  0  0  0  0
    5.7886  -11.6561    0.0000 O   0  0  0  0  0  0  0  0  0  0  0  0
    6.3019  -10.3225    0.0000 C   0  0  0  0  0  0  0  0  0  0  0  0
    5.5672   -9.9473    0.0000 N   0  0  0  0  0  0  0  0  0  0  0  0
    5.6970   -9.1326    0.0000 O   0  0  0  0  0  0  0  0  0  0  0  0
    6.5119   -9.0043    0.0000 C   0  0  0  0  0  0  0  0  0  0  0  0
    6.8871   -8.2695    0.0000 C   0  0  0  0  0  0  0  0  0  0  0  0
    6.8858   -9.7397    0.0000 C   0  0  0  0  0  0  0  0  0  0  0  0
   10.1516  -11.8043    0.0000 C   0  0  0  0  0  0  0  0  0  0  0  0
    9.5100  -12.3229    0.0000 C   0  0  0  0  0  0  0  0  0  0  0  0
   10.9215  -12.1006    0.0000 C   0  0  0  0  0  0  0  0  0  0  0  0
   12.8464  -10.5448    0.0000 C   0  0  0  0  0  0  0  0  0  0  0  0
   12.9747  -11.3598    0.0000 O   0  0  0  0  0  0  0  0  0  0  0  0
   13.4880  -10.0262    0.0000 N   0  0  0  0  0  0  0  0  0  0  0  0
   14.2579  -10.3225    0.0000 C   0  0  1  0  0  0  0  0  0  0  0  0
   14.3863  -11.1375    0.0000 C   0  0  0  0  0  0  0  0  0  0  0  0
   15.1562  -11.4338    0.0000 C   0  0  2  0  0  0  0  0  0  0  0  0
   15.8485  -10.9851    0.0000 C   0  0  0  0  0  0  0  0  0  0  0  0
   16.4892  -11.5049    0.0000 C   0  0  0  0  0  0  0  0  0  0  0  0
   16.1928  -12.2749    0.0000 N   0  0  0  0  0  0  0  0  0  0  0  0
   15.3690  -12.2309    0.0000 C   0  0  0  0  0  0  0  0  0  0  0  0
   14.8492  -12.8716    0.0000 O   0  0  0  0  0  0  0  0  0  0  0  0
   14.8995   -9.8039    0.0000 C   0  0  0  0  0  0  0  0  0  0  0  0
   15.6695  -10.1003    0.0000 C   0  0  0  0  0  0  0  0  0  0  0  0
   16.3111   -9.5817    0.0000 C   0  0  0  0  0  0  0  0  0  0  0  0
   16.1828   -8.7667    0.0000 O   0  0  0  0  0  0  0  0  0  0  0  0
   17.0810   -9.8780    0.0000 O   0  0  0  0  0  0  0  0  0  0  0  0
   17.7226   -9.3594    0.0000 C   0  0  0  0  0  0  0  0  0  0  0  0
   18.4926   -9.6558    0.0000 C   0  0  0  0  0  0  0  0  0  0  0  0
   19.1342   -9.1371    0.0000 C   0  0  0  0  0  0  0  0  0  0  0  0
   19.9041   -9.4335    0.0000 C   0  0  0  0  0  0  0  0  0  0  0  0
   20.0325  -10.2485    0.0000 C   0  0  0  0  0  0  0  0  0  0  0  0
   19.3908  -10.7671    0.0000 C   0  0  0  0  0  0  0  0  0  0  0  0
   18.6209  -10.4707    0.0000 C   0  0  0  0  0  0  0  0  0  0  0  0
   13.5262  -10.2682    0.0000 H   0  0  0  0  0  0  0  0  0  0  0  0
   14.1918   -8.5385    0.0000 H   0  0  0  0  0  0  0  0  0  0  0  0
   14.3583   -9.5955    0.0000 H   0  0  0  0  0  0  0  0  0  0  0  0
   11.5911   -8.5305    0.0000 H   0  0  0  0  0  0  0  0  0  0  0  0
   13.2936   -7.4273    0.0000 H   0  0  0  0  0  0  0  0  0  0  0  0
   11.4628   -7.7155    0.0000 H   0  0  0  0  0  0  0  0  0  0  0  0
   12.2950   -7.0429    0.0000 H   0  0  0  0  0  0  0  0  0  0  0  0
   10.9495   -9.0491    0.0000 H   0  0  0  0  0  0  0  0  0  0  0  0
   11.1159  -10.1061    0.0000 H   0  0  0  0  0  0  0  0  0  0  0  0
   11.0778   -9.8641    0.0000 H   0  0  0  0  0  0  0  0  0  0  0  0
   11.5879  -11.7396    0.0000 H   0  0  0  0  0  0  0  0  0  0  0  0
    9.8568   -9.9323    0.0000 H   0  0  0  0  0  0  0  0  0  0  0  0
    9.1001   -9.7205    0.0000 H   0  0  0  0  0  0  0  0  0  0  0  0
    8.6740  -10.2426    0.0000 H   0  0  0  0  0  0  0  0  0  0  0  0
    8.5457   -9.4277    0.0000 H   0  0  0  0  0  0  0  0  0  0  0  0
    6.7149   -9.7159    0.0000 H   0  0  0  0  0  0  0  0  0  0  0  0
    7.5471   -9.0433    0.0000 H   0  0  0  0  0  0  0  0  0  0  0  0
    7.3534  -12.4063    0.0000 H   0  0  0  0  0  0  0  0  0  0  0  0
    7.9557   -8.2144    0.0000 H   0  0  0  0  0  0  0  0  0  0  0  0
    6.3051   -7.3716    0.0000 H   0  0  0  0  0  0  0  0  0  0  0  0
    7.3737   -7.3165    0.0000 H   0  0  0  0  0  0  0  0  0  0  0  0
    7.9049   -9.9021    0.0000 H   0  0  0  0  0  0  0  0  0  0  0  0
   10.3181  -12.8613    0.0000 H   0  0  0  0  0  0  0  0  0  0  0  0
    8.5114  -11.9385    0.0000 H   0  0  0  0  0  0  0  0  0  0  0  0
    9.6764  -13.3799    0.0000 H   0  0  0  0  0  0  0  0  0  0  0  0
    8.6778  -12.9955    0.0000 H   0  0  0  0  0  0  0  0  0  0  0  0
   11.0880  -13.1576    0.0000 H   0  0  0  0  0  0  0  0  0  0  0  0
   11.7536  -11.4279    0.0000 H   0  0  0  0  0  0  0  0  0  0  0  0
   11.9201  -12.4849    0.0000 H   0  0  0  0  0  0  0  0  0  0  0  0
   13.3348   -9.0537    0.0000 H   0  0  0  0  0  0  0  0  0  0  0  0
   13.4258  -10.9952    0.0000 H   0  0  0  0  0  0  0  0  0  0  0  0
   13.5542  -11.8102    0.0000 H   0  0  0  0  0  0  0  0  0  0  0  0
   14.5528  -12.1945    0.0000 H   0  0  0  0  0  0  0  0  0  0  0  0
   15.0453  -10.3696    0.0000 H   0  0  0  0  0  0  0  0  0  0  0  0
   15.9055   -9.9166    0.0000 H   0  0  0  0  0  0  0  0  0  0  0  0
   16.8264  -10.5508    0.0000 H   0  0  0  0  0  0  0  0  0  0  0  0
   17.5230  -11.2289    0.0000 H   0  0  0  0  0  0  0  0  0  0  0  0
   17.2044  -12.3007    0.0000 H   0  0  0  0  0  0  0  0  0  0  0  0
   16.7282  -13.1011    0.0000 H   0  0  0  0  0  0  0  0  0  0  0  0
   14.7390   -8.7845    0.0000 H   0  0  0  0  0  0  0  0  0  0  0  0
   15.8300  -11.1197    0.0000 H   0  0  0  0  0  0  0  0  0  0  0  0
   17.5562   -8.3024    0.0000 H   0  0  0  0  0  0  0  0  0  0  0  0
   18.5548   -8.6868    0.0000 H   0  0  0  0  0  0  0  0  0  0  0  0
   18.9737   -8.1177    0.0000 H   0  0  0  0  0  0  0  0  0  0  0  0
   20.7067   -8.7848    0.0000 H   0  0  0  0  0  0  0  0  0  0  0  0
   20.9956  -10.6192    0.0000 H   0  0  0  0  0  0  0  0  0  0  0  0
   19.5512  -11.7866    0.0000 H   0  0  0  0  0  0  0  0  0  0  0  0
   17.8183  -11.1194    0.0000 H   0  0  0  0  0  0  0  0  0  0  0  0
  1  2  1  0  0  0  0
  1 50  1  0  0  0  0
  1 51  1  0  0  0  0
  1 52  1  0  0  0  0
  2  3  1  0  0  0  0
  2  4  1  0  0  0  0
  2 53  1  0  0  0  0
  3 54  1  0  0  0  0
  3 55  1  0  0  0  0
  3 56  1  0  0  0  0
  4  5  1  0  0  0  0
  4 57  1  0  0  0  0
  4 58  1  0  0  0  0
  5  6  1  0  0  0  0
  5 27  1  0  0  0  0
  5 59  1  6  0  0  0
  6  7  1  0  0  0  0
  6 60  1  0  0  0  0
  7  8  2  0  0  0  0
  7  9  1  0  0  0  0
  9 10  1  0  0  0  0
  9 24  1  0  0  0  0
  9 61  1  1  0  0  0
 10 11  1  0  0  0  0
 10 62  1  0  0  0  0
 11 12  2  0  0  0  0
 11 13  1  0  0  0  0
 13 14  1  0  0  0  0
 13 15  1  0  0  0  0
 13 63  1  6  0  0  0
 14 64  1  0  0  0  0
 14 65  1  0  0  0  0
 14 66  1  0  0  0  0
 15 16  1  0  0  0  0
 15 67  1  0  0  0  0
 16 17  2  0  0  0  0
 16 18  1  0  0  0  0
 18 19  2  0  0  0  0
 18 23  1  0  0  0  0
 19 20  1  0  0  0  0
 20 21  1  0  0  0  0
 21 22  1  0  0  0  0
 21 23  2  0  0  0  0
 22 68  1  0  0  0  0
 22 69  1  0  0  0  0
 22 70  1  0  0  0  0
 23 71  1  0  0  0  0
 24 25  1  0  0  0  0
 24 26  1  0  0  0  0
 24 72  1  0  0  0  0
 25 73  1  0  0  0  0
 25 74  1  0  0  0  0
 25 75  1  0  0  0  0
 26 76  1  0  0  0  0
 26 77  1  0  0  0  0
 26 78  1  0  0  0  0
 27 28  2  0  0  0  0
 27 29  1  0  0  0  0
 29 79  1  0  0  0  0
 30 29  1  0  0  0  0
 30 31  1  0  0  0  0
 30 38  1  0  0  0  0
 30 80  1  1  0  0  0
 31 81  1  0  0  0  0
 31 82  1  0  0  0  0
 32 31  1  0  0  0  0
 32 33  1  0  0  0  0
 32 36  1  0  0  0  0
 32 83  1  1  0  0  0
 33 34  1  0  0  0  0
 33 84  1  0  0  0  0
 33 85  1  0  0  0  0
 34 35  1  0  0  0  0
 34 86  1  0  0  0  0
 34 87  1  0  0  0  0
 35 36  1  0  0  0  0
 35 88  1  0  0  0  0
 36 37  2  0  0  0  0
 38 39  2  0  0  0  0
 38 89  1  0  0  0  0
 39 40  1  0  0  0  0
 39 90  1  0  0  0  0
 40 41  2  0  0  0  0
 40 42  1  0  0  0  0
 42 43  1  0  0  0  0
 43 44  1  0  0  0  0
 43 91  1  0  0  0  0
 43 92  1  0  0  0  0
 44 45  2  0  0  0  0
 44 49  1  0  0  0  0
 45 46  1  0  0  0  0
 45 93  1  0  0  0  0
 46 47  2  0  0  0  0
 46 94  1  0  0  0  0
 47 48  1  0  0  0  0
 47 95  1  0  0  0  0
 48 49  2  0  0  0  0
 48 96  1  0  0  0  0
 49 97  1  0  0  0  0
M  END
>  <DRUGBANK_ID>
DB04595

>  <COMMON_NAME>
(E)-(4S,6S)-8-METHYL-6-((S)-3-METHYL-2-{(S)-2-[(5-METHYL-ISOXAZOLE-3-CARBONYL)-AMINO]-PROPIONYLAMINO}-BUTYRYLAMINO)-5-OXO-4-((R)-2-OXO-PYRROLIDIN-3-YLMETHYL)-NON-2-ENOIC ACID BENZYL ESTER

$$$$
