
 OpenBabel10282417072D

 27 30  0  0  0  0  0  0  0  0999 V2000
    0.7145    0.0000    0.0000 N   0  0  0  0  0  0  0  0  0  0  0  0
    0.0000   -0.4125    0.0000 C   0  0  0  0  0  0  0  0  0  0  0  0
   -0.7145    0.0000    0.0000 N   0  0  0  0  0  0  0  0  0  0  0  0
   -0.7145    0.8250    0.0000 C   0  0  0  0  0  0  0  0  0  0  0  0
    0.0000    1.2374    0.0000 N   0  0  0  0  0  0  0  0  0  0  0  0
    0.7145    0.8250    0.0000 C   0  0  0  0  0  0  0  0  0  0  0  0
    0.0000   -1.2374    0.0000 N   0  0  0  0  0  0  0  0  0  0  0  0
    0.4125   -1.9520    0.0000 C   0  0  0  0  0  0  0  0  0  0  0  0
   -0.4125   -1.9520    0.0000 C   0  0  0  0  0  0  0  0  0  0  0  0
   -1.4289    1.2374    0.0000 N   0  0  0  0  0  0  0  0  0  0  0  0
   -2.2538    1.2374    0.0000 C   0  0  0  0  0  0  0  0  0  0  0  0
   -1.8414    1.9520    0.0000 C   0  0  0  0  0  0  0  0  0  0  0  0
    1.4289    1.2374    0.0000 N   0  0  0  0  0  0  0  0  0  0  0  0
    1.8414    1.9520    0.0000 C   0  0  0  0  0  0  0  0  0  0  0  0
    2.2538    1.2374    0.0000 C   0  0  0  0  0  0  0  0  0  0  0  0
    1.3391   -2.4870    0.0000 H   0  0  0  0  0  0  0  0  0  0  0  0
    0.1355   -2.9855    0.0000 H   0  0  0  0  0  0  0  0  0  0  0  0
   -1.3391   -2.4870    0.0000 H   0  0  0  0  0  0  0  0  0  0  0  0
   -0.1355   -2.9855    0.0000 H   0  0  0  0  0  0  0  0  0  0  0  0
   -3.1804    0.7023    0.0000 H   0  0  0  0  0  0  0  0  0  0  0  0
   -3.0105    1.9939    0.0000 H   0  0  0  0  0  0  0  0  0  0  0  0
   -1.8415    3.0220    0.0000 H   0  0  0  0  0  0  0  0  0  0  0  0
   -2.8750    2.2288    0.0000 H   0  0  0  0  0  0  0  0  0  0  0  0
    1.8415    3.0220    0.0000 H   0  0  0  0  0  0  0  0  0  0  0  0
    2.8750    2.2288    0.0000 H   0  0  0  0  0  0  0  0  0  0  0  0
    3.1804    0.7023    0.0000 H   0  0  0  0  0  0  0  0  0  0  0  0
    3.0105    1.9939    0.0000 H   0  0  0  0  0  0  0  0  0  0  0  0
  2  1  2  0  0  0  0
  3  2  1  0  0  0  0
  4  3  2  0  0  0  0
  5  4  1  0  0  0  0
  6  1  1  0  0  0  0
  6  5  2  0  0  0  0
  7  2  1  0  0  0  0
  8  7  1  0  0  0  0
  8 16  1  0  0  0  0
  8 17  1  0  0  0  0
  9  7  1  0  0  0  0
  9  8  1  0  0  0  0
  9 18  1  0  0  0  0
  9 19  1  0  0  0  0
 10  4  1  0  0  0  0
 11 10  1  0  0  0  0
 11 20  1  0  0  0  0
 11 21  1  0  0  0  0
 12 10  1  0  0  0  0
 12 11  1  0  0  0  0
 12 22  1  0  0  0  0
 12 23  1  0  0  0  0
 13  6  1  0  0  0  0
 14 13  1  0  0  0  0
 14 24  1  0  0  0  0
 14 25  1  0  0  0  0
 15 13  1  0  0  0  0
 15 14  1  0  0  0  0
 15 26  1  0  0  0  0
 15 27  1  0  0  0  0
M  END
>  <DRUGBANK_ID>
DB14031

>  <COMMON_NAME>
Tretamine

>  <CAS_NUMBER>
51-18-3

>  <UNII>
F7IY6HZG9D

>  <SYNONYMS>
2,4,6-tri(1-aziridinyl)-1,3,5-triazine; 2,4,6-tris(1-aziridinyl)-1,3,5-triazine; 2,4,6-tris(1-aziridinyl)-s-triazine; 2,4,6-tris(aziridin-1-yl)-1,3,5-triazine; TEM; Tretamina; Tretamine; Tretaminum; Triaethylenmelamin; Triethylenemelamine; Trisaziridinyltriazine

$$$$
