
 OpenBabel10282417072D

 64 67  0  0  0  0  0  0  0  0999 V2000
   -2.0060   -4.9587    0.0000 C   0  0  0  0  0  0  0  0  0  0  0  0
   -2.0060   -4.1337    0.0000 C   0  0  0  0  0  0  0  0  0  0  0  0
   -1.2916   -3.7211    0.0000 C   0  0  0  0  0  0  0  0  0  0  0  0
   -0.5771   -4.1336    0.0000 C   0  0  0  0  0  0  0  0  0  0  0  0
   -0.5771   -4.9586    0.0000 C   0  0  0  0  0  0  0  0  0  0  0  0
   -1.2915   -5.3711    0.0000 C   0  0  0  0  0  0  0  0  0  0  0  0
   -1.2915   -6.1961    0.0000 C   0  0  0  0  0  0  0  0  0  0  0  0
   -2.0059   -6.6087    0.0000 C   0  0  0  0  0  0  0  0  0  0  0  0
   -2.0059   -7.4337    0.0000 C   0  0  0  0  0  0  0  0  0  0  0  0
   -2.7203   -7.8462    0.0000 N   0  0  0  0  0  0  0  0  0  0  0  0
   -2.7203   -8.6712    0.0000 C   0  0  0  0  0  0  0  0  0  0  0  0
   -3.4347   -9.0837    0.0000 C   0  0  0  0  0  0  0  0  0  0  0  0
   -3.4347   -9.9087    0.0000 C   0  0  0  0  0  0  0  0  0  0  0  0
   -4.1491  -10.3213    0.0000 O   0  0  0  0  0  0  0  0  0  0  0  0
    0.1373   -3.7210    0.0000 C   0  0  0  0  0  0  0  0  0  0  0  0
    0.8518   -4.1335    0.0000 O   0  0  0  0  0  0  0  0  0  0  0  0
    0.1373   -2.8960    0.0000 N   0  0  0  0  0  0  0  0  0  0  0  0
    0.8517   -2.4835    0.0000 C   0  0  0  0  0  0  0  0  0  0  0  0
    0.8517   -1.6585    0.0000 C   0  0  3  0  0  0  0  0  0  0  0  0
    0.1163   -2.0322    0.0000 C   0  0  0  0  0  0  0  0  0  0  0  0
    0.5657   -1.2419    0.0000 C   0  0  3  0  0  0  0  0  0  0  0  0
    0.5657   -0.4945    0.0000 C   0  0  0  0  0  0  0  0  0  0  0  0
    1.3012   -0.1208    0.0000 C   0  0  3  0  0  0  0  0  0  0  0  0
    0.8517   -0.9111    0.0000 C   0  0  0  0  0  0  0  0  0  0  0  0
    2.0368   -0.4945    0.0000 C   0  0  0  0  0  0  0  0  0  0  0  0
    2.0368   -1.2419    0.0000 C   0  0  3  0  0  0  0  0  0  0  0  0
    1.3012   -1.6156    0.0000 C   0  0  0  0  0  0  0  0  0  0  0  0
    1.5873   -2.0322    0.0000 C   0  0  0  0  0  0  0  0  0  0  0  0
   -1.2916   -2.8961    0.0000 Cl  0  0  0  0  0  0  0  0  0  0  0  0
   -2.8997   -5.4748    0.0000 H   0  0  0  0  0  0  0  0  0  0  0  0
   -2.8998   -3.6178    0.0000 H   0  0  0  0  0  0  0  0  0  0  0  0
    0.3166   -5.4746    0.0000 H   0  0  0  0  0  0  0  0  0  0  0  0
   -0.3648   -6.7310    0.0000 H   0  0  0  0  0  0  0  0  0  0  0  0
   -1.2914   -7.2661    0.0000 H   0  0  0  0  0  0  0  0  0  0  0  0
   -2.9326   -6.0738    0.0000 H   0  0  0  0  0  0  0  0  0  0  0  0
   -2.9325   -7.1437    0.0000 H   0  0  0  0  0  0  0  0  0  0  0  0
   -1.0792   -7.9687    0.0000 H   0  0  0  0  0  0  0  0  0  0  0  0
   -2.0059   -8.5037    0.0000 H   0  0  0  0  0  0  0  0  0  0  0  0
   -3.6037   -7.3362    0.0000 H   0  0  0  0  0  0  0  0  0  0  0  0
   -1.7936   -9.2062    0.0000 H   0  0  0  0  0  0  0  0  0  0  0  0
   -2.7203   -9.7412    0.0000 H   0  0  0  0  0  0  0  0  0  0  0  0
   -4.3614   -8.5487    0.0000 H   0  0  0  0  0  0  0  0  0  0  0  0
   -4.3613   -9.6187    0.0000 H   0  0  0  0  0  0  0  0  0  0  0  0
   -2.5080  -10.4436    0.0000 H   0  0  0  0  0  0  0  0  0  0  0  0
   -3.4346  -10.9787    0.0000 H   0  0  0  0  0  0  0  0  0  0  0  0
   -4.9892   -9.8364    0.0000 H   0  0  0  0  0  0  0  0  0  0  0  0
   -0.7153   -2.4038    0.0000 H   0  0  0  0  0  0  0  0  0  0  0  0
    1.7784   -3.0185    0.0000 H   0  0  0  0  0  0  0  0  0  0  0  0
    1.7783   -1.9485    0.0000 H   0  0  0  0  0  0  0  0  0  0  0  0
   -0.6578   -2.7709    0.0000 H   0  0  0  0  0  0  0  0  0  0  0  0
   -0.7271   -1.3737    0.0000 H   0  0  0  0  0  0  0  0  0  0  0  0
    0.8735   -2.2667    0.0000 H   0  0  0  0  0  0  0  0  0  0  0  0
   -0.3463    0.0651    0.0000 H   0  0  0  0  0  0  0  0  0  0  0  0
   -0.3680   -1.0171    0.0000 H   0  0  0  0  0  0  0  0  0  0  0  0
    0.5270   -0.8594    0.0000 H   0  0  0  0  0  0  0  0  0  0  0  0
   -0.1827   -0.6375    0.0000 H   0  0  0  0  0  0  0  0  0  0  0  0
    0.0039   -1.5638    0.0000 H   0  0  0  0  0  0  0  0  0  0  0  0
    2.9488    0.0651    0.0000 H   0  0  0  0  0  0  0  0  0  0  0  0
    2.9705   -1.0170    0.0000 H   0  0  0  0  0  0  0  0  0  0  0  0
    1.2626   -1.9805    0.0000 H   0  0  0  0  0  0  0  0  0  0  0  0
    1.3012   -2.6856    0.0000 H   0  0  0  0  0  0  0  0  0  0  0  0
    2.2132   -2.1752    0.0000 H   0  0  0  0  0  0  0  0  0  0  0  0
    1.8951   -3.0570    0.0000 H   0  0  0  0  0  0  0  0  0  0  0  0
    2.6505   -2.1525    0.0000 H   0  0  0  0  0  0  0  0  0  0  0  0
  1  2  2  0  0  0  0
  1  6  1  0  0  0  0
  1 30  1  0  0  0  0
  2  3  1  0  0  0  0
  2 31  1  0  0  0  0
  3  4  2  0  0  0  0
  3 29  1  0  0  0  0
  4  5  1  0  0  0  0
  4 15  1  0  0  0  0
  5  6  2  0  0  0  0
  5 32  1  0  0  0  0
  6  7  1  0  0  0  0
  7  8  1  0  0  0  0
  7 33  1  0  0  0  0
  7 34  1  0  0  0  0
  8  9  1  0  0  0  0
  8 35  1  0  0  0  0
  8 36  1  0  0  0  0
  9 10  1  0  0  0  0
  9 37  1  0  0  0  0
  9 38  1  0  0  0  0
 10 11  1  0  0  0  0
 10 39  1  0  0  0  0
 11 12  1  0  0  0  0
 11 40  1  0  0  0  0
 11 41  1  0  0  0  0
 12 13  1  0  0  0  0
 12 42  1  0  0  0  0
 12 43  1  0  0  0  0
 13 14  1  0  0  0  0
 13 44  1  0  0  0  0
 13 45  1  0  0  0  0
 14 46  1  0  0  0  0
 15 16  2  0  0  0  0
 15 17  1  0  0  0  0
 17 18  1  0  0  0  0
 17 47  1  0  0  0  0
 18 19  1  0  0  0  0
 18 48  1  0  0  0  0
 18 49  1  0  0  0  0
 19 20  1  0  0  0  0
 19 28  1  0  0  0  0
 19 24  1  0  0  0  0
 20 21  1  0  0  0  0
 20 50  1  0  0  0  0
 20 51  1  0  0  0  0
 21 27  1  0  0  0  0
 21 22  1  0  0  0  0
 21 52  1  0  0  0  0
 22 23  1  0  0  0  0
 22 53  1  0  0  0  0
 22 54  1  0  0  0  0
 23 24  1  0  0  0  0
 23 25  1  0  0  0  0
 23 55  1  0  0  0  0
 24 56  1  0  0  0  0
 24 57  1  0  0  0  0
 25 26  1  0  0  0  0
 25 58  1  0  0  0  0
 25 59  1  0  0  0  0
 26 28  1  0  0  0  0
 26 27  1  0  0  0  0
 26 60  1  0  0  0  0
 27 61  1  0  0  0  0
 27 62  1  0  0  0  0
 28 63  1  0  0  0  0
 28 64  1  0  0  0  0
M  END
>  <DRUGBANK_ID>
DB12594

>  <COMMON_NAME>
AZD-9056

>  <CAS_NUMBER>
345304-65-6

>  <UNII>
F13K378W4L

$$$$
