
 OpenBabel10282417072D

 47 49  0  0  0  0  0  0  0  0999 V2000
   -1.4817    0.0997    0.0000 C   0  0  0  0  0  0  0  0  0  0  0  0
   -2.2340   -0.2369    0.0000 N   0  0  0  0  0  0  0  0  0  0  0  0
   -2.7826    0.3782    0.0000 N   0  0  0  0  0  0  0  0  0  0  0  0
   -1.5689    0.9226    0.0000 C   0  0  0  0  0  0  0  0  0  0  0  0
   -2.3711    1.0890    0.0000 C   0  0  0  0  0  0  0  0  0  0  0  0
   -0.7710   -0.3117    0.0000 N   0  0  0  0  0  0  0  0  0  0  0  0
   -0.0602    0.0997    0.0000 C   0  0  0  0  0  0  0  0  0  0  0  0
   -2.7078    1.8453    0.0000 C   0  0  0  0  0  0  0  0  0  0  0  0
    0.6504   -0.3117    0.0000 N   0  0  0  0  0  0  0  0  0  0  0  0
   -2.4043   -1.0349    0.0000 C   0  0  0  0  0  0  0  0  0  0  0  0
   -0.0602    0.9226    0.0000 O   0  0  0  0  0  0  0  0  0  0  0  0
    1.3694    0.0997    0.0000 C   0  0  0  0  0  0  0  0  0  0  0  0
    2.7950    0.9143    0.0000 C   0  0  0  0  0  0  0  0  0  0  0  0
    3.5057    1.3341    0.0000 Cl  0  0  0  0  0  0  0  0  0  0  0  0
    1.3612    0.9143    0.0000 C   0  0  0  0  0  0  0  0  0  0  0  0
    2.0801   -0.3200    0.0000 C   0  0  0  0  0  0  0  0  0  0  0  0
    2.7908    0.0914    0.0000 C   0  0  0  0  0  0  0  0  0  0  0  0
    2.0719    1.3341    0.0000 C   0  0  0  0  0  0  0  0  0  0  0  0
   -1.9971    2.2568    0.0000 C   0  0  0  0  0  0  0  0  0  0  0  0
   -3.5057    1.6333    0.0000 C   0  0  0  0  0  0  0  0  0  0  0  0
   -2.9280    2.6434    0.0000 C   0  0  0  0  0  0  0  0  0  0  0  0
   -3.1898   -1.2843    0.0000 C   0  0  0  0  0  0  0  0  0  0  0  0
   -1.7934   -1.5835    0.0000 C   0  0  0  0  0  0  0  0  0  0  0  0
   -1.9679   -2.3898    0.0000 C   0  0  0  0  0  0  0  0  0  0  0  0
   -3.3645   -2.0947    0.0000 C   0  0  0  0  0  0  0  0  0  0  0  0
   -2.7535   -2.6434    0.0000 C   0  0  0  0  0  0  0  0  0  0  0  0
   -0.8040    1.6153    0.0000 H   0  0  0  0  0  0  0  0  0  0  0  0
   -0.7710   -1.2962    0.0000 H   0  0  0  0  0  0  0  0  0  0  0  0
    0.6479   -1.2962    0.0000 H   0  0  0  0  0  0  0  0  0  0  0  0
    0.4623    1.4213    0.0000 H   0  0  0  0  0  0  0  0  0  0  0  0
    2.0756   -1.3520    0.0000 H   0  0  0  0  0  0  0  0  0  0  0  0
    3.6835   -0.4264    0.0000 H   0  0  0  0  0  0  0  0  0  0  0  0
    2.0680    2.3661    0.0000 H   0  0  0  0  0  0  0  0  0  0  0  0
   -1.0698    1.7230    0.0000 H   0  0  0  0  0  0  0  0  0  0  0  0
   -1.9984    3.3268    0.0000 H   0  0  0  0  0  0  0  0  0  0  0  0
   -1.0711    2.7929    0.0000 H   0  0  0  0  0  0  0  0  0  0  0  0
   -4.2607    2.3915    0.0000 H   0  0  0  0  0  0  0  0  0  0  0  0
   -3.7848    0.6003    0.0000 H   0  0  0  0  0  0  0  0  0  0  0  0
   -4.5398    1.3585    0.0000 H   0  0  0  0  0  0  0  0  0  0  0  0
   -2.1770    3.4056    0.0000 H   0  0  0  0  0  0  0  0  0  0  0  0
   -3.9636    2.9127    0.0000 H   0  0  0  0  0  0  0  0  0  0  0  0
   -3.2126    3.6749    0.0000 H   0  0  0  0  0  0  0  0  0  0  0  0
   -3.9534   -0.5901    0.0000 H   0  0  0  0  0  0  0  0  0  0  0  0
   -0.8115   -1.2658    0.0000 H   0  0  0  0  0  0  0  0  0  0  0  0
   -1.2029   -3.0825    0.0000 H   0  0  0  0  0  0  0  0  0  0  0  0
   -4.3462   -2.4128    0.0000 H   0  0  0  0  0  0  0  0  0  0  0  0
   -2.9684   -3.6528    0.0000 H   0  0  0  0  0  0  0  0  0  0  0  0
  2  1  1  0  0  0  0
  3  2  1  0  0  0  0
  3  5  2  0  0  0  0
  4  1  2  0  0  0  0
  4 27  1  0  0  0  0
  5  4  1  0  0  0  0
  6  1  1  0  0  0  0
  6 28  1  0  0  0  0
  7  6  1  0  0  0  0
  8  5  1  0  0  0  0
  9  7  1  0  0  0  0
  9 29  1  0  0  0  0
 10  2  1  0  0  0  0
 11  7  2  0  0  0  0
 12  9  1  0  0  0  0
 13 17  2  0  0  0  0
 13 18  1  0  0  0  0
 14 13  1  0  0  0  0
 15 12  1  0  0  0  0
 15 30  1  0  0  0  0
 16 12  2  0  0  0  0
 16 31  1  0  0  0  0
 17 16  1  0  0  0  0
 17 32  1  0  0  0  0
 18 15  2  0  0  0  0
 18 33  1  0  0  0  0
 19  8  1  0  0  0  0
 19 34  1  0  0  0  0
 19 35  1  0  0  0  0
 19 36  1  0  0  0  0
 20  8  1  0  0  0  0
 20 37  1  0  0  0  0
 20 38  1  0  0  0  0
 20 39  1  0  0  0  0
 21  8  1  0  0  0  0
 21 40  1  0  0  0  0
 21 41  1  0  0  0  0
 21 42  1  0  0  0  0
 22 10  2  0  0  0  0
 22 43  1  0  0  0  0
 23 10  1  0  0  0  0
 23 44  1  0  0  0  0
 24 23  2  0  0  0  0
 24 45  1  0  0  0  0
 25 22  1  0  0  0  0
 25 46  1  0  0  0  0
 26 24  1  0  0  0  0
 26 25  2  0  0  0  0
 26 47  1  0  0  0  0
M  END
>  <DRUGBANK_ID>
DB01807

>  <SECONDARY_ACCESSION_NUMBERS>
EXPT01987

>  <COMMON_NAME>
N-[(3Z)-5-Tert-butyl-2-phenyl-1,2-dihydro-3H-pyrazol-3-ylidene]-N'-(4-chlorophenyl)urea

$$$$
