PIX
 OpenBabel10282417072D

 46 48  0  0  0  0  0  0  0  0999 V2000
    2.5823    3.0335    0.0000 O   0  0  0  0  0  0  0  0  0  0  0  0
    2.5823    2.2085    0.0000 C   0  0  0  0  0  0  0  0  0  0  0  0
    1.8678    1.7960    0.0000 N   0  0  0  0  0  0  0  0  0  0  0  0
    1.8678    0.9710    0.0000 C   0  0  0  0  0  0  0  0  0  0  0  0
    1.1534    0.5585    0.0000 C   0  0  0  0  0  0  0  0  0  0  0  0
    1.1534    2.2085    0.0000 C   0  0  0  0  0  0  0  0  0  0  0  0
    0.4389    1.7960    0.0000 C   0  0  0  0  0  0  0  0  0  0  0  0
    0.4389    0.9710    0.0000 C   0  0  0  0  0  0  0  0  0  0  0  0
   -0.2756    0.5585    0.0000 C   0  0  0  0  0  0  0  0  0  0  0  0
   -0.2756   -0.2665    0.0000 C   0  0  0  0  0  0  0  0  0  0  0  0
    0.4389   -0.6790    0.0000 C   0  0  0  0  0  0  0  0  0  0  0  0
    0.4389   -1.5040    0.0000 C   0  0  0  0  0  0  0  0  0  0  0  0
   -0.2756   -1.9165    0.0000 C   0  0  0  0  0  0  0  0  0  0  0  0
   -0.9901   -0.6790    0.0000 C   0  0  0  0  0  0  0  0  0  0  0  0
   -0.9901   -1.5040    0.0000 C   0  0  0  0  0  0  0  0  0  0  0  0
   -1.7045   -1.9165    0.0000 O   0  0  0  0  0  0  0  0  0  0  0  0
   -2.4190   -1.5040    0.0000 C   0  0  0  0  0  0  0  0  0  0  0  0
   -3.1335   -1.9165    0.0000 C   0  0  0  0  0  0  0  0  0  0  0  0
   -3.8479   -1.5040    0.0000 C   0  0  0  0  0  0  0  0  0  0  0  0
   -2.4190   -0.6790    0.0000 N   0  0  0  0  0  0  0  0  0  0  0  0
   -3.1335   -0.2665    0.0000 C   0  0  0  0  0  0  0  0  0  0  0  0
   -3.8479   -0.6790    0.0000 C   0  0  0  0  0  0  0  0  0  0  0  0
   -4.5624   -0.2665    0.0000 C   0  0  0  0  0  0  0  0  0  0  0  0
   -5.2769    0.1460    0.0000 F   0  0  0  0  0  0  0  0  0  0  0  0
   -4.1499    0.4480    0.0000 F   0  0  0  0  0  0  0  0  0  0  0  0
   -4.9749   -0.9809    0.0000 F   0  0  0  0  0  0  0  0  0  0  0  0
    3.2968    1.7960    0.0000 O   0  0  0  0  0  0  0  0  0  0  0  0
    2.7945    0.4360    0.0000 H   0  0  0  0  0  0  0  0  0  0  0  0
    1.8678   -0.0990    0.0000 H   0  0  0  0  0  0  0  0  0  0  0  0
    1.1534   -0.5115    0.0000 H   0  0  0  0  0  0  0  0  0  0  0  0
    0.2268    0.0235    0.0000 H   0  0  0  0  0  0  0  0  0  0  0  0
    1.1534    3.2785    0.0000 H   0  0  0  0  0  0  0  0  0  0  0  0
    0.2268    2.7435    0.0000 H   0  0  0  0  0  0  0  0  0  0  0  0
   -0.4877    2.3310    0.0000 H   0  0  0  0  0  0  0  0  0  0  0  0
   -0.4877    1.2610    0.0000 H   0  0  0  0  0  0  0  0  0  0  0  0
   -0.4877    1.5060    0.0000 H   0  0  0  0  0  0  0  0  0  0  0  0
   -1.2022    1.0935    0.0000 H   0  0  0  0  0  0  0  0  0  0  0  0
   -1.2022    0.0235    0.0000 H   0  0  0  0  0  0  0  0  0  0  0  0
    1.3326   -0.1630    0.0000 H   0  0  0  0  0  0  0  0  0  0  0  0
    1.3326   -2.0200    0.0000 H   0  0  0  0  0  0  0  0  0  0  0  0
   -0.2756   -2.9485    0.0000 H   0  0  0  0  0  0  0  0  0  0  0  0
   -1.8838   -0.1630    0.0000 H   0  0  0  0  0  0  0  0  0  0  0  0
   -3.1335   -2.9485    0.0000 H   0  0  0  0  0  0  0  0  0  0  0  0
   -4.7416   -2.0200    0.0000 H   0  0  0  0  0  0  0  0  0  0  0  0
   -3.1335    0.7655    0.0000 H   0  0  0  0  0  0  0  0  0  0  0  0
    3.2968    0.8590    0.0000 H   0  0  0  0  0  0  0  0  0  0  0  0
  1  2  2  0  0  0  0
  2  3  1  0  0  0  0
  2 27  1  0  0  0  0
  3  4  1  0  0  0  0
  3  6  1  0  0  0  0
  4  5  1  0  0  0  0
  4 28  1  0  0  0  0
  4 29  1  0  0  0  0
  5  8  1  0  0  0  0
  5 30  1  0  0  0  0
  5 31  1  0  0  0  0
  6  7  1  0  0  0  0
  6 32  1  0  0  0  0
  6 33  1  0  0  0  0
  7  8  1  0  0  0  0
  7 34  1  0  0  0  0
  7 35  1  0  0  0  0
  8  9  1  0  0  0  0
  8 36  1  0  0  0  0
  9 10  1  0  0  0  0
  9 37  1  0  0  0  0
  9 38  1  0  0  0  0
 10 11  1  0  0  0  0
 10 14  2  0  0  0  0
 11 12  2  0  0  0  0
 11 39  1  0  0  0  0
 12 13  1  0  0  0  0
 12 40  1  0  0  0  0
 13 15  2  0  0  0  0
 13 41  1  0  0  0  0
 14 15  1  0  0  0  0
 14 42  1  0  0  0  0
 15 16  1  0  0  0  0
 16 17  1  0  0  0  0
 17 18  1  0  0  0  0
 17 20  2  0  0  0  0
 18 19  2  0  0  0  0
 18 43  1  0  0  0  0
 19 22  1  0  0  0  0
 19 44  1  0  0  0  0
 20 21  1  0  0  0  0
 21 22  2  0  0  0  0
 21 45  1  0  0  0  0
 22 23  1  0  0  0  0
 23 24  1  0  0  0  0
 23 25  1  0  0  0  0
 23 26  1  0  0  0  0
 27 46  1  0  0  0  0
M  END
>  <DRUGBANK_ID>
DB08400

>  <COMMON_NAME>
4-(3-{[5-(trifluoromethyl)pyridin-2-yl]oxy}benzyl)piperidine-1-carboxylic acid

$$$$
