4825
 OpenBabel10282417072D

 52 54  0  0  1  0  0  0  0  0999 V2000
    3.0791    0.2063    0.0000 N   0  0  0  0  0  0  0  0  0  0  0  0
    4.5080   -1.4438    0.0000 C   0  0  0  0  0  0  0  0  0  0  0  0
    3.7935   -1.0313    0.0000 C   0  0  0  0  0  0  0  0  0  0  0  0
    3.7935   -0.2063    0.0000 C   0  0  0  0  0  0  0  0  0  0  0  0
    3.0791    1.0313    0.0000 C   0  0  3  0  0  0  0  0  0  0  0  0
    5.2224   -1.0313    0.0000 C   0  0  0  0  0  0  0  0  0  0  0  0
    4.5080   -2.2688    0.0000 C   0  0  0  0  0  0  0  0  0  0  0  0
    2.3645    1.4438    0.0000 C   0  0  0  0  0  0  0  0  0  0  0  0
    3.7935    1.4438    0.0000 C   0  0  0  0  0  0  0  0  0  0  0  0
    2.3645    2.2688    0.0000 C   0  0  0  0  0  0  0  0  0  0  0  0
    5.9370   -1.4438    0.0000 C   0  0  0  0  0  0  0  0  0  0  0  0
    5.2224   -2.6813    0.0000 C   0  0  0  0  0  0  0  0  0  0  0  0
    5.2224   -0.2063    0.0000 C   0  0  0  0  0  0  0  0  0  0  0  0
    3.7935   -2.6813    0.0000 C   0  0  0  0  0  0  0  0  0  0  0  0
    1.6500    2.6813    0.0000 C   0  0  0  0  0  0  0  0  0  0  0  0
    3.0791    2.6813    0.0000 C   0  0  0  0  0  0  0  0  0  0  0  0
    6.6515   -1.0313    0.0000 C   0  0  0  0  0  0  0  0  0  0  0  0
    5.2224   -3.5063    0.0000 C   0  0  0  0  0  0  0  0  0  0  0  0
    5.9370    0.2063    0.0000 C   0  0  0  0  0  0  0  0  0  0  0  0
    3.7935   -3.5063    0.0000 C   0  0  0  0  0  0  0  0  0  0  0  0
    6.6515   -0.2063    0.0000 C   0  0  0  0  0  0  0  0  0  0  0  0
    4.5080   -3.9188    0.0000 C   0  0  0  0  0  0  0  0  0  0  0  0
    1.6500    3.5063    0.0000 C   0  0  0  0  0  0  0  0  0  0  0  0
    3.0791    3.5063    0.0000 C   0  0  0  0  0  0  0  0  0  0  0  0
    2.3645    3.9188    0.0000 C   0  0  0  0  0  0  0  0  0  0  0  0
    2.1957   -0.3036    0.0000 H   0  0  0  0  0  0  0  0  0  0  0  0
    5.4347   -1.9788    0.0000 H   0  0  0  0  0  0  0  0  0  0  0  0
    2.8669   -1.5663    0.0000 H   0  0  0  0  0  0  0  0  0  0  0  0
    2.8669   -0.4963    0.0000 H   0  0  0  0  0  0  0  0  0  0  0  0
    4.7202    0.3286    0.0000 H   0  0  0  0  0  0  0  0  0  0  0  0
    4.7201   -0.7413    0.0000 H   0  0  0  0  0  0  0  0  0  0  0  0
    2.1525    0.4963    0.0000 H   0  0  0  0  0  0  0  0  0  0  0  0
    1.4379    0.9088    0.0000 H   0  0  0  0  0  0  0  0  0  0  0  0
    1.4378    1.9788    0.0000 H   0  0  0  0  0  0  0  0  0  0  0  0
    4.7202    0.9088    0.0000 H   0  0  0  0  0  0  0  0  0  0  0  0
    3.7935    2.5138    0.0000 H   0  0  0  0  0  0  0  0  0  0  0  0
    4.7201    1.9788    0.0000 H   0  0  0  0  0  0  0  0  0  0  0  0
    5.9370   -2.4758    0.0000 H   0  0  0  0  0  0  0  0  0  0  0  0
    6.1161   -2.1653    0.0000 H   0  0  0  0  0  0  0  0  0  0  0  0
    4.3287    0.3097    0.0000 H   0  0  0  0  0  0  0  0  0  0  0  0
    2.8998   -2.1653    0.0000 H   0  0  0  0  0  0  0  0  0  0  0  0
    0.7563    2.1653    0.0000 H   0  0  0  0  0  0  0  0  0  0  0  0
    3.9728    2.1653    0.0000 H   0  0  0  0  0  0  0  0  0  0  0  0
    7.5452   -1.5473    0.0000 H   0  0  0  0  0  0  0  0  0  0  0  0
    6.1161   -4.0223    0.0000 H   0  0  0  0  0  0  0  0  0  0  0  0
    5.9370    1.2383    0.0000 H   0  0  0  0  0  0  0  0  0  0  0  0
    2.8998   -4.0223    0.0000 H   0  0  0  0  0  0  0  0  0  0  0  0
    7.5453    0.3097    0.0000 H   0  0  0  0  0  0  0  0  0  0  0  0
    4.5080   -4.9508    0.0000 H   0  0  0  0  0  0  0  0  0  0  0  0
    0.7563    4.0223    0.0000 H   0  0  0  0  0  0  0  0  0  0  0  0
    3.9728    4.0223    0.0000 H   0  0  0  0  0  0  0  0  0  0  0  0
    2.3645    4.9508    0.0000 H   0  0  0  0  0  0  0  0  0  0  0  0
  1  4  1  0  0  0  0
  1  5  1  0  0  0  0
  1 26  1  0  0  0  0
  2  3  1  0  0  0  0
  2  6  1  0  0  0  0
  2  7  1  0  0  0  0
  2 27  1  0  0  0  0
  3  4  1  0  0  0  0
  3 28  1  0  0  0  0
  3 29  1  0  0  0  0
  4 30  1  0  0  0  0
  4 31  1  0  0  0  0
  5  8  1  0  0  0  0
  5  9  1  0  0  0  0
  5 32  1  0  0  0  0
  6 11  2  0  0  0  0
  6 13  1  0  0  0  0
  7 12  2  0  0  0  0
  7 14  1  0  0  0  0
  8 10  1  0  0  0  0
  8 33  1  0  0  0  0
  8 34  1  0  0  0  0
  9 35  1  0  0  0  0
  9 36  1  0  0  0  0
  9 37  1  0  0  0  0
 10 15  2  0  0  0  0
 10 16  1  0  0  0  0
 11 17  1  0  0  0  0
 11 38  1  0  0  0  0
 12 18  1  0  0  0  0
 12 39  1  0  0  0  0
 13 19  2  0  0  0  0
 13 40  1  0  0  0  0
 14 20  2  0  0  0  0
 14 41  1  0  0  0  0
 15 23  1  0  0  0  0
 15 42  1  0  0  0  0
 16 24  2  0  0  0  0
 16 43  1  0  0  0  0
 17 21  2  0  0  0  0
 17 44  1  0  0  0  0
 18 22  2  0  0  0  0
 18 45  1  0  0  0  0
 19 21  1  0  0  0  0
 19 46  1  0  0  0  0
 20 22  1  0  0  0  0
 20 47  1  0  0  0  0
 21 48  1  0  0  0  0
 22 49  1  0  0  0  0
 23 25  2  0  0  0  0
 23 50  1  0  0  0  0
 24 25  1  0  0  0  0
 24 51  1  0  0  0  0
 25 52  1  0  0  0  0
M  END
>  <DRUGBANK_ID>
DB04825

>  <COMMON_NAME>
Prenylamine

>  <CAS_NUMBER>
390-64-7

>  <UNII>
K2OH82Z000

>  <SYNONYMS>
1-Phenyl-2-(1',1'-diphenylpropyl-3'-amino)propane; DL-prenylamine; N-(1-Methyl-2-phenylethyl)-gamma-phenylbenzenepropanamine; N-(3,3-Diphenylpropyl)-alpha-methylphenaethylamin; N-(3,3-Diphenylpropyl)-alpha-methylphenethylamine; Prenilamina; Prenylamine; Prenylaminum

$$$$
