
 OpenBabel10282417072D

 40 39  0  0  0  0  0  0  0  0999 V2000
   -1.7799    2.2964    0.0000 Cr  0  1  0  0  0  0  0  0  0  0  0  0
    0.3455    3.7159    0.0000 O   0  5  0  0  0  0  0  0  0  0  0  0
    1.0590    3.2998    0.0000 C   0  0  0  0  0  0  0  0  0  0  0  0
    1.7724    3.7159    0.0000 O   0  0  0  0  0  0  0  0  0  0  0  0
    1.0590    2.4748    0.0000 C   0  0  0  0  0  0  0  0  0  0  0  0
    1.7724    2.0661    0.0000 N   0  0  0  0  0  0  0  0  0  0  0  0
    1.7724    1.2411    0.0000 C   0  0  0  0  0  0  0  0  0  0  0  0
    1.0590    0.8249    0.0000 C   0  0  0  0  0  0  0  0  0  0  0  0
    0.3455    1.2411    0.0000 C   0  0  0  0  0  0  0  0  0  0  0  0
    0.3455    2.0661    0.0000 C   0  0  0  0  0  0  0  0  0  0  0  0
   -2.4934   -0.8249    0.0000 O   0  5  0  0  0  0  0  0  0  0  0  0
   -1.7799   -1.2411    0.0000 C   0  0  0  0  0  0  0  0  0  0  0  0
   -1.0665   -0.8249    0.0000 O   0  0  0  0  0  0  0  0  0  0  0  0
   -1.7799   -2.0660    0.0000 C   0  0  0  0  0  0  0  0  0  0  0  0
   -1.0665   -2.4748    0.0000 N   0  0  0  0  0  0  0  0  0  0  0  0
   -1.0665   -3.2997    0.0000 C   0  0  0  0  0  0  0  0  0  0  0  0
   -1.7799   -3.7159    0.0000 C   0  0  0  0  0  0  0  0  0  0  0  0
   -2.4934   -3.2997    0.0000 C   0  0  0  0  0  0  0  0  0  0  0  0
   -2.4934   -2.4748    0.0000 C   0  0  0  0  0  0  0  0  0  0  0  0
    1.0590   -0.8249    0.0000 O   0  5  0  0  0  0  0  0  0  0  0  0
    1.7724   -1.2411    0.0000 C   0  0  0  0  0  0  0  0  0  0  0  0
    2.4934   -0.8249    0.0000 O   0  0  0  0  0  0  0  0  0  0  0  0
    1.7724   -2.0660    0.0000 C   0  0  0  0  0  0  0  0  0  0  0  0
    2.4934   -2.4748    0.0000 N   0  0  0  0  0  0  0  0  0  0  0  0
    2.4934   -3.2997    0.0000 C   0  0  0  0  0  0  0  0  0  0  0  0
    1.7724   -3.7159    0.0000 C   0  0  0  0  0  0  0  0  0  0  0  0
    1.0590   -3.2997    0.0000 C   0  0  0  0  0  0  0  0  0  0  0  0
    1.0590   -2.4748    0.0000 C   0  0  0  0  0  0  0  0  0  0  0  0
    2.6673    0.7271    0.0000 H   0  0  0  0  0  0  0  0  0  0  0  0
    1.0590   -0.2071    0.0000 H   0  0  0  0  0  0  0  0  0  0  0  0
   -0.5494    0.7271    0.0000 H   0  0  0  0  0  0  0  0  0  0  0  0
   -0.5474    2.5836    0.0000 H   0  0  0  0  0  0  0  0  0  0  0  0
   -0.1716   -3.8137    0.0000 H   0  0  0  0  0  0  0  0  0  0  0  0
   -1.7799   -4.7479    0.0000 H   0  0  0  0  0  0  0  0  0  0  0  0
   -3.3883   -3.8137    0.0000 H   0  0  0  0  0  0  0  0  0  0  0  0
   -3.3863   -1.9573    0.0000 H   0  0  0  0  0  0  0  0  0  0  0  0
    3.3871   -3.8157    0.0000 H   0  0  0  0  0  0  0  0  0  0  0  0
    1.7700   -4.7479    0.0000 H   0  0  0  0  0  0  0  0  0  0  0  0
    0.1641   -3.8137    0.0000 H   0  0  0  0  0  0  0  0  0  0  0  0
    0.1661   -1.9574    0.0000 H   0  0  0  0  0  0  0  0  0  0  0  0
  2  3  1  0  0  0  0
  3  4  2  0  0  0  0
  3  5  1  0  0  0  0
  5  6  2  0  0  0  0
  5 10  1  0  0  0  0
  6  7  1  0  0  0  0
  7  8  2  0  0  0  0
  7 29  1  0  0  0  0
  8  9  1  0  0  0  0
  8 30  1  0  0  0  0
  9 10  2  0  0  0  0
  9 31  1  0  0  0  0
 10 32  1  0  0  0  0
 11 12  1  0  0  0  0
 12 13  2  0  0  0  0
 12 14  1  0  0  0  0
 14 15  2  0  0  0  0
 14 19  1  0  0  0  0
 15 16  1  0  0  0  0
 16 17  2  0  0  0  0
 16 33  1  0  0  0  0
 17 18  1  0  0  0  0
 17 34  1  0  0  0  0
 18 19  2  0  0  0  0
 18 35  1  0  0  0  0
 19 36  1  0  0  0  0
 20 21  1  0  0  0  0
 21 22  2  0  0  0  0
 21 23  1  0  0  0  0
 23 24  2  0  0  0  0
 23 28  1  0  0  0  0
 24 25  1  0  0  0  0
 25 26  2  0  0  0  0
 25 37  1  0  0  0  0
 26 27  1  0  0  0  0
 26 38  1  0  0  0  0
 27 28  2  0  0  0  0
 27 39  1  0  0  0  0
 28 40  1  0  0  0  0
M  CHG  4   1   3   2  -1  11  -1  20  -1
M  END
>  <DRUGBANK_ID>
DB11255

>  <COMMON_NAME>
Chromium picolinate

>  <CAS_NUMBER>
14639-25-9

>  <UNII>
S71T8B8Z6P

>  <SYNONYMS>
Chromium(III) picolinate

$$$$
