
 OpenBabel10282417072D

 43 44  0  0  0  0  0  0  0  0999 V2000
    0.1105    5.1414    0.0000 C   0  0  0  0  0  0  0  0  0  0  0  0
    3.4105    2.8875    0.0000 C   0  0  0  0  0  0  0  0  0  0  0  0
    2.1730    2.1730    0.0000 C   0  0  0  0  0  0  0  0  0  0  0  0
    0.1105    1.8414    0.0000 C   0  0  0  0  0  0  0  0  0  0  0  0
    0.8250    2.2538    0.0000 C   0  0  0  0  0  0  0  0  0  0  0  0
   -0.6039    2.2538    0.0000 C   0  0  0  0  0  0  0  0  0  0  0  0
    0.8250    3.0789    0.0000 C   0  0  0  0  0  0  0  0  0  0  0  0
   -0.6039    3.0789    0.0000 C   0  0  0  0  0  0  0  0  0  0  0  0
   -1.1269    5.0309    0.0000 C   0  0  0  0  0  0  0  0  0  0  0  0
   -1.1269    3.6019    0.0000 C   0  0  0  0  0  0  0  0  0  0  0  0
   -1.9519    5.0309    0.0000 C   0  0  0  0  0  0  0  0  0  0  0  0
   -1.9519    3.6019    0.0000 C   0  0  0  0  0  0  0  0  0  0  0  0
    2.1730    3.6019    0.0000 C   0  0  0  0  0  0  0  0  0  0  0  0
    1.3480    3.6019    0.0000 C   0  0  0  0  0  0  0  0  0  0  0  0
    0.1105    3.4914    0.0000 C   0  0  0  0  0  0  0  0  0  0  0  0
   -0.7144    4.3164    0.0000 C   0  0  0  0  0  0  0  0  0  0  0  0
   -2.3644    4.3164    0.0000 C   0  0  0  0  0  0  0  0  0  0  0  0
    0.1105    4.3164    0.0000 C   0  0  3  0  0  0  0  0  0  0  0  0
   -3.1894    4.3164    0.0000 Cl  0  0  0  0  0  0  0  0  0  0  0  0
    2.5855    2.8875    0.0000 N   0  0  0  0  0  0  0  0  0  0  0  0
    0.9355    4.3164    0.0000 O   0  0  0  0  0  0  0  0  0  0  0  0
    1.0371    5.6764    0.0000 H   0  0  0  0  0  0  0  0  0  0  0  0
   -0.8161    5.6764    0.0000 H   0  0  0  0  0  0  0  0  0  0  0  0
    0.1105    6.2114    0.0000 H   0  0  0  0  0  0  0  0  0  0  0  0
    3.9455    1.9609    0.0000 H   0  0  0  0  0  0  0  0  0  0  0  0
    3.9455    3.8141    0.0000 H   0  0  0  0  0  0  0  0  0  0  0  0
    4.4805    2.8875    0.0000 H   0  0  0  0  0  0  0  0  0  0  0  0
    1.1030    2.1730    0.0000 H   0  0  0  0  0  0  0  0  0  0  0  0
    2.7080    1.2464    0.0000 H   0  0  0  0  0  0  0  0  0  0  0  0
    1.6380    1.2463    0.0000 H   0  0  0  0  0  0  0  0  0  0  0  0
    0.1105    0.8094    0.0000 H   0  0  0  0  0  0  0  0  0  0  0  0
    1.7187    1.7377    0.0000 H   0  0  0  0  0  0  0  0  0  0  0  0
   -1.4976    1.7378    0.0000 H   0  0  0  0  0  0  0  0  0  0  0  0
    1.7187    3.5949    0.0000 H   0  0  0  0  0  0  0  0  0  0  0  0
   -1.4976    3.5949    0.0000 H   0  0  0  0  0  0  0  0  0  0  0  0
   -0.6109    5.9246    0.0000 H   0  0  0  0  0  0  0  0  0  0  0  0
   -0.6109    2.7082    0.0000 H   0  0  0  0  0  0  0  0  0  0  0  0
   -2.4679    5.9246    0.0000 H   0  0  0  0  0  0  0  0  0  0  0  0
   -2.4679    2.7082    0.0000 H   0  0  0  0  0  0  0  0  0  0  0  0
    2.7080    4.5286    0.0000 H   0  0  0  0  0  0  0  0  0  0  0  0
    3.2430    3.6019    0.0000 H   0  0  0  0  0  0  0  0  0  0  0  0
    0.8130    2.6753    0.0000 H   0  0  0  0  0  0  0  0  0  0  0  0
    0.2780    3.6019    0.0000 H   0  0  0  0  0  0  0  0  0  0  0  0
  1 22  1  0  0  0  0
  1 23  1  0  0  0  0
  1 24  1  0  0  0  0
  2 25  1  0  0  0  0
  2 26  1  0  0  0  0
  2 27  1  0  0  0  0
  3 28  1  0  0  0  0
  3 29  1  0  0  0  0
  3 30  1  0  0  0  0
  4 31  1  0  0  0  0
  5  4  2  0  0  0  0
  5 32  1  0  0  0  0
  6  4  1  0  0  0  0
  6 33  1  0  0  0  0
  7  5  1  0  0  0  0
  7 34  1  0  0  0  0
  8  6  2  0  0  0  0
  8 35  1  0  0  0  0
  9 36  1  0  0  0  0
 10 37  1  0  0  0  0
 11  9  1  0  0  0  0
 11 38  1  0  0  0  0
 12 10  2  0  0  0  0
 12 39  1  0  0  0  0
 13 40  1  0  0  0  0
 13 41  1  0  0  0  0
 14 13  1  0  0  0  0
 14 42  1  0  0  0  0
 14 43  1  0  0  0  0
 15  7  2  0  0  0  0
 15  8  1  0  0  0  0
 16  9  2  0  0  0  0
 16 10  1  0  0  0  0
 17 11  2  0  0  0  0
 17 12  1  0  0  0  0
 18  1  1  0  0  0  0
 18 15  1  0  0  0  0
 18 16  1  0  0  0  0
 19 17  1  0  0  0  0
 20  2  1  0  0  0  0
 20  3  1  0  0  0  0
 20 13  1  0  0  0  0
 21 14  1  0  0  0  0
 21 18  1  0  0  0  0
M  END
>  <DRUGBANK_ID>
DB09007

>  <COMMON_NAME>
Chlorphenoxamine

>  <CAS_NUMBER>
77-38-3

>  <UNII>
3UVD77BP8R

>  <SYNONYMS>
Chlorphenoxamine

$$$$
