
 OpenBabel10282417072D

 52 56  0  0  1  0  0  0  0  0999 V2000
    0.5343   -0.4663    0.0000 C   0  0  0  0  0  0  0  0  0  0  0  0
    1.8923   -2.5355    0.0000 C   0  0  0  0  0  0  0  0  0  0  0  0
    0.0817    0.2234    0.0000 C   0  0  0  0  0  0  0  0  0  0  0  0
    2.2633   -1.7987    0.0000 C   0  0  0  0  0  0  0  0  0  0  0  0
    4.3623    2.0281    0.0000 C   0  0  0  0  0  0  0  0  0  0  0  0
    4.3231    1.2040    0.0000 C   0  0  0  0  0  0  0  0  0  0  0  0
   -0.8237    1.6029    0.0000 C   0  0  0  0  0  0  0  0  0  0  0  0
    3.6683    2.4741    0.0000 C   0  0  0  0  0  0  0  0  0  0  0  0
    3.5899    0.8259    0.0000 C   0  0  0  0  0  0  0  0  0  0  0  0
    1.5656    3.1709    0.0000 C   0  0  0  0  0  0  0  0  0  0  0  0
   -0.3710    0.9131    0.0000 C   0  0  0  0  0  0  0  0  0  0  0  0
   -0.4527    2.3397    0.0000 C   0  0  0  0  0  0  0  0  0  0  0  0
    0.7420    3.1238    0.0000 C   0  0  0  0  0  0  0  0  0  0  0  0
    0.9053    0.2705    0.0000 C   0  0  0  0  0  0  0  0  0  0  0  0
    2.9350    2.0960    0.0000 C   0  0  0  0  0  0  0  0  0  0  0  0
    2.0183    2.4812    0.0000 C   0  0  0  0  0  0  0  0  0  0  0  0
    2.8958    1.2719    0.0000 C   0  0  0  0  0  0  0  0  0  0  0  0
    1.7290    0.3177    0.0000 C   0  0  0  0  0  0  0  0  0  0  0  0
    1.6473    1.7443    0.0000 C   0  0  0  0  0  0  0  0  0  0  0  0
    0.8237    1.6971    0.0000 C   0  0  2  0  0  0  0  0  0  0  0  0
    2.1816   -0.3720    0.0000 C   0  0  0  0  0  0  0  0  0  0  0  0
    0.4527    0.9603    0.0000 C   0  0  2  0  0  0  0  0  0  0  0  0
    0.3710    2.3869    0.0000 N   0  0  3  0  0  0  0  0  0  0  0  0
    2.1000    1.0546    0.0000 N   0  0  0  0  0  0  0  0  0  0  0  0
    3.0053   -0.3249    0.0000 O   0  0  0  0  0  0  0  0  0  0  0  0
    1.8106   -1.1089    0.0000 O   0  0  0  0  0  0  0  0  0  0  0  0
    1.2763    1.0074    0.0000 H   0  0  0  0  0  0  0  0  0  0  0  0
    0.0531   -1.4220    0.0000 H   0  0  0  0  0  0  0  0  0  0  0  0
    1.6026   -0.4052    0.0000 H   0  0  0  0  0  0  0  0  0  0  0  0
    1.1213   -1.3609    0.0000 H   0  0  0  0  0  0  0  0  0  0  0  0
    0.8240   -2.5966    0.0000 H   0  0  0  0  0  0  0  0  0  0  0  0
    2.4793   -3.4301    0.0000 H   0  0  0  0  0  0  0  0  0  0  0  0
    1.4111   -3.4912    0.0000 H   0  0  0  0  0  0  0  0  0  0  0  0
   -0.9866    0.1623    0.0000 H   0  0  0  0  0  0  0  0  0  0  0  0
   -0.5054    1.1180    0.0000 H   0  0  0  0  0  0  0  0  0  0  0  0
    3.3316   -1.7376    0.0000 H   0  0  0  0  0  0  0  0  0  0  0  0
    2.7445   -0.8430    0.0000 H   0  0  0  0  0  0  0  0  0  0  0  0
    5.2796    2.5010    0.0000 H   0  0  0  0  0  0  0  0  0  0  0  0
    5.1913    0.6461    0.0000 H   0  0  0  0  0  0  0  0  0  0  0  0
   -1.8920    1.5418    0.0000 H   0  0  0  0  0  0  0  0  0  0  0  0
   -1.4107    2.4975    0.0000 H   0  0  0  0  0  0  0  0  0  0  0  0
    3.7174    3.5049    0.0000 H   0  0  0  0  0  0  0  0  0  0  0  0
    3.5409   -0.2049    0.0000 H   0  0  0  0  0  0  0  0  0  0  0  0
    2.0468    4.1266    0.0000 H   0  0  0  0  0  0  0  0  0  0  0  0
    2.6338    3.2321    0.0000 H   0  0  0  0  0  0  0  0  0  0  0  0
   -0.8521   -0.0426    0.0000 H   0  0  0  0  0  0  0  0  0  0  0  0
    0.2161    0.0186    0.0000 H   0  0  0  0  0  0  0  0  0  0  0  0
   -1.0398    3.2343    0.0000 H   0  0  0  0  0  0  0  0  0  0  0  0
    0.0284    3.2954    0.0000 H   0  0  0  0  0  0  0  0  0  0  0  0
    0.1549    4.0184    0.0000 H   0  0  0  0  0  0  0  0  0  0  0  0
   -0.3263    3.0627    0.0000 H   0  0  0  0  0  0  0  0  0  0  0  0
    0.4412   -0.6513    0.0000 H   0  0  0  0  0  0  0  0  0  0  0  0
  1 28  1  0  0  0  0
  1 29  1  0  0  0  0
  1 30  1  0  0  0  0
  2 31  1  0  0  0  0
  2 32  1  0  0  0  0
  2 33  1  0  0  0  0
  3  1  1  0  0  0  0
  3 34  1  0  0  0  0
  3 35  1  0  0  0  0
  4  2  1  0  0  0  0
  4 36  1  0  0  0  0
  4 37  1  0  0  0  0
  5 38  1  0  0  0  0
  6  5  2  0  0  0  0
  6 39  1  0  0  0  0
  7 40  1  0  0  0  0
  7 41  1  0  0  0  0
  8  5  1  0  0  0  0
  8 42  1  0  0  0  0
  9  6  1  0  0  0  0
  9 43  1  0  0  0  0
 10 44  1  0  0  0  0
 10 45  1  0  0  0  0
 11  7  1  0  0  0  0
 11 46  1  0  0  0  0
 11 47  1  0  0  0  0
 12  7  1  0  0  0  0
 12 48  1  0  0  0  0
 12 49  1  0  0  0  0
 13 10  1  0  0  0  0
 13 50  1  0  0  0  0
 13 51  1  0  0  0  0
 14 52  1  0  0  0  0
 15  8  2  0  0  0  0
 16 10  1  0  0  0  0
 16 15  1  0  0  0  0
 17  9  2  0  0  0  0
 17 15  1  0  0  0  0
 18 14  2  0  0  0  0
 19 16  2  0  0  0  0
 20 19  1  0  0  0  0
 20 27  1  1  0  0  0
 21 18  1  0  0  0  0
 22  3  1  1  0  0  0
 22 11  1  0  0  0  0
 22 14  1  0  0  0  0
 22 20  1  0  0  0  0
 23 12  1  0  0  0  0
 23 13  1  0  0  0  0
 23 20  1  0  0  0  0
 24 17  1  0  0  0  0
 24 18  1  0  0  0  0
 24 19  1  0  0  0  0
 25 21  2  0  0  0  0
 26  4  1  0  0  0  0
 26 21  1  0  0  0  0
M  END
>  <DRUGBANK_ID>
DB12131

>  <COMMON_NAME>
Vinpocetine

>  <CAS_NUMBER>
42971-09-5

>  <UNII>
543512OBTC

>  <SYNONYMS>
CERACTIN; ETHYL APOVINCAMIN-22-OATE; Vinpocetina; Vinpocetine

$$$$
