
 OpenBabel10282417072D

 68 69  0  0  1  0  0  0  0  0999 V2000
   -0.7145   -2.2836    0.0000 C   0  0  0  0  0  0  0  0  0  0  0  0
   -0.3020   -2.9980    0.0000 C   0  0  0  0  0  0  0  0  0  0  0  0
    0.5230   -2.9980    0.0000 C   0  0  0  0  0  0  0  0  0  0  0  0
   -0.7145   -3.7125    0.0000 C   0  0  1  0  0  0  0  0  0  0  0  0
    0.0000   -4.1250    0.0000 C   0  0  0  0  0  0  0  0  0  0  0  0
    0.7145   -3.7125    0.0000 C   0  0  0  0  0  0  0  0  0  0  0  0
    1.4289   -4.1250    0.0000 C   0  0  0  0  0  0  0  0  0  0  0  0
    2.1434   -3.7125    0.0000 N   0  0  0  0  0  0  0  0  0  0  0  0
    2.8579   -4.1250    0.0000 C   0  0  0  0  0  0  0  0  0  0  0  0
    3.5724   -3.7125    0.0000 C   0  0  0  0  0  0  0  0  0  0  0  0
    4.2868   -4.1250    0.0000 C   0  0  0  0  0  0  0  0  0  0  0  0
    5.0013   -3.7125    0.0000 C   0  0  0  0  0  0  0  0  0  0  0  0
    5.7158   -4.1250    0.0000 C   0  0  0  0  0  0  0  0  0  0  0  0
    5.7158   -4.9500    0.0000 C   0  0  0  0  0  0  0  0  0  0  0  0
    5.0013   -5.3625    0.0000 C   0  0  0  0  0  0  0  0  0  0  0  0
    4.2868   -4.9500    0.0000 C   0  0  0  0  0  0  0  0  0  0  0  0
    5.0013   -6.1875    0.0000 O   0  0  0  0  0  0  0  0  0  0  0  0
    4.2868   -6.6000    0.0000 C   0  0  0  0  0  0  0  0  0  0  0  0
    6.4302   -5.3625    0.0000 O   0  0  0  0  0  0  0  0  0  0  0  0
    6.4302   -6.1875    0.0000 C   0  0  0  0  0  0  0  0  0  0  0  0
   -1.1270   -4.4270    0.0000 C   0  0  0  0  0  0  0  0  0  0  0  0
   -1.5395   -5.1414    0.0000 N   0  0  0  0  0  0  0  0  0  0  0  0
   -1.4289   -3.3000    0.0000 C   0  0  0  0  0  0  0  0  0  0  0  0
   -2.1434   -3.7125    0.0000 C   0  0  0  0  0  0  0  0  0  0  0  0
   -2.8579   -3.3000    0.0000 C   0  0  0  0  0  0  0  0  0  0  0  0
   -2.8579   -2.4750    0.0000 C   0  0  0  0  0  0  0  0  0  0  0  0
   -2.1434   -2.0625    0.0000 C   0  0  0  0  0  0  0  0  0  0  0  0
   -1.4289   -2.4750    0.0000 C   0  0  0  0  0  0  0  0  0  0  0  0
   -2.1434   -1.2375    0.0000 O   0  0  0  0  0  0  0  0  0  0  0  0
   -1.4289   -0.8250    0.0000 C   0  0  0  0  0  0  0  0  0  0  0  0
   -3.5724   -2.0625    0.0000 O   0  0  0  0  0  0  0  0  0  0  0  0
   -4.2868   -2.4750    0.0000 C   0  0  0  0  0  0  0  0  0  0  0  0
   -0.1795   -1.3569    0.0000 H   0  0  0  0  0  0  0  0  0  0  0  0
   -1.7845   -2.2836    0.0000 H   0  0  0  0  0  0  0  0  0  0  0  0
   -1.2495   -1.3570    0.0000 H   0  0  0  0  0  0  0  0  0  0  0  0
    0.2330   -3.9246    0.0000 H   0  0  0  0  0  0  0  0  0  0  0  0
    1.0580   -3.9246    0.0000 H   0  0  0  0  0  0  0  0  0  0  0  0
    1.0580   -2.0714    0.0000 H   0  0  0  0  0  0  0  0  0  0  0  0
    1.5930   -2.9980    0.0000 H   0  0  0  0  0  0  0  0  0  0  0  0
    0.0000   -5.1950    0.0000 H   0  0  0  0  0  0  0  0  0  0  0  0
    0.9266   -4.6600    0.0000 H   0  0  0  0  0  0  0  0  0  0  0  0
    0.7145   -2.6425    0.0000 H   0  0  0  0  0  0  0  0  0  0  0  0
    1.6412   -3.1775    0.0000 H   0  0  0  0  0  0  0  0  0  0  0  0
    1.4289   -5.1950    0.0000 H   0  0  0  0  0  0  0  0  0  0  0  0
    2.3555   -4.6600    0.0000 H   0  0  0  0  0  0  0  0  0  0  0  0
    2.1434   -2.6925    0.0000 H   0  0  0  0  0  0  0  0  0  0  0  0
    2.8579   -5.1950    0.0000 H   0  0  0  0  0  0  0  0  0  0  0  0
    3.7845   -4.6600    0.0000 H   0  0  0  0  0  0  0  0  0  0  0  0
    3.5724   -2.6425    0.0000 H   0  0  0  0  0  0  0  0  0  0  0  0
    4.4991   -3.1775    0.0000 H   0  0  0  0  0  0  0  0  0  0  0  0
    5.0013   -2.6805    0.0000 H   0  0  0  0  0  0  0  0  0  0  0  0
    6.6095   -3.6090    0.0000 H   0  0  0  0  0  0  0  0  0  0  0  0
    3.3931   -5.4660    0.0000 H   0  0  0  0  0  0  0  0  0  0  0  0
    3.3602   -6.0650    0.0000 H   0  0  0  0  0  0  0  0  0  0  0  0
    4.2868   -7.6700    0.0000 H   0  0  0  0  0  0  0  0  0  0  0  0
    3.3601   -7.1350    0.0000 H   0  0  0  0  0  0  0  0  0  0  0  0
    5.5036   -6.7225    0.0000 H   0  0  0  0  0  0  0  0  0  0  0  0
    7.3568   -6.7225    0.0000 H   0  0  0  0  0  0  0  0  0  0  0  0
    6.4302   -7.2575    0.0000 H   0  0  0  0  0  0  0  0  0  0  0  0
   -2.1434   -4.7445    0.0000 H   0  0  0  0  0  0  0  0  0  0  0  0
   -3.7516   -3.8160    0.0000 H   0  0  0  0  0  0  0  0  0  0  0  0
   -0.5352   -1.9590    0.0000 H   0  0  0  0  0  0  0  0  0  0  0  0
   -0.5023   -1.3600    0.0000 H   0  0  0  0  0  0  0  0  0  0  0  0
   -1.4289    0.2450    0.0000 H   0  0  0  0  0  0  0  0  0  0  0  0
   -0.5022   -0.2900    0.0000 H   0  0  0  0  0  0  0  0  0  0  0  0
   -5.2135   -1.9400    0.0000 H   0  0  0  0  0  0  0  0  0  0  0  0
   -4.2868   -3.5450    0.0000 H   0  0  0  0  0  0  0  0  0  0  0  0
   -5.2134   -3.0100    0.0000 H   0  0  0  0  0  0  0  0  0  0  0  0
  1  2  1  0  0  0  0
  1 33  1  0  0  0  0
  1 34  1  0  0  0  0
  1 35  1  0  0  0  0
  2  3  1  0  0  0  0
  2  4  1  0  0  0  0
  2 36  1  0  0  0  0
  3 37  1  0  0  0  0
  3 38  1  0  0  0  0
  3 39  1  0  0  0  0
  4  5  1  0  0  0  0
  4 21  1  1  0  0  0
  4 23  1  0  0  0  0
  5  6  1  0  0  0  0
  5 40  1  0  0  0  0
  5 41  1  0  0  0  0
  6  7  1  0  0  0  0
  6 42  1  0  0  0  0
  6 43  1  0  0  0  0
  7  8  1  0  0  0  0
  7 44  1  0  0  0  0
  7 45  1  0  0  0  0
  8  9  1  0  0  0  0
  8 46  1  0  0  0  0
  9 10  1  0  0  0  0
  9 47  1  0  0  0  0
  9 48  1  0  0  0  0
 10 11  1  0  0  0  0
 10 49  1  0  0  0  0
 10 50  1  0  0  0  0
 11 12  2  0  0  0  0
 11 16  1  0  0  0  0
 12 13  1  0  0  0  0
 12 51  1  0  0  0  0
 13 14  2  0  0  0  0
 13 52  1  0  0  0  0
 14 15  1  0  0  0  0
 14 19  1  0  0  0  0
 15 16  2  0  0  0  0
 15 17  1  0  0  0  0
 16 53  1  0  0  0  0
 17 18  1  0  0  0  0
 18 54  1  0  0  0  0
 18 55  1  0  0  0  0
 18 56  1  0  0  0  0
 19 20  1  0  0  0  0
 20 57  1  0  0  0  0
 20 58  1  0  0  0  0
 20 59  1  0  0  0  0
 21 22  3  0  0  0  0
 23 24  2  0  0  0  0
 23 28  1  0  0  0  0
 24 25  1  0  0  0  0
 24 60  1  0  0  0  0
 25 26  2  0  0  0  0
 25 61  1  0  0  0  0
 26 27  1  0  0  0  0
 26 31  1  0  0  0  0
 27 28  2  0  0  0  0
 27 29  1  0  0  0  0
 28 62  1  0  0  0  0
 29 30  1  0  0  0  0
 30 63  1  0  0  0  0
 30 64  1  0  0  0  0
 30 65  1  0  0  0  0
 31 32  1  0  0  0  0
 32 66  1  0  0  0  0
 32 67  1  0  0  0  0
 32 68  1  0  0  0  0
M  END
>  <DRUGBANK_ID>
DB06669

>  <COMMON_NAME>
Arverapamil

>  <CAS_NUMBER>
123932-43-4

>  <UNII>
3J8P56R04P

>  <SYNONYMS>
(R)-norverapamil

$$$$
