
 OpenBabel10282417072D

 62 64  0  0  1  0  0  0  0  0999 V2000
    3.4916   -4.8337    0.0000 C   0  0  0  0  0  0  0  0  0  0  0  0
    2.9396   -4.2206    0.0000 C   0  0  0  0  0  0  0  0  0  0  0  0
    3.1945   -3.4360    0.0000 C   0  0  0  0  0  0  0  0  0  0  0  0
    2.6425   -2.8229    0.0000 C   0  0  2  0  0  0  0  0  0  0  0  0
    1.8355   -2.9944    0.0000 C   0  0  0  0  0  0  0  0  0  0  0  0
    2.8974   -2.0383    0.0000 O   0  0  0  0  0  0  0  0  0  0  0  0
    2.3454   -1.4252    0.0000 C   0  0  0  0  0  0  0  0  0  0  0  0
    1.5384   -1.5967    0.0000 N   0  0  0  0  0  0  0  0  0  0  0  0
    0.9864   -0.9836    0.0000 C   0  0  0  0  0  0  0  0  0  0  0  0
    0.1794   -1.1552    0.0000 N   0  0  0  0  0  0  0  0  0  0  0  0
    1.2413   -0.1990    0.0000 C   0  0  0  0  0  0  0  0  0  0  0  0
    0.8288    0.5155    0.0000 N   0  0  0  0  0  0  0  0  0  0  0  0
    1.3809    1.1286    0.0000 C   0  0  0  0  0  0  0  0  0  0  0  0
    1.2093    1.9355    0.0000 O   0  0  0  0  0  0  0  0  0  0  0  0
    2.1345    0.7930    0.0000 N   0  0  0  0  0  0  0  0  0  0  0  0
    2.8490    1.2055    0.0000 C   0  0  0  0  0  0  0  0  0  0  0  0
    3.5635    0.7930    0.0000 C   0  0  0  0  0  0  0  0  0  0  0  0
    4.2780    1.2055    0.0000 C   0  0  0  0  0  0  0  0  0  0  0  0
    4.9924    0.7930    0.0000 C   0  0  0  0  0  0  0  0  0  0  0  0
    5.7069    1.2055    0.0000 C   0  0  0  0  0  0  0  0  0  0  0  0
    6.4214    0.7930    0.0000 N   0  0  0  0  0  0  0  0  0  0  0  0
    7.1358    1.2055    0.0000 C   0  0  0  0  0  0  0  0  0  0  0  0
    7.8503    0.7930    0.0000 C   0  0  0  0  0  0  0  0  0  0  0  0
    7.8503   -0.0320    0.0000 C   0  0  0  0  0  0  0  0  0  0  0  0
    7.1358   -0.4445    0.0000 C   0  0  0  0  0  0  0  0  0  0  0  0
    6.4214   -0.0320    0.0000 C   0  0  0  0  0  0  0  0  0  0  0  0
    2.0483   -0.0275    0.0000 C   0  0  0  0  0  0  0  0  0  0  0  0
    2.6003   -0.6406    0.0000 N   0  0  0  0  0  0  0  0  0  0  0  0
    3.1609   -5.8513    0.0000 H   0  0  0  0  0  0  0  0  0  0  0  0
    4.5382   -4.6113    0.0000 H   0  0  0  0  0  0  0  0  0  0  0  0
    4.2075   -5.6289    0.0000 H   0  0  0  0  0  0  0  0  0  0  0  0
    1.8930   -4.4431    0.0000 H   0  0  0  0  0  0  0  0  0  0  0  0
    2.2236   -3.4254    0.0000 H   0  0  0  0  0  0  0  0  0  0  0  0
    4.2411   -3.2135    0.0000 H   0  0  0  0  0  0  0  0  0  0  0  0
    3.5252   -2.4184    0.0000 H   0  0  0  0  0  0  0  0  0  0  0  0
    2.3118   -3.8405    0.0000 H   0  0  0  0  0  0  0  0  0  0  0  0
    1.1196   -2.1992    0.0000 H   0  0  0  0  0  0  0  0  0  0  0  0
    1.5048   -4.0120    0.0000 H   0  0  0  0  0  0  0  0  0  0  0  0
    0.7889   -3.2168    0.0000 H   0  0  0  0  0  0  0  0  0  0  0  0
   -0.4794   -0.4236    0.0000 H   0  0  0  0  0  0  0  0  0  0  0  0
   -0.1248   -2.0915    0.0000 H   0  0  0  0  0  0  0  0  0  0  0  0
   -0.1503    0.6184    0.0000 H   0  0  0  0  0  0  0  0  0  0  0  0
    2.8490    2.2755    0.0000 H   0  0  0  0  0  0  0  0  0  0  0  0
    3.7756    1.7405    0.0000 H   0  0  0  0  0  0  0  0  0  0  0  0
    3.5635   -0.2770    0.0000 H   0  0  0  0  0  0  0  0  0  0  0  0
    4.4901    0.2580    0.0000 H   0  0  0  0  0  0  0  0  0  0  0  0
    4.2780    2.2755    0.0000 H   0  0  0  0  0  0  0  0  0  0  0  0
    5.2047    1.7405    0.0000 H   0  0  0  0  0  0  0  0  0  0  0  0
    4.9924   -0.2770    0.0000 H   0  0  0  0  0  0  0  0  0  0  0  0
    5.9190    0.2580    0.0000 H   0  0  0  0  0  0  0  0  0  0  0  0
    5.7069    2.2755    0.0000 H   0  0  0  0  0  0  0  0  0  0  0  0
    6.6335    1.7405    0.0000 H   0  0  0  0  0  0  0  0  0  0  0  0
    7.1358    2.2755    0.0000 H   0  0  0  0  0  0  0  0  0  0  0  0
    8.0624    1.7405    0.0000 H   0  0  0  0  0  0  0  0  0  0  0  0
    8.7769    1.3280    0.0000 H   0  0  0  0  0  0  0  0  0  0  0  0
    8.7769    0.2580    0.0000 H   0  0  0  0  0  0  0  0  0  0  0  0
    8.7769   -0.5670    0.0000 H   0  0  0  0  0  0  0  0  0  0  0  0
    7.8503   -1.1020    0.0000 H   0  0  0  0  0  0  0  0  0  0  0  0
    7.1358   -1.5145    0.0000 H   0  0  0  0  0  0  0  0  0  0  0  0
    6.2091   -0.9795    0.0000 H   0  0  0  0  0  0  0  0  0  0  0  0
    5.4947   -0.5670    0.0000 H   0  0  0  0  0  0  0  0  0  0  0  0
    5.4948    0.5030    0.0000 H   0  0  0  0  0  0  0  0  0  0  0  0
  1  2  1  0  0  0  0
  1 29  1  0  0  0  0
  1 30  1  0  0  0  0
  1 31  1  0  0  0  0
  2  3  1  0  0  0  0
  2 32  1  0  0  0  0
  2 33  1  0  0  0  0
  3 34  1  0  0  0  0
  3 35  1  0  0  0  0
  4  3  1  0  0  0  0
  4  5  1  0  0  0  0
  4  6  1  0  0  0  0
  4 36  1  1  0  0  0
  5 37  1  0  0  0  0
  5 38  1  0  0  0  0
  5 39  1  0  0  0  0
  6  7  1  0  0  0  0
  7  8  2  0  0  0  0
  7 28  1  0  0  0  0
  8  9  1  0  0  0  0
  9 10  1  0  0  0  0
  9 11  2  0  0  0  0
 10 40  1  0  0  0  0
 10 41  1  0  0  0  0
 11 12  1  0  0  0  0
 11 27  1  0  0  0  0
 12 13  1  0  0  0  0
 12 42  1  0  0  0  0
 13 14  2  0  0  0  0
 13 15  1  0  0  0  0
 15 16  1  0  0  0  0
 15 27  1  0  0  0  0
 16 17  1  0  0  0  0
 16 43  1  0  0  0  0
 16 44  1  0  0  0  0
 17 18  1  0  0  0  0
 17 45  1  0  0  0  0
 17 46  1  0  0  0  0
 18 19  1  0  0  0  0
 18 47  1  0  0  0  0
 18 48  1  0  0  0  0
 19 20  1  0  0  0  0
 19 49  1  0  0  0  0
 19 50  1  0  0  0  0
 20 21  1  0  0  0  0
 20 51  1  0  0  0  0
 20 52  1  0  0  0  0
 21 22  1  0  0  0  0
 21 26  1  0  0  0  0
 22 23  1  0  0  0  0
 22 53  1  0  0  0  0
 22 54  1  0  0  0  0
 23 24  1  0  0  0  0
 23 55  1  0  0  0  0
 23 56  1  0  0  0  0
 24 25  1  0  0  0  0
 24 57  1  0  0  0  0
 24 58  1  0  0  0  0
 25 26  1  0  0  0  0
 25 59  1  0  0  0  0
 25 60  1  0  0  0  0
 26 61  1  0  0  0  0
 26 62  1  0  0  0  0
 27 28  2  0  0  0  0
M  END
>  <DRUGBANK_ID>
DB16076

>  <COMMON_NAME>
GSK2245035

>  <CAS_NUMBER>
1207629-49-9

>  <UNII>
5L3SX16QBQ

$$$$
