
 OpenBabel10282417072D

 91 96  0  0  1  0  0  0  0  0999 V2000
    7.5658   -2.8875    0.0000 C   0  0  0  0  0  0  0  0  0  0  0  0
    7.5658   -3.7125    0.0000 N   0  0  0  0  0  0  0  0  0  0  0  0
    6.8513   -4.1250    0.0000 C   0  0  0  0  0  0  0  0  0  0  0  0
    6.8513   -4.9500    0.0000 N   0  0  0  0  0  0  0  0  0  0  0  0
    6.1368   -5.3625    0.0000 C   0  0  0  0  0  0  0  0  0  0  0  0
    6.1368   -6.1875    0.0000 N   0  0  0  0  0  0  0  0  0  0  0  0
    6.8513   -6.6000    0.0000 C   0  0  3  0  0  0  0  0  0  0  0  0
    7.5658   -6.1875    0.0000 C   0  0  0  0  0  0  0  0  0  0  0  0
    8.2802   -6.6000    0.0000 C   0  0  0  0  0  0  0  0  0  0  0  0
    8.2802   -7.4250    0.0000 N   0  0  0  0  0  0  0  0  0  0  0  0
    8.9947   -7.8375    0.0000 C   0  0  0  0  0  0  0  0  0  0  0  0
    8.9947   -8.6625    0.0000 C   0  0  0  0  0  0  0  0  0  0  0  0
    9.7092   -9.0750    0.0000 C   0  0  0  0  0  0  0  0  0  0  0  0
    9.7092   -9.9000    0.0000 C   0  0  0  0  0  0  0  0  0  0  0  0
    8.9947  -10.3125    0.0000 C   0  0  0  0  0  0  0  0  0  0  0  0
    8.8232  -11.1195    0.0000 N   0  0  0  0  0  0  0  0  0  0  0  0
    9.3752  -11.7326    0.0000 C   0  0  0  0  0  0  0  0  0  0  0  0
    9.1203  -12.5172    0.0000 C   0  0  2  0  0  0  0  0  0  0  0  0
    8.3133  -12.6887    0.0000 C   0  0  0  0  0  0  0  0  0  0  0  0
    9.6723  -13.1303    0.0000 N   0  0  0  0  0  0  0  0  0  0  0  0
   10.4793  -12.9588    0.0000 C   0  0  0  0  0  0  0  0  0  0  0  0
   11.0313  -13.5718    0.0000 C   0  0  0  0  0  0  0  0  0  0  0  0
   10.7764  -14.3565    0.0000 N   0  0  0  0  0  0  0  0  0  0  0  0
    9.9694  -14.5280    0.0000 C   0  0  0  0  0  0  0  0  0  0  0  0
    9.4174  -13.9149    0.0000 C   0  0  0  0  0  0  0  0  0  0  0  0
   11.3284  -14.9696    0.0000 S   0  0  0  0  0  0  0  0  0  0  0  0
   11.8804  -15.5827    0.0000 C   0  0  0  0  0  0  0  0  0  0  0  0
   11.9415  -14.4175    0.0000 O   0  0  0  0  0  0  0  0  0  0  0  0
   10.7153  -15.5216    0.0000 O   0  0  0  0  0  0  0  0  0  0  0  0
    8.0027  -11.2057    0.0000 C   0  0  0  0  0  0  0  0  0  0  0  0
    7.6671  -10.4520    0.0000 C   0  0  0  0  0  0  0  0  0  0  0  0
    8.2802   -9.9000    0.0000 C   0  0  0  0  0  0  0  0  0  0  0  0
    8.2802   -9.0750    0.0000 C   0  0  0  0  0  0  0  0  0  0  0  0
    7.5658   -8.6625    0.0000 C   0  0  0  0  0  0  0  0  0  0  0  0
    7.5902  -11.9202    0.0000 C   0  0  0  0  0  0  0  0  0  0  0  0
    7.1777  -12.6346    0.0000 N   0  0  0  0  0  0  0  0  0  0  0  0
    7.5658   -7.8375    0.0000 C   0  0  0  0  0  0  0  0  0  0  0  0
    6.8513   -7.4250    0.0000 C   0  0  0  0  0  0  0  0  0  0  0  0
    5.4223   -4.9500    0.0000 C   0  0  0  0  0  0  0  0  0  0  0  0
    4.6377   -5.2049    0.0000 C   0  0  0  0  0  0  0  0  0  0  0  0
    4.1528   -4.5375    0.0000 C   0  0  0  0  0  0  0  0  0  0  0  0
    3.3278   -4.5375    0.0000 C   0  0  0  0  0  0  0  0  0  0  0  0
    2.9153   -3.8230    0.0000 C   0  0  0  0  0  0  0  0  0  0  0  0
    2.5028   -3.1086    0.0000 F   0  0  0  0  0  0  0  0  0  0  0  0
    3.6298   -3.4105    0.0000 F   0  0  0  0  0  0  0  0  0  0  0  0
    2.2008   -4.2355    0.0000 F   0  0  0  0  0  0  0  0  0  0  0  0
    4.6377   -3.8701    0.0000 S   0  0  0  0  0  0  0  0  0  0  0  0
    5.4223   -4.1250    0.0000 C   0  0  0  0  0  0  0  0  0  0  0  0
    6.1368   -3.7125    0.0000 N   0  0  0  0  0  0  0  0  0  0  0  0
    8.4924   -2.3525    0.0000 H   0  0  0  0  0  0  0  0  0  0  0  0
    6.6392   -2.3525    0.0000 H   0  0  0  0  0  0  0  0  0  0  0  0
    7.5658   -1.8175    0.0000 H   0  0  0  0  0  0  0  0  0  0  0  0
    8.4184   -4.2048    0.0000 H   0  0  0  0  0  0  0  0  0  0  0  0
    5.2842   -6.6798    0.0000 H   0  0  0  0  0  0  0  0  0  0  0  0
    6.8513   -5.5300    0.0000 H   0  0  0  0  0  0  0  0  0  0  0  0
    7.5658   -5.1175    0.0000 H   0  0  0  0  0  0  0  0  0  0  0  0
    8.4925   -5.6525    0.0000 H   0  0  0  0  0  0  0  0  0  0  0  0
    9.2069   -6.0650    0.0000 H   0  0  0  0  0  0  0  0  0  0  0  0
    9.2068   -7.1350    0.0000 H   0  0  0  0  0  0  0  0  0  0  0  0
    9.9213   -7.3025    0.0000 H   0  0  0  0  0  0  0  0  0  0  0  0
    9.9213   -8.3725    0.0000 H   0  0  0  0  0  0  0  0  0  0  0  0
   10.6029   -8.5590    0.0000 H   0  0  0  0  0  0  0  0  0  0  0  0
   10.6029  -10.4160    0.0000 H   0  0  0  0  0  0  0  0  0  0  0  0
   10.4218  -11.5101    0.0000 H   0  0  0  0  0  0  0  0  0  0  0  0
   10.0912  -12.5278    0.0000 H   0  0  0  0  0  0  0  0  0  0  0  0
    8.4043  -11.7220    0.0000 H   0  0  0  0  0  0  0  0  0  0  0  0
    7.5974  -11.8935    0.0000 H   0  0  0  0  0  0  0  0  0  0  0  0
    7.9826  -13.7063    0.0000 H   0  0  0  0  0  0  0  0  0  0  0  0
    7.2667  -12.9111    0.0000 H   0  0  0  0  0  0  0  0  0  0  0  0
   10.8099  -11.9412    0.0000 H   0  0  0  0  0  0  0  0  0  0  0  0
   11.5259  -12.7363    0.0000 H   0  0  0  0  0  0  0  0  0  0  0  0
   12.0779  -13.3493    0.0000 H   0  0  0  0  0  0  0  0  0  0  0  0
   11.7473  -14.3669    0.0000 H   0  0  0  0  0  0  0  0  0  0  0  0
    9.6387  -15.5456    0.0000 H   0  0  0  0  0  0  0  0  0  0  0  0
    8.9228  -14.7504    0.0000 H   0  0  0  0  0  0  0  0  0  0  0  0
    8.3708  -14.1374    0.0000 H   0  0  0  0  0  0  0  0  0  0  0  0
    8.7014  -13.1197    0.0000 H   0  0  0  0  0  0  0  0  0  0  0  0
   11.5497  -16.6003    0.0000 H   0  0  0  0  0  0  0  0  0  0  0  0
   12.9270  -15.3603    0.0000 H   0  0  0  0  0  0  0  0  0  0  0  0
   12.5963  -16.3779    0.0000 H   0  0  0  0  0  0  0  0  0  0  0  0
    6.6577  -10.2374    0.0000 H   0  0  0  0  0  0  0  0  0  0  0  0
    7.5658   -7.5925    0.0000 H   0  0  0  0  0  0  0  0  0  0  0  0
    6.6391   -9.1975    0.0000 H   0  0  0  0  0  0  0  0  0  0  0  0
    6.6392   -8.1275    0.0000 H   0  0  0  0  0  0  0  0  0  0  0  0
    7.5658   -8.9075    0.0000 H   0  0  0  0  0  0  0  0  0  0  0  0
    6.6392   -8.3725    0.0000 H   0  0  0  0  0  0  0  0  0  0  0  0
    5.9247   -7.9600    0.0000 H   0  0  0  0  0  0  0  0  0  0  0  0
    5.9247   -6.8900    0.0000 H   0  0  0  0  0  0  0  0  0  0  0  0
    4.3188   -6.1864    0.0000 H   0  0  0  0  0  0  0  0  0  0  0  0
    2.7928   -5.4641    0.0000 H   0  0  0  0  0  0  0  0  0  0  0  0
    2.2578   -4.5375    0.0000 H   0  0  0  0  0  0  0  0  0  0  0  0
  1  2  1  0  0  0  0
  1 50  1  0  0  0  0
  1 51  1  0  0  0  0
  1 52  1  0  0  0  0
  2  3  1  0  0  0  0
  2 53  1  0  0  0  0
  3  4  2  0  0  0  0
  3 49  1  0  0  0  0
  4  5  1  0  0  0  0
  5  6  1  0  0  0  0
  5 39  2  0  0  0  0
  6  7  1  0  0  0  0
  6 54  1  0  0  0  0
  7  8  1  0  0  0  0
  7 38  1  0  0  0  0
  7 55  1  0  0  0  0
  8  9  1  0  0  0  0
  8 56  1  0  0  0  0
  8 57  1  0  0  0  0
  9 10  1  0  0  0  0
  9 58  1  0  0  0  0
  9 59  1  0  0  0  0
 10 11  1  0  0  0  0
 10 37  1  0  0  0  0
 11 12  1  0  0  0  0
 11 60  1  0  0  0  0
 11 61  1  0  0  0  0
 12 13  2  0  0  0  0
 12 33  1  0  0  0  0
 13 14  1  0  0  0  0
 13 62  1  0  0  0  0
 14 15  2  0  0  0  0
 14 63  1  0  0  0  0
 15 16  1  0  0  0  0
 15 32  1  0  0  0  0
 16 17  1  0  0  0  0
 16 30  1  0  0  0  0
 17 64  1  0  0  0  0
 17 65  1  0  0  0  0
 18 17  1  0  0  0  0
 18 19  1  0  0  0  0
 18 20  1  0  0  0  0
 18 66  1  6  0  0  0
 19 67  1  0  0  0  0
 19 68  1  0  0  0  0
 19 69  1  0  0  0  0
 20 21  1  0  0  0  0
 20 25  1  0  0  0  0
 21 22  1  0  0  0  0
 21 70  1  0  0  0  0
 21 71  1  0  0  0  0
 22 23  1  0  0  0  0
 22 72  1  0  0  0  0
 22 73  1  0  0  0  0
 23 24  1  0  0  0  0
 23 26  1  0  0  0  0
 24 25  1  0  0  0  0
 24 74  1  0  0  0  0
 24 75  1  0  0  0  0
 25 76  1  0  0  0  0
 25 77  1  0  0  0  0
 26 27  1  0  0  0  0
 26 28  2  0  0  0  0
 26 29  2  0  0  0  0
 27 78  1  0  0  0  0
 27 79  1  0  0  0  0
 27 80  1  0  0  0  0
 30 31  2  0  0  0  0
 30 35  1  0  0  0  0
 31 32  1  0  0  0  0
 31 81  1  0  0  0  0
 32 33  2  0  0  0  0
 33 34  1  0  0  0  0
 34 82  1  0  0  0  0
 34 83  1  0  0  0  0
 34 84  1  0  0  0  0
 35 36  3  0  0  0  0
 37 38  1  0  0  0  0
 37 85  1  0  0  0  0
 37 86  1  0  0  0  0
 38 87  1  0  0  0  0
 38 88  1  0  0  0  0
 39 40  1  0  0  0  0
 39 48  1  0  0  0  0
 40 41  2  0  0  0  0
 40 89  1  0  0  0  0
 41 42  1  0  0  0  0
 41 47  1  0  0  0  0
 42 43  1  0  0  0  0
 42 90  1  0  0  0  0
 42 91  1  0  0  0  0
 43 44  1  0  0  0  0
 43 45  1  0  0  0  0
 43 46  1  0  0  0  0
 47 48  1  0  0  0  0
 48 49  2  0  0  0  0
M  END
>  <DRUGBANK_ID>
DB17171

>  <COMMON_NAME>
Ziftomenib

>  <CAS_NUMBER>
2134675-36-6

>  <UNII>
4MOD1F4ENC

>  <SYNONYMS>
(s)-4-methyl-5-((4-((2-(methylamino)-6-(2,2,2-trifluoroethyl)thieno(2,3-d)pyrimidin-4-yl)amino)piperidin-1-yl)methyl)-1-(2-(4-(methylsulfonyl)piperazin-1-yl)propyl)-1h-indole-2-carbonitrile; 1h-indole-2-carbonitrile, 4-methyl-5-((4-((2-(methylamino)-6-(2,2,2-trifluoroethyl)thieno(2,3-d)pyrimidin-4-yl)amino)-1-piperidinyl)methyl)-1-((2s)-2-(4-(methylsulfonyl)-1-piperazinyl)propyl)-; Menin-mll interaction inhibitor ko 539

$$$$
