
 OpenBabel10282417072D

153157  0  0  1  0  0  0  0  0999 V2000
   13.7896  -15.1057    0.0000 C   0  0  0  0  0  0  0  0  0  0  0  0
   13.0751  -14.6932    0.0000 S   0  0  0  0  0  0  0  0  0  0  0  0
   13.0751  -13.8682    0.0000 C   0  0  0  0  0  0  0  0  0  0  0  0
   12.3606  -13.4557    0.0000 C   0  0  0  0  0  0  0  0  0  0  0  0
   12.3606  -12.6307    0.0000 C   0  0  2  0  0  0  0  0  0  0  0  0
   11.6462  -12.2182    0.0000 N   0  0  0  0  0  0  0  0  0  0  0  0
   10.9317  -12.6307    0.0000 C   0  0  0  0  0  0  0  0  0  0  0  0
   10.9317  -13.4557    0.0000 O   0  0  0  0  0  0  0  0  0  0  0  0
   10.2172  -12.2182    0.0000 C   0  0  1  0  0  0  0  0  0  0  0  0
   10.2172  -11.3932    0.0000 N   0  0  0  0  0  0  0  0  0  0  0  0
    9.5027  -12.6307    0.0000 C   0  0  0  0  0  0  0  0  0  0  0  0
    8.7883  -12.2182    0.0000 C   0  0  0  0  0  0  0  0  0  0  0  0
    8.0738  -12.6307    0.0000 C   0  0  0  0  0  0  0  0  0  0  0  0
    7.3593  -12.2182    0.0000 C   0  0  0  0  0  0  0  0  0  0  0  0
    7.3593  -11.3932    0.0000 C   0  0  0  0  0  0  0  0  0  0  0  0
    6.6449  -10.9807    0.0000 O   0  0  0  0  0  0  0  0  0  0  0  0
    8.0738  -10.9807    0.0000 C   0  0  0  0  0  0  0  0  0  0  0  0
    8.7883  -11.3932    0.0000 C   0  0  0  0  0  0  0  0  0  0  0  0
   13.0751  -12.2182    0.0000 C   0  0  0  0  0  0  0  0  0  0  0  0
   13.0751  -11.3932    0.0000 O   0  0  0  0  0  0  0  0  0  0  0  0
   13.7896  -12.6307    0.0000 N   0  0  0  0  0  0  0  0  0  0  0  0
   14.5040  -12.2182    0.0000 C   0  0  1  0  0  0  0  0  0  0  0  0
   14.5040  -11.3932    0.0000 C   0  0  0  0  0  0  0  0  0  0  0  0
   15.2185  -10.9807    0.0000 C   0  0  0  0  0  0  0  0  0  0  0  0
   15.2185  -10.1557    0.0000 C   0  0  0  0  0  0  0  0  0  0  0  0
   15.9330   -9.7432    0.0000 C   0  0  0  0  0  0  0  0  0  0  0  0
   16.6475  -10.1557    0.0000 C   0  0  0  0  0  0  0  0  0  0  0  0
   16.6475  -10.9807    0.0000 C   0  0  0  0  0  0  0  0  0  0  0  0
   15.9330  -11.3932    0.0000 C   0  0  0  0  0  0  0  0  0  0  0  0
   15.2185  -12.6307    0.0000 C   0  0  0  0  0  0  0  0  0  0  0  0
   15.9330  -12.2182    0.0000 O   0  0  0  0  0  0  0  0  0  0  0  0
   15.2185  -13.4557    0.0000 N   0  0  0  0  0  0  0  0  0  0  0  0
   14.5511  -13.9406    0.0000 C   0  0  0  0  0  0  0  0  0  0  0  0
   14.8060  -14.7252    0.0000 C   0  0  0  0  0  0  0  0  0  0  0  0
   15.6310  -14.7252    0.0000 C   0  0  0  0  0  0  0  0  0  0  0  0
   15.8860  -13.9406    0.0000 C   0  0  1  0  0  0  0  0  0  0  0  0
   16.6706  -13.6857    0.0000 C   0  0  0  0  0  0  0  0  0  0  0  0
   16.8421  -12.8787    0.0000 O   0  0  0  0  0  0  0  0  0  0  0  0
   17.2837  -14.2377    0.0000 N   0  0  0  0  0  0  0  0  0  0  0  0
   18.0683  -13.9828    0.0000 C   0  0  1  0  0  0  0  0  0  0  0  0
   18.6814  -14.5348    0.0000 C   0  0  0  0  0  0  0  0  0  0  0  0
   19.4660  -14.2799    0.0000 C   0  0  0  0  0  0  0  0  0  0  0  0
   19.6375  -13.4729    0.0000 N   0  0  0  0  0  0  0  0  0  0  0  0
   20.0791  -14.8319    0.0000 O   0  0  0  0  0  0  0  0  0  0  0  0
   18.2398  -13.1758    0.0000 C   0  0  0  0  0  0  0  0  0  0  0  0
   17.6267  -12.6238    0.0000 O   0  0  0  0  0  0  0  0  0  0  0  0
   19.0244  -12.9209    0.0000 N   0  0  0  0  0  0  0  0  0  0  0  0
   19.1960  -12.1139    0.0000 C   0  0  1  0  0  0  0  0  0  0  0  0
   18.5829  -11.5619    0.0000 C   0  0  0  0  0  0  0  0  0  0  0  0
   19.9806  -11.8589    0.0000 C   0  0  0  0  0  0  0  0  0  0  0  0
   20.5937  -12.4110    0.0000 O   0  0  0  0  0  0  0  0  0  0  0  0
   20.1521  -11.0520    0.0000 N   0  0  0  0  0  0  0  0  0  0  0  0
   19.6001  -10.4389    0.0000 C   0  0  0  0  0  0  0  0  0  0  0  0
   20.0126   -9.7244    0.0000 C   0  0  0  0  0  0  0  0  0  0  0  0
   20.8196   -9.8959    0.0000 C   0  0  0  0  0  0  0  0  0  0  0  0
   20.9058  -10.7164    0.0000 C   0  0  1  0  0  0  0  0  0  0  0  0
   21.6203  -11.1289    0.0000 C   0  0  0  0  0  0  0  0  0  0  0  0
   21.6203  -11.9539    0.0000 O   0  0  0  0  0  0  0  0  0  0  0  0
   22.3347  -10.7164    0.0000 N   0  0  0  0  0  0  0  0  0  0  0  0
   23.0492  -11.1289    0.0000 C   0  0  1  0  0  0  0  0  0  0  0  0
   23.7637  -10.7164    0.0000 C   0  0  0  0  0  0  0  0  0  0  0  0
   24.4781  -11.1289    0.0000 C   0  0  0  0  0  0  0  0  0  0  0  0
   25.1926  -10.7164    0.0000 C   0  0  0  0  0  0  0  0  0  0  0  0
   25.9071  -11.1289    0.0000 C   0  0  0  0  0  0  0  0  0  0  0  0
   25.9071  -11.9539    0.0000 C   0  0  0  0  0  0  0  0  0  0  0  0
   26.6216  -12.3664    0.0000 O   0  0  0  0  0  0  0  0  0  0  0  0
   25.1926  -12.3664    0.0000 C   0  0  0  0  0  0  0  0  0  0  0  0
   24.4781  -11.9539    0.0000 C   0  0  0  0  0  0  0  0  0  0  0  0
   23.0492  -11.9539    0.0000 C   0  0  0  0  0  0  0  0  0  0  0  0
   23.7637  -12.3664    0.0000 O   0  0  0  0  0  0  0  0  0  0  0  0
   22.3347  -12.3664    0.0000 N   0  0  0  0  0  0  0  0  0  0  0  0
   22.3347  -13.1914    0.0000 C   0  0  1  0  0  0  0  0  0  0  0  0
   21.6203  -13.6039    0.0000 C   0  0  0  0  0  0  0  0  0  0  0  0
   21.6203  -14.4289    0.0000 C   0  0  0  0  0  0  0  0  0  0  0  0
   22.3347  -14.8414    0.0000 C   0  0  0  0  0  0  0  0  0  0  0  0
   20.9058  -14.8414    0.0000 C   0  0  0  0  0  0  0  0  0  0  0  0
   23.0492  -13.6039    0.0000 C   0  0  0  0  0  0  0  0  0  0  0  0
   23.0492  -14.4289    0.0000 O   0  0  0  0  0  0  0  0  0  0  0  0
   23.7637  -13.1914    0.0000 O   0  0  0  0  0  0  0  0  0  0  0  0
   13.7896  -16.1757    0.0000 H   0  0  0  0  0  0  0  0  0  0  0  0
   14.7162  -14.5707    0.0000 H   0  0  0  0  0  0  0  0  0  0  0  0
   14.7163  -15.6407    0.0000 H   0  0  0  0  0  0  0  0  0  0  0  0
   14.0017  -13.3332    0.0000 H   0  0  0  0  0  0  0  0  0  0  0  0
   13.0751  -12.7982    0.0000 H   0  0  0  0  0  0  0  0  0  0  0  0
   11.4340  -13.9907    0.0000 H   0  0  0  0  0  0  0  0  0  0  0  0
   11.4340  -12.9207    0.0000 H   0  0  0  0  0  0  0  0  0  0  0  0
   11.4339  -13.1657    0.0000 H   0  0  0  0  0  0  0  0  0  0  0  0
   11.6462  -11.2337    0.0000 H   0  0  0  0  0  0  0  0  0  0  0  0
   11.1438  -11.6832    0.0000 H   0  0  0  0  0  0  0  0  0  0  0  0
   11.1005  -10.8832    0.0000 H   0  0  0  0  0  0  0  0  0  0  0  0
    9.3339  -10.8832    0.0000 H   0  0  0  0  0  0  0  0  0  0  0  0
    9.5027  -13.7007    0.0000 H   0  0  0  0  0  0  0  0  0  0  0  0
    8.5760  -13.1657    0.0000 H   0  0  0  0  0  0  0  0  0  0  0  0
    8.0738  -13.6627    0.0000 H   0  0  0  0  0  0  0  0  0  0  0  0
    6.4656  -12.7342    0.0000 H   0  0  0  0  0  0  0  0  0  0  0  0
    6.6449  -10.0437    0.0000 H   0  0  0  0  0  0  0  0  0  0  0  0
    8.0738   -9.9487    0.0000 H   0  0  0  0  0  0  0  0  0  0  0  0
    9.6820  -10.8772    0.0000 H   0  0  0  0  0  0  0  0  0  0  0  0
   13.7896  -13.6152    0.0000 H   0  0  0  0  0  0  0  0  0  0  0  0
   13.5773  -11.6832    0.0000 H   0  0  0  0  0  0  0  0  0  0  0  0
   13.5774  -10.8582    0.0000 H   0  0  0  0  0  0  0  0  0  0  0  0
   14.5040  -10.3232    0.0000 H   0  0  0  0  0  0  0  0  0  0  0  0
   14.3248   -9.6397    0.0000 H   0  0  0  0  0  0  0  0  0  0  0  0
   15.9330   -8.7112    0.0000 H   0  0  0  0  0  0  0  0  0  0  0  0
   17.5412   -9.6397    0.0000 H   0  0  0  0  0  0  0  0  0  0  0  0
   17.5412  -11.4967    0.0000 H   0  0  0  0  0  0  0  0  0  0  0  0
   15.9330  -12.4252    0.0000 H   0  0  0  0  0  0  0  0  0  0  0  0
   13.5335  -13.6099    0.0000 H   0  0  0  0  0  0  0  0  0  0  0  0
   13.7945  -14.6972    0.0000 H   0  0  0  0  0  0  0  0  0  0  0  0
   14.1771  -15.5908    0.0000 H   0  0  0  0  0  0  0  0  0  0  0  0
   15.2918  -15.6786    0.0000 H   0  0  0  0  0  0  0  0  0  0  0  0
   16.2599  -15.5909    0.0000 H   0  0  0  0  0  0  0  0  0  0  0  0
   16.6878  -14.5579    0.0000 H   0  0  0  0  0  0  0  0  0  0  0  0
   16.6426  -14.6972    0.0000 H   0  0  0  0  0  0  0  0  0  0  0  0
   17.0790  -15.2007    0.0000 H   0  0  0  0  0  0  0  0  0  0  0  0
   17.8458  -15.0294    0.0000 H   0  0  0  0  0  0  0  0  0  0  0  0
   18.4589  -15.5814    0.0000 H   0  0  0  0  0  0  0  0  0  0  0  0
   19.4766  -15.2508    0.0000 H   0  0  0  0  0  0  0  0  0  0  0  0
   20.5738  -13.1686    0.0000 H   0  0  0  0  0  0  0  0  0  0  0  0
   18.9058  -12.8142    0.0000 H   0  0  0  0  0  0  0  0  0  0  0  0
   19.7560  -13.5797    0.0000 H   0  0  0  0  0  0  0  0  0  0  0  0
   18.1784  -12.4445    0.0000 H   0  0  0  0  0  0  0  0  0  0  0  0
   18.8053  -10.5153    0.0000 H   0  0  0  0  0  0  0  0  0  0  0  0
   17.5653  -11.8926    0.0000 H   0  0  0  0  0  0  0  0  0  0  0  0
   17.7877  -10.8460    0.0000 H   0  0  0  0  0  0  0  0  0  0  0  0
   18.5360  -10.5507    0.0000 H   0  0  0  0  0  0  0  0  0  0  0  0
   19.0173   -9.5415    0.0000 H   0  0  0  0  0  0  0  0  0  0  0  0
   19.5774   -8.7469    0.0000 H   0  0  0  0  0  0  0  0  0  0  0  0
   20.6859   -8.8928    0.0000 H   0  0  0  0  0  0  0  0  0  0  0  0
   21.6148   -9.1799    0.0000 H   0  0  0  0  0  0  0  0  0  0  0  0
   21.8185  -10.2794    0.0000 H   0  0  0  0  0  0  0  0  0  0  0  0
   21.8032  -10.1336    0.0000 H   0  0  0  0  0  0  0  0  0  0  0  0
   22.3347   -9.7319    0.0000 H   0  0  0  0  0  0  0  0  0  0  0  0
   23.0492  -10.0589    0.0000 H   0  0  0  0  0  0  0  0  0  0  0  0
   23.7637   -9.6464    0.0000 H   0  0  0  0  0  0  0  0  0  0  0  0
   24.6904  -10.1814    0.0000 H   0  0  0  0  0  0  0  0  0  0  0  0
   25.1926   -9.6844    0.0000 H   0  0  0  0  0  0  0  0  0  0  0  0
   26.8008  -10.6129    0.0000 H   0  0  0  0  0  0  0  0  0  0  0  0
   26.6216  -13.3034    0.0000 H   0  0  0  0  0  0  0  0  0  0  0  0
   25.1926  -13.3984    0.0000 H   0  0  0  0  0  0  0  0  0  0  0  0
   23.5844  -12.4699    0.0000 H   0  0  0  0  0  0  0  0  0  0  0  0
   21.4821  -11.8741    0.0000 H   0  0  0  0  0  0  0  0  0  0  0  0
   21.4080  -12.6564    0.0000 H   0  0  0  0  0  0  0  0  0  0  0  0
   20.6936  -13.0689    0.0000 H   0  0  0  0  0  0  0  0  0  0  0  0
   20.6937  -14.1389    0.0000 H   0  0  0  0  0  0  0  0  0  0  0  0
   21.6203  -15.4989    0.0000 H   0  0  0  0  0  0  0  0  0  0  0  0
   22.3347  -15.9114    0.0000 H   0  0  0  0  0  0  0  0  0  0  0  0
   23.2614  -14.3064    0.0000 H   0  0  0  0  0  0  0  0  0  0  0  0
   23.2613  -15.3764    0.0000 H   0  0  0  0  0  0  0  0  0  0  0  0
   19.9792  -14.3064    0.0000 H   0  0  0  0  0  0  0  0  0  0  0  0
   20.9058  -15.9114    0.0000 H   0  0  0  0  0  0  0  0  0  0  0  0
   19.9791  -15.3764    0.0000 H   0  0  0  0  0  0  0  0  0  0  0  0
   22.2377  -14.8974    0.0000 H   0  0  0  0  0  0  0  0  0  0  0  0
  1  2  1  0  0  0  0
  1 80  1  0  0  0  0
  1 81  1  0  0  0  0
  1 82  1  0  0  0  0
  2  3  1  0  0  0  0
  3  4  1  0  0  0  0
  3 83  1  0  0  0  0
  3 84  1  0  0  0  0
  4 85  1  0  0  0  0
  4 86  1  0  0  0  0
  5  4  1  0  0  0  0
  5  6  1  0  0  0  0
  5 19  1  0  0  0  0
  5 87  1  1  0  0  0
  6  7  1  0  0  0  0
  6 88  1  0  0  0  0
  7  8  2  0  0  0  0
  9  7  1  0  0  0  0
  9 10  1  0  0  0  0
  9 11  1  0  0  0  0
  9 89  1  1  0  0  0
 10 90  1  0  0  0  0
 10 91  1  0  0  0  0
 11 12  1  0  0  0  0
 11 92  1  0  0  0  0
 11 93  1  0  0  0  0
 12 13  2  0  0  0  0
 12 18  1  0  0  0  0
 13 14  1  0  0  0  0
 13 94  1  0  0  0  0
 14 15  2  0  0  0  0
 14 95  1  0  0  0  0
 15 16  1  0  0  0  0
 15 17  1  0  0  0  0
 16 96  1  0  0  0  0
 17 18  2  0  0  0  0
 17 97  1  0  0  0  0
 18 98  1  0  0  0  0
 19 20  2  0  0  0  0
 19 21  1  0  0  0  0
 21 99  1  0  0  0  0
 22 21  1  0  0  0  0
 22 23  1  0  0  0  0
 22 30  1  0  0  0  0
 22100  1  6  0  0  0
 23 24  1  0  0  0  0
 23101  1  0  0  0  0
 23102  1  0  0  0  0
 24 25  2  0  0  0  0
 24 29  1  0  0  0  0
 25 26  1  0  0  0  0
 25103  1  0  0  0  0
 26 27  2  0  0  0  0
 26104  1  0  0  0  0
 27 28  1  0  0  0  0
 27105  1  0  0  0  0
 28 29  2  0  0  0  0
 28106  1  0  0  0  0
 29107  1  0  0  0  0
 30 31  2  0  0  0  0
 30 32  1  0  0  0  0
 32 33  1  0  0  0  0
 33 34  1  0  0  0  0
 33108  1  0  0  0  0
 33109  1  0  0  0  0
 34 35  1  0  0  0  0
 34110  1  0  0  0  0
 34111  1  0  0  0  0
 35112  1  0  0  0  0
 35113  1  0  0  0  0
 36 35  1  0  0  0  0
 36 32  1  0  0  0  0
 36 37  1  0  0  0  0
 36114  1  1  0  0  0
 37 38  2  0  0  0  0
 37 39  1  0  0  0  0
 39115  1  0  0  0  0
 40 39  1  0  0  0  0
 40 41  1  0  0  0  0
 40 45  1  0  0  0  0
 40116  1  1  0  0  0
 41 42  1  0  0  0  0
 41117  1  0  0  0  0
 41118  1  0  0  0  0
 42 43  1  0  0  0  0
 42 44  2  0  0  0  0
 43119  1  0  0  0  0
 43120  1  0  0  0  0
 45 46  2  0  0  0  0
 45 47  1  0  0  0  0
 47121  1  0  0  0  0
 48 47  1  0  0  0  0
 48 49  1  0  0  0  0
 48 50  1  0  0  0  0
 48122  1  6  0  0  0
 49123  1  0  0  0  0
 49124  1  0  0  0  0
 49125  1  0  0  0  0
 50 51  2  0  0  0  0
 50 52  1  0  0  0  0
 52 53  1  0  0  0  0
 53 54  1  0  0  0  0
 53126  1  0  0  0  0
 53127  1  0  0  0  0
 54 55  1  0  0  0  0
 54128  1  0  0  0  0
 54129  1  0  0  0  0
 55130  1  0  0  0  0
 55131  1  0  0  0  0
 56 55  1  0  0  0  0
 56 52  1  0  0  0  0
 56 57  1  0  0  0  0
 56132  1  6  0  0  0
 57 58  2  0  0  0  0
 57 59  1  0  0  0  0
 59133  1  0  0  0  0
 60 59  1  0  0  0  0
 60 61  1  0  0  0  0
 60 69  1  0  0  0  0
 60134  1  6  0  0  0
 61 62  1  0  0  0  0
 61135  1  0  0  0  0
 61136  1  0  0  0  0
 62 63  2  0  0  0  0
 62 68  1  0  0  0  0
 63 64  1  0  0  0  0
 63137  1  0  0  0  0
 64 65  2  0  0  0  0
 64138  1  0  0  0  0
 65 66  1  0  0  0  0
 65 67  1  0  0  0  0
 66139  1  0  0  0  0
 67 68  2  0  0  0  0
 67140  1  0  0  0  0
 68141  1  0  0  0  0
 69 70  2  0  0  0  0
 69 71  1  0  0  0  0
 71142  1  0  0  0  0
 72 71  1  0  0  0  0
 72 73  1  0  0  0  0
 72 77  1  0  0  0  0
 72143  1  1  0  0  0
 73 74  1  0  0  0  0
 73144  1  0  0  0  0
 73145  1  0  0  0  0
 74 75  1  0  0  0  0
 74 76  1  0  0  0  0
 74146  1  0  0  0  0
 75147  1  0  0  0  0
 75148  1  0  0  0  0
 75149  1  0  0  0  0
 76150  1  0  0  0  0
 76151  1  0  0  0  0
 76152  1  0  0  0  0
 77 78  1  0  0  0  0
 77 79  2  0  0  0  0
 78153  1  0  0  0  0
M  END
>  <DRUGBANK_ID>
DB17352

>  <COMMON_NAME>
WT-1 A1

>  <CAS_NUMBER>
852243-39-1

>  <UNII>
V4JB309K8X

>  <SYNONYMS>
L-leucine, l-tyrosyl-l-methionyl-l-phenylalanyl-l-prolyl-l-asparaginyl-l-alanyl-l-prolyl-l-tyrosyl-; Tyr-met-phe-pro-asn-ala-pro-tyr-leu

$$$$
