
 OpenBabel10282417072D

244255  0  0  0  0  0  0  0  0999 V2000
   -9.2968    0.1187    0.0000 C   0  0  0  0  0  0  0  0  0  0  0  0
   -8.5822    0.5303    0.0000 C   0  0  0  0  0  0  0  0  0  0  0  0
  -10.0113    0.5303    0.0000 C   0  0  1  0  0  0  0  0  0  0  0  0
  -10.7259    0.9458    0.0000 C   0  0  1  0  0  0  0  0  0  0  0  0
  -11.4384    0.5303    0.0000 C   0  0  1  0  0  0  0  0  0  0  0  0
  -12.8632    0.5303    0.0000 C   0  0  0  0  0  0  0  0  0  0  0  0
  -12.8632   -0.3009    0.0000 C   0  0  0  0  0  0  0  0  0  0  0  0
  -12.1507   -0.7166    0.0000 N   0  0  0  0  0  0  0  0  0  0  0  0
  -11.4384   -0.3009    0.0000 C   0  0  1  0  0  0  0  0  0  0  0  0
  -10.7259   -0.7166    0.0000 C   0  0  2  0  0  0  0  0  0  0  0  0
  -10.0113   -0.3009    0.0000 C   0  0  2  0  0  0  0  0  0  0  0  0
   -9.2968   -0.7125    0.0000 O   0  0  0  0  0  0  0  0  0  0  0  0
  -10.7259   -1.5416    0.0000 C   0  0  0  0  0  0  0  0  0  0  0  0
  -10.0113   -1.9532    0.0000 N   0  0  0  0  0  0  0  0  0  0  0  0
   -9.2947   -1.5416    0.0000 N   0  0  0  0  0  0  0  0  0  0  0  0
   -8.5802   -1.9532    0.0000 C   0  0  0  0  0  0  0  0  0  0  0  0
   -7.8657   -1.5416    0.0000 O   0  0  0  0  0  0  0  0  0  0  0  0
   -7.1512   -1.9532    0.0000 C   0  0  0  0  0  0  0  0  0  0  0  0
   -6.4367   -1.5416    0.0000 C   0  0  0  0  0  0  0  0  0  0  0  0
   -5.7222   -1.9532    0.0000 S   0  0  0  0  0  0  0  0  0  0  0  0
   -5.0077   -1.5416    0.0000 S   0  0  0  0  0  0  0  0  0  0  0  0
   -4.2932   -1.9532    0.0000 C   0  0  0  0  0  0  0  0  0  0  0  0
   -3.5788   -1.5416    0.0000 C   0  0  2  0  0  0  0  0  0  0  0  0
   -2.8641   -1.9532    0.0000 N   0  0  0  0  0  0  0  0  0  0  0  0
   -2.1497   -1.5416    0.0000 C   0  0  0  0  0  0  0  0  0  0  0  0
   -1.4351   -1.9532    0.0000 C   0  0  1  0  0  0  0  0  0  0  0  0
   -0.7207   -1.5416    0.0000 N   0  0  0  0  0  0  0  0  0  0  0  0
   -0.0061   -1.9532    0.0000 C   0  0  0  0  0  0  0  0  0  0  0  0
    0.7083   -1.5416    0.0000 C   0  0  1  0  0  0  0  0  0  0  0  0
    1.4228   -1.9532    0.0000 N   0  0  0  0  0  0  0  0  0  0  0  0
    2.1394   -1.5416    0.0000 C   0  0  0  0  0  0  0  0  0  0  0  0
    2.8538   -1.9532    0.0000 C   0  0  1  0  0  0  0  0  0  0  0  0
    3.5685   -1.5416    0.0000 N   0  0  0  0  0  0  0  0  0  0  0  0
    4.2829   -1.9532    0.0000 C   0  0  0  0  0  0  0  0  0  0  0  0
    4.9975   -1.5416    0.0000 C   0  0  1  0  0  0  0  0  0  0  0  0
    5.7119   -1.9532    0.0000 N   0  0  0  0  0  0  0  0  0  0  0  0
    6.4265   -1.5416    0.0000 C   0  0  0  0  0  0  0  0  0  0  0  0
    7.1409   -1.9532    0.0000 C   0  0  0  0  0  0  0  0  0  0  0  0
    7.8554   -1.5416    0.0000 C   0  0  0  0  0  0  0  0  0  0  0  0
    8.5699   -1.9532    0.0000 C   0  0  2  0  0  0  0  0  0  0  0  0
    9.2844   -1.5416    0.0000 N   0  0  0  0  0  0  0  0  0  0  0  0
    9.9991   -1.9532    0.0000 C   0  0  0  0  0  0  0  0  0  0  0  0
    9.9991   -2.7782    0.0000 O   0  0  0  0  0  0  0  0  0  0  0  0
   10.7135   -1.5416    0.0000 C   0  0  0  0  0  0  0  0  0  0  0  0
   10.7135   -0.7166    0.0000 C   0  0  0  0  0  0  0  0  0  0  0  0
   11.4301   -0.3030    0.0000 C   0  0  0  0  0  0  0  0  0  0  0  0
   12.1425   -0.7166    0.0000 C   0  0  0  0  0  0  0  0  0  0  0  0
   12.1425   -1.5416    0.0000 C   0  0  0  0  0  0  0  0  0  0  0  0
   11.4301   -1.9532    0.0000 C   0  0  0  0  0  0  0  0  0  0  0  0
   12.8573   -0.3030    0.0000 N   0  0  0  0  0  0  0  0  0  0  0  0
   13.5717   -0.7166    0.0000 C   0  0  0  0  0  0  0  0  0  0  0  0
   14.2881   -0.3030    0.0000 C   0  0  0  0  0  0  0  0  0  0  0  0
   15.0007   -0.7208    0.0000 N   0  0  0  0  0  0  0  0  0  0  0  0
   15.7132   -0.3030    0.0000 C   0  0  0  0  0  0  0  0  0  0  0  0
   15.7132    0.5282    0.0000 C   0  0  0  0  0  0  0  0  0  0  0  0
   15.0007    0.9438    0.0000 N   0  0  0  0  0  0  0  0  0  0  0  0
   14.2881    0.5282    0.0000 C   0  0  0  0  0  0  0  0  0  0  0  0
   16.4256    0.9438    0.0000 N   0  0  0  0  0  0  0  0  0  0  0  0
   17.1382    0.5282    0.0000 C   0  0  0  0  0  0  0  0  0  0  0  0
   17.1382   -0.3030    0.0000 N   0  0  0  0  0  0  0  0  0  0  0  0
   16.4256   -0.7208    0.0000 C   0  0  0  0  0  0  0  0  0  0  0  0
   16.4256   -1.5457    0.0000 O   0  0  0  0  0  0  0  0  0  0  0  0
   17.8526    0.9396    0.0000 N   0  0  0  0  0  0  0  0  0  0  0  0
    8.5699   -2.7782    0.0000 C   0  0  0  0  0  0  0  0  0  0  0  0
    9.2844   -3.1918    0.0000 O   0  0  0  0  0  0  0  0  0  0  0  0
    7.8554   -3.1918    0.0000 O   0  0  0  0  0  0  0  0  0  0  0  0
    6.4265   -0.7166    0.0000 O   0  0  0  0  0  0  0  0  0  0  0  0
    4.9975   -0.7166    0.0000 C   0  0  0  0  0  0  0  0  0  0  0  0
    4.2829   -0.3030    0.0000 C   0  0  0  0  0  0  0  0  0  0  0  0
    3.5603   -0.7043    0.0000 O   0  0  0  0  0  0  0  0  0  0  0  0
    4.2829    0.5220    0.0000 O   0  0  0  0  0  0  0  0  0  0  0  0
    4.2829   -2.7782    0.0000 O   0  0  0  0  0  0  0  0  0  0  0  0
    2.8538   -3.4516    0.0000 C   0  0  0  0  0  0  0  0  0  0  0  0
    3.5685   -3.8652    0.0000 C   0  0  0  0  0  0  0  0  0  0  0  0
    4.2829   -3.4516    0.0000 C   0  0  0  0  0  0  0  0  0  0  0  0
    4.9975   -3.8652    0.0000 N   0  0  0  0  0  0  0  0  0  0  0  0
    5.7119   -3.4516    0.0000 C   0  0  0  0  0  0  0  0  0  0  0  0
    5.7119   -2.6266    0.0000 N   0  0  0  0  0  0  0  0  0  0  0  0
    6.4265   -3.8652    0.0000 N   0  0  0  0  0  0  0  0  0  0  0  0
    2.1394   -0.7166    0.0000 O   0  0  0  0  0  0  0  0  0  0  0  0
    0.7083   -0.7166    0.0000 C   0  0  0  0  0  0  0  0  0  0  0  0
   -0.0061   -0.3030    0.0000 C   0  0  0  0  0  0  0  0  0  0  0  0
   -0.7268   -0.7043    0.0000 O   0  0  0  0  0  0  0  0  0  0  0  0
   -0.0061    0.5220    0.0000 O   0  0  0  0  0  0  0  0  0  0  0  0
   -0.0061   -2.7782    0.0000 O   0  0  0  0  0  0  0  0  0  0  0  0
   -1.4351   -2.7782    0.0000 C   0  0  0  0  0  0  0  0  0  0  0  0
   -2.1579   -3.1794    0.0000 C   0  0  0  0  0  0  0  0  0  0  0  0
   -2.8725   -2.7658    0.0000 O   0  0  0  0  0  0  0  0  0  0  0  0
   -2.1579   -4.0045    0.0000 O   0  0  0  0  0  0  0  0  0  0  0  0
   -2.1497   -0.7166    0.0000 O   0  0  0  0  0  0  0  0  0  0  0  0
   -3.5788   -0.7166    0.0000 C   0  0  0  0  0  0  0  0  0  0  0  0
   -2.8641   -0.3030    0.0000 O   0  0  0  0  0  0  0  0  0  0  0  0
   -4.2932   -0.3030    0.0000 O   0  0  0  0  0  0  0  0  0  0  0  0
   -8.5802   -2.7782    0.0000 O   0  0  0  0  0  0  0  0  0  0  0  0
  -11.4404   -1.9532    0.0000 O   0  0  0  0  0  0  0  0  0  0  0  0
  -10.0113   -1.1281    0.0000 O   0  0  0  0  0  0  0  0  0  0  0  0
  -12.1507   -1.5416    0.0000 C   0  0  0  0  0  0  0  0  0  0  0  0
  -13.5756   -0.7166    0.0000 C   0  0  0  0  0  0  0  0  0  0  0  0
  -14.2881   -0.3009    0.0000 C   0  0  0  0  0  0  0  0  0  0  0  0
  -14.2881    0.5303    0.0000 C   0  0  0  0  0  0  0  0  0  0  0  0
  -13.5756    0.9458    0.0000 C   0  0  0  0  0  0  0  0  0  0  0  0
  -14.2881    2.2540    0.0000 C   0  0  2  0  0  0  0  0  0  0  0  0
  -15.4838    1.5518    0.0000 C   0  0  0  0  0  0  0  0  0  0  0  0
  -16.1983    1.9634    0.0000 O   0  0  0  0  0  0  0  0  0  0  0  0
  -16.9128    1.5518    0.0000 C   0  0  0  0  0  0  0  0  0  0  0  0
  -15.4838    0.7268    0.0000 O   0  0  0  0  0  0  0  0  0  0  0  0
  -15.0007    2.6697    0.0000 C   0  0  0  0  0  0  0  0  0  0  0  0
  -15.0007    3.5009    0.0000 C   0  0  0  0  0  0  0  0  0  0  0  0
  -16.4277    3.5009    0.0000 C   0  0  0  0  0  0  0  0  0  0  0  0
  -16.4277    2.6697    0.0000 C   0  0  0  0  0  0  0  0  0  0  0  0
  -15.7152    2.2540    0.0000 N   0  0  0  0  0  0  0  0  0  0  0  0
  -17.1402    2.2540    0.0000 C   0  0  0  0  0  0  0  0  0  0  0  0
  -17.8526    2.6697    0.0000 C   0  0  0  0  0  0  0  0  0  0  0  0
  -17.8526    3.5009    0.0000 C   0  0  0  0  0  0  0  0  0  0  0  0
  -17.1402    3.9165    0.0000 C   0  0  0  0  0  0  0  0  0  0  0  0
  -14.2881    3.9165    0.0000 C   0  0  0  0  0  0  0  0  0  0  0  0
  -13.5756    3.5009    0.0000 C   0  0  0  0  0  0  0  0  0  0  0  0
  -12.9225    4.0045    0.0000 N   0  0  2  0  0  0  0  0  0  0  0  0
  -12.5377    3.1139    0.0000 C   0  0  0  0  0  0  0  0  0  0  0  0
  -12.9534    2.1925    0.0000 C   0  0  2  0  0  0  0  0  0  0  0  0
  -13.5756    2.6697    0.0000 C   0  0  0  0  0  0  0  0  0  0  0  0
  -12.2101    2.3135    0.0000 C   0  0  0  0  0  0  0  0  0  0  0  0
  -11.7945    3.0259    0.0000 C   0  0  2  0  0  0  0  0  0  0  0  0
  -12.1200    3.7977    0.0000 C   0  0  0  0  0  0  0  0  0  0  0  0
  -11.0800    3.4373    0.0000 C   0  0  0  0  0  0  0  0  0  0  0  0
  -10.3635    3.0259    0.0000 C   0  0  0  0  0  0  0  0  0  0  0  0
  -11.2214    2.4322    0.0000 O   0  0  0  0  0  0  0  0  0  0  0  0
  -13.1520    1.3921    0.0000 H   0  0  0  0  0  0  0  0  0  0  0  0
  -15.0025   -0.7125    0.0000 O   0  0  0  0  0  0  0  0  0  0  0  0
  -15.7173   -0.3009    0.0000 C   0  0  0  0  0  0  0  0  0  0  0  0
  -12.1507    0.9458    0.0000 C   0  0  0  0  0  0  0  0  0  0  0  0
  -12.1507    1.7769    0.0000 C   0  0  0  0  0  0  0  0  0  0  0  0
  -10.7259    1.7769    0.0000 N   0  0  3  0  0  0  0  0  0  0  0  0
  -10.0113    2.1946    0.0000 C   0  0  0  0  0  0  0  0  0  0  0  0
   -9.2988    1.7769    0.0000 C   0  0  0  0  0  0  0  0  0  0  0  0
   -9.2988    0.9458    0.0000 C   0  0  0  0  0  0  0  0  0  0  0  0
  -11.4404    1.3594    0.0000 H   0  0  0  0  0  0  0  0  0  0  0  0
  -10.7238    0.1115    0.0000 H   0  0  0  0  0  0  0  0  0  0  0  0
   -9.2968   -0.9513    0.0000 H   0  0  0  0  0  0  0  0  0  0  0  0
  -10.2232   -0.4167    0.0000 H   0  0  0  0  0  0  0  0  0  0  0  0
   -7.6561   -0.0056    0.0000 H   0  0  0  0  0  0  0  0  0  0  0  0
   -8.5811    1.6003    0.0000 H   0  0  0  0  0  0  0  0  0  0  0  0
   -7.6550    1.0644    0.0000 H   0  0  0  0  0  0  0  0  0  0  0  0
   -9.0849    0.2345    0.0000 H   0  0  0  0  0  0  0  0  0  0  0  0
   -9.2959   -1.6825    0.0000 H   0  0  0  0  0  0  0  0  0  0  0  0
  -10.0119   -2.9377    0.0000 H   0  0  0  0  0  0  0  0  0  0  0  0
   -9.2941   -0.5571    0.0000 H   0  0  0  0  0  0  0  0  0  0  0  0
   -7.1512   -3.0232    0.0000 H   0  0  0  0  0  0  0  0  0  0  0  0
   -6.2248   -2.4886    0.0000 H   0  0  0  0  0  0  0  0  0  0  0  0
   -6.4367   -0.4716    0.0000 H   0  0  0  0  0  0  0  0  0  0  0  0
   -5.5103   -1.0062    0.0000 H   0  0  0  0  0  0  0  0  0  0  0  0
   -4.2932   -3.0232    0.0000 H   0  0  0  0  0  0  0  0  0  0  0  0
   -3.3668   -2.4886    0.0000 H   0  0  0  0  0  0  0  0  0  0  0  0
   -3.5787   -2.6116    0.0000 H   0  0  0  0  0  0  0  0  0  0  0  0
   -2.8640   -2.9377    0.0000 H   0  0  0  0  0  0  0  0  0  0  0  0
   -1.4352   -0.8832    0.0000 H   0  0  0  0  0  0  0  0  0  0  0  0
   -0.7208   -0.5571    0.0000 H   0  0  0  0  0  0  0  0  0  0  0  0
    0.7083   -2.6116    0.0000 H   0  0  0  0  0  0  0  0  0  0  0  0
    1.4222   -2.9377    0.0000 H   0  0  0  0  0  0  0  0  0  0  0  0
    2.8539   -0.8832    0.0000 H   0  0  0  0  0  0  0  0  0  0  0  0
    3.5686   -0.5571    0.0000 H   0  0  0  0  0  0  0  0  0  0  0  0
    4.9974   -2.6116    0.0000 H   0  0  0  0  0  0  0  0  0  0  0  0
    5.7118   -2.9377    0.0000 H   0  0  0  0  0  0  0  0  0  0  0  0
    7.1409   -3.0232    0.0000 H   0  0  0  0  0  0  0  0  0  0  0  0
    8.0673   -2.4887    0.0000 H   0  0  0  0  0  0  0  0  0  0  0  0
    7.8554   -0.4716    0.0000 H   0  0  0  0  0  0  0  0  0  0  0  0
    8.7818   -1.0062    0.0000 H   0  0  0  0  0  0  0  0  0  0  0  0
    8.5699   -0.8832    0.0000 H   0  0  0  0  0  0  0  0  0  0  0  0
    9.2843   -0.5571    0.0000 H   0  0  0  0  0  0  0  0  0  0  0  0
    9.8198   -0.2005    0.0000 H   0  0  0  0  0  0  0  0  0  0  0  0
   11.4314    0.7290    0.0000 H   0  0  0  0  0  0  0  0  0  0  0  0
   13.0363   -2.0575    0.0000 H   0  0  0  0  0  0  0  0  0  0  0  0
   11.4314   -2.9852    0.0000 H   0  0  0  0  0  0  0  0  0  0  0  0
   12.8574    0.6815    0.0000 H   0  0  0  0  0  0  0  0  0  0  0  0
   13.5711   -1.7866    0.0000 H   0  0  0  0  0  0  0  0  0  0  0  0
   14.4982   -1.2519    0.0000 H   0  0  0  0  0  0  0  0  0  0  0  0
   15.0007    1.9283    0.0000 H   0  0  0  0  0  0  0  0  0  0  0  0
   13.3932    1.0422    0.0000 H   0  0  0  0  0  0  0  0  0  0  0  0
   18.7047    0.4464    0.0000 H   0  0  0  0  0  0  0  0  0  0  0  0
   17.8537    1.9241    0.0000 H   0  0  0  0  0  0  0  0  0  0  0  0
    9.2833   -4.1288    0.0000 H   0  0  0  0  0  0  0  0  0  0  0  0
    5.9244   -0.1821    0.0000 H   0  0  0  0  0  0  0  0  0  0  0  0
    4.9984    0.3534    0.0000 H   0  0  0  0  0  0  0  0  0  0  0  0
    2.7567   -0.2224    0.0000 H   0  0  0  0  0  0  0  0  0  0  0  0
    1.9269   -3.9861    0.0000 H   0  0  0  0  0  0  0  0  0  0  0  0
    2.8530   -4.5216    0.0000 H   0  0  0  0  0  0  0  0  0  0  0  0
    3.5686   -4.9352    0.0000 H   0  0  0  0  0  0  0  0  0  0  0  0
    4.4955   -4.3996    0.0000 H   0  0  0  0  0  0  0  0  0  0  0  0
    4.2828   -2.3816    0.0000 H   0  0  0  0  0  0  0  0  0  0  0  0
    5.2098   -2.9171    0.0000 H   0  0  0  0  0  0  0  0  0  0  0  0
    4.9976   -4.8497    0.0000 H   0  0  0  0  0  0  0  0  0  0  0  0
    6.5645   -2.1343    0.0000 H   0  0  0  0  0  0  0  0  0  0  0  0
    6.4254   -4.8497    0.0000 H   0  0  0  0  0  0  0  0  0  0  0  0
    7.2796   -3.3739    0.0000 H   0  0  0  0  0  0  0  0  0  0  0  0
    1.6353   -0.1822    0.0000 H   0  0  0  0  0  0  0  0  0  0  0  0
    0.7093    0.3534    0.0000 H   0  0  0  0  0  0  0  0  0  0  0  0
   -1.5309   -0.2233    0.0000 H   0  0  0  0  0  0  0  0  0  0  0  0
   -0.5130   -3.3210    0.0000 H   0  0  0  0  0  0  0  0  0  0  0  0
   -1.4486   -3.8481    0.0000 H   0  0  0  0  0  0  0  0  0  0  0  0
   -2.8715   -1.8288    0.0000 H   0  0  0  0  0  0  0  0  0  0  0  0
   -2.0522   -0.7707    0.0000 H   0  0  0  0  0  0  0  0  0  0  0  0
  -10.0102   -2.0981    0.0000 H   0  0  0  0  0  0  0  0  0  0  0  0
  -13.0773   -2.0766    0.0000 H   0  0  0  0  0  0  0  0  0  0  0  0
  -11.2241   -2.0766    0.0000 H   0  0  0  0  0  0  0  0  0  0  0  0
  -12.1507   -2.6116    0.0000 H   0  0  0  0  0  0  0  0  0  0  0  0
  -13.5756   -1.7486    0.0000 H   0  0  0  0  0  0  0  0  0  0  0  0
  -13.5756    1.9778    0.0000 H   0  0  0  0  0  0  0  0  0  0  0  0
  -17.8389    2.0877    0.0000 H   0  0  0  0  0  0  0  0  0  0  0  0
  -16.9138    0.4818    0.0000 H   0  0  0  0  0  0  0  0  0  0  0  0
  -17.8400    1.0177    0.0000 H   0  0  0  0  0  0  0  0  0  0  0  0
  -15.7158    1.2695    0.0000 H   0  0  0  0  0  0  0  0  0  0  0  0
  -17.1402    1.2220    0.0000 H   0  0  0  0  0  0  0  0  0  0  0  0
  -18.7475    2.1558    0.0000 H   0  0  0  0  0  0  0  0  0  0  0  0
  -18.7475    4.0149    0.0000 H   0  0  0  0  0  0  0  0  0  0  0  0
  -17.1402    4.9485    0.0000 H   0  0  0  0  0  0  0  0  0  0  0  0
  -14.2881    4.9865    0.0000 H   0  0  0  0  0  0  0  0  0  0  0  0
  -13.3603    4.4494    0.0000 H   0  0  0  0  0  0  0  0  0  0  0  0
  -13.5067    2.4331    0.0000 H   0  0  0  0  0  0  0  0  0  0  0  0
  -12.6007    3.0599    0.0000 H   0  0  0  0  0  0  0  0  0  0  0  0
  -11.4677    3.1054    0.0000 H   0  0  0  0  0  0  0  0  0  0  0  0
  -11.9607    2.2128    0.0000 H   0  0  0  0  0  0  0  0  0  0  0  0
  -13.5082    3.7376    0.0000 H   0  0  0  0  0  0  0  0  0  0  0  0
  -12.6016    3.1126    0.0000 H   0  0  0  0  0  0  0  0  0  0  0  0
  -11.6041    1.4316    0.0000 H   0  0  0  0  0  0  0  0  0  0  0  0
  -11.1408    2.3530    0.0000 H   0  0  0  0  0  0  0  0  0  0  0  0
  -11.4210    4.6078    0.0000 H   0  0  0  0  0  0  0  0  0  0  0  0
  -11.0631    3.6310    0.0000 H   0  0  0  0  0  0  0  0  0  0  0  0
  -11.0806    4.5073    0.0000 H   0  0  0  0  0  0  0  0  0  0  0  0
  -10.1542    3.9737    0.0000 H   0  0  0  0  0  0  0  0  0  0  0  0
  -10.3610    1.9559    0.0000 H   0  0  0  0  0  0  0  0  0  0  0  0
   -9.4381    3.5631    0.0000 H   0  0  0  0  0  0  0  0  0  0  0  0
   -9.4356    2.4931    0.0000 H   0  0  0  0  0  0  0  0  0  0  0  0
  -11.4890    1.4998    0.0000 H   0  0  0  0  0  0  0  0  0  0  0  0
  -15.7185    0.7691    0.0000 H   0  0  0  0  0  0  0  0  0  0  0  0
  -16.6433   -0.8370    0.0000 H   0  0  0  0  0  0  0  0  0  0  0  0
  -16.6446    0.2330    0.0000 H   0  0  0  0  0  0  0  0  0  0  0  0
  -13.0785    0.4129    0.0000 H   0  0  0  0  0  0  0  0  0  0  0  0
  -13.0767    1.4818    0.0000 H   0  0  0  0  0  0  0  0  0  0  0  0
  -12.9073    2.5335    0.0000 H   0  0  0  0  0  0  0  0  0  0  0  0
  -11.7412    2.7655    0.0000 H   0  0  0  0  0  0  0  0  0  0  0  0
  -10.0106    3.2646    0.0000 H   0  0  0  0  0  0  0  0  0  0  0  0
   -9.0827    2.7262    0.0000 H   0  0  0  0  0  0  0  0  0  0  0  0
   -8.4034    2.2899    0.0000 H   0  0  0  0  0  0  0  0  0  0  0  0
   -8.4039    0.4317    0.0000 H   0  0  0  0  0  0  0  0  0  0  0  0
  1  2  1  0  0  0  0
  1139  1  0  0  0  0
  1140  1  0  0  0  0
  2141  1  0  0  0  0
  2142  1  0  0  0  0
  2143  1  0  0  0  0
  3  1  1  6  0  0  0
  3136  1  0  0  0  0
  4  3  1  0  0  0  0
  4133  1  0  0  0  0
  4137  1  6  0  0  0
  5  4  1  0  0  0  0
  5  6  1  6  0  0  0
  5131  1  0  0  0  0
  6  7  1  0  0  0  0
  6101  2  0  0  0  0
  7  8  1  0  0  0  0
  7 98  2  0  0  0  0
  8 97  1  0  0  0  0
  9  5  1  0  0  0  0
  9  8  1  0  0  0  0
  9 10  1  0  0  0  0
  9138  1  1  0  0  0
 10 13  1  6  0  0  0
 10 96  1  0  0  0  0
 10 11  1  0  0  0  0
 11  3  1  0  0  0  0
 11 12  1  0  0  0  0
 11144  1  6  0  0  0
 12145  1  0  0  0  0
 13 14  1  0  0  0  0
 13 95  2  0  0  0  0
 14 15  1  0  0  0  0
 14146  1  0  0  0  0
 15 16  1  0  0  0  0
 15147  1  0  0  0  0
 16 17  1  0  0  0  0
 16 94  2  0  0  0  0
 17 18  1  0  0  0  0
 18 19  1  0  0  0  0
 18148  1  0  0  0  0
 18149  1  0  0  0  0
 19 20  1  0  0  0  0
 19150  1  0  0  0  0
 19151  1  0  0  0  0
 20 21  1  0  0  0  0
 21 22  1  0  0  0  0
 22152  1  0  0  0  0
 22153  1  0  0  0  0
 23 22  1  0  0  0  0
 23 24  1  0  0  0  0
 23 91  1  0  0  0  0
 23154  1  6  0  0  0
 24 25  1  0  0  0  0
 24155  1  0  0  0  0
 25 90  2  0  0  0  0
 26 25  1  0  0  0  0
 26 27  1  0  0  0  0
 26 86  1  0  0  0  0
 26156  1  6  0  0  0
 27 28  1  0  0  0  0
 27157  1  0  0  0  0
 28 85  2  0  0  0  0
 29 28  1  0  0  0  0
 29 30  1  0  0  0  0
 29 81  1  0  0  0  0
 29158  1  1  0  0  0
 30 31  1  0  0  0  0
 30159  1  0  0  0  0
 31 80  2  0  0  0  0
 32 31  1  0  0  0  0
 32 33  1  0  0  0  0
 32 73  1  0  0  0  0
 32160  1  6  0  0  0
 33 34  1  0  0  0  0
 33161  1  0  0  0  0
 34 72  2  0  0  0  0
 35 34  1  0  0  0  0
 35 36  1  0  0  0  0
 35 68  1  0  0  0  0
 35162  1  1  0  0  0
 36 37  1  0  0  0  0
 36163  1  0  0  0  0
 37 38  1  0  0  0  0
 37 67  2  0  0  0  0
 38 39  1  0  0  0  0
 38164  1  0  0  0  0
 38165  1  0  0  0  0
 39166  1  0  0  0  0
 39167  1  0  0  0  0
 40 39  1  0  0  0  0
 40 41  1  0  0  0  0
 40 64  1  0  0  0  0
 40168  1  1  0  0  0
 41 42  1  0  0  0  0
 41169  1  0  0  0  0
 42 43  2  0  0  0  0
 42 44  1  0  0  0  0
 44 45  2  0  0  0  0
 44 49  1  0  0  0  0
 45 46  1  0  0  0  0
 45170  1  0  0  0  0
 46 47  2  0  0  0  0
 46171  1  0  0  0  0
 47 50  1  0  0  0  0
 48 47  1  0  0  0  0
 48172  1  0  0  0  0
 49 48  2  0  0  0  0
 49173  1  0  0  0  0
 50 51  1  0  0  0  0
 50174  1  0  0  0  0
 51 52  1  0  0  0  0
 51175  1  0  0  0  0
 51176  1  0  0  0  0
 52 53  1  0  0  0  0
 52 57  2  0  0  0  0
 53 54  2  0  0  0  0
 54 55  1  0  0  0  0
 54 61  1  0  0  0  0
 55 58  2  0  0  0  0
 56 55  1  0  0  0  0
 56177  1  0  0  0  0
 57 56  1  0  0  0  0
 57178  1  0  0  0  0
 58 59  1  0  0  0  0
 59 63  1  0  0  0  0
 60 59  2  0  0  0  0
 61 60  1  0  0  0  0
 61 62  2  0  0  0  0
 63179  1  0  0  0  0
 63180  1  0  0  0  0
 64 65  1  0  0  0  0
 64 66  2  0  0  0  0
 65181  1  0  0  0  0
 68 69  1  0  0  0  0
 68182  1  0  0  0  0
 68183  1  0  0  0  0
 69 70  1  0  0  0  0
 69 71  2  0  0  0  0
 70184  1  0  0  0  0
 73 74  1  0  0  0  0
 73185  1  0  0  0  0
 73186  1  0  0  0  0
 74 75  1  0  0  0  0
 74187  1  0  0  0  0
 74188  1  0  0  0  0
 75 76  1  0  0  0  0
 75189  1  0  0  0  0
 75190  1  0  0  0  0
 76 77  1  0  0  0  0
 76191  1  0  0  0  0
 77 78  2  0  0  0  0
 77 79  1  0  0  0  0
 78192  1  0  0  0  0
 79193  1  0  0  0  0
 79194  1  0  0  0  0
 81 82  1  0  0  0  0
 81195  1  0  0  0  0
 81196  1  0  0  0  0
 82 83  1  0  0  0  0
 82 84  2  0  0  0  0
 83197  1  0  0  0  0
 86 87  1  0  0  0  0
 86198  1  0  0  0  0
 86199  1  0  0  0  0
 87 88  1  0  0  0  0
 87 89  2  0  0  0  0
 88200  1  0  0  0  0
 91 92  1  0  0  0  0
 91 93  2  0  0  0  0
 92201  1  0  0  0  0
 96202  1  0  0  0  0
 97203  1  0  0  0  0
 97204  1  0  0  0  0
 97205  1  0  0  0  0
 98 99  1  0  0  0  0
 98206  1  0  0  0  0
 99129  1  0  0  0  0
100 99  2  0  0  0  0
101100  1  0  0  0  0
101207  1  0  0  0  0
102100  1  0  0  0  0
102103  1  1  0  0  0
102107  1  0  0  0  0
102121  1  0  0  0  0
103104  1  0  0  0  0
103106  2  0  0  0  0
104105  1  0  0  0  0
105208  1  0  0  0  0
105209  1  0  0  0  0
105210  1  0  0  0  0
107108  2  0  0  0  0
107111  1  0  0  0  0
108109  1  0  0  0  0
108116  1  0  0  0  0
109110  1  0  0  0  0
109115  2  0  0  0  0
110112  2  0  0  0  0
111110  1  0  0  0  0
111211  1  0  0  0  0
112113  1  0  0  0  0
112212  1  0  0  0  0
113213  1  0  0  0  0
114113  2  0  0  0  0
114214  1  0  0  0  0
115114  1  0  0  0  0
115215  1  0  0  0  0
116117  1  0  0  0  0
116216  1  0  0  0  0
116217  1  0  0  0  0
117218  1  0  0  0  0
117219  1  0  0  0  0
118117  1  1  0  0  0
118119  1  0  0  0  0
118124  1  0  0  0  0
119220  1  0  0  0  0
119221  1  0  0  0  0
120119  1  0  0  0  0
120122  1  0  0  0  0
120128  1  6  0  0  0
120121  1  0  0  0  0
121222  1  0  0  0  0
121223  1  0  0  0  0
122224  1  0  0  0  0
122225  1  0  0  0  0
123122  1  0  0  0  0
123124  1  0  0  0  0
123125  1  0  0  0  0
123127  1  1  0  0  0
124226  1  0  0  0  0
124227  1  0  0  0  0
125126  1  0  0  0  0
125228  1  0  0  0  0
125229  1  0  0  0  0
126230  1  0  0  0  0
126231  1  0  0  0  0
126232  1  0  0  0  0
127233  1  0  0  0  0
129130  1  0  0  0  0
130234  1  0  0  0  0
130235  1  0  0  0  0
130236  1  0  0  0  0
131132  1  0  0  0  0
131237  1  0  0  0  0
131238  1  0  0  0  0
132239  1  0  0  0  0
132240  1  0  0  0  0
133132  1  0  0  0  0
133134  1  0  0  0  0
134241  1  0  0  0  0
134242  1  0  0  0  0
135134  1  0  0  0  0
135243  1  0  0  0  0
136135  2  0  0  0  0
136244  1  0  0  0  0
M  END
>  <DRUGBANK_ID>
DB05168

>  <SECONDARY_ACCESSION_NUMBERS>
DB12503

>  <COMMON_NAME>
Vintafolide

>  <CAS_NUMBER>
742092-03-1

>  <UNII>
36O410ZD4I

>  <SYNONYMS>
Vintafolide

$$$$
