
 OpenBabel10282417072D

 66 67  0  0  0  0  0  0  0  0999 V2000
   -1.4289    0.6187    0.0000 C   0  0  0  0  0  0  0  0  0  0  0  0
   -0.7144    1.0312    0.0000 C   0  0  0  0  0  0  0  0  0  0  0  0
    0.0000    0.6187    0.0000 C   0  0  0  0  0  0  0  0  0  0  0  0
    0.0000   -0.2062    0.0000 C   0  0  0  0  0  0  0  0  0  0  0  0
   -0.7144   -0.6187    0.0000 C   0  0  0  0  0  0  0  0  0  0  0  0
   -0.7144   -1.4437    0.0000 C   0  0  0  0  0  0  0  0  0  0  0  0
   -1.4289   -1.8562    0.0000 C   0  0  0  0  0  0  0  0  0  0  0  0
   -2.1434   -1.4437    0.0000 C   0  0  0  0  0  0  0  0  0  0  0  0
   -2.1434   -0.6187    0.0000 C   0  0  0  0  0  0  0  0  0  0  0  0
   -1.4289   -0.2062    0.0000 C   0  0  0  0  0  0  0  0  0  0  0  0
   -2.1434    1.0312    0.0000 C   0  0  0  0  0  0  0  0  0  0  0  0
   -2.1434    1.8562    0.0000 N   0  0  0  0  0  0  0  0  0  0  0  0
   -2.8579    0.6187    0.0000 N   0  0  0  0  0  0  0  0  0  0  0  0
    0.7144   -0.6187    0.0000 O   0  0  0  0  0  0  0  0  0  0  0  0
    1.4289   -0.2062    0.0000 C   0  0  0  0  0  0  0  0  0  0  0  0
    2.1434   -0.6187    0.0000 C   0  0  0  0  0  0  0  0  0  0  0  0
    2.8579   -0.2062    0.0000 C   0  0  0  0  0  0  0  0  0  0  0  0
    3.5724   -0.6187    0.0000 C   0  0  0  0  0  0  0  0  0  0  0  0
    4.2868   -0.2062    0.0000 C   0  0  0  0  0  0  0  0  0  0  0  0
    5.0014   -0.6187    0.0000 C   0  0  0  0  0  0  0  0  0  0  0  0
   -2.8579   -0.2062    0.0000 C   0  0  0  0  0  0  0  0  0  0  0  0
   -3.5724   -0.6187    0.0000 C   0  0  0  0  0  0  0  0  0  0  0  0
   -3.5724   -1.4437    0.0000 C   0  0  0  0  0  0  0  0  0  0  0  0
   -4.2868   -1.8562    0.0000 C   0  0  0  0  0  0  0  0  0  0  0  0
   -3.5724    1.0312    0.0000 C   0  0  0  0  0  0  0  0  0  0  0  0
   -4.2868    0.6187    0.0000 C   0  0  0  0  0  0  0  0  0  0  0  0
   -4.2868   -0.2062    0.0000 C   0  0  0  0  0  0  0  0  0  0  0  0
   -5.0014   -0.6187    0.0000 C   0  0  0  0  0  0  0  0  0  0  0  0
   -0.7144    2.0632    0.0000 H   0  0  0  0  0  0  0  0  0  0  0  0
    0.8937    1.1347    0.0000 H   0  0  0  0  0  0  0  0  0  0  0  0
    0.1793   -1.9597    0.0000 H   0  0  0  0  0  0  0  0  0  0  0  0
   -1.4289   -2.8882    0.0000 H   0  0  0  0  0  0  0  0  0  0  0  0
   -3.0371   -1.9597    0.0000 H   0  0  0  0  0  0  0  0  0  0  0  0
   -3.0371   -0.1027    0.0000 H   0  0  0  0  0  0  0  0  0  0  0  0
   -1.2908    2.3485    0.0000 H   0  0  0  0  0  0  0  0  0  0  0  0
    1.4289    0.8638    0.0000 H   0  0  0  0  0  0  0  0  0  0  0  0
    0.5023    0.3288    0.0000 H   0  0  0  0  0  0  0  0  0  0  0  0
    2.1434   -1.6887    0.0000 H   0  0  0  0  0  0  0  0  0  0  0  0
    3.0700   -1.1537    0.0000 H   0  0  0  0  0  0  0  0  0  0  0  0
    2.8579    0.8638    0.0000 H   0  0  0  0  0  0  0  0  0  0  0  0
    3.7845    0.3288    0.0000 H   0  0  0  0  0  0  0  0  0  0  0  0
    3.5724   -1.6887    0.0000 H   0  0  0  0  0  0  0  0  0  0  0  0
    4.4991   -1.1537    0.0000 H   0  0  0  0  0  0  0  0  0  0  0  0
    4.2867    0.8638    0.0000 H   0  0  0  0  0  0  0  0  0  0  0  0
    5.2134    0.3289    0.0000 H   0  0  0  0  0  0  0  0  0  0  0  0
    5.0015   -1.6887    0.0000 H   0  0  0  0  0  0  0  0  0  0  0  0
    5.9280   -0.0836    0.0000 H   0  0  0  0  0  0  0  0  0  0  0  0
    5.9281   -1.1536    0.0000 H   0  0  0  0  0  0  0  0  0  0  0  0
   -1.9313   -0.7412    0.0000 H   0  0  0  0  0  0  0  0  0  0  0  0
   -1.9313    0.3288    0.0000 H   0  0  0  0  0  0  0  0  0  0  0  0
   -4.4990   -0.0837    0.0000 H   0  0  0  0  0  0  0  0  0  0  0  0
   -4.4990   -1.1537    0.0000 H   0  0  0  0  0  0  0  0  0  0  0  0
   -2.6457   -1.9787    0.0000 H   0  0  0  0  0  0  0  0  0  0  0  0
   -3.5724   -2.5137    0.0000 H   0  0  0  0  0  0  0  0  0  0  0  0
   -5.2135   -1.3212    0.0000 H   0  0  0  0  0  0  0  0  0  0  0  0
   -4.2868   -2.9262    0.0000 H   0  0  0  0  0  0  0  0  0  0  0  0
   -5.2134   -2.3912    0.0000 H   0  0  0  0  0  0  0  0  0  0  0  0
   -3.5724    2.1012    0.0000 H   0  0  0  0  0  0  0  0  0  0  0  0
   -2.6458    1.5662    0.0000 H   0  0  0  0  0  0  0  0  0  0  0  0
   -5.2135    1.1537    0.0000 H   0  0  0  0  0  0  0  0  0  0  0  0
   -5.2134    0.0837    0.0000 H   0  0  0  0  0  0  0  0  0  0  0  0
   -3.3602   -0.7412    0.0000 H   0  0  0  0  0  0  0  0  0  0  0  0
   -4.2869   -1.2762    0.0000 H   0  0  0  0  0  0  0  0  0  0  0  0
   -5.9280   -0.0836    0.0000 H   0  0  0  0  0  0  0  0  0  0  0  0
   -5.0015   -1.6887    0.0000 H   0  0  0  0  0  0  0  0  0  0  0  0
   -5.9281   -1.1536    0.0000 H   0  0  0  0  0  0  0  0  0  0  0  0
  1  2  1  0  0  0  0
  1 10  2  0  0  0  0
  1 11  1  0  0  0  0
  2  3  2  0  0  0  0
  2 29  1  0  0  0  0
  3  4  1  0  0  0  0
  3 30  1  0  0  0  0
  4  5  2  0  0  0  0
  4 14  1  0  0  0  0
  5  6  1  0  0  0  0
  5 10  1  0  0  0  0
  6  7  2  0  0  0  0
  6 31  1  0  0  0  0
  7  8  1  0  0  0  0
  7 32  1  0  0  0  0
  8  9  2  0  0  0  0
  8 33  1  0  0  0  0
  9 10  1  0  0  0  0
  9 34  1  0  0  0  0
 11 12  2  0  0  0  0
 11 13  1  0  0  0  0
 12 35  1  0  0  0  0
 13 21  1  0  0  0  0
 13 25  1  0  0  0  0
 14 15  1  0  0  0  0
 15 16  1  0  0  0  0
 15 36  1  0  0  0  0
 15 37  1  0  0  0  0
 16 17  1  0  0  0  0
 16 38  1  0  0  0  0
 16 39  1  0  0  0  0
 17 18  1  0  0  0  0
 17 40  1  0  0  0  0
 17 41  1  0  0  0  0
 18 19  1  0  0  0  0
 18 42  1  0  0  0  0
 18 43  1  0  0  0  0
 19 20  1  0  0  0  0
 19 44  1  0  0  0  0
 19 45  1  0  0  0  0
 20 46  1  0  0  0  0
 20 47  1  0  0  0  0
 20 48  1  0  0  0  0
 21 22  1  0  0  0  0
 21 49  1  0  0  0  0
 21 50  1  0  0  0  0
 22 23  1  0  0  0  0
 22 51  1  0  0  0  0
 22 52  1  0  0  0  0
 23 24  1  0  0  0  0
 23 53  1  0  0  0  0
 23 54  1  0  0  0  0
 24 55  1  0  0  0  0
 24 56  1  0  0  0  0
 24 57  1  0  0  0  0
 25 26  1  0  0  0  0
 25 58  1  0  0  0  0
 25 59  1  0  0  0  0
 26 27  1  0  0  0  0
 26 60  1  0  0  0  0
 26 61  1  0  0  0  0
 27 28  1  0  0  0  0
 27 62  1  0  0  0  0
 27 63  1  0  0  0  0
 28 64  1  0  0  0  0
 28 65  1  0  0  0  0
 28 66  1  0  0  0  0
M  END
>  <DRUGBANK_ID>
DB11501

>  <COMMON_NAME>
Bunamidine

>  <CAS_NUMBER>
3748-77-4

>  <UNII>
A9IW1G3P6C

>  <SYNONYMS>
Bunamidina; Bunamidine; Bunamidinum; N,N-Dibutyl-4-(hexyloxy)-1-naphthamidine; N,N-Dibutyl-4-hexyloxy-1-naphthamidin

$$$$
