
 OpenBabel10282417072D

 65 67  0  0  1  0  0  0  0  0999 V2000
   -5.3625    3.7934    0.0000 C   0  0  0  0  0  0  0  0  0  0  0  0
   -1.6500    0.8250    0.0000 C   0  0  0  0  0  0  0  0  0  0  0  0
   -1.6500    2.4750    0.0000 C   0  0  0  0  0  0  0  0  0  0  0  0
    2.4252    3.3611    0.0000 C   0  0  0  0  0  0  0  0  0  0  0  0
    1.5067    3.8914    0.0000 C   0  0  0  0  0  0  0  0  0  0  0  0
   -4.9500    3.0789    0.0000 C   0  0  0  0  0  0  0  0  0  0  0  0
   -4.1250    3.0789    0.0000 C   0  0  0  0  0  0  0  0  0  0  0  0
   -3.7125    2.3645    0.0000 C   0  0  0  0  0  0  0  0  0  0  0  0
   -2.8875    2.3645    0.0000 C   0  0  0  0  0  0  0  0  0  0  0  0
    3.3000    1.6500    0.0000 C   0  0  0  0  0  0  0  0  0  0  0  0
    2.8875    2.3645    0.0000 C   0  0  0  0  0  0  0  0  0  0  0  0
   -2.4750    1.6500    0.0000 C   0  0  0  0  0  0  0  0  0  0  0  0
    2.0625    0.9355    0.0000 C   0  0  0  0  0  0  0  0  0  0  0  0
   -0.4125    0.9355    0.0000 C   0  0  0  0  0  0  0  0  0  0  0  0
   -0.4125    2.3645    0.0000 C   0  0  0  0  0  0  0  0  0  0  0  0
    2.8875    0.9355    0.0000 C   0  0  0  0  0  0  0  0  0  0  0  0
   -0.8250    1.6500    0.0000 C   0  0  0  0  0  0  0  0  0  0  0  0
    1.6500    1.6500    0.0000 C   0  0  2  0  0  0  0  0  0  0  0  0
    2.0625    2.3645    0.0000 C   0  0  2  0  0  0  0  0  0  0  0  0
    0.4125    0.9355    0.0000 C   0  0  0  0  0  0  0  0  0  0  0  0
    0.4125    2.3645    0.0000 C   0  0  0  0  0  0  0  0  0  0  0  0
    0.8250    1.6500    0.0000 C   0  0  0  0  0  0  0  0  0  0  0  0
    3.3000    0.2211    0.0000 C   0  0  0  0  0  0  0  0  0  0  0  0
   -1.6500    1.6500    0.0000 C   0  0  0  0  0  0  0  0  0  0  0  0
    1.6500    3.0789    0.0000 C   0  0  0  0  0  0  0  0  0  0  0  0
    0.8250    0.2211    0.0000 O   0  0  0  0  0  0  0  0  0  0  0  0
    4.1250    0.2211    0.0000 O   0  0  0  0  0  0  0  0  0  0  0  0
    2.8875   -0.4934    0.0000 O   0  0  0  0  0  0  0  0  0  0  0  0
    0.8250    3.0789    0.0000 O   0  0  0  0  0  0  0  0  0  0  0  0
    1.2375    0.9355    0.0000 H   0  0  0  0  0  0  0  0  0  0  0  0
    2.4750    3.0789    0.0000 H   0  0  0  0  0  0  0  0  0  0  0  0
   -4.8275    4.7200    0.0000 H   0  0  0  0  0  0  0  0  0  0  0  0
   -6.4325    3.7934    0.0000 H   0  0  0  0  0  0  0  0  0  0  0  0
   -5.8975    4.7201    0.0000 H   0  0  0  0  0  0  0  0  0  0  0  0
   -2.5766    0.2900    0.0000 H   0  0  0  0  0  0  0  0  0  0  0  0
   -0.7234    0.2900    0.0000 H   0  0  0  0  0  0  0  0  0  0  0  0
   -1.6500   -0.2450    0.0000 H   0  0  0  0  0  0  0  0  0  0  0  0
   -0.7234    3.0100    0.0000 H   0  0  0  0  0  0  0  0  0  0  0  0
   -2.5766    3.0100    0.0000 H   0  0  0  0  0  0  0  0  0  0  0  0
   -1.6500    3.5450    0.0000 H   0  0  0  0  0  0  0  0  0  0  0  0
    3.2449    2.6734    0.0000 H   0  0  0  0  0  0  0  0  0  0  0  0
    2.6109    4.4149    0.0000 H   0  0  0  0  0  0  0  0  0  0  0  0
    3.4307    3.7271    0.0000 H   0  0  0  0  0  0  0  0  0  0  0  0
    2.3263    4.5792    0.0000 H   0  0  0  0  0  0  0  0  0  0  0  0
    0.5012    4.2573    0.0000 H   0  0  0  0  0  0  0  0  0  0  0  0
    1.3209    4.9451    0.0000 H   0  0  0  0  0  0  0  0  0  0  0  0
   -5.4850    2.1523    0.0000 H   0  0  0  0  0  0  0  0  0  0  0  0
   -4.4150    2.1523    0.0000 H   0  0  0  0  0  0  0  0  0  0  0  0
   -3.5900    4.0056    0.0000 H   0  0  0  0  0  0  0  0  0  0  0  0
   -3.0550    3.0789    0.0000 H   0  0  0  0  0  0  0  0  0  0  0  0
   -4.2475    1.4378    0.0000 H   0  0  0  0  0  0  0  0  0  0  0  0
   -3.1775    1.4379    0.0000 H   0  0  0  0  0  0  0  0  0  0  0  0
   -2.3525    3.2911    0.0000 H   0  0  0  0  0  0  0  0  0  0  0  0
   -1.8175    2.3645    0.0000 H   0  0  0  0  0  0  0  0  0  0  0  0
    4.3320    1.6500    0.0000 H   0  0  0  0  0  0  0  0  0  0  0  0
    3.4225    3.2911    0.0000 H   0  0  0  0  0  0  0  0  0  0  0  0
    2.3525    3.2911    0.0000 H   0  0  0  0  0  0  0  0  0  0  0  0
   -3.0100    0.7234    0.0000 H   0  0  0  0  0  0  0  0  0  0  0  0
   -1.9400    0.7234    0.0000 H   0  0  0  0  0  0  0  0  0  0  0  0
    1.5275    0.0089    0.0000 H   0  0  0  0  0  0  0  0  0  0  0  0
    0.9925    0.9355    0.0000 H   0  0  0  0  0  0  0  0  0  0  0  0
   -0.9285    0.0418    0.0000 H   0  0  0  0  0  0  0  0  0  0  0  0
   -0.9285    3.2582    0.0000 H   0  0  0  0  0  0  0  0  0  0  0  0
    0.3565   -0.5904    0.0000 H   0  0  0  0  0  0  0  0  0  0  0  0
    1.9505   -0.4934    0.0000 H   0  0  0  0  0  0  0  0  0  0  0  0
  1 32  1  0  0  0  0
  1 33  1  0  0  0  0
  1 34  1  0  0  0  0
  2 35  1  0  0  0  0
  2 36  1  0  0  0  0
  2 37  1  0  0  0  0
  3 38  1  0  0  0  0
  3 39  1  0  0  0  0
  3 40  1  0  0  0  0
  4 41  1  0  0  0  0
  4 42  1  0  0  0  0
  4 43  1  0  0  0  0
  5 44  1  0  0  0  0
  5 45  1  0  0  0  0
  5 46  1  0  0  0  0
  6  1  1  0  0  0  0
  6 47  1  0  0  0  0
  6 48  1  0  0  0  0
  7  6  1  0  0  0  0
  7 49  1  0  0  0  0
  7 50  1  0  0  0  0
  8  7  1  0  0  0  0
  8 51  1  0  0  0  0
  8 52  1  0  0  0  0
  9  8  1  0  0  0  0
  9 53  1  0  0  0  0
  9 54  1  0  0  0  0
 10 55  1  0  0  0  0
 11 10  1  0  0  0  0
 11 56  1  0  0  0  0
 11 57  1  0  0  0  0
 12  9  1  0  0  0  0
 12 58  1  0  0  0  0
 12 59  1  0  0  0  0
 13 60  1  0  0  0  0
 13 61  1  0  0  0  0
 14 62  1  0  0  0  0
 15 63  1  0  0  0  0
 16 10  2  0  0  0  0
 16 13  1  0  0  0  0
 17 14  2  0  0  0  0
 17 15  1  0  0  0  0
 18 13  1  0  0  0  0
 18 30  1  6  0  0  0
 19 11  1  0  0  0  0
 19 18  1  0  0  0  0
 19 31  1  1  0  0  0
 20 14  1  0  0  0  0
 21 15  2  0  0  0  0
 22 18  1  0  0  0  0
 22 20  2  0  0  0  0
 22 21  1  0  0  0  0
 23 16  1  0  0  0  0
 24  2  1  0  0  0  0
 24  3  1  0  0  0  0
 24 12  1  0  0  0  0
 24 17  1  0  0  0  0
 25  4  1  0  0  0  0
 25  5  1  0  0  0  0
 25 19  1  0  0  0  0
 26 20  1  0  0  0  0
 26 64  1  0  0  0  0
 27 23  2  0  0  0  0
 28 23  1  0  0  0  0
 28 65  1  0  0  0  0
 29 21  1  0  0  0  0
 29 25  1  0  0  0  0
M  END
>  <DRUGBANK_ID>
DB12193

>  <COMMON_NAME>
Lenabasum

>  <CAS_NUMBER>
137945-48-3

>  <UNII>
OGN7X90BT8

>  <SYNONYMS>
(6aR,10aR)-1-hydroxy-6,6-dimethyl-3-(2-methyloctan-2-yl)-6a,7,10,10a-tetrahydrobenzo[c]chromene-9-carboxylic acid; Ajulemic acid; Anabasum; JBT-101; Lenabasum

$$$$
