
 OpenBabel10282417072D

 51 54  0  0  0  0  0  0  0  0999 V2000
    1.6405   -1.1331    0.0000 N   0  0  0  0  0  0  0  0  0  0  0  0
    1.6405   -0.2902    0.0000 C   0  0  1  0  0  0  0  0  0  0  0  0
    0.8156   -1.1175    0.0000 C   0  0  0  0  0  0  0  0  0  0  0  0
    0.8156   -0.2824    0.0000 C   0  0  1  0  0  0  0  0  0  0  0  0
    2.4316   -1.3674    0.0000 C   0  0  2  0  0  0  0  0  0  0  0  0
    2.4239   -0.0482    0.0000 S   0  0  0  0  0  0  0  0  0  0  0  0
   -0.6595   -0.3058    0.0000 C   0  0  0  0  0  0  0  0  0  0  0  0
    2.8975   -0.7195    0.0000 C   0  0  0  0  0  0  0  0  0  0  0  0
    0.1054    0.1313    0.0000 N   0  0  0  0  0  0  0  0  0  0  0  0
   -1.3934    0.1859    0.0000 C   0  0  0  0  0  0  0  0  0  0  0  0
    2.6893   -2.1638    0.0000 C   0  0  0  0  0  0  0  0  0  0  0  0
   -1.3856    1.0004    0.0000 C   0  0  0  0  0  0  0  0  0  0  0  0
    0.1680   -1.5392    0.0000 O   0  0  0  0  0  0  0  0  0  0  0  0
   -2.1193   -0.2121    0.0000 C   0  0  0  0  0  0  0  0  0  0  0  0
   -0.6673   -1.0134    0.0000 O   0  0  0  0  0  0  0  0  0  0  0  0
    3.4233   -2.1638    0.0000 O   0  0  0  0  0  0  0  0  0  0  0  0
    2.1976   -2.6528    0.0000 O   0  0  0  0  0  0  0  0  0  0  0  0
   -2.1273    1.4272    0.0000 C   0  0  0  0  0  0  0  0  0  0  0  0
   -2.8221    0.1884    0.0000 C   0  0  0  0  0  0  0  0  0  0  0  0
   -2.8170    1.0836    0.0000 C   0  0  0  0  0  0  0  0  0  0  0  0
    3.5325   -0.1576    0.0000 C   0  0  0  0  0  0  0  0  0  0  0  0
    3.5325   -1.2738    0.0000 C   0  0  0  0  0  0  0  0  0  0  0  0
   -2.1116   -1.0629    0.0000 O   0  0  0  0  0  0  0  0  0  0  0  0
   -0.7376    1.4428    0.0000 C   0  0  0  0  0  0  0  0  0  0  0  0
   -2.1350    2.3121    0.0000 C   0  0  0  0  0  0  0  0  0  0  0  0
   -2.8456   -1.4298    0.0000 C   0  0  0  0  0  0  0  0  0  0  0  0
   -0.7376    2.2444    0.0000 C   0  0  0  0  0  0  0  0  0  0  0  0
   -3.5325   -1.1331    0.0000 C   0  0  0  0  0  0  0  0  0  0  0  0
   -1.4558    2.6528    0.0000 C   0  0  0  0  0  0  0  0  0  0  0  0
    1.6328    0.4122    0.0000 H   0  0  0  0  0  0  0  0  0  0  0  0
   -0.1121   -0.8156    0.0000 H   0  0  0  0  0  0  0  0  0  0  0  0
    1.6845   -2.1334    0.0000 H   0  0  0  0  0  0  0  0  0  0  0  0
    0.1095    1.1158    0.0000 H   0  0  0  0  0  0  0  0  0  0  0  0
    3.8918   -2.9753    0.0000 H   0  0  0  0  0  0  0  0  0  0  0  0
   -3.7159   -0.3276    0.0000 H   0  0  0  0  0  0  0  0  0  0  0  0
   -3.6929    1.6293    0.0000 H   0  0  0  0  0  0  0  0  0  0  0  0
    4.5472   -0.4970    0.0000 H   0  0  0  0  0  0  0  0  0  0  0  0
    3.3191    0.8909    0.0000 H   0  0  0  0  0  0  0  0  0  0  0  0
    4.3338    0.5515    0.0000 H   0  0  0  0  0  0  0  0  0  0  0  0
    3.3262   -2.3237    0.0000 H   0  0  0  0  0  0  0  0  0  0  0  0
    4.5449   -0.9275    0.0000 H   0  0  0  0  0  0  0  0  0  0  0  0
    4.3386   -1.9774    0.0000 H   0  0  0  0  0  0  0  0  0  0  0  0
    0.1750    0.9609    0.0000 H   0  0  0  0  0  0  0  0  0  0  0  0
   -3.0156    2.8503    0.0000 H   0  0  0  0  0  0  0  0  0  0  0  0
   -2.8157   -2.4994    0.0000 H   0  0  0  0  0  0  0  0  0  0  0  0
   -3.7314   -2.0300    0.0000 H   0  0  0  0  0  0  0  0  0  0  0  0
    0.1544    2.7633    0.0000 H   0  0  0  0  0  0  0  0  0  0  0  0
   -3.6562   -0.0703    0.0000 H   0  0  0  0  0  0  0  0  0  0  0  0
   -4.3911   -1.7716    0.0000 H   0  0  0  0  0  0  0  0  0  0  0  0
   -4.5148   -0.7088    0.0000 H   0  0  0  0  0  0  0  0  0  0  0  0
   -1.4289    3.6844    0.0000 H   0  0  0  0  0  0  0  0  0  0  0  0
  2  1  1  0  0  0  0
  2 30  1  6  0  0  0
  2  4  1  0  0  0  0
  3  1  1  0  0  0  0
  4  3  1  0  0  0  0
  4  9  1  0  0  0  0
  4 31  1  6  0  0  0
  5  1  1  0  0  0  0
  5 11  1  0  0  0  0
  5 32  1  1  0  0  0
  6  2  1  0  0  0  0
  6  8  1  0  0  0  0
  7  9  1  0  0  0  0
  8  5  1  0  0  0  0
  9 33  1  0  0  0  0
 10  7  1  0  0  0  0
 12 10  1  0  0  0  0
 13  3  2  0  0  0  0
 14 10  2  0  0  0  0
 15  7  2  0  0  0  0
 16 11  1  0  0  0  0
 16 34  1  0  0  0  0
 17 11  2  0  0  0  0
 18 12  1  0  0  0  0
 18 20  1  0  0  0  0
 19 14  1  0  0  0  0
 19 35  1  0  0  0  0
 20 19  2  0  0  0  0
 20 36  1  0  0  0  0
 21  8  1  0  0  0  0
 21 37  1  0  0  0  0
 21 38  1  0  0  0  0
 21 39  1  0  0  0  0
 22  8  1  0  0  0  0
 22 40  1  0  0  0  0
 22 41  1  0  0  0  0
 22 42  1  0  0  0  0
 23 14  1  0  0  0  0
 24 12  2  0  0  0  0
 24 43  1  0  0  0  0
 25 18  2  0  0  0  0
 25 29  1  0  0  0  0
 25 44  1  0  0  0  0
 26 23  1  0  0  0  0
 26 45  1  0  0  0  0
 26 46  1  0  0  0  0
 27 24  1  0  0  0  0
 27 47  1  0  0  0  0
 28 26  1  0  0  0  0
 28 48  1  0  0  0  0
 28 49  1  0  0  0  0
 28 50  1  0  0  0  0
 29 27  2  0  0  0  0
 29 51  1  0  0  0  0
M  END
>  <DRUGBANK_ID>
DB00607

>  <SECONDARY_ACCESSION_NUMBERS>
APRD01130; DB08269

>  <COMMON_NAME>
Nafcillin

>  <CAS_NUMBER>
147-52-4

>  <UNII>
4CNZ27M7RV

>  <SYNONYMS>
(2-ethoxy-1-naphthalenyl)penicillin; (2-ethoxy-1-naphthyl)penicillin; (2S,5R,6R)-6-[(2-ethoxy-1-naphthoyl)amino]-3,3-dimethyl-7-oxo-4-thia-1-azabicyclo[3.2.0]heptane-2-carboxylic acid; 6-(2-ethoxy-1-naphthamido)penicillanic acid; Nafcilina; Nafcillin; Nafcilline; Nafcillinum; Naphcillin

$$$$
