
 OpenBabel10282417072D

 45 47  0  0  0  0  0  0  0  0999 V2000
    5.9471   -3.7578    0.0000 C   0  0  0  0  0  0  0  0  0  0  0  0
    5.6451   -2.6308    0.0000 C   0  0  0  0  0  0  0  0  0  0  0  0
    6.1237   -0.0260    0.0000 C   0  0  0  0  0  0  0  0  0  0  0  0
    1.4837   -0.0260    0.0000 C   0  0  0  0  0  0  0  0  0  0  0  0
    5.9401   -0.8303    0.0000 C   0  0  0  0  0  0  0  0  0  0  0  0
    1.6673   -0.8303    0.0000 C   0  0  0  0  0  0  0  0  0  0  0  0
    4.5181   -2.1078    0.0000 C   0  0  0  0  0  0  0  0  0  0  0  0
    5.5189    0.5352    0.0000 C   0  0  0  0  0  0  0  0  0  0  0  0
    2.0884    0.5352    0.0000 C   0  0  0  0  0  0  0  0  0  0  0  0
    5.1517   -1.0735    0.0000 C   0  0  0  0  0  0  0  0  0  0  0  0
    2.4556   -1.0735    0.0000 C   0  0  0  0  0  0  0  0  0  0  0  0
    3.8037   -1.6953    0.0000 C   0  0  0  0  0  0  0  0  0  0  0  0
    4.2162    0.9370    0.0000 C   0  0  0  0  0  0  0  0  0  0  0  0
    3.3912    0.9370    0.0000 C   0  0  0  0  0  0  0  0  0  0  0  0
    4.5181   -2.9328    0.0000 C   0  0  0  0  0  0  0  0  0  0  0  0
    4.7305    0.2920    0.0000 C   0  0  0  0  0  0  0  0  0  0  0  0
    2.8768    0.2920    0.0000 C   0  0  0  0  0  0  0  0  0  0  0  0
    4.5470   -0.5123    0.0000 C   0  0  0  0  0  0  0  0  0  0  0  0
    3.0604   -0.5123    0.0000 C   0  0  0  0  0  0  0  0  0  0  0  0
    3.8037   -0.8703    0.0000 C   0  0  0  0  0  0  0  0  0  0  0  0
    5.2326   -3.3453    0.0000 N   0  0  0  0  0  0  0  0  0  0  0  0
    4.8201   -4.0597    0.0000 O   0  0  0  0  0  0  0  0  0  0  0  0
    5.9471   -4.8278    0.0000 H   0  0  0  0  0  0  0  0  0  0  0  0
    6.8737   -3.2228    0.0000 H   0  0  0  0  0  0  0  0  0  0  0  0
    6.8738   -4.2928    0.0000 H   0  0  0  0  0  0  0  0  0  0  0  0
    6.7151   -2.6308    0.0000 H   0  0  0  0  0  0  0  0  0  0  0  0
    5.1101   -1.7042    0.0000 H   0  0  0  0  0  0  0  0  0  0  0  0
    6.1801   -1.7041    0.0000 H   0  0  0  0  0  0  0  0  0  0  0  0
    7.1099    0.2782    0.0000 H   0  0  0  0  0  0  0  0  0  0  0  0
    0.4975    0.2781    0.0000 H   0  0  0  0  0  0  0  0  0  0  0  0
    6.6966   -1.5322    0.0000 H   0  0  0  0  0  0  0  0  0  0  0  0
    0.9108   -1.5322    0.0000 H   0  0  0  0  0  0  0  0  0  0  0  0
    5.4448   -1.5728    0.0000 H   0  0  0  0  0  0  0  0  0  0  0  0
    5.4447   -2.6428    0.0000 H   0  0  0  0  0  0  0  0  0  0  0  0
    5.7485    1.5413    0.0000 H   0  0  0  0  0  0  0  0  0  0  0  0
    1.8587    1.5413    0.0000 H   0  0  0  0  0  0  0  0  0  0  0  0
    4.9220   -2.0796    0.0000 H   0  0  0  0  0  0  0  0  0  0  0  0
    2.6852   -2.0796    0.0000 H   0  0  0  0  0  0  0  0  0  0  0  0
    2.9100   -2.2113    0.0000 H   0  0  0  0  0  0  0  0  0  0  0  0
    4.6805    1.9010    0.0000 H   0  0  0  0  0  0  0  0  0  0  0  0
    5.2795    1.0567    0.0000 H   0  0  0  0  0  0  0  0  0  0  0  0
    2.9270    1.9010    0.0000 H   0  0  0  0  0  0  0  0  0  0  0  0
    2.3279    1.0568    0.0000 H   0  0  0  0  0  0  0  0  0  0  0  0
    3.5915   -3.4678    0.0000 H   0  0  0  0  0  0  0  0  0  0  0  0
    4.5181   -4.0028    0.0000 H   0  0  0  0  0  0  0  0  0  0  0  0
  1 23  1  0  0  0  0
  1 24  1  0  0  0  0
  1 25  1  0  0  0  0
  2 26  1  0  0  0  0
  2 27  1  0  0  0  0
  2 28  1  0  0  0  0
  3 29  1  0  0  0  0
  4 30  1  0  0  0  0
  5  3  2  0  0  0  0
  5 31  1  0  0  0  0
  6  4  2  0  0  0  0
  6 32  1  0  0  0  0
  7 33  1  0  0  0  0
  7 34  1  0  0  0  0
  8  3  1  0  0  0  0
  8 35  1  0  0  0  0
  9  4  1  0  0  0  0
  9 36  1  0  0  0  0
 10  5  1  0  0  0  0
 10 37  1  0  0  0  0
 11  6  1  0  0  0  0
 11 38  1  0  0  0  0
 12  7  1  0  0  0  0
 12 39  1  0  0  0  0
 13 40  1  0  0  0  0
 13 41  1  0  0  0  0
 14 13  1  0  0  0  0
 14 42  1  0  0  0  0
 14 43  1  0  0  0  0
 15  7  1  0  0  0  0
 15 44  1  0  0  0  0
 15 45  1  0  0  0  0
 16  8  2  0  0  0  0
 16 13  1  0  0  0  0
 17  9  2  0  0  0  0
 17 14  1  0  0  0  0
 18 10  2  0  0  0  0
 18 16  1  0  0  0  0
 19 11  2  0  0  0  0
 19 17  1  0  0  0  0
 20 12  2  0  0  0  0
 20 18  1  0  0  0  0
 20 19  1  0  0  0  0
 21  1  1  0  0  0  0
 21  2  1  0  0  0  0
 21 15  1  0  0  0  0
 22 21  2  0  0  0  0
M  END
>  <DRUGBANK_ID>
DB13114

>  <COMMON_NAME>
Amitriptylinoxide

>  <CAS_NUMBER>
4317-14-0

>  <UNII>
TYR2U59WMA

>  <SYNONYMS>
Amitriptylinoxide

$$$$
