IX1
 OpenBabel10282417072D

 50 52  0  0  0  0  0  0  0  0999 V2000
    2.5183   -1.6905    0.0000 C   0  0  0  0  0  0  0  0  0  0  0  0
    1.8038   -2.1030    0.0000 C   0  0  0  0  0  0  0  0  0  0  0  0
    1.0894   -1.6905    0.0000 C   0  0  0  0  0  0  0  0  0  0  0  0
    1.0894   -0.8655    0.0000 C   0  0  0  0  0  0  0  0  0  0  0  0
    1.8038   -0.4530    0.0000 C   0  0  0  0  0  0  0  0  0  0  0  0
    2.5183   -0.8655    0.0000 C   0  0  0  0  0  0  0  0  0  0  0  0
    1.8038   -2.9280    0.0000 C   0  0  0  0  0  0  0  0  0  0  0  0
    2.4713   -3.4129    0.0000 O   0  0  0  0  0  0  0  0  0  0  0  0
    2.2163   -4.1975    0.0000 N   0  0  0  0  0  0  0  0  0  0  0  0
    1.3913   -4.1975    0.0000 C   0  0  0  0  0  0  0  0  0  0  0  0
    1.1364   -3.4129    0.0000 C   0  0  0  0  0  0  0  0  0  0  0  0
    0.9064   -4.8649    0.0000 C   0  0  0  0  0  0  0  0  0  0  0  0
    1.2420   -5.6186    0.0000 O   0  0  0  0  0  0  0  0  0  0  0  0
    0.0859   -4.7787    0.0000 O   0  0  0  0  0  0  0  0  0  0  0  0
    0.3749   -0.4530    0.0000 C   0  0  0  0  0  0  0  0  0  0  0  0
   -1.0540    2.0220    0.0000 C   0  0  0  0  0  0  0  0  0  0  0  0
   -1.7685    1.6095    0.0000 C   0  0  0  0  0  0  0  0  0  0  0  0
   -2.4830    2.0220    0.0000 C   0  0  0  0  0  0  0  0  0  0  0  0
   -2.4830    2.8470    0.0000 C   0  0  0  0  0  0  0  0  0  0  0  0
   -1.7685    3.2595    0.0000 C   0  0  0  0  0  0  0  0  0  0  0  0
   -1.0540    2.8470    0.0000 C   0  0  0  0  0  0  0  0  0  0  0  0
   -0.3396    3.2595    0.0000 C   0  0  0  0  0  0  0  0  0  0  0  0
    0.3749    2.8470    0.0000 O   0  0  0  0  0  0  0  0  0  0  0  0
   -0.3396    4.0845    0.0000 O   0  0  0  0  0  0  0  0  0  0  0  0
   -1.0540    4.4970    0.0000 C   0  0  0  0  0  0  0  0  0  0  0  0
   -1.7685    4.0845    0.0000 O   0  0  0  0  0  0  0  0  0  0  0  0
   -0.3396    1.6095    0.0000 O   0  0  0  0  0  0  0  0  0  0  0  0
   -0.3396    0.7845    0.0000 C   0  0  0  0  0  0  0  0  0  0  0  0
    0.3749    0.3720    0.0000 C   0  0  0  0  0  0  0  0  0  0  0  0
    0.3518   -3.1579    0.0000 C   0  0  0  0  0  0  0  0  0  0  0  0
   -0.2613   -3.7100    0.0000 O   0  0  0  0  0  0  0  0  0  0  0  0
    3.4120   -2.2065    0.0000 H   0  0  0  0  0  0  0  0  0  0  0  0
    0.1957   -2.2065    0.0000 H   0  0  0  0  0  0  0  0  0  0  0  0
    1.8038    0.5790    0.0000 H   0  0  0  0  0  0  0  0  0  0  0  0
    3.4120   -0.3495    0.0000 H   0  0  0  0  0  0  0  0  0  0  0  0
    0.6913   -6.3767    0.0000 H   0  0  0  0  0  0  0  0  0  0  0  0
   -0.5188   -0.9690    0.0000 H   0  0  0  0  0  0  0  0  0  0  0  0
   -1.7685    0.5775    0.0000 H   0  0  0  0  0  0  0  0  0  0  0  0
   -3.3767    1.5060    0.0000 H   0  0  0  0  0  0  0  0  0  0  0  0
   -3.3767    3.3630    0.0000 H   0  0  0  0  0  0  0  0  0  0  0  0
   -1.0540    5.5670    0.0000 H   0  0  0  0  0  0  0  0  0  0  0  0
   -1.9807    3.9620    0.0000 H   0  0  0  0  0  0  0  0  0  0  0  0
   -1.9806    5.0320    0.0000 H   0  0  0  0  0  0  0  0  0  0  0  0
   -0.9570    4.5530    0.0000 H   0  0  0  0  0  0  0  0  0  0  0  0
   -1.2662    0.2495    0.0000 H   0  0  0  0  0  0  0  0  0  0  0  0
   -0.3396   -0.2855    0.0000 H   0  0  0  0  0  0  0  0  0  0  0  0
    1.2686    0.8880    0.0000 H   0  0  0  0  0  0  0  0  0  0  0  0
    0.1293   -2.1113    0.0000 H   0  0  0  0  0  0  0  0  0  0  0  0
   -0.6658   -2.8273    0.0000 H   0  0  0  0  0  0  0  0  0  0  0  0
   -1.1838   -3.4103    0.0000 H   0  0  0  0  0  0  0  0  0  0  0  0
  1  2  2  0  0  0  0
  1  6  1  0  0  0  0
  1 32  1  0  0  0  0
  2  3  1  0  0  0  0
  2  7  1  0  0  0  0
  3  4  2  0  0  0  0
  3 33  1  0  0  0  0
  4  5  1  0  0  0  0
  4 15  1  0  0  0  0
  5  6  2  0  0  0  0
  5 34  1  0  0  0  0
  6 35  1  0  0  0  0
  7  8  1  0  0  0  0
  7 11  2  0  0  0  0
  8  9  1  0  0  0  0
  9 10  2  0  0  0  0
 10 11  1  0  0  0  0
 10 12  1  0  0  0  0
 11 30  1  0  0  0  0
 12 13  1  0  0  0  0
 12 14  2  0  0  0  0
 13 36  1  0  0  0  0
 15 29  2  0  0  0  0
 15 37  1  0  0  0  0
 16 17  2  0  0  0  0
 16 21  1  0  0  0  0
 16 27  1  0  0  0  0
 17 18  1  0  0  0  0
 17 38  1  0  0  0  0
 18 19  2  0  0  0  0
 18 39  1  0  0  0  0
 19 20  1  0  0  0  0
 19 40  1  0  0  0  0
 20 21  2  0  0  0  0
 20 26  1  0  0  0  0
 21 22  1  0  0  0  0
 22 23  2  0  0  0  0
 22 24  1  0  0  0  0
 24 25  1  0  0  0  0
 25 41  1  0  0  0  0
 25 42  1  0  0  0  0
 25 43  1  0  0  0  0
 26 44  1  0  0  0  0
 27 28  1  0  0  0  0
 28 29  1  0  0  0  0
 28 45  1  0  0  0  0
 28 46  1  0  0  0  0
 29 47  1  0  0  0  0
 30 31  1  0  0  0  0
 30 48  1  0  0  0  0
 30 49  1  0  0  0  0
 31 50  1  0  0  0  0
M  END
>  <DRUGBANK_ID>
DB08001

>  <COMMON_NAME>
5-(3-{3-[3-HYDROXY-2-(METHOXYCARBONYL)PHENOXY]PROPENYL}PHENYL)-4-(HYDROXYMETHYL)ISOXAZOLE-3-CARBOXYLIC ACID

$$$$
