
 OpenBabel10282417072D

 64 67  0  0  1  0  0  0  0  0999 V2000
   -8.5737   -5.7750    0.0000 C   0  0  0  0  0  0  0  0  0  0  0  0
   -8.5737   -6.6000    0.0000 C   0  0  0  0  0  0  0  0  0  0  0  0
   -9.2881   -7.0125    0.0000 C   0  0  0  0  0  0  0  0  0  0  0  0
   -9.2881   -7.8375    0.0000 C   0  0  0  0  0  0  0  0  0  0  0  0
   -8.5737   -8.2500    0.0000 C   0  0  0  0  0  0  0  0  0  0  0  0
   -7.8592   -7.8375    0.0000 C   0  0  0  0  0  0  0  0  0  0  0  0
   -7.8592   -7.0125    0.0000 C   0  0  0  0  0  0  0  0  0  0  0  0
   -7.1447   -6.6000    0.0000 C   0  0  0  0  0  0  0  0  0  0  0  0
   -7.1447   -5.7750    0.0000 N   0  0  0  0  0  0  0  0  0  0  0  0
   -7.8592   -5.3625    0.0000 C   0  0  0  0  0  0  0  0  0  0  0  0
   -7.8592   -4.5375    0.0000 C   0  0  0  0  0  0  0  0  0  0  0  0
   -7.8592   -3.7125    0.0000 C   0  0  0  0  0  0  0  0  0  0  0  0
   -6.4302   -5.3625    0.0000 C   0  0  0  0  0  0  0  0  0  0  0  0
   -6.4302   -4.5375    0.0000 C   0  0  0  0  0  0  0  0  0  0  0  0
   -5.7158   -4.1250    0.0000 C   0  0  0  0  0  0  0  0  0  0  0  0
   -5.0013   -4.5375    0.0000 C   0  0  0  0  0  0  0  0  0  0  0  0
   -5.0013   -5.3625    0.0000 C   0  0  0  0  0  0  0  0  0  0  0  0
   -5.7158   -5.7750    0.0000 C   0  0  0  0  0  0  0  0  0  0  0  0
   -4.2868   -5.7750    0.0000 F   0  0  0  0  0  0  0  0  0  0  0  0
   -4.2868   -4.1250    0.0000 C   0  0  0  0  0  0  0  0  0  0  0  0
   -4.2868   -3.3000    0.0000 O   0  0  0  0  0  0  0  0  0  0  0  0
   -3.5724   -4.5375    0.0000 N   0  0  0  0  0  0  0  0  0  0  0  0
   -2.8579   -4.1250    0.0000 C   0  0  1  0  0  0  0  0  0  0  0  0
   -2.1434   -4.5375    0.0000 C   0  0  0  0  0  0  0  0  0  0  0  0
   -1.4289   -4.1250    0.0000 C   0  0  0  0  0  0  0  0  0  0  0  0
   -0.7145   -4.5375    0.0000 C   0  0  0  0  0  0  0  0  0  0  0  0
    0.0392   -4.2019    0.0000 N   0  0  0  0  0  0  0  0  0  0  0  0
    0.5912   -4.8150    0.0000 N   0  0  0  0  0  0  0  0  0  0  0  0
    0.1787   -5.5295    0.0000 N   0  0  0  0  0  0  0  0  0  0  0  0
   -0.6282   -5.3580    0.0000 N   0  0  0  0  0  0  0  0  0  0  0  0
   -2.8579   -3.3000    0.0000 C   0  0  0  0  0  0  0  0  0  0  0  0
   -2.1434   -2.8875    0.0000 O   0  0  0  0  0  0  0  0  0  0  0  0
   -3.5724   -2.8875    0.0000 O   0  0  0  0  0  0  0  0  0  0  0  0
   -8.5737   -9.0750    0.0000 C   0  0  0  0  0  0  0  0  0  0  0  0
   -7.8592   -9.4875    0.0000 O   0  0  0  0  0  0  0  0  0  0  0  0
   -9.2881   -9.4875    0.0000 N   0  0  0  0  0  0  0  0  0  0  0  0
  -10.0026   -9.0750    0.0000 C   0  0  0  0  0  0  0  0  0  0  0  0
  -10.0026   -8.2500    0.0000 N   0  0  0  0  0  0  0  0  0  0  0  0
  -10.7171   -9.4875    0.0000 C   0  0  0  0  0  0  0  0  0  0  0  0
   -7.6471   -5.2400    0.0000 H   0  0  0  0  0  0  0  0  0  0  0  0
   -9.5003   -5.2400    0.0000 H   0  0  0  0  0  0  0  0  0  0  0  0
   -8.5737   -4.7050    0.0000 H   0  0  0  0  0  0  0  0  0  0  0  0
  -10.1818   -6.4965    0.0000 H   0  0  0  0  0  0  0  0  0  0  0  0
   -6.9655   -8.3535    0.0000 H   0  0  0  0  0  0  0  0  0  0  0  0
   -6.2181   -7.1350    0.0000 H   0  0  0  0  0  0  0  0  0  0  0  0
   -6.2181   -6.0650    0.0000 H   0  0  0  0  0  0  0  0  0  0  0  0
   -8.7858   -5.8975    0.0000 H   0  0  0  0  0  0  0  0  0  0  0  0
   -8.7858   -4.8275    0.0000 H   0  0  0  0  0  0  0  0  0  0  0  0
   -7.8592   -2.7185    0.0000 H   0  0  0  0  0  0  0  0  0  0  0  0
   -7.3239   -4.0215    0.0000 H   0  0  0  0  0  0  0  0  0  0  0  0
   -5.7158   -3.0930    0.0000 H   0  0  0  0  0  0  0  0  0  0  0  0
   -5.7158   -6.8070    0.0000 H   0  0  0  0  0  0  0  0  0  0  0  0
   -3.5724   -5.5220    0.0000 H   0  0  0  0  0  0  0  0  0  0  0  0
   -2.8579   -5.1950    0.0000 H   0  0  0  0  0  0  0  0  0  0  0  0
   -2.1434   -5.6075    0.0000 H   0  0  0  0  0  0  0  0  0  0  0  0
   -1.2168   -5.0725    0.0000 H   0  0  0  0  0  0  0  0  0  0  0  0
   -1.4289   -3.0550    0.0000 H   0  0  0  0  0  0  0  0  0  0  0  0
   -0.5022   -3.5900    0.0000 H   0  0  0  0  0  0  0  0  0  0  0  0
    0.2439   -3.2389    0.0000 H   0  0  0  0  0  0  0  0  0  0  0  0
   -3.5724   -1.9505    0.0000 H   0  0  0  0  0  0  0  0  0  0  0  0
  -10.8552   -7.7577    0.0000 H   0  0  0  0  0  0  0  0  0  0  0  0
  -11.6437   -8.9525    0.0000 H   0  0  0  0  0  0  0  0  0  0  0  0
  -10.7171  -10.5575    0.0000 H   0  0  0  0  0  0  0  0  0  0  0  0
  -11.6438  -10.0225    0.0000 H   0  0  0  0  0  0  0  0  0  0  0  0
  1  2  1  0  0  0  0
  1 40  1  0  0  0  0
  1 41  1  0  0  0  0
  1 42  1  0  0  0  0
  2  3  1  0  0  0  0
  2  7  2  0  0  0  0
  3  4  2  0  0  0  0
  3 43  1  0  0  0  0
  4  5  1  0  0  0  0
  4 38  1  0  0  0  0
  5  6  2  0  0  0  0
  5 34  1  0  0  0  0
  6  7  1  0  0  0  0
  6 44  1  0  0  0  0
  7  8  1  0  0  0  0
  8  9  1  0  0  0  0
  8 45  1  0  0  0  0
  8 46  1  0  0  0  0
  9 10  1  0  0  0  0
  9 13  1  0  0  0  0
 10 11  1  0  0  0  0
 10 47  1  0  0  0  0
 10 48  1  0  0  0  0
 11 12  3  0  0  0  0
 12 49  1  0  0  0  0
 13 14  2  0  0  0  0
 13 18  1  0  0  0  0
 14 15  1  0  0  0  0
 14 50  1  0  0  0  0
 15 16  2  0  0  0  0
 15 51  1  0  0  0  0
 16 17  1  0  0  0  0
 16 20  1  0  0  0  0
 17 18  2  0  0  0  0
 17 19  1  0  0  0  0
 18 52  1  0  0  0  0
 20 21  2  0  0  0  0
 20 22  1  0  0  0  0
 22 53  1  0  0  0  0
 23 22  1  0  0  0  0
 23 24  1  0  0  0  0
 23 31  1  0  0  0  0
 23 54  1  1  0  0  0
 24 25  1  0  0  0  0
 24 55  1  0  0  0  0
 24 56  1  0  0  0  0
 25 26  1  0  0  0  0
 25 57  1  0  0  0  0
 25 58  1  0  0  0  0
 26 27  1  0  0  0  0
 26 30  2  0  0  0  0
 27 28  1  0  0  0  0
 27 59  1  0  0  0  0
 28 29  2  0  0  0  0
 29 30  1  0  0  0  0
 31 32  2  0  0  0  0
 31 33  1  0  0  0  0
 33 60  1  0  0  0  0
 34 35  2  0  0  0  0
 34 36  1  0  0  0  0
 36 37  2  0  0  0  0
 37 38  1  0  0  0  0
 37 39  1  0  0  0  0
 38 61  1  0  0  0  0
 39 62  1  0  0  0  0
 39 63  1  0  0  0  0
 39 64  1  0  0  0  0
M  END
>  <DRUGBANK_ID>
DB06163

>  <COMMON_NAME>
Plevitrexed

>  <CAS_NUMBER>
153537-73-6

>  <UNII>
L9P2881C3H

>  <SYNONYMS>
Plevitrexed

$$$$
