
 OpenBabel10282417072D

 21 21  0  0  0  0  0  0  0  0999 V2000
    1.0717    1.6500    0.0000 P   0  0  0  0  0  0  0  0  0  0  0  0
    0.3572    1.2375    0.0000 O   0  0  0  0  0  0  0  0  0  0  0  0
   -1.0717    1.2375    0.0000 O   0  5  0  0  0  0  0  0  0  0  0  0
   -1.7862    0.0000    0.0000 O   0  0  0  0  0  0  0  0  0  0  0  0
    1.0717    2.4750    0.0000 O   0  0  0  0  0  0  0  0  0  0  0  0
    1.7862    1.2375    0.0000 O   0  0  0  0  0  0  0  0  0  0  0  0
   -0.3571   -0.8250    0.0000 C   0  0  0  0  0  0  0  0  0  0  0  0
   -0.3571    0.0000    0.0000 C   0  0  0  0  0  0  0  0  0  0  0  0
    0.3572   -1.2375    0.0000 C   0  0  0  0  0  0  0  0  0  0  0  0
   -1.0717   -1.2375    0.0000 C   0  0  0  0  0  0  0  0  0  0  0  0
    0.3572   -2.0625    0.0000 C   0  0  0  0  0  0  0  0  0  0  0  0
   -1.0717   -2.0625    0.0000 C   0  0  0  0  0  0  0  0  0  0  0  0
   -0.3571   -2.4750    0.0000 C   0  0  0  0  0  0  0  0  0  0  0  0
    0.3572    0.4125    0.0000 C   0  0  0  0  0  0  0  0  0  0  0  0
   -1.0717    0.4125    0.0000 C   0  0  0  0  0  0  0  0  0  0  0  0
    1.2510   -0.7215    0.0000 H   0  0  0  0  0  0  0  0  0  0  0  0
   -1.9654   -0.7215    0.0000 H   0  0  0  0  0  0  0  0  0  0  0  0
    1.2510   -2.5785    0.0000 H   0  0  0  0  0  0  0  0  0  0  0  0
   -1.9654   -2.5785    0.0000 H   0  0  0  0  0  0  0  0  0  0  0  0
   -0.3570   -3.5070    0.0000 H   0  0  0  0  0  0  0  0  0  0  0  0
    1.2510   -0.1035    0.0000 H   0  0  0  0  0  0  0  0  0  0  0  0
  1  2  1  0  0  0  0
  1  5  2  0  0  0  0
  1  6  2  0  0  0  0
  2 14  1  0  0  0  0
  3 15  1  0  0  0  0
  4 15  2  0  0  0  0
  7  8  1  0  0  0  0
  7  9  2  0  0  0  0
  7 10  1  0  0  0  0
  8 14  2  0  0  0  0
  8 15  1  0  0  0  0
  9 11  1  0  0  0  0
  9 16  1  0  0  0  0
 10 12  2  0  0  0  0
 10 17  1  0  0  0  0
 11 13  2  0  0  0  0
 11 18  1  0  0  0  0
 12 13  1  0  0  0  0
 12 19  1  0  0  0  0
 13 20  1  0  0  0  0
 14 21  1  0  0  0  0
M  CHG  1   3  -1
M  END
>  <DRUGBANK_ID>
DB02514

>  <SECONDARY_ACCESSION_NUMBERS>
EXPT00995

>  <COMMON_NAME>
(2Z)-3-{[Oxido(oxo)phosphoranyl]oxy}-2-phenylacrylate

>  <CAS_NUMBER>
2007-07-0

$$$$
