
 OpenBabel10282417072D

 80 82  0  0  1  0  0  0  0  0999 V2000
    9.2881   -5.3625    0.0000 C   0  0  0  0  0  0  0  0  0  0  0  0
    8.5737   -4.9500    0.0000 C   0  0  0  0  0  0  0  0  0  0  0  0
    8.5737   -4.1250    0.0000 C   0  0  0  0  0  0  0  0  0  0  0  0
    7.8592   -5.3625    0.0000 C   0  0  0  0  0  0  0  0  0  0  0  0
    7.8592   -6.1875    0.0000 C   0  0  1  0  0  0  0  0  0  0  0  0
    7.1447   -6.6000    0.0000 C   0  0  0  0  0  0  0  0  0  0  0  0
    6.4302   -6.1875    0.0000 C   0  0  2  0  0  0  0  0  0  0  0  0
    6.4302   -5.3625    0.0000 O   0  0  0  0  0  0  0  0  0  0  0  0
    5.7158   -6.6000    0.0000 C   0  0  2  0  0  0  0  0  0  0  0  0
    5.7158   -7.4250    0.0000 C   0  0  0  0  0  0  0  0  0  0  0  0
    6.4302   -7.8375    0.0000 C   0  0  0  0  0  0  0  0  0  0  0  0
    7.1447   -7.4250    0.0000 C   0  0  0  0  0  0  0  0  0  0  0  0
    7.8592   -7.8375    0.0000 C   0  0  0  0  0  0  0  0  0  0  0  0
    7.8592   -8.6625    0.0000 C   0  0  0  0  0  0  0  0  0  0  0  0
    7.1447   -9.0750    0.0000 C   0  0  0  0  0  0  0  0  0  0  0  0
    6.4302   -8.6625    0.0000 C   0  0  0  0  0  0  0  0  0  0  0  0
    5.0013   -6.1875    0.0000 N   0  0  0  0  0  0  0  0  0  0  0  0
    4.2868   -6.6000    0.0000 C   0  0  0  0  0  0  0  0  0  0  0  0
    4.2868   -7.4250    0.0000 O   0  0  0  0  0  0  0  0  0  0  0  0
    3.5724   -6.1875    0.0000 C   0  0  0  0  0  0  0  0  0  0  0  0
    2.8579   -6.6000    0.0000 O   0  0  0  0  0  0  0  0  0  0  0  0
    2.1434   -6.1875    0.0000 C   0  0  0  0  0  0  0  0  0  0  0  0
    1.4289   -6.6000    0.0000 C   0  0  0  0  0  0  0  0  0  0  0  0
    1.4289   -7.4250    0.0000 C   0  0  0  0  0  0  0  0  0  0  0  0
    0.7145   -6.1875    0.0000 C   0  0  0  0  0  0  0  0  0  0  0  0
    0.7145   -5.3625    0.0000 C   0  0  0  0  0  0  0  0  0  0  0  0
    1.4289   -4.9500    0.0000 C   0  0  0  0  0  0  0  0  0  0  0  0
    2.1434   -5.3625    0.0000 C   0  0  0  0  0  0  0  0  0  0  0  0
    2.8579   -4.9500    0.0000 C   0  0  0  0  0  0  0  0  0  0  0  0
    8.5737   -6.6000    0.0000 N   0  0  0  0  0  0  0  0  0  0  0  0
    9.2881   -6.1875    0.0000 C   0  0  0  0  0  0  0  0  0  0  0  0
    9.7730   -5.5201    0.0000 O   0  0  0  0  0  0  0  0  0  0  0  0
   10.0026   -6.6000    0.0000 C   0  0  0  0  0  0  0  0  0  0  0  0
   10.7171   -6.1875    0.0000 C   0  0  0  0  0  0  0  0  0  0  0  0
   11.4315   -6.6000    0.0000 C   0  0  0  0  0  0  0  0  0  0  0  0
   11.4315   -7.4250    0.0000 C   0  0  0  0  0  0  0  0  0  0  0  0
   10.7171   -7.8375    0.0000 C   0  0  0  0  0  0  0  0  0  0  0  0
   10.7171   -8.6625    0.0000 N   0  0  0  0  0  0  0  0  0  0  0  0
   10.0026   -7.4250    0.0000 C   0  0  0  0  0  0  0  0  0  0  0  0
    9.2881   -6.4325    0.0000 H   0  0  0  0  0  0  0  0  0  0  0  0
   10.2148   -4.8275    0.0000 H   0  0  0  0  0  0  0  0  0  0  0  0
   10.2147   -5.8975    0.0000 H   0  0  0  0  0  0  0  0  0  0  0  0
    7.6471   -4.4150    0.0000 H   0  0  0  0  0  0  0  0  0  0  0  0
    9.5003   -3.5900    0.0000 H   0  0  0  0  0  0  0  0  0  0  0  0
    7.6471   -3.5900    0.0000 H   0  0  0  0  0  0  0  0  0  0  0  0
    8.5737   -3.0550    0.0000 H   0  0  0  0  0  0  0  0  0  0  0  0
    6.9326   -4.8275    0.0000 H   0  0  0  0  0  0  0  0  0  0  0  0
    6.9326   -5.8975    0.0000 H   0  0  0  0  0  0  0  0  0  0  0  0
    8.7858   -5.6525    0.0000 H   0  0  0  0  0  0  0  0  0  0  0  0
    7.1447   -7.6700    0.0000 H   0  0  0  0  0  0  0  0  0  0  0  0
    6.2181   -7.1350    0.0000 H   0  0  0  0  0  0  0  0  0  0  0  0
    7.3568   -5.6525    0.0000 H   0  0  0  0  0  0  0  0  0  0  0  0
    7.2702   -4.8775    0.0000 H   0  0  0  0  0  0  0  0  0  0  0  0
    5.7158   -5.5300    0.0000 H   0  0  0  0  0  0  0  0  0  0  0  0
    4.7891   -7.9600    0.0000 H   0  0  0  0  0  0  0  0  0  0  0  0
    5.7158   -8.4950    0.0000 H   0  0  0  0  0  0  0  0  0  0  0  0
    7.1447   -6.3930    0.0000 H   0  0  0  0  0  0  0  0  0  0  0  0
    8.7529   -7.3215    0.0000 H   0  0  0  0  0  0  0  0  0  0  0  0
    8.7529   -9.1785    0.0000 H   0  0  0  0  0  0  0  0  0  0  0  0
    7.1447  -10.1070    0.0000 H   0  0  0  0  0  0  0  0  0  0  0  0
    5.5365   -9.1785    0.0000 H   0  0  0  0  0  0  0  0  0  0  0  0
    5.0013   -5.2030    0.0000 H   0  0  0  0  0  0  0  0  0  0  0  0
    3.5724   -5.1175    0.0000 H   0  0  0  0  0  0  0  0  0  0  0  0
    2.6458   -5.6525    0.0000 H   0  0  0  0  0  0  0  0  0  0  0  0
    0.5023   -7.9600    0.0000 H   0  0  0  0  0  0  0  0  0  0  0  0
    2.3555   -7.9600    0.0000 H   0  0  0  0  0  0  0  0  0  0  0  0
    1.4289   -8.4950    0.0000 H   0  0  0  0  0  0  0  0  0  0  0  0
   -0.1792   -6.7035    0.0000 H   0  0  0  0  0  0  0  0  0  0  0  0
   -0.1792   -4.8465    0.0000 H   0  0  0  0  0  0  0  0  0  0  0  0
    1.4289   -3.9180    0.0000 H   0  0  0  0  0  0  0  0  0  0  0  0
    3.7845   -5.4850    0.0000 H   0  0  0  0  0  0  0  0  0  0  0  0
    2.8579   -3.8800    0.0000 H   0  0  0  0  0  0  0  0  0  0  0  0
    3.7846   -4.4150    0.0000 H   0  0  0  0  0  0  0  0  0  0  0  0
    8.5737   -7.5845    0.0000 H   0  0  0  0  0  0  0  0  0  0  0  0
   10.7171   -5.1555    0.0000 H   0  0  0  0  0  0  0  0  0  0  0  0
   12.3252   -6.0840    0.0000 H   0  0  0  0  0  0  0  0  0  0  0  0
   12.3252   -7.9410    0.0000 H   0  0  0  0  0  0  0  0  0  0  0  0
    9.8645   -9.1547    0.0000 H   0  0  0  0  0  0  0  0  0  0  0  0
   11.5697   -9.1547    0.0000 H   0  0  0  0  0  0  0  0  0  0  0  0
    9.1089   -7.9410    0.0000 H   0  0  0  0  0  0  0  0  0  0  0  0
  1  2  1  0  0  0  0
  1 40  1  0  0  0  0
  1 41  1  0  0  0  0
  1 42  1  0  0  0  0
  2  3  1  0  0  0  0
  2  4  1  0  0  0  0
  2 43  1  0  0  0  0
  3 44  1  0  0  0  0
  3 45  1  0  0  0  0
  3 46  1  0  0  0  0
  4  5  1  0  0  0  0
  4 47  1  0  0  0  0
  4 48  1  0  0  0  0
  5  6  1  0  0  0  0
  5 30  1  0  0  0  0
  5 49  1  1  0  0  0
  6  7  1  0  0  0  0
  6 50  1  0  0  0  0
  6 51  1  0  0  0  0
  7  8  1  0  0  0  0
  7  9  1  0  0  0  0
  7 52  1  6  0  0  0
  8 53  1  0  0  0  0
  9 10  1  0  0  0  0
  9 17  1  0  0  0  0
  9 54  1  1  0  0  0
 10 11  1  0  0  0  0
 10 55  1  0  0  0  0
 10 56  1  0  0  0  0
 11 12  2  0  0  0  0
 11 16  1  0  0  0  0
 12 13  1  0  0  0  0
 12 57  1  0  0  0  0
 13 14  2  0  0  0  0
 13 58  1  0  0  0  0
 14 15  1  0  0  0  0
 14 59  1  0  0  0  0
 15 16  2  0  0  0  0
 15 60  1  0  0  0  0
 16 61  1  0  0  0  0
 17 18  1  0  0  0  0
 17 62  1  0  0  0  0
 18 19  2  0  0  0  0
 18 20  1  0  0  0  0
 20 21  1  0  0  0  0
 20 63  1  0  0  0  0
 20 64  1  0  0  0  0
 21 22  1  0  0  0  0
 22 23  2  0  0  0  0
 22 28  1  0  0  0  0
 23 24  1  0  0  0  0
 23 25  1  0  0  0  0
 24 65  1  0  0  0  0
 24 66  1  0  0  0  0
 24 67  1  0  0  0  0
 25 26  2  0  0  0  0
 25 68  1  0  0  0  0
 26 27  1  0  0  0  0
 26 69  1  0  0  0  0
 27 28  2  0  0  0  0
 27 70  1  0  0  0  0
 28 29  1  0  0  0  0
 29 71  1  0  0  0  0
 29 72  1  0  0  0  0
 29 73  1  0  0  0  0
 30 31  1  0  0  0  0
 30 74  1  0  0  0  0
 31 32  2  0  0  0  0
 31 33  1  0  0  0  0
 33 34  2  0  0  0  0
 33 39  1  0  0  0  0
 34 35  1  0  0  0  0
 34 75  1  0  0  0  0
 35 36  2  0  0  0  0
 35 76  1  0  0  0  0
 36 37  1  0  0  0  0
 36 77  1  0  0  0  0
 37 38  1  0  0  0  0
 37 39  2  0  0  0  0
 38 78  1  0  0  0  0
 38 79  1  0  0  0  0
 39 80  1  0  0  0  0
M  END
>  <DRUGBANK_ID>
DB04373

>  <SECONDARY_ACCESSION_NUMBERS>
EXPT02745

>  <COMMON_NAME>
4-Amino-N-{4-[2-(2,6-Dimethyl-Phenoxy)-Acetylamino]-3-Hydroxy-1-Isobutyl-5-Phenyl-Pentyl}-Benzamide

$$$$
