
 OpenBabel10282417072D

 84 88  0  0  0  0  0  0  0  0999 V2000
   -0.8461    3.7492    0.0000 C   0  0  0  0  0  0  0  0  0  0  0  0
   -1.2586    4.4637    0.0000 C   0  0  0  0  0  0  0  0  0  0  0  0
   -2.0836    4.4637    0.0000 C   0  0  0  0  0  0  0  0  0  0  0  0
   -2.4961    3.7492    0.0000 C   0  0  0  0  0  0  0  0  0  0  0  0
   -2.0836    3.0347    0.0000 C   0  0  0  0  0  0  0  0  0  0  0  0
   -1.2586    3.0347    0.0000 C   0  0  0  0  0  0  0  0  0  0  0  0
   -0.0211    3.7492    0.0000 Cl  0  0  0  0  0  0  0  0  0  0  0  0
   -0.8461    2.3202    0.0000 S   0  0  0  0  0  0  0  0  0  0  0  0
   -0.4336    1.6058    0.0000 O   0  0  0  0  0  0  0  0  0  0  0  0
   -0.1316    2.7327    0.0000 O   0  0  0  0  0  0  0  0  0  0  0  0
   -1.5606    1.9077    0.0000 N   0  0  0  0  0  0  0  0  0  0  0  0
   -2.3143    2.2433    0.0000 C   0  0  0  0  0  0  0  0  0  0  0  0
   -2.8663    1.6302    0.0000 C   0  0  0  0  0  0  0  0  0  0  0  0
   -2.4538    0.9158    0.0000 C   0  0  0  0  0  0  0  0  0  0  0  0
   -1.6468    1.0873    0.0000 C   0  0  1  0  0  0  0  0  0  0  0  0
   -1.0338    0.5352    0.0000 C   0  0  0  0  0  0  0  0  0  0  0  0
   -0.2491    0.7902    0.0000 O   0  0  0  0  0  0  0  0  0  0  0  0
   -1.2053   -0.2716    0.0000 N   0  0  0  0  0  0  0  0  0  0  0  0
   -0.8461    5.1781    0.0000 C   0  0  0  0  0  0  0  0  0  0  0  0
   -2.4961    5.1781    0.0000 Cl  0  0  0  0  0  0  0  0  0  0  0  0
   -0.0211    5.1781    0.0000 O   0  0  0  0  0  0  0  0  0  0  0  0
    0.3913    5.8926    0.0000 C   0  0  0  0  0  0  0  0  0  0  0  0
    1.2163    5.8926    0.0000 C   0  0  0  0  0  0  0  0  0  0  0  0
    1.6288    6.6071    0.0000 C   0  0  0  0  0  0  0  0  0  0  0  0
    1.2163    7.3216    0.0000 C   0  0  0  0  0  0  0  0  0  0  0  0
    0.3913    7.3216    0.0000 C   0  0  0  0  0  0  0  0  0  0  0  0
   -0.0211    6.6071    0.0000 C   0  0  0  0  0  0  0  0  0  0  0  0
    2.4538    6.6071    0.0000 C   0  0  0  0  0  0  0  0  0  0  0  0
    2.8663    5.8926    0.0000 C   0  0  0  0  0  0  0  0  0  0  0  0
    2.4538    5.1782    0.0000 C   0  0  0  0  0  0  0  0  0  0  0  0
    1.6288    5.1781    0.0000 N   0  0  0  0  0  0  0  0  0  0  0  0
    2.8663    7.3216    0.0000 C   0  0  0  0  0  0  0  0  0  0  0  0
    2.8663    4.4637    0.0000 C   0  0  0  0  0  0  0  0  0  0  0  0
   -0.5922   -0.8237    0.0000 C   0  0  0  0  0  0  0  0  0  0  0  0
   -0.7637   -1.6307    0.0000 C   0  0  0  0  0  0  0  0  0  0  0  0
   -0.1507   -2.1827    0.0000 C   0  0  0  0  0  0  0  0  0  0  0  0
   -0.3222   -2.9897    0.0000 N   0  0  0  0  0  0  0  0  0  0  0  0
    0.2908   -3.5417    0.0000 C   0  0  0  0  0  0  0  0  0  0  0  0
    0.1193   -4.3487    0.0000 C   0  0  0  0  0  0  0  0  0  0  0  0
    1.0754   -3.2868    0.0000 O   0  0  0  0  0  0  0  0  0  0  0  0
   -0.6653   -4.6036    0.0000 C   0  0  0  0  0  0  0  0  0  0  0  0
   -0.8368   -5.4106    0.0000 C   0  0  0  0  0  0  0  0  0  0  0  0
   -0.2237   -5.9626    0.0000 C   0  0  0  0  0  0  0  0  0  0  0  0
    0.5608   -5.7077    0.0000 C   0  0  0  0  0  0  0  0  0  0  0  0
    0.7324   -4.9007    0.0000 C   0  0  0  0  0  0  0  0  0  0  0  0
   -0.3952   -6.7696    0.0000 C   0  0  0  0  0  0  0  0  0  0  0  0
    0.2177   -7.3216    0.0000 N   0  0  0  0  0  0  0  0  0  0  0  0
   -1.1799   -7.0245    0.0000 N   0  0  0  0  0  0  0  0  0  0  0  0
   -3.5281    3.7492    0.0000 H   0  0  0  0  0  0  0  0  0  0  0  0
   -2.5996    2.1410    0.0000 H   0  0  0  0  0  0  0  0  0  0  0  0
   -2.5368    3.2899    0.0000 H   0  0  0  0  0  0  0  0  0  0  0  0
   -3.3478    2.5202    0.0000 H   0  0  0  0  0  0  0  0  0  0  0  0
   -3.9304    1.7420    0.0000 H   0  0  0  0  0  0  0  0  0  0  0  0
   -3.4490    0.7328    0.0000 H   0  0  0  0  0  0  0  0  0  0  0  0
   -2.8890   -0.0617    0.0000 H   0  0  0  0  0  0  0  0  0  0  0  0
   -1.7804    0.0842    0.0000 H   0  0  0  0  0  0  0  0  0  0  0  0
   -0.6478    1.4707    0.0000 H   0  0  0  0  0  0  0  0  0  0  0  0
   -2.1416   -0.5758    0.0000 H   0  0  0  0  0  0  0  0  0  0  0  0
   -1.3811    6.1048    0.0000 H   0  0  0  0  0  0  0  0  0  0  0  0
   -0.3111    6.1047    0.0000 H   0  0  0  0  0  0  0  0  0  0  0  0
    1.7323    8.2153    0.0000 H   0  0  0  0  0  0  0  0  0  0  0  0
   -0.1248    8.2153    0.0000 H   0  0  0  0  0  0  0  0  0  0  0  0
   -1.0531    6.6071    0.0000 H   0  0  0  0  0  0  0  0  0  0  0  0
    3.8983    5.8926    0.0000 H   0  0  0  0  0  0  0  0  0  0  0  0
    3.9363    7.3216    0.0000 H   0  0  0  0  0  0  0  0  0  0  0  0
    2.3313    8.2482    0.0000 H   0  0  0  0  0  0  0  0  0  0  0  0
    3.4013    8.2483    0.0000 H   0  0  0  0  0  0  0  0  0  0  0  0
    2.3313    3.5371    0.0000 H   0  0  0  0  0  0  0  0  0  0  0  0
    3.9363    4.4637    0.0000 H   0  0  0  0  0  0  0  0  0  0  0  0
    3.4013    3.5370    0.0000 H   0  0  0  0  0  0  0  0  0  0  0  0
    0.4254   -0.4931    0.0000 H   0  0  0  0  0  0  0  0  0  0  0  0
    0.2030   -1.5397    0.0000 H   0  0  0  0  0  0  0  0  0  0  0  0
   -1.7813   -1.9613    0.0000 H   0  0  0  0  0  0  0  0  0  0  0  0
   -0.9862   -2.6773    0.0000 H   0  0  0  0  0  0  0  0  0  0  0  0
    0.8669   -1.8521    0.0000 H   0  0  0  0  0  0  0  0  0  0  0  0
    0.6445   -2.8987    0.0000 H   0  0  0  0  0  0  0  0  0  0  0  0
   -1.2585   -3.2939    0.0000 H   0  0  0  0  0  0  0  0  0  0  0  0
   -1.4322   -3.9131    0.0000 H   0  0  0  0  0  0  0  0  0  0  0  0
   -1.8183   -5.7295    0.0000 H   0  0  0  0  0  0  0  0  0  0  0  0
    1.3277   -6.3983    0.0000 H   0  0  0  0  0  0  0  0  0  0  0  0
    1.7139   -4.5818    0.0000 H   0  0  0  0  0  0  0  0  0  0  0  0
    0.0129   -8.2846    0.0000 H   0  0  0  0  0  0  0  0  0  0  0  0
   -1.9115   -6.3657    0.0000 H   0  0  0  0  0  0  0  0  0  0  0  0
   -1.3847   -7.9875    0.0000 H   0  0  0  0  0  0  0  0  0  0  0  0
  1  2  1  0  0  0  0
  1  7  1  0  0  0  0
  2  3  2  0  0  0  0
  2 19  1  0  0  0  0
  3  4  1  0  0  0  0
  3 20  1  0  0  0  0
  4  5  2  0  0  0  0
  4 49  1  0  0  0  0
  5  6  1  0  0  0  0
  5 50  1  0  0  0  0
  6  1  2  0  0  0  0
  6  8  1  0  0  0  0
  8  9  2  0  0  0  0
  8 10  2  0  0  0  0
  8 11  1  0  0  0  0
 11 12  1  0  0  0  0
 11 15  1  0  0  0  0
 12 13  1  0  0  0  0
 12 51  1  0  0  0  0
 12 52  1  0  0  0  0
 13 14  1  0  0  0  0
 13 53  1  0  0  0  0
 13 54  1  0  0  0  0
 14 15  1  0  0  0  0
 14 55  1  0  0  0  0
 14 56  1  0  0  0  0
 15 16  1  0  0  0  0
 15 57  1  1  0  0  0
 16 17  2  0  0  0  0
 16 18  1  0  0  0  0
 18 34  1  0  0  0  0
 18 58  1  0  0  0  0
 19 21  1  0  0  0  0
 19 59  1  0  0  0  0
 19 60  1  0  0  0  0
 21 22  1  0  0  0  0
 22 23  1  0  0  0  0
 23 24  1  0  0  0  0
 24 25  1  0  0  0  0
 24 28  2  0  0  0  0
 25 26  2  0  0  0  0
 25 61  1  0  0  0  0
 26 27  1  0  0  0  0
 26 62  1  0  0  0  0
 27 22  2  0  0  0  0
 27 63  1  0  0  0  0
 28 29  1  0  0  0  0
 28 32  1  0  0  0  0
 29 30  2  0  0  0  0
 29 64  1  0  0  0  0
 30 31  1  0  0  0  0
 30 33  1  0  0  0  0
 31 23  2  0  0  0  0
 32 65  1  0  0  0  0
 32 66  1  0  0  0  0
 32 67  1  0  0  0  0
 33 68  1  0  0  0  0
 33 69  1  0  0  0  0
 33 70  1  0  0  0  0
 34 35  1  0  0  0  0
 34 71  1  0  0  0  0
 34 72  1  0  0  0  0
 35 36  1  0  0  0  0
 35 73  1  0  0  0  0
 35 74  1  0  0  0  0
 36 37  1  0  0  0  0
 36 75  1  0  0  0  0
 36 76  1  0  0  0  0
 37 38  1  0  0  0  0
 37 77  1  0  0  0  0
 38 39  1  0  0  0  0
 38 40  2  0  0  0  0
 39 41  1  0  0  0  0
 39 45  2  0  0  0  0
 41 42  2  0  0  0  0
 41 78  1  0  0  0  0
 42 43  1  0  0  0  0
 42 79  1  0  0  0  0
 43 44  2  0  0  0  0
 43 46  1  0  0  0  0
 44 45  1  0  0  0  0
 44 80  1  0  0  0  0
 45 81  1  0  0  0  0
 46 47  2  0  0  0  0
 46 48  1  0  0  0  0
 47 82  1  0  0  0  0
 48 83  1  0  0  0  0
 48 84  1  0  0  0  0
M  END
>  <DRUGBANK_ID>
DB05038

>  <COMMON_NAME>
Anatibant

>  <CAS_NUMBER>
209733-45-9

>  <UNII>
CLO4JRD21F

>  <SYNONYMS>
Anatibant

$$$$
