
 OpenBabel10282417072D

  7  6  0  0  0  0  0  0  0  0999 V2000
    0.0000    0.0000    0.0000 Se  0  0  0  0  0  0  0  0  0  0  0  0
    0.0000    0.8250    0.0000 O   0  0  0  0  0  0  0  0  0  0  0  0
    0.8250    0.0000    0.0000 O   0  0  0  0  0  0  0  0  0  0  0  0
    0.0000   -0.8250    0.0000 O   0  0  0  0  0  0  0  0  0  0  0  0
   -0.8250    0.0000    0.0000 O   0  0  0  0  0  0  0  0  0  0  0  0
    0.8400    1.3100    0.0000 H   0  0  0  0  0  0  0  0  0  0  0  0
    1.3100   -0.8400    0.0000 H   0  0  0  0  0  0  0  0  0  0  0  0
  2  1  1  0  0  0  0
  2  6  1  0  0  0  0
  3  1  1  0  0  0  0
  3  7  1  0  0  0  0
  4  1  2  0  0  0  0
  5  1  2  0  0  0  0
M  END
>  <DRUGBANK_ID>
DB11068

>  <COMMON_NAME>
Selenic acid

>  <CAS_NUMBER>
7783-08-6

>  <UNII>
HV0Y51NC4J

$$$$
