1214
 OpenBabel10282417072D

 49 49  0  0  1  0  0  0  0  0999 V2000
    3.0791   -0.4125    0.0000 O   0  0  0  0  0  0  0  0  0  0  0  0
    3.0791   -2.0625    0.0000 O   0  0  0  0  0  0  0  0  0  0  0  0
    3.0791    2.8876    0.0000 O   0  0  0  0  0  0  0  0  0  0  0  0
    4.5080    2.8876    0.0000 O   0  0  0  0  0  0  0  0  0  0  0  0
    4.5080   -2.8876    0.0000 N   0  0  0  0  0  0  0  0  0  0  0  0
    3.7935   -1.6500    0.0000 C   0  0  3  0  0  0  0  0  0  0  0  0
    4.5080   -2.0625    0.0000 C   0  0  0  0  0  0  0  0  0  0  0  0
    5.2224   -3.3001    0.0000 C   0  0  0  0  0  0  0  0  0  0  0  0
    3.7935   -0.8250    0.0000 C   0  0  0  0  0  0  0  0  0  0  0  0
    3.0791    0.4125    0.0000 C   0  0  0  0  0  0  0  0  0  0  0  0
    2.3645    0.8250    0.0000 C   0  0  0  0  0  0  0  0  0  0  0  0
    2.3645    1.6500    0.0000 C   0  0  0  0  0  0  0  0  0  0  0  0
    3.7935    1.6500    0.0000 C   0  0  0  0  0  0  0  0  0  0  0  0
    3.0791    2.0625    0.0000 C   0  0  0  0  0  0  0  0  0  0  0  0
    5.9370   -2.8876    0.0000 C   0  0  0  0  0  0  0  0  0  0  0  0
    5.2224   -4.1251    0.0000 C   0  0  0  0  0  0  0  0  0  0  0  0
    3.7935    0.8250    0.0000 C   0  0  0  0  0  0  0  0  0  0  0  0
    1.6500    0.4125    0.0000 C   0  0  0  0  0  0  0  0  0  0  0  0
    1.6500    2.0625    0.0000 C   0  0  0  0  0  0  0  0  0  0  0  0
    4.5080    2.0625    0.0000 C   0  0  0  0  0  0  0  0  0  0  0  0
    3.7935    3.3001    0.0000 C   0  0  0  0  0  0  0  0  0  0  0  0
    3.7935    4.1251    0.0000 C   0  0  0  0  0  0  0  0  0  0  0  0
    2.2390   -1.5775    0.0000 H   0  0  0  0  0  0  0  0  0  0  0  0
    3.6246   -3.3976    0.0000 H   0  0  0  0  0  0  0  0  0  0  0  0
    3.7935   -2.7200    0.0000 H   0  0  0  0  0  0  0  0  0  0  0  0
    5.4346   -1.5275    0.0000 H   0  0  0  0  0  0  0  0  0  0  0  0
    4.5080   -0.9925    0.0000 H   0  0  0  0  0  0  0  0  0  0  0  0
    6.1490   -3.8351    0.0000 H   0  0  0  0  0  0  0  0  0  0  0  0
    4.7202   -0.2900    0.0000 H   0  0  0  0  0  0  0  0  0  0  0  0
    4.7201   -1.3600    0.0000 H   0  0  0  0  0  0  0  0  0  0  0  0
    6.8636   -3.4227    0.0000 H   0  0  0  0  0  0  0  0  0  0  0  0
    5.9371   -1.8176    0.0000 H   0  0  0  0  0  0  0  0  0  0  0  0
    6.8637   -2.3527    0.0000 H   0  0  0  0  0  0  0  0  0  0  0  0
    4.2958   -4.6601    0.0000 H   0  0  0  0  0  0  0  0  0  0  0  0
    6.1490   -4.6601    0.0000 H   0  0  0  0  0  0  0  0  0  0  0  0
    5.2224   -5.1951    0.0000 H   0  0  0  0  0  0  0  0  0  0  0  0
    4.6872    0.3090    0.0000 H   0  0  0  0  0  0  0  0  0  0  0  0
    0.7234    0.9475    0.0000 H   0  0  0  0  0  0  0  0  0  0  0  0
    1.6500   -0.6575    0.0000 H   0  0  0  0  0  0  0  0  0  0  0  0
    0.7233   -0.1225    0.0000 H   0  0  0  0  0  0  0  0  0  0  0  0
    1.6500    3.1325    0.0000 H   0  0  0  0  0  0  0  0  0  0  0  0
    0.7234    1.5275    0.0000 H   0  0  0  0  0  0  0  0  0  0  0  0
    0.7233    2.5975    0.0000 H   0  0  0  0  0  0  0  0  0  0  0  0
    5.4346    1.5275    0.0000 H   0  0  0  0  0  0  0  0  0  0  0  0
    4.5080    3.1325    0.0000 H   0  0  0  0  0  0  0  0  0  0  0  0
    5.4347    2.5975    0.0000 H   0  0  0  0  0  0  0  0  0  0  0  0
    4.7201    4.6601    0.0000 H   0  0  0  0  0  0  0  0  0  0  0  0
    2.8669    4.6601    0.0000 H   0  0  0  0  0  0  0  0  0  0  0  0
    3.7935    5.1951    0.0000 H   0  0  0  0  0  0  0  0  0  0  0  0
  1  9  1  0  0  0  0
  1 10  1  0  0  0  0
  2  6  1  0  0  0  0
  2 23  1  0  0  0  0
  3 14  1  0  0  0  0
  3 21  1  0  0  0  0
  4 21  2  0  0  0  0
  5  7  1  0  0  0  0
  5  8  1  0  0  0  0
  5 24  1  0  0  0  0
  6  7  1  0  0  0  0
  6  9  1  0  0  0  0
  6 25  1  0  0  0  0
  7 26  1  0  0  0  0
  7 27  1  0  0  0  0
  8 15  1  0  0  0  0
  8 16  1  0  0  0  0
  8 28  1  0  0  0  0
  9 29  1  0  0  0  0
  9 30  1  0  0  0  0
 10 11  2  0  0  0  0
 10 17  1  0  0  0  0
 11 12  1  0  0  0  0
 11 18  1  0  0  0  0
 12 14  2  0  0  0  0
 12 19  1  0  0  0  0
 13 14  1  0  0  0  0
 13 17  2  0  0  0  0
 13 20  1  0  0  0  0
 15 31  1  0  0  0  0
 15 32  1  0  0  0  0
 15 33  1  0  0  0  0
 16 34  1  0  0  0  0
 16 35  1  0  0  0  0
 16 36  1  0  0  0  0
 17 37  1  0  0  0  0
 18 38  1  0  0  0  0
 18 39  1  0  0  0  0
 18 40  1  0  0  0  0
 19 41  1  0  0  0  0
 19 42  1  0  0  0  0
 19 43  1  0  0  0  0
 20 44  1  0  0  0  0
 20 45  1  0  0  0  0
 20 46  1  0  0  0  0
 21 22  1  0  0  0  0
 22 47  1  0  0  0  0
 22 48  1  0  0  0  0
 22 49  1  0  0  0  0
M  END
>  <DRUGBANK_ID>
DB01214

>  <SECONDARY_ACCESSION_NUMBERS>
APRD00668

>  <COMMON_NAME>
Metipranolol

>  <CAS_NUMBER>
22664-55-7

>  <UNII>
X39AL81KEB

>  <SYNONYMS>
(Â±)-metipranolol; Acetic acid 4-(2-hydroxy-3-isopropylamino-propoxy)-2,3,6-trimethyl-phenyl ester; Metipranolol; Metipranololum

$$$$
