
 OpenBabel10282417072D

 35 35  0  0  1  0  0  0  0  0999 V2000
    4.5311   -0.2899    0.0000 O   0  0  0  0  0  0  0  0  0  0  0  0
    1.6500   -1.3450    0.0000 O   0  0  0  0  0  0  0  0  0  0  0  0
    3.0791   -0.5199    0.0000 N   0  0  0  0  0  0  0  0  0  0  0  0
    2.3645   -2.5825    0.0000 N   0  0  0  0  0  0  0  0  0  0  0  0
    2.6666    0.7496    0.0000 C   0  0  1  0  0  0  0  0  0  0  0  0
    2.4115   -0.0350    0.0000 C   0  0  0  0  0  0  0  0  0  0  0  0
    3.4916    0.7496    0.0000 C   0  0  0  0  0  0  0  0  0  0  0  0
    2.1816    1.4171    0.0000 C   0  0  0  0  0  0  0  0  0  0  0  0
    3.0791   -1.3450    0.0000 C   0  0  1  0  0  0  0  0  0  0  0  0
    3.7465   -0.0350    0.0000 C   0  0  0  0  0  0  0  0  0  0  0  0
    2.5171    2.1708    0.0000 C   0  0  0  0  0  0  0  0  0  0  0  0
    3.7935   -1.7575    0.0000 C   0  0  0  0  0  0  0  0  0  0  0  0
    2.3645   -1.7575    0.0000 C   0  0  0  0  0  0  0  0  0  0  0  0
    2.0322    2.8382    0.0000 C   0  0  0  0  0  0  0  0  0  0  0  0
    3.7935   -2.5825    0.0000 C   0  0  0  0  0  0  0  0  0  0  0  0
    1.5119   -3.0748    0.0000 H   0  0  0  0  0  0  0  0  0  0  0  0
    3.2171   -3.0747    0.0000 H   0  0  0  0  0  0  0  0  0  0  0  0
    1.6098    0.5823    0.0000 H   0  0  0  0  0  0  0  0  0  0  0  0
    1.3939   -0.3656    0.0000 H   0  0  0  0  0  0  0  0  0  0  0  0
    1.6550    0.7217    0.0000 H   0  0  0  0  0  0  0  0  0  0  0  0
    4.1205    1.6152    0.0000 H   0  0  0  0  0  0  0  0  0  0  0  0
    4.5484    0.5822    0.0000 H   0  0  0  0  0  0  0  0  0  0  0  0
    1.1175    1.3052    0.0000 H   0  0  0  0  0  0  0  0  0  0  0  0
    1.5526    2.2827    0.0000 H   0  0  0  0  0  0  0  0  0  0  0  0
    4.0058   -0.8100    0.0000 H   0  0  0  0  0  0  0  0  0  0  0  0
    3.5812    2.2827    0.0000 H   0  0  0  0  0  0  0  0  0  0  0  0
    2.9523    3.1483    0.0000 H   0  0  0  0  0  0  0  0  0  0  0  0
    4.7202   -1.2225    0.0000 H   0  0  0  0  0  0  0  0  0  0  0  0
    4.7201   -2.2925    0.0000 H   0  0  0  0  0  0  0  0  0  0  0  0
    2.4674    3.8157    0.0000 H   0  0  0  0  0  0  0  0  0  0  0  0
    0.9681    2.7263    0.0000 H   0  0  0  0  0  0  0  0  0  0  0  0
    1.4033    3.7038    0.0000 H   0  0  0  0  0  0  0  0  0  0  0  0
    2.8669   -3.1175    0.0000 H   0  0  0  0  0  0  0  0  0  0  0  0
    4.7201   -3.1175    0.0000 H   0  0  0  0  0  0  0  0  0  0  0  0
    3.7935   -3.6525    0.0000 H   0  0  0  0  0  0  0  0  0  0  0  0
  1 10  2  0  0  0  0
  2 13  2  0  0  0  0
  3  6  1  0  0  0  0
  3  9  1  0  0  0  0
  3 10  1  0  0  0  0
  4 13  1  0  0  0  0
  4 16  1  0  0  0  0
  4 17  1  0  0  0  0
  5  6  1  0  0  0  0
  5  7  1  0  0  0  0
  5  8  1  0  0  0  0
  5 18  1  1  0  0  0
  6 19  1  0  0  0  0
  6 20  1  0  0  0  0
  7 10  1  0  0  0  0
  7 21  1  0  0  0  0
  7 22  1  0  0  0  0
  8 11  1  0  0  0  0
  8 23  1  0  0  0  0
  8 24  1  0  0  0  0
  9 12  1  0  0  0  0
  9 13  1  0  0  0  0
  9 25  1  6  0  0  0
 11 14  1  0  0  0  0
 11 26  1  0  0  0  0
 11 27  1  0  0  0  0
 12 15  1  0  0  0  0
 12 28  1  0  0  0  0
 12 29  1  0  0  0  0
 14 30  1  0  0  0  0
 14 31  1  0  0  0  0
 14 32  1  0  0  0  0
 15 33  1  0  0  0  0
 15 34  1  0  0  0  0
 15 35  1  0  0  0  0
M  END
>  <DRUGBANK_ID>
DB05541

>  <COMMON_NAME>
Brivaracetam

>  <CAS_NUMBER>
357336-20-0

>  <UNII>
U863JGG2IA

>  <SYNONYMS>
Brivaracetam

$$$$
