75V
 OpenBabel10282417072D

 48 48  0  0  0  0  0  0  0  0999 V2000
    2.5400   -1.6314    0.0000 C   0  0  0  0  0  0  0  0  0  0  0  0
    2.9525   -0.9169    0.0000 O   0  0  0  0  0  0  0  0  0  0  0  0
    2.9525   -2.3459    0.0000 O   0  0  0  0  0  0  0  0  0  0  0  0
    3.7775   -2.3459    0.0000 C   0  0  0  0  0  0  0  0  0  0  0  0
    4.1900   -3.0604    0.0000 C   0  0  0  0  0  0  0  0  0  0  0  0
    0.5880   -0.5044    0.0000 C   0  0  0  0  0  0  0  0  0  0  0  0
    1.0005   -1.2189    0.0000 C   0  0  2  0  0  0  0  0  0  0  0  0
    1.7150   -1.6314    0.0000 C   0  0  2  0  0  0  0  0  0  0  0  0
    1.0005   -2.0439    0.0000 O   0  0  0  0  0  0  0  0  0  0  0  0
    1.0005    0.2100    0.0000 O   0  0  0  0  0  0  0  0  0  0  0  0
   -0.2370   -0.5044    0.0000 N   0  0  0  0  0  0  0  0  0  0  0  0
   -0.6495    0.2100    0.0000 C   0  0  2  0  0  0  0  0  0  0  0  0
   -1.4745    0.2100    0.0000 C   0  0  0  0  0  0  0  0  0  0  0  0
   -1.8870   -0.5044    0.0000 O   0  0  0  0  0  0  0  0  0  0  0  0
   -0.2370    0.9245    0.0000 C   0  0  2  0  0  0  0  0  0  0  0  0
   -0.6495    1.6390    0.0000 C   0  0  0  0  0  0  0  0  0  0  0  0
    0.5880    0.9245    0.0000 C   0  0  0  0  0  0  0  0  0  0  0  0
   -0.2370    2.3534    0.0000 C   0  0  0  0  0  0  0  0  0  0  0  0
   -1.8870    0.9245    0.0000 N   0  0  0  0  0  0  0  0  0  0  0  0
   -2.7120    0.9245    0.0000 C   0  0  2  0  0  0  0  0  0  0  0  0
   -3.1245    1.6390    0.0000 C   0  0  0  0  0  0  0  0  0  0  0  0
   -3.9495    1.6390    0.0000 O   0  0  0  0  0  0  0  0  0  0  0  0
   -3.1245    0.2100    0.0000 C   0  0  0  0  0  0  0  0  0  0  0  0
   -2.7120    2.3534    0.0000 O   0  0  0  0  0  0  0  0  0  0  0  0
    1.4134   -0.8060    0.0000 H   0  0  0  0  0  0  0  0  0  0  0  0
    1.8661   -1.0674    0.0000 H   0  0  0  0  0  0  0  0  0  0  0  0
   -0.9415   -0.2957    0.0000 H   0  0  0  0  0  0  0  0  0  0  0  0
   -0.8209    0.9245    0.0000 H   0  0  0  0  0  0  0  0  0  0  0  0
   -2.4200    1.4302    0.0000 H   0  0  0  0  0  0  0  0  0  0  0  0
    4.3125   -1.4193    0.0000 H   0  0  0  0  0  0  0  0  0  0  0  0
    4.8475   -2.3459    0.0000 H   0  0  0  0  0  0  0  0  0  0  0  0
    3.6550   -3.9870    0.0000 H   0  0  0  0  0  0  0  0  0  0  0  0
    5.2600   -3.0604    0.0000 H   0  0  0  0  0  0  0  0  0  0  0  0
    4.7250   -3.9871    0.0000 H   0  0  0  0  0  0  0  0  0  0  0  0
   -0.7292   -1.3570    0.0000 H   0  0  0  0  0  0  0  0  0  0  0  0
   -1.7195    1.6390    0.0000 H   0  0  0  0  0  0  0  0  0  0  0  0
   -1.1845    2.5657    0.0000 H   0  0  0  0  0  0  0  0  0  0  0  0
    1.1230   -0.0021    0.0000 H   0  0  0  0  0  0  0  0  0  0  0  0
    1.1230    1.8511    0.0000 H   0  0  0  0  0  0  0  0  0  0  0  0
    1.6580    0.9245    0.0000 H   0  0  0  0  0  0  0  0  0  0  0  0
    0.8330    2.3534    0.0000 H   0  0  0  0  0  0  0  0  0  0  0  0
   -0.7720    3.2801    0.0000 H   0  0  0  0  0  0  0  0  0  0  0  0
    0.2980    3.2800    0.0000 H   0  0  0  0  0  0  0  0  0  0  0  0
   -1.3947    1.7771    0.0000 H   0  0  0  0  0  0  0  0  0  0  0  0
   -4.4180    2.4505    0.0000 H   0  0  0  0  0  0  0  0  0  0  0  0
   -4.1945    0.2100    0.0000 H   0  0  0  0  0  0  0  0  0  0  0  0
   -2.5895   -0.7166    0.0000 H   0  0  0  0  0  0  0  0  0  0  0  0
   -3.6595   -0.7167    0.0000 H   0  0  0  0  0  0  0  0  0  0  0  0
  1  2  2  0  0  0  0
  1  3  1  0  0  0  0
  3  4  1  0  0  0  0
  4  5  1  0  0  0  0
  4 30  1  0  0  0  0
  4 31  1  0  0  0  0
  5 32  1  0  0  0  0
  5 33  1  0  0  0  0
  5 34  1  0  0  0  0
  6 10  2  0  0  0  0
  6 11  1  0  0  0  0
  7  6  1  0  0  0  0
  7  8  1  0  0  0  0
  7  9  1  0  0  0  0
  7 25  1  1  0  0  0
  8  1  1  0  0  0  0
  8  9  1  0  0  0  0
  8 26  1  6  0  0  0
 11 35  1  0  0  0  0
 12 11  1  0  0  0  0
 12 13  1  0  0  0  0
 12 15  1  0  0  0  0
 12 27  1  1  0  0  0
 13 14  2  0  0  0  0
 13 19  1  0  0  0  0
 15 16  1  0  0  0  0
 15 17  1  0  0  0  0
 15 28  1  1  0  0  0
 16 18  1  0  0  0  0
 16 36  1  0  0  0  0
 16 37  1  0  0  0  0
 17 38  1  0  0  0  0
 17 39  1  0  0  0  0
 17 40  1  0  0  0  0
 18 41  1  0  0  0  0
 18 42  1  0  0  0  0
 18 43  1  0  0  0  0
 19 20  1  0  0  0  0
 19 44  1  0  0  0  0
 20 21  1  0  0  0  0
 20 23  1  0  0  0  0
 20 29  1  6  0  0  0
 21 22  1  0  0  0  0
 21 24  2  0  0  0  0
 22 45  1  0  0  0  0
 23 46  1  0  0  0  0
 23 47  1  0  0  0  0
 23 48  1  0  0  0  0
M  END
>  <DRUGBANK_ID>
DB07224

>  <COMMON_NAME>
N-{[(2S,3S)-3-(ETHOXYCARBONYL)OXIRAN-2-YL]CARBONYL}-L-ISOLEUCYL-L-ALANINE

$$$$
