
 OpenBabel10282417072D

 61 64  0  0  1  0  0  0  0  0999 V2000
    0.9681   -6.5147    0.0000 C   0  0  0  0  0  0  0  0  0  0  0  0
    0.4161   -5.9016    0.0000 O   0  0  0  0  0  0  0  0  0  0  0  0
    0.6710   -5.1170    0.0000 C   0  0  0  0  0  0  0  0  0  0  0  0
    0.1190   -4.5039    0.0000 C   0  0  0  0  0  0  0  0  0  0  0  0
    0.3739   -3.7192    0.0000 C   0  0  0  0  0  0  0  0  0  0  0  0
   -0.1781   -3.1062    0.0000 N   0  0  0  0  0  0  0  0  0  0  0  0
    0.0768   -2.3215    0.0000 C   0  0  2  0  0  0  0  0  0  0  0  0
    0.8838   -2.1500    0.0000 C   0  0  0  0  0  0  0  0  0  0  0  0
    1.4358   -2.7631    0.0000 O   0  0  0  0  0  0  0  0  0  0  0  0
    1.1387   -1.3654    0.0000 C   0  0  0  0  0  0  0  0  0  0  0  0
    0.6538   -0.6979    0.0000 C   0  0  0  0  0  0  0  0  0  0  0  0
    1.1387   -0.0305    0.0000 N   0  0  0  0  0  0  0  0  0  0  0  0
    1.9233   -0.2854    0.0000 C   0  0  0  0  0  0  0  0  0  0  0  0
    2.6378    0.1271    0.0000 C   0  0  0  0  0  0  0  0  0  0  0  0
    3.3523   -0.2854    0.0000 C   0  0  0  0  0  0  0  0  0  0  0  0
    3.3523   -1.1104    0.0000 C   0  0  0  0  0  0  0  0  0  0  0  0
    4.0668   -1.5229    0.0000 O   0  0  0  0  0  0  0  0  0  0  0  0
    4.7812   -1.1104    0.0000 C   0  0  0  0  0  0  0  0  0  0  0  0
    5.4957   -0.6979    0.0000 F   0  0  0  0  0  0  0  0  0  0  0  0
    5.1937   -1.8249    0.0000 F   0  0  0  0  0  0  0  0  0  0  0  0
    4.3687   -0.3960    0.0000 F   0  0  0  0  0  0  0  0  0  0  0  0
    2.6378   -1.5229    0.0000 C   0  0  0  0  0  0  0  0  0  0  0  0
    1.9233   -1.1104    0.0000 C   0  0  0  0  0  0  0  0  0  0  0  0
   -0.4752   -1.7084    0.0000 C   0  0  0  0  0  0  0  0  0  0  0  0
   -0.2203   -0.9238    0.0000 C   0  0  0  0  0  0  0  0  0  0  0  0
   -0.7723   -0.3107    0.0000 C   0  0  0  0  0  0  0  0  0  0  0  0
   -1.5793   -0.4822    0.0000 C   0  0  0  0  0  0  0  0  0  0  0  0
   -2.1313    0.1308    0.0000 Cl  0  0  0  0  0  0  0  0  0  0  0  0
   -1.8342   -1.2669    0.0000 C   0  0  0  0  0  0  0  0  0  0  0  0
   -1.2822   -1.8800    0.0000 C   0  0  0  0  0  0  0  0  0  0  0  0
   -1.5371   -2.6646    0.0000 O   0  0  0  0  0  0  0  0  0  0  0  0
   -2.3441   -2.8361    0.0000 C   0  0  0  0  0  0  0  0  0  0  0  0
    1.1809   -3.5477    0.0000 C   0  0  0  0  0  0  0  0  0  0  0  0
    1.7329   -4.1608    0.0000 C   0  0  0  0  0  0  0  0  0  0  0  0
    1.4780   -4.9454    0.0000 C   0  0  0  0  0  0  0  0  0  0  0  0
    2.5399   -3.9893    0.0000 S   0  0  0  0  0  0  0  0  0  0  0  0
    3.3469   -3.8178    0.0000 C   0  0  0  0  0  0  0  0  0  0  0  0
    2.7114   -4.7963    0.0000 O   0  0  0  0  0  0  0  0  0  0  0  0
    2.3684   -3.1823    0.0000 O   0  0  0  0  0  0  0  0  0  0  0  0
    0.6374   -7.5323    0.0000 H   0  0  0  0  0  0  0  0  0  0  0  0
    2.0147   -6.2923    0.0000 H   0  0  0  0  0  0  0  0  0  0  0  0
    1.6840   -7.3099    0.0000 H   0  0  0  0  0  0  0  0  0  0  0  0
   -0.8904   -4.7185    0.0000 H   0  0  0  0  0  0  0  0  0  0  0  0
   -1.1411   -3.3109    0.0000 H   0  0  0  0  0  0  0  0  0  0  0  0
    0.7928   -3.1167    0.0000 H   0  0  0  0  0  0  0  0  0  0  0  0
   -0.3782   -0.6979    0.0000 H   0  0  0  0  0  0  0  0  0  0  0  0
    0.8345    0.9058    0.0000 H   0  0  0  0  0  0  0  0  0  0  0  0
    2.6378    1.1591    0.0000 H   0  0  0  0  0  0  0  0  0  0  0  0
    4.2460    0.2306    0.0000 H   0  0  0  0  0  0  0  0  0  0  0  0
    2.6378   -2.5549    0.0000 H   0  0  0  0  0  0  0  0  0  0  0  0
    0.7891   -0.7092    0.0000 H   0  0  0  0  0  0  0  0  0  0  0  0
   -0.4534    0.6708    0.0000 H   0  0  0  0  0  0  0  0  0  0  0  0
   -2.8436   -1.4815    0.0000 H   0  0  0  0  0  0  0  0  0  0  0  0
   -3.0600   -2.0409    0.0000 H   0  0  0  0  0  0  0  0  0  0  0  0
   -2.6748   -3.8537    0.0000 H   0  0  0  0  0  0  0  0  0  0  0  0
   -3.3907   -3.0585    0.0000 H   0  0  0  0  0  0  0  0  0  0  0  0
    1.4998   -2.5662    0.0000 H   0  0  0  0  0  0  0  0  0  0  0  0
    2.1686   -5.7123    0.0000 H   0  0  0  0  0  0  0  0  0  0  0  0
    4.0628   -4.6130    0.0000 H   0  0  0  0  0  0  0  0  0  0  0  0
    3.6776   -2.8002    0.0000 H   0  0  0  0  0  0  0  0  0  0  0  0
    4.3935   -3.5954    0.0000 H   0  0  0  0  0  0  0  0  0  0  0  0
  1  2  1  0  0  0  0
  1 40  1  0  0  0  0
  1 41  1  0  0  0  0
  1 42  1  0  0  0  0
  2  3  1  0  0  0  0
  3  4  2  0  0  0  0
  3 35  1  0  0  0  0
  4  5  1  0  0  0  0
  4 43  1  0  0  0  0
  5  6  1  0  0  0  0
  5 33  2  0  0  0  0
  6 44  1  0  0  0  0
  7  6  1  0  0  0  0
  7  8  1  0  0  0  0
  7 24  1  0  0  0  0
  7 45  1  6  0  0  0
  8  9  2  0  0  0  0
  8 10  1  0  0  0  0
 10 11  2  0  0  0  0
 10 23  1  0  0  0  0
 11 12  1  0  0  0  0
 11 46  1  0  0  0  0
 12 13  1  0  0  0  0
 12 47  1  0  0  0  0
 13 14  2  0  0  0  0
 13 23  1  0  0  0  0
 14 15  1  0  0  0  0
 14 48  1  0  0  0  0
 15 16  2  0  0  0  0
 15 49  1  0  0  0  0
 16 17  1  0  0  0  0
 16 22  1  0  0  0  0
 17 18  1  0  0  0  0
 18 19  1  0  0  0  0
 18 20  1  0  0  0  0
 18 21  1  0  0  0  0
 22 23  2  0  0  0  0
 22 50  1  0  0  0  0
 24 25  2  0  0  0  0
 24 30  1  0  0  0  0
 25 26  1  0  0  0  0
 25 51  1  0  0  0  0
 26 27  2  0  0  0  0
 26 52  1  0  0  0  0
 27 28  1  0  0  0  0
 27 29  1  0  0  0  0
 29 30  2  0  0  0  0
 29 53  1  0  0  0  0
 30 31  1  0  0  0  0
 31 32  1  0  0  0  0
 32 54  1  0  0  0  0
 32 55  1  0  0  0  0
 32 56  1  0  0  0  0
 33 34  1  0  0  0  0
 33 57  1  0  0  0  0
 34 35  2  0  0  0  0
 34 36  1  0  0  0  0
 35 58  1  0  0  0  0
 36 37  1  0  0  0  0
 36 38  2  0  0  0  0
 36 39  2  0  0  0  0
 37 59  1  0  0  0  0
 37 60  1  0  0  0  0
 37 61  1  0  0  0  0
M  END
>  <DRUGBANK_ID>
DB17734

>  <COMMON_NAME>
JNJ-1802

>  <CAS_NUMBER>
2043343-94-6

>  <UNII>
5EJO0RJF9O

>  <SYNONYMS>
(+)-(2s)-2-(4-chloro-2-methoxyphenyl)-2-((3-methoxy-5-(methylsulfonyl)phenyl)amino)-1-(5-(trifluoromethoxy)-1h-indol-3-yl)ethanone; 2-(4-chloro-2-methoxyphenyl)-2-((3-methoxy-5-(methylsulfonyl)phenyl)amino)-1-(5-(trifluoromethoxy)-1h-indol-3-yl)ethanone, (s)-; Ethanone, 2-(4-chloro-2-methoxyphenyl)-2-((3-methoxy-5-(methylsulfonyl)phenyl)amino)-1-(5-(trifluoromethoxy)-1h-indol-3-yl)-, (+)-

$$$$
