
 OpenBabel10282417072D

 58 57  0  0  0  0  0  0  0  0999 V2000
    4.7586    3.5724    0.0000 C   0  0  0  0  0  0  0  0  0  0  0  0
    5.4730    3.9849    0.0000 C   0  0  0  0  0  0  0  0  0  0  0  0
    6.1875    3.5724    0.0000 C   0  0  0  0  0  0  0  0  0  0  0  0
    6.9020    3.9849    0.0000 C   0  0  0  0  0  0  0  0  0  0  0  0
    7.6164    3.5724    0.0000 C   0  0  0  0  0  0  0  0  0  0  0  0
    8.3309    3.9849    0.0000 C   0  0  0  0  0  0  0  0  0  0  0  0
    9.0454    3.5724    0.0000 C   0  0  0  0  0  0  0  0  0  0  0  0
    9.7599    3.9849    0.0000 C   0  0  0  0  0  0  0  0  0  0  0  0
   10.4743    3.5724    0.0000 C   0  0  0  0  0  0  0  0  0  0  0  0
   11.1888    3.9849    0.0000 C   0  0  0  0  0  0  0  0  0  0  0  0
   11.9033    3.5724    0.0000 C   0  0  0  0  0  0  0  0  0  0  0  0
   12.6177    3.9849    0.0000 C   0  0  0  0  0  0  0  0  0  0  0  0
   13.3322    3.5724    0.0000 C   0  0  0  0  0  0  0  0  0  0  0  0
   14.0467    3.9849    0.0000 C   0  0  0  0  0  0  0  0  0  0  0  0
   14.7612    3.5724    0.0000 C   0  0  0  0  0  0  0  0  0  0  0  0
   16.1901    5.2224    0.0000 C   0  0  0  0  0  0  0  0  0  0  0  0
   15.4756    4.8099    0.0000 C   0  0  1  0  0  0  0  0  0  0  0  0
   15.4756    3.9849    0.0000 C   0  0  2  0  0  0  0  0  0  0  0  0
   14.7612    5.2224    0.0000 N   0  0  0  0  0  0  0  0  0  0  0  0
   16.1901    6.0474    0.0000 O   0  0  0  0  0  0  0  0  0  0  0  0
   16.1901    3.5724    0.0000 O   0  0  0  0  0  0  0  0  0  0  0  0
   14.0467    4.8099    0.0000 H   0  0  0  0  0  0  0  0  0  0  0  0
   14.7612    2.7474    0.0000 H   0  0  0  0  0  0  0  0  0  0  0  0
   16.1901    4.3974    0.0000 H   0  0  0  0  0  0  0  0  0  0  0  0
   14.7612    4.3974    0.0000 H   0  0  0  0  0  0  0  0  0  0  0  0
    3.8319    4.1074    0.0000 H   0  0  0  0  0  0  0  0  0  0  0  0
    4.7586    2.5024    0.0000 H   0  0  0  0  0  0  0  0  0  0  0  0
    3.8320    3.0374    0.0000 H   0  0  0  0  0  0  0  0  0  0  0  0
    5.4730    5.0549    0.0000 H   0  0  0  0  0  0  0  0  0  0  0  0
    6.3996    4.5199    0.0000 H   0  0  0  0  0  0  0  0  0  0  0  0
    6.1875    2.5024    0.0000 H   0  0  0  0  0  0  0  0  0  0  0  0
    7.1141    3.0374    0.0000 H   0  0  0  0  0  0  0  0  0  0  0  0
    6.9020    5.0549    0.0000 H   0  0  0  0  0  0  0  0  0  0  0  0
    7.8287    4.5199    0.0000 H   0  0  0  0  0  0  0  0  0  0  0  0
    7.6164    2.5024    0.0000 H   0  0  0  0  0  0  0  0  0  0  0  0
    8.5430    3.0374    0.0000 H   0  0  0  0  0  0  0  0  0  0  0  0
    8.3309    5.0549    0.0000 H   0  0  0  0  0  0  0  0  0  0  0  0
    9.2575    4.5199    0.0000 H   0  0  0  0  0  0  0  0  0  0  0  0
    9.0454    2.5024    0.0000 H   0  0  0  0  0  0  0  0  0  0  0  0
    9.9720    3.0374    0.0000 H   0  0  0  0  0  0  0  0  0  0  0  0
    9.7599    5.0549    0.0000 H   0  0  0  0  0  0  0  0  0  0  0  0
   10.6866    4.5199    0.0000 H   0  0  0  0  0  0  0  0  0  0  0  0
   10.4743    2.5024    0.0000 H   0  0  0  0  0  0  0  0  0  0  0  0
   11.4009    3.0374    0.0000 H   0  0  0  0  0  0  0  0  0  0  0  0
   11.1888    5.0549    0.0000 H   0  0  0  0  0  0  0  0  0  0  0  0
   12.1154    4.5199    0.0000 H   0  0  0  0  0  0  0  0  0  0  0  0
   11.9033    2.5024    0.0000 H   0  0  0  0  0  0  0  0  0  0  0  0
   12.8300    3.0374    0.0000 H   0  0  0  0  0  0  0  0  0  0  0  0
   12.6177    5.0549    0.0000 H   0  0  0  0  0  0  0  0  0  0  0  0
   13.5443    4.5199    0.0000 H   0  0  0  0  0  0  0  0  0  0  0  0
   13.3322    2.5024    0.0000 H   0  0  0  0  0  0  0  0  0  0  0  0
   14.2588    3.0374    0.0000 H   0  0  0  0  0  0  0  0  0  0  0  0
   17.1167    4.6874    0.0000 H   0  0  0  0  0  0  0  0  0  0  0  0
   17.1167    5.7574    0.0000 H   0  0  0  0  0  0  0  0  0  0  0  0
   14.7612    6.2424    0.0000 H   0  0  0  0  0  0  0  0  0  0  0  0
   13.8778    4.7124    0.0000 H   0  0  0  0  0  0  0  0  0  0  0  0
   17.0301    6.5324    0.0000 H   0  0  0  0  0  0  0  0  0  0  0  0
   16.1901    2.6024    0.0000 H   0  0  0  0  0  0  0  0  0  0  0  0
  1 26  1  0  0  0  0
  1 27  1  0  0  0  0
  1 28  1  0  0  0  0
  2  1  1  0  0  0  0
  2 29  1  0  0  0  0
  2 30  1  0  0  0  0
  3  2  1  0  0  0  0
  3 31  1  0  0  0  0
  3 32  1  0  0  0  0
  4  3  1  0  0  0  0
  4 33  1  0  0  0  0
  4 34  1  0  0  0  0
  5  4  1  0  0  0  0
  5 35  1  0  0  0  0
  5 36  1  0  0  0  0
  6  5  1  0  0  0  0
  6 37  1  0  0  0  0
  6 38  1  0  0  0  0
  7  6  1  0  0  0  0
  7 39  1  0  0  0  0
  7 40  1  0  0  0  0
  8  7  1  0  0  0  0
  8 41  1  0  0  0  0
  8 42  1  0  0  0  0
  9  8  1  0  0  0  0
  9 43  1  0  0  0  0
  9 44  1  0  0  0  0
 10  9  1  0  0  0  0
 10 45  1  0  0  0  0
 10 46  1  0  0  0  0
 11 10  1  0  0  0  0
 11 47  1  0  0  0  0
 11 48  1  0  0  0  0
 12 11  1  0  0  0  0
 12 49  1  0  0  0  0
 12 50  1  0  0  0  0
 13 12  1  0  0  0  0
 13 51  1  0  0  0  0
 13 52  1  0  0  0  0
 14 13  1  0  0  0  0
 15 14  2  0  0  0  0
 16 53  1  0  0  0  0
 16 54  1  0  0  0  0
 17 16  1  0  0  0  0
 17 19  1  0  0  0  0
 17 24  1  6  0  0  0
 18 15  1  0  0  0  0
 18 17  1  0  0  0  0
 18 21  1  0  0  0  0
 18 25  1  1  0  0  0
 19 55  1  0  0  0  0
 19 56  1  0  0  0  0
 20 16  1  0  0  0  0
 20 57  1  0  0  0  0
 21 58  1  0  0  0  0
 22 14  1  0  0  0  0
 23 15  1  0  0  0  0
M  END
>  <DRUGBANK_ID>
DB03203

>  <SECONDARY_ACCESSION_NUMBERS>
EXPT02945

>  <COMMON_NAME>
Sphingosine

>  <CAS_NUMBER>
123-78-4

>  <UNII>
NGZ37HRE42

$$$$
