1094
 OpenBabel10282417072D

 36 38  0  0  1  0  0  0  0  0999 V2000
    5.9369    0.2231    0.0000 O   0  0  0  0  0  0  0  0  0  0  0  0
    5.9369   -2.2519    0.0000 O   0  0  0  0  0  0  0  0  0  0  0  0
    7.3793   -2.2805    0.0000 O   0  0  0  0  0  0  0  0  0  0  0  0
    2.3644    1.4606    0.0000 O   0  0  0  0  0  0  0  0  0  0  0  0
    3.7934    2.2856    0.0000 O   0  0  0  0  0  0  0  0  0  0  0  0
    8.8492    0.2430    0.0000 O   0  0  0  0  0  0  0  0  0  0  0  0
    5.2223   -0.1894    0.0000 C   0  0  1  0  0  0  0  0  0  0  0  0
    5.2223   -1.0144    0.0000 C   0  0  0  0  0  0  0  0  0  0  0  0
    4.5079    0.2231    0.0000 C   0  0  0  0  0  0  0  0  0  0  0  0
    6.6513   -1.0144    0.0000 C   0  0  0  0  0  0  0  0  0  0  0  0
    5.9369   -1.4269    0.0000 C   0  0  0  0  0  0  0  0  0  0  0  0
    6.6513   -0.1894    0.0000 C   0  0  0  0  0  0  0  0  0  0  0  0
    4.5079    1.0481    0.0000 C   0  0  0  0  0  0  0  0  0  0  0  0
    3.7934   -0.1894    0.0000 C   0  0  0  0  0  0  0  0  0  0  0  0
    7.3888   -1.4555    0.0000 C   0  0  0  0  0  0  0  0  0  0  0  0
    7.3888    0.2517    0.0000 C   0  0  0  0  0  0  0  0  0  0  0  0
    3.7934    1.4606    0.0000 C   0  0  0  0  0  0  0  0  0  0  0  0
    8.1363   -1.0316    0.0000 C   0  0  0  0  0  0  0  0  0  0  0  0
    8.1363   -0.1723    0.0000 C   0  0  0  0  0  0  0  0  0  0  0  0
    3.0790    0.2231    0.0000 C   0  0  0  0  0  0  0  0  0  0  0  0
    3.0790    1.0481    0.0000 C   0  0  0  0  0  0  0  0  0  0  0  0
    1.6500    1.0481    0.0000 C   0  0  0  0  0  0  0  0  0  0  0  0
    6.5625   -2.7396    0.0000 H   0  0  0  0  0  0  0  0  0  0  0  0
    4.6049    2.7541    0.0000 H   0  0  0  0  0  0  0  0  0  0  0  0
    9.6625   -0.2223    0.0000 H   0  0  0  0  0  0  0  0  0  0  0  0
    5.2224    0.8806    0.0000 H   0  0  0  0  0  0  0  0  0  0  0  0
    4.2957   -1.5494    0.0000 H   0  0  0  0  0  0  0  0  0  0  0  0
    5.2224   -2.0844    0.0000 H   0  0  0  0  0  0  0  0  0  0  0  0
    5.4016    1.5641    0.0000 H   0  0  0  0  0  0  0  0  0  0  0  0
    3.7934   -1.2214    0.0000 H   0  0  0  0  0  0  0  0  0  0  0  0
    7.3769    1.2836    0.0000 H   0  0  0  0  0  0  0  0  0  0  0  0
    9.0280   -1.5511    0.0000 H   0  0  0  0  0  0  0  0  0  0  0  0
    2.1853   -0.2929    0.0000 H   0  0  0  0  0  0  0  0  0  0  0  0
    0.7233    1.5831    0.0000 H   0  0  0  0  0  0  0  0  0  0  0  0
    1.6500   -0.0219    0.0000 H   0  0  0  0  0  0  0  0  0  0  0  0
    0.7234    0.5131    0.0000 H   0  0  0  0  0  0  0  0  0  0  0  0
  1  7  1  0  0  0  0
  1 12  1  0  0  0  0
  2 11  2  0  0  0  0
  3 15  1  0  0  0  0
  3 23  1  0  0  0  0
  4 21  1  0  0  0  0
  4 22  1  0  0  0  0
  5 17  1  0  0  0  0
  5 24  1  0  0  0  0
  6 19  1  0  0  0  0
  6 25  1  0  0  0  0
  7  8  1  0  0  0  0
  7  9  1  0  0  0  0
  7 26  1  6  0  0  0
  8 11  1  0  0  0  0
  8 27  1  0  0  0  0
  8 28  1  0  0  0  0
  9 13  2  0  0  0  0
  9 14  1  0  0  0  0
 10 11  1  0  0  0  0
 10 12  1  0  0  0  0
 10 15  2  0  0  0  0
 12 16  2  0  0  0  0
 13 17  1  0  0  0  0
 13 29  1  0  0  0  0
 14 20  2  0  0  0  0
 14 30  1  0  0  0  0
 15 18  1  0  0  0  0
 16 19  1  0  0  0  0
 16 31  1  0  0  0  0
 17 21  2  0  0  0  0
 18 19  2  0  0  0  0
 18 32  1  0  0  0  0
 20 21  1  0  0  0  0
 20 33  1  0  0  0  0
 22 34  1  0  0  0  0
 22 35  1  0  0  0  0
 22 36  1  0  0  0  0
M  END
>  <DRUGBANK_ID>
DB01094

>  <SECONDARY_ACCESSION_NUMBERS>
APRD00117

>  <COMMON_NAME>
Hesperetin

>  <CAS_NUMBER>
520-33-2

>  <UNII>
Q9Q3D557F1

>  <SYNONYMS>
(−)-(S)-hesperetin; (−)-hesperetin; (S)-2,3-dihydro-5,7-dihydroxy-2-(3-hydroxy-4-methoxyphenyl)-4H-1-benzopyran-4-one; 3',5,7-Trihydroxy-4'-methoxyflavanone; Hesperitin

$$$$
