
 OpenBabel10282417072D

176176  0  0  0  0  0  0  0  0999 V2000
   -2.8886   -0.4122    0.0000 C   0  0  0  0  0  0  0  0  0  0  0  0
   -3.6032    0.0000    0.0000 C   0  0  0  0  0  0  0  0  0  0  0  0
   -4.3179   -0.4122    0.0000 C   0  0  0  0  0  0  0  0  0  0  0  0
   -5.0050    0.0000    0.0000 C   0  0  0  0  0  0  0  0  0  0  0  0
   -5.7196   -0.4122    0.0000 C   0  0  0  0  0  0  0  0  0  0  0  0
   -6.4342    0.0000    0.0000 C   0  0  0  0  0  0  0  0  0  0  0  0
   -7.1489   -0.4122    0.0000 C   0  0  0  0  0  0  0  0  0  0  0  0
   -7.8305    0.0000    0.0000 C   0  0  0  0  0  0  0  0  0  0  0  0
   -8.5451   -0.4122    0.0000 C   0  0  0  0  0  0  0  0  0  0  0  0
   -9.2597    0.0000    0.0000 C   0  0  0  0  0  0  0  0  0  0  0  0
   -9.9744   -0.4122    0.0000 C   0  0  0  0  0  0  0  0  0  0  0  0
  -10.6889    0.0000    0.0000 C   0  0  0  0  0  0  0  0  0  0  0  0
  -11.4036   -0.4122    0.0000 C   0  0  0  0  0  0  0  0  0  0  0  0
  -12.1182    0.0000    0.0000 C   0  0  0  0  0  0  0  0  0  0  0  0
  -12.8328   -0.4122    0.0000 C   0  0  0  0  0  0  0  0  0  0  0  0
  -13.5475    0.0000    0.0000 C   0  0  0  0  0  0  0  0  0  0  0  0
   -2.8886   -1.2368    0.0000 O   0  0  0  0  0  0  0  0  0  0  0  0
   -2.1740    0.0000    0.0000 N   0  0  0  0  0  0  0  0  0  0  0  0
   -1.4594   -0.4122    0.0000 C   0  0  2  0  0  0  0  0  0  0  0  0
   -0.7448    0.0000    0.0000 C   0  0  0  0  0  0  0  0  0  0  0  0
   -0.0302   -0.4122    0.0000 N   0  0  0  0  0  0  0  0  0  0  0  0
    0.6843    0.0000    0.0000 C   0  0  2  0  0  0  0  0  0  0  0  0
    1.3990   -0.4122    0.0000 C   0  0  0  0  0  0  0  0  0  0  0  0
    2.1136    0.0000    0.0000 N   0  0  0  0  0  0  0  0  0  0  0  0
    2.8282   -0.4122    0.0000 C   0  0  2  0  0  0  0  0  0  0  0  0
    3.5428    0.0000    0.0000 C   0  0  0  0  0  0  0  0  0  0  0  0
    4.2575   -0.4122    0.0000 N   0  0  0  0  0  0  0  0  0  0  0  0
    4.9720    0.0000    0.0000 C   0  0  2  0  0  0  0  0  0  0  0  0
    5.6867   -0.4122    0.0000 C   0  0  0  0  0  0  0  0  0  0  0  0
    6.4013    0.0000    0.0000 N   0  0  0  0  0  0  0  0  0  0  0  0
    7.1159   -0.4122    0.0000 C   0  0  2  0  0  0  0  0  0  0  0  0
    7.8305    0.0000    0.0000 C   0  0  0  0  0  0  0  0  0  0  0  0
    8.5452   -0.4122    0.0000 N   0  0  0  0  0  0  0  0  0  0  0  0
    9.2597    0.0000    0.0000 C   0  0  2  0  0  0  0  0  0  0  0  0
    9.9744   -0.4122    0.0000 C   0  0  0  0  0  0  0  0  0  0  0  0
   10.6890    0.0000    0.0000 N   0  0  0  0  0  0  0  0  0  0  0  0
   11.4036   -0.4122    0.0000 C   0  0  2  0  0  0  0  0  0  0  0  0
   12.1183    0.0000    0.0000 C   0  0  0  0  0  0  0  0  0  0  0  0
   12.1183    0.8246    0.0000 O   0  0  0  0  0  0  0  0  0  0  0  0
   12.8329   -0.4122    0.0000 N   0  0  0  0  0  0  0  0  0  0  0  0
   11.4036   -1.2368    0.0000 C   0  0  0  0  0  0  0  0  0  0  0  0
   12.1183   -1.6491    0.0000 C   0  0  0  0  0  0  0  0  0  0  0  0
   12.8329   -1.2368    0.0000 C   0  0  0  0  0  0  0  0  0  0  0  0
   13.5475   -1.6491    0.0000 C   0  0  0  0  0  0  0  0  0  0  0  0
   13.5475   -2.4737    0.0000 C   0  0  0  0  0  0  0  0  0  0  0  0
   12.8329   -2.8859    0.0000 C   0  0  0  0  0  0  0  0  0  0  0  0
   12.1183   -2.4737    0.0000 C   0  0  0  0  0  0  0  0  0  0  0  0
    9.9744   -1.2368    0.0000 O   0  0  0  0  0  0  0  0  0  0  0  0
    9.2597    0.8246    0.0000 C   0  0  0  0  0  0  0  0  0  0  0  0
    9.9744    1.2368    0.0000 C   0  0  0  0  0  0  0  0  0  0  0  0
   10.6890    0.8246    0.0000 C   0  0  0  0  0  0  0  0  0  0  0  0
    9.9744    2.0613    0.0000 C   0  0  0  0  0  0  0  0  0  0  0  0
    7.8305    0.8246    0.0000 O   0  0  0  0  0  0  0  0  0  0  0  0
    7.1159   -1.2368    0.0000 C   0  0  0  0  0  0  0  0  0  0  0  0
    5.6867   -1.2368    0.0000 O   0  0  0  0  0  0  0  0  0  0  0  0
    4.9720    0.8246    0.0000 C   0  0  0  0  0  0  0  0  0  0  0  0
    5.6867    1.2368    0.0000 C   0  0  0  0  0  0  0  0  0  0  0  0
    5.6867    2.0613    0.0000 C   0  0  0  0  0  0  0  0  0  0  0  0
    6.4013    2.4737    0.0000 N   0  0  0  0  0  0  0  0  0  0  0  0
    6.4013    3.2982    0.0000 C   0  0  0  0  0  0  0  0  0  0  0  0
    5.6867    3.7105    0.0000 N   0  0  0  0  0  0  0  0  0  0  0  0
    7.1159    3.7105    0.0000 N   0  0  0  0  0  0  0  0  0  0  0  0
    3.5428    0.8246    0.0000 O   0  0  0  0  0  0  0  0  0  0  0  0
    2.8282   -1.2368    0.0000 C   0  0  0  0  0  0  0  0  0  0  0  0
    3.5428   -1.6491    0.0000 O   0  0  0  0  0  0  0  0  0  0  0  0
    1.3990   -1.2368    0.0000 O   0  0  0  0  0  0  0  0  0  0  0  0
    0.6843    0.8246    0.0000 C   0  0  0  0  0  0  0  0  0  0  0  0
    1.3990    1.2368    0.0000 C   0  0  0  0  0  0  0  0  0  0  0  0
    1.3990    2.0613    0.0000 C   0  0  0  0  0  0  0  0  0  0  0  0
    2.1136    2.4737    0.0000 C   0  0  0  0  0  0  0  0  0  0  0  0
    2.1136    3.2982    0.0000 N   0  0  0  0  0  0  0  0  0  0  0  0
   -0.7448    0.8246    0.0000 O   0  0  0  0  0  0  0  0  0  0  0  0
   -1.4594   -1.2368    0.0000 C   0  0  0  0  0  0  0  0  0  0  0  0
   -2.1740   -1.6491    0.0000 C   0  0  0  0  0  0  0  0  0  0  0  0
   -2.1740   -2.4737    0.0000 C   0  0  0  0  0  0  0  0  0  0  0  0
   -2.8886   -2.8859    0.0000 C   0  0  0  0  0  0  0  0  0  0  0  0
   -2.8886   -3.7105    0.0000 N   0  0  0  0  0  0  0  0  0  0  0  0
   -3.6032    1.0700    0.0000 H   0  0  0  0  0  0  0  0  0  0  0  0
   -4.5297    0.5352    0.0000 H   0  0  0  0  0  0  0  0  0  0  0  0
   -4.3271   -1.4822    0.0000 H   0  0  0  0  0  0  0  0  0  0  0  0
   -5.2513   -0.9354    0.0000 H   0  0  0  0  0  0  0  0  0  0  0  0
   -4.9958    1.0700    0.0000 H   0  0  0  0  0  0  0  0  0  0  0  0
   -5.9292    0.5391    0.0000 H   0  0  0  0  0  0  0  0  0  0  0  0
   -5.7196   -1.4822    0.0000 H   0  0  0  0  0  0  0  0  0  0  0  0
   -6.6461   -0.9474    0.0000 H   0  0  0  0  0  0  0  0  0  0  0  0
   -6.4342    1.0700    0.0000 H   0  0  0  0  0  0  0  0  0  0  0  0
   -7.3607    0.5352    0.0000 H   0  0  0  0  0  0  0  0  0  0  0  0
   -7.1600   -1.4821    0.0000 H   0  0  0  0  0  0  0  0  0  0  0  0
   -8.0836   -0.9329    0.0000 H   0  0  0  0  0  0  0  0  0  0  0  0
   -7.8194    1.0699    0.0000 H   0  0  0  0  0  0  0  0  0  0  0  0
   -8.7543    0.5400    0.0000 H   0  0  0  0  0  0  0  0  0  0  0  0
   -8.5451   -1.4822    0.0000 H   0  0  0  0  0  0  0  0  0  0  0  0
   -9.4716   -0.9474    0.0000 H   0  0  0  0  0  0  0  0  0  0  0  0
   -9.2597    1.0700    0.0000 H   0  0  0  0  0  0  0  0  0  0  0  0
  -10.1862    0.5352    0.0000 H   0  0  0  0  0  0  0  0  0  0  0  0
   -9.9745   -1.4822    0.0000 H   0  0  0  0  0  0  0  0  0  0  0  0
  -10.9010   -0.9473    0.0000 H   0  0  0  0  0  0  0  0  0  0  0  0
  -10.6888    1.0700    0.0000 H   0  0  0  0  0  0  0  0  0  0  0  0
  -11.6154    0.5352    0.0000 H   0  0  0  0  0  0  0  0  0  0  0  0
  -11.4036   -1.4822    0.0000 H   0  0  0  0  0  0  0  0  0  0  0  0
  -12.3302   -0.9474    0.0000 H   0  0  0  0  0  0  0  0  0  0  0  0
  -12.1182    1.0700    0.0000 H   0  0  0  0  0  0  0  0  0  0  0  0
  -13.0447    0.5352    0.0000 H   0  0  0  0  0  0  0  0  0  0  0  0
  -12.8328   -1.4822    0.0000 H   0  0  0  0  0  0  0  0  0  0  0  0
  -13.7593   -0.9474    0.0000 H   0  0  0  0  0  0  0  0  0  0  0  0
  -13.5480    1.0700    0.0000 H   0  0  0  0  0  0  0  0  0  0  0  0
  -14.4739   -0.5354    0.0000 H   0  0  0  0  0  0  0  0  0  0  0  0
  -14.4744    0.5346    0.0000 H   0  0  0  0  0  0  0  0  0  0  0  0
   -2.1740    0.9845    0.0000 H   0  0  0  0  0  0  0  0  0  0  0  0
   -2.3859   -0.9474    0.0000 H   0  0  0  0  0  0  0  0  0  0  0  0
   -0.0302   -1.3967    0.0000 H   0  0  0  0  0  0  0  0  0  0  0  0
   -0.2423    0.5352    0.0000 H   0  0  0  0  0  0  0  0  0  0  0  0
    2.1136    0.9845    0.0000 H   0  0  0  0  0  0  0  0  0  0  0  0
    1.9017   -0.9474    0.0000 H   0  0  0  0  0  0  0  0  0  0  0  0
    4.2576   -1.3967    0.0000 H   0  0  0  0  0  0  0  0  0  0  0  0
    4.0454    0.5352    0.0000 H   0  0  0  0  0  0  0  0  0  0  0  0
    6.4013    0.9845    0.0000 H   0  0  0  0  0  0  0  0  0  0  0  0
    6.1894   -0.9474    0.0000 H   0  0  0  0  0  0  0  0  0  0  0  0
    8.5453   -1.3967    0.0000 H   0  0  0  0  0  0  0  0  0  0  0  0
    8.3331    0.5352    0.0000 H   0  0  0  0  0  0  0  0  0  0  0  0
   10.6890    0.9845    0.0000 H   0  0  0  0  0  0  0  0  0  0  0  0
   10.4771   -0.9474    0.0000 H   0  0  0  0  0  0  0  0  0  0  0  0
   12.8333   -1.3967    0.0000 H   0  0  0  0  0  0  0  0  0  0  0  0
   13.6853    0.0804    0.0000 H   0  0  0  0  0  0  0  0  0  0  0  0
   10.4770   -1.7720    0.0000 H   0  0  0  0  0  0  0  0  0  0  0  0
   11.4039   -2.3068    0.0000 H   0  0  0  0  0  0  0  0  0  0  0  0
   12.8329   -0.2048    0.0000 H   0  0  0  0  0  0  0  0  0  0  0  0
   14.4412   -1.1330    0.0000 H   0  0  0  0  0  0  0  0  0  0  0  0
   14.4411   -2.9899    0.0000 H   0  0  0  0  0  0  0  0  0  0  0  0
   12.8329   -3.9179    0.0000 H   0  0  0  0  0  0  0  0  0  0  0  0
   11.2247   -2.9899    0.0000 H   0  0  0  0  0  0  0  0  0  0  0  0
    8.3332    1.3598    0.0000 H   0  0  0  0  0  0  0  0  0  0  0  0
    9.2601    1.8946    0.0000 H   0  0  0  0  0  0  0  0  0  0  0  0
   10.9009    1.7720    0.0000 H   0  0  0  0  0  0  0  0  0  0  0  0
   10.6894   -0.2454    0.0000 H   0  0  0  0  0  0  0  0  0  0  0  0
   11.6154    1.3600    0.0000 H   0  0  0  0  0  0  0  0  0  0  0  0
   11.6159    0.2900    0.0000 H   0  0  0  0  0  0  0  0  0  0  0  0
   10.9010    2.5963    0.0000 H   0  0  0  0  0  0  0  0  0  0  0  0
    9.0478    2.5963    0.0000 H   0  0  0  0  0  0  0  0  0  0  0  0
    9.9744    3.1313    0.0000 H   0  0  0  0  0  0  0  0  0  0  0  0
    6.1893   -1.7718    0.0000 H   0  0  0  0  0  0  0  0  0  0  0  0
    8.0425   -1.7718    0.0000 H   0  0  0  0  0  0  0  0  0  0  0  0
    7.1159   -2.3068    0.0000 H   0  0  0  0  0  0  0  0  0  0  0  0
    4.0455    1.3598    0.0000 H   0  0  0  0  0  0  0  0  0  0  0  0
    4.9724    1.8946    0.0000 H   0  0  0  0  0  0  0  0  0  0  0  0
    6.6132    0.7016    0.0000 H   0  0  0  0  0  0  0  0  0  0  0  0
    6.6134    1.7717    0.0000 H   0  0  0  0  0  0  0  0  0  0  0  0
    4.7601    2.5964    0.0000 H   0  0  0  0  0  0  0  0  0  0  0  0
    5.6868    3.1313    0.0000 H   0  0  0  0  0  0  0  0  0  0  0  0
    7.2539    1.9814    0.0000 H   0  0  0  0  0  0  0  0  0  0  0  0
    5.6864    4.6950    0.0000 H   0  0  0  0  0  0  0  0  0  0  0  0
    7.9684    3.2180    0.0000 H   0  0  0  0  0  0  0  0  0  0  0  0
    7.1162    4.6950    0.0000 H   0  0  0  0  0  0  0  0  0  0  0  0
    1.9016   -1.7719    0.0000 H   0  0  0  0  0  0  0  0  0  0  0  0
    2.8284   -2.3068    0.0000 H   0  0  0  0  0  0  0  0  0  0  0  0
    3.5431   -2.6191    0.0000 H   0  0  0  0  0  0  0  0  0  0  0  0
   -0.2422    1.3598    0.0000 H   0  0  0  0  0  0  0  0  0  0  0  0
    0.6847    1.8946    0.0000 H   0  0  0  0  0  0  0  0  0  0  0  0
    2.3255    0.7016    0.0000 H   0  0  0  0  0  0  0  0  0  0  0  0
    2.3257    1.7717    0.0000 H   0  0  0  0  0  0  0  0  0  0  0  0
    0.4724    2.5964    0.0000 H   0  0  0  0  0  0  0  0  0  0  0  0
    1.3991    3.1313    0.0000 H   0  0  0  0  0  0  0  0  0  0  0  0
    3.0402    1.9386    0.0000 H   0  0  0  0  0  0  0  0  0  0  0  0
    3.0403    3.0087    0.0000 H   0  0  0  0  0  0  0  0  0  0  0  0
    2.9969    3.8082    0.0000 H   0  0  0  0  0  0  0  0  0  0  0  0
    1.2303    3.8082    0.0000 H   0  0  0  0  0  0  0  0  0  0  0  0
   -0.5328   -1.7719    0.0000 H   0  0  0  0  0  0  0  0  0  0  0  0
   -1.4596   -2.3068    0.0000 H   0  0  0  0  0  0  0  0  0  0  0  0
   -3.1006   -1.1140    0.0000 H   0  0  0  0  0  0  0  0  0  0  0  0
   -3.1007   -2.1840    0.0000 H   0  0  0  0  0  0  0  0  0  0  0  0
   -1.2475   -3.0089    0.0000 H   0  0  0  0  0  0  0  0  0  0  0  0
   -2.1743   -3.5437    0.0000 H   0  0  0  0  0  0  0  0  0  0  0  0
   -3.8151   -2.3507    0.0000 H   0  0  0  0  0  0  0  0  0  0  0  0
   -3.8153   -3.4208    0.0000 H   0  0  0  0  0  0  0  0  0  0  0  0
   -3.7719   -4.2205    0.0000 H   0  0  0  0  0  0  0  0  0  0  0  0
   -2.0053   -4.2205    0.0000 H   0  0  0  0  0  0  0  0  0  0  0  0
  1  2  1  0  0  0  0
  1 17  2  0  0  0  0
  1 18  1  0  0  0  0
  2  3  1  0  0  0  0
  2 78  1  0  0  0  0
  2 79  1  0  0  0  0
  3  4  1  0  0  0  0
  3 80  1  0  0  0  0
  3 81  1  0  0  0  0
  4  5  1  0  0  0  0
  4 82  1  0  0  0  0
  4 83  1  0  0  0  0
  5  6  1  0  0  0  0
  5 84  1  0  0  0  0
  5 85  1  0  0  0  0
  6  7  1  0  0  0  0
  6 86  1  0  0  0  0
  6 87  1  0  0  0  0
  7  8  1  0  0  0  0
  7 88  1  0  0  0  0
  7 89  1  0  0  0  0
  8  9  1  0  0  0  0
  8 90  1  0  0  0  0
  8 91  1  0  0  0  0
  9 10  1  0  0  0  0
  9 92  1  0  0  0  0
  9 93  1  0  0  0  0
 10 11  1  0  0  0  0
 10 94  1  0  0  0  0
 10 95  1  0  0  0  0
 11 12  1  0  0  0  0
 11 96  1  0  0  0  0
 11 97  1  0  0  0  0
 12 13  1  0  0  0  0
 12 98  1  0  0  0  0
 12 99  1  0  0  0  0
 13 14  1  0  0  0  0
 13100  1  0  0  0  0
 13101  1  0  0  0  0
 14 15  1  0  0  0  0
 14102  1  0  0  0  0
 14103  1  0  0  0  0
 15 16  1  0  0  0  0
 15104  1  0  0  0  0
 15105  1  0  0  0  0
 16106  1  0  0  0  0
 16107  1  0  0  0  0
 16108  1  0  0  0  0
 18 19  1  0  0  0  0
 18109  1  0  0  0  0
 19 73  1  0  0  0  0
 19110  1  1  0  0  0
 20 19  1  0  0  0  0
 20 72  2  0  0  0  0
 21 20  1  0  0  0  0
 21111  1  0  0  0  0
 22 21  1  0  0  0  0
 22 67  1  0  0  0  0
 22112  1  6  0  0  0
 23 22  1  0  0  0  0
 23 66  2  0  0  0  0
 24 23  1  0  0  0  0
 24113  1  0  0  0  0
 25 24  1  0  0  0  0
 25 64  1  0  0  0  0
 25114  1  1  0  0  0
 26 25  1  0  0  0  0
 26 63  2  0  0  0  0
 27 26  1  0  0  0  0
 27115  1  0  0  0  0
 28 27  1  0  0  0  0
 28 56  1  0  0  0  0
 28116  1  6  0  0  0
 29 28  1  0  0  0  0
 29 55  2  0  0  0  0
 30 29  1  0  0  0  0
 30117  1  0  0  0  0
 31 30  1  0  0  0  0
 31 54  1  0  0  0  0
 31118  1  1  0  0  0
 32 31  1  0  0  0  0
 32 53  2  0  0  0  0
 33 32  1  0  0  0  0
 33119  1  0  0  0  0
 34 33  1  0  0  0  0
 34 49  1  0  0  0  0
 34120  1  6  0  0  0
 35 34  1  0  0  0  0
 35 48  2  0  0  0  0
 36 35  1  0  0  0  0
 36121  1  0  0  0  0
 37 36  1  0  0  0  0
 37 41  1  0  0  0  0
 37122  1  1  0  0  0
 38 37  1  0  0  0  0
 38 39  2  0  0  0  0
 38 40  1  0  0  0  0
 40123  1  0  0  0  0
 40124  1  0  0  0  0
 41 42  1  0  0  0  0
 41125  1  0  0  0  0
 41126  1  0  0  0  0
 42 43  1  0  0  0  0
 42 47  2  0  0  0  0
 43 44  2  0  0  0  0
 43127  1  0  0  0  0
 44 45  1  0  0  0  0
 44128  1  0  0  0  0
 45 46  2  0  0  0  0
 45129  1  0  0  0  0
 46 47  1  0  0  0  0
 46130  1  0  0  0  0
 47131  1  0  0  0  0
 49 50  1  0  0  0  0
 49132  1  0  0  0  0
 49133  1  0  0  0  0
 50 51  1  0  0  0  0
 50 52  1  0  0  0  0
 50134  1  0  0  0  0
 51135  1  0  0  0  0
 51136  1  0  0  0  0
 51137  1  0  0  0  0
 52138  1  0  0  0  0
 52139  1  0  0  0  0
 52140  1  0  0  0  0
 54141  1  0  0  0  0
 54142  1  0  0  0  0
 54143  1  0  0  0  0
 56 57  1  0  0  0  0
 56144  1  0  0  0  0
 56145  1  0  0  0  0
 57 58  1  0  0  0  0
 57146  1  0  0  0  0
 57147  1  0  0  0  0
 58 59  1  0  0  0  0
 58148  1  0  0  0  0
 58149  1  0  0  0  0
 59 60  1  0  0  0  0
 59150  1  0  0  0  0
 60 61  2  0  0  0  0
 60 62  1  0  0  0  0
 61151  1  0  0  0  0
 62152  1  0  0  0  0
 62153  1  0  0  0  0
 64 65  1  0  0  0  0
 64154  1  0  0  0  0
 64155  1  0  0  0  0
 65156  1  0  0  0  0
 67 68  1  0  0  0  0
 67157  1  0  0  0  0
 67158  1  0  0  0  0
 68 69  1  0  0  0  0
 68159  1  0  0  0  0
 68160  1  0  0  0  0
 69 70  1  0  0  0  0
 69161  1  0  0  0  0
 69162  1  0  0  0  0
 70 71  1  0  0  0  0
 70163  1  0  0  0  0
 70164  1  0  0  0  0
 71165  1  0  0  0  0
 71166  1  0  0  0  0
 73 74  1  0  0  0  0
 73167  1  0  0  0  0
 73168  1  0  0  0  0
 74 75  1  0  0  0  0
 74169  1  0  0  0  0
 74170  1  0  0  0  0
 75 76  1  0  0  0  0
 75171  1  0  0  0  0
 75172  1  0  0  0  0
 76 77  1  0  0  0  0
 76173  1  0  0  0  0
 76174  1  0  0  0  0
 77175  1  0  0  0  0
 77176  1  0  0  0  0
M  END
>  <DRUGBANK_ID>
DB11839

>  <COMMON_NAME>
PZ-128

>  <CAS_NUMBER>
371131-16-7

>  <UNII>
IYT6MP4NS9

$$$$
