CII
 OpenBabel10282417072D

 47 48  0  0  0  0  0  0  0  0999 V2000
  -10.0180    0.2109    0.0000 O   0  0  0  0  0  0  0  0  0  0  0  0
  -10.0180   -0.6141    0.0000 C   0  0  0  0  0  0  0  0  0  0  0  0
  -10.7324   -1.0266    0.0000 C   0  0  0  0  0  0  0  0  0  0  0  0
  -10.7324   -1.8516    0.0000 C   0  0  0  0  0  0  0  0  0  0  0  0
  -11.4469   -2.2641    0.0000 C   0  0  0  0  0  0  0  0  0  0  0  0
  -12.1614   -1.8516    0.0000 C   0  0  0  0  0  0  0  0  0  0  0  0
  -12.1614   -1.0266    0.0000 C   0  0  0  0  0  0  0  0  0  0  0  0
  -11.4469   -0.6141    0.0000 C   0  0  0  0  0  0  0  0  0  0  0  0
   -9.3035   -1.0266    0.0000 N   0  0  0  0  0  0  0  0  0  0  0  0
   -8.5890   -0.6141    0.0000 C   0  0  1  0  0  0  0  0  0  0  0  0
   -8.5890    0.2109    0.0000 C   0  0  0  0  0  0  0  0  0  0  0  0
   -7.8745    0.6234    0.0000 C   0  0  0  0  0  0  0  0  0  0  0  0
   -9.3035    0.6234    0.0000 C   0  0  0  0  0  0  0  0  0  0  0  0
   -7.8745   -1.0266    0.0000 C   0  0  0  0  0  0  0  0  0  0  0  0
   -7.8745   -1.8516    0.0000 O   0  0  0  0  0  0  0  0  0  0  0  0
   -7.1601   -0.6141    0.0000 N   0  0  0  0  0  0  0  0  0  0  0  0
   -6.4456   -1.0266    0.0000 C   0  0  0  0  0  0  0  0  0  0  0  0
   -5.7311   -0.6141    0.0000 C   0  0  0  0  0  0  0  0  0  0  0  0
   -5.0167   -1.0266    0.0000 C   0  0  0  0  0  0  0  0  0  0  0  0
   -5.0167   -1.8516    0.0000 N   0  0  0  0  0  0  0  0  0  0  0  0
   -5.7311   -2.2641    0.0000 C   0  0  0  0  0  0  0  0  0  0  0  0
   -6.4456   -1.8516    0.0000 C   0  0  0  0  0  0  0  0  0  0  0  0
   -9.0947   -0.3221    0.0000 H   0  0  0  0  0  0  0  0  0  0  0  0
  -11.6590   -1.5616    0.0000 H   0  0  0  0  0  0  0  0  0  0  0  0
   -9.8058   -2.3866    0.0000 H   0  0  0  0  0  0  0  0  0  0  0  0
  -10.7324   -2.9216    0.0000 H   0  0  0  0  0  0  0  0  0  0  0  0
  -11.4469   -3.3341    0.0000 H   0  0  0  0  0  0  0  0  0  0  0  0
  -12.3735   -2.7991    0.0000 H   0  0  0  0  0  0  0  0  0  0  0  0
  -13.0880   -2.3866    0.0000 H   0  0  0  0  0  0  0  0  0  0  0  0
  -13.0880   -1.3166    0.0000 H   0  0  0  0  0  0  0  0  0  0  0  0
  -13.0880   -0.4916    0.0000 H   0  0  0  0  0  0  0  0  0  0  0  0
  -12.1614    0.0434    0.0000 H   0  0  0  0  0  0  0  0  0  0  0  0
  -11.4469    0.4559    0.0000 H   0  0  0  0  0  0  0  0  0  0  0  0
  -12.3735   -0.0791    0.0000 H   0  0  0  0  0  0  0  0  0  0  0  0
   -9.3035   -2.0111    0.0000 H   0  0  0  0  0  0  0  0  0  0  0  0
   -8.5890    1.2809    0.0000 H   0  0  0  0  0  0  0  0  0  0  0  0
   -6.9479    0.0884    0.0000 H   0  0  0  0  0  0  0  0  0  0  0  0
   -7.8745    1.6934    0.0000 H   0  0  0  0  0  0  0  0  0  0  0  0
   -6.9478    1.1584    0.0000 H   0  0  0  0  0  0  0  0  0  0  0  0
   -9.3035    1.6934    0.0000 H   0  0  0  0  0  0  0  0  0  0  0  0
  -10.2301    0.0884    0.0000 H   0  0  0  0  0  0  0  0  0  0  0  0
  -10.2302    1.1584    0.0000 H   0  0  0  0  0  0  0  0  0  0  0  0
   -7.1601    0.3704    0.0000 H   0  0  0  0  0  0  0  0  0  0  0  0
   -5.7311    0.4179    0.0000 H   0  0  0  0  0  0  0  0  0  0  0  0
   -4.1230   -0.5106    0.0000 H   0  0  0  0  0  0  0  0  0  0  0  0
   -5.7311   -3.2961    0.0000 H   0  0  0  0  0  0  0  0  0  0  0  0
   -7.3393   -2.3676    0.0000 H   0  0  0  0  0  0  0  0  0  0  0  0
  1  2  2  0  0  0  0
  2  3  1  0  0  0  0
  2  9  1  0  0  0  0
  3  4  1  0  0  0  0
  3  8  1  0  0  0  0
  3 24  1  0  0  0  0
  4  5  1  0  0  0  0
  4 25  1  0  0  0  0
  4 26  1  0  0  0  0
  5  6  1  0  0  0  0
  5 27  1  0  0  0  0
  5 28  1  0  0  0  0
  6  7  1  0  0  0  0
  6 29  1  0  0  0  0
  6 30  1  0  0  0  0
  7  8  1  0  0  0  0
  7 31  1  0  0  0  0
  7 32  1  0  0  0  0
  8 33  1  0  0  0  0
  8 34  1  0  0  0  0
  9 35  1  0  0  0  0
 10  9  1  0  0  0  0
 10 11  1  0  0  0  0
 10 14  1  0  0  0  0
 10 23  1  6  0  0  0
 11 12  1  0  0  0  0
 11 13  1  0  0  0  0
 11 36  1  0  0  0  0
 12 37  1  0  0  0  0
 12 38  1  0  0  0  0
 12 39  1  0  0  0  0
 13 40  1  0  0  0  0
 13 41  1  0  0  0  0
 13 42  1  0  0  0  0
 14 15  2  0  0  0  0
 14 16  1  0  0  0  0
 16 17  1  0  0  0  0
 16 43  1  0  0  0  0
 17 18  2  0  0  0  0
 17 22  1  0  0  0  0
 18 19  1  0  0  0  0
 18 44  1  0  0  0  0
 19 20  2  0  0  0  0
 19 45  1  0  0  0  0
 20 21  1  0  0  0  0
 21 22  2  0  0  0  0
 21 46  1  0  0  0  0
 22 47  1  0  0  0  0
M  END
>  <DRUGBANK_ID>
DB07560

>  <COMMON_NAME>
N-[(1S)-2-methyl-1-(pyridin-4-ylcarbamoyl)propyl]cyclohexanecarboxamide

$$$$
