
 OpenBabel10282417072D

 29 28  0  0  0  0  0  0  0  0999 V2000
    2.8578   -0.6187    0.0000 C   0  0  0  0  0  0  0  0  0  0  0  0
   -2.8578   -0.6187    0.0000 C   0  0  0  0  0  0  0  0  0  0  0  0
    1.4289   -0.6187    0.0000 C   0  0  0  0  0  0  0  0  0  0  0  0
   -1.4289   -0.6187    0.0000 C   0  0  0  0  0  0  0  0  0  0  0  0
    0.7144   -0.2062    0.0000 C   0  0  0  0  0  0  0  0  0  0  0  0
   -0.7144   -0.2062    0.0000 C   0  0  0  0  0  0  0  0  0  0  0  0
    2.1434   -0.2062    0.0000 C   0  0  3  0  0  0  0  0  0  0  0  0
   -2.1434   -0.2062    0.0000 C   0  0  3  0  0  0  0  0  0  0  0  0
    2.1434    0.6187    0.0000 O   0  0  0  0  0  0  0  0  0  0  0  0
   -2.1434    0.6187    0.0000 O   0  0  0  0  0  0  0  0  0  0  0  0
    0.0000   -0.6187    0.0000 O   0  0  0  0  0  0  0  0  0  0  0  0
    2.8578   -1.6887    0.0000 H   0  0  0  0  0  0  0  0  0  0  0  0
    3.7845   -0.0837    0.0000 H   0  0  0  0  0  0  0  0  0  0  0  0
    3.7844   -1.1537    0.0000 H   0  0  0  0  0  0  0  0  0  0  0  0
   -3.7845   -0.0837    0.0000 H   0  0  0  0  0  0  0  0  0  0  0  0
   -2.8578   -1.6887    0.0000 H   0  0  0  0  0  0  0  0  0  0  0  0
   -3.7844   -1.1537    0.0000 H   0  0  0  0  0  0  0  0  0  0  0  0
    1.4289   -1.6887    0.0000 H   0  0  0  0  0  0  0  0  0  0  0  0
    2.3555   -1.1537    0.0000 H   0  0  0  0  0  0  0  0  0  0  0  0
   -1.4289   -1.6887    0.0000 H   0  0  0  0  0  0  0  0  0  0  0  0
   -2.3555   -1.1537    0.0000 H   0  0  0  0  0  0  0  0  0  0  0  0
    0.7144    0.8638    0.0000 H   0  0  0  0  0  0  0  0  0  0  0  0
   -0.2123    0.3288    0.0000 H   0  0  0  0  0  0  0  0  0  0  0  0
   -0.7144    0.8638    0.0000 H   0  0  0  0  0  0  0  0  0  0  0  0
    0.2123    0.3288    0.0000 H   0  0  0  0  0  0  0  0  0  0  0  0
    2.1434   -1.2762    0.0000 H   0  0  0  0  0  0  0  0  0  0  0  0
   -2.1434   -1.2762    0.0000 H   0  0  0  0  0  0  0  0  0  0  0  0
    2.9834    1.1037    0.0000 H   0  0  0  0  0  0  0  0  0  0  0  0
   -1.3034    1.1037    0.0000 H   0  0  0  0  0  0  0  0  0  0  0  0
  1 12  1  0  0  0  0
  1 13  1  0  0  0  0
  1 14  1  0  0  0  0
  2 15  1  0  0  0  0
  2 16  1  0  0  0  0
  2 17  1  0  0  0  0
  3 18  1  0  0  0  0
  3 19  1  0  0  0  0
  4 20  1  0  0  0  0
  4 21  1  0  0  0  0
  5  3  1  0  0  0  0
  5 22  1  0  0  0  0
  5 23  1  0  0  0  0
  6  4  1  0  0  0  0
  6 24  1  0  0  0  0
  6 25  1  0  0  0  0
  7  1  1  0  0  0  0
  7  3  1  0  0  0  0
  7 26  1  0  0  0  0
  8  2  1  0  0  0  0
  8  4  1  0  0  0  0
  8 27  1  0  0  0  0
  9  7  1  0  0  0  0
  9 28  1  0  0  0  0
 10  8  1  0  0  0  0
 10 29  1  0  0  0  0
 11  5  1  0  0  0  0
 11  6  1  0  0  0  0
M  END
>  <DRUGBANK_ID>
DB14079

>  <COMMON_NAME>
Hydroxybutyloxide

>  <CAS_NUMBER>
821-33-0

>  <UNII>
CR6X2Y7NRR

>  <SYNONYMS>
4,4'-Oxydi-2-butanol; bis(3-hydroxybutyl) ether; Colenormol; Dihydroxydibutylether; Diskin; Dyskinebyl

$$$$
