
 OpenBabel10282417072D

 23 22  0  0  0  0  0  0  0  0999 V2000
   -0.3578    0.1937    0.0000 C   0  0  0  0  0  0  0  0  0  0  0  0
   -1.0769    0.6181    0.0000 O   0  0  0  0  0  0  0  0  0  0  0  0
    0.3540    0.6107    0.0000 C   0  0  0  0  0  0  0  0  0  0  0  0
   -1.7906    0.1937    0.0000 C   0  0  0  0  0  0  0  0  0  0  0  0
    1.0733    0.2010    0.0000 C   0  0  0  0  0  0  0  0  0  0  0  0
   -1.7906   -0.6181    0.0000 C   0  0  0  0  0  0  0  0  0  0  0  0
   -2.5098    0.6107    0.0000 O   0  0  0  0  0  0  0  0  0  0  0  0
    1.7906    0.6107    0.0000 C   0  0  0  0  0  0  0  0  0  0  0  0
    2.5098    0.2066    0.0000 C   0  0  0  0  0  0  0  0  0  0  0  0
   -0.3595   -0.8763    0.0000 H   0  0  0  0  0  0  0  0  0  0  0  0
    0.5701   -0.3391    0.0000 H   0  0  0  0  0  0  0  0  0  0  0  0
    0.3475    1.6807    0.0000 H   0  0  0  0  0  0  0  0  0  0  0  0
    1.2774    1.1512    0.0000 H   0  0  0  0  0  0  0  0  0  0  0  0
    1.0739   -0.8690    0.0000 H   0  0  0  0  0  0  0  0  0  0  0  0
    1.9989   -0.3359    0.0000 H   0  0  0  0  0  0  0  0  0  0  0  0
   -2.7172   -1.1531    0.0000 H   0  0  0  0  0  0  0  0  0  0  0  0
   -0.8640   -1.1531    0.0000 H   0  0  0  0  0  0  0  0  0  0  0  0
   -1.7906   -1.6881    0.0000 H   0  0  0  0  0  0  0  0  0  0  0  0
    1.7868    1.6807    0.0000 H   0  0  0  0  0  0  0  0  0  0  0  0
    2.7132    1.1527    0.0000 H   0  0  0  0  0  0  0  0  0  0  0  0
    2.5223   -0.8633    0.0000 H   0  0  0  0  0  0  0  0  0  0  0  0
    3.4301    0.7524    0.0000 H   0  0  0  0  0  0  0  0  0  0  0  0
    3.4426   -0.3175    0.0000 H   0  0  0  0  0  0  0  0  0  0  0  0
  1  2  1  0  0  0  0
  1  3  1  0  0  0  0
  1 10  1  0  0  0  0
  1 11  1  0  0  0  0
  2  4  1  0  0  0  0
  3  5  1  0  0  0  0
  3 12  1  0  0  0  0
  3 13  1  0  0  0  0
  4  6  1  0  0  0  0
  4  7  2  0  0  0  0
  5  8  1  0  0  0  0
  5 14  1  0  0  0  0
  5 15  1  0  0  0  0
  6 16  1  0  0  0  0
  6 17  1  0  0  0  0
  6 18  1  0  0  0  0
  8  9  1  0  0  0  0
  8 19  1  0  0  0  0
  8 20  1  0  0  0  0
  9 21  1  0  0  0  0
  9 22  1  0  0  0  0
  9 23  1  0  0  0  0
M  END
>  <DRUGBANK_ID>
DB15927

>  <COMMON_NAME>
Amyl acetate

>  <CAS_NUMBER>
628-63-7

>  <UNII>
92Q24NH7AS

>  <SYNONYMS>
Acetate d'amyle; Acetic acid, amyl ester; Acetic acid, pentyl ester; Amylazetat; Amylester kyseliny octove; N-Amyl acetate; Octan amylu; Pentyl acetate

$$$$
