
 OpenBabel10282417072D

 23 22  0  0  0  0  0  0  0  0999 V2000
    1.7861    0.2062    0.0000 C   0  0  0  0  0  0  0  0  0  0  0  0
    1.0717   -0.2062    0.0000 C   0  0  1  0  0  0  0  0  0  0  0  0
    0.3572    0.2062    0.0000 C   0  0  2  0  0  0  0  0  0  0  0  0
   -0.3572   -0.2062    0.0000 C   0  0  1  0  0  0  0  0  0  0  0  0
   -1.0716    0.2062    0.0000 C   0  0  2  0  0  0  0  0  0  0  0  0
    1.7861    1.0312    0.0000 O   0  0  0  0  0  0  0  0  0  0  0  0
    0.3572    1.0312    0.0000 O   0  0  0  0  0  0  0  0  0  0  0  0
   -0.3572   -1.0312    0.0000 O   0  0  0  0  0  0  0  0  0  0  0  0
   -1.0716    1.0312    0.0000 O   0  0  0  0  0  0  0  0  0  0  0  0
    2.5006   -0.2062    0.0000 H   0  0  0  0  0  0  0  0  0  0  0  0
   -1.7861   -0.2062    0.0000 C   0  0  0  0  0  0  0  0  0  0  0  0
   -2.5006    0.2062    0.0000 O   0  0  0  0  0  0  0  0  0  0  0  0
    1.0717   -1.0312    0.0000 F   0  0  0  0  0  0  0  0  0  0  0  0
    1.9983   -0.7412    0.0000 H   0  0  0  0  0  0  0  0  0  0  0  0
    1.2838    0.7413    0.0000 H   0  0  0  0  0  0  0  0  0  0  0  0
    0.5694   -0.7412    0.0000 H   0  0  0  0  0  0  0  0  0  0  0  0
   -0.1450    0.7412    0.0000 H   0  0  0  0  0  0  0  0  0  0  0  0
    1.1972    1.5162    0.0000 H   0  0  0  0  0  0  0  0  0  0  0  0
   -1.1972   -1.5162    0.0000 H   0  0  0  0  0  0  0  0  0  0  0  0
   -0.2316    1.5162    0.0000 H   0  0  0  0  0  0  0  0  0  0  0  0
   -1.7861   -1.2762    0.0000 H   0  0  0  0  0  0  0  0  0  0  0  0
   -2.7127   -0.7413    0.0000 H   0  0  0  0  0  0  0  0  0  0  0  0
   -2.5007    1.1762    0.0000 H   0  0  0  0  0  0  0  0  0  0  0  0
  2  1  1  0  0  0  0
  2 13  1  0  0  0  0
  2 14  1  1  0  0  0
  3  2  1  0  0  0  0
  3  7  1  0  0  0  0
  3 15  1  1  0  0  0
  4  3  1  0  0  0  0
  4  8  1  0  0  0  0
  4 16  1  1  0  0  0
  5  4  1  0  0  0  0
  5  9  1  0  0  0  0
  5 17  1  6  0  0  0
  6  1  2  0  0  0  0
  7 18  1  0  0  0  0
  8 19  1  0  0  0  0
  9 20  1  0  0  0  0
 10  1  1  0  0  0  0
 11  5  1  0  0  0  0
 11 12  1  0  0  0  0
 11 21  1  0  0  0  0
 11 22  1  0  0  0  0
 12 23  1  0  0  0  0
M  ISO  1  13  18
M  END
>  <DRUGBANK_ID>
DB09502

>  <SECONDARY_ACCESSION_NUMBERS>
DB09150

>  <COMMON_NAME>
Fludeoxyglucose (18F)

>  <CAS_NUMBER>
63503-12-8

>  <UNII>
0Z5B2CJX4D

>  <SYNONYMS>
(18F)-FDG; 18-F FDG; 18F-FDG; Fludeoxyglucose (18F); Fludeoxyglucose F 18; Fludeoxyglucose F-18; Fludeoxyglucose, F-18; Fluorine (18F) fludeoxyglucose

$$$$
