
 OpenBabel10282417072D

 32 32  0  0  0  0  0  0  0  0999 V2000
   14.9839  -13.3590    0.0000 C   0  0  0  0  0  0  0  0  0  0  0  0
   14.9839  -12.5340    0.0000 C   0  0  0  0  0  0  0  0  0  0  0  0
   14.2693  -12.1215    0.0000 O   0  0  0  0  0  0  0  0  0  0  0  0
   14.2693  -11.2965    0.0000 P   0  0  0  0  0  0  0  0  0  0  0  0
   14.2693  -10.4715    0.0000 O   0  0  0  0  0  0  0  0  0  0  0  0
   15.0943  -11.2965    0.0000 O   0  0  0  0  0  0  0  0  0  0  0  0
   15.5068  -12.0104    0.0000 C   0  0  0  0  0  0  0  0  0  0  0  0
   16.3318  -12.0104    0.0000 C   0  0  0  0  0  0  0  0  0  0  0  0
   13.4442  -11.2965    0.0000 O   0  0  0  0  0  0  0  0  0  0  0  0
   13.0317  -10.5819    0.0000 C   0  0  0  0  0  0  0  0  0  0  0  0
   13.4442   -9.8672    0.0000 C   0  0  0  0  0  0  0  0  0  0  0  0
   13.0317   -9.1527    0.0000 C   0  0  0  0  0  0  0  0  0  0  0  0
   12.2067   -9.1527    0.0000 C   0  0  0  0  0  0  0  0  0  0  0  0
   11.7942   -9.8672    0.0000 C   0  0  0  0  0  0  0  0  0  0  0  0
   12.2067  -10.5819    0.0000 C   0  0  0  0  0  0  0  0  0  0  0  0
   11.7942   -8.4381    0.0000 N   0  3  0  0  0  0  0  0  0  0  0  0
   12.2067   -7.7241    0.0000 O   0  5  0  0  0  0  0  0  0  0  0  0
   10.9692   -8.4381    0.0000 O   0  0  0  0  0  0  0  0  0  0  0  0
   14.0573  -13.8940    0.0000 H   0  0  0  0  0  0  0  0  0  0  0  0
   15.9105  -13.8940    0.0000 H   0  0  0  0  0  0  0  0  0  0  0  0
   14.9839  -14.4290    0.0000 H   0  0  0  0  0  0  0  0  0  0  0  0
   15.9105  -11.9990    0.0000 H   0  0  0  0  0  0  0  0  0  0  0  0
   14.9838  -11.4640    0.0000 H   0  0  0  0  0  0  0  0  0  0  0  0
   14.9720  -12.9371    0.0000 H   0  0  0  0  0  0  0  0  0  0  0  0
   16.0419  -12.9370    0.0000 H   0  0  0  0  0  0  0  0  0  0  0  0
   16.8668  -12.9370    0.0000 H   0  0  0  0  0  0  0  0  0  0  0  0
   16.8668  -11.0838    0.0000 H   0  0  0  0  0  0  0  0  0  0  0  0
   17.4018  -12.0104    0.0000 H   0  0  0  0  0  0  0  0  0  0  0  0
   14.4762   -9.8671    0.0000 H   0  0  0  0  0  0  0  0  0  0  0  0
   13.5477   -8.2590    0.0000 H   0  0  0  0  0  0  0  0  0  0  0  0
   10.7622   -9.8671    0.0000 H   0  0  0  0  0  0  0  0  0  0  0  0
   11.6906  -11.4756    0.0000 H   0  0  0  0  0  0  0  0  0  0  0  0
  1  2  1  0  0  0  0
  1 19  1  0  0  0  0
  1 20  1  0  0  0  0
  1 21  1  0  0  0  0
  2  3  1  0  0  0  0
  2 22  1  0  0  0  0
  2 23  1  0  0  0  0
  3  4  1  0  0  0  0
  4  5  2  0  0  0  0
  4  6  1  0  0  0  0
  4  9  1  0  0  0  0
  6  7  1  0  0  0  0
  7  8  1  0  0  0  0
  7 24  1  0  0  0  0
  7 25  1  0  0  0  0
  8 26  1  0  0  0  0
  8 27  1  0  0  0  0
  8 28  1  0  0  0  0
  9 10  1  0  0  0  0
 10 11  1  0  0  0  0
 10 15  2  0  0  0  0
 11 12  2  0  0  0  0
 11 29  1  0  0  0  0
 12 13  1  0  0  0  0
 12 30  1  0  0  0  0
 13 14  2  0  0  0  0
 13 16  1  0  0  0  0
 14 15  1  0  0  0  0
 14 31  1  0  0  0  0
 15 32  1  0  0  0  0
 16 17  1  0  0  0  0
 16 18  2  0  0  0  0
M  CHG  2  16   1  17  -1
M  END
>  <DRUGBANK_ID>
DB13495

>  <COMMON_NAME>
Paraoxon

>  <CAS_NUMBER>
311-45-5

>  <UNII>
Q9CX8P80JW

$$$$
