ITB
 OpenBabel10282417072D

 32 34  0  0  0  0  0  0  0  0999 V2000
    1.3676   -0.0360    0.0000 C   0  0  0  0  0  0  0  0  0  0  0  0
    2.1922   -0.0617    0.0000 C   0  0  0  0  0  0  0  0  0  0  0  0
    2.7248   -0.6918    0.0000 C   0  0  0  0  0  0  0  0  0  0  0  0
    2.5282   -1.4930    0.0000 O   0  0  0  0  0  0  0  0  0  0  0  0
    3.4886   -0.3799    0.0000 N   0  0  0  0  0  0  0  0  0  0  0  0
    4.1898   -0.8145    0.0000 C   0  0  0  0  0  0  0  0  0  0  0  0
    4.9168   -0.4245    0.0000 C   0  0  0  0  0  0  0  0  0  0  0  0
    5.6181   -0.8591    0.0000 O   0  0  0  0  0  0  0  0  0  0  0  0
    4.9426    0.4001    0.0000 O   0  0  0  0  0  0  0  0  0  0  0  0
    3.4280    0.4429    0.0000 S   0  0  0  0  0  0  0  0  0  0  0  0
    4.2526    0.4171    0.0000 O   0  0  0  0  0  0  0  0  0  0  0  0
    3.5398    1.2603    0.0000 O   0  0  0  0  0  0  0  0  0  0  0  0
    2.6268    0.6395    0.0000 C   0  0  0  0  0  0  0  0  0  0  0  0
    2.2368    1.3665    0.0000 C   0  0  0  0  0  0  0  0  0  0  0  0
    2.6714    2.0678    0.0000 C   0  0  0  0  0  0  0  0  0  0  0  0
    2.2814    2.7948    0.0000 O   0  0  0  0  0  0  0  0  0  0  0  0
    3.4960    2.0420    0.0000 O   0  0  0  0  0  0  0  0  0  0  0  0
    1.4122    1.3923    0.0000 C   0  0  0  0  0  0  0  0  0  0  0  0
    0.9776    0.6910    0.0000 C   0  0  0  0  0  0  0  0  0  0  0  0
    0.1530    0.7168    0.0000 C   0  0  0  0  0  0  0  0  0  0  0  0
   -0.2816    0.0156    0.0000 C   0  0  0  0  0  0  0  0  0  0  0  0
    0.1084   -0.7114    0.0000 C   0  0  0  0  0  0  0  0  0  0  0  0
    0.9330   -0.7372    0.0000 C   0  0  0  0  0  0  0  0  0  0  0  0
    4.1564   -1.8840    0.0000 H   0  0  0  0  0  0  0  0  0  0  0  0
    5.0993   -1.3782    0.0000 H   0  0  0  0  0  0  0  0  0  0  0  0
    5.5889   -1.7956    0.0000 H   0  0  0  0  0  0  0  0  0  0  0  0
    3.9389    1.2163    0.0000 H   0  0  0  0  0  0  0  0  0  0  0  0
    0.9244    2.3017    0.0000 H   0  0  0  0  0  0  0  0  0  0  0  0
   -0.3348    1.6262    0.0000 H   0  0  0  0  0  0  0  0  0  0  0  0
   -1.3131    0.0478    0.0000 H   0  0  0  0  0  0  0  0  0  0  0  0
   -0.4353   -1.5886    0.0000 H   0  0  0  0  0  0  0  0  0  0  0  0
    1.4208   -1.6466    0.0000 H   0  0  0  0  0  0  0  0  0  0  0  0
  1 23  2  0  0  0  0
  1  2  1  0  0  0  0
  1 19  1  0  0  0  0
  2  3  1  0  0  0  0
  2 13  2  0  0  0  0
  3  4  2  0  0  0  0
  3  5  1  0  0  0  0
  5  6  1  0  0  0  0
  5 10  1  0  0  0  0
  6  7  1  0  0  0  0
  6 24  1  0  0  0  0
  6 25  1  0  0  0  0
  7  9  2  0  0  0  0
  7  8  1  0  0  0  0
  8 26  1  0  0  0  0
 10 11  2  0  0  0  0
 10 12  2  0  0  0  0
 10 13  1  0  0  0  0
 13 14  1  0  0  0  0
 14 18  2  0  0  0  0
 14 15  1  0  0  0  0
 15 16  2  0  0  0  0
 15 17  1  0  0  0  0
 17 27  1  0  0  0  0
 18 19  1  0  0  0  0
 18 28  1  0  0  0  0
 19 20  2  0  0  0  0
 20 21  1  0  0  0  0
 20 29  1  0  0  0  0
 21 22  2  0  0  0  0
 21 30  1  0  0  0  0
 22 23  1  0  0  0  0
 22 31  1  0  0  0  0
 23 32  1  0  0  0  0
M  END
>  <DRUGBANK_ID>
DB08000

>  <COMMON_NAME>
2-(CARBOXYMETHYL)-1-OXO-1,2-DIHYDRONAPHTHO[1,2-D]ISOTHIAZOLE-4-CARBOXYLIC ACID 3,3-DIOXIDE

$$$$
