648
 OpenBabel10282417072D

 28 29  0  0  1  0  0  0  0  0999 V2000
    2.3645    1.6500    0.0000 Cl  0  0  0  0  0  0  0  0  0  0  0  0
    1.6500    0.4125    0.0000 Cl  0  0  0  0  0  0  0  0  0  0  0  0
    1.6500   -0.4125    0.0000 Cl  0  0  0  0  0  0  0  0  0  0  0  0
    5.9370    2.0625    0.0000 Cl  0  0  0  0  0  0  0  0  0  0  0  0
    3.0791    0.4125    0.0000 C   0  0  3  0  0  0  0  0  0  0  0  0
    3.7935    0.8250    0.0000 C   0  0  0  0  0  0  0  0  0  0  0  0
    3.0791   -0.4125    0.0000 C   0  0  0  0  0  0  0  0  0  0  0  0
    2.3645    0.8250    0.0000 C   0  0  0  0  0  0  0  0  0  0  0  0
    4.5080    0.4125    0.0000 C   0  0  0  0  0  0  0  0  0  0  0  0
    3.7935    1.6500    0.0000 C   0  0  0  0  0  0  0  0  0  0  0  0
    2.3645   -0.8250    0.0000 C   0  0  0  0  0  0  0  0  0  0  0  0
    3.7935   -0.8250    0.0000 C   0  0  0  0  0  0  0  0  0  0  0  0
    5.2224    0.8250    0.0000 C   0  0  0  0  0  0  0  0  0  0  0  0
    4.5080    2.0625    0.0000 C   0  0  0  0  0  0  0  0  0  0  0  0
    2.3645   -1.6500    0.0000 C   0  0  0  0  0  0  0  0  0  0  0  0
    3.7935   -1.6500    0.0000 C   0  0  0  0  0  0  0  0  0  0  0  0
    5.2224    1.6500    0.0000 C   0  0  0  0  0  0  0  0  0  0  0  0
    3.0791   -2.0625    0.0000 C   0  0  0  0  0  0  0  0  0  0  0  0
    4.0058   -0.1225    0.0000 H   0  0  0  0  0  0  0  0  0  0  0  0
    2.3645   -0.2450    0.0000 H   0  0  0  0  0  0  0  0  0  0  0  0
    4.5080   -0.6195    0.0000 H   0  0  0  0  0  0  0  0  0  0  0  0
    2.8998    2.1660    0.0000 H   0  0  0  0  0  0  0  0  0  0  0  0
    4.6872   -0.3090    0.0000 H   0  0  0  0  0  0  0  0  0  0  0  0
    6.1161    0.3090    0.0000 H   0  0  0  0  0  0  0  0  0  0  0  0
    4.5080    3.0945    0.0000 H   0  0  0  0  0  0  0  0  0  0  0  0
    1.4708   -2.1660    0.0000 H   0  0  0  0  0  0  0  0  0  0  0  0
    4.6872   -2.1660    0.0000 H   0  0  0  0  0  0  0  0  0  0  0  0
    3.0792   -3.0945    0.0000 H   0  0  0  0  0  0  0  0  0  0  0  0
  1  8  1  0  0  0  0
  2  8  1  0  0  0  0
  3 11  1  0  0  0  0
  4 17  1  0  0  0  0
  5  6  1  0  0  0  0
  5  7  1  0  0  0  0
  5  8  1  0  0  0  0
  5 19  1  0  0  0  0
  6  9  2  0  0  0  0
  6 10  1  0  0  0  0
  7 11  1  0  0  0  0
  7 12  2  0  0  0  0
  8 20  1  0  0  0  0
  9 13  1  0  0  0  0
  9 21  1  0  0  0  0
 10 14  2  0  0  0  0
 10 22  1  0  0  0  0
 11 15  2  0  0  0  0
 12 16  1  0  0  0  0
 12 23  1  0  0  0  0
 13 17  2  0  0  0  0
 13 24  1  0  0  0  0
 14 17  1  0  0  0  0
 14 25  1  0  0  0  0
 15 18  1  0  0  0  0
 15 26  1  0  0  0  0
 16 18  2  0  0  0  0
 16 27  1  0  0  0  0
 18 28  1  0  0  0  0
M  END
>  <DRUGBANK_ID>
DB00648

>  <SECONDARY_ACCESSION_NUMBERS>
APRD00494

>  <COMMON_NAME>
Mitotane

>  <CAS_NUMBER>
53-19-0

>  <UNII>
78E4J5IB5J

>  <SYNONYMS>
1-chloro-2-[2,2-dichloro-1-(4-chlorophenyl)ethyl]-benzene; Mitotan; Mitotane; Mitotano; Mitotanum; o,p'-DDD

$$$$
