4TB
 OpenBabel10282417072D

 21 21  0  0  0  0  0  0  0  0999 V2000
   -1.5757    0.3251    0.0000 S   0  0  0  0  0  0  0  0  0  0  0  0
   -0.8220   -0.0105    0.0000 C   0  0  0  0  0  0  0  0  0  0  0  0
   -0.9083   -0.8310    0.0000 C   0  0  0  0  0  0  0  0  0  0  0  0
   -1.7153   -1.0026    0.0000 C   0  0  0  0  0  0  0  0  0  0  0  0
   -2.1279   -0.2880    0.0000 C   0  0  0  0  0  0  0  0  0  0  0  0
   -0.1075    0.4020    0.0000 C   0  0  0  0  0  0  0  0  0  0  0  0
    0.6070   -0.0105    0.0000 C   0  0  0  0  0  0  0  0  0  0  0  0
    1.3216    0.4020    0.0000 C   0  0  0  0  0  0  0  0  0  0  0  0
    2.0361   -0.0105    0.0000 C   0  0  0  0  0  0  0  0  0  0  0  0
    2.7506    0.4020    0.0000 O   0  0  0  0  0  0  0  0  0  0  0  0
    2.0361   -0.8356    0.0000 O   0  0  0  0  0  0  0  0  0  0  0  0
   -0.1414   -1.5215    0.0000 H   0  0  0  0  0  0  0  0  0  0  0  0
   -2.1350   -1.9454    0.0000 H   0  0  0  0  0  0  0  0  0  0  0  0
   -3.1542   -0.1801    0.0000 H   0  0  0  0  0  0  0  0  0  0  0  0
   -0.1075    1.4720    0.0000 H   0  0  0  0  0  0  0  0  0  0  0  0
    0.8191    0.9370    0.0000 H   0  0  0  0  0  0  0  0  0  0  0  0
    0.6070   -1.0805    0.0000 H   0  0  0  0  0  0  0  0  0  0  0  0
    1.5336   -0.5456    0.0000 H   0  0  0  0  0  0  0  0  0  0  0  0
    1.3216    1.4720    0.0000 H   0  0  0  0  0  0  0  0  0  0  0  0
    2.2483    0.9370    0.0000 H   0  0  0  0  0  0  0  0  0  0  0  0
    3.5621   -0.0665    0.0000 H   0  0  0  0  0  0  0  0  0  0  0  0
  1  2  1  0  0  0  0
  1  5  1  0  0  0  0
  2  3  2  0  0  0  0
  2  6  1  0  0  0  0
  3  4  1  0  0  0  0
  3 12  1  0  0  0  0
  4  5  2  0  0  0  0
  4 13  1  0  0  0  0
  5 14  1  0  0  0  0
  6  7  1  0  0  0  0
  6 15  1  0  0  0  0
  6 16  1  0  0  0  0
  7  8  1  0  0  0  0
  7 17  1  0  0  0  0
  7 18  1  0  0  0  0
  8  9  1  0  0  0  0
  8 19  1  0  0  0  0
  8 20  1  0  0  0  0
  9 10  1  0  0  0  0
  9 11  2  0  0  0  0
 10 21  1  0  0  0  0
M  END
>  <DRUGBANK_ID>
DB02434

>  <SECONDARY_ACCESSION_NUMBERS>
EXPT00230

>  <COMMON_NAME>
4-(2-Thienyl)Butyric Acid

>  <CAS_NUMBER>
4653-11-6

>  <UNII>
VLB4C9G6WY

$$$$
