
 OpenBabel10282417072D

 82 87  0  0  1  0  0  0  0  0999 V2000
   -1.4289   -0.0000    0.0000 C   0  0  0  0  0  0  0  0  0  0  0  0
   -1.4289    0.8250    0.0000 C   0  0  1  0  0  0  0  0  0  0  0  0
   -2.1434    1.2375    0.0000 C   0  0  1  0  0  0  0  0  0  0  0  0
   -2.1434    2.0625    0.0000 N   0  0  0  0  0  0  0  0  0  0  0  0
   -1.4289    2.4750    0.0000 C   0  0  1  0  0  0  0  0  0  0  0  0
   -1.4289    3.3000    0.0000 C   0  0  0  0  0  0  0  0  0  0  0  0
   -0.7145    3.7125    0.0000 C   0  0  0  0  0  0  0  0  0  0  0  0
   -0.7145    4.5375    0.0000 C   0  0  0  0  0  0  0  0  0  0  0  0
    0.0000    4.9500    0.0000 C   0  0  0  0  0  0  0  0  0  0  0  0
    0.7145    4.5375    0.0000 C   0  0  0  0  0  0  0  0  0  0  0  0
    1.4289    4.9500    0.0000 O   0  0  0  0  0  0  0  0  0  0  0  0
    2.1434    4.5375    0.0000 P   0  0  0  0  0  0  0  0  0  0  0  0
    2.8579    4.1250    0.0000 O   0  0  0  0  0  0  0  0  0  0  0  0
    2.5559    5.2520    0.0000 O   0  0  0  0  0  0  0  0  0  0  0  0
    1.7309    3.8230    0.0000 O   0  0  0  0  0  0  0  0  0  0  0  0
    0.7145    3.7125    0.0000 C   0  0  0  0  0  0  0  0  0  0  0  0
    0.0000    3.3000    0.0000 C   0  0  0  0  0  0  0  0  0  0  0  0
   -0.7145    2.0625    0.0000 C   0  0  0  0  0  0  0  0  0  0  0  0
    0.0000    2.4750    0.0000 O   0  0  0  0  0  0  0  0  0  0  0  0
   -0.7145    1.2375    0.0000 N   0  0  0  0  0  0  0  0  0  0  0  0
    0.0000    0.8250    0.0000 C   0  0  0  0  0  0  0  0  0  0  0  0
    0.0000   -0.0000    0.0000 C   0  0  0  0  0  0  0  0  0  0  0  0
   -0.7145   -0.4125    0.0000 C   0  0  0  0  0  0  0  0  0  0  0  0
   -0.7145   -1.2375    0.0000 C   0  0  0  0  0  0  0  0  0  0  0  0
    0.0000   -1.6500    0.0000 C   0  0  0  0  0  0  0  0  0  0  0  0
    0.7145   -1.2375    0.0000 C   0  0  0  0  0  0  0  0  0  0  0  0
    0.7145   -0.4125    0.0000 C   0  0  0  0  0  0  0  0  0  0  0  0
    1.4289   -0.0000    0.0000 N   0  0  0  0  0  0  0  0  0  0  0  0
    2.1434   -0.4125    0.0000 C   0  0  0  0  0  0  0  0  0  0  0  0
    2.1434   -1.2375    0.0000 C   0  0  0  0  0  0  0  0  0  0  0  0
    1.4289   -1.6500    0.0000 C   0  0  0  0  0  0  0  0  0  0  0  0
   -2.8579    2.4750    0.0000 C   0  0  0  0  0  0  0  0  0  0  0  0
   -2.8579    3.3000    0.0000 O   0  0  0  0  0  0  0  0  0  0  0  0
   -3.5724    2.0625    0.0000 C   0  0  0  0  0  0  0  0  0  0  0  0
   -3.5724    1.2375    0.0000 N   0  0  0  0  0  0  0  0  0  0  0  0
   -4.2868    0.8250    0.0000 C   0  0  0  0  0  0  0  0  0  0  0  0
   -2.8579    0.8250    0.0000 N   0  0  0  0  0  0  0  0  0  0  0  0
   -2.8579    0.0000    0.0000 C   0  0  0  0  0  0  0  0  0  0  0  0
   -2.1434   -0.4125    0.0000 O   0  0  0  0  0  0  0  0  0  0  0  0
   -3.5724   -0.4125    0.0000 N   0  0  0  0  0  0  0  0  0  0  0  0
   -4.2868    0.0000    0.0000 C   0  0  0  0  0  0  0  0  0  0  0  0
   -5.0013   -0.4125    0.0000 C   0  0  0  0  0  0  0  0  0  0  0  0
   -5.0013   -1.2375    0.0000 C   0  0  0  0  0  0  0  0  0  0  0  0
   -5.7158   -1.6500    0.0000 C   0  0  0  0  0  0  0  0  0  0  0  0
   -6.4302   -1.2375    0.0000 C   0  0  0  0  0  0  0  0  0  0  0  0
   -6.4302   -0.4125    0.0000 C   0  0  0  0  0  0  0  0  0  0  0  0
   -5.7158    0.0000    0.0000 C   0  0  0  0  0  0  0  0  0  0  0  0
   -2.3555   -0.5350    0.0000 H   0  0  0  0  0  0  0  0  0  0  0  0
   -0.5023   -0.5350    0.0000 H   0  0  0  0  0  0  0  0  0  0  0  0
   -1.4289   -1.0700    0.0000 H   0  0  0  0  0  0  0  0  0  0  0  0
   -2.3555    0.2900    0.0000 H   0  0  0  0  0  0  0  0  0  0  0  0
   -1.2168    1.7725    0.0000 H   0  0  0  0  0  0  0  0  0  0  0  0
   -2.3555    3.0100    0.0000 H   0  0  0  0  0  0  0  0  0  0  0  0
   -2.3556    3.8350    0.0000 H   0  0  0  0  0  0  0  0  0  0  0  0
   -1.4289    4.3700    0.0000 H   0  0  0  0  0  0  0  0  0  0  0  0
   -1.6082    5.0535    0.0000 H   0  0  0  0  0  0  0  0  0  0  0  0
    0.0000    5.9820    0.0000 H   0  0  0  0  0  0  0  0  0  0  0  0
    2.8579    3.1550    0.0000 H   0  0  0  0  0  0  0  0  0  0  0  0
    3.5259    5.2520    0.0000 H   0  0  0  0  0  0  0  0  0  0  0  0
    1.6082    3.1965    0.0000 H   0  0  0  0  0  0  0  0  0  0  0  0
    0.0000    2.2680    0.0000 H   0  0  0  0  0  0  0  0  0  0  0  0
    0.9266    1.3600    0.0000 H   0  0  0  0  0  0  0  0  0  0  0  0
    0.9266    0.2900    0.0000 H   0  0  0  0  0  0  0  0  0  0  0  0
   -1.6082    0.1035    0.0000 H   0  0  0  0  0  0  0  0  0  0  0  0
   -1.6082   -1.7535    0.0000 H   0  0  0  0  0  0  0  0  0  0  0  0
    0.0000   -2.6820    0.0000 H   0  0  0  0  0  0  0  0  0  0  0  0
    3.0371    0.1035    0.0000 H   0  0  0  0  0  0  0  0  0  0  0  0
    3.0371   -1.7535    0.0000 H   0  0  0  0  0  0  0  0  0  0  0  0
    1.4289   -2.6820    0.0000 H   0  0  0  0  0  0  0  0  0  0  0  0
   -4.4990    2.5975    0.0000 H   0  0  0  0  0  0  0  0  0  0  0  0
   -4.4990    1.5275    0.0000 H   0  0  0  0  0  0  0  0  0  0  0  0
   -5.2135    1.3600    0.0000 H   0  0  0  0  0  0  0  0  0  0  0  0
   -4.2868   -0.2450    0.0000 H   0  0  0  0  0  0  0  0  0  0  0  0
   -5.2134    0.2900    0.0000 H   0  0  0  0  0  0  0  0  0  0  0  0
   -3.5724   -1.3970    0.0000 H   0  0  0  0  0  0  0  0  0  0  0  0
   -4.2868    1.0700    0.0000 H   0  0  0  0  0  0  0  0  0  0  0  0
   -5.2134    0.5350    0.0000 H   0  0  0  0  0  0  0  0  0  0  0  0
   -4.1076   -1.7535    0.0000 H   0  0  0  0  0  0  0  0  0  0  0  0
   -5.7158   -2.6820    0.0000 H   0  0  0  0  0  0  0  0  0  0  0  0
   -7.3239   -1.7535    0.0000 H   0  0  0  0  0  0  0  0  0  0  0  0
   -7.3239    0.1035    0.0000 H   0  0  0  0  0  0  0  0  0  0  0  0
   -5.7158    1.0320    0.0000 H   0  0  0  0  0  0  0  0  0  0  0  0
  1 48  1  0  0  0  0
  1 49  1  0  0  0  0
  1 50  1  0  0  0  0
  2  1  1  0  0  0  0
  2  3  1  0  0  0  0
  2 20  1  0  0  0  0
  2 51  1  6  0  0  0
  3  4  1  0  0  0  0
  3 37  1  0  0  0  0
  3 52  1  1  0  0  0
  4 32  1  0  0  0  0
  5  4  1  0  0  0  0
  5  6  1  0  0  0  0
  5 18  1  0  0  0  0
  5 53  1  6  0  0  0
  6  7  1  0  0  0  0
  6 54  1  0  0  0  0
  6 55  1  0  0  0  0
  7  8  2  0  0  0  0
  7 17  1  0  0  0  0
  8  9  1  0  0  0  0
  8 56  1  0  0  0  0
  9 10  2  0  0  0  0
  9 57  1  0  0  0  0
 10 11  1  0  0  0  0
 10 16  1  0  0  0  0
 11 12  1  0  0  0  0
 12 13  1  0  0  0  0
 12 14  1  0  0  0  0
 12 15  2  0  0  0  0
 13 58  1  0  0  0  0
 14 59  1  0  0  0  0
 16 17  2  0  0  0  0
 16 60  1  0  0  0  0
 17 61  1  0  0  0  0
 18 19  2  0  0  0  0
 18 20  1  0  0  0  0
 20 21  1  0  0  0  0
 21 22  1  0  0  0  0
 21 62  1  0  0  0  0
 21 63  1  0  0  0  0
 22 23  2  0  0  0  0
 22 27  1  0  0  0  0
 23 24  1  0  0  0  0
 23 64  1  0  0  0  0
 24 25  2  0  0  0  0
 24 65  1  0  0  0  0
 25 26  1  0  0  0  0
 25 66  1  0  0  0  0
 26 27  2  0  0  0  0
 26 31  1  0  0  0  0
 27 28  1  0  0  0  0
 28 29  2  0  0  0  0
 29 30  1  0  0  0  0
 29 67  1  0  0  0  0
 30 31  2  0  0  0  0
 30 68  1  0  0  0  0
 31 69  1  0  0  0  0
 32 33  2  0  0  0  0
 32 34  1  0  0  0  0
 34 35  1  0  0  0  0
 34 70  1  0  0  0  0
 34 71  1  0  0  0  0
 35 36  1  0  0  0  0
 35 37  1  0  0  0  0
 36 72  1  0  0  0  0
 36 73  1  0  0  0  0
 36 74  1  0  0  0  0
 37 38  1  0  0  0  0
 38 39  2  0  0  0  0
 38 40  1  0  0  0  0
 40 41  1  0  0  0  0
 40 75  1  0  0  0  0
 41 42  1  0  0  0  0
 41 76  1  0  0  0  0
 41 77  1  0  0  0  0
 42 43  2  0  0  0  0
 42 47  1  0  0  0  0
 43 44  1  0  0  0  0
 43 78  1  0  0  0  0
 44 45  2  0  0  0  0
 44 79  1  0  0  0  0
 45 46  1  0  0  0  0
 45 80  1  0  0  0  0
 46 47  2  0  0  0  0
 46 81  1  0  0  0  0
 47 82  1  0  0  0  0
M  END
>  <DRUGBANK_ID>
DB15034

>  <COMMON_NAME>
PRI-724

>  <CAS_NUMBER>
1198780-38-9

>  <UNII>
43Y934BBZ6

$$$$
