
 OpenBabel10282417072D

 51 54  0  0  0  0  0  0  0  0999 V2000
    0.2995    0.8498    0.0000 N   0  0  0  0  0  0  0  0  0  0  0  0
    0.2995    0.0248    0.0000 C   0  0  0  0  0  0  0  0  0  0  0  0
   -0.4148   -0.3876    0.0000 N   0  0  0  0  0  0  0  0  0  0  0  0
   -0.4148   -1.2126    0.0000 C   0  0  0  0  0  0  0  0  0  0  0  0
    0.2995   -1.6250    0.0000 N   0  0  0  0  0  0  0  0  0  0  0  0
    1.0140   -1.2125    0.0000 C   0  0  0  0  0  0  0  0  0  0  0  0
    1.0140   -0.3875    0.0000 C   0  0  0  0  0  0  0  0  0  0  0  0
    1.7285   -1.6250    0.0000 N   0  0  0  0  0  0  0  0  0  0  0  0
    1.7285   -2.4501    0.0000 C   0  0  0  0  0  0  0  0  0  0  0  0
    2.4429   -2.8626    0.0000 C   0  0  0  0  0  0  0  0  0  0  0  0
    3.1574   -2.4501    0.0000 O   0  0  0  0  0  0  0  0  0  0  0  0
    3.1574   -1.6250    0.0000 C   0  0  0  0  0  0  0  0  0  0  0  0
    2.4429   -1.2125    0.0000 C   0  0  0  0  0  0  0  0  0  0  0  0
   -1.1294   -1.6250    0.0000 N   0  0  0  0  0  0  0  0  0  0  0  0
   -1.8830   -1.2895    0.0000 N   0  0  0  0  0  0  0  0  0  0  0  0
   -2.4350   -1.9026    0.0000 C   0  0  0  0  0  0  0  0  0  0  0  0
   -2.0225   -2.6171    0.0000 C   0  0  0  0  0  0  0  0  0  0  0  0
   -1.2155   -2.4455    0.0000 C   0  0  0  0  0  0  0  0  0  0  0  0
   -3.2555   -1.8164    0.0000 C   0  0  0  0  0  0  0  0  0  0  0  0
    1.0140    1.2624    0.0000 C   0  0  0  0  0  0  0  0  0  0  0  0
    1.0140    2.0873    0.0000 C   0  0  0  0  0  0  0  0  0  0  0  0
    1.7285    2.4998    0.0000 C   0  0  0  0  0  0  0  0  0  0  0  0
    2.4429    2.0873    0.0000 C   0  0  0  0  0  0  0  0  0  0  0  0
    2.4429    1.2624    0.0000 C   0  0  0  0  0  0  0  0  0  0  0  0
    1.7285    0.8498    0.0000 C   0  0  0  0  0  0  0  0  0  0  0  0
    3.2555    1.9441    0.0000 F   0  0  0  0  0  0  0  0  0  0  0  0
    2.7251    2.8626    0.0000 F   0  0  0  0  0  0  0  0  0  0  0  0
   -0.5531    1.3420    0.0000 H   0  0  0  0  0  0  0  0  0  0  0  0
    1.9077    0.1286    0.0000 H   0  0  0  0  0  0  0  0  0  0  0  0
    0.8018   -2.9851    0.0000 H   0  0  0  0  0  0  0  0  0  0  0  0
    1.7285   -3.5201    0.0000 H   0  0  0  0  0  0  0  0  0  0  0  0
    2.4429   -3.9326    0.0000 H   0  0  0  0  0  0  0  0  0  0  0  0
    3.3695   -3.3976    0.0000 H   0  0  0  0  0  0  0  0  0  0  0  0
    4.0840   -1.0900    0.0000 H   0  0  0  0  0  0  0  0  0  0  0  0
    3.1574   -0.5550    0.0000 H   0  0  0  0  0  0  0  0  0  0  0  0
    2.4429   -0.1425    0.0000 H   0  0  0  0  0  0  0  0  0  0  0  0
    1.5162   -0.6775    0.0000 H   0  0  0  0  0  0  0  0  0  0  0  0
   -2.4422   -3.5599    0.0000 H   0  0  0  0  0  0  0  0  0  0  0  0
   -0.4485   -3.1359    0.0000 H   0  0  0  0  0  0  0  0  0  0  0  0
   -3.6908   -0.8389    0.0000 H   0  0  0  0  0  0  0  0  0  0  0  0
   -3.8844   -2.6821    0.0000 H   0  0  0  0  0  0  0  0  0  0  0  0
   -4.3196   -1.7046    0.0000 H   0  0  0  0  0  0  0  0  0  0  0  0
    1.9407    1.7974    0.0000 H   0  0  0  0  0  0  0  0  0  0  0  0
    0.0874    2.6223    0.0000 H   0  0  0  0  0  0  0  0  0  0  0  0
    1.0140    3.1573    0.0000 H   0  0  0  0  0  0  0  0  0  0  0  0
    1.7285    3.5698    0.0000 H   0  0  0  0  0  0  0  0  0  0  0  0
    2.6552    3.0348    0.0000 H   0  0  0  0  0  0  0  0  0  0  0  0
    3.3696    0.7275    0.0000 H   0  0  0  0  0  0  0  0  0  0  0  0
    2.4430    0.1924    0.0000 H   0  0  0  0  0  0  0  0  0  0  0  0
    1.7285   -0.2202    0.0000 H   0  0  0  0  0  0  0  0  0  0  0  0
    0.8018    0.3148    0.0000 H   0  0  0  0  0  0  0  0  0  0  0  0
  1  2  1  0  0  0  0
  1 20  1  0  0  0  0
  1 28  1  0  0  0  0
  2  3  1  0  0  0  0
  2  7  2  0  0  0  0
  3  4  2  0  0  0  0
  4  5  1  0  0  0  0
  4 14  1  0  0  0  0
  6  5  2  0  0  0  0
  6  8  1  0  0  0  0
  7  6  1  0  0  0  0
  7 29  1  0  0  0  0
  8  9  1  0  0  0  0
  8 13  1  0  0  0  0
  9 10  1  0  0  0  0
  9 30  1  0  0  0  0
  9 31  1  0  0  0  0
 10 11  1  0  0  0  0
 10 32  1  0  0  0  0
 10 33  1  0  0  0  0
 12 11  1  0  0  0  0
 12 34  1  0  0  0  0
 12 35  1  0  0  0  0
 13 12  1  0  0  0  0
 13 36  1  0  0  0  0
 13 37  1  0  0  0  0
 14 15  1  0  0  0  0
 14 18  1  0  0  0  0
 15 16  2  0  0  0  0
 16 17  1  0  0  0  0
 16 19  1  0  0  0  0
 17 38  1  0  0  0  0
 18 17  2  0  0  0  0
 18 39  1  0  0  0  0
 19 40  1  0  0  0  0
 19 41  1  0  0  0  0
 19 42  1  0  0  0  0
 20 21  1  0  0  0  0
 20 25  1  0  0  0  0
 20 43  1  0  0  0  0
 21 22  1  0  0  0  0
 21 44  1  0  0  0  0
 21 45  1  0  0  0  0
 22 23  1  0  0  0  0
 22 46  1  0  0  0  0
 22 47  1  0  0  0  0
 23 26  1  0  0  0  0
 23 27  1  0  0  0  0
 24 23  1  0  0  0  0
 24 48  1  0  0  0  0
 24 49  1  0  0  0  0
 25 24  1  0  0  0  0
 25 50  1  0  0  0  0
 25 51  1  0  0  0  0
M  END
>  <DRUGBANK_ID>
DB16733

>  <COMMON_NAME>
Rimtuzalcap

>  <CAS_NUMBER>
2167246-24-2

>  <UNII>
USO2D5J77R

>  <SYNONYMS>
N-(4,4-difluorocyclohexyl)-2-(3-methyl-1H-pyrazol-1-yl)-6-morpholinopyrimidin-4-amine; Rimtuzalcap

$$$$
