
 OpenBabel10282417072D

 69 69  0  0  0  0  0  0  0  0999 V2000
   10.0025   -1.6500    0.0000 C   0  0  0  0  0  0  0  0  0  0  0  0
    2.8578    3.3000    0.0000 C   0  0  0  0  0  0  0  0  0  0  0  0
    9.2881    2.0625    0.0000 C   0  0  0  0  0  0  0  0  0  0  0  0
    6.4302    2.0625    0.0000 C   0  0  0  0  0  0  0  0  0  0  0  0
    8.8558    4.0752    0.0000 C   0  0  0  0  0  0  0  0  0  0  0  0
    9.2881   -1.2375    0.0000 C   0  0  0  0  0  0  0  0  0  0  0  0
    3.5723    3.7125    0.0000 C   0  0  0  0  0  0  0  0  0  0  0  0
    9.2881    1.2375    0.0000 C   0  0  0  0  0  0  0  0  0  0  0  0
    5.7157    2.4750    0.0000 C   0  0  0  0  0  0  0  0  0  0  0  0
    9.2881   -0.4125    0.0000 C   0  0  0  0  0  0  0  0  0  0  0  0
    4.2868    3.3000    0.0000 C   0  0  0  0  0  0  0  0  0  0  0  0
    8.5736    0.0000    0.0000 C   0  0  0  0  0  0  0  0  0  0  0  0
    5.0012    3.7125    0.0000 C   0  0  0  0  0  0  0  0  0  0  0  0
    7.8591    1.2375    0.0000 C   0  0  0  0  0  0  0  0  0  0  0  0
    6.4302    3.7125    0.0000 C   0  0  0  0  0  0  0  0  0  0  0  0
    8.5736    2.4750    0.0000 C   0  0  0  0  0  0  0  0  0  0  0  0
    7.8591    3.7125    0.0000 C   0  0  0  0  0  0  0  0  0  0  0  0
    7.1447    2.4750    0.0000 C   0  0  0  0  0  0  0  0  0  0  0  0
    8.5736    0.8250    0.0000 C   0  0  3  0  0  0  0  0  0  0  0  0
    5.7157    3.3000    0.0000 C   0  0  3  0  0  0  0  0  0  0  0  0
    8.5736    3.3000    0.0000 C   0  0  3  0  0  0  0  0  0  0  0  0
    9.3861    3.1567    0.0000 N   0  0  0  0  0  0  0  0  0  0  0  0
    7.8591    2.0625    0.0000 N   0  0  0  0  0  0  0  0  0  0  0  0
    7.1447    3.3000    0.0000 N   0  0  0  0  0  0  0  0  0  0  0  0
   10.0025   -2.7200    0.0000 H   0  0  0  0  0  0  0  0  0  0  0  0
   10.9292   -1.1150    0.0000 H   0  0  0  0  0  0  0  0  0  0  0  0
   10.9291   -2.1850    0.0000 H   0  0  0  0  0  0  0  0  0  0  0  0
    1.9312    3.8350    0.0000 H   0  0  0  0  0  0  0  0  0  0  0  0
    2.8578    2.2300    0.0000 H   0  0  0  0  0  0  0  0  0  0  0  0
    1.9311    2.7650    0.0000 H   0  0  0  0  0  0  0  0  0  0  0  0
   10.2147    2.5975    0.0000 H   0  0  0  0  0  0  0  0  0  0  0  0
    8.3615    2.5975    0.0000 H   0  0  0  0  0  0  0  0  0  0  0  0
    9.2881    3.1325    0.0000 H   0  0  0  0  0  0  0  0  0  0  0  0
    6.4302    0.9925    0.0000 H   0  0  0  0  0  0  0  0  0  0  0  0
    7.3568    2.5975    0.0000 H   0  0  0  0  0  0  0  0  0  0  0  0
    7.3569    1.5275    0.0000 H   0  0  0  0  0  0  0  0  0  0  0  0
    9.9096    4.2609    0.0000 H   0  0  0  0  0  0  0  0  0  0  0  0
    8.1681    4.8949    0.0000 H   0  0  0  0  0  0  0  0  0  0  0  0
    9.2218    5.0807    0.0000 H   0  0  0  0  0  0  0  0  0  0  0  0
    8.3614   -1.7725    0.0000 H   0  0  0  0  0  0  0  0  0  0  0  0
    8.3615   -0.7025    0.0000 H   0  0  0  0  0  0  0  0  0  0  0  0
    3.5723    4.7825    0.0000 H   0  0  0  0  0  0  0  0  0  0  0  0
    4.4989    4.2475    0.0000 H   0  0  0  0  0  0  0  0  0  0  0  0
   10.2147    0.7025    0.0000 H   0  0  0  0  0  0  0  0  0  0  0  0
    9.2881    0.1675    0.0000 H   0  0  0  0  0  0  0  0  0  0  0  0
    4.7891    1.9400    0.0000 H   0  0  0  0  0  0  0  0  0  0  0  0
    4.7891    3.0100    0.0000 H   0  0  0  0  0  0  0  0  0  0  0  0
   10.2147    0.1225    0.0000 H   0  0  0  0  0  0  0  0  0  0  0  0
    9.2881    0.6575    0.0000 H   0  0  0  0  0  0  0  0  0  0  0  0
    4.2868    2.2300    0.0000 H   0  0  0  0  0  0  0  0  0  0  0  0
    5.2135    2.7650    0.0000 H   0  0  0  0  0  0  0  0  0  0  0  0
    7.6470   -0.5350    0.0000 H   0  0  0  0  0  0  0  0  0  0  0  0
    7.6470    0.5350    0.0000 H   0  0  0  0  0  0  0  0  0  0  0  0
    5.0012    4.7825    0.0000 H   0  0  0  0  0  0  0  0  0  0  0  0
    5.9278    4.2475    0.0000 H   0  0  0  0  0  0  0  0  0  0  0  0
    6.9325    0.7025    0.0000 H   0  0  0  0  0  0  0  0  0  0  0  0
    6.9325    1.7725    0.0000 H   0  0  0  0  0  0  0  0  0  0  0  0
    6.4302    4.7825    0.0000 H   0  0  0  0  0  0  0  0  0  0  0  0
    7.3568    4.2475    0.0000 H   0  0  0  0  0  0  0  0  0  0  0  0
    9.5002    1.9400    0.0000 H   0  0  0  0  0  0  0  0  0  0  0  0
    8.5736    1.4050    0.0000 H   0  0  0  0  0  0  0  0  0  0  0  0
    7.8591    4.7825    0.0000 H   0  0  0  0  0  0  0  0  0  0  0  0
    6.9324    4.2475    0.0000 H   0  0  0  0  0  0  0  0  0  0  0  0
    6.2180    1.9400    0.0000 H   0  0  0  0  0  0  0  0  0  0  0  0
    6.2181    3.0100    0.0000 H   0  0  0  0  0  0  0  0  0  0  0  0
    9.5002    0.2900    0.0000 H   0  0  0  0  0  0  0  0  0  0  0  0
    4.7891    2.7650    0.0000 H   0  0  0  0  0  0  0  0  0  0  0  0
    9.7349    2.1982    0.0000 H   0  0  0  0  0  0  0  0  0  0  0  0
   10.0418    3.9380    0.0000 H   0  0  0  0  0  0  0  0  0  0  0  0
  1 25  1  0  0  0  0
  1 26  1  0  0  0  0
  1 27  1  0  0  0  0
  2 28  1  0  0  0  0
  2 29  1  0  0  0  0
  2 30  1  0  0  0  0
  3 31  1  0  0  0  0
  3 32  1  0  0  0  0
  3 33  1  0  0  0  0
  4 34  1  0  0  0  0
  4 35  1  0  0  0  0
  4 36  1  0  0  0  0
  5 37  1  0  0  0  0
  5 38  1  0  0  0  0
  5 39  1  0  0  0  0
  6  1  1  0  0  0  0
  6 40  1  0  0  0  0
  6 41  1  0  0  0  0
  7  2  1  0  0  0  0
  7 42  1  0  0  0  0
  7 43  1  0  0  0  0
  8  3  1  0  0  0  0
  8 44  1  0  0  0  0
  8 45  1  0  0  0  0
  9  4  1  0  0  0  0
  9 46  1  0  0  0  0
  9 47  1  0  0  0  0
 10  6  1  0  0  0  0
 10 48  1  0  0  0  0
 10 49  1  0  0  0  0
 11  7  1  0  0  0  0
 11 50  1  0  0  0  0
 11 51  1  0  0  0  0
 12 10  1  0  0  0  0
 12 52  1  0  0  0  0
 12 53  1  0  0  0  0
 13 11  1  0  0  0  0
 13 54  1  0  0  0  0
 13 55  1  0  0  0  0
 14 56  1  0  0  0  0
 14 57  1  0  0  0  0
 15 58  1  0  0  0  0
 15 59  1  0  0  0  0
 16 60  1  0  0  0  0
 16 61  1  0  0  0  0
 17 62  1  0  0  0  0
 17 63  1  0  0  0  0
 18 64  1  0  0  0  0
 18 65  1  0  0  0  0
 19  8  1  0  0  0  0
 19 12  1  0  0  0  0
 19 14  1  0  0  0  0
 19 66  1  0  0  0  0
 20  9  1  0  0  0  0
 20 13  1  0  0  0  0
 20 15  1  0  0  0  0
 20 67  1  0  0  0  0
 21  5  1  0  0  0  0
 21 16  1  0  0  0  0
 21 17  1  0  0  0  0
 22 21  1  0  0  0  0
 22 68  1  0  0  0  0
 22 69  1  0  0  0  0
 23 14  1  0  0  0  0
 23 16  1  0  0  0  0
 23 18  1  0  0  0  0
 24 15  1  0  0  0  0
 24 17  1  0  0  0  0
 24 18  1  0  0  0  0
M  END
>  <DRUGBANK_ID>
DB08958

>  <COMMON_NAME>
Hexetidine

>  <CAS_NUMBER>
141-94-6

>  <UNII>
852A84Y8LS

>  <SYNONYMS>
Esetidina; Hexetidina; Hexetidine; Hex√©tidine; Hexetidinum

$$$$
