
 OpenBabel10282417072D

 60 66  0  0  0  0  0  0  0  0999 V2000
   -2.4079    1.6595    0.0000 C   0  0  0  0  0  0  0  0  0  0  0  0
   -3.1228    1.2421    0.0000 C   0  0  0  0  0  0  0  0  0  0  0  0
   -3.1159    0.4107    0.0000 C   0  0  0  0  0  0  0  0  0  0  0  0
   -2.3977    0.0049    0.0000 C   0  0  0  0  0  0  0  0  0  0  0  0
   -1.6902    1.2500    0.0000 C   0  0  0  0  0  0  0  0  0  0  0  0
   -1.6871    0.4187    0.0000 C   0  0  0  0  0  0  0  0  0  0  0  0
   -0.8957    0.1647    0.0000 N   0  0  0  0  0  0  0  0  0  0  0  0
   -0.9006    1.5096    0.0000 C   0  0  0  0  0  0  0  0  0  0  0  0
   -0.4142    0.8402    0.0000 C   0  0  0  0  0  0  0  0  0  0  0  0
    0.7423    1.6836    0.0000 C   0  0  0  0  0  0  0  0  0  0  0  0
    0.4096    0.9303    0.0000 C   0  0  0  0  0  0  0  0  0  0  0  0
    1.0232    0.3813    0.0000 N   0  0  0  0  0  0  0  0  0  0  0  0
    1.5613    1.5999    0.0000 C   0  0  0  0  0  0  0  0  0  0  0  0
    1.7332    0.7964    0.0000 C   0  0  0  0  0  0  0  0  0  0  0  0
    2.5136    0.5450    0.0000 C   0  0  0  0  0  0  0  0  0  0  0  0
    3.1228    1.0961    0.0000 C   0  0  0  0  0  0  0  0  0  0  0  0
    2.9463    1.9020    0.0000 C   0  0  0  0  0  0  0  0  0  0  0  0
    2.1662    2.1495    0.0000 C   0  0  0  0  0  0  0  0  0  0  0  0
   -0.5684    2.2624    0.0000 C   0  0  0  0  0  0  0  0  0  0  0  0
    0.2476    2.3540    0.0000 C   0  0  0  0  0  0  0  0  0  0  0  0
    0.4129    3.1583    0.0000 C   0  0  0  0  0  0  0  0  0  0  0  0
   -0.3011    3.5640    0.0000 N   0  0  0  0  0  0  0  0  0  0  0  0
   -0.9074    3.0104    0.0000 C   0  0  0  0  0  0  0  0  0  0  0  0
   -2.3924   -0.8250    0.0000 Cl  0  0  0  0  0  0  0  0  0  0  0  0
    2.6882   -0.2664    0.0000 Cl  0  0  0  0  0  0  0  0  0  0  0  0
   -0.8805   -0.6600    0.0000 C   0  0  2  0  0  0  0  0  0  0  0  0
   -1.5885   -1.0848    0.0000 O   0  0  0  0  0  0  0  0  0  0  0  0
   -1.5747   -1.9057    0.0000 C   0  0  1  0  0  0  0  0  0  0  0  0
   -0.8544   -2.3081    0.0000 C   0  0  2  0  0  0  0  0  0  0  0  0
   -0.1465   -1.8833    0.0000 C   0  0  1  0  0  0  0  0  0  0  0  0
   -0.1587   -1.0561    0.0000 C   0  0  1  0  0  0  0  0  0  0  0  0
    0.5523   -0.6281    0.0000 O   0  0  0  0  0  0  0  0  0  0  0  0
    0.5787   -2.2869    0.0000 O   0  0  0  0  0  0  0  0  0  0  0  0
   -2.2869   -2.3317    0.0000 C   0  0  0  0  0  0  0  0  0  0  0  0
   -3.0122   -1.9279    0.0000 O   0  0  0  0  0  0  0  0  0  0  0  0
   -0.8415   -3.1380    0.0000 O   0  0  0  0  0  0  0  0  0  0  0  0
   -1.5541   -3.5640    0.0000 C   0  0  0  0  0  0  0  0  0  0  0  0
   -1.7205    3.1774    0.0000 O   0  0  0  0  0  0  0  0  0  0  0  0
    1.1687    3.5011    0.0000 O   0  0  0  0  0  0  0  0  0  0  0  0
   -2.4130    2.6915    0.0000 H   0  0  0  0  0  0  0  0  0  0  0  0
   -4.0199    1.7522    0.0000 H   0  0  0  0  0  0  0  0  0  0  0  0
   -4.0051   -0.1131    0.0000 H   0  0  0  0  0  0  0  0  0  0  0  0
    0.9245   -0.5982    0.0000 H   0  0  0  0  0  0  0  0  0  0  0  0
    4.1056    0.7814    0.0000 H   0  0  0  0  0  0  0  0  0  0  0  0
    3.7087    2.5976    0.0000 H   0  0  0  0  0  0  0  0  0  0  0  0
    1.9459    3.1577    0.0000 H   0  0  0  0  0  0  0  0  0  0  0  0
   -0.4108    4.5424    0.0000 H   0  0  0  0  0  0  0  0  0  0  0  0
   -1.8164   -0.1414    0.0000 H   0  0  0  0  0  0  0  0  0  0  0  0
   -2.5099   -1.3857    0.0000 H   0  0  0  0  0  0  0  0  0  0  0  0
   -1.7730   -2.8568    0.0000 H   0  0  0  0  0  0  0  0  0  0  0  0
   -0.1290   -2.9532    0.0000 H   0  0  0  0  0  0  0  0  0  0  0  0
   -0.1801    0.0137    0.0000 H   0  0  0  0  0  0  0  0  0  0  0  0
    1.4011   -1.0977    0.0000 H   0  0  0  0  0  0  0  0  0  0  0  0
    0.5940   -3.2568    0.0000 H   0  0  0  0  0  0  0  0  0  0  0  0
   -2.2703   -3.4016    0.0000 H   0  0  0  0  0  0  0  0  0  0  0  0
   -3.2051   -2.8811    0.0000 H   0  0  0  0  0  0  0  0  0  0  0  0
   -3.0273   -0.9580    0.0000 H   0  0  0  0  0  0  0  0  0  0  0  0
   -2.4888   -3.0432    0.0000 H   0  0  0  0  0  0  0  0  0  0  0  0
   -1.5378   -4.6339    0.0000 H   0  0  0  0  0  0  0  0  0  0  0  0
   -2.4725   -4.1130    0.0000 H   0  0  0  0  0  0  0  0  0  0  0  0
  1  2  2  0  0  0  0
  1 40  1  0  0  0  0
  2  3  1  0  0  0  0
  2 41  1  0  0  0  0
  3  4  2  0  0  0  0
  3 42  1  0  0  0  0
  4 24  1  0  0  0  0
  4  6  1  0  0  0  0
  5  6  2  0  0  0  0
  5  1  1  0  0  0  0
  6  7  1  0  0  0  0
  7  9  1  0  0  0  0
  8  9  2  0  0  0  0
  8  5  1  0  0  0  0
  9 11  1  0  0  0  0
 10 20  1  0  0  0  0
 10 11  2  0  0  0  0
 11 12  1  0  0  0  0
 12 14  1  0  0  0  0
 12 43  1  0  0  0  0
 13 10  1  0  0  0  0
 13 14  2  0  0  0  0
 14 15  1  0  0  0  0
 15 25  1  0  0  0  0
 15 16  2  0  0  0  0
 16 17  1  0  0  0  0
 16 44  1  0  0  0  0
 17 18  2  0  0  0  0
 17 45  1  0  0  0  0
 18 13  1  0  0  0  0
 18 46  1  0  0  0  0
 19 20  2  0  0  0  0
 19  8  1  0  0  0  0
 20 21  1  0  0  0  0
 21 22  1  0  0  0  0
 21 39  2  0  0  0  0
 22 23  1  0  0  0  0
 22 47  1  0  0  0  0
 23 19  1  0  0  0  0
 23 38  2  0  0  0  0
 26  7  1  0  0  0  0
 26 27  1  0  0  0  0
 26 31  1  0  0  0  0
 26 48  1  6  0  0  0
 27 28  1  0  0  0  0
 28 29  1  0  0  0  0
 28 34  1  0  0  0  0
 28 49  1  6  0  0  0
 29 30  1  0  0  0  0
 29 36  1  0  0  0  0
 29 50  1  1  0  0  0
 30 31  1  0  0  0  0
 30 33  1  0  0  0  0
 30 51  1  6  0  0  0
 31 32  1  0  0  0  0
 31 52  1  1  0  0  0
 32 53  1  0  0  0  0
 33 54  1  0  0  0  0
 34 35  1  0  0  0  0
 34 55  1  0  0  0  0
 34 56  1  0  0  0  0
 35 57  1  0  0  0  0
 36 37  1  0  0  0  0
 37 58  1  0  0  0  0
 37 59  1  0  0  0  0
 37 60  1  0  0  0  0
M  END
>  <DRUGBANK_ID>
DB14729

>  <COMMON_NAME>
Rebeccamycin

>  <CAS_NUMBER>
93908-02-2

>  <UNII>
Y96MQM21V9

$$$$
