
 OpenBabel10282417072D

 56 58  0  0  0  0  0  0  0  0999 V2000
   -3.5372   -0.3017    0.0000 C   0  0  0  0  0  0  0  0  0  0  0  0
   -4.2517   -0.7142    0.0000 C   0  0  0  0  0  0  0  0  0  0  0  0
   -4.2517   -1.5392    0.0000 C   0  0  0  0  0  0  0  0  0  0  0  0
   -3.5372   -1.9517    0.0000 C   0  0  0  0  0  0  0  0  0  0  0  0
   -2.8228   -1.5392    0.0000 C   0  0  0  0  0  0  0  0  0  0  0  0
   -2.8228   -0.7142    0.0000 C   0  0  0  0  0  0  0  0  0  0  0  0
   -2.1083   -0.3017    0.0000 C   0  0  0  0  0  0  0  0  0  0  0  0
   -1.3938   -0.7142    0.0000 C   0  0  0  0  0  0  0  0  0  0  0  0
    0.0350   -0.7142    0.0000 N   0  0  0  0  0  0  0  0  0  0  0  0
    2.9301    0.8013    0.0000 C   0  0  0  0  0  0  0  0  0  0  0  0
    2.1784   -0.3017    0.0000 N   0  0  0  0  0  0  0  0  0  0  0  0
    3.4751   -1.1854    0.0000 C   0  0  0  0  0  0  0  0  0  0  0  0
    4.2517   -0.9069    0.0000 C   0  0  0  0  0  0  0  0  0  0  0  0
    4.2269   -0.0824    0.0000 C   0  0  0  0  0  0  0  0  0  0  0  0
    2.9704   -0.5329    0.0000 C   0  0  1  0  0  0  0  0  0  0  0  0
    2.5579   -1.2474    0.0000 H   0  0  0  0  0  0  0  0  0  0  0  0
    3.4349    0.1487    0.0000 C   0  0  2  0  0  0  0  0  0  0  0  0
    3.8474    0.8632    0.0000 H   0  0  0  0  0  0  0  0  0  0  0  0
    0.7495   -0.3017    0.0000 C   0  0  1  0  0  0  0  0  0  0  0  0
    0.7495    0.5232    0.0000 C   0  0  0  0  0  0  0  0  0  0  0  0
   -0.6794   -0.3017    0.0000 C   0  0  2  0  0  0  0  0  0  0  0  0
   -0.6794    0.5232    0.0000 C   0  0  0  0  0  0  0  0  0  0  0  0
   -1.3938    0.9357    0.0000 O   0  0  0  0  0  0  0  0  0  0  0  0
    0.0350    0.9357    0.0000 O   0  0  0  0  0  0  0  0  0  0  0  0
    2.1536    0.5228    0.0000 C   0  0  2  0  0  0  0  0  0  0  0  0
    0.9161    1.2373    0.0000 O   0  0  0  0  0  0  0  0  0  0  0  0
    1.7411    1.2373    0.0000 C   0  0  0  0  0  0  0  0  0  0  0  0
    2.1536    1.9517    0.0000 O   0  0  0  0  0  0  0  0  0  0  0  0
    1.4639   -0.7142    0.0000 C   0  0  0  0  0  0  0  0  0  0  0  0
    1.4639   -1.5392    0.0000 O   0  0  0  0  0  0  0  0  0  0  0  0
   -3.5372    0.7303    0.0000 H   0  0  0  0  0  0  0  0  0  0  0  0
   -5.1454   -0.1982    0.0000 H   0  0  0  0  0  0  0  0  0  0  0  0
   -5.1454   -2.0552    0.0000 H   0  0  0  0  0  0  0  0  0  0  0  0
   -3.5372   -2.9837    0.0000 H   0  0  0  0  0  0  0  0  0  0  0  0
   -1.9291   -2.0552    0.0000 H   0  0  0  0  0  0  0  0  0  0  0  0
   -2.1083    0.7683    0.0000 H   0  0  0  0  0  0  0  0  0  0  0  0
   -1.1817    0.2333    0.0000 H   0  0  0  0  0  0  0  0  0  0  0  0
   -1.3938   -1.7842    0.0000 H   0  0  0  0  0  0  0  0  0  0  0  0
   -0.4671   -1.2492    0.0000 H   0  0  0  0  0  0  0  0  0  0  0  0
    0.0350   -1.7342    0.0000 H   0  0  0  0  0  0  0  0  0  0  0  0
    3.2299    1.8284    0.0000 H   0  0  0  0  0  0  0  0  0  0  0  0
    3.9814    1.0004    0.0000 H   0  0  0  0  0  0  0  0  0  0  0  0
    3.1752   -2.2125    0.0000 H   0  0  0  0  0  0  0  0  0  0  0  0
    4.2542   -1.9189    0.0000 H   0  0  0  0  0  0  0  0  0  0  0  0
    5.1359   -1.5095    0.0000 H   0  0  0  0  0  0  0  0  0  0  0  0
    5.1900   -0.3927    0.0000 H   0  0  0  0  0  0  0  0  0  0  0  0
    5.0732    0.5723    0.0000 H   0  0  0  0  0  0  0  0  0  0  0  0
    5.1945   -0.5392    0.0000 H   0  0  0  0  0  0  0  0  0  0  0  0
   -0.1771    0.2333    0.0000 H   0  0  0  0  0  0  0  0  0  0  0  0
    1.6761    1.0582    0.0000 H   0  0  0  0  0  0  0  0  0  0  0  0
   -0.1771    1.0582    0.0000 H   0  0  0  0  0  0  0  0  0  0  0  0
    0.7495    1.5932    0.0000 H   0  0  0  0  0  0  0  0  0  0  0  0
   -1.6061    0.2333    0.0000 H   0  0  0  0  0  0  0  0  0  0  0  0
    0.8465    0.4672    0.0000 H   0  0  0  0  0  0  0  0  0  0  0  0
    2.5219    1.5274    0.0000 H   0  0  0  0  0  0  0  0  0  0  0  0
    3.0906    1.9517    0.0000 H   0  0  0  0  0  0  0  0  0  0  0  0
  1  2  1  0  0  0  0
  1  6  2  0  0  0  0
  1 31  1  0  0  0  0
  2  3  2  0  0  0  0
  2 32  1  0  0  0  0
  3  4  1  0  0  0  0
  3 33  1  0  0  0  0
  4  5  2  0  0  0  0
  4 34  1  0  0  0  0
  5  6  1  0  0  0  0
  5 35  1  0  0  0  0
  6  7  1  0  0  0  0
  7  8  1  0  0  0  0
  7 36  1  0  0  0  0
  7 37  1  0  0  0  0
  8 21  1  0  0  0  0
  8 38  1  0  0  0  0
  8 39  1  0  0  0  0
  9 19  1  0  0  0  0
  9 40  1  0  0  0  0
 10 25  1  0  0  0  0
 10 17  1  0  0  0  0
 10 41  1  0  0  0  0
 10 42  1  0  0  0  0
 11 15  1  0  0  0  0
 12 13  1  0  0  0  0
 12 43  1  0  0  0  0
 12 44  1  0  0  0  0
 13 14  1  0  0  0  0
 13 45  1  0  0  0  0
 13 46  1  0  0  0  0
 14 47  1  0  0  0  0
 14 48  1  0  0  0  0
 15 12  1  0  0  0  0
 15 16  1  1  0  0  0
 17 15  1  0  0  0  0
 17 14  1  0  0  0  0
 17 18  1  1  0  0  0
 19 29  1  0  0  0  0
 19 20  1  0  0  0  0
 19 49  1  6  0  0  0
 20 50  1  0  0  0  0
 20 51  1  0  0  0  0
 20 52  1  0  0  0  0
 21  9  1  0  0  0  0
 21 22  1  0  0  0  0
 21 53  1  6  0  0  0
 22 24  1  0  0  0  0
 22 23  2  0  0  0  0
 24 54  1  0  0  0  0
 25 11  1  0  0  0  0
 25 27  1  0  0  0  0
 25 55  1  1  0  0  0
 27 26  2  0  0  0  0
 27 28  1  0  0  0  0
 28 56  1  0  0  0  0
 29 11  1  0  0  0  0
 29 30  2  0  0  0  0
M  END
>  <DRUGBANK_ID>
DB14208

>  <COMMON_NAME>
Ramiprilat

>  <CAS_NUMBER>
87269-97-4

>  <UNII>
6N5U4QFC3G

>  <SYNONYMS>
Ramipril diacid; Ramiprilat; Ramiprilate; Ramiprilatum

$$$$
