153
 OpenBabel10282417072D

 73 75  0  0  1  0  0  0  0  0999 V2000
    1.6500   -3.9985    0.0000 O   0  0  0  0  0  0  0  0  0  0  0  0
    4.5080    0.9517    0.0000 C   0  0  2  0  0  0  0  0  0  0  0  0
    5.2886    1.2030    0.0000 C   0  0  2  0  0  0  0  0  0  0  0  0
    4.5080    0.1266    0.0000 C   0  0  1  0  0  0  0  0  0  0  0  0
    5.7701    0.5391    0.0000 C   0  0  0  0  0  0  0  0  0  0  0  0
    5.2886   -0.1247    0.0000 C   0  0  0  0  0  0  0  0  0  0  0  0
    3.7935    1.3642    0.0000 C   0  0  0  0  0  0  0  0  0  0  0  0
    5.5449    1.9872    0.0000 C   0  0  2  0  0  0  0  0  0  0  0  0
    3.7935   -0.2859    0.0000 C   0  0  0  0  0  0  0  0  0  0  0  0
    4.5080    1.7767    0.0000 C   0  0  0  0  0  0  0  0  0  0  0  0
    3.0791    0.9517    0.0000 C   0  0  0  0  0  0  0  0  0  0  0  0
    3.0791    0.1266    0.0000 C   0  0  0  0  0  0  0  0  0  0  0  0
    4.9939    2.6013    0.0000 C   0  0  0  0  0  0  0  0  0  0  0  0
    6.3522    2.1574    0.0000 C   0  0  0  0  0  0  0  0  0  0  0  0
    3.7935   -1.1109    0.0000 C   0  0  0  0  0  0  0  0  0  0  0  0
    6.6086    2.9416    0.0000 C   0  0  0  0  0  0  0  0  0  0  0  0
    3.0791   -1.5234    0.0000 C   0  0  0  0  0  0  0  0  0  0  0  0
    7.4158    3.1117    0.0000 C   0  0  1  0  0  0  0  0  0  0  0  0
    3.0791   -2.3484    0.0000 C   0  0  0  0  0  0  0  0  0  0  0  0
    7.6721    3.8959    0.0000 C   0  0  0  0  0  0  0  0  0  0  0  0
    2.3645   -2.7609    0.0000 C   0  0  0  0  0  0  0  0  0  0  0  0
    7.9668    2.4977    0.0000 C   0  0  0  0  0  0  0  0  0  0  0  0
    3.7935   -2.7609    0.0000 C   0  0  0  0  0  0  0  0  0  0  0  0
    2.3645   -3.5859    0.0000 C   0  0  2  0  0  0  0  0  0  0  0  0
    3.7935   -3.5859    0.0000 C   0  0  0  0  0  0  0  0  0  0  0  0
    3.0791   -3.9985    0.0000 C   0  0  0  0  0  0  0  0  0  0  0  0
    7.1211    4.5100    0.0000 C   0  0  0  0  0  0  0  0  0  0  0  0
    8.4794    4.0660    0.0000 C   0  0  0  0  0  0  0  0  0  0  0  0
    4.5080   -2.3484    0.0000 C   0  0  0  0  0  0  0  0  0  0  0  0
    5.9406    1.3054    0.0000 H   0  0  0  0  0  0  0  0  0  0  0  0
    4.5779   -0.5297    0.0000 H   0  0  0  0  0  0  0  0  0  0  0  0
    0.8099   -3.5136    0.0000 H   0  0  0  0  0  0  0  0  0  0  0  0
    6.8401    0.5391    0.0000 H   0  0  0  0  0  0  0  0  0  0  0  0
    6.2562   -0.4141    0.0000 H   0  0  0  0  0  0  0  0  0  0  0  0
    5.6210   -1.1418    0.0000 H   0  0  0  0  0  0  0  0  0  0  0  0
    6.3456   -0.2908    0.0000 H   0  0  0  0  0  0  0  0  0  0  0  0
    3.7935    2.4342    0.0000 H   0  0  0  0  0  0  0  0  0  0  0  0
    2.8668    1.8992    0.0000 H   0  0  0  0  0  0  0  0  0  0  0  0
    4.4979    1.7666    0.0000 H   0  0  0  0  0  0  0  0  0  0  0  0
    5.4346    2.3117    0.0000 H   0  0  0  0  0  0  0  0  0  0  0  0
    3.5814    2.3117    0.0000 H   0  0  0  0  0  0  0  0  0  0  0  0
    4.5080    2.8467    0.0000 H   0  0  0  0  0  0  0  0  0  0  0  0
    2.1524    1.4867    0.0000 H   0  0  0  0  0  0  0  0  0  0  0  0
    2.1525    0.4167    0.0000 H   0  0  0  0  0  0  0  0  0  0  0  0
    2.1524   -0.4084    0.0000 H   0  0  0  0  0  0  0  0  0  0  0  0
    2.1525    0.6616    0.0000 H   0  0  0  0  0  0  0  0  0  0  0  0
    5.3263    3.6184    0.0000 H   0  0  0  0  0  0  0  0  0  0  0  0
    3.9469    2.3807    0.0000 H   0  0  0  0  0  0  0  0  0  0  0  0
    4.2793    3.3977    0.0000 H   0  0  0  0  0  0  0  0  0  0  0  0
    7.0414    1.3893    0.0000 H   0  0  0  0  0  0  0  0  0  0  0  0
    4.6872   -1.6269    0.0000 H   0  0  0  0  0  0  0  0  0  0  0  0
    5.9194    3.7098    0.0000 H   0  0  0  0  0  0  0  0  0  0  0  0
    2.1854   -1.0074    0.0000 H   0  0  0  0  0  0  0  0  0  0  0  0
    7.0834    2.0946    0.0000 H   0  0  0  0  0  0  0  0  0  0  0  0
    8.0045    4.9129    0.0000 H   0  0  0  0  0  0  0  0  0  0  0  0
    1.4379   -2.2259    0.0000 H   0  0  0  0  0  0  0  0  0  0  0  0
    1.4378   -3.2959    0.0000 H   0  0  0  0  0  0  0  0  0  0  0  0
    7.6345    1.4806    0.0000 H   0  0  0  0  0  0  0  0  0  0  0  0
    9.0138    2.7184    0.0000 H   0  0  0  0  0  0  0  0  0  0  0  0
    8.6814    1.7013    0.0000 H   0  0  0  0  0  0  0  0  0  0  0  0
    1.4378   -3.0509    0.0000 H   0  0  0  0  0  0  0  0  0  0  0  0
    4.7202   -4.1208    0.0000 H   0  0  0  0  0  0  0  0  0  0  0  0
    3.7936   -4.6559    0.0000 H   0  0  0  0  0  0  0  0  0  0  0  0
    3.0792   -5.0685    0.0000 H   0  0  0  0  0  0  0  0  0  0  0  0
    4.0058   -4.5334    0.0000 H   0  0  0  0  0  0  0  0  0  0  0  0
    7.4535    5.5271    0.0000 H   0  0  0  0  0  0  0  0  0  0  0  0
    6.0741    4.2894    0.0000 H   0  0  0  0  0  0  0  0  0  0  0  0
    6.4065    5.3064    0.0000 H   0  0  0  0  0  0  0  0  0  0  0  0
    9.1940    3.2696    0.0000 H   0  0  0  0  0  0  0  0  0  0  0  0
    8.8119    5.0830    0.0000 H   0  0  0  0  0  0  0  0  0  0  0  0
    9.5264    4.2866    0.0000 H   0  0  0  0  0  0  0  0  0  0  0  0
    5.4017   -2.8644    0.0000 H   0  0  0  0  0  0  0  0  0  0  0  0
    4.5080   -1.3164    0.0000 H   0  0  0  0  0  0  0  0  0  0  0  0
  1 32  1  0  0  0  0
  2  3  1  0  0  0  0
  2  4  1  0  0  0  0
  2  7  1  0  0  0  0
  2 10  1  1  0  0  0
  3  5  1  0  0  0  0
  3  8  1  0  0  0  0
  3 30  1  6  0  0  0
  4  6  1  0  0  0  0
  4  9  1  0  0  0  0
  4 31  1  6  0  0  0
  5  6  1  0  0  0  0
  5 33  1  0  0  0  0
  5 34  1  0  0  0  0
  6 35  1  0  0  0  0
  6 36  1  0  0  0  0
  7 11  1  0  0  0  0
  7 37  1  0  0  0  0
  7 38  1  0  0  0  0
  8 13  1  0  0  0  0
  8 14  1  0  0  0  0
  8 39  1  1  0  0  0
  9 12  1  0  0  0  0
  9 15  2  0  0  0  0
 10 40  1  0  0  0  0
 10 41  1  0  0  0  0
 10 42  1  0  0  0  0
 11 12  1  0  0  0  0
 11 43  1  0  0  0  0
 11 44  1  0  0  0  0
 12 45  1  0  0  0  0
 12 46  1  0  0  0  0
 13 47  1  0  0  0  0
 13 48  1  0  0  0  0
 13 49  1  0  0  0  0
 14 16  2  0  0  0  0
 14 50  1  0  0  0  0
 15 17  1  0  0  0  0
 15 51  1  0  0  0  0
 16 18  1  0  0  0  0
 16 52  1  0  0  0  0
 17 19  2  0  0  0  0
 17 53  1  0  0  0  0
 18 20  1  0  0  0  0
 18 22  1  0  0  0  0
 18 54  1  6  0  0  0
 19 21  1  0  0  0  0
 19 23  1  0  0  0  0
 20 27  1  0  0  0  0
 20 28  1  0  0  0  0
 20 55  1  0  0  0  0
 21 24  1  0  0  0  0
 21 56  1  0  0  0  0
 21 57  1  0  0  0  0
 22 58  1  0  0  0  0
 22 59  1  0  0  0  0
 22 60  1  0  0  0  0
 23 25  1  0  0  0  0
 23 29  2  0  0  0  0
 24  1  1  0  0  0  0
 24 26  1  0  0  0  0
 24 61  1  1  0  0  0
 25 26  1  0  0  0  0
 25 62  1  0  0  0  0
 25 63  1  0  0  0  0
 26 64  1  0  0  0  0
 26 65  1  0  0  0  0
 27 66  1  0  0  0  0
 27 67  1  0  0  0  0
 27 68  1  0  0  0  0
 28 69  1  0  0  0  0
 28 70  1  0  0  0  0
 28 71  1  0  0  0  0
 29 72  1  0  0  0  0
 29 73  1  0  0  0  0
M  END
>  <DRUGBANK_ID>
DB00153

>  <SECONDARY_ACCESSION_NUMBERS>
NUTR00005; APRD00426

>  <COMMON_NAME>
Ergocalciferol

>  <CAS_NUMBER>
50-14-6

>  <UNII>
VS041H42XC

>  <SYNONYMS>
(3β,5Z,7E,22E)-9,10-secoergosta-5,7,10(19),22-tetraen-3-ol; (5Z,7E,22E)-(3S)-9,10-seco-5,7,10(19),22-ergostatetraen-3-ol; (5Z,7E,22E)-(3S)-9,10-secoergosta-5,7,10(19),22-tetraen-3-ol; Activated ergosterol; Ercalciol; Ergocalciférol; Ergocalciferol; Ergocalciferolum; Oleovitamin D2; Viosterol; Vitamin D2; Vitamina D2

$$$$
