
 OpenBabel10282417072D

 31 32  0  0  0  0  0  0  0  0999 V2000
   -1.5056    0.2572    0.0000 C   0  0  0  0  0  0  0  0  0  0  0  0
    1.6689    1.9642    0.0000 C   0  0  0  0  0  0  0  0  0  0  0  0
   -0.7209    0.5122    0.0000 C   0  0  2  0  0  0  0  0  0  0  0  0
    1.2564    3.2338    0.0000 C   0  0  0  0  0  0  0  0  0  0  0  0
   -0.0535    0.0273    0.0000 C   0  0  2  0  0  0  0  0  0  0  0  0
    0.6139    0.5122    0.0000 C   0  0  2  0  0  0  0  0  0  0  0  0
    1.2564    4.0588    0.0000 C   0  0  0  0  0  0  0  0  0  0  0  0
    0.5890    2.7489    0.0000 C   0  0  0  0  0  0  0  0  0  0  0  0
    0.3590    1.2968    0.0000 C   0  0  2  0  0  0  0  0  0  0  0  0
    1.9709    4.4713    0.0000 N   0  0  0  0  0  0  0  0  0  0  0  0
    1.9239    2.7489    0.0000 N   0  0  0  0  0  0  0  0  0  0  0  0
    0.8439    1.9642    0.0000 N   0  0  0  0  0  0  0  0  0  0  0  0
   -1.6771   -0.5497    0.0000 O   0  0  0  0  0  0  0  0  0  0  0  0
   -0.0535   -0.7977    0.0000 O   0  0  0  0  0  0  0  0  0  0  0  0
    1.3986    0.2572    0.0000 O   0  0  0  0  0  0  0  0  0  0  0  0
    0.5420    4.4713    0.0000 O   0  0  0  0  0  0  0  0  0  0  0  0
   -0.1956    3.0038    0.0000 O   0  0  0  0  0  0  0  0  0  0  0  0
   -0.4660    1.2968    0.0000 O   0  0  0  0  0  0  0  0  0  0  0  0
   -2.3008    0.9731    0.0000 H   0  0  0  0  0  0  0  0  0  0  0  0
   -2.5232   -0.0735    0.0000 H   0  0  0  0  0  0  0  0  0  0  0  0
    2.2755    1.1293    0.0000 H   0  0  0  0  0  0  0  0  0  0  0  0
   -0.8883   -0.5446    0.0000 H   0  0  0  0  0  0  0  0  0  0  0  0
   -1.0069   -0.4585    0.0000 H   0  0  0  0  0  0  0  0  0  0  0  0
    0.7813   -0.5446    0.0000 H   0  0  0  0  0  0  0  0  0  0  0  0
    1.4158    1.1294    0.0000 H   0  0  0  0  0  0  0  0  0  0  0  0
    2.8235    3.9790    0.0000 H   0  0  0  0  0  0  0  0  0  0  0  0
    1.9709    5.4558    0.0000 H   0  0  0  0  0  0  0  0  0  0  0  0
   -2.5996   -0.8495    0.0000 H   0  0  0  0  0  0  0  0  0  0  0  0
   -0.8935   -1.2827    0.0000 H   0  0  0  0  0  0  0  0  0  0  0  0
    1.6002   -0.6916    0.0000 H   0  0  0  0  0  0  0  0  0  0  0  0
   -0.3904    3.9203    0.0000 H   0  0  0  0  0  0  0  0  0  0  0  0
  1 19  1  0  0  0  0
  1 20  1  0  0  0  0
  2 21  1  0  0  0  0
  3  1  1  0  0  0  0
  3 22  1  6  0  0  0
  5  3  1  0  0  0  0
  5 14  1  0  0  0  0
  5 23  1  1  0  0  0
  6  5  1  0  0  0  0
  6 15  1  0  0  0  0
  6 24  1  1  0  0  0
  7  4  1  0  0  0  0
  8  4  2  0  0  0  0
  9  6  1  0  0  0  0
  9 12  1  0  0  0  0
  9 25  1  6  0  0  0
 10  7  1  0  0  0  0
 10 26  1  0  0  0  0
 10 27  1  0  0  0  0
 11  2  2  0  0  0  0
 11  4  1  0  0  0  0
 12  2  1  0  0  0  0
 12  8  1  0  0  0  0
 13  1  1  0  0  0  0
 13 28  1  0  0  0  0
 14 29  1  0  0  0  0
 15 30  1  0  0  0  0
 16  7  2  0  0  0  0
 17  8  1  0  0  0  0
 17 31  1  0  0  0  0
 18  3  1  0  0  0  0
 18  9  1  0  0  0  0
M  END
>  <DRUGBANK_ID>
DB12617

>  <COMMON_NAME>
Mizoribine

>  <CAS_NUMBER>
50924-49-7

>  <UNII>
4JR41A10VP

>  <SYNONYMS>
BREDININ; Mizoribine

$$$$
