E89
 OpenBabel10282417072D

 42 45  0  0  0  0  0  0  0  0999 V2000
   -0.5986    2.6020    0.0000 C   0  0  0  0  0  0  0  0  0  0  0  0
    0.1159    2.1895    0.0000 C   0  0  0  0  0  0  0  0  0  0  0  0
    0.8304    2.6020    0.0000 C   0  0  0  0  0  0  0  0  0  0  0  0
    0.8304    3.4270    0.0000 O   0  0  0  0  0  0  0  0  0  0  0  0
    1.5449    2.1895    0.0000 N   0  0  0  0  0  0  0  0  0  0  0  0
    1.5449    1.3645    0.0000 C   0  0  0  0  0  0  0  0  0  0  0  0
    2.2593    0.9520    0.0000 N   0  0  0  0  0  0  0  0  0  0  0  0
    0.8304    0.9520    0.0000 N   0  0  0  0  0  0  0  0  0  0  0  0
    0.1159    1.3645    0.0000 C   0  0  0  0  0  0  0  0  0  0  0  0
   -0.5986    0.9520    0.0000 C   0  0  0  0  0  0  0  0  0  0  0  0
   -0.5986    0.1270    0.0000 C   0  0  0  0  0  0  0  0  0  0  0  0
    0.1159   -0.2855    0.0000 C   0  0  0  0  0  0  0  0  0  0  0  0
    0.1159   -1.1105    0.0000 C   0  0  0  0  0  0  0  0  0  0  0  0
    0.8304   -1.5230    0.0000 C   0  0  0  0  0  0  0  0  0  0  0  0
    0.8304   -2.3480    0.0000 C   0  0  0  0  0  0  0  0  0  0  0  0
    0.1159   -2.7605    0.0000 C   0  0  0  0  0  0  0  0  0  0  0  0
    0.1159   -3.5855    0.0000 O   0  0  0  0  0  0  0  0  0  0  0  0
    0.8304   -3.9980    0.0000 C   0  0  0  0  0  0  0  0  0  0  0  0
   -0.5986   -2.3480    0.0000 C   0  0  0  0  0  0  0  0  0  0  0  0
   -0.5986   -1.5230    0.0000 C   0  0  0  0  0  0  0  0  0  0  0  0
   -1.3130    1.3645    0.0000 C   0  0  0  0  0  0  0  0  0  0  0  0
   -2.0976    1.1096    0.0000 N   0  0  0  0  0  0  0  0  0  0  0  0
   -2.5826    1.7770    0.0000 C   0  0  0  0  0  0  0  0  0  0  0  0
   -2.0976    2.4445    0.0000 N   0  0  0  0  0  0  0  0  0  0  0  0
   -1.3130    2.1895    0.0000 C   0  0  0  0  0  0  0  0  0  0  0  0
   -0.5986    3.6340    0.0000 H   0  0  0  0  0  0  0  0  0  0  0  0
    2.3975    2.6818    0.0000 H   0  0  0  0  0  0  0  0  0  0  0  0
    2.2593   -0.0325    0.0000 H   0  0  0  0  0  0  0  0  0  0  0  0
    3.1119    1.4442    0.0000 H   0  0  0  0  0  0  0  0  0  0  0  0
   -1.5252   -0.4080    0.0000 H   0  0  0  0  0  0  0  0  0  0  0  0
   -0.5986   -0.9430    0.0000 H   0  0  0  0  0  0  0  0  0  0  0  0
    1.0425    0.2495    0.0000 H   0  0  0  0  0  0  0  0  0  0  0  0
    1.0425   -0.8205    0.0000 H   0  0  0  0  0  0  0  0  0  0  0  0
    1.7241   -1.0070    0.0000 H   0  0  0  0  0  0  0  0  0  0  0  0
    1.7241   -2.8640    0.0000 H   0  0  0  0  0  0  0  0  0  0  0  0
    0.8304   -5.0680    0.0000 H   0  0  0  0  0  0  0  0  0  0  0  0
    1.7570   -3.4630    0.0000 H   0  0  0  0  0  0  0  0  0  0  0  0
    1.7571   -4.5330    0.0000 H   0  0  0  0  0  0  0  0  0  0  0  0
   -1.4923   -2.8640    0.0000 H   0  0  0  0  0  0  0  0  0  0  0  0
   -1.4923   -1.0070    0.0000 H   0  0  0  0  0  0  0  0  0  0  0  0
   -3.6146    1.7770    0.0000 H   0  0  0  0  0  0  0  0  0  0  0  0
   -2.4018    3.3808    0.0000 H   0  0  0  0  0  0  0  0  0  0  0  0
  1  2  1  0  0  0  0
  1 25  2  0  0  0  0
  1 26  1  0  0  0  0
  2  3  1  0  0  0  0
  2  9  2  0  0  0  0
  3  4  2  0  0  0  0
  3  5  1  0  0  0  0
  5  6  1  0  0  0  0
  5 27  1  0  0  0  0
  6  7  1  0  0  0  0
  6  8  2  0  0  0  0
  7 28  1  0  0  0  0
  7 29  1  0  0  0  0
  8  9  1  0  0  0  0
  9 10  1  0  0  0  0
 10 11  1  0  0  0  0
 10 21  2  0  0  0  0
 11 12  1  0  0  0  0
 11 30  1  0  0  0  0
 11 31  1  0  0  0  0
 12 13  1  0  0  0  0
 12 32  1  0  0  0  0
 12 33  1  0  0  0  0
 13 14  1  0  0  0  0
 13 20  2  0  0  0  0
 14 15  2  0  0  0  0
 14 34  1  0  0  0  0
 15 16  1  0  0  0  0
 15 35  1  0  0  0  0
 16 17  1  0  0  0  0
 16 19  2  0  0  0  0
 17 18  1  0  0  0  0
 18 36  1  0  0  0  0
 18 37  1  0  0  0  0
 18 38  1  0  0  0  0
 19 20  1  0  0  0  0
 19 39  1  0  0  0  0
 20 40  1  0  0  0  0
 21 22  1  0  0  0  0
 21 25  1  0  0  0  0
 22 23  2  0  0  0  0
 23 24  1  0  0  0  0
 23 41  1  0  0  0  0
 24 25  1  0  0  0  0
 24 42  1  0  0  0  0
M  END
>  <DRUGBANK_ID>
DB07704

>  <COMMON_NAME>
6-AMINO-4-[2-(4-METHOXYPHENYL)ETHYL]-1,7-DIHYDRO-8H-IMIDAZO[4,5-G]QUINAZOLIN-8-ONE

$$$$
