U16
 OpenBabel10282417072D

 65 65  0  0  0  0  0  0  0  0999 V2000
   -0.8765    1.3108    0.0000 O   0  0  0  0  0  0  0  0  0  0  0  0
   -0.6784    0.5100    0.0000 C   0  0  0  0  0  0  0  0  0  0  0  0
   -1.2728   -0.0621    0.0000 C   0  0  2  0  0  0  0  0  0  0  0  0
   -2.0655    0.1668    0.0000 C   0  0  1  0  0  0  0  0  0  0  0  0
   -2.6599   -0.4053    0.0000 C   0  0  0  0  0  0  0  0  0  0  0  0
   -2.4618   -1.2061    0.0000 C   0  0  0  0  0  0  0  0  0  0  0  0
   -3.0563   -1.7782    0.0000 C   0  0  0  0  0  0  0  0  0  0  0  0
   -3.8489   -1.5494    0.0000 C   0  0  0  0  0  0  0  0  0  0  0  0
   -4.4434   -2.1214    0.0000 C   0  0  0  0  0  0  0  0  0  0  0  0
   -5.2360   -1.8926    0.0000 C   0  0  0  0  0  0  0  0  0  0  0  0
   -4.2452   -2.9222    0.0000 C   0  0  0  0  0  0  0  0  0  0  0  0
   -4.0471   -0.7485    0.0000 C   0  0  0  0  0  0  0  0  0  0  0  0
   -3.4526   -0.1765    0.0000 C   0  0  0  0  0  0  0  0  0  0  0  0
   -2.2636    0.9676    0.0000 N   0  0  0  0  0  0  0  0  0  0  0  0
   -1.0747   -0.8629    0.0000 O   0  0  0  0  0  0  0  0  0  0  0  0
    0.1143    0.2812    0.0000 N   0  0  0  0  0  0  0  0  0  0  0  0
    0.7087    0.8532    0.0000 C   0  0  1  0  0  0  0  0  0  0  0  0
    0.5106    1.6540    0.0000 C   0  0  0  0  0  0  0  0  0  0  0  0
    1.5014    0.6244    0.0000 C   0  0  0  0  0  0  0  0  0  0  0  0
    1.6995   -0.1765    0.0000 O   0  0  0  0  0  0  0  0  0  0  0  0
    2.0959    1.1964    0.0000 N   0  0  0  0  0  0  0  0  0  0  0  0
    2.8885    0.9676    0.0000 C   0  0  2  0  0  0  0  0  0  0  0  0
    3.4830    1.5396    0.0000 C   0  0  0  0  0  0  0  0  0  0  0  0
    4.2756    1.3108    0.0000 C   0  0  0  0  0  0  0  0  0  0  0  0
    4.8701    1.8829    0.0000 C   0  0  0  0  0  0  0  0  0  0  0  0
    4.4738    0.5100    0.0000 C   0  0  0  0  0  0  0  0  0  0  0  0
    3.0867    0.1668    0.0000 C   0  0  0  0  0  0  0  0  0  0  0  0
    2.4922   -0.4053    0.0000 O   0  0  0  0  0  0  0  0  0  0  0  0
    3.8793   -0.0621    0.0000 O   0  0  0  0  0  0  0  0  0  0  0  0
    4.0774   -0.8629    0.0000 C   0  0  0  0  0  0  0  0  0  0  0  0
   -1.4131    0.5048    0.0000 H   0  0  0  0  0  0  0  0  0  0  0  0
   -1.9252   -0.4001    0.0000 H   0  0  0  0  0  0  0  0  0  0  0  0
    0.1477    1.0151    0.0000 H   0  0  0  0  0  0  0  0  0  0  0  0
    2.7482    1.5344    0.0000 H   0  0  0  0  0  0  0  0  0  0  0  0
   -1.4703   -1.4923    0.0000 H   0  0  0  0  0  0  0  0  0  0  0  0
   -2.8084   -2.7800    0.0000 H   0  0  0  0  0  0  0  0  0  0  0  0
   -5.2144   -2.8633    0.0000 H   0  0  0  0  0  0  0  0  0  0  0  0
   -5.4930   -0.8539    0.0000 H   0  0  0  0  0  0  0  0  0  0  0  0
   -6.0070   -2.6345    0.0000 H   0  0  0  0  0  0  0  0  0  0  0  0
   -6.2640   -1.5958    0.0000 H   0  0  0  0  0  0  0  0  0  0  0  0
   -5.0162   -3.6642    0.0000 H   0  0  0  0  0  0  0  0  0  0  0  0
   -3.2172   -3.2189    0.0000 H   0  0  0  0  0  0  0  0  0  0  0  0
   -3.9881   -3.9609    0.0000 H   0  0  0  0  0  0  0  0  0  0  0  0
   -5.0386   -0.4623    0.0000 H   0  0  0  0  0  0  0  0  0  0  0  0
   -3.7005    0.8253    0.0000 H   0  0  0  0  0  0  0  0  0  0  0  0
   -1.5286    1.6748    0.0000 H   0  0  0  0  0  0  0  0  0  0  0  0
   -3.2436    1.2506    0.0000 H   0  0  0  0  0  0  0  0  0  0  0  0
   -1.7737   -1.5354    0.0000 H   0  0  0  0  0  0  0  0  0  0  0  0
    0.3508   -0.6745    0.0000 H   0  0  0  0  0  0  0  0  0  0  0  0
    1.2817    2.3959    0.0000 H   0  0  0  0  0  0  0  0  0  0  0  0
   -0.5174    1.9508    0.0000 H   0  0  0  0  0  0  0  0  0  0  0  0
    0.2537    2.6927    0.0000 H   0  0  0  0  0  0  0  0  0  0  0  0
    1.8595    2.1521    0.0000 H   0  0  0  0  0  0  0  0  0  0  0  0
    3.2260    2.5783    0.0000 H   0  0  0  0  0  0  0  0  0  0  0  0
    4.2540    2.2815    0.0000 H   0  0  0  0  0  0  0  0  0  0  0  0
    5.3036    1.0141    0.0000 H   0  0  0  0  0  0  0  0  0  0  0  0
    5.8981    1.5862    0.0000 H   0  0  0  0  0  0  0  0  0  0  0  0
    4.6131    2.9216    0.0000 H   0  0  0  0  0  0  0  0  0  0  0  0
    5.6411    2.6248    0.0000 H   0  0  0  0  0  0  0  0  0  0  0  0
    3.7028   -0.2320    0.0000 H   0  0  0  0  0  0  0  0  0  0  0  0
    5.5018    0.2133    0.0000 H   0  0  0  0  0  0  0  0  0  0  0  0
    4.7309   -0.5287    0.0000 H   0  0  0  0  0  0  0  0  0  0  0  0
    3.3063   -1.6048    0.0000 H   0  0  0  0  0  0  0  0  0  0  0  0
    5.1054   -1.1597    0.0000 H   0  0  0  0  0  0  0  0  0  0  0  0
    4.3343   -1.9016    0.0000 H   0  0  0  0  0  0  0  0  0  0  0  0
  1  2  2  0  0  0  0
  2  3  1  0  0  0  0
  2 16  1  0  0  0  0
  3  4  1  0  0  0  0
  3 15  1  0  0  0  0
  3 31  1  6  0  0  0
  4  5  1  0  0  0  0
  4 14  1  0  0  0  0
  4 32  1  6  0  0  0
  5  6  1  0  0  0  0
  5 13  2  0  0  0  0
  6  7  2  0  0  0  0
  6 35  1  0  0  0  0
  7  8  1  0  0  0  0
  7 36  1  0  0  0  0
  8  9  1  0  0  0  0
  8 12  2  0  0  0  0
  9 10  1  0  0  0  0
  9 11  1  0  0  0  0
  9 37  1  0  0  0  0
 10 38  1  0  0  0  0
 10 39  1  0  0  0  0
 10 40  1  0  0  0  0
 11 41  1  0  0  0  0
 11 42  1  0  0  0  0
 11 43  1  0  0  0  0
 12 13  1  0  0  0  0
 12 44  1  0  0  0  0
 13 45  1  0  0  0  0
 14 46  1  0  0  0  0
 14 47  1  0  0  0  0
 15 48  1  0  0  0  0
 16 17  1  0  0  0  0
 16 49  1  0  0  0  0
 17 18  1  0  0  0  0
 17 19  1  0  0  0  0
 17 33  1  6  0  0  0
 18 50  1  0  0  0  0
 18 51  1  0  0  0  0
 18 52  1  0  0  0  0
 19 20  2  0  0  0  0
 19 21  1  0  0  0  0
 21 53  1  0  0  0  0
 22 21  1  0  0  0  0
 22 23  1  0  0  0  0
 22 27  1  0  0  0  0
 22 34  1  1  0  0  0
 23 24  1  0  0  0  0
 23 54  1  0  0  0  0
 23 55  1  0  0  0  0
 24 25  1  0  0  0  0
 24 26  1  0  0  0  0
 24 56  1  0  0  0  0
 25 57  1  0  0  0  0
 25 58  1  0  0  0  0
 25 59  1  0  0  0  0
 26 60  1  0  0  0  0
 26 61  1  0  0  0  0
 26 62  1  0  0  0  0
 27 28  2  0  0  0  0
 27 29  1  0  0  0  0
 29 30  1  0  0  0  0
 30 63  1  0  0  0  0
 30 64  1  0  0  0  0
 30 65  1  0  0  0  0
M  END
>  <DRUGBANK_ID>
DB08670

>  <COMMON_NAME>
METHYL N-[(2S,3R)-3-AMINO-2-HYDROXY-3-(4-ISOPROPYLPHENYL)PROPANOYL]-D-ALANYL-D-LEUCINATE

$$$$
