
 OpenBabel10282417072D

  8  7  0  0  0  0  0  0  0  0999 V2000
    0.0000   -0.2062    0.0000 C   0  0  0  0  0  0  0  0  0  0  0  0
    0.7145   -0.6187    0.0000 N   0  0  0  0  0  0  0  0  0  0  0  0
    0.0000    0.6187    0.0000 O   0  0  0  0  0  0  0  0  0  0  0  0
   -0.7145   -0.6187    0.0000 N   0  0  0  0  0  0  0  0  0  0  0  0
    0.7145   -1.6032    0.0000 H   0  0  0  0  0  0  0  0  0  0  0  0
    1.5671   -0.1264    0.0000 H   0  0  0  0  0  0  0  0  0  0  0  0
   -1.5671   -0.1264    0.0000 H   0  0  0  0  0  0  0  0  0  0  0  0
   -0.7145   -1.6032    0.0000 H   0  0  0  0  0  0  0  0  0  0  0  0
  2  1  1  0  0  0  0
  2  5  1  0  0  0  0
  2  6  1  0  0  0  0
  3  1  2  0  0  0  0
  4  1  1  0  0  0  0
  4  7  1  0  0  0  0
  4  8  1  0  0  0  0
M  ISO  1   1  13
M  END
>  <DRUGBANK_ID>
DB09510

>  <COMMON_NAME>
Urea C-13

>  <CAS_NUMBER>
58069-82-2

>  <UNII>
W6KX9E6D8X

>  <SYNONYMS>
(13C)urea; 13C-urea; Carbon 13 urea; Carbon-13 urea; Urea (13C); Urea 13 C; Urea C 13; Urea-13C; Urea, C-13

$$$$
