555
 OpenBabel10282417072D

 33 35  0  0  0  0  0  0  0  0999 V2000
   -0.9825   -1.3312    0.0000 C   0  0  0  0  0  0  0  0  0  0  0  0
   -0.9825   -2.1562    0.0000 C   0  0  0  0  0  0  0  0  0  0  0  0
   -0.2681   -2.5687    0.0000 C   0  0  0  0  0  0  0  0  0  0  0  0
    0.4464   -2.1562    0.0000 C   0  0  0  0  0  0  0  0  0  0  0  0
    0.4464   -1.3312    0.0000 C   0  0  0  0  0  0  0  0  0  0  0  0
   -0.2681   -0.9187    0.0000 C   0  0  0  0  0  0  0  0  0  0  0  0
    1.1609   -0.9187    0.0000 C   0  0  0  0  0  0  0  0  0  0  0  0
    1.8753   -1.3312    0.0000 C   0  0  0  0  0  0  0  0  0  0  0  0
    1.8753   -2.1562    0.0000 C   0  0  0  0  0  0  0  0  0  0  0  0
    1.1609   -2.5687    0.0000 C   0  0  0  0  0  0  0  0  0  0  0  0
    1.1609   -3.3937    0.0000 C   0  0  0  0  0  0  0  0  0  0  0  0
    0.4464   -3.8062    0.0000 C   0  0  0  0  0  0  0  0  0  0  0  0
    0.4464   -4.6312    0.0000 C   0  0  0  0  0  0  0  0  0  0  0  0
    1.1609   -5.0437    0.0000 C   0  0  0  0  0  0  0  0  0  0  0  0
    1.8753   -4.6312    0.0000 C   0  0  0  0  0  0  0  0  0  0  0  0
    1.8753   -3.8062    0.0000 C   0  0  0  0  0  0  0  0  0  0  0  0
    1.1609   -5.8687    0.0000 O   0  0  0  0  0  0  0  0  0  0  0  0
    1.1609   -0.0937    0.0000 C   0  0  0  0  0  0  0  0  0  0  0  0
    1.8753    0.3188    0.0000 N   0  0  0  0  0  0  0  0  0  0  0  0
    1.8753    1.1438    0.0000 O   0  0  0  0  0  0  0  0  0  0  0  0
   -1.8762   -0.8152    0.0000 H   0  0  0  0  0  0  0  0  0  0  0  0
   -1.8762   -2.6722    0.0000 H   0  0  0  0  0  0  0  0  0  0  0  0
   -0.2681   -3.6007    0.0000 H   0  0  0  0  0  0  0  0  0  0  0  0
   -0.2681    0.1133    0.0000 H   0  0  0  0  0  0  0  0  0  0  0  0
    2.7690   -0.8152    0.0000 H   0  0  0  0  0  0  0  0  0  0  0  0
    2.7690   -2.6722    0.0000 H   0  0  0  0  0  0  0  0  0  0  0  0
   -0.4473   -3.2902    0.0000 H   0  0  0  0  0  0  0  0  0  0  0  0
   -0.4473   -5.1472    0.0000 H   0  0  0  0  0  0  0  0  0  0  0  0
    2.7690   -5.1472    0.0000 H   0  0  0  0  0  0  0  0  0  0  0  0
    2.7690   -3.2902    0.0000 H   0  0  0  0  0  0  0  0  0  0  0  0
    0.3494   -6.3372    0.0000 H   0  0  0  0  0  0  0  0  0  0  0  0
    0.2672    0.4223    0.0000 H   0  0  0  0  0  0  0  0  0  0  0  0
    2.6868    1.6123    0.0000 H   0  0  0  0  0  0  0  0  0  0  0  0
  1  6  2  0  0  0  0
  1  2  1  0  0  0  0
  1 21  1  0  0  0  0
  2  3  2  0  0  0  0
  2 22  1  0  0  0  0
  3  4  1  0  0  0  0
  3 23  1  0  0  0  0
  4  5  1  0  0  0  0
  4 10  2  0  0  0  0
  5  6  1  0  0  0  0
  5  7  2  0  0  0  0
  6 24  1  0  0  0  0
  7 18  1  0  0  0  0
  7  8  1  0  0  0  0
  8  9  2  0  0  0  0
  8 25  1  0  0  0  0
  9 10  1  0  0  0  0
  9 26  1  0  0  0  0
 10 11  1  0  0  0  0
 11 16  2  0  0  0  0
 11 12  1  0  0  0  0
 12 13  2  0  0  0  0
 12 27  1  0  0  0  0
 13 14  1  0  0  0  0
 13 28  1  0  0  0  0
 14 15  2  0  0  0  0
 14 17  1  0  0  0  0
 15 16  1  0  0  0  0
 15 29  1  0  0  0  0
 16 30  1  0  0  0  0
 17 31  1  0  0  0  0
 18 19  2  0  0  0  0
 18 32  1  0  0  0  0
 19 20  1  0  0  0  0
 20 33  1  0  0  0  0
M  END
>  <DRUGBANK_ID>
DB07150

>  <COMMON_NAME>
4-(4-HYDROXYPHENYL)-1-NAPHTHALDEHYDE OXIME

>  <UNII>
KA345Z0JXL

$$$$
