
 OpenBabel10282417072D

 75 81  0  0  1  0  0  0  0  0999 V2000
    1.5251   -2.3084    0.0000 N   0  0  0  0  0  0  0  0  0  0  0  0
    0.8106   -2.7209    0.0000 C   0  0  0  0  0  0  0  0  0  0  0  0
    0.8106   -3.5459    0.0000 N   0  0  0  0  0  0  0  0  0  0  0  0
    0.0962   -3.9584    0.0000 C   0  0  0  0  0  0  0  0  0  0  0  0
   -0.6183   -3.5459    0.0000 C   0  0  0  0  0  0  0  0  0  0  0  0
   -0.6183   -2.7209    0.0000 C   0  0  0  0  0  0  0  0  0  0  0  0
    0.0962   -2.3084    0.0000 C   0  0  0  0  0  0  0  0  0  0  0  0
    0.0962   -1.4834    0.0000 C   0  0  0  0  0  0  0  0  0  0  0  0
   -0.6183   -1.0709    0.0000 O   0  0  0  0  0  0  0  0  0  0  0  0
    0.8106   -1.0709    0.0000 N   0  0  0  0  0  0  0  0  0  0  0  0
    0.8106   -0.2459    0.0000 C   0  0  3  0  0  0  0  0  0  0  0  0
    0.0962    0.1666    0.0000 C   0  0  0  0  0  0  0  0  0  0  0  0
    0.0962    0.9916    0.0000 C   0  0  0  0  0  0  0  0  0  0  0  0
    0.8106    1.4041    0.0000 C   0  0  3  0  0  0  0  0  0  0  0  0
    0.8106    2.2291    0.0000 O   0  0  0  0  0  0  0  0  0  0  0  0
    1.5251    0.9916    0.0000 C   0  0  0  0  0  0  0  0  0  0  0  0
    1.5251    0.1666    0.0000 C   0  0  0  0  0  0  0  0  0  0  0  0
    0.9481    0.8541    0.0000 C   0  0  0  0  0  0  0  0  0  0  0  0
    0.9481    0.3041    0.0000 C   0  0  0  0  0  0  0  0  0  0  0  0
   -1.3328   -3.9584    0.0000 C   0  0  0  0  0  0  0  0  0  0  0  0
   -1.3328   -4.7834    0.0000 C   0  0  0  0  0  0  0  0  0  0  0  0
   -2.0473   -5.1959    0.0000 C   0  0  0  0  0  0  0  0  0  0  0  0
   -2.7617   -4.7834    0.0000 C   0  0  0  0  0  0  0  0  0  0  0  0
   -2.7617   -3.9584    0.0000 C   0  0  0  0  0  0  0  0  0  0  0  0
   -2.0473   -3.5459    0.0000 C   0  0  0  0  0  0  0  0  0  0  0  0
   -3.4762   -5.1959    0.0000 C   0  0  1  0  0  0  0  0  0  0  0  0
   -3.1406   -5.9496    0.0000 C   0  0  0  0  0  0  0  0  0  0  0  0
   -3.9611   -5.8634    0.0000 C   0  0  2  0  0  0  0  0  0  0  0  0
   -4.7457   -5.6084    0.0000 C   0  0  0  0  0  0  0  0  0  0  0  0
   -4.7457   -4.7834    0.0000 N   0  0  3  0  0  0  0  0  0  0  0  0
   -3.9611   -4.5285    0.0000 C   0  0  0  0  0  0  0  0  0  0  0  0
   -5.4132   -4.2985    0.0000 C   0  0  0  0  0  0  0  0  0  0  0  0
   -6.1669   -4.6341    0.0000 C   0  0  0  0  0  0  0  0  0  0  0  0
   -6.8343   -4.1492    0.0000 C   0  0  0  0  0  0  0  0  0  0  0  0
   -6.7481   -3.3287    0.0000 O   0  0  0  0  0  0  0  0  0  0  0  0
   -5.9944   -2.9931    0.0000 C   0  0  0  0  0  0  0  0  0  0  0  0
   -5.3269   -3.4780    0.0000 C   0  0  0  0  0  0  0  0  0  0  0  0
    2.3777   -2.8007    0.0000 H   0  0  0  0  0  0  0  0  0  0  0  0
    1.5251   -1.3239    0.0000 H   0  0  0  0  0  0  0  0  0  0  0  0
    0.0962   -4.9904    0.0000 H   0  0  0  0  0  0  0  0  0  0  0  0
   -1.5120   -2.2049    0.0000 H   0  0  0  0  0  0  0  0  0  0  0  0
    1.6632   -1.5631    0.0000 H   0  0  0  0  0  0  0  0  0  0  0  0
   -0.8305   -0.3684    0.0000 H   0  0  0  0  0  0  0  0  0  0  0  0
   -0.8304    0.7016    0.0000 H   0  0  0  0  0  0  0  0  0  0  0  0
   -0.8305    1.5266    0.0000 H   0  0  0  0  0  0  0  0  0  0  0  0
    0.0962    2.0616    0.0000 H   0  0  0  0  0  0  0  0  0  0  0  0
    1.6506    2.7141    0.0000 H   0  0  0  0  0  0  0  0  0  0  0  0
    2.4517    1.5266    0.0000 H   0  0  0  0  0  0  0  0  0  0  0  0
    2.4517    0.4566    0.0000 H   0  0  0  0  0  0  0  0  0  0  0  0
    2.4517   -0.3684    0.0000 H   0  0  0  0  0  0  0  0  0  0  0  0
    1.5251   -0.9034    0.0000 H   0  0  0  0  0  0  0  0  0  0  0  0
    2.0101    0.9848    0.0000 H   0  0  0  0  0  0  0  0  0  0  0  0
    1.7496    0.1452    0.0000 H   0  0  0  0  0  0  0  0  0  0  0  0
    2.0101    0.1734    0.0000 H   0  0  0  0  0  0  0  0  0  0  0  0
    1.5537   -0.5780    0.0000 H   0  0  0  0  0  0  0  0  0  0  0  0
   -0.4391   -5.2994    0.0000 H   0  0  0  0  0  0  0  0  0  0  0  0
   -2.0473   -6.2279    0.0000 H   0  0  0  0  0  0  0  0  0  0  0  0
   -3.6554   -3.4424    0.0000 H   0  0  0  0  0  0  0  0  0  0  0  0
   -2.0473   -2.5139    0.0000 H   0  0  0  0  0  0  0  0  0  0  0  0
   -2.2749   -6.5785    0.0000 H   0  0  0  0  0  0  0  0  0  0  0  0
   -3.5240   -6.9485    0.0000 H   0  0  0  0  0  0  0  0  0  0  0  0
   -2.9836   -5.4281    0.0000 H   0  0  0  0  0  0  0  0  0  0  0  0
   -5.6114   -6.2373    0.0000 H   0  0  0  0  0  0  0  0  0  0  0  0
   -5.6991   -5.1226    0.0000 H   0  0  0  0  0  0  0  0  0  0  0  0
   -3.6304   -3.5109    0.0000 H   0  0  0  0  0  0  0  0  0  0  0  0
   -2.9043   -4.3611    0.0000 H   0  0  0  0  0  0  0  0  0  0  0  0
   -6.2788   -3.6696    0.0000 H   0  0  0  0  0  0  0  0  0  0  0  0
   -6.2787   -5.6982    0.0000 H   0  0  0  0  0  0  0  0  0  0  0  0
   -7.1444   -5.0693    0.0000 H   0  0  0  0  0  0  0  0  0  0  0  0
   -7.8118   -4.5844    0.0000 H   0  0  0  0  0  0  0  0  0  0  0  0
   -7.7000   -3.5203    0.0000 H   0  0  0  0  0  0  0  0  0  0  0  0
   -5.8826   -1.9290    0.0000 H   0  0  0  0  0  0  0  0  0  0  0  0
   -5.0169   -2.5578    0.0000 H   0  0  0  0  0  0  0  0  0  0  0  0
   -4.3494   -3.0428    0.0000 H   0  0  0  0  0  0  0  0  0  0  0  0
   -4.4613   -4.1070    0.0000 H   0  0  0  0  0  0  0  0  0  0  0  0
  1  2  1  0  0  0  0
  1 38  1  0  0  0  0
  1 39  1  0  0  0  0
  2  3  2  0  0  0  0
  2  7  1  0  0  0  0
  3  4  1  0  0  0  0
  4  5  2  0  0  0  0
  4 40  1  0  0  0  0
  5  6  1  0  0  0  0
  5 20  1  0  0  0  0
  6  7  2  0  0  0  0
  6 41  1  0  0  0  0
  7  8  1  0  0  0  0
  8  9  2  0  0  0  0
  8 10  1  0  0  0  0
 10 11  1  0  0  0  0
 10 42  1  0  0  0  0
 11 12  1  0  0  0  0
 11 17  1  0  0  0  0
 11 19  1  0  0  0  0
 12 13  1  0  0  0  0
 12 43  1  0  0  0  0
 12 44  1  0  0  0  0
 13 14  1  0  0  0  0
 13 45  1  0  0  0  0
 13 46  1  0  0  0  0
 14 15  1  0  0  0  0
 14 16  1  0  0  0  0
 14 18  1  0  0  0  0
 15 47  1  0  0  0  0
 16 17  1  0  0  0  0
 16 48  1  0  0  0  0
 16 49  1  0  0  0  0
 17 50  1  0  0  0  0
 17 51  1  0  0  0  0
 18 19  1  0  0  0  0
 18 52  1  0  0  0  0
 18 53  1  0  0  0  0
 19 54  1  0  0  0  0
 19 55  1  0  0  0  0
 20 21  2  0  0  0  0
 20 25  1  0  0  0  0
 21 22  1  0  0  0  0
 21 56  1  0  0  0  0
 22 23  2  0  0  0  0
 22 57  1  0  0  0  0
 23 24  1  0  0  0  0
 24 25  2  0  0  0  0
 24 58  1  0  0  0  0
 25 59  1  0  0  0  0
 26 23  1  1  0  0  0
 26 27  1  0  0  0  0
 26 28  1  0  0  0  0
 26 31  1  0  0  0  0
 27 60  1  0  0  0  0
 27 61  1  0  0  0  0
 28 27  1  0  0  0  0
 28 29  1  0  0  0  0
 28 62  1  1  0  0  0
 29 30  1  0  0  0  0
 29 63  1  0  0  0  0
 29 64  1  0  0  0  0
 30 31  1  0  0  0  0
 30 32  1  0  0  0  0
 31 65  1  0  0  0  0
 31 66  1  0  0  0  0
 32 33  1  0  0  0  0
 32 37  1  0  0  0  0
 32 67  1  0  0  0  0
 33 34  1  0  0  0  0
 33 68  1  0  0  0  0
 33 69  1  0  0  0  0
 34 35  1  0  0  0  0
 34 70  1  0  0  0  0
 34 71  1  0  0  0  0
 35 36  1  0  0  0  0
 36 37  1  0  0  0  0
 36 72  1  0  0  0  0
 36 73  1  0  0  0  0
 37 74  1  0  0  0  0
 37 75  1  0  0  0  0
M  END
>  <DRUGBANK_ID>
DB18152

>  <COMMON_NAME>
Zilurgisertib

>  <CAS_NUMBER>
2173389-57-4

>  <UNII>
L5Z9S25HO2

$$$$
