
 OpenBabel10282417072D

 34 36  0  0  0  0  0  0  0  0999 V2000
    0.7145   -1.6500    0.0000 C   0  0  0  0  0  0  0  0  0  0  0  0
    1.4290   -2.0625    0.0000 C   0  0  0  0  0  0  0  0  0  0  0  0
   -0.7143   -0.8250    0.0000 C   0  0  0  0  0  0  0  0  0  0  0  0
   -0.7143   -1.6500    0.0000 C   0  0  0  0  0  0  0  0  0  0  0  0
    0.0000   -2.0625    0.0000 C   0  0  0  0  0  0  0  0  0  0  0  0
    0.0000   -0.4125    0.0000 C   0  0  0  0  0  0  0  0  0  0  0  0
    0.7145   -0.8250    0.0000 C   0  0  0  0  0  0  0  0  0  0  0  0
    2.1434   -1.6500    0.0000 C   0  0  0  0  0  0  0  0  0  0  0  0
    2.1434   -0.8250    0.0000 C   0  0  0  0  0  0  0  0  0  0  0  0
    1.4290   -0.4125    0.0000 C   0  0  0  0  0  0  0  0  0  0  0  0
    0.0000    0.4126    0.0000 N   0  0  0  0  0  0  0  0  0  0  0  0
   -0.7145    0.8250    0.0000 C   0  0  0  0  0  0  0  0  0  0  0  0
   -1.4291    2.0625    0.0000 C   0  0  0  0  0  0  0  0  0  0  0  0
   -2.1434    1.6500    0.0000 C   0  0  0  0  0  0  0  0  0  0  0  0
   -2.1434    0.8250    0.0000 C   0  0  0  0  0  0  0  0  0  0  0  0
   -1.4290    0.4125    0.0000 C   0  0  0  0  0  0  0  0  0  0  0  0
   -0.7145    1.6500    0.0000 C   0  0  0  0  0  0  0  0  0  0  0  0
    1.4288    1.2375    0.0000 O   0  0  0  0  0  0  0  0  0  0  0  0
    0.7143    0.8251    0.0000 O   0  0  0  0  0  0  0  0  0  0  0  0
    1.4288    0.4126    0.0000 S   0  0  0  0  0  0  0  0  0  0  0  0
    2.1433    0.8251    0.0000 O   0  0  0  0  0  0  0  0  0  0  0  0
    1.4290   -3.0945    0.0000 H   0  0  0  0  0  0  0  0  0  0  0  0
   -1.6081   -0.3090    0.0000 H   0  0  0  0  0  0  0  0  0  0  0  0
   -1.6081   -2.1660    0.0000 H   0  0  0  0  0  0  0  0  0  0  0  0
   -0.0001   -3.0945    0.0000 H   0  0  0  0  0  0  0  0  0  0  0  0
    3.0371   -2.1660    0.0000 H   0  0  0  0  0  0  0  0  0  0  0  0
    3.0371   -0.3090    0.0000 H   0  0  0  0  0  0  0  0  0  0  0  0
    0.8526    0.9049    0.0000 H   0  0  0  0  0  0  0  0  0  0  0  0
   -1.4292    3.0945    0.0000 H   0  0  0  0  0  0  0  0  0  0  0  0
   -3.0372    2.1660    0.0000 H   0  0  0  0  0  0  0  0  0  0  0  0
   -3.0371    0.3090    0.0000 H   0  0  0  0  0  0  0  0  0  0  0  0
   -1.4290   -0.6195    0.0000 H   0  0  0  0  0  0  0  0  0  0  0  0
    0.1792    2.1660    0.0000 H   0  0  0  0  0  0  0  0  0  0  0  0
    2.2688    1.7225    0.0000 H   0  0  0  0  0  0  0  0  0  0  0  0
  1  2  1  0  0  0  0
  2  8  2  0  0  0  0
  2 22  1  0  0  0  0
  3  4  2  0  0  0  0
  3 23  1  0  0  0  0
  4  5  1  0  0  0  0
  4 24  1  0  0  0  0
  5  1  2  0  0  0  0
  5 25  1  0  0  0  0
  6  3  1  0  0  0  0
  6 11  1  0  0  0  0
  7  1  1  0  0  0  0
  7  6  2  0  0  0  0
  8  9  1  0  0  0  0
  8 26  1  0  0  0  0
  9 10  2  0  0  0  0
  9 27  1  0  0  0  0
 10  7  1  0  0  0  0
 10 20  1  0  0  0  0
 11 12  1  0  0  0  0
 11 28  1  0  0  0  0
 12 17  1  0  0  0  0
 13 14  1  0  0  0  0
 13 17  2  0  0  0  0
 13 29  1  0  0  0  0
 14 15  2  0  0  0  0
 14 30  1  0  0  0  0
 15 16  1  0  0  0  0
 15 31  1  0  0  0  0
 16 12  2  0  0  0  0
 16 32  1  0  0  0  0
 17 33  1  0  0  0  0
 18 34  1  0  0  0  0
 20 18  1  0  0  0  0
 20 19  2  0  0  0  0
 20 21  2  0  0  0  0
M  END
>  <DRUGBANK_ID>
DB04474

>  <SECONDARY_ACCESSION_NUMBERS>
EXPT00103

>  <COMMON_NAME>
8-anilinonaphthalene-1-sulfonic acid

>  <CAS_NUMBER>
82-76-8

>  <UNII>
630I4V6051

>  <SYNONYMS>
1-(phenylamino)-8-naphthalenesulfonic acid; 1-Anilino-8-naphthalenesulfonate; 1-anilino-8-naphthalenesulfonic acid; 8-Anilino-1-naphthalene sulfonic acid; 8-anilinonaphthalene-1-sulphonic acid

$$$$
