37U
 OpenBabel10282417072D

 51 53  0  0  0  0  0  0  0  0999 V2000
    0.0980    2.0660    0.0000 C   0  0  0  0  0  0  0  0  0  0  0  0
   -0.6164    2.4785    0.0000 C   0  0  0  0  0  0  0  0  0  0  0  0
   -1.3309    2.0660    0.0000 C   0  0  0  0  0  0  0  0  0  0  0  0
   -1.3309    1.2410    0.0000 N   0  0  0  0  0  0  0  0  0  0  0  0
   -2.0454    0.8285    0.0000 C   0  0  0  0  0  0  0  0  0  0  0  0
   -2.7599    1.2410    0.0000 O   0  0  0  0  0  0  0  0  0  0  0  0
   -2.0454    0.0035    0.0000 C   0  0  1  0  0  0  0  0  0  0  0  0
   -1.3779   -0.4814    0.0000 N   0  0  0  0  0  0  0  0  0  0  0  0
   -0.5933   -0.2265    0.0000 C   0  0  0  0  0  0  0  0  0  0  0  0
   -0.4218    0.5805    0.0000 O   0  0  0  0  0  0  0  0  0  0  0  0
    0.0198   -0.7785    0.0000 C   0  0  2  0  0  0  0  0  0  0  0  0
   -0.1518   -1.5855    0.0000 N   0  0  0  0  0  0  0  0  0  0  0  0
    0.8044   -0.5235    0.0000 C   0  0  0  0  0  0  0  0  0  0  0  0
    1.4175   -1.0756    0.0000 C   0  0  0  0  0  0  0  0  0  0  0  0
    2.2021   -0.8206    0.0000 C   0  0  0  0  0  0  0  0  0  0  0  0
    2.8152   -1.3727    0.0000 C   0  0  0  0  0  0  0  0  0  0  0  0
    2.6437   -2.1796    0.0000 C   0  0  0  0  0  0  0  0  0  0  0  0
    1.8590   -2.4346    0.0000 C   0  0  0  0  0  0  0  0  0  0  0  0
    1.2460   -1.8826    0.0000 C   0  0  0  0  0  0  0  0  0  0  0  0
   -1.6329   -1.2660    0.0000 C   0  0  0  0  0  0  0  0  0  0  0  0
   -2.4579   -1.2660    0.0000 C   0  0  0  0  0  0  0  0  0  0  0  0
   -2.7128   -0.4814    0.0000 C   0  0  0  0  0  0  0  0  0  0  0  0
   -0.6164    3.3035    0.0000 C   0  0  0  0  0  0  0  0  0  0  0  0
    0.0980    3.7160    0.0000 C   0  0  0  0  0  0  0  0  0  0  0  0
    0.0980    4.5410    0.0000 F   0  0  0  0  0  0  0  0  0  0  0  0
    0.8125    3.3035    0.0000 C   0  0  0  0  0  0  0  0  0  0  0  0
    0.8125    2.4785    0.0000 C   0  0  0  0  0  0  0  0  0  0  0  0
   -1.5251    0.2686    0.0000 H   0  0  0  0  0  0  0  0  0  0  0  0
   -0.5356   -0.9589    0.0000 H   0  0  0  0  0  0  0  0  0  0  0  0
    0.0980    1.0340    0.0000 H   0  0  0  0  0  0  0  0  0  0  0  0
   -2.2575    2.6010    0.0000 H   0  0  0  0  0  0  0  0  0  0  0  0
   -2.2575    1.5310    0.0000 H   0  0  0  0  0  0  0  0  0  0  0  0
   -0.4783    0.7487    0.0000 H   0  0  0  0  0  0  0  0  0  0  0  0
   -1.1219   -1.9006    0.0000 H   0  0  0  0  0  0  0  0  0  0  0  0
    0.6062   -2.2681    0.0000 H   0  0  0  0  0  0  0  0  0  0  0  0
    1.0269    0.5231    0.0000 H   0  0  0  0  0  0  0  0  0  0  0  0
    1.8220   -0.1929    0.0000 H   0  0  0  0  0  0  0  0  0  0  0  0
    2.4167    0.1889    0.0000 H   0  0  0  0  0  0  0  0  0  0  0  0
    3.7967   -1.0538    0.0000 H   0  0  0  0  0  0  0  0  0  0  0  0
    3.4106   -2.8701    0.0000 H   0  0  0  0  0  0  0  0  0  0  0  0
    1.6444   -3.4440    0.0000 H   0  0  0  0  0  0  0  0  0  0  0  0
    0.2645   -2.2015    0.0000 H   0  0  0  0  0  0  0  0  0  0  0  0
   -1.0040   -2.1317    0.0000 H   0  0  0  0  0  0  0  0  0  0  0  0
   -2.1187   -2.2194    0.0000 H   0  0  0  0  0  0  0  0  0  0  0  0
   -3.0868   -2.1316    0.0000 H   0  0  0  0  0  0  0  0  0  0  0  0
   -3.5147   -1.0986    0.0000 H   0  0  0  0  0  0  0  0  0  0  0  0
   -3.7304   -0.1507    0.0000 H   0  0  0  0  0  0  0  0  0  0  0  0
   -3.4694   -1.2380    0.0000 H   0  0  0  0  0  0  0  0  0  0  0  0
   -1.5101    3.8195    0.0000 H   0  0  0  0  0  0  0  0  0  0  0  0
    1.7062    3.8195    0.0000 H   0  0  0  0  0  0  0  0  0  0  0  0
    1.7062    1.9625    0.0000 H   0  0  0  0  0  0  0  0  0  0  0  0
  1  2  2  0  0  0  0
  1 27  1  0  0  0  0
  1 30  1  0  0  0  0
  2  3  1  0  0  0  0
  2 23  1  0  0  0  0
  3  4  1  0  0  0  0
  3 31  1  0  0  0  0
  3 32  1  0  0  0  0
  4  5  1  0  0  0  0
  4 33  1  0  0  0  0
  5  6  2  0  0  0  0
  7  5  1  0  0  0  0
  7  8  1  0  0  0  0
  7 22  1  0  0  0  0
  7 28  1  6  0  0  0
  8  9  1  0  0  0  0
  8 20  1  0  0  0  0
  9 10  2  0  0  0  0
  9 11  1  0  0  0  0
 11 12  1  0  0  0  0
 11 13  1  0  0  0  0
 11 29  1  6  0  0  0
 12 34  1  0  0  0  0
 12 35  1  0  0  0  0
 13 14  1  0  0  0  0
 13 36  1  0  0  0  0
 13 37  1  0  0  0  0
 14 15  2  0  0  0  0
 14 19  1  0  0  0  0
 15 16  1  0  0  0  0
 15 38  1  0  0  0  0
 16 17  2  0  0  0  0
 16 39  1  0  0  0  0
 17 18  1  0  0  0  0
 17 40  1  0  0  0  0
 18 19  2  0  0  0  0
 18 41  1  0  0  0  0
 19 42  1  0  0  0  0
 20 21  1  0  0  0  0
 20 43  1  0  0  0  0
 20 44  1  0  0  0  0
 21 22  1  0  0  0  0
 21 45  1  0  0  0  0
 21 46  1  0  0  0  0
 22 47  1  0  0  0  0
 22 48  1  0  0  0  0
 23 24  2  0  0  0  0
 23 49  1  0  0  0  0
 24 25  1  0  0  0  0
 24 26  1  0  0  0  0
 26 27  2  0  0  0  0
 26 50  1  0  0  0  0
 27 51  1  0  0  0  0
M  END
>  <DRUGBANK_ID>
DB07027

>  <COMMON_NAME>
D-phenylalanyl-N-(3-fluorobenzyl)-L-prolinamide

$$$$
