
 OpenBabel10282417072D

 50 52  0  0  0  0  0  0  0  0999 V2000
   -1.3885    4.1950    0.0000 C   0  0  0  0  0  0  0  0  0  0  0  0
    3.5614    5.6240    0.0000 C   0  0  0  0  0  0  0  0  0  0  0  0
   -4.2760    4.9095    0.0000 C   0  0  0  0  0  0  0  0  0  0  0  0
    3.1489    6.3385    0.0000 C   0  0  0  0  0  0  0  0  0  0  0  0
    3.1489    4.9096    0.0000 C   0  0  0  0  0  0  0  0  0  0  0  0
    0.6739    7.7674    0.0000 C   0  0  0  0  0  0  0  0  0  0  0  0
   -0.1510    7.7674    0.0000 C   0  0  0  0  0  0  0  0  0  0  0  0
   -3.8635    4.1950    0.0000 C   0  0  0  0  0  0  0  0  0  0  0  0
   -3.8635    5.6239    0.0000 C   0  0  0  0  0  0  0  0  0  0  0  0
    2.3240    6.3385    0.0000 C   0  0  0  0  0  0  0  0  0  0  0  0
    2.3240    4.9096    0.0000 C   0  0  0  0  0  0  0  0  0  0  0  0
    1.0864    7.0530    0.0000 C   0  0  0  0  0  0  0  0  0  0  0  0
   -0.5635    7.0530    0.0000 C   0  0  0  0  0  0  0  0  0  0  0  0
   -3.0384    4.1950    0.0000 C   0  0  0  0  0  0  0  0  0  0  0  0
   -3.0384    5.6239    0.0000 C   0  0  0  0  0  0  0  0  0  0  0  0
    1.0865    5.6240    0.0000 C   0  0  0  0  0  0  0  0  0  0  0  0
   -1.3885    5.6240    0.0000 C   0  0  0  0  0  0  0  0  0  0  0  0
   -1.8010    4.9095    0.0000 C   0  0  3  0  0  0  0  0  0  0  0  0
    1.9114    5.6240    0.0000 C   0  0  0  0  0  0  0  0  0  0  0  0
    0.6739    6.3384    0.0000 C   0  0  0  0  0  0  0  0  0  0  0  0
   -0.1510    6.3384    0.0000 C   0  0  0  0  0  0  0  0  0  0  0  0
   -2.6260    4.9095    0.0000 N   0  0  0  0  0  0  0  0  0  0  0  0
   -0.5635    5.6240    0.0000 O   0  0  0  0  0  0  0  0  0  0  0  0
   -1.9235    3.2684    0.0000 H   0  0  0  0  0  0  0  0  0  0  0  0
   -0.3185    4.1950    0.0000 H   0  0  0  0  0  0  0  0  0  0  0  0
   -0.8535    3.2683    0.0000 H   0  0  0  0  0  0  0  0  0  0  0  0
    4.5934    5.6240    0.0000 H   0  0  0  0  0  0  0  0  0  0  0  0
   -5.3460    4.9095    0.0000 H   0  0  0  0  0  0  0  0  0  0  0  0
   -4.8110    5.8362    0.0000 H   0  0  0  0  0  0  0  0  0  0  0  0
    3.6649    7.2322    0.0000 H   0  0  0  0  0  0  0  0  0  0  0  0
    3.6649    4.0159    0.0000 H   0  0  0  0  0  0  0  0  0  0  0  0
    1.1899    8.6611    0.0000 H   0  0  0  0  0  0  0  0  0  0  0  0
   -0.6670    8.6611    0.0000 H   0  0  0  0  0  0  0  0  0  0  0  0
   -4.3985    3.2684    0.0000 H   0  0  0  0  0  0  0  0  0  0  0  0
   -3.3285    3.2684    0.0000 H   0  0  0  0  0  0  0  0  0  0  0  0
   -4.3985    6.5506    0.0000 H   0  0  0  0  0  0  0  0  0  0  0  0
   -3.3285    6.5505    0.0000 H   0  0  0  0  0  0  0  0  0  0  0  0
    1.8080    7.2323    0.0000 H   0  0  0  0  0  0  0  0  0  0  0  0
    1.8081    4.0158    0.0000 H   0  0  0  0  0  0  0  0  0  0  0  0
    2.1184    7.0531    0.0000 H   0  0  0  0  0  0  0  0  0  0  0  0
   -1.5955    7.0531    0.0000 H   0  0  0  0  0  0  0  0  0  0  0  0
   -2.5033    3.2684    0.0000 H   0  0  0  0  0  0  0  0  0  0  0  0
   -1.9684    4.1951    0.0000 H   0  0  0  0  0  0  0  0  0  0  0  0
   -2.5034    6.5505    0.0000 H   0  0  0  0  0  0  0  0  0  0  0  0
   -1.9684    5.6239    0.0000 H   0  0  0  0  0  0  0  0  0  0  0  0
    0.5516    4.6973    0.0000 H   0  0  0  0  0  0  0  0  0  0  0  0
    0.0165    5.6239    0.0000 H   0  0  0  0  0  0  0  0  0  0  0  0
   -1.9235    6.5506    0.0000 H   0  0  0  0  0  0  0  0  0  0  0  0
   -0.8535    6.5506    0.0000 H   0  0  0  0  0  0  0  0  0  0  0  0
   -0.7310    4.9095    0.0000 H   0  0  0  0  0  0  0  0  0  0  0  0
  1 24  1  0  0  0  0
  1 25  1  0  0  0  0
  1 26  1  0  0  0  0
  2 27  1  0  0  0  0
  3 28  1  0  0  0  0
  3 29  1  0  0  0  0
  4  2  2  0  0  0  0
  4 30  1  0  0  0  0
  5  2  1  0  0  0  0
  5 31  1  0  0  0  0
  6 32  1  0  0  0  0
  7  6  2  0  0  0  0
  7 33  1  0  0  0  0
  8  3  1  0  0  0  0
  8 34  1  0  0  0  0
  8 35  1  0  0  0  0
  9  3  1  0  0  0  0
  9 36  1  0  0  0  0
  9 37  1  0  0  0  0
 10  4  1  0  0  0  0
 10 38  1  0  0  0  0
 11  5  2  0  0  0  0
 11 39  1  0  0  0  0
 12  6  1  0  0  0  0
 12 40  1  0  0  0  0
 13  7  1  0  0  0  0
 13 41  1  0  0  0  0
 14  8  1  0  0  0  0
 14 42  1  0  0  0  0
 14 43  1  0  0  0  0
 15  9  1  0  0  0  0
 15 44  1  0  0  0  0
 15 45  1  0  0  0  0
 16 46  1  0  0  0  0
 16 47  1  0  0  0  0
 17 48  1  0  0  0  0
 17 49  1  0  0  0  0
 18  1  1  0  0  0  0
 18 17  1  0  0  0  0
 18 50  1  0  0  0  0
 19 10  2  0  0  0  0
 19 11  1  0  0  0  0
 19 16  1  0  0  0  0
 20 12  2  0  0  0  0
 20 16  1  0  0  0  0
 21 13  2  0  0  0  0
 21 20  1  0  0  0  0
 22 14  1  0  0  0  0
 22 15  1  0  0  0  0
 22 18  1  0  0  0  0
 23 17  1  0  0  0  0
 23 21  1  0  0  0  0
M  END
>  <DRUGBANK_ID>
DB13309

>  <COMMON_NAME>
Benproperine

>  <CAS_NUMBER>
2156-27-6

>  <UNII>
3AA6IZ48YK

>  <SYNONYMS>
Bemproperina; Benproperine; Benproperinum

$$$$
