C48
 OpenBabel10282417072D

 56 57  0  0  0  0  0  0  0  0999 V2000
   -1.2804    1.3729    0.0000 O   0  0  0  0  0  0  0  0  0  0  0  0
    0.1228    1.1029    0.0000 O   0  0  0  0  0  0  0  0  0  0  0  0
    0.4346   -1.0575    0.0000 O   0  0  0  0  0  0  0  0  0  0  0  0
    3.3969   -0.7875    0.0000 O   0  0  0  0  0  0  0  0  0  0  0  0
    1.3701    0.0227    0.0000 N   0  0  0  0  0  0  0  0  0  0  0  0
    2.9292    0.5628    0.0000 N   0  0  0  0  0  0  0  0  0  0  0  0
   -2.2159    0.2927    0.0000 N   0  0  0  0  0  0  0  0  0  0  0  0
   -4.0868    1.9130    0.0000 N   0  0  0  0  0  0  0  0  0  0  0  0
   -1.4363    0.5628    0.0000 C   0  0  0  0  0  0  0  0  0  0  0  0
   -0.8127    0.0227    0.0000 C   0  0  0  0  0  0  0  0  0  0  0  0
   -0.0331    0.2927    0.0000 C   0  0  0  0  0  0  0  0  0  0  0  0
    0.5905   -0.2474    0.0000 C   0  0  0  0  0  0  0  0  0  0  0  0
    1.9937   -0.5174    0.0000 C   0  0  1  0  0  0  0  0  0  0  0  0
    1.8378   -1.3275    0.0000 C   0  0  0  0  0  0  0  0  0  0  0  0
    2.4614   -1.8676    0.0000 C   0  0  0  0  0  0  0  0  0  0  0  0
    3.2410   -1.5976    0.0000 C   0  0  0  0  0  0  0  0  0  0  0  0
    3.8646   -2.1377    0.0000 C   0  0  0  0  0  0  0  0  0  0  0  0
    3.7087   -2.9478    0.0000 C   0  0  0  0  0  0  0  0  0  0  0  0
    2.9292   -3.2179    0.0000 C   0  0  0  0  0  0  0  0  0  0  0  0
    2.3055   -2.6778    0.0000 C   0  0  0  0  0  0  0  0  0  0  0  0
    2.7733   -0.2474    0.0000 C   0  0  0  0  0  0  0  0  0  0  0  0
    2.3055    1.1029    0.0000 C   0  0  0  0  0  0  0  0  0  0  0  0
    3.7087    0.8328    0.0000 C   0  0  0  0  0  0  0  0  0  0  0  0
   -2.8395    0.8328    0.0000 C   0  0  0  0  0  0  0  0  0  0  0  0
   -3.6191    0.5628    0.0000 C   0  0  0  0  0  0  0  0  0  0  0  0
   -4.2427    1.1029    0.0000 C   0  0  0  0  0  0  0  0  0  0  0  0
   -5.0222    0.8328    0.0000 C   0  0  0  0  0  0  0  0  0  0  0  0
   -5.6459    1.3729    0.0000 C   0  0  0  0  0  0  0  0  0  0  0  0
   -5.4900    2.1830    0.0000 C   0  0  0  0  0  0  0  0  0  0  0  0
   -4.7104    2.4531    0.0000 C   0  0  0  0  0  0  0  0  0  0  0  0
    1.4420   -0.7086    0.0000 H   0  0  0  0  0  0  0  0  0  0  0  0
    1.5562    0.9895    0.0000 H   0  0  0  0  0  0  0  0  0  0  0  0
   -2.4020   -0.6741    0.0000 H   0  0  0  0  0  0  0  0  0  0  0  0
   -1.0150   -1.0280    0.0000 H   0  0  0  0  0  0  0  0  0  0  0  0
   -0.0039   -0.6778    0.0000 H   0  0  0  0  0  0  0  0  0  0  0  0
    0.8267   -1.6777    0.0000 H   0  0  0  0  0  0  0  0  0  0  0  0
    1.6356   -2.3782    0.0000 H   0  0  0  0  0  0  0  0  0  0  0  0
    3.4361   -0.5842    0.0000 H   0  0  0  0  0  0  0  0  0  0  0  0
    4.8398   -1.7999    0.0000 H   0  0  0  0  0  0  0  0  0  0  0  0
    4.4888   -3.6234    0.0000 H   0  0  0  0  0  0  0  0  0  0  0  0
    2.7342   -4.2313    0.0000 H   0  0  0  0  0  0  0  0  0  0  0  0
    1.3304   -3.0156    0.0000 H   0  0  0  0  0  0  0  0  0  0  0  0
    2.5077    2.1536    0.0000 H   0  0  0  0  0  0  0  0  0  0  0  0
    1.2945    0.7526    0.0000 H   0  0  0  0  0  0  0  0  0  0  0  0
    1.4966    1.8033    0.0000 H   0  0  0  0  0  0  0  0  0  0  0  0
    4.5175    0.1323    0.0000 H   0  0  0  0  0  0  0  0  0  0  0  0
    3.9109    1.8835    0.0000 H   0  0  0  0  0  0  0  0  0  0  0  0
    4.7198    1.1830    0.0000 H   0  0  0  0  0  0  0  0  0  0  0  0
   -2.6372    1.8835    0.0000 H   0  0  0  0  0  0  0  0  0  0  0  0
   -3.6483    1.5333    0.0000 H   0  0  0  0  0  0  0  0  0  0  0  0
   -3.8214   -0.4879    0.0000 H   0  0  0  0  0  0  0  0  0  0  0  0
   -4.6302    0.2126    0.0000 H   0  0  0  0  0  0  0  0  0  0  0  0
   -5.2172   -0.1806    0.0000 H   0  0  0  0  0  0  0  0  0  0  0  0
   -6.6210    1.0351    0.0000 H   0  0  0  0  0  0  0  0  0  0  0  0
   -6.2701    2.8586    0.0000 H   0  0  0  0  0  0  0  0  0  0  0  0
   -4.5154    3.4665    0.0000 H   0  0  0  0  0  0  0  0  0  0  0  0
  1  9  2  0  0  0  0
  2 11  2  0  0  0  0
  3 12  2  0  0  0  0
  4 21  2  0  0  0  0
  5 12  1  0  0  0  0
  5 32  1  0  0  0  0
  6 21  1  0  0  0  0
  6 22  1  0  0  0  0
  6 23  1  0  0  0  0
  7  9  1  0  0  0  0
  7 24  1  0  0  0  0
  7 33  1  0  0  0  0
  8 26  2  0  0  0  0
  8 30  1  0  0  0  0
  9 10  1  0  0  0  0
 10 11  1  0  0  0  0
 10 34  1  0  0  0  0
 10 35  1  0  0  0  0
 11 12  1  0  0  0  0
 13  5  1  0  0  0  0
 13 14  1  0  0  0  0
 13 21  1  0  0  0  0
 13 31  1  1  0  0  0
 14 15  1  0  0  0  0
 14 36  1  0  0  0  0
 14 37  1  0  0  0  0
 15 16  2  0  0  0  0
 15 20  1  0  0  0  0
 16 17  1  0  0  0  0
 16 38  1  0  0  0  0
 17 18  2  0  0  0  0
 17 39  1  0  0  0  0
 18 19  1  0  0  0  0
 18 40  1  0  0  0  0
 19 20  2  0  0  0  0
 19 41  1  0  0  0  0
 20 42  1  0  0  0  0
 22 43  1  0  0  0  0
 22 44  1  0  0  0  0
 22 45  1  0  0  0  0
 23 46  1  0  0  0  0
 23 47  1  0  0  0  0
 23 48  1  0  0  0  0
 24 25  1  0  0  0  0
 24 49  1  0  0  0  0
 24 50  1  0  0  0  0
 25 26  1  0  0  0  0
 25 51  1  0  0  0  0
 25 52  1  0  0  0  0
 26 27  1  0  0  0  0
 27 28  2  0  0  0  0
 27 53  1  0  0  0  0
 28 29  1  0  0  0  0
 28 54  1  0  0  0  0
 29 30  2  0  0  0  0
 29 55  1  0  0  0  0
 30 56  1  0  0  0  0
M  END
>  <DRUGBANK_ID>
DB02140

>  <SECONDARY_ACCESSION_NUMBERS>
EXPT00812

>  <COMMON_NAME>
N1-(1-Dimethylcarbamoyl-2-Phenyl-Ethyl)-2-Oxo-N4-(2-Pyridin-2-Yl-Ethyl)-Succinamide

$$$$
