
 OpenBabel10282417072D

 80 85  0  0  0  0  0  0  0  0999 V2000
   -1.7078   -7.8139    0.0000 C   0  0  0  0  0  0  0  0  0  0  0  0
   -0.9008   -7.6424    0.0000 N   0  0  0  0  0  0  0  0  0  0  0  0
   -0.6459   -6.8577    0.0000 C   0  0  0  0  0  0  0  0  0  0  0  0
    0.1611   -6.6862    0.0000 C   0  0  0  0  0  0  0  0  0  0  0  0
    0.7132   -7.2993    0.0000 C   0  0  0  0  0  0  0  0  0  0  0  0
    0.4582   -8.0839    0.0000 C   0  0  0  0  0  0  0  0  0  0  0  0
   -0.3488   -8.2554    0.0000 C   0  0  0  0  0  0  0  0  0  0  0  0
    1.5201   -7.1278    0.0000 C   0  0  0  0  0  0  0  0  0  0  0  0
    2.0722   -7.7409    0.0000 C   0  0  0  0  0  0  0  0  0  0  0  0
    2.8791   -7.5693    0.0000 C   0  0  0  0  0  0  0  0  0  0  0  0
    3.1341   -6.7847    0.0000 C   0  0  0  0  0  0  0  0  0  0  0  0
    2.5820   -6.1716    0.0000 C   0  0  0  0  0  0  0  0  0  0  0  0
    1.7751   -6.3432    0.0000 C   0  0  0  0  0  0  0  0  0  0  0  0
    1.2230   -5.7301    0.0000 C   0  0  0  0  0  0  0  0  0  0  0  0
    1.4780   -4.9454    0.0000 C   0  0  0  0  0  0  0  0  0  0  0  0
    2.2626   -5.2004    0.0000 C   0  0  0  0  0  0  0  0  0  0  0  0
    0.6933   -4.6905    0.0000 C   0  0  0  0  0  0  0  0  0  0  0  0
    1.7329   -4.1608    0.0000 N   0  0  0  0  0  0  0  0  0  0  0  0
    1.1809   -3.5477    0.0000 C   0  0  0  0  0  0  0  0  0  0  0  0
    0.3739   -3.7192    0.0000 N   0  0  0  0  0  0  0  0  0  0  0  0
   -0.1781   -3.1062    0.0000 C   0  0  0  0  0  0  0  0  0  0  0  0
    0.0768   -2.3215    0.0000 N   0  0  0  0  0  0  0  0  0  0  0  0
    0.8838   -2.1500    0.0000 C   0  0  0  0  0  0  0  0  0  0  0  0
    1.4358   -2.7631    0.0000 N   0  0  0  0  0  0  0  0  0  0  0  0
    1.1387   -1.3654    0.0000 N   0  0  0  0  0  0  0  0  0  0  0  0
    0.6538   -0.6979    0.0000 C   0  0  0  0  0  0  0  0  0  0  0  0
    1.1387   -0.0305    0.0000 N   0  0  0  0  0  0  0  0  0  0  0  0
    1.9233   -0.2854    0.0000 C   0  0  0  0  0  0  0  0  0  0  0  0
    2.6378    0.1271    0.0000 C   0  0  0  0  0  0  0  0  0  0  0  0
    3.3523   -0.2854    0.0000 C   0  0  0  0  0  0  0  0  0  0  0  0
    3.3523   -1.1104    0.0000 C   0  0  0  0  0  0  0  0  0  0  0  0
    2.6378   -1.5229    0.0000 C   0  0  0  0  0  0  0  0  0  0  0  0
    1.9233   -1.1104    0.0000 C   0  0  0  0  0  0  0  0  0  0  0  0
   -0.1712   -0.6979    0.0000 C   0  0  0  0  0  0  0  0  0  0  0  0
   -0.5837    0.0165    0.0000 F   0  0  0  0  0  0  0  0  0  0  0  0
   -0.5837   -1.4124    0.0000 F   0  0  0  0  0  0  0  0  0  0  0  0
   -0.9851   -3.2777    0.0000 N   0  0  0  0  0  0  0  0  0  0  0  0
   -1.2400   -4.0623    0.0000 C   0  0  0  0  0  0  0  0  0  0  0  0
   -2.0470   -4.2338    0.0000 C   0  0  0  0  0  0  0  0  0  0  0  0
   -2.5990   -3.6207    0.0000 O   0  0  0  0  0  0  0  0  0  0  0  0
   -2.3441   -2.8361    0.0000 C   0  0  0  0  0  0  0  0  0  0  0  0
   -1.5371   -2.6646    0.0000 C   0  0  0  0  0  0  0  0  0  0  0  0
   -2.4237   -7.0187    0.0000 H   0  0  0  0  0  0  0  0  0  0  0  0
   -2.0385   -8.8315    0.0000 H   0  0  0  0  0  0  0  0  0  0  0  0
   -2.7544   -8.0363    0.0000 H   0  0  0  0  0  0  0  0  0  0  0  0
   -1.3619   -6.0625    0.0000 H   0  0  0  0  0  0  0  0  0  0  0  0
   -0.3152   -5.8401    0.0000 H   0  0  0  0  0  0  0  0  0  0  0  0
    0.4917   -5.6686    0.0000 H   0  0  0  0  0  0  0  0  0  0  0  0
    1.2077   -6.4637    0.0000 H   0  0  0  0  0  0  0  0  0  0  0  0
    1.4291   -8.0945    0.0000 H   0  0  0  0  0  0  0  0  0  0  0  0
    1.1741   -8.8791    0.0000 H   0  0  0  0  0  0  0  0  0  0  0  0
    0.1275   -9.1015    0.0000 H   0  0  0  0  0  0  0  0  0  0  0  0
   -0.6794   -9.2730    0.0000 H   0  0  0  0  0  0  0  0  0  0  0  0
   -1.3954   -8.4779    0.0000 H   0  0  0  0  0  0  0  0  0  0  0  0
    1.7534   -8.7224    0.0000 H   0  0  0  0  0  0  0  0  0  0  0  0
    3.5697   -8.3362    0.0000 H   0  0  0  0  0  0  0  0  0  0  0  0
    4.1436   -6.5701    0.0000 H   0  0  0  0  0  0  0  0  0  0  0  0
    2.9008   -5.1901    0.0000 H   0  0  0  0  0  0  0  0  0  0  0  0
    0.1764   -5.9526    0.0000 H   0  0  0  0  0  0  0  0  0  0  0  0
    0.5070   -4.9349    0.0000 H   0  0  0  0  0  0  0  0  0  0  0  0
    2.4850   -6.2470    0.0000 H   0  0  0  0  0  0  0  0  0  0  0  0
    3.0578   -4.4845    0.0000 H   0  0  0  0  0  0  0  0  0  0  0  0
    3.2802   -5.5311    0.0000 H   0  0  0  0  0  0  0  0  0  0  0  0
    0.4708   -3.6439    0.0000 H   0  0  0  0  0  0  0  0  0  0  0  0
   -0.1018   -5.4065    0.0000 H   0  0  0  0  0  0  0  0  0  0  0  0
   -0.3244   -4.3599    0.0000 H   0  0  0  0  0  0  0  0  0  0  0  0
    2.6959   -3.9561    0.0000 H   0  0  0  0  0  0  0  0  0  0  0  0
    2.6378    1.1591    0.0000 H   0  0  0  0  0  0  0  0  0  0  0  0
    4.2460    0.2306    0.0000 H   0  0  0  0  0  0  0  0  0  0  0  0
    4.2460   -1.6264    0.0000 H   0  0  0  0  0  0  0  0  0  0  0  0
    2.6378   -2.5549    0.0000 H   0  0  0  0  0  0  0  0  0  0  0  0
   -1.2412   -0.6979    0.0000 H   0  0  0  0  0  0  0  0  0  0  0  0
   -0.5240   -4.8575    0.0000 H   0  0  0  0  0  0  0  0  0  0  0  0
   -1.5707   -5.0799    0.0000 H   0  0  0  0  0  0  0  0  0  0  0  0
   -2.3777   -5.2514    0.0000 H   0  0  0  0  0  0  0  0  0  0  0  0
   -3.0936   -4.4562    0.0000 H   0  0  0  0  0  0  0  0  0  0  0  0
   -3.0601   -2.0409    0.0000 H   0  0  0  0  0  0  0  0  0  0  0  0
   -2.0134   -1.8185    0.0000 H   0  0  0  0  0  0  0  0  0  0  0  0
   -1.2064   -1.6470    0.0000 H   0  0  0  0  0  0  0  0  0  0  0  0
   -0.4905   -2.4422    0.0000 H   0  0  0  0  0  0  0  0  0  0  0  0
  1  2  1  0  0  0  0
  1 43  1  0  0  0  0
  1 44  1  0  0  0  0
  1 45  1  0  0  0  0
  2  3  1  0  0  0  0
  2  7  1  0  0  0  0
  3  4  1  0  0  0  0
  3 46  1  0  0  0  0
  3 47  1  0  0  0  0
  4  5  1  0  0  0  0
  4 48  1  0  0  0  0
  4 49  1  0  0  0  0
  5  6  1  0  0  0  0
  5  8  1  0  0  0  0
  5 50  1  0  0  0  0
  6  7  1  0  0  0  0
  6 51  1  0  0  0  0
  6 52  1  0  0  0  0
  7 53  1  0  0  0  0
  7 54  1  0  0  0  0
  8  9  2  0  0  0  0
  8 13  1  0  0  0  0
  9 10  1  0  0  0  0
  9 55  1  0  0  0  0
 10 11  2  0  0  0  0
 10 56  1  0  0  0  0
 11 12  1  0  0  0  0
 11 57  1  0  0  0  0
 12 13  2  0  0  0  0
 12 58  1  0  0  0  0
 13 14  1  0  0  0  0
 14 15  1  0  0  0  0
 14 59  1  0  0  0  0
 14 60  1  0  0  0  0
 15 16  1  0  0  0  0
 15 17  1  0  0  0  0
 15 18  1  0  0  0  0
 16 61  1  0  0  0  0
 16 62  1  0  0  0  0
 16 63  1  0  0  0  0
 17 64  1  0  0  0  0
 17 65  1  0  0  0  0
 17 66  1  0  0  0  0
 18 19  1  0  0  0  0
 18 67  1  0  0  0  0
 19 20  2  0  0  0  0
 19 24  1  0  0  0  0
 20 21  1  0  0  0  0
 21 22  2  0  0  0  0
 21 37  1  0  0  0  0
 22 23  1  0  0  0  0
 23 24  2  0  0  0  0
 23 25  1  0  0  0  0
 25 26  1  0  0  0  0
 25 33  1  0  0  0  0
 26 27  2  0  0  0  0
 26 34  1  0  0  0  0
 27 28  1  0  0  0  0
 28 29  2  0  0  0  0
 28 33  1  0  0  0  0
 29 30  1  0  0  0  0
 29 68  1  0  0  0  0
 30 31  2  0  0  0  0
 30 69  1  0  0  0  0
 31 32  1  0  0  0  0
 31 70  1  0  0  0  0
 32 33  2  0  0  0  0
 32 71  1  0  0  0  0
 34 35  1  0  0  0  0
 34 36  1  0  0  0  0
 34 72  1  0  0  0  0
 37 38  1  0  0  0  0
 37 42  1  0  0  0  0
 38 39  1  0  0  0  0
 38 73  1  0  0  0  0
 38 74  1  0  0  0  0
 39 40  1  0  0  0  0
 39 75  1  0  0  0  0
 39 76  1  0  0  0  0
 40 41  1  0  0  0  0
 41 42  1  0  0  0  0
 41 77  1  0  0  0  0
 41 78  1  0  0  0  0
 42 79  1  0  0  0  0
 42 80  1  0  0  0  0
M  END
>  <DRUGBANK_ID>
DB18245

>  <COMMON_NAME>
Zandelisib

>  <CAS_NUMBER>
1401436-95-0

>  <UNII>
8Z28M5SX0X

>  <SYNONYMS>
1,3,5-triazin-2-amine, 4-(2-(difluoromethyl)-1h-benzimidazol-1-yl)-n-(1,1-dimethyl-2-(2-(1-methyl-4-piperidinyl)phenyl)ethyl)-6-(4-morpholinyl)-; 4-(2-(difluoromethyl)benzimidazol-1-yl)-n-(1,1-dimethyl-2-(2-(1-methyl-4-piperidyl)phenyl)ethyl)-6-morpholino-1,3,5-triazin-2-amine

$$$$
