1179
 OpenBabel10282417072D

 52 56  0  0  1  0  0  0  0  0999 V2000
    4.7435    2.5059    0.0000 O   0  0  0  0  0  0  0  0  0  0  0  0
    2.3263    1.6191    0.0000 O   0  0  0  0  0  0  0  0  0  0  0  0
    5.8850    1.5868    0.0000 O   0  0  0  0  0  0  0  0  0  0  0  0
    2.8478   -2.1607    0.0000 O   0  0  0  0  0  0  0  0  0  0  0  0
    1.6500   -1.4691    0.0000 O   0  0  0  0  0  0  0  0  0  0  0  0
    5.8986   -2.0934    0.0000 O   0  0  0  0  0  0  0  0  0  0  0  0
    7.3276    0.3816    0.0000 O   0  0  0  0  0  0  0  0  0  0  0  0
    7.3276   -1.2684    0.0000 O   0  0  0  0  0  0  0  0  0  0  0  0
    3.7552    1.6191    0.0000 C   0  0  1  0  0  0  0  0  0  0  0  0
    4.4697    1.2066    0.0000 C   0  0  1  0  0  0  0  0  0  0  0  0
    4.4697    0.3816    0.0000 C   0  0  1  0  0  0  0  0  0  0  0  0
    3.0407    1.2066    0.0000 C   0  0  2  0  0  0  0  0  0  0  0  0
    3.7552   -0.0309    0.0000 C   0  0  0  0  0  0  0  0  0  0  0  0
    3.9278    2.4209    0.0000 C   0  0  0  0  0  0  0  0  0  0  0  0
    3.0407    0.3816    0.0000 C   0  0  0  0  0  0  0  0  0  0  0  0
    5.0777    1.7569    0.0000 C   0  0  0  0  0  0  0  0  0  0  0  0
    5.1841   -0.0309    0.0000 C   0  0  0  0  0  0  0  0  0  0  0  0
    3.7684   -0.8901    0.0000 C   0  0  0  0  0  0  0  0  0  0  0  0
    2.2900   -0.0365    0.0000 C   0  0  0  0  0  0  0  0  0  0  0  0
    3.0276   -1.3255    0.0000 C   0  0  0  0  0  0  0  0  0  0  0  0
    2.2834   -0.8959    0.0000 C   0  0  0  0  0  0  0  0  0  0  0  0
    5.8986    0.3816    0.0000 C   0  0  0  0  0  0  0  0  0  0  0  0
    5.1841   -0.8559    0.0000 C   0  0  0  0  0  0  0  0  0  0  0  0
    5.8986   -1.2684    0.0000 C   0  0  0  0  0  0  0  0  0  0  0  0
    6.6131   -0.0309    0.0000 C   0  0  0  0  0  0  0  0  0  0  0  0
    6.6131   -0.8559    0.0000 C   0  0  0  0  0  0  0  0  0  0  0  0
    1.9982   -2.2492    0.0000 C   0  0  0  0  0  0  0  0  0  0  0  0
    6.6131   -2.5059    0.0000 C   0  0  0  0  0  0  0  0  0  0  0  0
    7.3276    1.2066    0.0000 C   0  0  0  0  0  0  0  0  0  0  0  0
    8.0420   -0.8559    0.0000 C   0  0  0  0  0  0  0  0  0  0  0  0
    3.2218    2.0077    0.0000 H   0  0  0  0  0  0  0  0  0  0  0  0
    5.0729    0.9389    0.0000 H   0  0  0  0  0  0  0  0  0  0  0  0
    2.3263    2.5891    0.0000 H   0  0  0  0  0  0  0  0  0  0  0  0
    5.3964    0.9166    0.0000 H   0  0  0  0  0  0  0  0  0  0  0  0
    3.0407    2.2766    0.0000 H   0  0  0  0  0  0  0  0  0  0  0  0
    3.2132    3.2173    0.0000 H   0  0  0  0  0  0  0  0  0  0  0  0
    2.8937    2.1462    0.0000 H   0  0  0  0  0  0  0  0  0  0  0  0
    4.6680   -1.3957    0.0000 H   0  0  0  0  0  0  0  0  0  0  0  0
    1.4023    0.4898    0.0000 H   0  0  0  0  0  0  0  0  0  0  0  0
    5.8986    1.4136    0.0000 H   0  0  0  0  0  0  0  0  0  0  0  0
    4.2904   -1.3719    0.0000 H   0  0  0  0  0  0  0  0  0  0  0  0
    1.4632   -3.1758    0.0000 H   0  0  0  0  0  0  0  0  0  0  0  0
    0.9296   -2.1937    0.0000 H   0  0  0  0  0  0  0  0  0  0  0  0
    6.6131   -3.5759    0.0000 H   0  0  0  0  0  0  0  0  0  0  0  0
    7.5397   -1.9709    0.0000 H   0  0  0  0  0  0  0  0  0  0  0  0
    7.5398   -3.0409    0.0000 H   0  0  0  0  0  0  0  0  0  0  0  0
    8.2542    1.7416    0.0000 H   0  0  0  0  0  0  0  0  0  0  0  0
    6.4010    1.7416    0.0000 H   0  0  0  0  0  0  0  0  0  0  0  0
    7.3276    2.2766    0.0000 H   0  0  0  0  0  0  0  0  0  0  0  0
    8.9687   -1.3909    0.0000 H   0  0  0  0  0  0  0  0  0  0  0  0
    8.0420    0.2141    0.0000 H   0  0  0  0  0  0  0  0  0  0  0  0
    8.9686   -0.3209    0.0000 H   0  0  0  0  0  0  0  0  0  0  0  0
  1 14  1  0  0  0  0
  1 16  1  0  0  0  0
  2 33  1  0  0  0  0
  3 16  2  0  0  0  0
  4 20  1  0  0  0  0
  4 27  1  0  0  0  0
  5 21  1  0  0  0  0
  5 27  1  0  0  0  0
  6 24  1  0  0  0  0
  6 28  1  0  0  0  0
  7 25  1  0  0  0  0
  7 29  1  0  0  0  0
  8 26  1  0  0  0  0
  8 30  1  0  0  0  0
  9 10  1  0  0  0  0
  9 12  1  0  0  0  0
  9 14  1  0  0  0  0
  9 31  1  6  0  0  0
 10 11  1  0  0  0  0
 10 16  1  0  0  0  0
 10 32  1  1  0  0  0
 11 13  1  0  0  0  0
 11 17  1  0  0  0  0
 11 34  1  1  0  0  0
 12  2  1  0  0  0  0
 12 15  1  0  0  0  0
 12 35  1  1  0  0  0
 13 15  1  0  0  0  0
 13 18  2  0  0  0  0
 14 36  1  0  0  0  0
 14 37  1  0  0  0  0
 15 19  2  0  0  0  0
 17 22  2  0  0  0  0
 17 23  1  0  0  0  0
 18 20  1  0  0  0  0
 18 38  1  0  0  0  0
 19 21  1  0  0  0  0
 19 39  1  0  0  0  0
 20 21  2  0  0  0  0
 22 25  1  0  0  0  0
 22 40  1  0  0  0  0
 23 24  2  0  0  0  0
 23 41  1  0  0  0  0
 24 26  1  0  0  0  0
 25 26  2  0  0  0  0
 27 42  1  0  0  0  0
 27 43  1  0  0  0  0
 28 44  1  0  0  0  0
 28 45  1  0  0  0  0
 28 46  1  0  0  0  0
 29 47  1  0  0  0  0
 29 48  1  0  0  0  0
 29 49  1  0  0  0  0
 30 50  1  0  0  0  0
 30 51  1  0  0  0  0
 30 52  1  0  0  0  0
M  END
>  <DRUGBANK_ID>
DB01179

>  <SECONDARY_ACCESSION_NUMBERS>
APRD01189; DB08417

>  <COMMON_NAME>
Podofilox

>  <CAS_NUMBER>
518-28-5

>  <UNII>
L36H50F353

>  <SYNONYMS>
(âˆ’)-podophyllotoxin; Podofilox; Podophyllinic acid lactone; Podophyllotoxin; PPT

$$$$
