
 OpenBabel10282417072D

 31 31  0  0  0  0  0  0  0  0999 V2000
   -2.8299   -3.6748    0.0000 C   0  0  0  0  0  0  0  0  0  0  0  0
   -2.1154   -3.2623    0.0000 O   0  0  0  0  0  0  0  0  0  0  0  0
   -1.4009   -3.6748    0.0000 C   0  0  0  0  0  0  0  0  0  0  0  0
   -1.4009   -4.4998    0.0000 O   0  0  0  0  0  0  0  0  0  0  0  0
   -0.6865   -3.2623    0.0000 C   0  0  0  0  0  0  0  0  0  0  0  0
    0.0280   -3.6748    0.0000 C   0  0  0  0  0  0  0  0  0  0  0  0
    0.7425   -3.2623    0.0000 C   0  0  0  0  0  0  0  0  0  0  0  0
    1.4569   -3.6748    0.0000 O   0  0  0  0  0  0  0  0  0  0  0  0
    0.7425   -2.4373    0.0000 O   0  0  0  0  0  0  0  0  0  0  0  0
    1.4569   -2.0248    0.0000 C   0  0  0  0  0  0  0  0  0  0  0  0
    2.1714   -2.4373    0.0000 C   0  0  0  0  0  0  0  0  0  0  0  0
    2.8859   -2.0248    0.0000 N   0  0  0  0  0  0  0  0  0  0  0  0
    2.9721   -1.2043    0.0000 C   0  0  0  0  0  0  0  0  0  0  0  0
    2.3590   -0.6523    0.0000 O   0  0  0  0  0  0  0  0  0  0  0  0
    3.7791   -1.0328    0.0000 C   0  0  0  0  0  0  0  0  0  0  0  0
    4.1916   -1.7472    0.0000 C   0  0  0  0  0  0  0  0  0  0  0  0
    3.6396   -2.3603    0.0000 C   0  0  0  0  0  0  0  0  0  0  0  0
    3.8111   -3.1673    0.0000 O   0  0  0  0  0  0  0  0  0  0  0  0
   -3.7565   -3.1398    0.0000 H   0  0  0  0  0  0  0  0  0  0  0  0
   -2.8299   -4.7448    0.0000 H   0  0  0  0  0  0  0  0  0  0  0  0
   -3.7566   -4.2098    0.0000 H   0  0  0  0  0  0  0  0  0  0  0  0
   -0.6865   -2.2303    0.0000 H   0  0  0  0  0  0  0  0  0  0  0  0
    0.0280   -4.7068    0.0000 H   0  0  0  0  0  0  0  0  0  0  0  0
    1.4569   -0.9548    0.0000 H   0  0  0  0  0  0  0  0  0  0  0  0
    2.3835   -1.4898    0.0000 H   0  0  0  0  0  0  0  0  0  0  0  0
    2.1714   -3.5073    0.0000 H   0  0  0  0  0  0  0  0  0  0  0  0
    3.0980   -2.9723    0.0000 H   0  0  0  0  0  0  0  0  0  0  0  0
    4.2143   -0.0553    0.0000 H   0  0  0  0  0  0  0  0  0  0  0  0
    4.8476   -0.9768    0.0000 H   0  0  0  0  0  0  0  0  0  0  0  0
    5.2557   -1.8590    0.0000 H   0  0  0  0  0  0  0  0  0  0  0  0
    4.5751   -2.7461    0.0000 H   0  0  0  0  0  0  0  0  0  0  0  0
  1  2  1  0  0  0  0
  1 19  1  0  0  0  0
  1 20  1  0  0  0  0
  1 21  1  0  0  0  0
  2  3  1  0  0  0  0
  3  4  2  0  0  0  0
  3  5  1  0  0  0  0
  5  6  2  0  0  0  0
  5 22  1  0  0  0  0
  6  7  1  0  0  0  0
  6 23  1  0  0  0  0
  7  8  2  0  0  0  0
  7  9  1  0  0  0  0
  9 10  1  0  0  0  0
 10 11  1  0  0  0  0
 10 24  1  0  0  0  0
 10 25  1  0  0  0  0
 11 12  1  0  0  0  0
 11 26  1  0  0  0  0
 11 27  1  0  0  0  0
 12 13  1  0  0  0  0
 12 17  1  0  0  0  0
 13 14  2  0  0  0  0
 13 15  1  0  0  0  0
 15 16  1  0  0  0  0
 15 28  1  0  0  0  0
 15 29  1  0  0  0  0
 16 17  1  0  0  0  0
 16 30  1  0  0  0  0
 16 31  1  0  0  0  0
 17 18  2  0  0  0  0
M  END
>  <DRUGBANK_ID>
DB14783

>  <COMMON_NAME>
Diroximel fumarate

>  <CAS_NUMBER>
1577222-14-0

>  <UNII>
K0N0Z40J3W

>  <SYNONYMS>
Diroximel fumarate

$$$$
