
 OpenBabel10282417072D

 24 24  0  0  1  0  0  0  0  0999 V2000
    1.4289   -0.0000    0.0000 C   0  0  0  0  0  0  0  0  0  0  0  0
    2.1434    1.2375    0.0000 C   0  0  0  0  0  0  0  0  0  0  0  0
    1.4289    0.8250    0.0000 C   0  0  0  0  0  0  0  0  0  0  0  0
    0.7145   -0.4125    0.0000 C   0  0  1  0  0  0  0  0  0  0  0  0
    0.7145    1.2375    0.0000 C   0  0  2  0  0  0  0  0  0  0  0  0
    0.0000   -0.0000    0.0000 C   0  0  1  0  0  0  0  0  0  0  0  0
    0.0000    0.8250    0.0000 C   0  0  1  0  0  0  0  0  0  0  0  0
    2.1434    2.0625    0.0000 O   0  0  0  0  0  0  0  0  0  0  0  0
    0.7145   -1.2375    0.0000 O   0  0  0  0  0  0  0  0  0  0  0  0
    0.7145    2.0625    0.0000 O   0  0  0  0  0  0  0  0  0  0  0  0
   -0.7145   -0.4125    0.0000 O   0  0  0  0  0  0  0  0  0  0  0  0
   -0.7145    1.2375    0.0000 O   0  0  0  0  0  0  0  0  0  0  0  0
    1.4289   -0.8250    0.0000 H   0  0  0  0  0  0  0  0  0  0  0  0
    1.4289    1.6500    0.0000 H   0  0  0  0  0  0  0  0  0  0  0  0
    0.0000   -0.8250    0.0000 H   0  0  0  0  0  0  0  0  0  0  0  0
    0.0000    1.6500    0.0000 H   0  0  0  0  0  0  0  0  0  0  0  0
    2.3226   -0.5160    0.0000 H   0  0  0  0  0  0  0  0  0  0  0  0
    3.0700    0.7025    0.0000 H   0  0  0  0  0  0  0  0  0  0  0  0
    3.0700    1.7725    0.0000 H   0  0  0  0  0  0  0  0  0  0  0  0
    2.9834    2.5475    0.0000 H   0  0  0  0  0  0  0  0  0  0  0  0
   -0.1255   -1.7225    0.0000 H   0  0  0  0  0  0  0  0  0  0  0  0
    1.5545    2.5475    0.0000 H   0  0  0  0  0  0  0  0  0  0  0  0
   -1.5545    0.0725    0.0000 H   0  0  0  0  0  0  0  0  0  0  0  0
   -0.7145    2.2075    0.0000 H   0  0  0  0  0  0  0  0  0  0  0  0
  1 17  1  0  0  0  0
  2 18  1  0  0  0  0
  2 19  1  0  0  0  0
  3  1  2  0  0  0  0
  3  2  1  0  0  0  0
  4  1  1  0  0  0  0
  4  9  1  0  0  0  0
  4 13  1  1  0  0  0
  5  3  1  0  0  0  0
  5 10  1  0  0  0  0
  5 14  1  1  0  0  0
  6  4  1  0  0  0  0
  6 11  1  0  0  0  0
  6 15  1  1  0  0  0
  7  5  1  0  0  0  0
  7  6  1  0  0  0  0
  7 12  1  0  0  0  0
  7 16  1  6  0  0  0
  8  2  1  0  0  0  0
  8 20  1  0  0  0  0
  9 21  1  0  0  0  0
 10 22  1  0  0  0  0
 11 23  1  0  0  0  0
 12 24  1  0  0  0  0
M  END
>  <DRUGBANK_ID>
DB03092

>  <SECONDARY_ACCESSION_NUMBERS>
EXPT01756

>  <COMMON_NAME>
5-Hydroxymethyl-Chonduritol

>  <UNII>
J5344DZ89S

$$$$
