
 OpenBabel10282417072D

 27 26  0  0  0  0  0  0  0  0999 V2000
    0.1658    0.0551    0.0000 O   0  0  0  0  0  0  0  0  0  0  0  0
    0.8803   -0.3572    0.0000 C   0  0  0  0  0  0  0  0  0  0  0  0
    1.5948    0.0551    0.0000 C   0  0  2  0  0  0  0  0  0  0  0  0
    1.5948    0.8802    0.0000 O   0  0  0  0  0  0  0  0  0  0  0  0
    2.3092   -0.3572    0.0000 C   0  0  0  0  0  0  0  0  0  0  0  0
    3.0237    0.0552    0.0000 O   0  0  0  0  0  0  0  0  0  0  0  0
   -0.5486   -0.3572    0.0000 P   0  0  3  0  0  0  0  0  0  0  0  0
   -1.2631   -0.7698    0.0000 O   0  0  0  0  0  0  0  0  0  0  0  0
   -0.1362   -1.0717    0.0000 O   0  0  0  0  0  0  0  0  0  0  0  0
   -0.9612    0.3572    0.0000 O   0  0  0  0  0  0  0  0  0  0  0  0
   -1.7862    0.3572    0.0000 C   0  0  0  0  0  0  0  0  0  0  0  0
   -2.1987    1.0717    0.0000 C   0  0  0  0  0  0  0  0  0  0  0  0
   -3.0237    1.0717    0.0000 N   0  0  0  0  0  0  0  0  0  0  0  0
    0.8803   -1.4272    0.0000 H   0  0  0  0  0  0  0  0  0  0  0  0
    1.8069   -0.8923    0.0000 H   0  0  0  0  0  0  0  0  0  0  0  0
    0.6682    0.5902    0.0000 H   0  0  0  0  0  0  0  0  0  0  0  0
    2.4348    1.3652    0.0000 H   0  0  0  0  0  0  0  0  0  0  0  0
    2.3092   -1.4272    0.0000 H   0  0  0  0  0  0  0  0  0  0  0  0
    3.2358   -0.8922    0.0000 H   0  0  0  0  0  0  0  0  0  0  0  0
    3.8637   -0.4299    0.0000 H   0  0  0  0  0  0  0  0  0  0  0  0
   -2.1032   -0.2849    0.0000 H   0  0  0  0  0  0  0  0  0  0  0  0
   -2.3212   -0.5694    0.0000 H   0  0  0  0  0  0  0  0  0  0  0  0
   -2.8562    0.3572    0.0000 H   0  0  0  0  0  0  0  0  0  0  0  0
   -1.6637    1.9983    0.0000 H   0  0  0  0  0  0  0  0  0  0  0  0
   -2.7337    1.9983    0.0000 H   0  0  0  0  0  0  0  0  0  0  0  0
   -3.5337    1.9550    0.0000 H   0  0  0  0  0  0  0  0  0  0  0  0
   -3.5337    0.1884    0.0000 H   0  0  0  0  0  0  0  0  0  0  0  0
  1  2  1  0  0  0  0
  1  7  1  0  0  0  0
  2  3  1  0  0  0  0
  2 14  1  0  0  0  0
  2 15  1  0  0  0  0
  3  4  1  0  0  0  0
  3  5  1  0  0  0  0
  3 16  1  1  0  0  0
  4 17  1  0  0  0  0
  5  6  1  0  0  0  0
  5 18  1  0  0  0  0
  5 19  1  0  0  0  0
  6 20  1  0  0  0  0
  7  8  1  0  0  0  0
  7  9  2  0  0  0  0
  7 10  1  0  0  0  0
  8 21  1  0  0  0  0
 10 11  1  0  0  0  0
 11 12  1  0  0  0  0
 11 22  1  0  0  0  0
 11 23  1  0  0  0  0
 12 13  1  0  0  0  0
 12 24  1  0  0  0  0
 12 25  1  0  0  0  0
 13 26  1  0  0  0  0
 13 27  1  0  0  0  0
M  END
>  <DRUGBANK_ID>
DB15872

>  <COMMON_NAME>
L-alpha-Glycerophosphorylethanolamine

>  <CAS_NUMBER>
33049-08-0

>  <UNII>
O35QN01X8F

>  <SYNONYMS>
Ethanolamine glycerophosphate anhydrous; L-alpha-Glycerophosphorylethanolamine

$$$$
