
 OpenBabel10282417072D

 70 74  0  0  0  0  0  0  0  0999 V2000
    2.8334   -4.6884    0.0000 C   0  0  0  0  0  0  0  0  0  0  0  0
    2.8334   -3.8634    0.0000 N   0  0  0  0  0  0  0  0  0  0  0  0
    2.1189   -3.4509    0.0000 C   0  0  0  0  0  0  0  0  0  0  0  0
    2.1189   -2.6259    0.0000 C   0  0  0  0  0  0  0  0  0  0  0  0
    2.8334   -2.2134    0.0000 C   0  0  0  0  0  0  0  0  0  0  0  0
    3.5479   -2.6259    0.0000 C   0  0  0  0  0  0  0  0  0  0  0  0
    3.5479   -3.4509    0.0000 C   0  0  0  0  0  0  0  0  0  0  0  0
    2.8334   -1.3884    0.0000 N   0  0  0  0  0  0  0  0  0  0  0  0
    2.1189   -0.9759    0.0000 C   0  0  0  0  0  0  0  0  0  0  0  0
    1.4045   -1.3884    0.0000 O   0  0  0  0  0  0  0  0  0  0  0  0
    2.1189   -0.1509    0.0000 C   0  0  0  0  0  0  0  0  0  0  0  0
    2.8334    0.2615    0.0000 C   0  0  0  0  0  0  0  0  0  0  0  0
    2.8334    1.0865    0.0000 C   0  0  0  0  0  0  0  0  0  0  0  0
    2.1189    1.4990    0.0000 C   0  0  0  0  0  0  0  0  0  0  0  0
    1.4045    1.0865    0.0000 C   0  0  0  0  0  0  0  0  0  0  0  0
    1.4045    0.2615    0.0000 C   0  0  0  0  0  0  0  0  0  0  0  0
    0.6900   -0.1509    0.0000 F   0  0  0  0  0  0  0  0  0  0  0  0
    2.1189    2.3240    0.0000 N   0  0  0  0  0  0  0  0  0  0  0  0
    1.4045    2.7365    0.0000 C   0  0  0  0  0  0  0  0  0  0  0  0
    1.4045    3.5615    0.0000 N   0  0  0  0  0  0  0  0  0  0  0  0
    0.6900    3.9740    0.0000 C   0  0  0  0  0  0  0  0  0  0  0  0
   -0.0244    3.5615    0.0000 C   0  0  0  0  0  0  0  0  0  0  0  0
   -0.0244    2.7365    0.0000 C   0  0  0  0  0  0  0  0  0  0  0  0
    0.6900    2.3240    0.0000 N   0  0  0  0  0  0  0  0  0  0  0  0
   -0.7388    2.3240    0.0000 O   0  0  0  0  0  0  0  0  0  0  0  0
   -0.7388    1.4990    0.0000 C   0  0  0  0  0  0  0  0  0  0  0  0
   -0.0244    1.0865    0.0000 C   0  0  0  0  0  0  0  0  0  0  0  0
   -0.0244    0.2615    0.0000 C   0  0  0  0  0  0  0  0  0  0  0  0
   -0.7388   -0.1509    0.0000 C   0  0  0  0  0  0  0  0  0  0  0  0
   -1.4533    0.2615    0.0000 C   0  0  0  0  0  0  0  0  0  0  0  0
   -1.4533    1.0865    0.0000 C   0  0  0  0  0  0  0  0  0  0  0  0
   -2.2379    1.3414    0.0000 C   0  0  0  0  0  0  0  0  0  0  0  0
   -2.4929    2.1260    0.0000 O   0  0  0  0  0  0  0  0  0  0  0  0
   -2.7229    0.6740    0.0000 N   0  0  0  0  0  0  0  0  0  0  0  0
   -2.2379    0.0065    0.0000 C   0  0  0  0  0  0  0  0  0  0  0  0
   -3.5479    0.6740    0.0000 C   0  0  0  0  0  0  0  0  0  0  0  0
   -0.7388    3.9740    0.0000 C   0  0  0  0  0  0  0  0  0  0  0  0
   -1.4533    4.3865    0.0000 F   0  0  0  0  0  0  0  0  0  0  0  0
   -0.3263    4.6884    0.0000 F   0  0  0  0  0  0  0  0  0  0  0  0
   -1.1513    3.2595    0.0000 F   0  0  0  0  0  0  0  0  0  0  0  0
    3.5479    1.4990    0.0000 O   0  0  0  0  0  0  0  0  0  0  0  0
    3.5479    2.3240    0.0000 C   0  0  0  0  0  0  0  0  0  0  0  0
    1.9068   -5.2234    0.0000 H   0  0  0  0  0  0  0  0  0  0  0  0
    3.7600   -5.2234    0.0000 H   0  0  0  0  0  0  0  0  0  0  0  0
    2.8334   -5.7584    0.0000 H   0  0  0  0  0  0  0  0  0  0  0  0
    1.1923   -3.9859    0.0000 H   0  0  0  0  0  0  0  0  0  0  0  0
    1.1923   -2.9159    0.0000 H   0  0  0  0  0  0  0  0  0  0  0  0
    1.1923   -2.0909    0.0000 H   0  0  0  0  0  0  0  0  0  0  0  0
    2.1189   -1.5559    0.0000 H   0  0  0  0  0  0  0  0  0  0  0  0
    3.7600   -1.6784    0.0000 H   0  0  0  0  0  0  0  0  0  0  0  0
    4.4745   -2.0909    0.0000 H   0  0  0  0  0  0  0  0  0  0  0  0
    4.4745   -3.1609    0.0000 H   0  0  0  0  0  0  0  0  0  0  0  0
    4.4745   -3.9859    0.0000 H   0  0  0  0  0  0  0  0  0  0  0  0
    3.5479   -4.5209    0.0000 H   0  0  0  0  0  0  0  0  0  0  0  0
    3.6860   -0.8961    0.0000 H   0  0  0  0  0  0  0  0  0  0  0  0
    3.7271   -0.2546    0.0000 H   0  0  0  0  0  0  0  0  0  0  0  0
    0.5108    1.6025    0.0000 H   0  0  0  0  0  0  0  0  0  0  0  0
    2.9715    2.8162    0.0000 H   0  0  0  0  0  0  0  0  0  0  0  0
    0.6900    5.0060    0.0000 H   0  0  0  0  0  0  0  0  0  0  0  0
    0.8693    1.6025    0.0000 H   0  0  0  0  0  0  0  0  0  0  0  0
    0.8693   -0.2545    0.0000 H   0  0  0  0  0  0  0  0  0  0  0  0
   -0.7388   -1.1829    0.0000 H   0  0  0  0  0  0  0  0  0  0  0  0
   -2.5685   -1.0111    0.0000 H   0  0  0  0  0  0  0  0  0  0  0  0
   -1.4812   -0.7501    0.0000 H   0  0  0  0  0  0  0  0  0  0  0  0
   -4.0829    1.6006    0.0000 H   0  0  0  0  0  0  0  0  0  0  0  0
   -4.0829   -0.2526    0.0000 H   0  0  0  0  0  0  0  0  0  0  0  0
   -4.6179    0.6740    0.0000 H   0  0  0  0  0  0  0  0  0  0  0  0
    4.4745    2.8590    0.0000 H   0  0  0  0  0  0  0  0  0  0  0  0
    2.6213    2.8590    0.0000 H   0  0  0  0  0  0  0  0  0  0  0  0
    3.5479    3.3940    0.0000 H   0  0  0  0  0  0  0  0  0  0  0  0
  1  2  1  0  0  0  0
  1 43  1  0  0  0  0
  1 44  1  0  0  0  0
  1 45  1  0  0  0  0
  2  3  1  0  0  0  0
  2  7  1  0  0  0  0
  3  4  1  0  0  0  0
  3 46  1  0  0  0  0
  3 47  1  0  0  0  0
  4  5  1  0  0  0  0
  4 48  1  0  0  0  0
  4 49  1  0  0  0  0
  5  6  1  0  0  0  0
  5  8  1  0  0  0  0
  5 50  1  0  0  0  0
  6  7  1  0  0  0  0
  6 51  1  0  0  0  0
  6 52  1  0  0  0  0
  7 53  1  0  0  0  0
  7 54  1  0  0  0  0
  8  9  1  0  0  0  0
  8 55  1  0  0  0  0
  9 10  2  0  0  0  0
  9 11  1  0  0  0  0
 11 12  2  0  0  0  0
 11 16  1  0  0  0  0
 12 13  1  0  0  0  0
 12 56  1  0  0  0  0
 13 14  2  0  0  0  0
 13 41  1  0  0  0  0
 14 15  1  0  0  0  0
 14 18  1  0  0  0  0
 15 16  2  0  0  0  0
 15 57  1  0  0  0  0
 16 17  1  0  0  0  0
 18 19  1  0  0  0  0
 18 58  1  0  0  0  0
 19 20  2  0  0  0  0
 19 24  1  0  0  0  0
 20 21  1  0  0  0  0
 21 22  2  0  0  0  0
 21 59  1  0  0  0  0
 22 23  1  0  0  0  0
 22 37  1  0  0  0  0
 23 24  2  0  0  0  0
 23 25  1  0  0  0  0
 25 26  1  0  0  0  0
 26 27  2  0  0  0  0
 26 31  1  0  0  0  0
 27 28  1  0  0  0  0
 27 60  1  0  0  0  0
 28 29  2  0  0  0  0
 28 61  1  0  0  0  0
 29 30  1  0  0  0  0
 29 62  1  0  0  0  0
 30 31  2  0  0  0  0
 30 35  1  0  0  0  0
 31 32  1  0  0  0  0
 32 33  2  0  0  0  0
 32 34  1  0  0  0  0
 34 35  1  0  0  0  0
 34 36  1  0  0  0  0
 35 63  1  0  0  0  0
 35 64  1  0  0  0  0
 36 65  1  0  0  0  0
 36 66  1  0  0  0  0
 36 67  1  0  0  0  0
 37 38  1  0  0  0  0
 37 39  1  0  0  0  0
 37 40  1  0  0  0  0
 41 42  1  0  0  0  0
 42 68  1  0  0  0  0
 42 69  1  0  0  0  0
 42 70  1  0  0  0  0
M  END
>  <DRUGBANK_ID>
DB17570

>  <COMMON_NAME>
Ifebemtinib

>  <CAS_NUMBER>
1227948-82-4

>  <UNII>
C57O858DKU

>  <SYNONYMS>
Ifebemtinib

$$$$
