
 OpenBabel10282417072D

 48 51  0  0  0  0  0  0  0  0999 V2000
   -0.3509   -1.7793    0.0000 C   0  0  0  0  0  0  0  0  0  0  0  0
    0.3166   -2.2643    0.0000 N   0  0  0  0  0  0  0  0  0  0  0  0
    0.9841   -1.7793    0.0000 N   0  0  0  0  0  0  0  0  0  0  0  0
    0.7293   -0.9947    0.0000 C   0  0  0  0  0  0  0  0  0  0  0  0
   -0.0957   -0.9947    0.0000 C   0  0  0  0  0  0  0  0  0  0  0  0
   -1.1355   -2.0343    0.0000 C   0  0  0  0  0  0  0  0  0  0  0  0
   -0.5807   -0.3272    0.0000 C   0  0  0  0  0  0  0  0  0  0  0  0
    1.2141   -0.3272    0.0000 C   0  0  0  0  0  0  0  0  0  0  0  0
   -1.7486   -1.4821    0.0000 C   0  0  0  0  0  0  0  0  0  0  0  0
   -2.5333   -1.7372    0.0000 C   0  0  0  0  0  0  0  0  0  0  0  0
   -2.7049   -2.5441    0.0000 C   0  0  0  0  0  0  0  0  0  0  0  0
   -2.0917   -3.0962    0.0000 C   0  0  0  0  0  0  0  0  0  0  0  0
   -1.3071   -2.8413    0.0000 C   0  0  0  0  0  0  0  0  0  0  0  0
   -1.4013   -0.4134    0.0000 N   0  0  0  0  0  0  0  0  0  0  0  0
   -1.8862    0.2540    0.0000 C   0  0  0  0  0  0  0  0  0  0  0  0
   -1.5506    1.0077    0.0000 N   0  0  0  0  0  0  0  0  0  0  0  0
   -0.7301    1.0939    0.0000 C   0  0  0  0  0  0  0  0  0  0  0  0
   -0.2451    0.4265    0.0000 C   0  0  0  0  0  0  0  0  0  0  0  0
    0.8786    0.4263    0.0000 C   0  0  0  0  0  0  0  0  0  0  0  0
    1.3635    1.0938    0.0000 C   0  0  0  0  0  0  0  0  0  0  0  0
    2.1840    1.0076    0.0000 N   0  0  0  0  0  0  0  0  0  0  0  0
    2.5196    0.2539    0.0000 C   0  0  0  0  0  0  0  0  0  0  0  0
    2.0347   -0.4135    0.0000 C   0  0  0  0  0  0  0  0  0  0  0  0
   -3.4895   -2.7991    0.0000 Cl  0  0  0  0  0  0  0  0  0  0  0  0
    2.6690    1.6750    0.0000 C   0  0  0  0  0  0  0  0  0  0  0  0
    3.4895    1.5887    0.0000 O   0  0  0  0  0  0  0  0  0  0  0  0
    2.3335    2.4288    0.0000 C   0  0  0  0  0  0  0  0  0  0  0  0
    2.8184    3.0962    0.0000 O   0  0  0  0  0  0  0  0  0  0  0  0
    0.3166   -3.2488    0.0000 H   0  0  0  0  0  0  0  0  0  0  0  0
    1.8430    0.5384    0.0000 H   0  0  0  0  0  0  0  0  0  0  0  0
   -1.5340   -0.4727    0.0000 H   0  0  0  0  0  0  0  0  0  0  0  0
   -3.3002   -1.0467    0.0000 H   0  0  0  0  0  0  0  0  0  0  0  0
   -2.3063   -4.1056    0.0000 H   0  0  0  0  0  0  0  0  0  0  0  0
   -0.5402   -3.5319    0.0000 H   0  0  0  0  0  0  0  0  0  0  0  0
   -2.9125    0.1461    0.0000 H   0  0  0  0  0  0  0  0  0  0  0  0
   -0.3104    2.0367    0.0000 H   0  0  0  0  0  0  0  0  0  0  0  0
    0.7812    0.5344    0.0000 H   0  0  0  0  0  0  0  0  0  0  0  0
   -0.1855    0.5381    0.0000 H   0  0  0  0  0  0  0  0  0  0  0  0
    0.4433    1.4038    0.0000 H   0  0  0  0  0  0  0  0  0  0  0  0
    0.9282    2.0713    0.0000 H   0  0  0  0  0  0  0  0  0  0  0  0
    1.9924    1.9595    0.0000 H   0  0  0  0  0  0  0  0  0  0  0  0
    3.5837    0.1421    0.0000 H   0  0  0  0  0  0  0  0  0  0  0  0
    2.9548   -0.7236    0.0000 H   0  0  0  0  0  0  0  0  0  0  0  0
    2.4699   -1.3910    0.0000 H   0  0  0  0  0  0  0  0  0  0  0  0
    3.0988   -0.5254    0.0000 H   0  0  0  0  0  0  0  0  0  0  0  0
    1.2694    2.5407    0.0000 H   0  0  0  0  0  0  0  0  0  0  0  0
    1.8983    3.4063    0.0000 H   0  0  0  0  0  0  0  0  0  0  0  0
    3.7831    2.9948    0.0000 H   0  0  0  0  0  0  0  0  0  0  0  0
  1  6  1  0  0  0  0
  1  2  1  0  0  0  0
  1  5  2  0  0  0  0
  2  3  1  0  0  0  0
  2 29  1  0  0  0  0
  4  3  2  0  0  0  0
  4  5  1  0  0  0  0
  4  8  1  0  0  0  0
  5  7  1  0  0  0  0
  6  9  2  0  0  0  0
  7 18  2  0  0  0  0
  8 30  1  0  0  0  0
  9 31  1  0  0  0  0
 10  9  1  0  0  0  0
 10 11  2  0  0  0  0
 10 32  1  0  0  0  0
 11 24  1  0  0  0  0
 11 12  1  0  0  0  0
 12 13  2  0  0  0  0
 12 33  1  0  0  0  0
 13  6  1  0  0  0  0
 13 34  1  0  0  0  0
 14  7  1  0  0  0  0
 14 15  2  0  0  0  0
 15 16  1  0  0  0  0
 15 35  1  0  0  0  0
 17 16  2  0  0  0  0
 17 18  1  0  0  0  0
 17 36  1  0  0  0  0
 18 37  1  0  0  0  0
 19  8  1  0  0  0  0
 19 20  1  0  0  0  0
 19 38  1  0  0  0  0
 19 39  1  0  0  0  0
 20 21  1  0  0  0  0
 20 40  1  0  0  0  0
 20 41  1  0  0  0  0
 22 21  1  0  0  0  0
 22 23  1  0  0  0  0
 22 42  1  0  0  0  0
 22 43  1  0  0  0  0
 23  8  1  0  0  0  0
 23 44  1  0  0  0  0
 23 45  1  0  0  0  0
 25 21  1  0  0  0  0
 25 26  2  0  0  0  0
 25 27  1  0  0  0  0
 27 28  1  0  0  0  0
 27 46  1  0  0  0  0
 27 47  1  0  0  0  0
 28 48  1  0  0  0  0
M  END
>  <DRUGBANK_ID>
DB07943

>  <COMMON_NAME>
SD-0006

>  <CAS_NUMBER>
271576-80-8

>  <UNII>
C57VF8YO91

>  <SYNONYMS>
2-{4-[5-(4-chlorophenyl)-4-pyrimidin-4-yl-1H-pyrazol-3-yl]piperidin-1-yl}-2-oxoethanol; 5-p-chlorophenyl-3-[N-(2-hydroxyacetyl)piperidin-4-yl]-4-pyrimidin-4-yl-1H-pyrazole

$$$$
