
 OpenBabel10282417072D

155155  0  0  0  0  0  0  0  0999 V2000
    3.2769    0.0569    0.0000 C   0  0  2  0  0  0  0  0  0  0  0  0
    2.5433    0.4483    0.0000 C   0  0  1  0  0  0  0  0  0  0  0  0
    3.9780    0.4809    0.0000 C   0  0  0  0  0  0  0  0  0  0  0  0
    1.8423    0.0407    0.0000 C   0  0  0  0  0  0  0  0  0  0  0  0
    2.5433    1.2798    0.0000 O   0  0  0  0  0  0  0  0  0  0  0  0
    4.6954    0.0733    0.0000 O   0  0  0  0  0  0  0  0  0  0  0  0
    1.1249    0.4483    0.0000 C   0  0  0  0  0  0  0  0  0  0  0  0
    0.4076    0.0244    0.0000 C   0  0  0  0  0  0  0  0  0  0  0  0
   -0.3097    0.4321    0.0000 C   0  0  0  0  0  0  0  0  0  0  0  0
   -1.0271    0.0081    0.0000 C   0  0  0  0  0  0  0  0  0  0  0  0
   -1.7444    0.4156    0.0000 C   0  0  0  0  0  0  0  0  0  0  0  0
    6.8311    1.2961    0.0000 C   0  0  1  0  0  0  0  0  0  0  0  0
    6.8311    0.4646    0.0000 C   0  0  2  0  0  0  0  0  0  0  0  0
    6.1301    1.7037    0.0000 C   0  0  1  0  0  0  0  0  0  0  0  0
    6.1301    0.0733    0.0000 O   0  0  0  0  0  0  0  0  0  0  0  0
    7.5322    0.0733    0.0000 C   0  0  0  0  0  0  0  0  0  0  0  0
    5.3965    1.2961    0.0000 C   0  0  2  0  0  0  0  0  0  0  0  0
    6.1138    2.5188    0.0000 O   0  0  0  0  0  0  0  0  0  0  0  0
    5.3965    0.4646    0.0000 C   0  0  2  0  0  0  0  0  0  0  0  0
    8.1518    0.5950    0.0000 O   0  0  0  0  0  0  0  0  0  0  0  0
    4.6954    1.7037    0.0000 O   0  0  0  0  0  0  0  0  0  0  0  0
    7.5322    1.7037    0.0000 O   0  0  0  0  0  0  0  0  0  0  0  0
    5.4128    2.9265    0.0000 S   0  0  0  0  0  0  0  0  0  0  0  0
    5.0052    2.2253    0.0000 O   0  0  0  0  0  0  0  0  0  0  0  0
    5.8204    3.6438    0.0000 O   0  0  0  0  0  0  0  0  0  0  0  0
    4.6954    3.3340    0.0000 O   0  0  0  0  0  0  0  0  0  0  0  0
   -2.4619    0.0081    0.0000 C   0  0  0  0  0  0  0  0  0  0  0  0
   -3.1629    0.4156    0.0000 C   0  0  0  0  0  0  0  0  0  0  0  0
   -3.8802    0.0081    0.0000 C   0  0  0  0  0  0  0  0  0  0  0  0
   -4.5975    0.4156    0.0000 C   0  0  0  0  0  0  0  0  0  0  0  0
   -5.2987    0.0081    0.0000 C   0  0  0  0  0  0  0  0  0  0  0  0
   -6.0160    0.4156    0.0000 C   0  0  0  0  0  0  0  0  0  0  0  0
   -6.7334    0.0081    0.0000 C   0  0  0  0  0  0  0  0  0  0  0  0
   -7.4344    0.4156    0.0000 C   0  0  0  0  0  0  0  0  0  0  0  0
   -8.1518    0.0081    0.0000 C   0  0  0  0  0  0  0  0  0  0  0  0
    3.3096   -2.4047    0.0000 C   0  0  0  0  0  0  0  0  0  0  0  0
    2.5922   -1.9972    0.0000 C   0  0  0  0  0  0  0  0  0  0  0  0
    1.8749   -2.4047    0.0000 C   0  0  0  0  0  0  0  0  0  0  0  0
    1.1737   -1.9972    0.0000 C   0  0  0  0  0  0  0  0  0  0  0  0
    0.4565   -2.4047    0.0000 C   0  0  0  0  0  0  0  0  0  0  0  0
   -0.2608   -1.9972    0.0000 C   0  0  0  0  0  0  0  0  0  0  0  0
   -0.9618   -2.4047    0.0000 C   0  0  0  0  0  0  0  0  0  0  0  0
   -1.6793   -1.9972    0.0000 C   0  0  0  0  0  0  0  0  0  0  0  0
   -2.3966   -2.4047    0.0000 C   0  0  0  0  0  0  0  0  0  0  0  0
   -3.0976   -1.9972    0.0000 C   0  0  0  0  0  0  0  0  0  0  0  0
   -3.8150   -2.4047    0.0000 C   0  0  0  0  0  0  0  0  0  0  0  0
    3.2769   -0.7744    0.0000 N   0  0  0  0  0  0  0  0  0  0  0  0
    3.9943   -1.1657    0.0000 C   0  0  0  0  0  0  0  0  0  0  0  0
    4.0107   -1.9972    0.0000 C   0  0  2  0  0  0  0  0  0  0  0  0
    4.7117   -0.7418    0.0000 O   0  0  0  0  0  0  0  0  0  0  0  0
    4.7281   -2.3885    0.0000 O   0  0  0  0  0  0  0  0  0  0  0  0
   -3.8150   -3.2362    0.0000 C   0  0  0  0  0  0  0  0  0  0  0  0
   -3.0976   -3.6438    0.0000 C   0  0  0  0  0  0  0  0  0  0  0  0
   -2.3966   -3.2362    0.0000 C   0  0  0  0  0  0  0  0  0  0  0  0
   -1.6793   -3.6438    0.0000 C   0  0  0  0  0  0  0  0  0  0  0  0
   -0.9618   -3.2362    0.0000 C   0  0  0  0  0  0  0  0  0  0  0  0
   -0.2608   -3.6438    0.0000 C   0  0  0  0  0  0  0  0  0  0  0  0
    0.4565   -3.2362    0.0000 C   0  0  0  0  0  0  0  0  0  0  0  0
    1.1737   -3.6438    0.0000 C   0  0  0  0  0  0  0  0  0  0  0  0
    1.8749   -3.2362    0.0000 C   0  0  0  0  0  0  0  0  0  0  0  0
    2.5922   -3.6438    0.0000 C   0  0  0  0  0  0  0  0  0  0  0  0
    3.3096   -3.2362    0.0000 C   0  0  0  0  0  0  0  0  0  0  0  0
    2.3593   -0.4935    0.0000 H   0  0  0  0  0  0  0  0  0  0  0  0
    3.4609    0.9987    0.0000 H   0  0  0  0  0  0  0  0  0  0  0  0
    3.9634    1.5508    0.0000 H   0  0  0  0  0  0  0  0  0  0  0  0
    4.8991    1.0254    0.0000 H   0  0  0  0  0  0  0  0  0  0  0  0
    1.8475   -0.9913    0.0000 H   0  0  0  0  0  0  0  0  0  0  0  0
    3.3833    1.7648    0.0000 H   0  0  0  0  0  0  0  0  0  0  0  0
    1.1161    1.4803    0.0000 H   0  0  0  0  0  0  0  0  0  0  0  0
    0.4166   -1.0456    0.0000 H   0  0  0  0  0  0  0  0  0  0  0  0
   -0.5150   -0.5176    0.0000 H   0  0  0  0  0  0  0  0  0  0  0  0
   -0.3188    1.5021    0.0000 H   0  0  0  0  0  0  0  0  0  0  0  0
   -1.2413    0.9584    0.0000 H   0  0  0  0  0  0  0  0  0  0  0  0
   -1.0179   -1.0619    0.0000 H   0  0  0  0  0  0  0  0  0  0  0  0
   -1.9496   -0.5341    0.0000 H   0  0  0  0  0  0  0  0  0  0  0  0
   -1.7443    1.4856    0.0000 H   0  0  0  0  0  0  0  0  0  0  0  0
   -2.6691    0.9539    0.0000 H   0  0  0  0  0  0  0  0  0  0  0  0
    7.7586    0.7625    0.0000 H   0  0  0  0  0  0  0  0  0  0  0  0
    7.7538    1.0063    0.0000 H   0  0  0  0  0  0  0  0  0  0  0  0
    7.0522    2.2465    0.0000 H   0  0  0  0  0  0  0  0  0  0  0  0
    7.6341   -0.9918    0.0000 H   0  0  0  0  0  0  0  0  0  0  0  0
    8.5227   -0.3313    0.0000 H   0  0  0  0  0  0  0  0  0  0  0  0
    5.4069    2.3660    0.0000 H   0  0  0  0  0  0  0  0  0  0  0  0
    5.4067   -0.6054    0.0000 H   0  0  0  0  0  0  0  0  0  0  0  0
    9.0639    0.2648    0.0000 H   0  0  0  0  0  0  0  0  0  0  0  0
    4.6983    2.6737    0.0000 H   0  0  0  0  0  0  0  0  0  0  0  0
    8.3737    1.2212    0.0000 H   0  0  0  0  0  0  0  0  0  0  0  0
    4.6886    4.3040    0.0000 H   0  0  0  0  0  0  0  0  0  0  0  0
   -2.4673   -1.0619    0.0000 H   0  0  0  0  0  0  0  0  0  0  0  0
   -3.3907   -0.5232    0.0000 H   0  0  0  0  0  0  0  0  0  0  0  0
   -3.1576    1.4856    0.0000 H   0  0  0  0  0  0  0  0  0  0  0  0
   -4.0863    0.9561    0.0000 H   0  0  0  0  0  0  0  0  0  0  0  0
   -3.8802   -1.0619    0.0000 H   0  0  0  0  0  0  0  0  0  0  0  0
   -4.8050   -0.5301    0.0000 H   0  0  0  0  0  0  0  0  0  0  0  0
   -4.6027    1.4856    0.0000 H   0  0  0  0  0  0  0  0  0  0  0  0
   -5.5262    0.9470    0.0000 H   0  0  0  0  0  0  0  0  0  0  0  0
   -5.2935   -1.0619    0.0000 H   0  0  0  0  0  0  0  0  0  0  0  0
   -6.2222   -0.5324    0.0000 H   0  0  0  0  0  0  0  0  0  0  0  0
   -6.0160    1.4856    0.0000 H   0  0  0  0  0  0  0  0  0  0  0  0
   -6.9408    0.9539    0.0000 H   0  0  0  0  0  0  0  0  0  0  0  0
   -6.7387   -1.0619    0.0000 H   0  0  0  0  0  0  0  0  0  0  0  0
   -7.6622   -0.5232    0.0000 H   0  0  0  0  0  0  0  0  0  0  0  0
   -7.4291    1.4856    0.0000 H   0  0  0  0  0  0  0  0  0  0  0  0
   -8.3578    0.9562    0.0000 H   0  0  0  0  0  0  0  0  0  0  0  0
   -9.0747    0.5496    0.0000 H   0  0  0  0  0  0  0  0  0  0  0  0
   -8.1593   -1.0619    0.0000 H   0  0  0  0  0  0  0  0  0  0  0  0
   -9.0822   -0.5204    0.0000 H   0  0  0  0  0  0  0  0  0  0  0  0
    3.3149   -3.4747    0.0000 H   0  0  0  0  0  0  0  0  0  0  0  0
    4.2383   -2.9361    0.0000 H   0  0  0  0  0  0  0  0  0  0  0  0
    2.5922   -0.9272    0.0000 H   0  0  0  0  0  0  0  0  0  0  0  0
    1.6674   -1.4590    0.0000 H   0  0  0  0  0  0  0  0  0  0  0  0
    1.8697   -3.4747    0.0000 H   0  0  0  0  0  0  0  0  0  0  0  0
    0.9462   -2.9361    0.0000 H   0  0  0  0  0  0  0  0  0  0  0  0
    1.1789   -0.9272    0.0000 H   0  0  0  0  0  0  0  0  0  0  0  0
    0.2502   -1.4568    0.0000 H   0  0  0  0  0  0  0  0  0  0  0  0
    0.4565   -3.4747    0.0000 H   0  0  0  0  0  0  0  0  0  0  0  0
   -0.4683   -2.9429    0.0000 H   0  0  0  0  0  0  0  0  0  0  0  0
   -0.2661   -0.9272    0.0000 H   0  0  0  0  0  0  0  0  0  0  0  0
   -1.1896   -1.4659    0.0000 H   0  0  0  0  0  0  0  0  0  0  0  0
   -0.9564   -3.4747    0.0000 H   0  0  0  0  0  0  0  0  0  0  0  0
   -1.8852   -2.9453    0.0000 H   0  0  0  0  0  0  0  0  0  0  0  0
   -1.6794   -0.9272    0.0000 H   0  0  0  0  0  0  0  0  0  0  0  0
   -2.6041   -1.4590    0.0000 H   0  0  0  0  0  0  0  0  0  0  0  0
   -2.4019   -3.4747    0.0000 H   0  0  0  0  0  0  0  0  0  0  0  0
   -3.3254   -2.9360    0.0000 H   0  0  0  0  0  0  0  0  0  0  0  0
   -3.0923   -0.9272    0.0000 H   0  0  0  0  0  0  0  0  0  0  0  0
   -4.0210   -1.4566    0.0000 H   0  0  0  0  0  0  0  0  0  0  0  0
   -4.7398   -1.8664    0.0000 H   0  0  0  0  0  0  0  0  0  0  0  0
   -4.7426   -2.9381    0.0000 H   0  0  0  0  0  0  0  0  0  0  0  0
    2.4303   -1.2770    0.0000 H   0  0  0  0  0  0  0  0  0  0  0  0
    4.0252   -3.0671    0.0000 H   0  0  0  0  0  0  0  0  0  0  0  0
    4.7516   -3.3582    0.0000 H   0  0  0  0  0  0  0  0  0  0  0  0
   -4.7398   -3.7744    0.0000 H   0  0  0  0  0  0  0  0  0  0  0  0
   -3.8094   -4.3062    0.0000 H   0  0  0  0  0  0  0  0  0  0  0  0
   -3.0923   -4.7138    0.0000 H   0  0  0  0  0  0  0  0  0  0  0  0
   -2.1688   -4.1751    0.0000 H   0  0  0  0  0  0  0  0  0  0  0  0
   -2.4019   -2.1662    0.0000 H   0  0  0  0  0  0  0  0  0  0  0  0
   -1.4731   -2.6957    0.0000 H   0  0  0  0  0  0  0  0  0  0  0  0
   -1.6794   -4.7138    0.0000 H   0  0  0  0  0  0  0  0  0  0  0  0
   -0.7545   -4.1821    0.0000 H   0  0  0  0  0  0  0  0  0  0  0  0
   -0.9564   -2.1662    0.0000 H   0  0  0  0  0  0  0  0  0  0  0  0
   -0.0330   -2.7050    0.0000 H   0  0  0  0  0  0  0  0  0  0  0  0
   -0.2661   -4.7138    0.0000 H   0  0  0  0  0  0  0  0  0  0  0  0
    0.6627   -4.1843    0.0000 H   0  0  0  0  0  0  0  0  0  0  0  0
    0.4565   -2.1662    0.0000 H   0  0  0  0  0  0  0  0  0  0  0  0
    1.3813   -2.6981    0.0000 H   0  0  0  0  0  0  0  0  0  0  0  0
    1.1789   -4.7138    0.0000 H   0  0  0  0  0  0  0  0  0  0  0  0
    2.1024   -4.1752    0.0000 H   0  0  0  0  0  0  0  0  0  0  0  0
    1.8697   -2.1662    0.0000 H   0  0  0  0  0  0  0  0  0  0  0  0
    2.7984   -2.6958    0.0000 H   0  0  0  0  0  0  0  0  0  0  0  0
    2.5922   -4.7138    0.0000 H   0  0  0  0  0  0  0  0  0  0  0  0
    3.5170   -4.1820    0.0000 H   0  0  0  0  0  0  0  0  0  0  0  0
    4.2325   -3.7776    0.0000 H   0  0  0  0  0  0  0  0  0  0  0  0
    3.3170   -2.1662    0.0000 H   0  0  0  0  0  0  0  0  0  0  0  0
    4.2399   -2.7076    0.0000 H   0  0  0  0  0  0  0  0  0  0  0  0
  1  2  1  0  0  0  0
  1  3  1  0  0  0  0
  1 47  1  0  0  0  0
  1 63  1  1  0  0  0
  2  4  1  0  0  0  0
  2  5  1  0  0  0  0
  2 64  1  6  0  0  0
  3  6  1  0  0  0  0
  3 65  1  0  0  0  0
  3 66  1  0  0  0  0
  4  7  2  0  0  0  0
  4 67  1  0  0  0  0
  5 68  1  0  0  0  0
  7  8  1  0  0  0  0
  7 69  1  0  0  0  0
  8  9  1  0  0  0  0
  8 70  1  0  0  0  0
  8 71  1  0  0  0  0
  9 10  1  0  0  0  0
  9 72  1  0  0  0  0
  9 73  1  0  0  0  0
 10 11  1  0  0  0  0
 10 74  1  0  0  0  0
 10 75  1  0  0  0  0
 11 27  1  0  0  0  0
 11 76  1  0  0  0  0
 11 77  1  0  0  0  0
 12 13  1  0  0  0  0
 12 14  1  0  0  0  0
 12 22  1  0  0  0  0
 12 78  1  6  0  0  0
 13 15  1  0  0  0  0
 13 16  1  0  0  0  0
 13 79  1  6  0  0  0
 14 17  1  0  0  0  0
 14 18  1  0  0  0  0
 14 80  1  6  0  0  0
 15 19  1  0  0  0  0
 16 20  1  0  0  0  0
 16 81  1  0  0  0  0
 16 82  1  0  0  0  0
 17 21  1  0  0  0  0
 17 19  1  0  0  0  0
 17 83  1  1  0  0  0
 18 23  1  0  0  0  0
 19  6  1  0  0  0  0
 19 84  1  6  0  0  0
 20 85  1  0  0  0  0
 21 86  1  0  0  0  0
 22 87  1  0  0  0  0
 23 24  2  0  0  0  0
 23 25  2  0  0  0  0
 23 26  1  0  0  0  0
 26 88  1  0  0  0  0
 27 28  1  0  0  0  0
 27 89  1  0  0  0  0
 27 90  1  0  0  0  0
 28 29  1  0  0  0  0
 28 91  1  0  0  0  0
 28 92  1  0  0  0  0
 29 30  1  0  0  0  0
 29 93  1  0  0  0  0
 29 94  1  0  0  0  0
 30 31  1  0  0  0  0
 30 95  1  0  0  0  0
 30 96  1  0  0  0  0
 31 32  1  0  0  0  0
 31 97  1  0  0  0  0
 31 98  1  0  0  0  0
 32 33  1  0  0  0  0
 32 99  1  0  0  0  0
 32100  1  0  0  0  0
 33 34  1  0  0  0  0
 33101  1  0  0  0  0
 33102  1  0  0  0  0
 34 35  1  0  0  0  0
 34103  1  0  0  0  0
 34104  1  0  0  0  0
 35105  1  0  0  0  0
 35106  1  0  0  0  0
 35107  1  0  0  0  0
 36 37  1  0  0  0  0
 36 49  1  0  0  0  0
 36108  1  0  0  0  0
 36109  1  0  0  0  0
 37 38  1  0  0  0  0
 37110  1  0  0  0  0
 37111  1  0  0  0  0
 38 39  1  0  0  0  0
 38112  1  0  0  0  0
 38113  1  0  0  0  0
 39 40  1  0  0  0  0
 39114  1  0  0  0  0
 39115  1  0  0  0  0
 40 41  1  0  0  0  0
 40116  1  0  0  0  0
 40117  1  0  0  0  0
 41 42  1  0  0  0  0
 41118  1  0  0  0  0
 41119  1  0  0  0  0
 42 43  1  0  0  0  0
 42120  1  0  0  0  0
 42121  1  0  0  0  0
 43 44  1  0  0  0  0
 43122  1  0  0  0  0
 43123  1  0  0  0  0
 44 45  1  0  0  0  0
 44124  1  0  0  0  0
 44125  1  0  0  0  0
 45 46  1  0  0  0  0
 45126  1  0  0  0  0
 45127  1  0  0  0  0
 46 52  1  0  0  0  0
 46128  1  0  0  0  0
 46129  1  0  0  0  0
 47 48  1  0  0  0  0
 47130  1  0  0  0  0
 48 49  1  0  0  0  0
 48 50  2  0  0  0  0
 49 51  1  0  0  0  0
 49131  1  1  0  0  0
 51132  1  0  0  0  0
 52 53  1  0  0  0  0
 52133  1  0  0  0  0
 52134  1  0  0  0  0
 53 54  1  0  0  0  0
 53135  1  0  0  0  0
 53136  1  0  0  0  0
 54 55  1  0  0  0  0
 54137  1  0  0  0  0
 54138  1  0  0  0  0
 55 56  1  0  0  0  0
 55139  1  0  0  0  0
 55140  1  0  0  0  0
 56 57  1  0  0  0  0
 56141  1  0  0  0  0
 56142  1  0  0  0  0
 57 58  1  0  0  0  0
 57143  1  0  0  0  0
 57144  1  0  0  0  0
 58 59  1  0  0  0  0
 58145  1  0  0  0  0
 58146  1  0  0  0  0
 59 60  1  0  0  0  0
 59147  1  0  0  0  0
 59148  1  0  0  0  0
 60 61  1  0  0  0  0
 60149  1  0  0  0  0
 60150  1  0  0  0  0
 61 62  1  0  0  0  0
 61151  1  0  0  0  0
 61152  1  0  0  0  0
 62153  1  0  0  0  0
 62154  1  0  0  0  0
 62155  1  0  0  0  0
M  END
>  <DRUGBANK_ID>
DB04780

>  <COMMON_NAME>
Sulfatide

>  <SYNONYMS>
2-hydroxytetracosanoyl sulfatide; 2-hydroxytetracosanoylgalactosylceramide sulfate

$$$$
