
 OpenBabel10282417072D

 71 75  0  0  1  0  0  0  0  0999 V2000
   -2.2685   -2.8121    0.0000 C   0  0  0  0  0  0  0  0  0  0  0  0
   -1.5541   -3.2246    0.0000 N   0  0  0  0  0  0  0  0  0  0  0  0
   -0.8396   -2.8121    0.0000 C   0  0  0  0  0  0  0  0  0  0  0  0
   -0.1251   -3.2246    0.0000 C   0  0  0  0  0  0  0  0  0  0  0  0
   -0.1251   -4.0496    0.0000 N   0  0  0  0  0  0  0  0  0  0  0  0
    0.5893   -4.4621    0.0000 C   0  0  0  0  0  0  0  0  0  0  0  0
    1.3038   -4.0496    0.0000 C   0  0  0  0  0  0  0  0  0  0  0  0
    2.0183   -4.4621    0.0000 C   0  0  0  0  0  0  0  0  0  0  0  0
    2.7327   -4.0496    0.0000 N   0  0  0  0  0  0  0  0  0  0  0  0
    3.4472   -4.4621    0.0000 C   0  0  0  0  0  0  0  0  0  0  0  0
    3.4472   -5.2871    0.0000 O   0  0  0  0  0  0  0  0  0  0  0  0
    4.1617   -4.0496    0.0000 C   0  0  0  0  0  0  0  0  0  0  0  0
    4.8762   -4.4621    0.0000 C   0  0  2  0  0  0  0  0  0  0  0  0
    5.5578   -3.9974    0.0000 N   0  0  0  0  0  0  0  0  0  0  0  0
    6.3462   -4.2405    0.0000 C   0  0  0  0  0  0  0  0  0  0  0  0
    6.6476   -5.0085    0.0000 C   0  0  0  0  0  0  0  0  0  0  0  0
    6.2351   -5.7230    0.0000 C   0  0  0  0  0  0  0  0  0  0  0  0
    6.7871   -6.3361    0.0000 S   0  0  0  0  0  0  0  0  0  0  0  0
    7.5408   -6.0005    0.0000 C   0  0  0  0  0  0  0  0  0  0  0  0
    8.2552   -6.4130    0.0000 C   0  0  0  0  0  0  0  0  0  0  0  0
    7.4545   -5.1800    0.0000 C   0  0  0  0  0  0  0  0  0  0  0  0
    8.0676   -4.6280    0.0000 C   0  0  0  0  0  0  0  0  0  0  0  0
    5.4193   -5.8459    0.0000 N   0  0  0  0  0  0  0  0  0  0  0  0
    5.0725   -6.5945    0.0000 C   0  0  0  0  0  0  0  0  0  0  0  0
    5.4742   -7.3151    0.0000 C   0  0  0  0  0  0  0  0  0  0  0  0
    4.2534   -6.4960    0.0000 N   0  0  0  0  0  0  0  0  0  0  0  0
    4.0939   -5.6866    0.0000 N   0  0  0  0  0  0  0  0  0  0  0  0
    4.8145   -5.2848    0.0000 C   0  0  0  0  0  0  0  0  0  0  0  0
    6.9073   -3.6358    0.0000 C   0  0  0  0  0  0  0  0  0  0  0  0
    6.6641   -2.8474    0.0000 C   0  0  0  0  0  0  0  0  0  0  0  0
    7.2253   -2.2427    0.0000 C   0  0  0  0  0  0  0  0  0  0  0  0
    8.0296   -2.4262    0.0000 C   0  0  0  0  0  0  0  0  0  0  0  0
    8.5907   -1.8215    0.0000 Cl  0  0  0  0  0  0  0  0  0  0  0  0
    8.2728   -3.2146    0.0000 C   0  0  0  0  0  0  0  0  0  0  0  0
    7.7116   -3.8194    0.0000 C   0  0  0  0  0  0  0  0  0  0  0  0
   -0.8396   -4.4621    0.0000 C   0  0  0  0  0  0  0  0  0  0  0  0
   -1.5541   -4.0496    0.0000 C   0  0  0  0  0  0  0  0  0  0  0  0
   -2.2685   -1.7421    0.0000 H   0  0  0  0  0  0  0  0  0  0  0  0
   -3.1952   -3.3471    0.0000 H   0  0  0  0  0  0  0  0  0  0  0  0
   -3.1951   -2.2771    0.0000 H   0  0  0  0  0  0  0  0  0  0  0  0
   -0.8396   -1.7421    0.0000 H   0  0  0  0  0  0  0  0  0  0  0  0
    0.0870   -2.2771    0.0000 H   0  0  0  0  0  0  0  0  0  0  0  0
    0.8015   -2.6896    0.0000 H   0  0  0  0  0  0  0  0  0  0  0  0
    0.8015   -3.7596    0.0000 H   0  0  0  0  0  0  0  0  0  0  0  0
    0.5893   -5.5321    0.0000 H   0  0  0  0  0  0  0  0  0  0  0  0
    1.5159   -4.9971    0.0000 H   0  0  0  0  0  0  0  0  0  0  0  0
    1.3038   -2.9796    0.0000 H   0  0  0  0  0  0  0  0  0  0  0  0
    2.2304   -3.5146    0.0000 H   0  0  0  0  0  0  0  0  0  0  0  0
    2.0183   -5.5321    0.0000 H   0  0  0  0  0  0  0  0  0  0  0  0
    2.9450   -4.9971    0.0000 H   0  0  0  0  0  0  0  0  0  0  0  0
    2.7327   -3.0651    0.0000 H   0  0  0  0  0  0  0  0  0  0  0  0
    4.1617   -2.9796    0.0000 H   0  0  0  0  0  0  0  0  0  0  0  0
    5.0883   -3.5146    0.0000 H   0  0  0  0  0  0  0  0  0  0  0  0
    4.8362   -3.3928    0.0000 H   0  0  0  0  0  0  0  0  0  0  0  0
    8.2552   -7.4830    0.0000 H   0  0  0  0  0  0  0  0  0  0  0  0
    9.1819   -5.8780    0.0000 H   0  0  0  0  0  0  0  0  0  0  0  0
    9.1818   -6.9480    0.0000 H   0  0  0  0  0  0  0  0  0  0  0  0
    9.0852   -4.9587    0.0000 H   0  0  0  0  0  0  0  0  0  0  0  0
    7.8452   -3.5814    0.0000 H   0  0  0  0  0  0  0  0  0  0  0  0
    8.8628   -3.9121    0.0000 H   0  0  0  0  0  0  0  0  0  0  0  0
    4.9253   -8.2336    0.0000 H   0  0  0  0  0  0  0  0  0  0  0  0
    6.5441   -7.3312    0.0000 H   0  0  0  0  0  0  0  0  0  0  0  0
    5.9952   -8.2497    0.0000 H   0  0  0  0  0  0  0  0  0  0  0  0
    5.6580   -2.6177    0.0000 H   0  0  0  0  0  0  0  0  0  0  0  0
    6.9211   -1.2565    0.0000 H   0  0  0  0  0  0  0  0  0  0  0  0
    9.2789   -3.4442    0.0000 H   0  0  0  0  0  0  0  0  0  0  0  0
    8.0158   -4.8056    0.0000 H   0  0  0  0  0  0  0  0  0  0  0  0
   -0.8396   -5.5321    0.0000 H   0  0  0  0  0  0  0  0  0  0  0  0
   -1.7662   -4.9971    0.0000 H   0  0  0  0  0  0  0  0  0  0  0  0
   -2.4807   -4.5846    0.0000 H   0  0  0  0  0  0  0  0  0  0  0  0
   -2.4807   -3.5146    0.0000 H   0  0  0  0  0  0  0  0  0  0  0  0
  1  2  1  0  0  0  0
  1 38  1  0  0  0  0
  1 39  1  0  0  0  0
  1 40  1  0  0  0  0
  2  3  1  0  0  0  0
  2 37  1  0  0  0  0
  3  4  1  0  0  0  0
  3 41  1  0  0  0  0
  3 42  1  0  0  0  0
  4  5  1  0  0  0  0
  4 43  1  0  0  0  0
  4 44  1  0  0  0  0
  5  6  1  0  0  0  0
  5 36  1  0  0  0  0
  6  7  1  0  0  0  0
  6 45  1  0  0  0  0
  6 46  1  0  0  0  0
  7  8  1  0  0  0  0
  7 47  1  0  0  0  0
  7 48  1  0  0  0  0
  8  9  1  0  0  0  0
  8 49  1  0  0  0  0
  8 50  1  0  0  0  0
  9 10  1  0  0  0  0
  9 51  1  0  0  0  0
 10 11  2  0  0  0  0
 10 12  1  0  0  0  0
 12 52  1  0  0  0  0
 12 53  1  0  0  0  0
 13 12  1  0  0  0  0
 13 14  1  0  0  0  0
 13 28  1  0  0  0  0
 13 54  1  1  0  0  0
 14 15  2  0  0  0  0
 15 16  1  0  0  0  0
 15 29  1  0  0  0  0
 16 17  2  0  0  0  0
 16 21  1  0  0  0  0
 17 18  1  0  0  0  0
 17 23  1  0  0  0  0
 18 19  1  0  0  0  0
 19 20  1  0  0  0  0
 19 21  2  0  0  0  0
 20 55  1  0  0  0  0
 20 56  1  0  0  0  0
 20 57  1  0  0  0  0
 21 22  1  0  0  0  0
 22 58  1  0  0  0  0
 22 59  1  0  0  0  0
 22 60  1  0  0  0  0
 23 24  1  0  0  0  0
 23 28  1  0  0  0  0
 24 25  1  0  0  0  0
 24 26  2  0  0  0  0
 25 61  1  0  0  0  0
 25 62  1  0  0  0  0
 25 63  1  0  0  0  0
 26 27  1  0  0  0  0
 27 28  2  0  0  0  0
 29 30  2  0  0  0  0
 29 35  1  0  0  0  0
 30 31  1  0  0  0  0
 30 64  1  0  0  0  0
 31 32  2  0  0  0  0
 31 65  1  0  0  0  0
 32 33  1  0  0  0  0
 32 34  1  0  0  0  0
 34 35  2  0  0  0  0
 34 66  1  0  0  0  0
 35 67  1  0  0  0  0
 36 37  1  0  0  0  0
 36 68  1  0  0  0  0
 36 69  1  0  0  0  0
 37 70  1  0  0  0  0
 37 71  1  0  0  0  0
M  END
>  <DRUGBANK_ID>
DB15151

>  <COMMON_NAME>
RO-6870810

>  <CAS_NUMBER>
1349719-98-7

>  <UNII>
TA3QN7788D

$$$$
