
 OpenBabel10282417072D

 52 53  0  0  1  0  0  0  0  0999 V2000
    3.5220    1.2375    0.0000 S   0  0  0  0  0  0  0  0  0  0  0  0
    4.9509   -2.0625    0.0000 O   0  0  0  0  0  0  0  0  0  0  0  0
    3.5220   -2.0625    0.0000 O   0  0  0  0  0  0  0  0  0  0  0  0
    4.3470    1.2375    0.0000 O   0  0  0  0  0  0  0  0  0  0  0  0
    2.6970    1.2375    0.0000 O   0  0  0  0  0  0  0  0  0  0  0  0
    7.1806   -0.0045    0.0000 N   0  0  0  0  0  0  0  0  0  0  0  0
    5.6655   -0.8250    0.0000 N   0  0  0  0  0  0  0  0  0  0  0  0
    2.0930    0.4125    0.0000 N   0  0  0  0  0  0  0  0  0  0  0  0
    7.0944   -0.8250    0.0000 C   0  0  3  0  0  0  0  0  0  0  0  0
    7.8482   -1.1606    0.0000 C   0  0  0  0  0  0  0  0  0  0  0  0
    8.4002   -0.5475    0.0000 C   0  0  0  0  0  0  0  0  0  0  0  0
    7.9877    0.1670    0.0000 C   0  0  0  0  0  0  0  0  0  0  0  0
    6.3799   -1.2375    0.0000 C   0  0  0  0  0  0  0  0  0  0  0  0
    6.5676    0.5476    0.0000 C   0  0  0  0  0  0  0  0  0  0  0  0
    6.7391    1.3545    0.0000 C   0  0  0  0  0  0  0  0  0  0  0  0
    4.9509   -1.2375    0.0000 C   0  0  0  0  0  0  0  0  0  0  0  0
    4.2365   -0.8250    0.0000 C   0  0  0  0  0  0  0  0  0  0  0  0
    3.5220    0.4125    0.0000 C   0  0  0  0  0  0  0  0  0  0  0  0
    4.2365    0.0000    0.0000 C   0  0  0  0  0  0  0  0  0  0  0  0
    3.5220   -1.2375    0.0000 C   0  0  0  0  0  0  0  0  0  0  0  0
    2.8075    0.0000    0.0000 C   0  0  0  0  0  0  0  0  0  0  0  0
    2.8075   -0.8250    0.0000 C   0  0  0  0  0  0  0  0  0  0  0  0
    3.5220    2.0625    0.0000 C   0  0  0  0  0  0  0  0  0  0  0  0
    4.2365    2.4751    0.0000 C   0  0  0  0  0  0  0  0  0  0  0  0
    2.8075   -2.4751    0.0000 C   0  0  0  0  0  0  0  0  0  0  0  0
    5.6656    0.1595    0.0000 H   0  0  0  0  0  0  0  0  0  0  0  0
    2.0930    1.3970    0.0000 H   0  0  0  0  0  0  0  0  0  0  0  0
    1.2404   -0.0798    0.0000 H   0  0  0  0  0  0  0  0  0  0  0  0
    8.0210   -0.2900    0.0000 H   0  0  0  0  0  0  0  0  0  0  0  0
    8.0707   -2.2072    0.0000 H   0  0  0  0  0  0  0  0  0  0  0  0
    8.8817   -1.4375    0.0000 H   0  0  0  0  0  0  0  0  0  0  0  0
    9.4643   -0.6593    0.0000 H   0  0  0  0  0  0  0  0  0  0  0  0
    8.9830    0.3499    0.0000 H   0  0  0  0  0  0  0  0  0  0  0  0
    8.4229    1.1445    0.0000 H   0  0  0  0  0  0  0  0  0  0  0  0
    9.0562    0.2230    0.0000 H   0  0  0  0  0  0  0  0  0  0  0  0
    6.3799   -2.3075    0.0000 H   0  0  0  0  0  0  0  0  0  0  0  0
    7.3065   -1.7725    0.0000 H   0  0  0  0  0  0  0  0  0  0  0  0
    5.5499    0.2170    0.0000 H   0  0  0  0  0  0  0  0  0  0  0  0
    5.7725    1.2636    0.0000 H   0  0  0  0  0  0  0  0  0  0  0  0
    7.7567    1.6852    0.0000 H   0  0  0  0  0  0  0  0  0  0  0  0
    5.9439    2.0705    0.0000 H   0  0  0  0  0  0  0  0  0  0  0  0
    6.9616    2.4011    0.0000 H   0  0  0  0  0  0  0  0  0  0  0  0
    5.1302    0.5160    0.0000 H   0  0  0  0  0  0  0  0  0  0  0  0
    1.9138   -1.3410    0.0000 H   0  0  0  0  0  0  0  0  0  0  0  0
    2.5953    2.5975    0.0000 H   0  0  0  0  0  0  0  0  0  0  0  0
    3.5219    3.1325    0.0000 H   0  0  0  0  0  0  0  0  0  0  0  0
    5.1632    1.9402    0.0000 H   0  0  0  0  0  0  0  0  0  0  0  0
    4.2364    3.5451    0.0000 H   0  0  0  0  0  0  0  0  0  0  0  0
    5.1631    3.0102    0.0000 H   0  0  0  0  0  0  0  0  0  0  0  0
    1.8808   -1.9402    0.0000 H   0  0  0  0  0  0  0  0  0  0  0  0
    2.8076   -3.5451    0.0000 H   0  0  0  0  0  0  0  0  0  0  0  0
    1.8809   -3.0102    0.0000 H   0  0  0  0  0  0  0  0  0  0  0  0
  1  4  2  0  0  0  0
  1  5  2  0  0  0  0
  1 18  1  0  0  0  0
  1 23  1  0  0  0  0
  2 16  2  0  0  0  0
  3 20  1  0  0  0  0
  3 25  1  0  0  0  0
  6  9  1  0  0  0  0
  6 12  1  0  0  0  0
  6 14  1  0  0  0  0
  7 13  1  0  0  0  0
  7 16  1  0  0  0  0
  7 26  1  0  0  0  0
  8 21  1  0  0  0  0
  8 27  1  0  0  0  0
  8 28  1  0  0  0  0
  9 10  1  0  0  0  0
  9 13  1  0  0  0  0
  9 29  1  0  0  0  0
 10 11  1  0  0  0  0
 10 30  1  0  0  0  0
 10 31  1  0  0  0  0
 11 12  1  0  0  0  0
 11 32  1  0  0  0  0
 11 33  1  0  0  0  0
 12 34  1  0  0  0  0
 12 35  1  0  0  0  0
 13 36  1  0  0  0  0
 13 37  1  0  0  0  0
 14 15  1  0  0  0  0
 14 38  1  0  0  0  0
 14 39  1  0  0  0  0
 15 40  1  0  0  0  0
 15 41  1  0  0  0  0
 15 42  1  0  0  0  0
 16 17  1  0  0  0  0
 17 19  2  0  0  0  0
 17 20  1  0  0  0  0
 18 19  1  0  0  0  0
 18 21  2  0  0  0  0
 19 43  1  0  0  0  0
 20 22  2  0  0  0  0
 21 22  1  0  0  0  0
 22 44  1  0  0  0  0
 23 24  1  0  0  0  0
 23 45  1  0  0  0  0
 23 46  1  0  0  0  0
 24 47  1  0  0  0  0
 24 48  1  0  0  0  0
 24 49  1  0  0  0  0
 25 50  1  0  0  0  0
 25 51  1  0  0  0  0
 25 52  1  0  0  0  0
M  END
>  <DRUGBANK_ID>
DB06288

>  <COMMON_NAME>
Amisulpride

>  <CAS_NUMBER>
71675-85-9

>  <UNII>
8110R61I4U

>  <SYNONYMS>
4-Amino-N-((1-ethyl-2-pyrrolidinyl)methyl)-5-(ethylsulfonyl)-2-methoxybenzamide; 4-Amino-N-((1-ethyl-2-pyrrolidinyl)methyl)-5-(ethylsulfonyl)-O-anisamide; Aminosultopride; Amisulprida; Amisulpride; Amisulpridum

$$$$
