IP7
 OpenBabel10282417072D

 55 59  0  0  0  0  0  0  0  0999 V2000
    2.2421   -2.7914    0.0000 N   0  0  0  0  0  0  0  0  0  0  0  0
    1.5276   -3.2039    0.0000 C   0  0  0  0  0  0  0  0  0  0  0  0
    1.5276   -4.0289    0.0000 N   0  0  0  0  0  0  0  0  0  0  0  0
    0.8132   -4.4414    0.0000 C   0  0  0  0  0  0  0  0  0  0  0  0
    0.0987   -4.0289    0.0000 C   0  0  0  0  0  0  0  0  0  0  0  0
    0.0987   -3.2039    0.0000 C   0  0  0  0  0  0  0  0  0  0  0  0
    0.8132   -2.7914    0.0000 C   0  0  0  0  0  0  0  0  0  0  0  0
    0.8132   -1.9664    0.0000 N   0  0  0  0  0  0  0  0  0  0  0  0
    0.0987   -1.5539    0.0000 C   0  0  0  0  0  0  0  0  0  0  0  0
    0.0987   -0.7289    0.0000 C   0  0  0  0  0  0  0  0  0  0  0  0
   -0.6158   -0.3164    0.0000 C   0  0  0  0  0  0  0  0  0  0  0  0
   -0.6158    0.5086    0.0000 C   0  0  0  0  0  0  0  0  0  0  0  0
    0.0987    0.9211    0.0000 C   0  0  0  0  0  0  0  0  0  0  0  0
    0.8132    0.5086    0.0000 C   0  0  0  0  0  0  0  0  0  0  0  0
    0.8132   -0.3164    0.0000 C   0  0  0  0  0  0  0  0  0  0  0  0
    1.5276   -0.7289    0.0000 O   0  0  0  0  0  0  0  0  0  0  0  0
    2.2421   -0.3164    0.0000 C   0  0  0  0  0  0  0  0  0  0  0  0
    2.9566   -0.7289    0.0000 C   0  0  0  0  0  0  0  0  0  0  0  0
    2.9566   -1.5539    0.0000 C   0  0  0  0  0  0  0  0  0  0  0  0
    3.6711   -1.9664    0.0000 C   0  0  0  0  0  0  0  0  0  0  0  0
    4.3855   -1.5539    0.0000 C   0  0  0  0  0  0  0  0  0  0  0  0
    4.3855   -0.7289    0.0000 C   0  0  0  0  0  0  0  0  0  0  0  0
    3.6711   -0.3164    0.0000 N   0  0  0  0  0  0  0  0  0  0  0  0
   -1.3302    0.9211    0.0000 C   0  0  0  0  0  0  0  0  0  0  0  0
   -1.3302    1.7461    0.0000 C   0  0  0  0  0  0  0  0  0  0  0  0
   -2.0447    2.1586    0.0000 C   0  0  0  0  0  0  0  0  0  0  0  0
   -2.7592    1.7461    0.0000 C   0  0  0  0  0  0  0  0  0  0  0  0
   -3.5438    2.0010    0.0000 C   0  0  0  0  0  0  0  0  0  0  0  0
   -4.0287    1.3336    0.0000 C   0  0  0  0  0  0  0  0  0  0  0  0
   -3.5438    0.6662    0.0000 N   0  0  0  0  0  0  0  0  0  0  0  0
   -2.7592    0.9211    0.0000 C   0  0  0  0  0  0  0  0  0  0  0  0
   -2.0447    0.5086    0.0000 C   0  0  0  0  0  0  0  0  0  0  0  0
    3.0947   -3.2837    0.0000 H   0  0  0  0  0  0  0  0  0  0  0  0
    2.2421   -1.8069    0.0000 H   0  0  0  0  0  0  0  0  0  0  0  0
    0.8132   -5.4734    0.0000 H   0  0  0  0  0  0  0  0  0  0  0  0
   -0.7950   -4.5449    0.0000 H   0  0  0  0  0  0  0  0  0  0  0  0
   -0.7950   -2.6879    0.0000 H   0  0  0  0  0  0  0  0  0  0  0  0
    1.6658   -1.4741    0.0000 H   0  0  0  0  0  0  0  0  0  0  0  0
   -0.8279   -2.0889    0.0000 H   0  0  0  0  0  0  0  0  0  0  0  0
   -0.8279   -1.0189    0.0000 H   0  0  0  0  0  0  0  0  0  0  0  0
   -1.5095   -0.8324    0.0000 H   0  0  0  0  0  0  0  0  0  0  0  0
    0.0987    1.9531    0.0000 H   0  0  0  0  0  0  0  0  0  0  0  0
    1.7069    1.0246    0.0000 H   0  0  0  0  0  0  0  0  0  0  0  0
    2.2421    0.7536    0.0000 H   0  0  0  0  0  0  0  0  0  0  0  0
    3.1687    0.2186    0.0000 H   0  0  0  0  0  0  0  0  0  0  0  0
    2.0629   -2.0699    0.0000 H   0  0  0  0  0  0  0  0  0  0  0  0
    3.6711   -2.9984    0.0000 H   0  0  0  0  0  0  0  0  0  0  0  0
    5.2792   -2.0699    0.0000 H   0  0  0  0  0  0  0  0  0  0  0  0
    5.2792   -0.2129    0.0000 H   0  0  0  0  0  0  0  0  0  0  0  0
   -0.4365    2.2621    0.0000 H   0  0  0  0  0  0  0  0  0  0  0  0
   -2.0447    3.1906    0.0000 H   0  0  0  0  0  0  0  0  0  0  0  0
   -3.8627    2.9825    0.0000 H   0  0  0  0  0  0  0  0  0  0  0  0
   -5.0607    1.3336    0.0000 H   0  0  0  0  0  0  0  0  0  0  0  0
   -3.8480   -0.2701    0.0000 H   0  0  0  0  0  0  0  0  0  0  0  0
   -2.0447   -0.5234    0.0000 H   0  0  0  0  0  0  0  0  0  0  0  0
  1  2  1  0  0  0  0
  1 33  1  0  0  0  0
  1 34  1  0  0  0  0
  2  3  2  0  0  0  0
  2  7  1  0  0  0  0
  3  4  1  0  0  0  0
  4  5  2  0  0  0  0
  4 35  1  0  0  0  0
  5  6  1  0  0  0  0
  5 36  1  0  0  0  0
  6  7  2  0  0  0  0
  6 37  1  0  0  0  0
  7  8  1  0  0  0  0
  8  9  1  0  0  0  0
  8 38  1  0  0  0  0
  9 10  1  0  0  0  0
  9 39  1  0  0  0  0
  9 40  1  0  0  0  0
 10 11  1  0  0  0  0
 10 15  2  0  0  0  0
 11 12  2  0  0  0  0
 11 41  1  0  0  0  0
 12 24  1  0  0  0  0
 12 13  1  0  0  0  0
 13 14  2  0  0  0  0
 13 42  1  0  0  0  0
 14 15  1  0  0  0  0
 14 43  1  0  0  0  0
 15 16  1  0  0  0  0
 16 17  1  0  0  0  0
 17 18  1  0  0  0  0
 17 44  1  0  0  0  0
 17 45  1  0  0  0  0
 18 23  2  0  0  0  0
 18 19  1  0  0  0  0
 19 20  2  0  0  0  0
 19 46  1  0  0  0  0
 20 21  1  0  0  0  0
 20 47  1  0  0  0  0
 21 22  2  0  0  0  0
 21 48  1  0  0  0  0
 22 23  1  0  0  0  0
 22 49  1  0  0  0  0
 24 32  2  0  0  0  0
 24 25  1  0  0  0  0
 25 26  2  0  0  0  0
 25 50  1  0  0  0  0
 26 27  1  0  0  0  0
 26 51  1  0  0  0  0
 27 28  1  0  0  0  0
 27 31  2  0  0  0  0
 28 29  2  0  0  0  0
 28 52  1  0  0  0  0
 29 30  1  0  0  0  0
 29 53  1  0  0  0  0
 30 31  1  0  0  0  0
 30 54  1  0  0  0  0
 31 32  1  0  0  0  0
 32 55  1  0  0  0  0
M  END
>  <DRUGBANK_ID>
DB07994

>  <COMMON_NAME>
N~3~-[5-(1H-INDOL-6-YL)-2-(PYRIDIN-2-YLMETHOXY)BENZYL]PYRIDINE-2,3-DIAMINE

$$$$
