
 OpenBabel10282417072D

 35 37  0  0  0  0  0  0  0  0999 V2000
    4.6575    3.9476    0.0000 C   0  0  0  0  0  0  0  0  0  0  0  0
    4.0527    3.3865    0.0000 C   0  0  0  0  0  0  0  0  0  0  0  0
    3.0808   -2.2457    0.0000 C   0  0  0  0  0  0  0  0  0  0  0  0
    3.8691   -2.0025    0.0000 C   0  0  0  0  0  0  0  0  0  0  0  0
    2.4760   -1.6845    0.0000 C   0  0  0  0  0  0  0  0  0  0  0  0
    4.0527   -1.1982    0.0000 C   0  0  0  0  0  0  0  0  0  0  0  0
    2.6596   -0.8802    0.0000 C   0  0  0  0  0  0  0  0  0  0  0  0
    1.5575    1.5066    0.0000 C   0  0  0  0  0  0  0  0  0  0  0  0
    2.2720    1.9191    0.0000 C   0  0  0  0  0  0  0  0  0  0  0  0
    3.4479    2.8253    0.0000 C   0  0  0  0  0  0  0  0  0  0  0  0
    2.2720    0.2691    0.0000 C   0  0  0  0  0  0  0  0  0  0  0  0
    4.7938    1.0941    0.0000 C   0  0  0  0  0  0  0  0  0  0  0  0
    3.4479   -0.6370    0.0000 C   0  0  0  0  0  0  0  0  0  0  0  0
    1.5575    0.6816    0.0000 C   0  0  0  0  0  0  0  0  0  0  0  0
    2.9865    0.6816    0.0000 C   0  0  0  0  0  0  0  0  0  0  0  0
    2.9865    1.5066    0.0000 C   0  0  0  0  0  0  0  0  0  0  0  0
    4.4358    1.8374    0.0000 C   0  0  0  0  0  0  0  0  0  0  0  0
    3.6315    0.1673    0.0000 C   0  0  0  0  0  0  0  0  0  0  0  0
    0.8431    0.2691    0.0000 Cl  0  0  0  0  0  0  0  0  0  0  0  0
    4.4358    0.3508    0.0000 N   0  0  0  0  0  0  0  0  0  0  0  0
    3.6315    2.0210    0.0000 N   0  0  0  0  0  0  0  0  0  0  0  0
    4.9502    2.4825    0.0000 O   0  0  0  0  0  0  0  0  0  0  0  0
    5.3862    4.6236    0.0000 H   0  0  0  0  0  0  0  0  0  0  0  0
    2.8512   -3.2518    0.0000 H   0  0  0  0  0  0  0  0  0  0  0  0
    4.6256   -2.7044    0.0000 H   0  0  0  0  0  0  0  0  0  0  0  0
    1.4898   -1.9887    0.0000 H   0  0  0  0  0  0  0  0  0  0  0  0
    5.0389   -0.8940    0.0000 H   0  0  0  0  0  0  0  0  0  0  0  0
    1.9031   -0.1783    0.0000 H   0  0  0  0  0  0  0  0  0  0  0  0
    0.6638    2.0226    0.0000 H   0  0  0  0  0  0  0  0  0  0  0  0
    2.2720    2.9511    0.0000 H   0  0  0  0  0  0  0  0  0  0  0  0
    2.4254    3.1407    0.0000 H   0  0  0  0  0  0  0  0  0  0  0  0
    2.6636    2.0975    0.0000 H   0  0  0  0  0  0  0  0  0  0  0  0
    2.2720   -0.7629    0.0000 H   0  0  0  0  0  0  0  0  0  0  0  0
    5.8638    1.0941    0.0000 H   0  0  0  0  0  0  0  0  0  0  0  0
    5.3631    0.1881    0.0000 H   0  0  0  0  0  0  0  0  0  0  0  0
  1 23  1  0  0  0  0
  2  1  3  0  0  0  0
  3 24  1  0  0  0  0
  4  3  2  0  0  0  0
  4 25  1  0  0  0  0
  5  3  1  0  0  0  0
  5 26  1  0  0  0  0
  6  4  1  0  0  0  0
  6 27  1  0  0  0  0
  7  5  2  0  0  0  0
  7 28  1  0  0  0  0
  8 29  1  0  0  0  0
  9  8  2  0  0  0  0
  9 30  1  0  0  0  0
 10  2  1  0  0  0  0
 10 31  1  0  0  0  0
 10 32  1  0  0  0  0
 11 33  1  0  0  0  0
 12 34  1  0  0  0  0
 12 35  1  0  0  0  0
 13  6  2  0  0  0  0
 13  7  1  0  0  0  0
 14  8  1  0  0  0  0
 14 11  2  0  0  0  0
 15 11  1  0  0  0  0
 16  9  1  0  0  0  0
 16 15  2  0  0  0  0
 17 12  1  0  0  0  0
 18 13  1  0  0  0  0
 18 15  1  0  0  0  0
 19 14  1  0  0  0  0
 20 12  1  0  0  0  0
 20 18  2  0  0  0  0
 21 10  1  0  0  0  0
 21 16  1  0  0  0  0
 21 17  1  0  0  0  0
 22 17  2  0  0  0  0
M  END
>  <DRUGBANK_ID>
DB13335

>  <COMMON_NAME>
Pinazepam

>  <CAS_NUMBER>
52463-83-9

>  <UNII>
5286RBZ882

>  <SYNONYMS>
Pinazepam

$$$$
