
 OpenBabel10282417072D

 33 34  0  0  0  0  0  0  0  0999 V2000
    0.9966    0.3627    0.0000 C   0  0  0  0  0  0  0  0  0  0  0  0
    0.7145   -0.4125    0.0000 C   0  0  0  0  0  0  0  0  0  0  0  0
    1.2448   -1.0445    0.0000 C   0  0  0  0  0  0  0  0  0  0  0  0
    1.9592   -1.4570    0.0000 C   0  0  0  0  0  0  0  0  0  0  0  0
    2.6737   -1.0445    0.0000 O   0  0  0  0  0  0  0  0  0  0  0  0
    1.9592   -2.2820    0.0000 N   0  0  0  0  0  0  0  0  0  0  0  0
    1.2448   -2.6945    0.0000 C   0  0  0  0  0  0  0  0  0  0  0  0
    1.2448   -3.5195    0.0000 O   0  0  0  0  0  0  0  0  0  0  0  0
    0.5303   -2.2820    0.0000 N   0  0  0  0  0  0  0  0  0  0  0  0
    0.5303   -1.4570    0.0000 C   0  0  0  0  0  0  0  0  0  0  0  0
   -0.1842   -1.0445    0.0000 O   0  0  0  0  0  0  0  0  0  0  0  0
    1.7751   -0.4125    0.0000 C   0  0  0  0  0  0  0  0  0  0  0  0
    1.4929    0.3627    0.0000 C   0  0  0  0  0  0  0  0  0  0  0  0
    2.0232    0.9947    0.0000 C   0  0  0  0  0  0  0  0  0  0  0  0
    2.8357    0.8515    0.0000 C   0  0  0  0  0  0  0  0  0  0  0  0
    3.1178    0.0762    0.0000 C   0  0  0  0  0  0  0  0  0  0  0  0
    2.5875   -0.5558    0.0000 C   0  0  0  0  0  0  0  0  0  0  0  0
    2.0503    0.5486    0.0000 H   0  0  0  0  0  0  0  0  0  0  0  0
    0.3088    1.1823    0.0000 H   0  0  0  0  0  0  0  0  0  0  0  0
    1.3625    1.3682    0.0000 H   0  0  0  0  0  0  0  0  0  0  0  0
   -0.3392   -0.5983    0.0000 H   0  0  0  0  0  0  0  0  0  0  0  0
    0.3485   -1.4180    0.0000 H   0  0  0  0  0  0  0  0  0  0  0  0
    2.8118   -2.7742    0.0000 H   0  0  0  0  0  0  0  0  0  0  0  0
   -0.3223   -2.7743    0.0000 H   0  0  0  0  0  0  0  0  0  0  0  0
    0.4766    0.5419    0.0000 H   0  0  0  0  0  0  0  0  0  0  0  0
    1.6572    2.0002    0.0000 H   0  0  0  0  0  0  0  0  0  0  0  0
    2.7109    1.8144    0.0000 H   0  0  0  0  0  0  0  0  0  0  0  0
    3.5235    1.6712    0.0000 H   0  0  0  0  0  0  0  0  0  0  0  0
    3.8894    0.6656    0.0000 H   0  0  0  0  0  0  0  0  0  0  0  0
    4.1715   -0.1096    0.0000 H   0  0  0  0  0  0  0  0  0  0  0  0
    3.4837   -0.9293    0.0000 H   0  0  0  0  0  0  0  0  0  0  0  0
    2.9534   -1.5613    0.0000 H   0  0  0  0  0  0  0  0  0  0  0  0
    1.8997   -1.3754    0.0000 H   0  0  0  0  0  0  0  0  0  0  0  0
  1  2  1  0  0  0  0
  1 18  1  0  0  0  0
  1 19  1  0  0  0  0
  1 20  1  0  0  0  0
  2  3  1  0  0  0  0
  2 21  1  0  0  0  0
  2 22  1  0  0  0  0
  3  4  1  0  0  0  0
  3 10  1  0  0  0  0
  3 12  1  0  0  0  0
  4  5  2  0  0  0  0
  4  6  1  0  0  0  0
  6  7  1  0  0  0  0
  6 23  1  0  0  0  0
  7  8  2  0  0  0  0
  7  9  1  0  0  0  0
  9 10  1  0  0  0  0
  9 24  1  0  0  0  0
 10 11  2  0  0  0  0
 12 13  2  0  0  0  0
 12 17  1  0  0  0  0
 13 14  1  0  0  0  0
 13 25  1  0  0  0  0
 14 15  1  0  0  0  0
 14 26  1  0  0  0  0
 14 27  1  0  0  0  0
 15 16  1  0  0  0  0
 15 28  1  0  0  0  0
 15 29  1  0  0  0  0
 16 17  1  0  0  0  0
 16 30  1  0  0  0  0
 16 31  1  0  0  0  0
 17 32  1  0  0  0  0
 17 33  1  0  0  0  0
M  END
>  <DRUGBANK_ID>
DB13737

>  <COMMON_NAME>
Cyclobarbital

>  <CAS_NUMBER>
52-31-3

>  <UNII>
0M8A98AD9H

>  <SYNONYMS>
Cyclobarbital

$$$$
