
 OpenBabel10282417072D

 40 41  0  0  1  0  0  0  0  0999 V2000
    0.0000   -2.4750    0.0000 C   0  0  0  0  0  0  0  0  0  0  0  0
    0.7145   -2.8875    0.0000 C   0  0  0  0  0  0  0  0  0  0  0  0
    1.4289   -2.4750    0.0000 N   0  0  0  0  0  0  0  0  0  0  0  0
    1.4289   -1.6500    0.0000 C   0  0  0  0  0  0  0  0  0  0  0  0
    2.1434   -2.8875    0.0000 C   0  0  0  0  0  0  0  0  0  0  0  0
    2.1434   -3.7125    0.0000 O   0  0  0  0  0  0  0  0  0  0  0  0
    2.8579   -2.4750    0.0000 O   0  0  0  0  0  0  0  0  0  0  0  0
    3.5724   -2.8875    0.0000 C   0  0  0  0  0  0  0  0  0  0  0  0
    4.2868   -2.4750    0.0000 C   0  0  0  0  0  0  0  0  0  0  0  0
    5.0013   -2.8875    0.0000 C   0  0  0  0  0  0  0  0  0  0  0  0
    5.0013   -3.7125    0.0000 C   0  0  0  0  0  0  0  0  0  0  0  0
    5.7859   -3.9674    0.0000 C   0  0  0  0  0  0  0  0  0  0  0  0
    6.2708   -3.3000    0.0000 C   0  0  0  0  0  0  0  0  0  0  0  0
    5.7859   -2.6326    0.0000 C   0  0  1  0  0  0  0  0  0  0  0  0
    6.0409   -1.8479    0.0000 N   0  0  0  0  0  0  0  0  0  0  0  0
    6.8478   -1.6764    0.0000 C   0  0  0  0  0  0  0  0  0  0  0  0
    7.1028   -0.8918    0.0000 C   0  0  0  0  0  0  0  0  0  0  0  0
    7.3577   -0.1072    0.0000 C   0  0  0  0  0  0  0  0  0  0  0  0
    4.2868   -4.1250    0.0000 C   0  0  0  0  0  0  0  0  0  0  0  0
    3.5724   -3.7125    0.0000 C   0  0  0  0  0  0  0  0  0  0  0  0
   -0.0000   -1.4050    0.0000 H   0  0  0  0  0  0  0  0  0  0  0  0
   -0.9266   -3.0100    0.0000 H   0  0  0  0  0  0  0  0  0  0  0  0
   -0.9267   -1.9400    0.0000 H   0  0  0  0  0  0  0  0  0  0  0  0
    0.7145   -3.9575    0.0000 H   0  0  0  0  0  0  0  0  0  0  0  0
    1.6412   -3.4225    0.0000 H   0  0  0  0  0  0  0  0  0  0  0  0
    2.3555   -1.1150    0.0000 H   0  0  0  0  0  0  0  0  0  0  0  0
    0.5023   -1.1150    0.0000 H   0  0  0  0  0  0  0  0  0  0  0  0
    1.4289   -0.5800    0.0000 H   0  0  0  0  0  0  0  0  0  0  0  0
    4.2868   -1.4430    0.0000 H   0  0  0  0  0  0  0  0  0  0  0  0
    6.1166   -4.9850    0.0000 H   0  0  0  0  0  0  0  0  0  0  0  0
    6.8427   -4.1348    0.0000 H   0  0  0  0  0  0  0  0  0  0  0  0
    7.3408   -3.3000    0.0000 H   0  0  0  0  0  0  0  0  0  0  0  0
    6.7566   -2.3466    0.0000 H   0  0  0  0  0  0  0  0  0  0  0  0
    6.8427   -2.4652    0.0000 H   0  0  0  0  0  0  0  0  0  0  0  0
    5.3584   -1.0899    0.0000 H   0  0  0  0  0  0  0  0  0  0  0  0
    7.5637   -2.4716    0.0000 H   0  0  0  0  0  0  0  0  0  0  0  0
    7.8944   -1.4540    0.0000 H   0  0  0  0  0  0  0  0  0  0  0  0
    7.6648    0.8382    0.0000 H   0  0  0  0  0  0  0  0  0  0  0  0
    4.2868   -5.1570    0.0000 H   0  0  0  0  0  0  0  0  0  0  0  0
    2.6787   -4.2285    0.0000 H   0  0  0  0  0  0  0  0  0  0  0  0
  1  2  1  0  0  0  0
  1 21  1  0  0  0  0
  1 22  1  0  0  0  0
  1 23  1  0  0  0  0
  2  3  1  0  0  0  0
  2 24  1  0  0  0  0
  2 25  1  0  0  0  0
  3  4  1  0  0  0  0
  3  5  1  0  0  0  0
  4 26  1  0  0  0  0
  4 27  1  0  0  0  0
  4 28  1  0  0  0  0
  5  6  2  0  0  0  0
  5  7  1  0  0  0  0
  7  8  1  0  0  0  0
  8  9  2  0  0  0  0
  8 20  1  0  0  0  0
  9 10  1  0  0  0  0
  9 29  1  0  0  0  0
 10 11  2  0  0  0  0
 11 12  1  0  0  0  0
 11 19  1  0  0  0  0
 12 13  1  0  0  0  0
 12 30  1  0  0  0  0
 12 31  1  0  0  0  0
 13 32  1  0  0  0  0
 13 33  1  0  0  0  0
 14 13  1  0  0  0  0
 14 10  1  0  0  0  0
 14 15  1  0  0  0  0
 14 34  1  1  0  0  0
 15 16  1  0  0  0  0
 15 35  1  0  0  0  0
 16 17  1  0  0  0  0
 16 36  1  0  0  0  0
 16 37  1  0  0  0  0
 17 18  3  0  0  0  0
 18 38  1  0  0  0  0
 19 20  2  0  0  0  0
 19 39  1  0  0  0  0
 20 40  1  0  0  0  0
M  END
>  <DRUGBANK_ID>
DB16213

>  <COMMON_NAME>
Ladostigil

>  <CAS_NUMBER>
209394-27-4

>  <UNII>
SW3H1USR4Q

>  <SYNONYMS>
Ladostigil; Tv-3326 free base

$$$$
