11U
 OpenBabel10282417072D

 59 61  0  0  0  0  0  0  0  0999 V2000
    0.4371   -0.7839    0.0000 N   0  0  0  0  0  0  0  0  0  0  0  0
    1.2217   -0.5289    0.0000 C   0  0  0  0  0  0  0  0  0  0  0  0
    1.3932    0.2781    0.0000 O   0  0  0  0  0  0  0  0  0  0  0  0
    1.8348   -1.0809    0.0000 C   0  0  0  0  0  0  0  0  0  0  0  0
    0.1821   -1.5685    0.0000 C   0  0  0  0  0  0  0  0  0  0  0  0
   -0.6429   -1.5685    0.0000 C   0  0  0  0  0  0  0  0  0  0  0  0
   -0.8978   -0.7839    0.0000 C   0  0  0  0  0  0  0  0  0  0  0  0
   -0.2304   -0.2989    0.0000 C   0  0  1  0  0  0  0  0  0  0  0  0
   -0.2304    0.5261    0.0000 C   0  0  0  0  0  0  0  0  0  0  0  0
   -0.9448    0.9386    0.0000 N   0  0  0  0  0  0  0  0  0  0  0  0
   -0.9448    1.7636    0.0000 C   0  0  0  0  0  0  0  0  0  0  0  0
   -1.6593    2.1761    0.0000 C   0  0  0  0  0  0  0  0  0  0  0  0
   -2.3738    1.7636    0.0000 C   0  0  0  0  0  0  0  0  0  0  0  0
   -3.0882    2.1761    0.0000 C   0  0  0  0  0  0  0  0  0  0  0  0
   -3.0882    3.0011    0.0000 C   0  0  0  0  0  0  0  0  0  0  0  0
   -3.8027    3.4136    0.0000 C   0  0  0  0  0  0  0  0  0  0  0  0
   -3.8027    4.2386    0.0000 N   0  0  0  0  0  0  0  0  0  0  0  0
   -4.5172    3.0011    0.0000 N   0  0  0  0  0  0  0  0  0  0  0  0
   -2.3738    3.4136    0.0000 C   0  0  0  0  0  0  0  0  0  0  0  0
   -1.6593    3.0011    0.0000 C   0  0  0  0  0  0  0  0  0  0  0  0
    0.4841    0.9386    0.0000 O   0  0  0  0  0  0  0  0  0  0  0  0
    2.6194   -0.8260    0.0000 N   0  0  0  0  0  0  0  0  0  0  0  0
    3.2325   -1.3780    0.0000 C   0  0  0  0  0  0  0  0  0  0  0  0
    4.0171   -1.1231    0.0000 C   0  0  0  0  0  0  0  0  0  0  0  0
    4.6302   -1.6751    0.0000 C   0  0  0  0  0  0  0  0  0  0  0  0
    4.4587   -2.4821    0.0000 C   0  0  0  0  0  0  0  0  0  0  0  0
    3.6741   -2.7370    0.0000 C   0  0  0  0  0  0  0  0  0  0  0  0
    3.0610   -2.1850    0.0000 C   0  0  0  0  0  0  0  0  0  0  0  0
    0.2899   -0.0338    0.0000 H   0  0  0  0  0  0  0  0  0  0  0  0
    1.6123   -2.1275    0.0000 H   0  0  0  0  0  0  0  0  0  0  0  0
    2.6300   -1.7969    0.0000 H   0  0  0  0  0  0  0  0  0  0  0  0
    0.8110   -2.4342    0.0000 H   0  0  0  0  0  0  0  0  0  0  0  0
   -0.3037   -2.5219    0.0000 H   0  0  0  0  0  0  0  0  0  0  0  0
   -1.2718   -2.4341    0.0000 H   0  0  0  0  0  0  0  0  0  0  0  0
   -1.6997   -1.4011    0.0000 H   0  0  0  0  0  0  0  0  0  0  0  0
   -1.9154   -0.4533    0.0000 H   0  0  0  0  0  0  0  0  0  0  0  0
   -1.0653    0.2729    0.0000 H   0  0  0  0  0  0  0  0  0  0  0  0
   -1.7974    0.4464    0.0000 H   0  0  0  0  0  0  0  0  0  0  0  0
   -0.0182    2.2986    0.0000 H   0  0  0  0  0  0  0  0  0  0  0  0
   -0.9448    2.8336    0.0000 H   0  0  0  0  0  0  0  0  0  0  0  0
   -2.3738    0.7316    0.0000 H   0  0  0  0  0  0  0  0  0  0  0  0
   -3.9819    1.6601    0.0000 H   0  0  0  0  0  0  0  0  0  0  0  0
   -2.9501    4.7309    0.0000 H   0  0  0  0  0  0  0  0  0  0  0  0
   -5.3698    3.4934    0.0000 H   0  0  0  0  0  0  0  0  0  0  0  0
   -4.5172    2.0166    0.0000 H   0  0  0  0  0  0  0  0  0  0  0  0
   -2.3738    4.4456    0.0000 H   0  0  0  0  0  0  0  0  0  0  0  0
   -0.7656    3.5171    0.0000 H   0  0  0  0  0  0  0  0  0  0  0  0
    2.8315    0.1717    0.0000 H   0  0  0  0  0  0  0  0  0  0  0  0
    4.0277   -2.0940    0.0000 H   0  0  0  0  0  0  0  0  0  0  0  0
    4.2396   -0.0765    0.0000 H   0  0  0  0  0  0  0  0  0  0  0  0
    5.0347   -0.7924    0.0000 H   0  0  0  0  0  0  0  0  0  0  0  0
    5.6478   -1.3444    0.0000 H   0  0  0  0  0  0  0  0  0  0  0  0
    5.4254   -2.3910    0.0000 H   0  0  0  0  0  0  0  0  0  0  0  0
    5.2539   -3.1981    0.0000 H   0  0  0  0  0  0  0  0  0  0  0  0
    4.2362   -3.5287    0.0000 H   0  0  0  0  0  0  0  0  0  0  0  0
    3.4516   -3.7836    0.0000 H   0  0  0  0  0  0  0  0  0  0  0  0
    2.6565   -3.0677    0.0000 H   0  0  0  0  0  0  0  0  0  0  0  0
    2.0434   -2.5157    0.0000 H   0  0  0  0  0  0  0  0  0  0  0  0
    2.8386   -3.2316    0.0000 H   0  0  0  0  0  0  0  0  0  0  0  0
  1  2  1  0  0  0  0
  1  5  1  0  0  0  0
  1  8  1  0  0  0  0
  2  3  2  0  0  0  0
  2  4  1  0  0  0  0
  4 22  1  0  0  0  0
  4 30  1  0  0  0  0
  4 31  1  0  0  0  0
  5  6  1  0  0  0  0
  5 32  1  0  0  0  0
  5 33  1  0  0  0  0
  6  7  1  0  0  0  0
  6 34  1  0  0  0  0
  6 35  1  0  0  0  0
  7  8  1  0  0  0  0
  7 36  1  0  0  0  0
  7 37  1  0  0  0  0
  8  9  1  0  0  0  0
  8 29  1  6  0  0  0
  9 10  1  0  0  0  0
  9 21  2  0  0  0  0
 10 11  1  0  0  0  0
 10 38  1  0  0  0  0
 11 12  1  0  0  0  0
 11 39  1  0  0  0  0
 11 40  1  0  0  0  0
 12 13  2  0  0  0  0
 12 20  1  0  0  0  0
 13 14  1  0  0  0  0
 13 41  1  0  0  0  0
 14 15  2  0  0  0  0
 14 42  1  0  0  0  0
 15 16  1  0  0  0  0
 15 19  1  0  0  0  0
 16 17  2  0  0  0  0
 16 18  1  0  0  0  0
 17 43  1  0  0  0  0
 18 44  1  0  0  0  0
 18 45  1  0  0  0  0
 19 20  2  0  0  0  0
 19 46  1  0  0  0  0
 20 47  1  0  0  0  0
 22 23  1  0  0  0  0
 22 48  1  0  0  0  0
 23 24  1  0  0  0  0
 23 28  1  0  0  0  0
 23 49  1  0  0  0  0
 24 25  1  0  0  0  0
 24 50  1  0  0  0  0
 24 51  1  0  0  0  0
 25 26  1  0  0  0  0
 25 52  1  0  0  0  0
 25 53  1  0  0  0  0
 26 27  1  0  0  0  0
 26 54  1  0  0  0  0
 26 55  1  0  0  0  0
 27 28  1  0  0  0  0
 27 56  1  0  0  0  0
 27 57  1  0  0  0  0
 28 58  1  0  0  0  0
 28 59  1  0  0  0  0
M  END
>  <DRUGBANK_ID>
DB06850

>  <COMMON_NAME>
(S)-N-(4-carbamimidoylbenzyl)-1-(2-(cyclohexylamino)ethanoyl)pyrrolidine-2-carboxamide

$$$$
