K88
 OpenBabel10282417072D

 47 50  0  0  0  0  0  0  0  0999 V2000
   -3.9091    0.4587    0.0000 C   0  0  0  0  0  0  0  0  0  0  0  0
   -3.1245    0.7136    0.0000 N   0  0  0  0  0  0  0  0  0  0  0  0
   -2.9529    1.5206    0.0000 C   0  0  0  0  0  0  0  0  0  0  0  0
   -2.5114    0.1616    0.0000 S   0  0  0  0  0  0  0  0  0  0  0  0
   -3.0634   -0.4515    0.0000 O   0  0  0  0  0  0  0  0  0  0  0  0
   -1.9593    0.7747    0.0000 O   0  0  0  0  0  0  0  0  0  0  0  0
   -1.8983   -0.3905    0.0000 C   0  0  0  0  0  0  0  0  0  0  0  0
   -1.1136   -0.1355    0.0000 C   0  0  0  0  0  0  0  0  0  0  0  0
   -0.5005   -0.6876    0.0000 C   0  0  0  0  0  0  0  0  0  0  0  0
   -2.0698   -1.1974    0.0000 C   0  0  0  0  0  0  0  0  0  0  0  0
   -1.4567   -1.7495    0.0000 C   0  0  0  0  0  0  0  0  0  0  0  0
   -0.6721   -1.4945    0.0000 C   0  0  0  0  0  0  0  0  0  0  0  0
    0.0424   -1.9070    0.0000 N   0  0  0  0  0  0  0  0  0  0  0  0
    0.6555   -1.3550    0.0000 C   0  0  0  0  0  0  0  0  0  0  0  0
    1.4625   -1.5265    0.0000 O   0  0  0  0  0  0  0  0  0  0  0  0
    0.3199   -0.6013    0.0000 C   0  0  0  0  0  0  0  0  0  0  0  0
    0.7324    0.1131    0.0000 C   0  0  0  0  0  0  0  0  0  0  0  0
    1.5574    0.1131    0.0000 C   0  0  0  0  0  0  0  0  0  0  0  0
    2.0424    0.7806    0.0000 C   0  0  0  0  0  0  0  0  0  0  0  0
    2.8270    0.5256    0.0000 C   0  0  0  0  0  0  0  0  0  0  0  0
    3.5414    0.9381    0.0000 C   0  0  0  0  0  0  0  0  0  0  0  0
    4.2559    0.5256    0.0000 C   0  0  0  0  0  0  0  0  0  0  0  0
    4.2559   -0.2994    0.0000 C   0  0  0  0  0  0  0  0  0  0  0  0
    3.5414   -0.7119    0.0000 C   0  0  0  0  0  0  0  0  0  0  0  0
    2.8270   -0.2994    0.0000 C   0  0  0  0  0  0  0  0  0  0  0  0
    2.0424   -0.5543    0.0000 N   0  0  0  0  0  0  0  0  0  0  0  0
   -4.7042    1.1747    0.0000 H   0  0  0  0  0  0  0  0  0  0  0  0
   -4.1316   -0.5879    0.0000 H   0  0  0  0  0  0  0  0  0  0  0  0
   -4.9267    0.1281    0.0000 H   0  0  0  0  0  0  0  0  0  0  0  0
   -1.9352    1.8512    0.0000 H   0  0  0  0  0  0  0  0  0  0  0  0
   -3.7480    2.2366    0.0000 H   0  0  0  0  0  0  0  0  0  0  0  0
   -2.7304    2.5672    0.0000 H   0  0  0  0  0  0  0  0  0  0  0  0
   -0.8990    0.8739    0.0000 H   0  0  0  0  0  0  0  0  0  0  0  0
   -3.0513   -1.5163    0.0000 H   0  0  0  0  0  0  0  0  0  0  0  0
   -1.6713   -2.7590    0.0000 H   0  0  0  0  0  0  0  0  0  0  0  0
    0.1453   -2.8861    0.0000 H   0  0  0  0  0  0  0  0  0  0  0  0
    0.2164    1.0068    0.0000 H   0  0  0  0  0  0  0  0  0  0  0  0
    1.7235    1.7621    0.0000 H   0  0  0  0  0  0  0  0  0  0  0  0
    3.5414    2.0081    0.0000 H   0  0  0  0  0  0  0  0  0  0  0  0
    4.4680    1.4731    0.0000 H   0  0  0  0  0  0  0  0  0  0  0  0
    5.1825    1.0606    0.0000 H   0  0  0  0  0  0  0  0  0  0  0  0
    5.1825   -0.0094    0.0000 H   0  0  0  0  0  0  0  0  0  0  0  0
    5.1825   -0.8344    0.0000 H   0  0  0  0  0  0  0  0  0  0  0  0
    4.2559   -1.3694    0.0000 H   0  0  0  0  0  0  0  0  0  0  0  0
    3.5414   -1.7819    0.0000 H   0  0  0  0  0  0  0  0  0  0  0  0
    2.6147   -1.2469    0.0000 H   0  0  0  0  0  0  0  0  0  0  0  0
    1.7382   -1.4906    0.0000 H   0  0  0  0  0  0  0  0  0  0  0  0
  1  2  1  0  0  0  0
  1 27  1  0  0  0  0
  1 28  1  0  0  0  0
  1 29  1  0  0  0  0
  2  3  1  0  0  0  0
  2  4  1  0  0  0  0
  3 30  1  0  0  0  0
  3 31  1  0  0  0  0
  3 32  1  0  0  0  0
  4  5  2  0  0  0  0
  4  6  2  0  0  0  0
  4  7  1  0  0  0  0
  7  8  1  0  0  0  0
  7 10  2  0  0  0  0
  8  9  2  0  0  0  0
  8 33  1  0  0  0  0
  9 12  1  0  0  0  0
  9 16  1  0  0  0  0
 10 11  1  0  0  0  0
 10 34  1  0  0  0  0
 11 12  2  0  0  0  0
 11 35  1  0  0  0  0
 12 13  1  0  0  0  0
 13 14  1  0  0  0  0
 13 36  1  0  0  0  0
 14 15  2  0  0  0  0
 14 16  1  0  0  0  0
 16 17  2  0  0  0  0
 17 18  1  0  0  0  0
 17 37  1  0  0  0  0
 18 19  2  0  0  0  0
 18 26  1  0  0  0  0
 19 20  1  0  0  0  0
 19 38  1  0  0  0  0
 20 21  1  0  0  0  0
 20 25  2  0  0  0  0
 21 22  1  0  0  0  0
 21 39  1  0  0  0  0
 21 40  1  0  0  0  0
 22 23  1  0  0  0  0
 22 41  1  0  0  0  0
 22 42  1  0  0  0  0
 23 24  1  0  0  0  0
 23 43  1  0  0  0  0
 23 44  1  0  0  0  0
 24 25  1  0  0  0  0
 24 45  1  0  0  0  0
 24 46  1  0  0  0  0
 25 26  1  0  0  0  0
 26 47  1  0  0  0  0
M  END
>  <DRUGBANK_ID>
DB08039

>  <COMMON_NAME>
(3Z)-N,N-DIMETHYL-2-OXO-3-(4,5,6,7-TETRAHYDRO-1H-INDOL-2-YLMETHYLIDENE)-2,3-DIHYDRO-1H-INDOLE-5-SULFONAMIDE

$$$$
