4838
 OpenBabel10282417072D

 44 45  0  0  1  0  0  0  0  0999 V2000
    3.5220    0.6740    0.0000 O   0  0  0  0  0  0  0  0  0  0  0  0
    4.2365   -0.5635    0.0000 O   0  0  0  0  0  0  0  0  0  0  0  0
    2.0930   -0.1510    0.0000 O   0  0  0  0  0  0  0  0  0  0  0  0
    4.9509    2.3241    0.0000 C   0  0  0  0  0  0  0  0  0  0  0  0
    5.6655    1.9116    0.0000 C   0  0  0  0  0  0  0  0  0  0  0  0
    5.6655    1.0865    0.0000 C   0  0  3  0  0  0  0  0  0  0  0  0
    4.2365    1.9116    0.0000 C   0  0  0  0  0  0  0  0  0  0  0  0
    4.2365    1.0865    0.0000 C   0  0  3  0  0  0  0  0  0  0  0  0
    4.9509    0.6740    0.0000 C   0  0  0  0  0  0  0  0  0  0  0  0
    5.3634    3.0385    0.0000 C   0  0  0  0  0  0  0  0  0  0  0  0
    4.5384    3.0385    0.0000 C   0  0  0  0  0  0  0  0  0  0  0  0
    6.3799    0.6740    0.0000 C   0  0  0  0  0  0  0  0  0  0  0  0
    3.5220   -0.1510    0.0000 C   0  0  0  0  0  0  0  0  0  0  0  0
    2.8075   -0.5635    0.0000 C   0  0  3  0  0  0  0  0  0  0  0  0
    2.8075   -1.3885    0.0000 C   0  0  0  0  0  0  0  0  0  0  0  0
    2.0930   -1.8010    0.0000 C   0  0  0  0  0  0  0  0  0  0  0  0
    3.5220   -1.8010    0.0000 C   0  0  0  0  0  0  0  0  0  0  0  0
    2.0930   -2.6260    0.0000 C   0  0  0  0  0  0  0  0  0  0  0  0
    3.5220   -2.6260    0.0000 C   0  0  0  0  0  0  0  0  0  0  0  0
    2.8075   -3.0385    0.0000 C   0  0  0  0  0  0  0  0  0  0  0  0
    2.0930    0.8190    0.0000 H   0  0  0  0  0  0  0  0  0  0  0  0
    6.5921    2.4466    0.0000 H   0  0  0  0  0  0  0  0  0  0  0  0
    6.5922    1.3766    0.0000 H   0  0  0  0  0  0  0  0  0  0  0  0
    4.7389    1.6215    0.0000 H   0  0  0  0  0  0  0  0  0  0  0  0
    3.3098    2.4466    0.0000 H   0  0  0  0  0  0  0  0  0  0  0  0
    3.3099    1.3766    0.0000 H   0  0  0  0  0  0  0  0  0  0  0  0
    3.3099    1.6215    0.0000 H   0  0  0  0  0  0  0  0  0  0  0  0
    4.9508   -0.3960    0.0000 H   0  0  0  0  0  0  0  0  0  0  0  0
    4.0242    0.1390    0.0000 H   0  0  0  0  0  0  0  0  0  0  0  0
    6.4334    3.0385    0.0000 H   0  0  0  0  0  0  0  0  0  0  0  0
    4.8284    3.9652    0.0000 H   0  0  0  0  0  0  0  0  0  0  0  0
    5.8984    3.9651    0.0000 H   0  0  0  0  0  0  0  0  0  0  0  0
    5.0734    3.9652    0.0000 H   0  0  0  0  0  0  0  0  0  0  0  0
    3.4684    3.0385    0.0000 H   0  0  0  0  0  0  0  0  0  0  0  0
    4.0034    3.9651    0.0000 H   0  0  0  0  0  0  0  0  0  0  0  0
    6.3799   -0.3960    0.0000 H   0  0  0  0  0  0  0  0  0  0  0  0
    7.3066    1.2090    0.0000 H   0  0  0  0  0  0  0  0  0  0  0  0
    7.3065    0.1390    0.0000 H   0  0  0  0  0  0  0  0  0  0  0  0
    2.8075    0.5065    0.0000 H   0  0  0  0  0  0  0  0  0  0  0  0
    1.1993   -1.2850    0.0000 H   0  0  0  0  0  0  0  0  0  0  0  0
    4.4157   -1.2850    0.0000 H   0  0  0  0  0  0  0  0  0  0  0  0
    1.1993   -3.1420    0.0000 H   0  0  0  0  0  0  0  0  0  0  0  0
    4.4157   -3.1420    0.0000 H   0  0  0  0  0  0  0  0  0  0  0  0
    2.8075   -4.0705    0.0000 H   0  0  0  0  0  0  0  0  0  0  0  0
  1  8  1  0  0  0  0
  1 13  1  0  0  0  0
  2 13  2  0  0  0  0
  3 14  1  0  0  0  0
  3 21  1  0  0  0  0
  4  5  1  0  0  0  0
  4  7  1  0  0  0  0
  4 10  1  0  0  0  0
  4 11  1  0  0  0  0
  5  6  1  0  0  0  0
  5 22  1  0  0  0  0
  5 23  1  0  0  0  0
  6  9  1  0  0  0  0
  6 12  1  0  0  0  0
  6 24  1  0  0  0  0
  7  8  1  0  0  0  0
  7 25  1  0  0  0  0
  7 26  1  0  0  0  0
  8  9  1  0  0  0  0
  8 27  1  0  0  0  0
  9 28  1  0  0  0  0
  9 29  1  0  0  0  0
 10 30  1  0  0  0  0
 10 31  1  0  0  0  0
 10 32  1  0  0  0  0
 11 33  1  0  0  0  0
 11 34  1  0  0  0  0
 11 35  1  0  0  0  0
 12 36  1  0  0  0  0
 12 37  1  0  0  0  0
 12 38  1  0  0  0  0
 13 14  1  0  0  0  0
 14 15  1  0  0  0  0
 14 39  1  0  0  0  0
 15 16  2  0  0  0  0
 15 17  1  0  0  0  0
 16 18  1  0  0  0  0
 16 40  1  0  0  0  0
 17 19  2  0  0  0  0
 17 41  1  0  0  0  0
 18 20  2  0  0  0  0
 18 42  1  0  0  0  0
 19 20  1  0  0  0  0
 19 43  1  0  0  0  0
 20 44  1  0  0  0  0
M  END
>  <DRUGBANK_ID>
DB04838

>  <COMMON_NAME>
Cyclandelate

>  <CAS_NUMBER>
456-59-7

>  <UNII>
4139O1OAY2

>  <SYNONYMS>
3,3,5-Trimethylcyclohexyl mandelate; 3,5,5-Trimethylcyclohexyl amygdalate; Ciclandelato; Cyclandelate; Cyclandelatum

$$$$
