
 OpenBabel10282417072D

 40 40  0  0  0  0  0  0  0  0999 V2000
   -0.3551   -0.6156    0.0000 C   0  0  0  0  0  0  0  0  0  0  0  0
   -1.0700   -1.0275    0.0000 C   0  0  0  0  0  0  0  0  0  0  0  0
   -1.7850   -0.6156    0.0000 C   0  0  0  0  0  0  0  0  0  0  0  0
   -2.4999   -1.0275    0.0000 C   0  0  0  0  0  0  0  0  0  0  0  0
   -3.2149   -0.6156    0.0000 C   0  0  0  0  0  0  0  0  0  0  0  0
   -2.4999   -1.8559    0.0000 O   0  0  0  0  0  0  0  0  0  0  0  0
   -0.3551    0.2082    0.0000 O   0  0  0  0  0  0  0  0  0  0  0  0
    0.3597   -1.0275    0.0000 O   0  0  0  0  0  0  0  0  0  0  0  0
    1.0700   -0.6156    0.0000 C   0  0  1  0  0  0  0  0  0  0  0  0
    1.7850   -1.0275    0.0000 C   0  0  2  0  0  0  0  0  0  0  0  0
    1.7850   -1.8559    0.0000 C   0  0  0  0  0  0  0  0  0  0  0  0
    2.4998   -0.6156    0.0000 N   0  0  0  0  0  0  0  0  0  0  0  0
    3.2149   -1.0275    0.0000 C   0  0  0  0  0  0  0  0  0  0  0  0
    1.0700    0.2082    0.0000 C   0  0  0  0  0  0  0  0  0  0  0  0
    0.3597    0.6201    0.0000 C   0  0  0  0  0  0  0  0  0  0  0  0
    0.3597    1.4440    0.0000 C   0  0  0  0  0  0  0  0  0  0  0  0
    1.0700    1.8559    0.0000 C   0  0  0  0  0  0  0  0  0  0  0  0
    1.7850    1.4440    0.0000 C   0  0  0  0  0  0  0  0  0  0  0  0
    1.7850    0.6201    0.0000 C   0  0  0  0  0  0  0  0  0  0  0  0
   -1.0700   -2.0975    0.0000 H   0  0  0  0  0  0  0  0  0  0  0  0
   -1.9964   -1.5630    0.0000 H   0  0  0  0  0  0  0  0  0  0  0  0
   -1.7850    0.4544    0.0000 H   0  0  0  0  0  0  0  0  0  0  0  0
   -2.7114   -0.0802    0.0000 H   0  0  0  0  0  0  0  0  0  0  0  0
   -3.2159    0.4544    0.0000 H   0  0  0  0  0  0  0  0  0  0  0  0
   -4.1410   -1.1515    0.0000 H   0  0  0  0  0  0  0  0  0  0  0  0
   -4.1421   -0.0815    0.0000 H   0  0  0  0  0  0  0  0  0  0  0  0
    0.1428   -0.0815    0.0000 H   0  0  0  0  0  0  0  0  0  0  0  0
    0.8586   -1.5629    0.0000 H   0  0  0  0  0  0  0  0  0  0  0  0
    0.8584   -2.3909    0.0000 H   0  0  0  0  0  0  0  0  0  0  0  0
    2.7116   -2.3909    0.0000 H   0  0  0  0  0  0  0  0  0  0  0  0
    1.7850   -2.9259    0.0000 H   0  0  0  0  0  0  0  0  0  0  0  0
    2.4997    0.4044    0.0000 H   0  0  0  0  0  0  0  0  0  0  0  0
    3.2160   -2.0975    0.0000 H   0  0  0  0  0  0  0  0  0  0  0  0
    4.1410   -0.4916    0.0000 H   0  0  0  0  0  0  0  0  0  0  0  0
    4.1421   -1.5616    0.0000 H   0  0  0  0  0  0  0  0  0  0  0  0
   -0.5345    0.1050    0.0000 H   0  0  0  0  0  0  0  0  0  0  0  0
   -0.5345    1.9591    0.0000 H   0  0  0  0  0  0  0  0  0  0  0  0
    1.0685    2.8879    0.0000 H   0  0  0  0  0  0  0  0  0  0  0  0
    2.6785    1.9604    0.0000 H   0  0  0  0  0  0  0  0  0  0  0  0
    2.6785    0.1037    0.0000 H   0  0  0  0  0  0  0  0  0  0  0  0
  1  2  1  0  0  0  0
  1  7  2  0  0  0  0
  1  8  1  0  0  0  0
  2  3  1  0  0  0  0
  2 20  1  0  0  0  0
  2 21  1  0  0  0  0
  3  4  1  0  0  0  0
  3 22  1  0  0  0  0
  3 23  1  0  0  0  0
  4  5  1  0  0  0  0
  4  6  2  0  0  0  0
  5 24  1  0  0  0  0
  5 25  1  0  0  0  0
  5 26  1  0  0  0  0
  8  9  1  0  0  0  0
  9 10  1  0  0  0  0
  9 14  1  0  0  0  0
  9 27  1  1  0  0  0
 10 11  1  0  0  0  0
 10 12  1  0  0  0  0
 10 28  1  6  0  0  0
 11 29  1  0  0  0  0
 11 30  1  0  0  0  0
 11 31  1  0  0  0  0
 12 13  1  0  0  0  0
 12 32  1  0  0  0  0
 13 33  1  0  0  0  0
 13 34  1  0  0  0  0
 13 35  1  0  0  0  0
 14 15  1  0  0  0  0
 14 19  2  0  0  0  0
 15 16  2  0  0  0  0
 15 36  1  0  0  0  0
 16 17  1  0  0  0  0
 16 37  1  0  0  0  0
 17 18  2  0  0  0  0
 17 38  1  0  0  0  0
 18 19  1  0  0  0  0
 18 39  1  0  0  0  0
 19 40  1  0  0  0  0
M  END
>  <DRUGBANK_ID>
DB15988

>  <COMMON_NAME>
Ephedrine levulinate

>  <CAS_NUMBER>
1082659-36-6

>  <UNII>
T9S008S8JL

>  <SYNONYMS>
L-Ephedrine levulinate

$$$$
