
 OpenBabel10282417072D

 24 25  0  0  0  0  0  0  0  0999 V2000
   -1.0506   -1.6165    0.0000 C   0  0  0  0  0  0  0  0  0  0  0  0
   -0.3361   -1.2040    0.0000 C   0  0  0  0  0  0  0  0  0  0  0  0
   -0.3361   -0.3790    0.0000 C   0  0  0  0  0  0  0  0  0  0  0  0
   -1.0506    0.0334    0.0000 C   0  0  0  0  0  0  0  0  0  0  0  0
   -1.7652   -0.3790    0.0000 C   0  0  0  0  0  0  0  0  0  0  0  0
   -1.7652   -1.2040    0.0000 C   0  0  0  0  0  0  0  0  0  0  0  0
    0.4483   -0.1240    0.0000 C   0  0  0  0  0  0  0  0  0  0  0  0
    0.4483   -1.4589    0.0000 N   0  0  0  0  0  0  0  0  0  0  0  0
    0.9333   -0.7915    0.0000 C   0  0  0  0  0  0  0  0  0  0  0  0
    0.7033    0.6604    0.0000 C   0  0  0  0  0  0  0  0  0  0  0  0
    1.5102    0.8320    0.0000 C   0  0  0  0  0  0  0  0  0  0  0  0
    1.7651    1.6165    0.0000 N   0  0  0  0  0  0  0  0  0  0  0  0
   -1.0506   -2.6485    0.0000 H   0  0  0  0  0  0  0  0  0  0  0  0
   -1.0506    1.0654    0.0000 H   0  0  0  0  0  0  0  0  0  0  0  0
   -2.6589    0.1371    0.0000 H   0  0  0  0  0  0  0  0  0  0  0  0
   -2.6589   -1.7200    0.0000 H   0  0  0  0  0  0  0  0  0  0  0  0
    0.7525   -2.3952    0.0000 H   0  0  0  0  0  0  0  0  0  0  0  0
    1.9653   -0.7915    0.0000 H   0  0  0  0  0  0  0  0  0  0  0  0
   -0.0127    1.4556    0.0000 H   0  0  0  0  0  0  0  0  0  0  0  0
    1.0339    1.6780    0.0000 H   0  0  0  0  0  0  0  0  0  0  0  0
    2.2262    0.0369    0.0000 H   0  0  0  0  0  0  0  0  0  0  0  0
    2.5568    1.0545    0.0000 H   0  0  0  0  0  0  0  0  0  0  0  0
    2.7628    1.8286    0.0000 H   0  0  0  0  0  0  0  0  0  0  0  0
    1.0826    2.3745    0.0000 H   0  0  0  0  0  0  0  0  0  0  0  0
  1  6  1  0  0  0  0
  1 13  1  0  0  0  0
  2  1  2  0  0  0  0
  2  8  1  0  0  0  0
  3  2  1  0  0  0  0
  3  7  1  0  0  0  0
  3  4  2  0  0  0  0
  4  5  1  0  0  0  0
  4 14  1  0  0  0  0
  5  6  2  0  0  0  0
  5 15  1  0  0  0  0
  6 16  1  0  0  0  0
  7  9  2  0  0  0  0
  7 10  1  0  0  0  0
  8  9  1  0  0  0  0
  8 17  1  0  0  0  0
  9 18  1  0  0  0  0
 10 11  1  0  0  0  0
 10 19  1  0  0  0  0
 10 20  1  0  0  0  0
 11 12  1  0  0  0  0
 11 21  1  0  0  0  0
 11 22  1  0  0  0  0
 12 23  1  0  0  0  0
 12 24  1  0  0  0  0
M  END
>  <DRUGBANK_ID>
DB08653

>  <COMMON_NAME>
Tryptamine

>  <CAS_NUMBER>
61-54-1

>  <UNII>
422ZU9N5TV

>  <SYNONYMS>
1H-indole-3-ethanamine; 2-(3-indolyl)ethylamine; 3-(2-Aminoethyl)indole; Tryptamine

$$$$
