
 OpenBabel10282417072D

139147  0  0  0  0  0  0  0  0999 V2000
   -0.6597    2.5280    0.0000 C   0  0  0  0  0  0  0  0  0  0  0  0
    0.0069    2.0384    0.0000 C   0  0  0  0  0  0  0  0  0  0  0  0
    0.6783    2.5208    0.0000 C   0  0  0  0  0  0  0  0  0  0  0  0
    0.4256    3.3084    0.0000 C   0  0  0  0  0  0  0  0  0  0  0  0
    0.0040    1.2154    0.0000 C   0  0  0  0  0  0  0  0  0  0  0  0
    1.3903    2.1061    0.0000 C   0  0  0  0  0  0  0  0  0  0  0  0
   -1.3736    2.1198    0.0000 C   0  0  0  0  0  0  0  0  0  0  0  0
    1.3911    1.2823    0.0000 O   0  0  0  0  0  0  0  0  0  0  0  0
    2.8225    2.1027    0.0000 C   0  0  0  0  0  0  0  0  0  0  0  0
    2.8233    1.2791    0.0000 C   0  0  0  0  0  0  0  0  0  0  0  0
    3.5353    0.8644    0.0000 O   0  0  0  0  0  0  0  0  0  0  0  0
    3.5382    2.5120    0.0000 C   0  0  0  0  0  0  0  0  0  0  0  0
    4.2543    2.1024    0.0000 C   0  0  0  0  0  0  0  0  0  0  0  0
    4.2510    1.2738    0.0000 C   0  0  0  0  0  0  0  0  0  0  0  0
    4.9630    0.8591    0.0000 C   0  0  0  0  0  0  0  0  0  0  0  0
    5.6783    1.2730    0.0000 C   0  0  0  0  0  0  0  0  0  0  0  0
    5.6820    2.0971    0.0000 C   0  0  0  0  0  0  0  0  0  0  0  0
    4.9699    2.5118    0.0000 C   0  0  0  0  0  0  0  0  0  0  0  0
    6.3948    0.8587    0.0000 O   0  0  0  0  0  0  0  0  0  0  0  0
    4.9639    0.0354    0.0000 C   0  0  0  0  0  0  0  0  0  0  0  0
    2.1082    0.8652    0.0000 O   0  0  0  0  0  0  0  0  0  0  0  0
   -1.3749    1.2940    0.0000 O   0  0  0  0  0  0  0  0  0  0  0  0
   -2.8054    2.1305    0.0000 C   0  0  0  0  0  0  0  0  0  0  0  0
   -2.8090    1.3088    0.0000 C   0  0  0  0  0  0  0  0  0  0  0  0
   -4.2357    2.1379    0.0000 O   0  0  0  0  0  0  0  0  0  0  0  0
   -3.5178    2.5484    0.0000 C   0  0  0  0  0  0  0  0  0  0  0  0
   -4.2371    1.3120    0.0000 C   0  0  0  0  0  0  0  0  0  0  0  0
   -3.5268    0.8983    0.0000 C   0  0  0  0  0  0  0  0  0  0  0  0
   -3.5281    0.0724    0.0000 C   0  0  0  0  0  0  0  0  0  0  0  0
   -4.2459   -0.3380    0.0000 C   0  0  0  0  0  0  0  0  0  0  0  0
   -4.9583    0.0798    0.0000 C   0  0  0  0  0  0  0  0  0  0  0  0
   -4.9547    0.9016    0.0000 C   0  0  0  0  0  0  0  0  0  0  0  0
   -5.6762   -0.3306    0.0000 O   0  0  0  0  0  0  0  0  0  0  0  0
   -5.6672    1.3194    0.0000 C   0  0  0  0  0  0  0  0  0  0  0  0
   -3.5143    3.3703    0.0000 O   0  0  0  0  0  0  0  0  0  0  0  0
   -6.3863    0.0831    0.0000 C   0  0  1  0  0  0  0  0  0  0  0  0
    6.3912    0.0347    0.0000 C   0  0  1  0  0  0  0  0  0  0  0  0
    5.6761   -0.3792    0.0000 O   0  0  0  0  0  0  0  0  0  0  0  0
    5.6769   -1.2027    0.0000 C   0  0  0  0  0  0  0  0  0  0  0  0
    6.3888   -1.6174    0.0000 C   0  0  2  0  0  0  0  0  0  0  0  0
    7.1041   -1.2035    0.0000 C   0  0  1  0  0  0  0  0  0  0  0  0
    7.1078   -0.3794    0.0000 C   0  0  2  0  0  0  0  0  0  0  0  0
   -6.3850    0.9090    0.0000 O   0  0  0  0  0  0  0  0  0  0  0  0
   -7.0951    1.3228    0.0000 C   0  0  0  0  0  0  0  0  0  0  0  0
   -7.8130    0.9123    0.0000 C   0  0  2  0  0  0  0  0  0  0  0  0
   -7.8166    0.0905    0.0000 C   0  0  1  0  0  0  0  0  0  0  0  0
   -7.1039   -0.3272    0.0000 C   0  0  2  0  0  0  0  0  0  0  0  0
    7.8208   -1.6178    0.0000 O   0  0  0  0  0  0  0  0  0  0  0  0
    8.5363   -1.2084    0.0000 C   0  0  0  0  0  0  0  0  0  0  0  0
    9.2484   -1.6231    0.0000 C   0  0  0  0  0  0  0  0  0  0  0  0
    8.5350   -0.3803    0.0000 O   0  0  0  0  0  0  0  0  0  0  0  0
   10.0001   -1.2849    0.0000 C   0  0  0  0  0  0  0  0  0  0  0  0
   10.5524   -1.9016    0.0000 C   0  0  0  0  0  0  0  0  0  0  0  0
   10.1376   -2.6136    0.0000 C   0  0  0  0  0  0  0  0  0  0  0  0
   10.4716   -3.3703    0.0000 C   0  0  0  0  0  0  0  0  0  0  0  0
    6.3898   -2.4411    0.0000 O   0  0  0  0  0  0  0  0  0  0  0  0
    7.1017   -2.8558    0.0000 C   0  0  0  0  0  0  0  0  0  0  0  0
    4.8657   -1.0584    0.0000 C   0  0  0  0  0  0  0  0  0  0  0  0
    5.3921   -1.9792    0.0000 C   0  0  0  0  0  0  0  0  0  0  0  0
   -6.5634    1.9563    0.0000 C   0  0  0  0  0  0  0  0  0  0  0  0
   -7.6231    1.9600    0.0000 C   0  0  0  0  0  0  0  0  0  0  0  0
   -8.5332   -0.3193    0.0000 O   0  0  0  0  0  0  0  0  0  0  0  0
   -8.5346   -1.1452    0.0000 C   0  0  0  0  0  0  0  0  0  0  0  0
   -7.8245   -1.5590    0.0000 O   0  0  0  0  0  0  0  0  0  0  0  0
   -9.2525   -1.5556    0.0000 C   0  0  0  0  0  0  0  0  0  0  0  0
  -10.0018   -1.2174    0.0000 C   0  0  0  0  0  0  0  0  0  0  0  0
  -10.5524   -1.8253    0.0000 C   0  0  0  0  0  0  0  0  0  0  0  0
  -10.1443   -2.5390    0.0000 C   0  0  0  0  0  0  0  0  0  0  0  0
  -10.4873   -3.2947    0.0000 C   0  0  0  0  0  0  0  0  0  0  0  0
   -8.5253    1.3301    0.0000 O   0  0  0  0  0  0  0  0  0  0  0  0
   -9.2423    0.9203    0.0000 C   0  0  0  0  0  0  0  0  0  0  0  0
   -0.3993    3.3103    0.0000 N   0  0  0  0  0  0  0  0  0  0  0  0
    2.1075    2.5141    0.0000 N   0  0  0  0  0  0  0  0  0  0  0  0
    3.5405    3.3347    0.0000 O   0  0  0  0  0  0  0  0  0  0  0  0
   -2.0863    2.5350    0.0000 N   0  0  0  0  0  0  0  0  0  0  0  0
   -2.0917    0.8834    0.0000 O   0  0  0  0  0  0  0  0  0  0  0  0
    7.8227    0.0240    0.0000 O   0  0  0  0  0  0  0  0  0  0  0  0
    9.3302   -2.4441    0.0000 N   0  0  0  0  0  0  0  0  0  0  0  0
   -7.1037   -1.1535    0.0000 O   0  0  0  0  0  0  0  0  0  0  0  0
   -9.3355   -2.3764    0.0000 N   0  0  0  0  0  0  0  0  0  0  0  0
    1.0347    4.1415    0.0000 H   0  0  0  0  0  0  0  0  0  0  0  0
   -0.9245    0.6837    0.0000 H   0  0  0  0  0  0  0  0  0  0  0  0
    0.9288    0.6771    0.0000 H   0  0  0  0  0  0  0  0  0  0  0  0
    0.0002    0.1454    0.0000 H   0  0  0  0  0  0  0  0  0  0  0  0
    6.5779    2.6094    0.0000 H   0  0  0  0  0  0  0  0  0  0  0  0
    4.9739    3.5438    0.0000 H   0  0  0  0  0  0  0  0  0  0  0  0
    4.0378   -0.5006    0.0000 H   0  0  0  0  0  0  0  0  0  0  0  0
    5.8911   -0.4986    0.0000 H   0  0  0  0  0  0  0  0  0  0  0  0
    4.9651   -1.0346    0.0000 H   0  0  0  0  0  0  0  0  0  0  0  0
   -2.6359   -0.4462    0.0000 H   0  0  0  0  0  0  0  0  0  0  0  0
   -4.2516   -1.3700    0.0000 H   0  0  0  0  0  0  0  0  0  0  0  0
   -5.6600    2.3894    0.0000 H   0  0  0  0  0  0  0  0  0  0  0  0
   -6.5974    0.7907    0.0000 H   0  0  0  0  0  0  0  0  0  0  0  0
   -6.5902    1.8606    0.0000 H   0  0  0  0  0  0  0  0  0  0  0  0
   -5.4582    0.6156    0.0000 H   0  0  0  0  0  0  0  0  0  0  0  0
    5.4654    0.5712    0.0000 H   0  0  0  0  0  0  0  0  0  0  0  0
    5.4614   -2.1512    0.0000 H   0  0  0  0  0  0  0  0  0  0  0  0
    7.1043   -2.2735    0.0000 H   0  0  0  0  0  0  0  0  0  0  0  0
    7.1133    0.6906    0.0000 H   0  0  0  0  0  0  0  0  0  0  0  0
   -7.8071    1.9823    0.0000 H   0  0  0  0  0  0  0  0  0  0  0  0
   -8.7410    0.6294    0.0000 H   0  0  0  0  0  0  0  0  0  0  0  0
   -6.1783   -0.8640    0.0000 H   0  0  0  0  0  0  0  0  0  0  0  0
   10.2140   -0.2753    0.0000 H   0  0  0  0  0  0  0  0  0  0  0  0
   11.5791   -1.7971    0.0000 H   0  0  0  0  0  0  0  0  0  0  0  0
    9.8399   -4.2339    0.0000 H   0  0  0  0  0  0  0  0  0  0  0  0
   11.5354   -3.4856    0.0000 H   0  0  0  0  0  0  0  0  0  0  0  0
   10.9037   -4.3492    0.0000 H   0  0  0  0  0  0  0  0  0  0  0  0
    7.0976   -3.9258    0.0000 H   0  0  0  0  0  0  0  0  0  0  0  0
    8.0304   -2.3244    0.0000 H   0  0  0  0  0  0  0  0  0  0  0  0
    8.0263   -3.3944    0.0000 H   0  0  0  0  0  0  0  0  0  0  0  0
    4.5013   -0.0524    0.0000 H   0  0  0  0  0  0  0  0  0  0  0  0
    4.1767   -1.8770    0.0000 H   0  0  0  0  0  0  0  0  0  0  0  0
    3.8122   -0.8710    0.0000 H   0  0  0  0  0  0  0  0  0  0  0  0
    4.3379   -2.1624    0.0000 H   0  0  0  0  0  0  0  0  0  0  0  0
    6.0779   -2.8006    0.0000 H   0  0  0  0  0  0  0  0  0  0  0  0
    5.0237   -2.9838    0.0000 H   0  0  0  0  0  0  0  0  0  0  0  0
   -5.5097    1.7704    0.0000 H   0  0  0  0  0  0  0  0  0  0  0  0
   -6.9292    2.9618    0.0000 H   0  0  0  0  0  0  0  0  0  0  0  0
   -5.8755    2.7759    0.0000 H   0  0  0  0  0  0  0  0  0  0  0  0
   -7.2509    2.9632    0.0000 H   0  0  0  0  0  0  0  0  0  0  0  0
   -8.6780    1.7807    0.0000 H   0  0  0  0  0  0  0  0  0  0  0  0
   -8.3058    2.7839    0.0000 H   0  0  0  0  0  0  0  0  0  0  0  0
  -10.2123   -0.2071    0.0000 H   0  0  0  0  0  0  0  0  0  0  0  0
  -11.5784   -1.7138    0.0000 H   0  0  0  0  0  0  0  0  0  0  0  0
  -11.5522   -3.3989    0.0000 H   0  0  0  0  0  0  0  0  0  0  0  0
   -9.8646   -4.1649    0.0000 H   0  0  0  0  0  0  0  0  0  0  0  0
  -10.9295   -4.2690    0.0000 H   0  0  0  0  0  0  0  0  0  0  0  0
  -10.1666    1.4593    0.0000 H   0  0  0  0  0  0  0  0  0  0  0  0
   -9.2470   -0.1497    0.0000 H   0  0  0  0  0  0  0  0  0  0  0  0
  -10.1713    0.3893    0.0000 H   0  0  0  0  0  0  0  0  0  0  0  0
   -0.9742    4.1095    0.0000 H   0  0  0  0  0  0  0  0  0  0  0  0
    2.1099    3.4986    0.0000 H   0  0  0  0  0  0  0  0  0  0  0  0
    4.3533    3.8009    0.0000 H   0  0  0  0  0  0  0  0  0  0  0  0
   -2.0789    3.5195    0.0000 H   0  0  0  0  0  0  0  0  0  0  0  0
   -2.1027   -0.0535    0.0000 H   0  0  0  0  0  0  0  0  0  0  0  0
    8.6579   -0.4693    0.0000 H   0  0  0  0  0  0  0  0  0  0  0  0
    8.5976   -3.1018    0.0000 H   0  0  0  0  0  0  0  0  0  0  0  0
   -7.9436   -1.6387    0.0000 H   0  0  0  0  0  0  0  0  0  0  0  0
   -8.6062   -3.0378    0.0000 H   0  0  0  0  0  0  0  0  0  0  0  0
  1  2  2  0  0  0  0
  1  7  1  0  0  0  0
  2  3  1  0  0  0  0
  2  5  1  0  0  0  0
  3  4  2  0  0  0  0
  3  6  1  0  0  0  0
  4 72  1  0  0  0  0
  4 81  1  0  0  0  0
  5 82  1  0  0  0  0
  5 83  1  0  0  0  0
  5 84  1  0  0  0  0
  6  8  2  0  0  0  0
  6 73  1  0  0  0  0
  7 22  2  0  0  0  0
  7 75  1  0  0  0  0
  9 10  1  0  0  0  0
  9 12  2  0  0  0  0
 10 11  1  0  0  0  0
 10 21  2  0  0  0  0
 11 14  1  0  0  0  0
 12 74  1  0  0  0  0
 13 12  1  0  0  0  0
 13 14  2  0  0  0  0
 14 15  1  0  0  0  0
 15 16  2  0  0  0  0
 15 20  1  0  0  0  0
 16 17  1  0  0  0  0
 16 19  1  0  0  0  0
 17 18  2  0  0  0  0
 17 85  1  0  0  0  0
 18 13  1  0  0  0  0
 18 86  1  0  0  0  0
 20 87  1  0  0  0  0
 20 88  1  0  0  0  0
 20 89  1  0  0  0  0
 23 24  2  0  0  0  0
 23 26  1  0  0  0  0
 24 28  1  0  0  0  0
 24 76  1  0  0  0  0
 25 26  1  0  0  0  0
 26 35  2  0  0  0  0
 27 25  1  0  0  0  0
 27 28  2  0  0  0  0
 28 29  1  0  0  0  0
 29 30  2  0  0  0  0
 29 90  1  0  0  0  0
 30 31  1  0  0  0  0
 30 91  1  0  0  0  0
 31 32  2  0  0  0  0
 31 33  1  0  0  0  0
 32 27  1  0  0  0  0
 32 34  1  0  0  0  0
 34 92  1  0  0  0  0
 34 93  1  0  0  0  0
 34 94  1  0  0  0  0
 36 33  1  0  0  0  0
 36 43  1  0  0  0  0
 36 47  1  0  0  0  0
 36 95  1  1  0  0  0
 37 19  1  0  0  0  0
 37 38  1  0  0  0  0
 37 42  1  0  0  0  0
 37 96  1  1  0  0  0
 38 39  1  0  0  0  0
 39 40  1  0  0  0  0
 39 58  1  0  0  0  0
 39 59  1  0  0  0  0
 40 41  1  0  0  0  0
 40 56  1  0  0  0  0
 40 97  1  1  0  0  0
 41 42  1  0  0  0  0
 41 48  1  0  0  0  0
 41 98  1  6  0  0  0
 42 77  1  0  0  0  0
 42 99  1  6  0  0  0
 43 44  1  0  0  0  0
 44 45  1  0  0  0  0
 44 60  1  0  0  0  0
 44 61  1  0  0  0  0
 45 46  1  0  0  0  0
 45 70  1  0  0  0  0
 45100  1  1  0  0  0
 46 47  1  0  0  0  0
 46 62  1  0  0  0  0
 46101  1  6  0  0  0
 47 79  1  0  0  0  0
 47102  1  6  0  0  0
 48 49  1  0  0  0  0
 49 50  1  0  0  0  0
 49 51  2  0  0  0  0
 50 52  2  0  0  0  0
 52 53  1  0  0  0  0
 52103  1  0  0  0  0
 53 54  2  0  0  0  0
 53104  1  0  0  0  0
 54 55  1  0  0  0  0
 54 78  1  0  0  0  0
 55105  1  0  0  0  0
 55106  1  0  0  0  0
 55107  1  0  0  0  0
 56 57  1  0  0  0  0
 57108  1  0  0  0  0
 57109  1  0  0  0  0
 57110  1  0  0  0  0
 58111  1  0  0  0  0
 58112  1  0  0  0  0
 58113  1  0  0  0  0
 59114  1  0  0  0  0
 59115  1  0  0  0  0
 59116  1  0  0  0  0
 60117  1  0  0  0  0
 60118  1  0  0  0  0
 60119  1  0  0  0  0
 61120  1  0  0  0  0
 61121  1  0  0  0  0
 61122  1  0  0  0  0
 62 63  1  0  0  0  0
 63 64  2  0  0  0  0
 63 65  1  0  0  0  0
 65 66  2  0  0  0  0
 66 67  1  0  0  0  0
 66123  1  0  0  0  0
 67 68  2  0  0  0  0
 67124  1  0  0  0  0
 68 69  1  0  0  0  0
 68 80  1  0  0  0  0
 69125  1  0  0  0  0
 69126  1  0  0  0  0
 69127  1  0  0  0  0
 70 71  1  0  0  0  0
 71128  1  0  0  0  0
 71129  1  0  0  0  0
 71130  1  0  0  0  0
 72  1  1  0  0  0  0
 72131  1  0  0  0  0
 73  9  1  0  0  0  0
 73132  1  0  0  0  0
 74133  1  0  0  0  0
 75 23  1  0  0  0  0
 75134  1  0  0  0  0
 76135  1  0  0  0  0
 77136  1  0  0  0  0
 78 50  1  0  0  0  0
 78137  1  0  0  0  0
 79138  1  0  0  0  0
 80 65  1  0  0  0  0
 80139  1  0  0  0  0
M  END
>  <DRUGBANK_ID>
DB13912

>  <COMMON_NAME>
Coumermycin A1

>  <CAS_NUMBER>
4434-05-3

>  <UNII>
PCH9QZ1IIH

>  <SYNONYMS>
Coumamycin; Coumermycin; Notomycin A1

$$$$
