458
 OpenBabel10282417072D

 45 47  0  0  0  0  0  0  0  0999 V2000
    3.8680    0.7167    0.0000 N   0  0  0  0  0  0  0  0  0  0  0  0
    2.4959   -1.6597    0.0000 N   0  0  0  0  0  0  0  0  0  0  0  0
    3.8680   -0.0755    0.0000 C   0  0  0  0  0  0  0  0  0  0  0  0
    4.5817    1.0603    0.0000 C   0  0  0  0  0  0  0  0  0  0  0  0
    3.1542    1.0603    0.0000 C   0  0  0  0  0  0  0  0  0  0  0  0
    4.2641    2.4519    0.0000 C   0  0  0  0  0  0  0  0  0  0  0  0
    3.4719    2.4519    0.0000 C   0  0  0  0  0  0  0  0  0  0  0  0
    4.7580    1.8326    0.0000 C   0  0  0  0  0  0  0  0  0  0  0  0
    2.9780    1.8326    0.0000 C   0  0  0  0  0  0  0  0  0  0  0  0
    3.1820   -0.4715    0.0000 C   0  0  0  0  0  0  0  0  0  0  0  0
    3.1819   -1.2637    0.0000 C   0  0  0  0  0  0  0  0  0  0  0  0
    5.1777    0.4899    0.0000 C   0  0  0  0  0  0  0  0  0  0  0  0
    2.5581    0.4899    0.0000 C   0  0  0  0  0  0  0  0  0  0  0  0
    5.5425    2.0879    0.0000 C   0  0  0  0  0  0  0  0  0  0  0  0
    2.1934    2.0879    0.0000 C   0  0  0  0  0  0  0  0  0  0  0  0
    5.9680    0.7269    0.0000 C   0  0  0  0  0  0  0  0  0  0  0  0
    1.7678    0.7269    0.0000 C   0  0  0  0  0  0  0  0  0  0  0  0
    6.1516    1.5314    0.0000 C   0  0  0  0  0  0  0  0  0  0  0  0
    1.5843    1.5315    0.0000 C   0  0  0  0  0  0  0  0  0  0  0  0
    2.4959   -2.4519    0.0000 C   0  0  0  0  0  0  0  0  0  0  0  0
    1.8099   -1.2637    0.0000 C   0  0  0  0  0  0  0  0  0  0  0  0
    4.7946   -0.6105    0.0000 H   0  0  0  0  0  0  0  0  0  0  0  0
    3.8679   -1.1455    0.0000 H   0  0  0  0  0  0  0  0  0  0  0  0
    4.7283    3.4159    0.0000 H   0  0  0  0  0  0  0  0  0  0  0  0
    5.3274    2.5717    0.0000 H   0  0  0  0  0  0  0  0  0  0  0  0
    3.0077    3.4159    0.0000 H   0  0  0  0  0  0  0  0  0  0  0  0
    2.4086    2.5717    0.0000 H   0  0  0  0  0  0  0  0  0  0  0  0
    2.2554    0.0636    0.0000 H   0  0  0  0  0  0  0  0  0  0  0  0
    2.2553   -1.0064    0.0000 H   0  0  0  0  0  0  0  0  0  0  0  0
    4.1085   -1.7988    0.0000 H   0  0  0  0  0  0  0  0  0  0  0  0
    4.1086   -0.7288    0.0000 H   0  0  0  0  0  0  0  0  0  0  0  0
    4.9364   -0.5135    0.0000 H   0  0  0  0  0  0  0  0  0  0  0  0
    2.7994   -0.5135    0.0000 H   0  0  0  0  0  0  0  0  0  0  0  0
    5.7605    3.0966    0.0000 H   0  0  0  0  0  0  0  0  0  0  0  0
    1.9754    3.0966    0.0000 H   0  0  0  0  0  0  0  0  0  0  0  0
    6.7218    0.0220    0.0000 H   0  0  0  0  0  0  0  0  0  0  0  0
    1.0140    0.0221    0.0000 H   0  0  0  0  0  0  0  0  0  0  0  0
    7.1366    1.8394    0.0000 H   0  0  0  0  0  0  0  0  0  0  0  0
    0.5994    1.8396    0.0000 H   0  0  0  0  0  0  0  0  0  0  0  0
    1.5693   -2.9869    0.0000 H   0  0  0  0  0  0  0  0  0  0  0  0
    3.4225   -2.9869    0.0000 H   0  0  0  0  0  0  0  0  0  0  0  0
    2.4959   -3.5219    0.0000 H   0  0  0  0  0  0  0  0  0  0  0  0
    1.8098   -0.1937    0.0000 H   0  0  0  0  0  0  0  0  0  0  0  0
    0.8833   -1.7988    0.0000 H   0  0  0  0  0  0  0  0  0  0  0  0
    0.8832   -0.7288    0.0000 H   0  0  0  0  0  0  0  0  0  0  0  0
  1  3  1  0  0  0  0
  1  4  1  0  0  0  0
  1  5  1  0  0  0  0
  2 11  1  0  0  0  0
  2 20  1  0  0  0  0
  2 21  1  0  0  0  0
  3 10  1  0  0  0  0
  3 22  1  0  0  0  0
  3 23  1  0  0  0  0
  4  8  1  0  0  0  0
  4 12  2  0  0  0  0
  5  9  1  0  0  0  0
  5 13  2  0  0  0  0
  6  7  1  0  0  0  0
  6  8  1  0  0  0  0
  6 24  1  0  0  0  0
  6 25  1  0  0  0  0
  7  9  1  0  0  0  0
  7 26  1  0  0  0  0
  7 27  1  0  0  0  0
  8 14  2  0  0  0  0
  9 15  2  0  0  0  0
 10 11  1  0  0  0  0
 10 28  1  0  0  0  0
 10 29  1  0  0  0  0
 11 30  1  0  0  0  0
 11 31  1  0  0  0  0
 12 16  1  0  0  0  0
 12 32  1  0  0  0  0
 13 17  1  0  0  0  0
 13 33  1  0  0  0  0
 14 18  1  0  0  0  0
 14 34  1  0  0  0  0
 15 19  1  0  0  0  0
 15 35  1  0  0  0  0
 16 18  2  0  0  0  0
 16 36  1  0  0  0  0
 17 19  2  0  0  0  0
 17 37  1  0  0  0  0
 18 38  1  0  0  0  0
 19 39  1  0  0  0  0
 20 40  1  0  0  0  0
 20 41  1  0  0  0  0
 20 42  1  0  0  0  0
 21 43  1  0  0  0  0
 21 44  1  0  0  0  0
 21 45  1  0  0  0  0
M  END
>  <DRUGBANK_ID>
DB00458

>  <SECONDARY_ACCESSION_NUMBERS>
APRD00672; DB08002

>  <COMMON_NAME>
Imipramine

>  <CAS_NUMBER>
50-49-7

>  <UNII>
OGG85SX4E4

>  <SYNONYMS>
10,11-dihydro-N,N-dimethyl-5H-dibenz[b,f]azepine-5-propanamine; 5-[3-(dimethylamino)propyl]-10,11-dihydro-5H-dibenz[b,f]azepine; Imipramin; Imipramina; Imipramine; Imipraminum; Imizine; N-(gamma-Dimethylaminopropyl)iminodibenzyl; N-(Î³-dimethylaminopropyl)iminodibenzyl

$$$$
