
 OpenBabel10282417072D

 31 31  0  0  0  0  0  0  0  0999 V2000
   -1.4289    0.0000    0.0000 C   0  0  0  0  0  0  0  0  0  0  0  0
   -1.4289   -0.8250    0.0000 C   0  0  0  0  0  0  0  0  0  0  0  0
   -0.7144    0.4125    0.0000 C   0  0  0  0  0  0  0  0  0  0  0  0
   -2.1434    0.4125    0.0000 C   0  0  0  0  0  0  0  0  0  0  0  0
   -2.1434   -1.2374    0.0000 N   0  0  0  0  0  0  0  0  0  0  0  0
   -0.7144   -1.2374    0.0000 N   0  0  0  0  0  0  0  0  0  0  0  0
    0.0000    0.0000    0.0000 N   0  0  0  0  0  0  0  0  0  0  0  0
   -2.8578    0.0000    0.0000 N   0  0  0  0  0  0  0  0  0  0  0  0
   -2.8578   -0.8250    0.0000 C   0  0  0  0  0  0  0  0  0  0  0  0
    0.7144    0.4125    0.0000 C   0  0  0  0  0  0  0  0  0  0  0  0
   -3.5723   -1.2374    0.0000 C   0  0  0  0  0  0  0  0  0  0  0  0
    1.4289    0.0000    0.0000 N   0  0  0  0  0  0  0  0  0  0  0  0
    0.7144    1.2374    0.0000 O   0  0  0  0  0  0  0  0  0  0  0  0
    2.1434    0.4125    0.0000 C   0  0  0  0  0  0  0  0  0  0  0  0
    1.4289   -0.8250    0.0000 N   0  0  0  0  0  0  0  0  0  0  0  0
    2.8578    0.0000    0.0000 C   0  0  0  0  0  0  0  0  0  0  0  0
    2.1434   -1.2374    0.0000 O   0  0  0  0  0  0  0  0  0  0  0  0
    3.5723    0.4125    0.0000 Cl  0  0  0  0  0  0  0  0  0  0  0  0
   -0.7144    1.4825    0.0000 H   0  0  0  0  0  0  0  0  0  0  0  0
    0.2123    0.9475    0.0000 H   0  0  0  0  0  0  0  0  0  0  0  0
   -2.1434    1.4445    0.0000 H   0  0  0  0  0  0  0  0  0  0  0  0
   -0.7143   -2.2219    0.0000 H   0  0  0  0  0  0  0  0  0  0  0  0
    0.1381   -0.7450    0.0000 H   0  0  0  0  0  0  0  0  0  0  0  0
    0.0000   -0.9845    0.0000 H   0  0  0  0  0  0  0  0  0  0  0  0
   -4.4989   -0.7023    0.0000 H   0  0  0  0  0  0  0  0  0  0  0  0
   -3.5724   -2.3074    0.0000 H   0  0  0  0  0  0  0  0  0  0  0  0
   -4.4990   -1.7723    0.0000 H   0  0  0  0  0  0  0  0  0  0  0  0
    2.1434    1.4825    0.0000 H   0  0  0  0  0  0  0  0  0  0  0  0
    3.0701    0.9475    0.0000 H   0  0  0  0  0  0  0  0  0  0  0  0
    2.8578   -1.0700    0.0000 H   0  0  0  0  0  0  0  0  0  0  0  0
    3.7844   -0.5350    0.0000 H   0  0  0  0  0  0  0  0  0  0  0  0
  1  2  1  0  0  0  0
  1  3  1  0  0  0  0
  1  4  2  0  0  0  0
  2  5  2  0  0  0  0
  2  6  1  0  0  0  0
  3  7  1  0  0  0  0
  3 19  1  0  0  0  0
  3 20  1  0  0  0  0
  4  8  1  0  0  0  0
  4 21  1  0  0  0  0
  5  9  1  0  0  0  0
  6 22  1  0  0  0  0
  6 23  1  0  0  0  0
  7 10  1  0  0  0  0
  7 24  1  0  0  0  0
  8  9  2  0  0  0  0
  9 11  1  0  0  0  0
 10 12  1  0  0  0  0
 10 13  2  0  0  0  0
 11 25  1  0  0  0  0
 11 26  1  0  0  0  0
 11 27  1  0  0  0  0
 12 14  1  0  0  0  0
 12 15  1  0  0  0  0
 14 16  1  0  0  0  0
 14 28  1  0  0  0  0
 14 29  1  0  0  0  0
 15 17  2  0  0  0  0
 16 18  1  0  0  0  0
 16 30  1  0  0  0  0
 16 31  1  0  0  0  0
M  END
>  <DRUGBANK_ID>
DB13069

>  <COMMON_NAME>
Nimustine

>  <CAS_NUMBER>
42471-28-3

>  <UNII>
0S726V972K

>  <SYNONYMS>
Nimustina; Nimustine; Nimustinum

$$$$
