
 OpenBabel10282417072D

231244  0  0  1  0  0  0  0  0999 V2000
   -3.5065    1.7375    0.0000 C   0  0  0  0  0  0  0  0  0  0  0  0
   -4.2231    2.1500    0.0000 Cl  0  0  0  0  0  0  0  0  0  0  0  0
   -4.9273   -0.7375    0.0000 O   0  0  0  0  0  0  0  0  0  0  0  0
   -4.9232   -1.5625    0.0000 C   0  0  0  0  0  0  0  0  0  0  0  0
   -3.5023    0.9163    0.0000 C   0  0  0  0  0  0  0  0  0  0  0  0
   -2.7164    0.6653    0.0000 N   0  0  0  0  0  0  0  0  0  0  0  0
   -2.2348    1.3351    0.0000 C   0  0  0  0  0  0  0  0  0  0  0  0
   -2.7231    2.0001    0.0000 S   0  0  0  0  0  0  0  0  0  0  0  0
   -4.9357    0.9125    0.0000 C   0  0  0  0  0  0  0  0  0  0  0  0
   -4.2191    0.5042    0.0000 C   0  0  0  0  0  0  0  0  0  0  0  0
   -4.9315    1.7375    0.0000 O   0  0  0  0  0  0  0  0  0  0  0  0
   -7.9144    2.1583    0.0000 C   0  0  0  0  0  0  0  0  0  0  0  0
   -8.6264    1.7499    0.0000 C   0  0  0  0  0  0  0  0  0  0  0  0
   -8.6264    0.9249    0.0000 C   0  0  0  0  0  0  0  0  0  0  0  0
   -7.9144    0.5082    0.0000 S   0  0  0  0  0  0  0  0  0  0  0  0
   -7.2024    1.7499    0.0000 N   0  0  0  0  0  0  0  0  0  0  0  0
   -7.2024    0.9203    0.0000 C   0  0  1  0  0  0  0  0  0  0  0  0
   -6.3729    0.9203    0.0000 C   0  0  1  0  0  0  0  0  0  0  0  0
   -6.3727    1.7499    0.0000 C   0  0  0  0  0  0  0  0  0  0  0  0
   -9.3357    2.1625    0.0000 C   0  0  0  0  0  0  0  0  0  0  0  0
   -7.9066    2.9833    0.0000 C   0  0  0  0  0  0  0  0  0  0  0  0
   -7.1899    3.3917    0.0000 O   0  0  0  0  0  0  0  0  0  0  0  0
   -8.6191    3.3958    0.0000 O   0  5  0  0  0  0  0  0  0  0  0  0
   -5.7816    2.3292    0.0000 O   0  0  0  0  0  0  0  0  0  0  0  0
   -7.1981    0.0916    0.0000 H   0  0  0  0  0  0  0  0  0  0  0  0
   -5.6523    0.5042    0.0000 N   0  0  0  0  0  0  0  0  0  0  0  0
   -1.4065    1.3292    0.0000 N   0  0  0  0  0  0  0  0  0  0  0  0
   -4.2148   -0.3208    0.0000 N   0  0  0  0  0  0  0  0  0  0  0  0
  -10.0482    1.7458    0.0000 N   0  3  0  0  0  0  0  0  0  0  0  0
  -11.4727    0.9153    0.0000 C   0  0  0  0  0  0  0  0  0  0  0  0
  -10.7506    0.5066    0.0000 C   0  0  0  0  0  0  0  0  0  0  0  0
  -10.0417    0.9250    0.0000 C   0  0  0  0  0  0  0  0  0  0  0  0
  -11.4769    1.7415    0.0000 C   0  0  0  0  0  0  0  0  0  0  0  0
  -10.7668    2.1606    0.0000 C   0  0  0  0  0  0  0  0  0  0  0  0
   -4.2065   -1.9666    0.0000 C   0  0  0  0  0  0  0  0  0  0  0  0
   -4.1898   -3.7375    0.0000 C   0  0  0  0  0  0  0  0  0  0  0  0
   -3.4731   -4.1417    0.0000 N   0  0  0  0  0  0  0  0  0  0  0  0
   -1.3315   -5.3792    0.0000 C   0  0  0  0  0  0  0  0  0  0  0  0
   -2.0397   -4.9584    0.0000 C   0  0  0  0  0  0  0  0  0  0  0  0
   -2.0440   -4.1293    0.0000 C   0  0  2  0  0  0  0  0  0  0  0  0
   -1.3315   -6.2001    0.0000 C   0  0  0  0  0  0  0  0  0  0  0  0
   -2.0440   -6.6084    0.0000 C   0  0  0  0  0  0  0  0  0  0  0  0
   -2.7565   -5.3668    0.0000 C   0  0  0  0  0  0  0  0  0  0  0  0
   -2.7607   -6.1917    0.0000 C   0  0  0  0  0  0  0  0  0  0  0  0
   -0.6189   -6.6126    0.0000 O   0  0  0  0  0  0  0  0  0  0  0  0
   -3.4773   -6.6001    0.0000 O   0  0  0  0  0  0  0  0  0  0  0  0
   -1.3398   -3.7126    0.0000 N   0  0  0  0  0  0  0  0  0  0  0  0
   -1.3481   -2.1208    0.0000 C   0  0  0  0  0  0  0  0  0  0  0  0
   -0.6398   -1.7083    0.0000 C   0  0  1  0  0  0  0  0  0  0  0  0
   -2.0598   -1.7140    0.0000 O   0  0  0  0  0  0  0  0  0  0  0  0
    7.9144   -1.6833    0.0000 C   0  0  2  0  0  0  0  0  0  0  0  0
    0.0767   -2.1208    0.0000 N   0  0  0  0  0  0  0  0  0  0  0  0
    3.6602    3.6209    0.0000 C   0  0  1  0  0  0  0  0  0  0  0  0
    4.0684    2.9000    0.0000 C   0  0  1  0  0  0  0  0  0  0  0  0
    2.2143   -1.7000    0.0000 N   0  0  0  0  0  0  0  0  0  0  0  0
    4.3518   -2.1083    0.0000 N   0  0  0  0  0  0  0  0  0  0  0  0
    7.2019   -2.1000    0.0000 C   0  0  0  0  0  0  0  0  0  0  0  0
    0.7893   -1.7000    0.0000 C   0  0  0  0  0  0  0  0  0  0  0  0
    2.9268   -2.1125    0.0000 C   0  0  0  0  0  0  0  0  0  0  0  0
    3.6518    1.3625    0.0000 C   0  0  0  0  0  0  0  0  0  0  0  0
    4.0809    4.3375    0.0000 C   0  0  2  0  0  0  0  0  0  0  0  0
    6.4894   -1.6875    0.0000 N   0  0  0  0  0  0  0  0  0  0  0  0
    3.6393   -1.6957    0.0000 C   0  0  1  0  0  0  0  0  0  0  0  0
    8.6269   -2.0958    0.0000 N   0  0  0  0  0  0  0  0  0  0  0  0
    2.9394    0.9500    0.0000 C   0  0  0  0  0  0  0  0  0  0  0  0
    4.3602    0.9542    0.0000 C   0  0  0  0  0  0  0  0  0  0  0  0
    5.0644   -1.6875    0.0000 C   0  0  0  0  0  0  0  0  0  0  0  0
    1.5018   -2.1125    0.0000 C   0  0  1  0  0  0  0  0  0  0  0  0
    4.8934    2.8959    0.0000 O   0  0  0  0  0  0  0  0  0  0  0  0
    3.6476    2.1875    0.0000 O   0  0  0  0  0  0  0  0  0  0  0  0
    2.4101    5.7876    0.0000 C   0  0  1  0  0  0  0  0  0  0  0  0
    3.6476   -0.2833    0.0000 C   0  0  0  0  0  0  0  0  0  0  0  0
    4.9101    4.3251    0.0000 C   0  0  1  0  0  0  0  0  0  0  0  0
    2.2268    1.3625    0.0000 O   0  0  0  0  0  0  0  0  0  0  0  0
    5.0726    1.3749    0.0000 O   0  0  0  0  0  0  0  0  0  0  0  0
    5.7768   -2.1000    0.0000 C   0  0  2  0  0  0  0  0  0  0  0  0
    2.4143    4.3500    0.0000 C   0  0  1  0  0  0  0  0  0  0  0  0
    9.3395   -1.6750    0.0000 C   0  0  0  0  0  0  0  0  0  0  0  0
    5.3144    3.6042    0.0000 C   0  0  1  0  0  0  0  0  0  0  0  0
   -0.6274   -0.2875    0.0000 C   0  0  1  0  0  0  0  0  0  0  0  0
    7.9144   -0.2749    0.0000 C   0  0  1  0  0  0  0  0  0  0  0  0
    2.8268    5.0709    0.0000 C   0  0  0  0  0  0  0  0  0  0  0  0
    1.5809    4.3418    0.0000 O   0  0  0  0  0  0  0  0  0  0  0  0
    1.5018   -2.9375    0.0000 C   0  0  0  0  0  0  0  0  0  0  0  0
    1.5768    5.7835    0.0000 C   0  0  1  0  0  0  0  0  0  0  0  0
    5.7768   -3.2833    0.0000 C   0  0  0  0  0  0  0  0  0  0  0  0
    0.0893    0.1166    0.0000 C   0  0  0  0  0  0  0  0  0  0  0  0
    7.2060    0.1333    0.0000 C   0  0  0  0  0  0  0  0  0  0  0  0
    2.8309    3.6292    0.0000 O   0  0  0  0  0  0  0  0  0  0  0  0
    4.3644    0.1250    0.0000 C   0  0  0  0  0  0  0  0  0  0  0  0
    2.9394    0.1291    0.0000 C   0  0  0  0  0  0  0  0  0  0  0  0
    1.5183    0.9459    0.0000 C   0  0  0  0  0  0  0  0  0  0  0  0
    5.7852    0.9625    0.0000 C   0  0  0  0  0  0  0  0  0  0  0  0
    1.1643    5.0626    0.0000 C   0  0  2  0  0  0  0  0  0  0  0  0
    6.4934    1.3708    0.0000 C   0  0  0  0  0  0  0  0  0  0  0  0
    0.8018    1.3584    0.0000 C   0  0  0  0  0  0  0  0  0  0  0  0
    5.0601   -3.6875    0.0000 C   0  0  0  0  0  0  0  0  0  0  0  0
    7.2019    0.9625    0.0000 C   0  0  0  0  0  0  0  0  0  0  0  0
    0.0893    0.9416    0.0000 C   0  0  0  0  0  0  0  0  0  0  0  0
   10.0519   -2.0875    0.0000 C   0  0  1  0  0  0  0  0  0  0  0  0
    7.2019   -2.9250    0.0000 O   0  0  0  0  0  0  0  0  0  0  0  0
    2.9268   -2.9375    0.0000 O   0  0  0  0  0  0  0  0  0  0  0  0
    0.7893   -0.8750    0.0000 O   0  0  0  0  0  0  0  0  0  0  0  0
    5.0644   -0.8625    0.0000 O   0  0  0  0  0  0  0  0  0  0  0  0
    9.3395   -0.8499    0.0000 O   0  0  0  0  0  0  0  0  0  0  0  0
    0.8018   -0.2957    0.0000 C   0  0  0  0  0  0  0  0  0  0  0  0
    6.4894   -0.2749    0.0000 C   0  0  0  0  0  0  0  0  0  0  0  0
    1.5183    0.1166    0.0000 C   0  0  0  0  0  0  0  0  0  0  0  0
    5.7810    0.1375    0.0000 C   0  0  0  0  0  0  0  0  0  0  0  0
    5.0518   -4.5125    0.0000 O   0  0  0  0  0  0  0  0  0  0  0  0
   10.0519   -2.9125    0.0000 C   0  0  0  0  0  0  0  0  0  0  0  0
    2.4018    6.6126    0.0000 N   0  0  0  0  0  0  0  0  0  0  0  0
    3.6726    5.0542    0.0000 O   0  0  0  0  0  0  0  0  0  0  0  0
    5.3268    5.0375    0.0000 O   0  0  0  0  0  0  0  0  0  0  0  0
    4.3393   -3.2750    0.0000 N   0  0  0  0  0  0  0  0  0  0  0  0
   10.7645   -1.6750    0.0000 N   0  0  0  0  0  0  0  0  0  0  0  0
    1.1601    6.5001    0.0000 O   0  0  0  0  0  0  0  0  0  0  0  0
    0.7975    2.1875    0.0000 Cl  0  0  0  0  0  0  0  0  0  0  0  0
   -1.3482    0.1250    0.0000 O   0  0  0  0  0  0  0  0  0  0  0  0
    6.4894    2.2000    0.0000 Cl  0  0  0  0  0  0  0  0  0  0  0  0
    8.6269    0.1375    0.0000 O   0  0  0  0  0  0  0  0  0  0  0  0
    6.1394    3.6000    0.0000 C   0  0  0  0  0  0  0  0  0  0  0  0
    3.2351    5.7876    0.0000 C   0  0  0  0  0  0  0  0  0  0  0  0
    6.4269    4.3750    0.0000 O   0  0  0  0  0  0  0  0  0  0  0  0
    0.3393    5.0668    0.0000 C   0  0  0  0  0  0  0  0  0  0  0  0
   10.7645   -3.3250    0.0000 C   0  0  0  0  0  0  0  0  0  0  0  0
   11.4769   -2.0875    0.0000 C   0  0  0  0  0  0  0  0  0  0  0  0
   11.4769   -2.9125    0.0000 C   0  0  0  0  0  0  0  0  0  0  0  0
   10.7603   -4.1500    0.0000 C   0  0  0  0  0  0  0  0  0  0  0  0
    3.0726    3.0375    0.0000 H   0  0  0  0  0  0  0  0  0  0  0  0
   -2.7648   -3.7250    0.0000 C   0  0  0  0  0  0  0  0  0  0  0  0
   -2.7733   -2.9032    0.0000 O   0  0  0  0  0  0  0  0  0  0  0  0
    0.7851   -3.3482    0.0000 C   0  0  0  0  0  0  0  0  0  0  0  0
    0.7847   -4.1724    0.0000 C   0  0  0  0  0  0  0  0  0  0  0  0
    1.4996   -4.5857    0.0000 C   0  0  0  0  0  0  0  0  0  0  0  0
    2.2166   -4.1688    0.0000 C   0  0  0  0  0  0  0  0  0  0  0  0
    2.2134   -3.3459    0.0000 C   0  0  0  0  0  0  0  0  0  0  0  0
    1.5007   -5.4116    0.0000 O   0  0  0  0  0  0  0  0  0  0  0  0
   -5.8458   -2.1045    0.0000 H   0  0  0  0  0  0  0  0  0  0  0  0
   -4.9137   -2.6325    0.0000 H   0  0  0  0  0  0  0  0  0  0  0  0
   -9.5546    0.3926    0.0000 H   0  0  0  0  0  0  0  0  0  0  0  0
   -8.6311   -0.1451    0.0000 H   0  0  0  0  0  0  0  0  0  0  0  0
   -6.6499   -0.1132    0.0000 H   0  0  0  0  0  0  0  0  0  0  0  0
   -9.3370    3.2325    0.0000 H   0  0  0  0  0  0  0  0  0  0  0  0
  -10.2642    2.6944    0.0000 H   0  0  0  0  0  0  0  0  0  0  0  0
   -5.6551   -0.4803    0.0000 H   0  0  0  0  0  0  0  0  0  0  0  0
   -0.9203    0.4731    0.0000 H   0  0  0  0  0  0  0  0  0  0  0  0
   -0.9082    2.1783    0.0000 H   0  0  0  0  0  0  0  0  0  0  0  0
  -12.3629    0.3932    0.0000 H   0  0  0  0  0  0  0  0  0  0  0  0
  -10.7412   -0.5254    0.0000 H   0  0  0  0  0  0  0  0  0  0  0  0
   -9.1435    0.4168    0.0000 H   0  0  0  0  0  0  0  0  0  0  0  0
  -12.3744    2.2509    0.0000 H   0  0  0  0  0  0  0  0  0  0  0  0
  -10.7718    3.1926    0.0000 H   0  0  0  0  0  0  0  0  0  0  0  0
   -3.2851   -1.4225    0.0000 H   0  0  0  0  0  0  0  0  0  0  0  0
   -3.2747   -2.4927    0.0000 H   0  0  0  0  0  0  0  0  0  0  0  0
   -5.1112   -4.2815    0.0000 H   0  0  0  0  0  0  0  0  0  0  0  0
   -4.1792   -4.8074    0.0000 H   0  0  0  0  0  0  0  0  0  0  0  0
   -3.4641   -5.1262    0.0000 H   0  0  0  0  0  0  0  0  0  0  0  0
   -2.9659   -4.6724    0.0000 H   0  0  0  0  0  0  0  0  0  0  0  0
   -2.0472   -7.6404    0.0000 H   0  0  0  0  0  0  0  0  0  0  0  0
   -3.6474   -4.8460    0.0000 H   0  0  0  0  0  0  0  0  0  0  0  0
   -0.6200   -7.5496    0.0000 H   0  0  0  0  0  0  0  0  0  0  0  0
   -4.2861   -6.1271    0.0000 H   0  0  0  0  0  0  0  0  0  0  0  0
   -0.4833   -4.1980    0.0000 H   0  0  0  0  0  0  0  0  0  0  0  0
   -0.6371   -2.7783    0.0000 H   0  0  0  0  0  0  0  0  0  0  0  0
    7.9168   -2.7533    0.0000 H   0  0  0  0  0  0  0  0  0  0  0  0
    0.0821   -3.1053    0.0000 H   0  0  0  0  0  0  0  0  0  0  0  0
    2.9984    2.9098    0.0000 H   0  0  0  0  0  0  0  0  0  0  0  0
    2.2143   -0.7155    0.0000 H   0  0  0  0  0  0  0  0  0  0  0  0
    4.3560   -3.0928    0.0000 H   0  0  0  0  0  0  0  0  0  0  0  0
    3.0109    4.3445    0.0000 H   0  0  0  0  0  0  0  0  0  0  0  0
    6.4894   -0.7030    0.0000 H   0  0  0  0  0  0  0  0  0  0  0  0
    3.6417   -2.7657    0.0000 H   0  0  0  0  0  0  0  0  0  0  0  0
    8.6311   -3.0803    0.0000 H   0  0  0  0  0  0  0  0  0  0  0  0
    1.5018   -1.0425    0.0000 H   0  0  0  0  0  0  0  0  0  0  0  0
    4.3847    5.2572    0.0000 H   0  0  0  0  0  0  0  0  0  0  0  0
    5.7769   -1.0300    0.0000 H   0  0  0  0  0  0  0  0  0  0  0  0
    3.4843    4.3523    0.0000 H   0  0  0  0  0  0  0  0  0  0  0  0
    5.8411    2.6728    0.0000 H   0  0  0  0  0  0  0  0  0  0  0  0
   -1.5554   -0.8202    0.0000 H   0  0  0  0  0  0  0  0  0  0  0  0
    8.8413   -0.8094    0.0000 H   0  0  0  0  0  0  0  0  0  0  0  0
    3.8968    5.0746    0.0000 H   0  0  0  0  0  0  0  0  0  0  0  0
    3.3652    4.1462    0.0000 H   0  0  0  0  0  0  0  0  0  0  0  0
    0.5068    5.7798    0.0000 H   0  0  0  0  0  0  0  0  0  0  0  0
    6.7007   -3.8230    0.0000 H   0  0  0  0  0  0  0  0  0  0  0  0
    5.7687   -4.3533    0.0000 H   0  0  0  0  0  0  0  0  0  0  0  0
    5.2579   -0.3913    0.0000 H   0  0  0  0  0  0  0  0  0  0  0  0
    2.0447   -0.3852    0.0000 H   0  0  0  0  0  0  0  0  0  0  0  0
    0.6299    5.9896    0.0000 H   0  0  0  0  0  0  0  0  0  0  0  0
    8.0942    1.4811    0.0000 H   0  0  0  0  0  0  0  0  0  0  0  0
   -0.8059    1.4550    0.0000 H   0  0  0  0  0  0  0  0  0  0  0  0
   10.0520   -1.0175    0.0000 H   0  0  0  0  0  0  0  0  0  0  0  0
    0.8005   -1.3277    0.0000 H   0  0  0  0  0  0  0  0  0  0  0  0
    6.4845   -1.3069    0.0000 H   0  0  0  0  0  0  0  0  0  0  0  0
    2.4117   -0.4000    0.0000 H   0  0  0  0  0  0  0  0  0  0  0  0
    4.8850   -0.3746    0.0000 H   0  0  0  0  0  0  0  0  0  0  0  0
    9.1249   -3.4470    0.0000 H   0  0  0  0  0  0  0  0  0  0  0  0
   10.0510   -3.9825    0.0000 H   0  0  0  0  0  0  0  0  0  0  0  0
    3.2800    7.1315    0.0000 H   0  0  0  0  0  0  0  0  0  0  0  0
    1.5134    7.1137    0.0000 H   0  0  0  0  0  0  0  0  0  0  0  0
    4.1624    5.8914    0.0000 H   0  0  0  0  0  0  0  0  0  0  0  0
    6.2968    5.0320    0.0000 H   0  0  0  0  0  0  0  0  0  0  0  0
    4.3355   -2.2905    0.0000 H   0  0  0  0  0  0  0  0  0  0  0  0
    3.4886   -3.7705    0.0000 H   0  0  0  0  0  0  0  0  0  0  0  0
   10.7646   -0.6550    0.0000 H   0  0  0  0  0  0  0  0  0  0  0  0
    1.6425    7.3416    0.0000 H   0  0  0  0  0  0  0  0  0  0  0  0
   -1.3519    1.0950    0.0000 H   0  0  0  0  0  0  0  0  0  0  0  0
    9.4675   -0.3466    0.0000 H   0  0  0  0  0  0  0  0  0  0  0  0
    6.7482    2.7201    0.0000 H   0  0  0  0  0  0  0  0  0  0  0  0
    7.2011    3.7334    0.0000 H   0  0  0  0  0  0  0  0  0  0  0  0
    3.7701    4.8610    0.0000 H   0  0  0  0  0  0  0  0  0  0  0  0
    3.7701    6.7142    0.0000 H   0  0  0  0  0  0  0  0  0  0  0  0
    4.3051    5.7876    0.0000 H   0  0  0  0  0  0  0  0  0  0  0  0
    7.3832    4.5375    0.0000 H   0  0  0  0  0  0  0  0  0  0  0  0
   -0.1910    5.9962    0.0000 H   0  0  0  0  0  0  0  0  0  0  0  0
   -0.2004    4.1429    0.0000 H   0  0  0  0  0  0  0  0  0  0  0  0
   -0.7307    5.0722    0.0000 H   0  0  0  0  0  0  0  0  0  0  0  0
   11.6901   -3.8618    0.0000 H   0  0  0  0  0  0  0  0  0  0  0  0
   11.4756   -3.1575    0.0000 H   0  0  0  0  0  0  0  0  0  0  0  0
   12.4042   -1.5537    0.0000 H   0  0  0  0  0  0  0  0  0  0  0  0
   12.4029   -2.6237    0.0000 H   0  0  0  0  0  0  0  0  0  0  0  0
   12.4042   -3.4463    0.0000 H   0  0  0  0  0  0  0  0  0  0  0  0
   11.4756   -1.8425    0.0000 H   0  0  0  0  0  0  0  0  0  0  0  0
   12.4029   -2.3763    0.0000 H   0  0  0  0  0  0  0  0  0  0  0  0
    9.8309   -4.6803    0.0000 H   0  0  0  0  0  0  0  0  0  0  0  0
   11.6842   -4.6897    0.0000 H   0  0  0  0  0  0  0  0  0  0  0  0
   10.7549   -5.2200    0.0000 H   0  0  0  0  0  0  0  0  0  0  0  0
   -0.1077   -2.8305    0.0000 H   0  0  0  0  0  0  0  0  0  0  0  0
    3.1121   -4.6817    0.0000 H   0  0  0  0  0  0  0  0  0  0  0  0
    3.1055   -2.8270    0.0000 H   0  0  0  0  0  0  0  0  0  0  0  0
    0.6899   -5.8812    0.0000 H   0  0  0  0  0  0  0  0  0  0  0  0
  1  5  2  0  0  0  0
  1  2  1  0  0  0  0
  3  4  1  0  0  0  0
  4 35  1  0  0  0  0
  4139  1  0  0  0  0
  4140  1  0  0  0  0
  5  6  1  0  0  0  0
  6  7  2  0  0  0  0
  7 27  1  0  0  0  0
  7  8  1  0  0  0  0
  8  1  1  0  0  0  0
  9 11  2  0  0  0  0
  9 10  1  0  0  0  0
 10  5  1  0  0  0  0
 10 28  2  0  0  0  0
 12 13  2  0  0  0  0
 12 21  1  0  0  0  0
 13 20  1  0  0  0  0
 13 14  1  0  0  0  0
 14 15  1  0  0  0  0
 14141  1  0  0  0  0
 14142  1  0  0  0  0
 16 12  1  0  0  0  0
 16 17  1  0  0  0  0
 17 15  1  0  0  0  0
 17 25  1  6  0  0  0
 17 18  1  0  0  0  0
 18 26  1  0  0  0  0
 18 19  1  0  0  0  0
 18143  1  6  0  0  0
 19 16  1  0  0  0  0
 19 24  2  0  0  0  0
 20 29  1  0  0  0  0
 20144  1  0  0  0  0
 20145  1  0  0  0  0
 21 22  2  0  0  0  0
 21 23  1  0  0  0  0
 26  9  1  0  0  0  0
 26146  1  0  0  0  0
 27147  1  0  0  0  0
 27148  1  0  0  0  0
 28  3  1  0  0  0  0
 29 34  2  0  0  0  0
 30 31  1  0  0  0  0
 30149  1  0  0  0  0
 31 32  2  0  0  0  0
 31150  1  0  0  0  0
 32 29  1  0  0  0  0
 32151  1  0  0  0  0
 33 30  2  0  0  0  0
 33 34  1  0  0  0  0
 33152  1  0  0  0  0
 34153  1  0  0  0  0
 35 36  1  0  0  0  0
 35154  1  0  0  0  0
 35155  1  0  0  0  0
 36 37  1  0  0  0  0
 36156  1  0  0  0  0
 36157  1  0  0  0  0
 37158  1  0  0  0  0
 38 39  2  0  0  0  0
 38134  1  0  0  0  0
 39 40  1  0  0  0  0
 40 47  1  0  0  0  0
 40131  1  0  0  0  0
 40159  1  6  0  0  0
 41 38  1  0  0  0  0
 41 42  2  0  0  0  0
 42 44  1  0  0  0  0
 42160  1  0  0  0  0
 43 39  1  0  0  0  0
 43161  1  0  0  0  0
 44 43  2  0  0  0  0
 45 41  1  0  0  0  0
 45162  1  0  0  0  0
 46 44  1  0  0  0  0
 46163  1  0  0  0  0
 47 48  1  0  0  0  0
 47164  1  0  0  0  0
 48 49  1  0  0  0  0
 48 50  2  0  0  0  0
 49 52  1  0  0  0  0
 49165  1  1  0  0  0
 51 57  1  0  0  0  0
 51 64  1  0  0  0  0
 51166  1  6  0  0  0
 52167  1  0  0  0  0
 53 54  1  0  0  0  0
 53130  1  1  0  0  0
 54 70  1  0  0  0  0
 54168  1  6  0  0  0
 55 68  1  0  0  0  0
 55169  1  0  0  0  0
 56170  1  0  0  0  0
 57 62  1  0  0  0  0
 58 52  1  0  0  0  0
 59 55  1  0  0  0  0
 60 65  1  0  0  0  0
 60 66  2  0  0  0  0
 61 53  1  0  0  0  0
 61113  1  0  0  0  0
 61171  1  6  0  0  0
 62172  1  0  0  0  0
 63 56  1  0  0  0  0
 63 59  1  0  0  0  0
 63173  1  6  0  0  0
 64174  1  0  0  0  0
 65 74  1  0  0  0  0
 66 90  1  0  0  0  0
 67 56  1  0  0  0  0
 68 58  1  0  0  0  0
 68175  1  1  0  0  0
 69 54  1  0  0  0  0
 70 60  1  0  0  0  0
 71 82  1  0  0  0  0
 71112  1  1  0  0  0
 71123  1  0  0  0  0
 72 63  1  0  0  0  0
 73 61  1  0  0  0  0
 73114  1  0  0  0  0
 73176  1  1  0  0  0
 74 92  1  0  0  0  0
 75 66  1  0  0  0  0
 76 62  1  0  0  0  0
 76 67  1  0  0  0  0
 76177  1  6  0  0  0
 77 89  1  0  0  0  0
 77178  1  1  0  0  0
 78 64  1  0  0  0  0
 79 69  1  0  0  0  0
 79122  1  0  0  0  0
 79 73  1  0  0  0  0
 79179  1  6  0  0  0
 80 49  1  0  0  0  0
 80119  1  0  0  0  0
 80180  1  1  0  0  0
 81 51  1  0  0  0  0
 81121  1  0  0  0  0
 81181  1  6  0  0  0
 82 77  1  0  0  0  0
 82182  1  0  0  0  0
 82183  1  0  0  0  0
 83 77  1  0  0  0  0
 84 68  1  0  0  0  0
 84133  2  0  0  0  0
 85 94  1  0  0  0  0
 85117  1  0  0  0  0
 85 71  1  0  0  0  0
 85184  1  6  0  0  0
 86 76  1  0  0  0  0
 86185  1  0  0  0  0
 86186  1  0  0  0  0
 87 80  1  0  0  0  0
 88 81  1  0  0  0  0
 88107  2  0  0  0  0
 89 53  1  0  0  0  0
 90 72  2  0  0  0  0
 90187  1  0  0  0  0
 91 72  1  0  0  0  0
 91 65  2  0  0  0  0
 91188  1  0  0  0  0
 92108  1  0  0  0  0
 93 75  1  0  0  0  0
 94 83  1  0  0  0  0
 94125  1  0  0  0  0
 94189  1  6  0  0  0
 95 93  1  0  0  0  0
 96 99  1  0  0  0  0
 96 92  2  0  0  0  0
 97 86  1  0  0  0  0
 98 95  2  0  0  0  0
 98 88  1  0  0  0  0
 98190  1  0  0  0  0
 99 87  2  0  0  0  0
 99191  1  0  0  0  0
100 78  1  0  0  0  0
100116  1  0  0  0  0
100192  1  1  0  0  0
101 57  2  0  0  0  0
102 59  2  0  0  0  0
103 58  2  0  0  0  0
104 67  2  0  0  0  0
105 78  2  0  0  0  0
106 87  1  0  0  0  0
106193  1  0  0  0  0
107109  1  0  0  0  0
107194  1  0  0  0  0
108106  2  0  0  0  0
108195  1  0  0  0  0
109 93  2  0  0  0  0
109196  1  0  0  0  0
110 97  2  0  0  0  0
111100  1  0  0  0  0
111197  1  0  0  0  0
111198  1  0  0  0  0
112199  1  0  0  0  0
112200  1  0  0  0  0
113201  1  0  0  0  0
114202  1  0  0  0  0
115 97  1  0  0  0  0
115203  1  0  0  0  0
115204  1  0  0  0  0
116205  1  0  0  0  0
117206  1  0  0  0  0
118 96  1  0  0  0  0
119207  1  0  0  0  0
120 95  1  0  0  0  0
121208  1  0  0  0  0
122209  1  0  0  0  0
122210  1  0  0  0  0
123211  1  0  0  0  0
123212  1  0  0  0  0
123213  1  0  0  0  0
124122  1  0  0  0  0
124214  1  0  0  0  0
125215  1  0  0  0  0
125216  1  0  0  0  0
125217  1  0  0  0  0
126111  1  0  0  0  0
126218  1  0  0  0  0
127116  1  0  0  0  0
127219  1  0  0  0  0
127220  1  0  0  0  0
127221  1  0  0  0  0
128126  1  0  0  0  0
128222  1  0  0  0  0
128223  1  0  0  0  0
128224  1  0  0  0  0
129126  1  0  0  0  0
129225  1  0  0  0  0
129226  1  0  0  0  0
129227  1  0  0  0  0
131 37  1  0  0  0  0
131132  2  0  0  0  0
133134  1  0  0  0  0
133228  1  0  0  0  0
134135  2  0  0  0  0
135136  1  0  0  0  0
135138  1  0  0  0  0
136137  2  0  0  0  0
136229  1  0  0  0  0
137 84  1  0  0  0  0
137230  1  0  0  0  0
138231  1  0  0  0  0
M  CHG  2  23  -1  29   1
M  END
>  <DRUGBANK_ID>
DB05735

>  <COMMON_NAME>
Cefilavancin

>  <CAS_NUMBER>
722454-12-8

>  <UNII>
F76229E21M

>  <SYNONYMS>
Cefilavancin

$$$$
