AAZ
 OpenBabel10282417072D

 52 55  0  0  0  0  0  0  0  0999 V2000
    0.8208    3.1978    0.0000 O   0  0  0  0  0  0  0  0  0  0  0  0
    1.6458    3.1978    0.0000 S   0  0  0  0  0  0  0  0  0  0  0  0
    2.4708    3.1978    0.0000 O   0  0  0  0  0  0  0  0  0  0  0  0
    1.6458    4.0228    0.0000 C   0  0  0  0  0  0  0  0  0  0  0  0
    2.3603    4.4353    0.0000 C   0  0  0  0  0  0  0  0  0  0  0  0
    1.6458    2.3728    0.0000 C   0  0  0  0  0  0  0  0  0  0  0  0
    2.3603    1.9603    0.0000 C   0  0  0  0  0  0  0  0  0  0  0  0
    2.3603    1.1353    0.0000 C   0  0  0  0  0  0  0  0  0  0  0  0
    1.6458    0.7228    0.0000 C   0  0  0  0  0  0  0  0  0  0  0  0
    1.6458   -0.1022    0.0000 O   0  0  0  0  0  0  0  0  0  0  0  0
    2.3603   -0.5147    0.0000 C   0  0  0  0  0  0  0  0  0  0  0  0
    0.9314    1.1353    0.0000 C   0  0  0  0  0  0  0  0  0  0  0  0
    0.9314    1.9603    0.0000 C   0  0  0  0  0  0  0  0  0  0  0  0
    0.2169    0.7228    0.0000 N   0  0  0  0  0  0  0  0  0  0  0  0
    0.2169   -0.1022    0.0000 C   0  0  0  0  0  0  0  0  0  0  0  0
    0.8843   -0.5871    0.0000 N   0  0  0  0  0  0  0  0  0  0  0  0
    0.6294   -1.3718    0.0000 C   0  0  0  0  0  0  0  0  0  0  0  0
   -0.1956   -1.3718    0.0000 C   0  0  0  0  0  0  0  0  0  0  0  0
   -0.4506   -0.5871    0.0000 O   0  0  0  0  0  0  0  0  0  0  0  0
   -0.6805   -2.0392    0.0000 C   0  0  0  0  0  0  0  0  0  0  0  0
   -0.3450   -2.7929    0.0000 C   0  0  0  0  0  0  0  0  0  0  0  0
   -0.8299   -3.4603    0.0000 C   0  0  0  0  0  0  0  0  0  0  0  0
   -1.6504   -3.3741    0.0000 C   0  0  0  0  0  0  0  0  0  0  0  0
   -1.9859   -2.6204    0.0000 C   0  0  0  0  0  0  0  0  0  0  0  0
   -1.5010   -1.9530    0.0000 C   0  0  0  0  0  0  0  0  0  0  0  0
   -2.8064   -2.5342    0.0000 C   0  0  0  0  0  0  0  0  0  0  0  0
   -3.2913   -3.2016    0.0000 C   0  0  0  0  0  0  0  0  0  0  0  0
   -4.1118   -3.1154    0.0000 C   0  0  0  0  0  0  0  0  0  0  0  0
   -4.4474   -2.3617    0.0000 C   0  0  0  0  0  0  0  0  0  0  0  0
   -3.9625   -1.6943    0.0000 C   0  0  0  0  0  0  0  0  0  0  0  0
   -3.1420   -1.7805    0.0000 N   0  0  0  0  0  0  0  0  0  0  0  0
    0.7192    4.5578    0.0000 H   0  0  0  0  0  0  0  0  0  0  0  0
    1.6458    5.0928    0.0000 H   0  0  0  0  0  0  0  0  0  0  0  0
    3.2869    3.9003    0.0000 H   0  0  0  0  0  0  0  0  0  0  0  0
    2.3603    5.5053    0.0000 H   0  0  0  0  0  0  0  0  0  0  0  0
    3.2870    4.9703    0.0000 H   0  0  0  0  0  0  0  0  0  0  0  0
    3.2540    2.4763    0.0000 H   0  0  0  0  0  0  0  0  0  0  0  0
    3.2540    0.6193    0.0000 H   0  0  0  0  0  0  0  0  0  0  0  0
    2.3603   -1.5847    0.0000 H   0  0  0  0  0  0  0  0  0  0  0  0
    3.2869    0.0203    0.0000 H   0  0  0  0  0  0  0  0  0  0  0  0
    3.2870   -1.0497    0.0000 H   0  0  0  0  0  0  0  0  0  0  0  0
    0.0377    2.4763    0.0000 H   0  0  0  0  0  0  0  0  0  0  0  0
   -0.6357    1.2151    0.0000 H   0  0  0  0  0  0  0  0  0  0  0  0
    1.2360   -2.2067    0.0000 H   0  0  0  0  0  0  0  0  0  0  0  0
    0.6813   -2.9008    0.0000 H   0  0  0  0  0  0  0  0  0  0  0  0
   -0.4101   -4.4031    0.0000 H   0  0  0  0  0  0  0  0  0  0  0  0
   -2.2570   -4.2090    0.0000 H   0  0  0  0  0  0  0  0  0  0  0  0
   -1.9208   -1.0102    0.0000 H   0  0  0  0  0  0  0  0  0  0  0  0
   -2.8715   -4.1444    0.0000 H   0  0  0  0  0  0  0  0  0  0  0  0
   -4.7184   -3.9503    0.0000 H   0  0  0  0  0  0  0  0  0  0  0  0
   -5.4737   -2.2538    0.0000 H   0  0  0  0  0  0  0  0  0  0  0  0
   -4.3823   -0.7515    0.0000 H   0  0  0  0  0  0  0  0  0  0  0  0
  1  2  2  0  0  0  0
  2  3  2  0  0  0  0
  2  4  1  0  0  0  0
  2  6  1  0  0  0  0
  4  5  1  0  0  0  0
  4 32  1  0  0  0  0
  4 33  1  0  0  0  0
  5 34  1  0  0  0  0
  5 35  1  0  0  0  0
  5 36  1  0  0  0  0
  6  7  2  0  0  0  0
  6 13  1  0  0  0  0
  7  8  1  0  0  0  0
  7 37  1  0  0  0  0
  8  9  2  0  0  0  0
  8 38  1  0  0  0  0
  9 10  1  0  0  0  0
  9 12  1  0  0  0  0
 10 11  1  0  0  0  0
 11 39  1  0  0  0  0
 11 40  1  0  0  0  0
 11 41  1  0  0  0  0
 12 13  2  0  0  0  0
 12 14  1  0  0  0  0
 13 42  1  0  0  0  0
 14 15  1  0  0  0  0
 14 43  1  0  0  0  0
 15 16  2  0  0  0  0
 15 19  1  0  0  0  0
 16 17  1  0  0  0  0
 17 18  2  0  0  0  0
 17 44  1  0  0  0  0
 18 19  1  0  0  0  0
 18 20  1  0  0  0  0
 20 21  2  0  0  0  0
 20 25  1  0  0  0  0
 21 22  1  0  0  0  0
 21 45  1  0  0  0  0
 22 23  2  0  0  0  0
 22 46  1  0  0  0  0
 23 24  1  0  0  0  0
 23 47  1  0  0  0  0
 24 25  2  0  0  0  0
 24 26  1  0  0  0  0
 25 48  1  0  0  0  0
 26 27  2  0  0  0  0
 26 31  1  0  0  0  0
 27 28  1  0  0  0  0
 27 49  1  0  0  0  0
 28 29  2  0  0  0  0
 28 50  1  0  0  0  0
 29 30  1  0  0  0  0
 29 51  1  0  0  0  0
 30 31  2  0  0  0  0
 30 52  1  0  0  0  0
M  END
>  <DRUGBANK_ID>
DB07334

>  <COMMON_NAME>
N-[5-(ETHYLSULFONYL)-2-METHOXYPHENYL]-5-[3-(2-PYRIDINYL)PHENYL]-1,3-OXAZOL-2-AMINE

$$$$
