
 OpenBabel10282417072D

 44 44  0  0  0  0  0  0  0  0999 V2000
    0.0625    1.3563    0.0000 C   0  0  2  0  0  0  0  0  0  0  0  0
   -0.6520    0.9438    0.0000 C   0  0  1  0  0  0  0  0  0  0  0  0
   -0.6520    0.1187    0.0000 C   0  0  1  0  0  0  0  0  0  0  0  0
    0.7770    0.1187    0.0000 C   0  0  1  0  0  0  0  0  0  0  0  0
    0.0625   -0.2938    0.0000 C   0  0  2  0  0  0  0  0  0  0  0  0
    0.7770    0.9438    0.0000 C   0  0  1  0  0  0  0  0  0  0  0  0
   -1.3664    1.3563    0.0000 O   0  0  0  0  0  0  0  0  0  0  0  0
    1.4914    1.3563    0.0000 O   0  0  0  0  0  0  0  0  0  0  0  0
    0.0625    2.1813    0.0000 O   0  0  0  0  0  0  0  0  0  0  0  0
   -1.3664   -0.2938    0.0000 O   0  0  0  0  0  0  0  0  0  0  0  0
    0.0625   -1.1188    0.0000 O   0  0  0  0  0  0  0  0  0  0  0  0
    1.4914   -0.2938    0.0000 O   0  0  0  0  0  0  0  0  0  0  0  0
   -0.5209    3.5896    0.0000 O   0  0  0  0  0  0  0  0  0  0  0  0
   -1.3459    2.7646    0.0000 O   0  0  0  0  0  0  0  0  0  0  0  0
   -0.5209    2.7646    0.0000 P   0  0  0  0  0  0  0  0  0  0  0  0
   -0.5209    1.9396    0.0000 O   0  0  0  0  0  0  0  0  0  0  0  0
   -2.0809    0.9437    0.0000 O   0  0  0  0  0  0  0  0  0  0  0  0
   -2.9059    0.1187    0.0000 O   0  0  0  0  0  0  0  0  0  0  0  0
   -2.0809    0.1187    0.0000 P   0  0  0  0  0  0  0  0  0  0  0  0
   -2.0809   -0.7063    0.0000 O   0  0  0  0  0  0  0  0  0  0  0  0
   -0.6520   -0.7063    0.0000 O   0  0  0  0  0  0  0  0  0  0  0  0
   -1.4770   -1.5313    0.0000 O   0  0  0  0  0  0  0  0  0  0  0  0
   -0.6520   -1.5313    0.0000 P   0  0  0  0  0  0  0  0  0  0  0  0
   -0.6520   -2.3563    0.0000 O   0  0  0  0  0  0  0  0  0  0  0  0
    2.2883    0.7448    0.0000 O   0  0  0  0  0  0  0  0  0  0  0  0
    3.1133   -0.0802    0.0000 O   0  0  0  0  0  0  0  0  0  0  0  0
    2.2883   -0.0802    0.0000 P   0  0  0  0  0  0  0  0  0  0  0  0
    2.2883   -0.9052    0.0000 O   0  0  0  0  0  0  0  0  0  0  0  0
   -0.8641    1.8913    0.0000 H   0  0  0  0  0  0  0  0  0  0  0  0
   -0.6520    2.0138    0.0000 H   0  0  0  0  0  0  0  0  0  0  0  0
   -1.5787    0.6537    0.0000 H   0  0  0  0  0  0  0  0  0  0  0  0
    0.7770   -0.9513    0.0000 H   0  0  0  0  0  0  0  0  0  0  0  0
   -0.8641   -0.8288    0.0000 H   0  0  0  0  0  0  0  0  0  0  0  0
    0.7770    2.0138    0.0000 H   0  0  0  0  0  0  0  0  0  0  0  0
   -1.3664    2.3263    0.0000 H   0  0  0  0  0  0  0  0  0  0  0  0
    2.3315    0.8713    0.0000 H   0  0  0  0  0  0  0  0  0  0  0  0
   -1.8309    3.6046    0.0000 H   0  0  0  0  0  0  0  0  0  0  0  0
   -1.3609    1.4546    0.0000 H   0  0  0  0  0  0  0  0  0  0  0  0
   -3.3909    0.9587    0.0000 H   0  0  0  0  0  0  0  0  0  0  0  0
   -2.9209   -1.1913    0.0000 H   0  0  0  0  0  0  0  0  0  0  0  0
   -1.9620   -0.6913    0.0000 H   0  0  0  0  0  0  0  0  0  0  0  0
   -1.4920   -2.8413    0.0000 H   0  0  0  0  0  0  0  0  0  0  0  0
    3.5983   -0.9202    0.0000 H   0  0  0  0  0  0  0  0  0  0  0  0
    1.4483   -1.3902    0.0000 H   0  0  0  0  0  0  0  0  0  0  0  0
  1  2  1  0  0  0  0
  1  6  1  0  0  0  0
  1  9  1  0  0  0  0
  1 29  1  6  0  0  0
  2  3  1  0  0  0  0
  2  7  1  0  0  0  0
  2 30  1  6  0  0  0
  3  5  1  0  0  0  0
  3 10  1  0  0  0  0
  3 31  1  6  0  0  0
  4  6  1  0  0  0  0
  4 12  1  0  0  0  0
  4 32  1  6  0  0  0
  5  4  1  0  0  0  0
  5 11  1  0  0  0  0
  5 33  1  1  0  0  0
  6  8  1  0  0  0  0
  6 34  1  1  0  0  0
  7 35  1  0  0  0  0
  8 36  1  0  0  0  0
  9 15  1  0  0  0  0
 10 19  1  0  0  0  0
 11 23  1  0  0  0  0
 12 27  1  0  0  0  0
 14 37  1  0  0  0  0
 15 13  2  0  0  0  0
 15 14  1  0  0  0  0
 15 16  1  0  0  0  0
 16 38  1  0  0  0  0
 18 39  1  0  0  0  0
 19 17  2  0  0  0  0
 19 18  1  0  0  0  0
 19 20  1  0  0  0  0
 20 40  1  0  0  0  0
 22 41  1  0  0  0  0
 23 21  2  0  0  0  0
 23 22  1  0  0  0  0
 23 24  1  0  0  0  0
 24 42  1  0  0  0  0
 26 43  1  0  0  0  0
 27 25  2  0  0  0  0
 27 26  1  0  0  0  0
 27 28  1  0  0  0  0
 28 44  1  0  0  0  0
M  END
>  <DRUGBANK_ID>
DB01863

>  <SECONDARY_ACCESSION_NUMBERS>
EXPT01943; DB03265

>  <COMMON_NAME>
Inositol 1,3,4,5-Tetrakisphosphate

>  <UNII>
XK67P86535

$$$$
