TG(22:1(13Z)/22:1(13Z)/22:1(13Z))
 OpenBabel10282417072D

203202  0  0  0  0  0  0  0  0999 V2000
   24.1437   -6.4800    0.0000 C   0  0  0  0  0  0  0  0  0  0  0  0
   23.1826   -7.0350    0.0000 C   0  0  1  0  0  0  0  0  0  0  0  0
   22.2214   -6.4802    0.0000 C   0  0  0  0  0  0  0  0  0  0  0  0
   24.1436   -5.3702    0.0000 O   0  0  0  0  0  0  0  0  0  0  0  0
   21.2601   -7.0350    0.0000 O   0  0  0  0  0  0  0  0  0  0  0  0
   22.4325   -8.1450    0.0000 O   0  0  0  0  0  0  0  0  0  0  0  0
   23.9378   -8.1588    0.0000 H   0  0  0  0  0  0  0  0  0  0  0  0
   23.4292   -4.9578    0.0000 C   0  0  0  0  0  0  0  0  0  0  0  0
   23.4292   -4.1864    0.0000 O   0  0  0  0  0  0  0  0  0  0  0  0
   22.7151   -5.3709    0.0000 C   0  0  0  0  0  0  0  0  0  0  0  0
   22.0010   -4.9578    0.0000 C   0  0  0  0  0  0  0  0  0  0  0  0
   21.2868   -5.3709    0.0000 C   0  0  0  0  0  0  0  0  0  0  0  0
   20.5727   -4.9578    0.0000 C   0  0  0  0  0  0  0  0  0  0  0  0
   19.8586   -5.3709    0.0000 C   0  0  0  0  0  0  0  0  0  0  0  0
   19.1445   -4.9578    0.0000 C   0  0  0  0  0  0  0  0  0  0  0  0
   18.4304   -5.3709    0.0000 C   0  0  0  0  0  0  0  0  0  0  0  0
   17.7162   -4.9578    0.0000 C   0  0  0  0  0  0  0  0  0  0  0  0
   17.0021   -5.3709    0.0000 C   0  0  0  0  0  0  0  0  0  0  0  0
   16.2880   -4.9578    0.0000 C   0  0  0  0  0  0  0  0  0  0  0  0
   15.5739   -5.3709    0.0000 C   0  0  0  0  0  0  0  0  0  0  0  0
   14.8597   -4.9578    0.0000 C   0  0  0  0  0  0  0  0  0  0  0  0
   14.0347   -4.9578    0.0000 C   0  0  0  0  0  0  0  0  0  0  0  0
   13.3206   -5.3709    0.0000 C   0  0  0  0  0  0  0  0  0  0  0  0
   12.6065   -4.9578    0.0000 C   0  0  0  0  0  0  0  0  0  0  0  0
   11.8924   -5.3709    0.0000 C   0  0  0  0  0  0  0  0  0  0  0  0
   11.1783   -4.9578    0.0000 C   0  0  0  0  0  0  0  0  0  0  0  0
   10.4641   -5.3709    0.0000 C   0  0  0  0  0  0  0  0  0  0  0  0
    9.7500   -4.9578    0.0000 C   0  0  0  0  0  0  0  0  0  0  0  0
    9.0359   -5.3709    0.0000 C   0  0  0  0  0  0  0  0  0  0  0  0
    8.3218   -4.9578    0.0000 C   0  0  0  0  0  0  0  0  0  0  0  0
   21.7180   -8.5575    0.0000 C   0  0  0  0  0  0  0  0  0  0  0  0
   21.7180   -9.3289    0.0000 O   0  0  0  0  0  0  0  0  0  0  0  0
   21.0039   -8.1444    0.0000 C   0  0  0  0  0  0  0  0  0  0  0  0
   20.2898   -8.5575    0.0000 C   0  0  0  0  0  0  0  0  0  0  0  0
   19.5756   -8.1444    0.0000 C   0  0  0  0  0  0  0  0  0  0  0  0
   18.8615   -8.5575    0.0000 C   0  0  0  0  0  0  0  0  0  0  0  0
   18.1474   -8.1444    0.0000 C   0  0  0  0  0  0  0  0  0  0  0  0
   17.4333   -8.5575    0.0000 C   0  0  0  0  0  0  0  0  0  0  0  0
   16.7192   -8.1444    0.0000 C   0  0  0  0  0  0  0  0  0  0  0  0
   16.0050   -8.5575    0.0000 C   0  0  0  0  0  0  0  0  0  0  0  0
   15.2909   -8.1444    0.0000 C   0  0  0  0  0  0  0  0  0  0  0  0
   14.5768   -8.5575    0.0000 C   0  0  0  0  0  0  0  0  0  0  0  0
   13.8627   -8.1444    0.0000 C   0  0  0  0  0  0  0  0  0  0  0  0
   13.1485   -8.5575    0.0000 C   0  0  0  0  0  0  0  0  0  0  0  0
   12.3235   -8.5575    0.0000 C   0  0  0  0  0  0  0  0  0  0  0  0
   11.6094   -8.1444    0.0000 C   0  0  0  0  0  0  0  0  0  0  0  0
   10.8953   -8.5575    0.0000 C   0  0  0  0  0  0  0  0  0  0  0  0
   10.1812   -8.1444    0.0000 C   0  0  0  0  0  0  0  0  0  0  0  0
    9.4671   -8.5575    0.0000 C   0  0  0  0  0  0  0  0  0  0  0  0
    8.7529   -8.1444    0.0000 C   0  0  0  0  0  0  0  0  0  0  0  0
    8.0388   -8.5575    0.0000 C   0  0  0  0  0  0  0  0  0  0  0  0
    7.3247   -8.1444    0.0000 C   0  0  0  0  0  0  0  0  0  0  0  0
    6.6106   -8.5575    0.0000 C   0  0  0  0  0  0  0  0  0  0  0  0
   20.5457   -6.6225    0.0000 C   0  0  0  0  0  0  0  0  0  0  0  0
   20.5457   -5.8511    0.0000 O   0  0  0  0  0  0  0  0  0  0  0  0
   19.8316   -7.0356    0.0000 C   0  0  0  0  0  0  0  0  0  0  0  0
   19.1175   -6.6225    0.0000 C   0  0  0  0  0  0  0  0  0  0  0  0
   18.4033   -7.0356    0.0000 C   0  0  0  0  0  0  0  0  0  0  0  0
   17.6892   -6.6225    0.0000 C   0  0  0  0  0  0  0  0  0  0  0  0
   16.9751   -7.0356    0.0000 C   0  0  0  0  0  0  0  0  0  0  0  0
   16.2610   -6.6225    0.0000 C   0  0  0  0  0  0  0  0  0  0  0  0
   15.5469   -7.0356    0.0000 C   0  0  0  0  0  0  0  0  0  0  0  0
   14.8327   -6.6225    0.0000 C   0  0  0  0  0  0  0  0  0  0  0  0
   14.1186   -7.0356    0.0000 C   0  0  0  0  0  0  0  0  0  0  0  0
   13.4045   -6.6225    0.0000 C   0  0  0  0  0  0  0  0  0  0  0  0
   12.6904   -7.0356    0.0000 C   0  0  0  0  0  0  0  0  0  0  0  0
   11.9762   -6.6225    0.0000 C   0  0  0  0  0  0  0  0  0  0  0  0
   11.1512   -6.6225    0.0000 C   0  0  0  0  0  0  0  0  0  0  0  0
   10.4371   -7.0356    0.0000 C   0  0  0  0  0  0  0  0  0  0  0  0
    9.7230   -6.6225    0.0000 C   0  0  0  0  0  0  0  0  0  0  0  0
    9.0089   -7.0356    0.0000 C   0  0  0  0  0  0  0  0  0  0  0  0
    8.2948   -6.6225    0.0000 C   0  0  0  0  0  0  0  0  0  0  0  0
    7.5806   -7.0356    0.0000 C   0  0  0  0  0  0  0  0  0  0  0  0
    6.8665   -6.6225    0.0000 C   0  0  0  0  0  0  0  0  0  0  0  0
    6.1524   -7.0356    0.0000 C   0  0  0  0  0  0  0  0  0  0  0  0
    5.4383   -6.6225    0.0000 C   0  0  0  0  0  0  0  0  0  0  0  0
   25.0704   -7.0149    0.0000 H   0  0  0  0  0  0  0  0  0  0  0  0
   25.0703   -5.9449    0.0000 H   0  0  0  0  0  0  0  0  0  0  0  0
   22.2214   -5.4102    0.0000 H   0  0  0  0  0  0  0  0  0  0  0  0
   21.2948   -5.9451    0.0000 H   0  0  0  0  0  0  0  0  0  0  0  0
   22.7151   -6.4409    0.0000 H   0  0  0  0  0  0  0  0  0  0  0  0
   21.7882   -5.9055    0.0000 H   0  0  0  0  0  0  0  0  0  0  0  0
   22.0010   -3.8878    0.0000 H   0  0  0  0  0  0  0  0  0  0  0  0
   21.0741   -4.4232    0.0000 H   0  0  0  0  0  0  0  0  0  0  0  0
   21.2868   -6.4409    0.0000 H   0  0  0  0  0  0  0  0  0  0  0  0
   20.3599   -5.9055    0.0000 H   0  0  0  0  0  0  0  0  0  0  0  0
   20.5727   -3.8878    0.0000 H   0  0  0  0  0  0  0  0  0  0  0  0
   19.6458   -4.4232    0.0000 H   0  0  0  0  0  0  0  0  0  0  0  0
   19.8586   -6.4409    0.0000 H   0  0  0  0  0  0  0  0  0  0  0  0
   18.9317   -5.9055    0.0000 H   0  0  0  0  0  0  0  0  0  0  0  0
   19.1445   -3.8878    0.0000 H   0  0  0  0  0  0  0  0  0  0  0  0
   18.2176   -4.4232    0.0000 H   0  0  0  0  0  0  0  0  0  0  0  0
   18.4304   -6.4409    0.0000 H   0  0  0  0  0  0  0  0  0  0  0  0
   17.5035   -5.9055    0.0000 H   0  0  0  0  0  0  0  0  0  0  0  0
   17.7162   -3.8878    0.0000 H   0  0  0  0  0  0  0  0  0  0  0  0
   16.7893   -4.4232    0.0000 H   0  0  0  0  0  0  0  0  0  0  0  0
   17.0021   -6.4409    0.0000 H   0  0  0  0  0  0  0  0  0  0  0  0
   16.0752   -5.9055    0.0000 H   0  0  0  0  0  0  0  0  0  0  0  0
   16.2880   -3.8878    0.0000 H   0  0  0  0  0  0  0  0  0  0  0  0
   15.3611   -4.4232    0.0000 H   0  0  0  0  0  0  0  0  0  0  0  0
   15.5739   -6.4409    0.0000 H   0  0  0  0  0  0  0  0  0  0  0  0
   14.6470   -5.9055    0.0000 H   0  0  0  0  0  0  0  0  0  0  0  0
   15.1272   -3.9611    0.0000 H   0  0  0  0  0  0  0  0  0  0  0  0
   13.7672   -3.9611    0.0000 H   0  0  0  0  0  0  0  0  0  0  0  0
   13.3206   -6.4409    0.0000 H   0  0  0  0  0  0  0  0  0  0  0  0
   12.3937   -5.9055    0.0000 H   0  0  0  0  0  0  0  0  0  0  0  0
   12.6065   -3.8878    0.0000 H   0  0  0  0  0  0  0  0  0  0  0  0
   11.6796   -4.4232    0.0000 H   0  0  0  0  0  0  0  0  0  0  0  0
   11.8924   -6.4409    0.0000 H   0  0  0  0  0  0  0  0  0  0  0  0
   10.9655   -5.9055    0.0000 H   0  0  0  0  0  0  0  0  0  0  0  0
   11.1783   -3.8878    0.0000 H   0  0  0  0  0  0  0  0  0  0  0  0
   10.2514   -4.4232    0.0000 H   0  0  0  0  0  0  0  0  0  0  0  0
   10.4641   -6.4409    0.0000 H   0  0  0  0  0  0  0  0  0  0  0  0
    9.5372   -5.9055    0.0000 H   0  0  0  0  0  0  0  0  0  0  0  0
    9.7500   -3.8878    0.0000 H   0  0  0  0  0  0  0  0  0  0  0  0
    8.8231   -4.4232    0.0000 H   0  0  0  0  0  0  0  0  0  0  0  0
    9.0359   -6.4409    0.0000 H   0  0  0  0  0  0  0  0  0  0  0  0
    8.1090   -5.9055    0.0000 H   0  0  0  0  0  0  0  0  0  0  0  0
    8.3227   -3.8878    0.0000 H   0  0  0  0  0  0  0  0  0  0  0  0
    7.3947   -5.4920    0.0000 H   0  0  0  0  0  0  0  0  0  0  0  0
    7.3956   -4.4220    0.0000 H   0  0  0  0  0  0  0  0  0  0  0  0
   21.0039   -7.0744    0.0000 H   0  0  0  0  0  0  0  0  0  0  0  0
   20.0770   -7.6098    0.0000 H   0  0  0  0  0  0  0  0  0  0  0  0
   20.2898   -9.6275    0.0000 H   0  0  0  0  0  0  0  0  0  0  0  0
   19.3629   -9.0921    0.0000 H   0  0  0  0  0  0  0  0  0  0  0  0
   19.5756   -7.0744    0.0000 H   0  0  0  0  0  0  0  0  0  0  0  0
   18.6487   -7.6098    0.0000 H   0  0  0  0  0  0  0  0  0  0  0  0
   18.8615   -9.6275    0.0000 H   0  0  0  0  0  0  0  0  0  0  0  0
   17.9346   -9.0921    0.0000 H   0  0  0  0  0  0  0  0  0  0  0  0
   18.1474   -7.0744    0.0000 H   0  0  0  0  0  0  0  0  0  0  0  0
   17.2205   -7.6098    0.0000 H   0  0  0  0  0  0  0  0  0  0  0  0
   17.4333   -9.6275    0.0000 H   0  0  0  0  0  0  0  0  0  0  0  0
   16.5064   -9.0921    0.0000 H   0  0  0  0  0  0  0  0  0  0  0  0
   16.7192   -7.0744    0.0000 H   0  0  0  0  0  0  0  0  0  0  0  0
   15.7923   -7.6098    0.0000 H   0  0  0  0  0  0  0  0  0  0  0  0
   16.0050   -9.6275    0.0000 H   0  0  0  0  0  0  0  0  0  0  0  0
   15.0781   -9.0921    0.0000 H   0  0  0  0  0  0  0  0  0  0  0  0
   15.2909   -7.0744    0.0000 H   0  0  0  0  0  0  0  0  0  0  0  0
   14.3640   -7.6098    0.0000 H   0  0  0  0  0  0  0  0  0  0  0  0
   14.5768   -9.6275    0.0000 H   0  0  0  0  0  0  0  0  0  0  0  0
   13.6499   -9.0921    0.0000 H   0  0  0  0  0  0  0  0  0  0  0  0
   13.8627   -7.0744    0.0000 H   0  0  0  0  0  0  0  0  0  0  0  0
   12.9358   -7.6098    0.0000 H   0  0  0  0  0  0  0  0  0  0  0  0
   13.4160   -9.5542    0.0000 H   0  0  0  0  0  0  0  0  0  0  0  0
   12.0560   -9.5542    0.0000 H   0  0  0  0  0  0  0  0  0  0  0  0
   11.6094   -7.0744    0.0000 H   0  0  0  0  0  0  0  0  0  0  0  0
   10.6825   -7.6098    0.0000 H   0  0  0  0  0  0  0  0  0  0  0  0
   10.8953   -9.6275    0.0000 H   0  0  0  0  0  0  0  0  0  0  0  0
    9.9684   -9.0921    0.0000 H   0  0  0  0  0  0  0  0  0  0  0  0
   10.1812   -7.0744    0.0000 H   0  0  0  0  0  0  0  0  0  0  0  0
    9.2543   -7.6098    0.0000 H   0  0  0  0  0  0  0  0  0  0  0  0
    9.4671   -9.6275    0.0000 H   0  0  0  0  0  0  0  0  0  0  0  0
    8.5402   -9.0921    0.0000 H   0  0  0  0  0  0  0  0  0  0  0  0
    8.7529   -7.0744    0.0000 H   0  0  0  0  0  0  0  0  0  0  0  0
    7.8260   -7.6098    0.0000 H   0  0  0  0  0  0  0  0  0  0  0  0
    8.0388   -9.6275    0.0000 H   0  0  0  0  0  0  0  0  0  0  0  0
    7.1119   -9.0921    0.0000 H   0  0  0  0  0  0  0  0  0  0  0  0
    7.3247   -7.0744    0.0000 H   0  0  0  0  0  0  0  0  0  0  0  0
    6.3978   -7.6098    0.0000 H   0  0  0  0  0  0  0  0  0  0  0  0
    5.6835   -8.0233    0.0000 H   0  0  0  0  0  0  0  0  0  0  0  0
    6.6115   -9.6275    0.0000 H   0  0  0  0  0  0  0  0  0  0  0  0
    5.6844   -9.0933    0.0000 H   0  0  0  0  0  0  0  0  0  0  0  0
   19.8316   -8.1056    0.0000 H   0  0  0  0  0  0  0  0  0  0  0  0
   18.9047   -7.5702    0.0000 H   0  0  0  0  0  0  0  0  0  0  0  0
   19.1175   -5.5525    0.0000 H   0  0  0  0  0  0  0  0  0  0  0  0
   18.1906   -6.0879    0.0000 H   0  0  0  0  0  0  0  0  0  0  0  0
   18.4033   -8.1056    0.0000 H   0  0  0  0  0  0  0  0  0  0  0  0
   17.4764   -7.5702    0.0000 H   0  0  0  0  0  0  0  0  0  0  0  0
   17.6892   -5.5525    0.0000 H   0  0  0  0  0  0  0  0  0  0  0  0
   16.7623   -6.0879    0.0000 H   0  0  0  0  0  0  0  0  0  0  0  0
   16.9751   -8.1056    0.0000 H   0  0  0  0  0  0  0  0  0  0  0  0
   16.0482   -7.5702    0.0000 H   0  0  0  0  0  0  0  0  0  0  0  0
   16.2610   -5.5525    0.0000 H   0  0  0  0  0  0  0  0  0  0  0  0
   15.3341   -6.0879    0.0000 H   0  0  0  0  0  0  0  0  0  0  0  0
   15.5469   -8.1056    0.0000 H   0  0  0  0  0  0  0  0  0  0  0  0
   14.6200   -7.5702    0.0000 H   0  0  0  0  0  0  0  0  0  0  0  0
   14.8327   -5.5525    0.0000 H   0  0  0  0  0  0  0  0  0  0  0  0
   13.9058   -6.0879    0.0000 H   0  0  0  0  0  0  0  0  0  0  0  0
   14.1186   -8.1056    0.0000 H   0  0  0  0  0  0  0  0  0  0  0  0
   13.1917   -7.5702    0.0000 H   0  0  0  0  0  0  0  0  0  0  0  0
   13.4045   -5.5525    0.0000 H   0  0  0  0  0  0  0  0  0  0  0  0
   12.4776   -6.0879    0.0000 H   0  0  0  0  0  0  0  0  0  0  0  0
   12.6904   -8.1056    0.0000 H   0  0  0  0  0  0  0  0  0  0  0  0
   11.7635   -7.5702    0.0000 H   0  0  0  0  0  0  0  0  0  0  0  0
   12.2437   -5.6258    0.0000 H   0  0  0  0  0  0  0  0  0  0  0  0
   10.8837   -5.6258    0.0000 H   0  0  0  0  0  0  0  0  0  0  0  0
   10.4371   -8.1056    0.0000 H   0  0  0  0  0  0  0  0  0  0  0  0
    9.5102   -7.5702    0.0000 H   0  0  0  0  0  0  0  0  0  0  0  0
    9.7230   -5.5525    0.0000 H   0  0  0  0  0  0  0  0  0  0  0  0
    8.7961   -6.0879    0.0000 H   0  0  0  0  0  0  0  0  0  0  0  0
    9.0089   -8.1056    0.0000 H   0  0  0  0  0  0  0  0  0  0  0  0
    8.0820   -7.5702    0.0000 H   0  0  0  0  0  0  0  0  0  0  0  0
    8.2948   -5.5525    0.0000 H   0  0  0  0  0  0  0  0  0  0  0  0
    7.3679   -6.0879    0.0000 H   0  0  0  0  0  0  0  0  0  0  0  0
    7.5806   -8.1056    0.0000 H   0  0  0  0  0  0  0  0  0  0  0  0
    6.6537   -7.5702    0.0000 H   0  0  0  0  0  0  0  0  0  0  0  0
    6.8665   -5.5525    0.0000 H   0  0  0  0  0  0  0  0  0  0  0  0
    5.9396   -6.0879    0.0000 H   0  0  0  0  0  0  0  0  0  0  0  0
    6.1524   -8.1056    0.0000 H   0  0  0  0  0  0  0  0  0  0  0  0
    5.2255   -7.5702    0.0000 H   0  0  0  0  0  0  0  0  0  0  0  0
    5.4392   -5.5525    0.0000 H   0  0  0  0  0  0  0  0  0  0  0  0
    4.5112   -7.1567    0.0000 H   0  0  0  0  0  0  0  0  0  0  0  0
    4.5121   -6.0867    0.0000 H   0  0  0  0  0  0  0  0  0  0  0  0
  1 77  1  0  0  0  0
  1 78  1  0  0  0  0
  2  1  1  0  0  0  0
  2  6  1  0  0  0  0
  2  7  1  1  0  0  0
  3  2  1  0  0  0  0
  3 79  1  0  0  0  0
  3 80  1  0  0  0  0
  4  1  1  0  0  0  0
  4  8  1  0  0  0  0
  5  3  1  0  0  0  0
  8  9  2  0  0  0  0
  8 10  1  0  0  0  0
 10 11  1  0  0  0  0
 10 81  1  0  0  0  0
 10 82  1  0  0  0  0
 11 12  1  0  0  0  0
 11 83  1  0  0  0  0
 11 84  1  0  0  0  0
 12 13  1  0  0  0  0
 12 85  1  0  0  0  0
 12 86  1  0  0  0  0
 13 14  1  0  0  0  0
 13 87  1  0  0  0  0
 13 88  1  0  0  0  0
 14 15  1  0  0  0  0
 14 89  1  0  0  0  0
 14 90  1  0  0  0  0
 15 16  1  0  0  0  0
 15 91  1  0  0  0  0
 15 92  1  0  0  0  0
 16 17  1  0  0  0  0
 16 93  1  0  0  0  0
 16 94  1  0  0  0  0
 17 18  1  0  0  0  0
 17 95  1  0  0  0  0
 17 96  1  0  0  0  0
 18 19  1  0  0  0  0
 18 97  1  0  0  0  0
 18 98  1  0  0  0  0
 19 20  1  0  0  0  0
 19 99  1  0  0  0  0
 19100  1  0  0  0  0
 20 21  1  0  0  0  0
 20101  1  0  0  0  0
 20102  1  0  0  0  0
 21 22  2  0  0  0  0
 21103  1  0  0  0  0
 22 23  1  0  0  0  0
 22104  1  0  0  0  0
 23 24  1  0  0  0  0
 23105  1  0  0  0  0
 23106  1  0  0  0  0
 24 25  1  0  0  0  0
 24107  1  0  0  0  0
 24108  1  0  0  0  0
 25 26  1  0  0  0  0
 25109  1  0  0  0  0
 25110  1  0  0  0  0
 26 27  1  0  0  0  0
 26111  1  0  0  0  0
 26112  1  0  0  0  0
 27 28  1  0  0  0  0
 27113  1  0  0  0  0
 27114  1  0  0  0  0
 28 29  1  0  0  0  0
 28115  1  0  0  0  0
 28116  1  0  0  0  0
 29 30  1  0  0  0  0
 29117  1  0  0  0  0
 29118  1  0  0  0  0
 30119  1  0  0  0  0
 30120  1  0  0  0  0
 30121  1  0  0  0  0
 31  6  1  0  0  0  0
 31 32  2  0  0  0  0
 31 33  1  0  0  0  0
 33 34  1  0  0  0  0
 33122  1  0  0  0  0
 33123  1  0  0  0  0
 34 35  1  0  0  0  0
 34124  1  0  0  0  0
 34125  1  0  0  0  0
 35 36  1  0  0  0  0
 35126  1  0  0  0  0
 35127  1  0  0  0  0
 36 37  1  0  0  0  0
 36128  1  0  0  0  0
 36129  1  0  0  0  0
 37 38  1  0  0  0  0
 37130  1  0  0  0  0
 37131  1  0  0  0  0
 38 39  1  0  0  0  0
 38132  1  0  0  0  0
 38133  1  0  0  0  0
 39 40  1  0  0  0  0
 39134  1  0  0  0  0
 39135  1  0  0  0  0
 40 41  1  0  0  0  0
 40136  1  0  0  0  0
 40137  1  0  0  0  0
 41 42  1  0  0  0  0
 41138  1  0  0  0  0
 41139  1  0  0  0  0
 42 43  1  0  0  0  0
 42140  1  0  0  0  0
 42141  1  0  0  0  0
 43 44  1  0  0  0  0
 43142  1  0  0  0  0
 43143  1  0  0  0  0
 44 45  2  0  0  0  0
 44144  1  0  0  0  0
 45 46  1  0  0  0  0
 45145  1  0  0  0  0
 46 47  1  0  0  0  0
 46146  1  0  0  0  0
 46147  1  0  0  0  0
 47 48  1  0  0  0  0
 47148  1  0  0  0  0
 47149  1  0  0  0  0
 48 49  1  0  0  0  0
 48150  1  0  0  0  0
 48151  1  0  0  0  0
 49 50  1  0  0  0  0
 49152  1  0  0  0  0
 49153  1  0  0  0  0
 50 51  1  0  0  0  0
 50154  1  0  0  0  0
 50155  1  0  0  0  0
 51 52  1  0  0  0  0
 51156  1  0  0  0  0
 51157  1  0  0  0  0
 52 53  1  0  0  0  0
 52158  1  0  0  0  0
 52159  1  0  0  0  0
 53160  1  0  0  0  0
 53161  1  0  0  0  0
 53162  1  0  0  0  0
 54  5  1  0  0  0  0
 54 55  2  0  0  0  0
 54 56  1  0  0  0  0
 56 57  1  0  0  0  0
 56163  1  0  0  0  0
 56164  1  0  0  0  0
 57 58  1  0  0  0  0
 57165  1  0  0  0  0
 57166  1  0  0  0  0
 58 59  1  0  0  0  0
 58167  1  0  0  0  0
 58168  1  0  0  0  0
 59 60  1  0  0  0  0
 59169  1  0  0  0  0
 59170  1  0  0  0  0
 60 61  1  0  0  0  0
 60171  1  0  0  0  0
 60172  1  0  0  0  0
 61 62  1  0  0  0  0
 61173  1  0  0  0  0
 61174  1  0  0  0  0
 62 63  1  0  0  0  0
 62175  1  0  0  0  0
 62176  1  0  0  0  0
 63 64  1  0  0  0  0
 63177  1  0  0  0  0
 63178  1  0  0  0  0
 64 65  1  0  0  0  0
 64179  1  0  0  0  0
 64180  1  0  0  0  0
 65 66  1  0  0  0  0
 65181  1  0  0  0  0
 65182  1  0  0  0  0
 66 67  1  0  0  0  0
 66183  1  0  0  0  0
 66184  1  0  0  0  0
 67 68  2  0  0  0  0
 67185  1  0  0  0  0
 68 69  1  0  0  0  0
 68186  1  0  0  0  0
 69 70  1  0  0  0  0
 69187  1  0  0  0  0
 69188  1  0  0  0  0
 70 71  1  0  0  0  0
 70189  1  0  0  0  0
 70190  1  0  0  0  0
 71 72  1  0  0  0  0
 71191  1  0  0  0  0
 71192  1  0  0  0  0
 72 73  1  0  0  0  0
 72193  1  0  0  0  0
 72194  1  0  0  0  0
 73 74  1  0  0  0  0
 73195  1  0  0  0  0
 73196  1  0  0  0  0
 74 75  1  0  0  0  0
 74197  1  0  0  0  0
 74198  1  0  0  0  0
 75 76  1  0  0  0  0
 75199  1  0  0  0  0
 75200  1  0  0  0  0
 76201  1  0  0  0  0
 76202  1  0  0  0  0
 76203  1  0  0  0  0
M  END
>  <DRUGBANK_ID>
DB12528

>  <COMMON_NAME>
Glyceryl Trierucate

>  <CAS_NUMBER>
2752-99-0

>  <UNII>
I0IDQ0M20R

$$$$
