
 OpenBabel10282417072D

 42 44  0  0  0  0  0  0  0  0999 V2000
    5.7297    1.0728    0.0000 Na  0  3  0  0  0  0  0  0  0  0  0  0
   -5.7297   -0.7067    0.0000 Na  0  3  0  0  0  0  0  0  0  0  0  0
   -4.9137   -1.2052    0.0000 O   0  5  0  0  0  0  0  0  0  0  0  0
    0.0261   -0.8256    0.0000 C   0  0  0  0  0  0  0  0  0  0  0  0
    0.0261    0.8302    0.0000 C   0  0  0  0  0  0  0  0  0  0  0  0
    3.6011   -0.4083    0.0000 C   0  0  0  0  0  0  0  0  0  0  0  0
    3.6011    0.4185    0.0000 C   0  0  0  0  0  0  0  0  0  0  0  0
    2.8861    0.8301    0.0000 C   0  0  0  0  0  0  0  0  0  0  0  0
    2.8901   -0.8218    0.0000 C   0  0  0  0  0  0  0  0  0  0  0  0
    2.1747   -0.4140    0.0000 C   0  0  0  0  0  0  0  0  0  0  0  0
    2.1747    0.4141    0.0000 C   0  0  0  0  0  0  0  0  0  0  0  0
    1.4615    0.8258    0.0000 N   0  0  0  0  0  0  0  0  0  0  0  0
    0.7438    0.4141    0.0000 C   0  0  0  0  0  0  0  0  0  0  0  0
    0.7438   -0.4140    0.0000 C   0  0  0  0  0  0  0  0  0  0  0  0
    1.4615   -0.8302    0.0000 N   0  0  0  0  0  0  0  0  0  0  0  0
    4.2850    0.8086    0.0000 S   0  0  0  0  0  0  0  0  0  0  0  0
    4.9675    1.2010    0.0000 O   0  5  0  0  0  0  0  0  0  0  0  0
    3.8925    1.4868    0.0000 O   0  0  0  0  0  0  0  0  0  0  0  0
    4.6815    0.1262    0.0000 O   0  0  0  0  0  0  0  0  0  0  0  0
   -3.5441    0.4083    0.0000 C   0  0  0  0  0  0  0  0  0  0  0  0
   -3.5441   -0.4184    0.0000 C   0  0  0  0  0  0  0  0  0  0  0  0
   -2.8291   -0.8300    0.0000 C   0  0  0  0  0  0  0  0  0  0  0  0
   -2.8333    0.8219    0.0000 C   0  0  0  0  0  0  0  0  0  0  0  0
   -2.1176    0.4141    0.0000 C   0  0  0  0  0  0  0  0  0  0  0  0
   -2.1176   -0.4140    0.0000 C   0  0  0  0  0  0  0  0  0  0  0  0
   -1.4046   -0.8256    0.0000 N   0  0  0  0  0  0  0  0  0  0  0  0
   -0.6869   -0.4140    0.0000 C   0  0  0  0  0  0  0  0  0  0  0  0
   -0.6869    0.4141    0.0000 C   0  0  0  0  0  0  0  0  0  0  0  0
   -1.4046    0.8302    0.0000 N   0  0  0  0  0  0  0  0  0  0  0  0
   -4.2280   -0.8085    0.0000 S   0  0  0  0  0  0  0  0  0  0  0  0
   -3.8357   -1.4868    0.0000 O   0  0  0  0  0  0  0  0  0  0  0  0
   -4.6246   -0.1261    0.0000 O   0  0  0  0  0  0  0  0  0  0  0  0
    0.0246   -1.8576    0.0000 H   0  0  0  0  0  0  0  0  0  0  0  0
    0.0246    1.8622    0.0000 H   0  0  0  0  0  0  0  0  0  0  0  0
    4.4957   -0.9229    0.0000 H   0  0  0  0  0  0  0  0  0  0  0  0
    2.8826    1.8621    0.0000 H   0  0  0  0  0  0  0  0  0  0  0  0
    2.8946   -1.8538    0.0000 H   0  0  0  0  0  0  0  0  0  0  0  0
    1.4628   -1.8147    0.0000 H   0  0  0  0  0  0  0  0  0  0  0  0
   -4.4387    0.9228    0.0000 H   0  0  0  0  0  0  0  0  0  0  0  0
   -2.8256   -1.8620    0.0000 H   0  0  0  0  0  0  0  0  0  0  0  0
   -2.8380    1.8539    0.0000 H   0  0  0  0  0  0  0  0  0  0  0  0
   -1.4060    1.8147    0.0000 H   0  0  0  0  0  0  0  0  0  0  0  0
  4 14  2  0  0  0  0
  4 33  1  0  0  0  0
  5 34  1  0  0  0  0
  6  7  2  0  0  0  0
  6 35  1  0  0  0  0
  7 16  1  0  0  0  0
  7  8  1  0  0  0  0
  8 11  2  0  0  0  0
  8 36  1  0  0  0  0
  9  6  1  0  0  0  0
  9 37  1  0  0  0  0
 10  9  2  0  0  0  0
 10 11  1  0  0  0  0
 10 15  1  0  0  0  0
 11 12  1  0  0  0  0
 12 13  2  0  0  0  0
 13  5  1  0  0  0  0
 13 14  1  0  0  0  0
 14 15  1  0  0  0  0
 15 38  1  0  0  0  0
 16 17  1  0  0  0  0
 16 18  2  0  0  0  0
 16 19  2  0  0  0  0
 20 21  2  0  0  0  0
 20 39  1  0  0  0  0
 21 22  1  0  0  0  0
 21 30  1  0  0  0  0
 22 25  2  0  0  0  0
 22 40  1  0  0  0  0
 23 20  1  0  0  0  0
 23 41  1  0  0  0  0
 24 23  2  0  0  0  0
 24 25  1  0  0  0  0
 24 29  1  0  0  0  0
 25 26  1  0  0  0  0
 26 27  2  0  0  0  0
 27  4  1  0  0  0  0
 27 28  1  0  0  0  0
 28  5  2  0  0  0  0
 28 29  1  0  0  0  0
 29 42  1  0  0  0  0
 30  3  1  0  0  0  0
 30 31  2  0  0  0  0
 30 32  2  0  0  0  0
M  CHG  4   1   1   2   1   3  -1  17  -1
M  END
>  <DRUGBANK_ID>
DB15951

>  <COMMON_NAME>
Azapentacene

>  <CAS_NUMBER>
3863-80-7

>  <UNII>
58B6F1X64H

>  <SYNONYMS>
Sodium 5,12-dihydroazapentacene disulfonate; Sodium dihydroazapentacene polysulfonate

$$$$
