
 OpenBabel10282417072D

 67 69  0  0  0  0  0  0  0  0999 V2000
    3.1772    2.1600    0.0000 N   0  0  0  0  0  0  0  0  0  0  0  0
    2.3926    1.9050    0.0000 C   0  0  0  0  0  0  0  0  0  0  0  0
    2.3926    1.0800    0.0000 C   0  0  1  0  0  0  0  0  0  0  0  0
    3.1772    0.8251    0.0000 C   0  0  0  0  0  0  0  0  0  0  0  0
    3.6621    1.4925    0.0000 C   0  0  0  0  0  0  0  0  0  0  0  0
    1.7251    2.3899    0.0000 O   0  0  0  0  0  0  0  0  0  0  0  0
    1.7251    0.5951    0.0000 C   0  0  0  0  0  0  0  0  0  0  0  0
    1.7251   -0.2298    0.0000 C   0  0  1  0  0  0  0  0  0  0  0  0
    2.4788   -0.5654    0.0000 C   0  0  0  0  0  0  0  0  0  0  0  0
    3.2325   -0.9009    0.0000 N   0  0  0  0  0  0  0  0  0  0  0  0
    2.3877    0.4214    0.0000 H   0  0  0  0  0  0  0  0  0  0  0  0
    1.0332   -0.6791    0.0000 N   0  0  0  0  0  0  0  0  0  0  0  0
    0.2981   -0.3046    0.0000 C   0  0  0  0  0  0  0  0  0  0  0  0
    0.2550    0.5192    0.0000 O   0  0  0  0  0  0  0  0  0  0  0  0
   -1.2006   -0.5823    0.0000 N   0  0  0  0  0  0  0  0  0  0  0  0
   -1.6131   -1.2968    0.0000 C   0  0  0  0  0  0  0  0  0  0  0  0
   -1.0611   -1.9099    0.0000 C   0  0  1  0  0  0  0  0  0  0  0  0
   -0.3074   -1.5744    0.0000 C   0  0  1  0  0  0  0  0  0  0  0  0
   -0.3937   -0.7539    0.0000 C   0  0  1  0  0  0  0  0  0  0  0  0
   -0.4067   -2.2928    0.0000 C   0  0  0  0  0  0  0  0  0  0  0  0
   -0.5783   -3.0997    0.0000 C   0  0  0  0  0  0  0  0  0  0  0  0
    0.3332   -2.5759    0.0000 C   0  0  0  0  0  0  0  0  0  0  0  0
   -1.5821   -2.5495    0.0000 H   0  0  0  0  0  0  0  0  0  0  0  0
    0.5174   -1.5878    0.0000 H   0  0  0  0  0  0  0  0  0  0  0  0
   -1.5362    0.1713    0.0000 C   0  0  0  0  0  0  0  0  0  0  0  0
   -2.3567    0.2575    0.0000 C   0  0  2  0  0  0  0  0  0  0  0  0
   -1.0513    0.8387    0.0000 O   0  0  0  0  0  0  0  0  0  0  0  0
   -2.8416   -0.4098    0.0000 C   0  0  0  0  0  0  0  0  0  0  0  0
   -2.6922    1.0112    0.0000 N   0  0  0  0  0  0  0  0  0  0  0  0
   -2.2073    1.6786    0.0000 C   0  0  0  0  0  0  0  0  0  0  0  0
   -2.5429    2.4323    0.0000 C   0  0  0  0  0  0  0  0  0  0  0  0
   -1.3868    1.5924    0.0000 O   0  0  0  0  0  0  0  0  0  0  0  0
   -3.3633    2.5185    0.0000 F   0  0  0  0  0  0  0  0  0  0  0  0
   -2.0579    3.0997    0.0000 F   0  0  0  0  0  0  0  0  0  0  0  0
   -2.8608    3.0827    0.0000 F   0  0  0  0  0  0  0  0  0  0  0  0
   -3.6621   -0.3236    0.0000 C   0  0  0  0  0  0  0  0  0  0  0  0
   -2.5060   -1.1635    0.0000 C   0  0  0  0  0  0  0  0  0  0  0  0
   -3.3265   -1.0773    0.0000 C   0  0  0  0  0  0  0  0  0  0  0  0
    3.4814    3.0963    0.0000 H   0  0  0  0  0  0  0  0  0  0  0  0
    3.5079   -0.1925    0.0000 H   0  0  0  0  0  0  0  0  0  0  0  0
    4.2340    0.6577    0.0000 H   0  0  0  0  0  0  0  0  0  0  0  0
    4.7321    1.4925    0.0000 H   0  0  0  0  0  0  0  0  0  0  0  0
    4.1479    2.4459    0.0000 H   0  0  0  0  0  0  0  0  0  0  0  0
    0.7717    1.0809    0.0000 H   0  0  0  0  0  0  0  0  0  0  0  0
    0.8128    0.0360    0.0000 H   0  0  0  0  0  0  0  0  0  0  0  0
    2.6225    0.3529    0.0000 H   0  0  0  0  0  0  0  0  0  0  0  0
    1.0847   -1.6622    0.0000 H   0  0  0  0  0  0  0  0  0  0  0  0
   -2.6772   -1.4086    0.0000 H   0  0  0  0  0  0  0  0  0  0  0  0
   -2.1959   -0.3994    0.0000 H   0  0  0  0  0  0  0  0  0  0  0  0
    0.5721   -1.2145    0.0000 H   0  0  0  0  0  0  0  0  0  0  0  0
   -1.5960   -3.4302    0.0000 H   0  0  0  0  0  0  0  0  0  0  0  0
    0.2168   -3.8158    0.0000 H   0  0  0  0  0  0  0  0  0  0  0  0
   -0.8009   -4.1463    0.0000 H   0  0  0  0  0  0  0  0  0  0  0  0
    0.5017   -3.6325    0.0000 H   0  0  0  0  0  0  0  0  0  0  0  0
    1.1640   -1.9016    0.0000 H   0  0  0  0  0  0  0  0  0  0  0  0
    1.3325   -2.9583    0.0000 H   0  0  0  0  0  0  0  0  0  0  0  0
   -1.9215   -0.7200    0.0000 H   0  0  0  0  0  0  0  0  0  0  0  0
   -3.6713    1.1141    0.0000 H   0  0  0  0  0  0  0  0  0  0  0  0
   -4.0974    0.6539    0.0000 H   0  0  0  0  0  0  0  0  0  0  0  0
   -4.2910   -1.1893    0.0000 H   0  0  0  0  0  0  0  0  0  0  0  0
   -4.7262   -0.2118    0.0000 H   0  0  0  0  0  0  0  0  0  0  0  0
   -3.1349   -2.0292    0.0000 H   0  0  0  0  0  0  0  0  0  0  0  0
   -1.4419   -1.2753    0.0000 H   0  0  0  0  0  0  0  0  0  0  0  0
   -2.0708   -2.1410    0.0000 H   0  0  0  0  0  0  0  0  0  0  0  0
   -4.3906   -0.9655    0.0000 H   0  0  0  0  0  0  0  0  0  0  0  0
   -2.8912   -2.0548    0.0000 H   0  0  0  0  0  0  0  0  0  0  0  0
   -3.9554   -1.9430    0.0000 H   0  0  0  0  0  0  0  0  0  0  0  0
  1  2  1  0  0  0  0
  1  5  1  0  0  0  0
  1 39  1  0  0  0  0
  2  3  1  0  0  0  0
  2  6  2  0  0  0  0
  3  4  1  0  0  0  0
  3  7  1  0  0  0  0
  3 11  1  6  0  0  0
  4  5  1  0  0  0  0
  4 40  1  0  0  0  0
  4 41  1  0  0  0  0
  5 42  1  0  0  0  0
  5 43  1  0  0  0  0
  7 44  1  0  0  0  0
  7 45  1  0  0  0  0
  8  9  1  0  0  0  0
  8  7  1  0  0  0  0
  8 12  1  0  0  0  0
  8 46  1  6  0  0  0
  9 10  3  0  0  0  0
 12 13  1  0  0  0  0
 12 47  1  0  0  0  0
 13 14  2  0  0  0  0
 15 16  1  0  0  0  0
 15 19  1  0  0  0  0
 15 25  1  0  0  0  0
 16 17  1  0  0  0  0
 16 48  1  0  0  0  0
 16 49  1  0  0  0  0
 17 18  1  0  0  0  0
 17 20  1  0  0  0  0
 17 23  1  6  0  0  0
 18 19  1  0  0  0  0
 18 20  1  0  0  0  0
 18 24  1  6  0  0  0
 19 13  1  0  0  0  0
 19 50  1  1  0  0  0
 20 21  1  0  0  0  0
 20 22  1  0  0  0  0
 21 51  1  0  0  0  0
 21 52  1  0  0  0  0
 21 53  1  0  0  0  0
 22 54  1  0  0  0  0
 22 55  1  0  0  0  0
 22 56  1  0  0  0  0
 25 26  1  0  0  0  0
 25 27  2  0  0  0  0
 26 28  1  0  0  0  0
 26 29  1  0  0  0  0
 26 57  1  1  0  0  0
 28 36  1  0  0  0  0
 28 37  1  0  0  0  0
 28 38  1  0  0  0  0
 29 30  1  0  0  0  0
 29 58  1  0  0  0  0
 30 32  2  0  0  0  0
 30 31  1  0  0  0  0
 31 34  1  0  0  0  0
 31 35  1  0  0  0  0
 31 33  1  0  0  0  0
 36 59  1  0  0  0  0
 36 60  1  0  0  0  0
 36 61  1  0  0  0  0
 37 62  1  0  0  0  0
 37 63  1  0  0  0  0
 37 64  1  0  0  0  0
 38 65  1  0  0  0  0
 38 66  1  0  0  0  0
 38 67  1  0  0  0  0
M  END
>  <DRUGBANK_ID>
DB16691

>  <COMMON_NAME>
Nirmatrelvir

>  <CAS_NUMBER>
2628280-40-8

>  <UNII>
7R9A5P7H32

$$$$
