
 OpenBabel10282417072D

 53 58  0  0  0  0  0  0  0  0999 V2000
   -2.2394   -0.7540    0.0000 C   0  0  0  0  0  0  0  0  0  0  0  0
   -1.5260   -0.3400    0.0000 C   0  0  0  0  0  0  0  0  0  0  0  0
   -0.8124   -0.7533    0.0000 N   0  0  0  0  0  0  0  0  0  0  0  0
   -0.8124   -1.5775    0.0000 C   0  0  0  0  0  0  0  0  0  0  0  0
   -1.5233   -1.9860    0.0000 C   0  0  0  0  0  0  0  0  0  0  0  0
   -2.2394   -1.5834    0.0000 C   0  0  0  0  0  0  0  0  0  0  0  0
   -2.9527   -1.9930    0.0000 O   0  0  0  0  0  0  0  0  0  0  0  0
   -1.5233   -2.8146    0.0000 O   0  0  0  0  0  0  0  0  0  0  0  0
   -0.0989   -1.9873    0.0000 C   0  0  0  0  0  0  0  0  0  0  0  0
    0.6146   -1.5775    0.0000 N   0  0  0  0  0  0  0  0  0  0  0  0
    0.6146   -0.7534    0.0000 C   0  0  2  0  0  0  0  0  0  0  0  0
   -0.0989   -0.3389    0.0000 N   0  0  0  0  0  0  0  0  0  0  0  0
   -0.0989    0.4849    0.0000 C   0  0  2  0  0  0  0  0  0  0  0  0
   -0.8662    0.7901    0.0000 C   0  0  0  0  0  0  0  0  0  0  0  0
   -1.1082    1.5789    0.0000 C   0  0  0  0  0  0  0  0  0  0  0  0
   -0.6481    2.2574    0.0000 S   0  0  0  0  0  0  0  0  0  0  0  0
    0.1810    2.3230    0.0000 C   0  0  0  0  0  0  0  0  0  0  0  0
    0.7397    1.7188    0.0000 C   0  0  0  0  0  0  0  0  0  0  0  0
    0.6199    0.9004    0.0000 C   0  0  0  0  0  0  0  0  0  0  0  0
    1.2691    0.3849    0.0000 C   0  0  0  0  0  0  0  0  0  0  0  0
    2.0390    0.6889    0.0000 C   0  0  0  0  0  0  0  0  0  0  0  0
    2.1595    1.5058    0.0000 C   0  0  0  0  0  0  0  0  0  0  0  0
    1.5098    2.0180    0.0000 C   0  0  0  0  0  0  0  0  0  0  0  0
    1.7240    2.8159    0.0000 F   0  0  0  0  0  0  0  0  0  0  0  0
    2.9527    1.7199    0.0000 F   0  0  0  0  0  0  0  0  0  0  0  0
   -1.9139    1.7609    0.0000 C   0  0  0  0  0  0  0  0  0  0  0  0
   -2.4703    1.1572    0.0000 C   0  0  0  0  0  0  0  0  0  0  0  0
   -2.2273    0.3707    0.0000 C   0  0  0  0  0  0  0  0  0  0  0  0
   -1.4268    0.1854    0.0000 C   0  0  0  0  0  0  0  0  0  0  0  0
    1.3280   -0.3390    0.0000 C   0  0  0  0  0  0  0  0  0  0  0  0
    2.0415   -0.7534    0.0000 O   0  0  0  0  0  0  0  0  0  0  0  0
    2.0415   -1.5776    0.0000 C   0  0  0  0  0  0  0  0  0  0  0  0
    1.3280   -1.9874    0.0000 C   0  0  0  0  0  0  0  0  0  0  0  0
    0.6146   -0.1197    0.0000 H   0  0  0  0  0  0  0  0  0  0  0  0
   -0.0989   -2.8159    0.0000 O   0  0  0  0  0  0  0  0  0  0  0  0
   -3.1337   -0.2390    0.0000 H   0  0  0  0  0  0  0  0  0  0  0  0
   -1.5264    0.6920    0.0000 H   0  0  0  0  0  0  0  0  0  0  0  0
   -2.3348   -3.2831    0.0000 H   0  0  0  0  0  0  0  0  0  0  0  0
   -0.9844   -0.1158    0.0000 H   0  0  0  0  0  0  0  0  0  0  0  0
    0.5707    3.3195    0.0000 H   0  0  0  0  0  0  0  0  0  0  0  0
    1.2324    2.5217    0.0000 H   0  0  0  0  0  0  0  0  0  0  0  0
    1.1174   -0.6359    0.0000 H   0  0  0  0  0  0  0  0  0  0  0  0
    2.8475    0.0476    0.0000 H   0  0  0  0  0  0  0  0  0  0  0  0
   -2.2208    2.7462    0.0000 H   0  0  0  0  0  0  0  0  0  0  0  0
   -3.4769    1.3849    0.0000 H   0  0  0  0  0  0  0  0  0  0  0  0
   -2.9302   -0.3849    0.0000 H   0  0  0  0  0  0  0  0  0  0  0  0
   -1.1239   -0.8012    0.0000 H   0  0  0  0  0  0  0  0  0  0  0  0
    1.3280    0.7310    0.0000 H   0  0  0  0  0  0  0  0  0  0  0  0
    2.2553    0.1948    0.0000 H   0  0  0  0  0  0  0  0  0  0  0  0
    2.9675   -2.1136    0.0000 H   0  0  0  0  0  0  0  0  0  0  0  0
    2.0397   -2.6476    0.0000 H   0  0  0  0  0  0  0  0  0  0  0  0
    1.3279   -3.0574    0.0000 H   0  0  0  0  0  0  0  0  0  0  0  0
    0.4019   -2.5233    0.0000 H   0  0  0  0  0  0  0  0  0  0  0  0
  1  6  1  0  0  0  0
  1 36  1  0  0  0  0
  2  1  2  0  0  0  0
  2 37  1  0  0  0  0
  3  2  1  0  0  0  0
  3 12  1  0  0  0  0
  4  3  1  0  0  0  0
  4  9  1  0  0  0  0
  5  4  2  0  0  0  0
  5  8  1  0  0  0  0
  6  5  1  0  0  0  0
  6  7  2  0  0  0  0
  8 38  1  0  0  0  0
  9 10  1  0  0  0  0
  9 35  2  0  0  0  0
 10 11  1  0  0  0  0
 10 33  1  0  0  0  0
 11 12  1  0  0  0  0
 11 30  1  0  0  0  0
 11 34  1  1  0  0  0
 13 12  1  0  0  0  0
 13 19  1  0  0  0  0
 13 39  1  1  0  0  0
 14 13  1  0  0  0  0
 14 15  2  0  0  0  0
 14 29  1  0  0  0  0
 15 16  1  0  0  0  0
 15 26  1  0  0  0  0
 16 17  1  0  0  0  0
 17 18  1  0  0  0  0
 17 40  1  0  0  0  0
 17 41  1  0  0  0  0
 18 23  1  0  0  0  0
 19 18  2  0  0  0  0
 19 20  1  0  0  0  0
 20 21  2  0  0  0  0
 20 42  1  0  0  0  0
 21 22  1  0  0  0  0
 21 43  1  0  0  0  0
 22 23  2  0  0  0  0
 22 25  1  0  0  0  0
 23 24  1  0  0  0  0
 26 27  2  0  0  0  0
 26 44  1  0  0  0  0
 27 28  1  0  0  0  0
 27 45  1  0  0  0  0
 28 29  2  0  0  0  0
 28 46  1  0  0  0  0
 29 47  1  0  0  0  0
 30 48  1  0  0  0  0
 30 49  1  0  0  0  0
 31 30  1  0  0  0  0
 32 31  1  0  0  0  0
 32 50  1  0  0  0  0
 32 51  1  0  0  0  0
 33 32  1  0  0  0  0
 33 52  1  0  0  0  0
 33 53  1  0  0  0  0
M  END
>  <DRUGBANK_ID>
DB15675

>  <COMMON_NAME>
Baloxavir

>  <CAS_NUMBER>
1985605-59-1

>  <UNII>
4G86Y4JT3F

>  <SYNONYMS>
Baloxavir

$$$$
