AI3
 OpenBabel10282417072D

 40 44  0  0  0  0  0  0  0  0999 V2000
    1.1546    0.5714    0.0000 C   0  0  0  0  0  0  0  0  0  0  0  0
    0.6934   -0.1127    0.0000 C   0  0  0  0  0  0  0  0  0  0  0  0
    1.0552   -0.8541    0.0000 C   0  0  0  0  0  0  0  0  0  0  0  0
    1.8782   -0.9115    0.0000 C   0  0  0  0  0  0  0  0  0  0  0  0
    2.3394   -0.2274    0.0000 C   0  0  0  0  0  0  0  0  0  0  0  0
    1.9776    0.5140    0.0000 C   0  0  0  0  0  0  0  0  0  0  0  0
    0.5941   -1.5382    0.0000 C   0  0  0  0  0  0  0  0  0  0  0  0
   -0.2289   -1.4808    0.0000 N   0  3  0  0  0  0  0  0  0  0  0  0
   -0.5908   -0.7394    0.0000 C   0  0  0  0  0  0  0  0  0  0  0  0
   -0.1296   -0.0553    0.0000 C   0  0  0  0  0  0  0  0  0  0  0  0
   -0.6377    0.5947    0.0000 C   0  0  0  0  0  0  0  0  0  0  0  0
   -1.4128    0.3123    0.0000 C   0  0  0  0  0  0  0  0  0  0  0  0
   -1.3839   -0.5121    0.0000 C   0  0  0  0  0  0  0  0  0  0  0  0
   -2.0834   -0.9495    0.0000 C   0  0  0  0  0  0  0  0  0  0  0  0
   -2.8119   -0.5623    0.0000 C   0  0  0  0  0  0  0  0  0  0  0  0
   -2.8409    0.2622    0.0000 C   0  0  0  0  0  0  0  0  0  0  0  0
   -2.1414    0.6995    0.0000 C   0  0  0  0  0  0  0  0  0  0  0  0
   -3.6340    0.4894    0.0000 O   0  0  0  0  0  0  0  0  0  0  0  0
   -4.0952   -0.1947    0.0000 C   0  0  0  0  0  0  0  0  0  0  0  0
   -3.5871   -0.8447    0.0000 O   0  0  0  0  0  0  0  0  0  0  0  0
    2.4388    1.1981    0.0000 O   0  0  0  0  0  0  0  0  0  0  0  0
    3.2618    1.1407    0.0000 C   0  0  0  0  0  0  0  0  0  0  0  0
    3.1624   -0.2848    0.0000 O   0  0  0  0  0  0  0  0  0  0  0  0
    3.6236    0.3993    0.0000 C   0  0  0  0  0  0  0  0  0  0  0  0
    0.7020    1.4989    0.0000 H   0  0  0  0  0  0  0  0  0  0  0  0
    2.3308   -1.8390    0.0000 H   0  0  0  0  0  0  0  0  0  0  0  0
    1.0467   -2.4656    0.0000 H   0  0  0  0  0  0  0  0  0  0  0  0
   -0.7792   -2.2971    0.0000 H   0  0  0  0  0  0  0  0  0  0  0  0
   -0.3431    1.6233    0.0000 H   0  0  0  0  0  0  0  0  0  0  0  0
   -1.4205    1.3242    0.0000 H   0  0  0  0  0  0  0  0  0  0  0  0
   -2.0471   -1.9809    0.0000 H   0  0  0  0  0  0  0  0  0  0  0  0
   -2.1776    1.7309    0.0000 H   0  0  0  0  0  0  0  0  0  0  0  0
   -5.1645   -0.2323    0.0000 H   0  0  0  0  0  0  0  0  0  0  0  0
   -4.5472   -1.1646    0.0000 H   0  0  0  0  0  0  0  0  0  0  0  0
    3.7310    0.1791    0.0000 H   0  0  0  0  0  0  0  0  0  0  0  0
    3.8600    2.0279    0.0000 H   0  0  0  0  0  0  0  0  0  0  0  0
    4.3292    1.0663    0.0000 H   0  0  0  0  0  0  0  0  0  0  0  0
    4.6910    0.3249    0.0000 H   0  0  0  0  0  0  0  0  0  0  0  0
    3.1543    1.3609    0.0000 H   0  0  0  0  0  0  0  0  0  0  0  0
    4.2217    1.2865    0.0000 H   0  0  0  0  0  0  0  0  0  0  0  0
  1  2  2  0  0  0  0
  1  6  1  0  0  0  0
  1 25  1  0  0  0  0
  2  3  1  0  0  0  0
  2 10  1  0  0  0  0
  3  4  2  0  0  0  0
  3  7  1  0  0  0  0
  4  5  1  0  0  0  0
  4 26  1  0  0  0  0
  5  6  2  0  0  0  0
  5 23  1  0  0  0  0
  6 21  1  0  0  0  0
  7  8  2  0  0  0  0
  7 27  1  0  0  0  0
  8  9  1  0  0  0  0
  8 28  1  0  0  0  0
  9 10  2  0  0  0  0
  9 13  1  0  0  0  0
 10 11  1  0  0  0  0
 11 12  1  0  0  0  0
 11 29  1  0  0  0  0
 11 30  1  0  0  0  0
 12 13  2  0  0  0  0
 12 17  1  0  0  0  0
 13 14  1  0  0  0  0
 14 15  2  0  0  0  0
 14 31  1  0  0  0  0
 15 16  1  0  0  0  0
 15 20  1  0  0  0  0
 16 17  2  0  0  0  0
 16 18  1  0  0  0  0
 17 32  1  0  0  0  0
 18 19  1  0  0  0  0
 19 20  1  0  0  0  0
 19 33  1  0  0  0  0
 19 34  1  0  0  0  0
 21 22  1  0  0  0  0
 22 35  1  0  0  0  0
 22 36  1  0  0  0  0
 22 37  1  0  0  0  0
 23 24  1  0  0  0  0
 24 38  1  0  0  0  0
 24 39  1  0  0  0  0
 24 40  1  0  0  0  0
M  CHG  1   8   1
M  END
>  <DRUGBANK_ID>
DB07354

>  <COMMON_NAME>
2,3-DIMETHOXY-12H-[1,3]DIOXOLO[5,6]INDENO[1,2-C]ISOQUINOLIN-6-IUM

$$$$
