
 OpenBabel10282417072D

 24 24  0  0  0  0  0  0  0  0999 V2000
   -0.3611    0.4121    0.0000 C   0  0  3  0  0  0  0  0  0  0  0  0
    0.3515    0.0000    0.0000 C   0  0  0  0  0  0  0  0  0  0  0  0
   -1.0738    0.0000    0.0000 C   0  0  3  0  0  0  0  0  0  0  0  0
   -1.7913    0.4217    0.0000 N   0  0  0  0  0  0  0  0  0  0  0  0
   -0.3611    1.2362    0.0000 O   0  0  0  0  0  0  0  0  0  0  0  0
    1.0641    0.4072    0.0000 C   0  0  0  0  0  0  0  0  0  0  0  0
    0.3515   -0.8289    0.0000 C   0  0  0  0  0  0  0  0  0  0  0  0
   -1.0738   -0.8289    0.0000 C   0  0  0  0  0  0  0  0  0  0  0  0
    1.0738   -1.2362    0.0000 C   0  0  0  0  0  0  0  0  0  0  0  0
    1.7864   -0.0096    0.0000 C   0  0  0  0  0  0  0  0  0  0  0  0
    1.7913   -0.8289    0.0000 C   0  0  0  0  0  0  0  0  0  0  0  0
   -0.3611   -0.6579    0.0000 H   0  0  0  0  0  0  0  0  0  0  0  0
   -1.0700    1.0700    0.0000 H   0  0  0  0  0  0  0  0  0  0  0  0
   -1.7834    1.4417    0.0000 H   0  0  0  0  0  0  0  0  0  0  0  0
   -2.6786   -0.0814    0.0000 H   0  0  0  0  0  0  0  0  0  0  0  0
    0.4789    1.7212    0.0000 H   0  0  0  0  0  0  0  0  0  0  0  0
    1.0663    1.4392    0.0000 H   0  0  0  0  0  0  0  0  0  0  0  0
   -0.5396   -1.3494    0.0000 H   0  0  0  0  0  0  0  0  0  0  0  0
   -2.0004   -1.3639    0.0000 H   0  0  0  0  0  0  0  0  0  0  0  0
   -0.1472   -1.3639    0.0000 H   0  0  0  0  0  0  0  0  0  0  0  0
   -1.0738   -1.8989    0.0000 H   0  0  0  0  0  0  0  0  0  0  0  0
    1.0753   -2.2682    0.0000 H   0  0  0  0  0  0  0  0  0  0  0  0
    2.6785    0.5092    0.0000 H   0  0  0  0  0  0  0  0  0  0  0  0
    2.6847   -1.3455    0.0000 H   0  0  0  0  0  0  0  0  0  0  0  0
  1 12  1  0  0  0  0
  2  1  1  0  0  0  0
  3  1  1  0  0  0  0
  3 13  1  0  0  0  0
  4  3  1  0  0  0  0
  4 14  1  0  0  0  0
  4 15  1  0  0  0  0
  5  1  1  0  0  0  0
  5 16  1  0  0  0  0
  6  2  1  0  0  0  0
  6 17  1  0  0  0  0
  7  2  2  0  0  0  0
  7 18  1  0  0  0  0
  8  3  1  0  0  0  0
  8 19  1  0  0  0  0
  8 20  1  0  0  0  0
  8 21  1  0  0  0  0
  9  7  1  0  0  0  0
  9 22  1  0  0  0  0
 10  6  2  0  0  0  0
 10 23  1  0  0  0  0
 11 10  1  0  0  0  0
 11  9  2  0  0  0  0
 11 24  1  0  0  0  0
M  END
>  <DRUGBANK_ID>
DB00397

>  <SECONDARY_ACCESSION_NUMBERS>
APRD00457; DB09441

>  <COMMON_NAME>
Phenylpropanolamine

>  <CAS_NUMBER>
14838-15-4

>  <UNII>
33RU150WUN

>  <SYNONYMS>
(+-)-Norephedrine; (+-)-Phenylpropanolamine; Fenilpropanolamina; Norephedrine; Phenylpropanolamin; Phenylpropanolamina; Phenylpropanolamine; Ph√©nylpropanolamine; Phenylpropanolaminum; PPA

$$$$
