
 OpenBabel10282417072D

 52 56  0  0  0  0  0  0  0  0999 V2000
    0.1579    0.0224    0.0000 C   0  0  2  0  0  0  0  0  0  0  0  0
    0.1579   -0.8025    0.0000 N   0  0  0  0  0  0  0  0  0  0  0  0
    0.8591   -1.2151    0.0000 C   0  0  0  0  0  0  0  0  0  0  0  0
    1.5604   -0.8025    0.0000 C   0  0  0  0  0  0  0  0  0  0  0  0
    1.5604    0.0224    0.0000 C   0  0  0  0  0  0  0  0  0  0  0  0
    0.8591    0.4349    0.0000 S   0  0  0  0  0  0  0  0  0  0  0  0
   -0.6671    0.0224    0.0000 C   0  0  1  0  0  0  0  0  0  0  0  0
   -0.6671   -0.8025    0.0000 C   0  0  0  0  0  0  0  0  0  0  0  0
   -1.4096    0.4349    0.0000 N   0  0  0  0  0  0  0  0  0  0  0  0
   -2.1109    0.0224    0.0000 C   0  0  0  0  0  0  0  0  0  0  0  0
   -2.1109   -0.8025    0.0000 O   0  0  0  0  0  0  0  0  0  0  0  0
   -1.4096   -1.2151    0.0000 O   0  0  0  0  0  0  0  0  0  0  0  0
   -2.8122    0.4349    0.0000 C   0  0  0  0  0  0  0  0  0  0  0  0
    2.3030   -1.2151    0.0000 C   0  0  0  0  0  0  0  0  0  0  0  0
   -3.5547    0.0224    0.0000 C   0  0  0  0  0  0  0  0  0  0  0  0
    0.1579    0.8475    0.0000 H   0  0  0  0  0  0  0  0  0  0  0  0
    3.0043   -0.8025    0.0000 N   0  3  0  0  0  0  0  0  0  0  0  0
   -4.1735    0.5175    0.0000 N   0  0  0  0  0  0  0  0  0  0  0  0
   -4.8747    0.0637    0.0000 S   0  0  0  0  0  0  0  0  0  0  0  0
   -4.6273   -0.7612    0.0000 C   0  0  0  0  0  0  0  0  0  0  0  0
   -3.8023   -0.7612    0.0000 N   0  0  0  0  0  0  0  0  0  0  0  0
   -2.8122    1.2601    0.0000 N   0  0  0  0  0  0  0  0  0  0  0  0
    0.8591   -2.0401    0.0000 C   0  0  0  0  0  0  0  0  0  0  0  0
    1.5604   -2.4527    0.0000 O   0  5  0  0  0  0  0  0  0  0  0  0
    0.1166   -2.4527    0.0000 O   0  0  0  0  0  0  0  0  0  0  0  0
   -5.1223   -1.4213    0.0000 N   0  0  0  0  0  0  0  0  0  0  0  0
    3.6820   -1.2758    0.0000 C   0  0  0  0  0  0  0  0  0  0  0  0
    4.3421   -0.7790    0.0000 N   0  0  0  0  0  0  0  0  0  0  0  0
    4.0738    0.0021    0.0000 C   0  0  0  0  0  0  0  0  0  0  0  0
    3.2478   -0.0116    0.0000 C   0  0  0  0  0  0  0  0  0  0  0  0
    3.6820   -2.1005    0.0000 C   0  0  0  0  0  0  0  0  0  0  0  0
    4.3893   -2.5095    0.0000 C   0  0  0  0  0  0  0  0  0  0  0  0
    5.1223   -2.0869    0.0000 C   0  0  0  0  0  0  0  0  0  0  0  0
    5.1223   -1.2621    0.0000 N   0  0  0  0  0  0  0  0  0  0  0  0
   -2.0749    1.6817    0.0000 O   0  0  0  0  0  0  0  0  0  0  0  0
   -2.0749    2.5095    0.0000 C   0  0  0  0  0  0  0  0  0  0  0  0
    2.4892    0.5536    0.0000 H   0  0  0  0  0  0  0  0  0  0  0  0
    1.5669    1.0924    0.0000 H   0  0  0  0  0  0  0  0  0  0  0  0
   -0.3987    1.0582    0.0000 H   0  0  0  0  0  0  0  0  0  0  0  0
   -1.4217    1.4193    0.0000 H   0  0  0  0  0  0  0  0  0  0  0  0
    2.3162   -2.2850    0.0000 H   0  0  0  0  0  0  0  0  0  0  0  0
    3.2351   -1.7406    0.0000 H   0  0  0  0  0  0  0  0  0  0  0  0
   -6.0997   -1.3036    0.0000 H   0  0  0  0  0  0  0  0  0  0  0  0
   -4.7355   -2.3266    0.0000 H   0  0  0  0  0  0  0  0  0  0  0  0
    4.6664    0.8470    0.0000 H   0  0  0  0  0  0  0  0  0  0  0  0
    2.6279    0.8135    0.0000 H   0  0  0  0  0  0  0  0  0  0  0  0
    2.7881   -2.6162    0.0000 H   0  0  0  0  0  0  0  0  0  0  0  0
    4.3886   -3.5415    0.0000 H   0  0  0  0  0  0  0  0  0  0  0  0
    6.0159   -2.6032    0.0000 H   0  0  0  0  0  0  0  0  0  0  0  0
   -1.1483    3.0445    0.0000 H   0  0  0  0  0  0  0  0  0  0  0  0
   -3.0015    3.0445    0.0000 H   0  0  0  0  0  0  0  0  0  0  0  0
   -2.0749    3.5795    0.0000 H   0  0  0  0  0  0  0  0  0  0  0  0
  1  2  1  0  0  0  0
  1  6  1  0  0  0  0
  1  7  1  0  0  0  0
  1 16  1  6  0  0  0
  2  3  1  0  0  0  0
  2  8  1  0  0  0  0
  3  4  2  0  0  0  0
  3 23  1  0  0  0  0
  4  5  1  0  0  0  0
  4 14  1  0  0  0  0
  5  6  1  0  0  0  0
  5 37  1  0  0  0  0
  5 38  1  0  0  0  0
  7  8  1  0  0  0  0
  7  9  1  0  0  0  0
  7 39  1  6  0  0  0
  8 12  2  0  0  0  0
  9 10  1  0  0  0  0
  9 40  1  0  0  0  0
 10 11  2  0  0  0  0
 10 13  1  0  0  0  0
 13 15  1  0  0  0  0
 13 22  2  0  0  0  0
 14 17  1  0  0  0  0
 14 41  1  0  0  0  0
 14 42  1  0  0  0  0
 15 18  2  0  0  0  0
 15 21  1  0  0  0  0
 17 27  2  0  0  0  0
 17 30  1  0  0  0  0
 18 19  1  0  0  0  0
 19 20  1  0  0  0  0
 20 21  2  0  0  0  0
 20 26  1  0  0  0  0
 22 35  1  0  0  0  0
 23 24  1  0  0  0  0
 23 25  2  0  0  0  0
 26 43  1  0  0  0  0
 26 44  1  0  0  0  0
 27 28  1  0  0  0  0
 27 31  1  0  0  0  0
 28 29  1  0  0  0  0
 29 30  2  0  0  0  0
 29 45  1  0  0  0  0
 30 46  1  0  0  0  0
 31 32  2  0  0  0  0
 31 47  1  0  0  0  0
 32 33  1  0  0  0  0
 32 48  1  0  0  0  0
 33 34  2  0  0  0  0
 33 49  1  0  0  0  0
 34 28  1  0  0  0  0
 35 36  1  0  0  0  0
 36 50  1  0  0  0  0
 36 51  1  0  0  0  0
 36 52  1  0  0  0  0
M  CHG  2  17   1  24  -1
M  END
>  <DRUGBANK_ID>
DB13667

>  <COMMON_NAME>
Cefozopran

>  <CAS_NUMBER>
113359-04-9

>  <UNII>
1LG87K28LW

>  <SYNONYMS>
céfozopran; cefozoprán; Cefozopran; cefozopranum

$$$$
