OA2
 OpenBabel10282417072D

 40 42  0  0  0  0  0  0  0  0999 V2000
   -1.3725    0.0545    0.0000 O   0  0  0  0  0  0  0  0  0  0  0  0
   -0.6581   -0.3580    0.0000 C   0  0  0  0  0  0  0  0  0  0  0  0
   -0.6581   -1.1830    0.0000 C   0  0  0  0  0  0  0  0  0  0  0  0
   -1.3255   -1.6680    0.0000 O   0  0  0  0  0  0  0  0  0  0  0  0
   -1.0706   -2.4526    0.0000 C   0  0  0  0  0  0  0  0  0  0  0  0
   -1.5555   -3.1200    0.0000 N   0  0  0  0  0  0  0  0  0  0  0  0
   -0.2456   -2.4526    0.0000 N   0  0  0  0  0  0  0  0  0  0  0  0
    0.0094   -1.6680    0.0000 C   0  0  0  0  0  0  0  0  0  0  0  0
    0.0564    0.0545    0.0000 N   0  0  0  0  0  0  0  0  0  0  0  0
    0.0564    0.8795    0.0000 C   0  0  0  0  0  0  0  0  0  0  0  0
   -0.6581    1.2920    0.0000 C   0  0  0  0  0  0  0  0  0  0  0  0
   -1.3725    0.8795    0.0000 C   0  0  0  0  0  0  0  0  0  0  0  0
   -2.0870    1.2920    0.0000 C   0  0  0  0  0  0  0  0  0  0  0  0
   -2.0870    2.1170    0.0000 C   0  0  0  0  0  0  0  0  0  0  0  0
   -1.3725    2.5295    0.0000 C   0  0  0  0  0  0  0  0  0  0  0  0
   -0.6581    2.1170    0.0000 C   0  0  0  0  0  0  0  0  0  0  0  0
    0.7709   -0.3580    0.0000 C   0  0  0  0  0  0  0  0  0  0  0  0
    1.4853    0.0545    0.0000 C   0  0  0  0  0  0  0  0  0  0  0  0
    1.4853    0.8795    0.0000 C   0  0  0  0  0  0  0  0  0  0  0  0
    2.1998    1.2920    0.0000 C   0  0  0  0  0  0  0  0  0  0  0  0
    2.9143    0.8795    0.0000 C   0  0  0  0  0  0  0  0  0  0  0  0
    2.9143    0.0545    0.0000 C   0  0  0  0  0  0  0  0  0  0  0  0
    2.1998   -0.3580    0.0000 C   0  0  0  0  0  0  0  0  0  0  0  0
   -2.5346   -3.0171    0.0000 H   0  0  0  0  0  0  0  0  0  0  0  0
   -1.1551   -4.0194    0.0000 H   0  0  0  0  0  0  0  0  0  0  0  0
    0.9909   -1.3491    0.0000 H   0  0  0  0  0  0  0  0  0  0  0  0
    0.9830    1.4145    0.0000 H   0  0  0  0  0  0  0  0  0  0  0  0
    0.0564    1.9495    0.0000 H   0  0  0  0  0  0  0  0  0  0  0  0
   -1.3725   -0.1525    0.0000 H   0  0  0  0  0  0  0  0  0  0  0  0
   -2.9807    0.7760    0.0000 H   0  0  0  0  0  0  0  0  0  0  0  0
   -2.9807    2.6330    0.0000 H   0  0  0  0  0  0  0  0  0  0  0  0
   -1.3725    3.5615    0.0000 H   0  0  0  0  0  0  0  0  0  0  0  0
    0.2356    2.6330    0.0000 H   0  0  0  0  0  0  0  0  0  0  0  0
    0.7709   -1.4280    0.0000 H   0  0  0  0  0  0  0  0  0  0  0  0
    1.6976   -0.8930    0.0000 H   0  0  0  0  0  0  0  0  0  0  0  0
    0.5916    1.3955    0.0000 H   0  0  0  0  0  0  0  0  0  0  0  0
    2.1998    2.3240    0.0000 H   0  0  0  0  0  0  0  0  0  0  0  0
    3.8080    1.3955    0.0000 H   0  0  0  0  0  0  0  0  0  0  0  0
    3.8080   -0.4615    0.0000 H   0  0  0  0  0  0  0  0  0  0  0  0
    2.1998   -1.3900    0.0000 H   0  0  0  0  0  0  0  0  0  0  0  0
  1  2  2  0  0  0  0
  2  3  1  0  0  0  0
  2  9  1  0  0  0  0
  3  4  1  0  0  0  0
  3  8  2  0  0  0  0
  4  5  1  0  0  0  0
  5  6  1  0  0  0  0
  5  7  2  0  0  0  0
  6 24  1  0  0  0  0
  6 25  1  0  0  0  0
  7  8  1  0  0  0  0
  8 26  1  0  0  0  0
  9 10  1  0  0  0  0
  9 17  1  0  0  0  0
 10 11  1  0  0  0  0
 10 27  1  0  0  0  0
 10 28  1  0  0  0  0
 11 12  1  0  0  0  0
 11 16  2  0  0  0  0
 12 13  2  0  0  0  0
 12 29  1  0  0  0  0
 13 14  1  0  0  0  0
 13 30  1  0  0  0  0
 14 15  2  0  0  0  0
 14 31  1  0  0  0  0
 15 16  1  0  0  0  0
 15 32  1  0  0  0  0
 16 33  1  0  0  0  0
 17 18  1  0  0  0  0
 17 34  1  0  0  0  0
 17 35  1  0  0  0  0
 18 19  1  0  0  0  0
 18 23  2  0  0  0  0
 19 20  2  0  0  0  0
 19 36  1  0  0  0  0
 20 21  1  0  0  0  0
 20 37  1  0  0  0  0
 21 22  2  0  0  0  0
 21 38  1  0  0  0  0
 22 23  1  0  0  0  0
 22 39  1  0  0  0  0
 23 40  1  0  0  0  0
M  END
>  <DRUGBANK_ID>
DB08315

>  <COMMON_NAME>
2-AMINO-N,N-BIS(PHENYLMETHYL)-1,3-OXAZOLE-5-CARBOXAMIDE

$$$$
