
 OpenBabel10282417072D

 35 35  0  0  0  0  0  0  0  0999 V2000
    0.6195   -3.3497    0.0000 C   0  0  0  0  0  0  0  0  0  0  0  0
    1.0319   -2.6352    0.0000 C   0  0  0  0  0  0  0  0  0  0  0  0
    1.8569   -2.6352    0.0000 C   0  0  0  0  0  0  0  0  0  0  0  0
    2.2695   -1.9208    0.0000 C   0  0  3  0  0  0  0  0  0  0  0  0
    1.8569   -1.2063    0.0000 C   0  0  0  0  0  0  0  0  0  0  0  0
    3.0945   -1.9208    0.0000 C   0  0  0  0  0  0  0  0  0  0  0  0
    2.6820   -2.6352    0.0000 C   0  0  0  0  0  0  0  0  0  0  0  0
    3.0945   -3.3497    0.0000 C   0  0  0  0  0  0  0  0  0  0  0  0
    3.0945   -1.0958    0.0000 C   0  0  0  0  0  0  0  0  0  0  0  0
    2.3800   -0.6832    0.0000 O   0  0  0  0  0  0  0  0  0  0  0  0
    3.8089   -0.6832    0.0000 N   0  0  0  0  0  0  0  0  0  0  0  0
    4.5234   -1.0958    0.0000 C   0  0  0  0  0  0  0  0  0  0  0  0
    5.2379   -0.6832    0.0000 O   0  0  0  0  0  0  0  0  0  0  0  0
    4.5234   -1.9208    0.0000 N   0  0  0  0  0  0  0  0  0  0  0  0
    3.8089   -2.3333    0.0000 C   0  0  0  0  0  0  0  0  0  0  0  0
    3.8089   -3.1583    0.0000 O   0  0  0  0  0  0  0  0  0  0  0  0
    2.6820   -4.0642    0.0000 C   0  0  0  0  0  0  0  0  0  0  0  0
   -0.4505   -3.3498    0.0000 H   0  0  0  0  0  0  0  0  0  0  0  0
    1.1546   -4.2763    0.0000 H   0  0  0  0  0  0  0  0  0  0  0  0
    0.0846   -4.2764    0.0000 H   0  0  0  0  0  0  0  0  0  0  0  0
    0.4968   -1.7086    0.0000 H   0  0  0  0  0  0  0  0  0  0  0  0
    1.5669   -1.7085    0.0000 H   0  0  0  0  0  0  0  0  0  0  0  0
    2.3918   -3.5619    0.0000 H   0  0  0  0  0  0  0  0  0  0  0  0
    2.9269   -2.6353    0.0000 H   0  0  0  0  0  0  0  0  0  0  0  0
    1.1995   -1.9208    0.0000 H   0  0  0  0  0  0  0  0  0  0  0  0
    2.3918   -0.2796    0.0000 H   0  0  0  0  0  0  0  0  0  0  0  0
    0.7869   -1.2064    0.0000 H   0  0  0  0  0  0  0  0  0  0  0  0
    1.3218   -0.2797    0.0000 H   0  0  0  0  0  0  0  0  0  0  0  0
    1.6120   -2.6352    0.0000 H   0  0  0  0  0  0  0  0  0  0  0  0
    2.1470   -3.5618    0.0000 H   0  0  0  0  0  0  0  0  0  0  0  0
    4.1265   -3.3497    0.0000 H   0  0  0  0  0  0  0  0  0  0  0  0
    3.8089    0.3013    0.0000 H   0  0  0  0  0  0  0  0  0  0  0  0
    5.3760   -2.4131    0.0000 H   0  0  0  0  0  0  0  0  0  0  0  0
    1.6500   -4.0642    0.0000 H   0  0  0  0  0  0  0  0  0  0  0  0
    3.1980   -4.9579    0.0000 H   0  0  0  0  0  0  0  0  0  0  0  0
  1  2  1  0  0  0  0
  1 18  1  0  0  0  0
  1 19  1  0  0  0  0
  1 20  1  0  0  0  0
  2  3  1  0  0  0  0
  2 21  1  0  0  0  0
  2 22  1  0  0  0  0
  3  4  1  0  0  0  0
  3 23  1  0  0  0  0
  3 24  1  0  0  0  0
  4  5  1  0  0  0  0
  4  6  1  0  0  0  0
  4 25  1  0  0  0  0
  5 26  1  0  0  0  0
  5 27  1  0  0  0  0
  5 28  1  0  0  0  0
  6  7  1  0  0  0  0
  6  9  1  0  0  0  0
  6 15  1  0  0  0  0
  7  8  1  0  0  0  0
  7 29  1  0  0  0  0
  7 30  1  0  0  0  0
  8 31  1  0  0  0  0
  9 10  2  0  0  0  0
  9 11  1  0  0  0  0
 11 12  1  0  0  0  0
 11 32  1  0  0  0  0
 12 13  2  0  0  0  0
 12 14  1  0  0  0  0
 14 15  1  0  0  0  0
 14 33  1  0  0  0  0
 15 16  2  0  0  0  0
 17  8  2  0  0  0  0
 17 34  1  0  0  0  0
 17 35  1  0  0  0  0
M  END
>  <DRUGBANK_ID>
DB00418

>  <SECONDARY_ACCESSION_NUMBERS>
APRD00497

>  <COMMON_NAME>
Secobarbital

>  <CAS_NUMBER>
76-73-3

>  <UNII>
1P7H87IN75

>  <SYNONYMS>
(Â±)-secobarbital; 5-(1-methylbutyl)-5-(2-propenyl)-2,4,6(1H,3H,5H)-pyrimidinetrione; 5-allyl-5-(1-methylbutyl)-2,4,6(1H,3H,5H)-pyrimidinetrione; 5-allyl-5-(1-methylbutyl)barbituric acid; 5-allyl-5-(1-methylbutyl)pyrimidine-2,4,6(1H,3H,5H)-trione; Quinalbarbitone; Secobarbital; Secobarbitalum; Secobarbitone

$$$$
