7I2
 OpenBabel10282417072D

 22 23  0  0  0  0  0  0  0  0999 V2000
   -0.6063   -0.5783    0.0000 N   0  0  0  0  0  0  0  0  0  0  0  0
   -1.0912    0.0891    0.0000 N   0  0  0  0  0  0  0  0  0  0  0  0
   -0.6063    0.7566    0.0000 C   0  0  0  0  0  0  0  0  0  0  0  0
    0.8928    0.9141    0.0000 C   0  0  0  0  0  0  0  0  0  0  0  0
    1.6073    0.5016    0.0000 C   0  0  0  0  0  0  0  0  0  0  0  0
    1.6073   -0.3234    0.0000 C   0  0  0  0  0  0  0  0  0  0  0  0
    0.8928   -0.7359    0.0000 C   0  0  0  0  0  0  0  0  0  0  0  0
    0.1783   -0.3234    0.0000 C   0  0  0  0  0  0  0  0  0  0  0  0
    0.1783    0.5016    0.0000 C   0  0  0  0  0  0  0  0  0  0  0  0
    0.8928   -1.5609    0.0000 N   0  3  0  0  0  0  0  0  0  0  0  0
    1.6073   -1.9734    0.0000 O   0  0  0  0  0  0  0  0  0  0  0  0
    0.1783   -1.9734    0.0000 O   0  5  0  0  0  0  0  0  0  0  0  0
   -1.9162    0.0891    0.0000 C   0  0  0  0  0  0  0  0  0  0  0  0
   -2.3287   -0.6253    0.0000 N   0  0  0  0  0  0  0  0  0  0  0  0
   -2.3287    0.8036    0.0000 N   0  0  0  0  0  0  0  0  0  0  0  0
   -0.9252    1.7381    0.0000 H   0  0  0  0  0  0  0  0  0  0  0  0
    0.8928    1.9461    0.0000 H   0  0  0  0  0  0  0  0  0  0  0  0
    2.5010    1.0176    0.0000 H   0  0  0  0  0  0  0  0  0  0  0  0
    2.5010   -0.8394    0.0000 H   0  0  0  0  0  0  0  0  0  0  0  0
   -3.3132   -0.6253    0.0000 H   0  0  0  0  0  0  0  0  0  0  0  0
   -1.8364    1.6562    0.0000 H   0  0  0  0  0  0  0  0  0  0  0  0
   -3.3132    0.8036    0.0000 H   0  0  0  0  0  0  0  0  0  0  0  0
  1  2  1  0  0  0  0
  1  8  2  0  0  0  0
  2  3  1  0  0  0  0
  2 13  1  0  0  0  0
  3  9  2  0  0  0  0
  3 16  1  0  0  0  0
  4  5  2  0  0  0  0
  4  9  1  0  0  0  0
  4 17  1  0  0  0  0
  5  6  1  0  0  0  0
  5 18  1  0  0  0  0
  6  7  2  0  0  0  0
  6 19  1  0  0  0  0
  7  8  1  0  0  0  0
  7 10  1  0  0  0  0
  8  9  1  0  0  0  0
 10 11  2  0  0  0  0
 10 12  1  0  0  0  0
 13 14  2  0  0  0  0
 13 15  1  0  0  0  0
 14 20  1  0  0  0  0
 15 21  1  0  0  0  0
 15 22  1  0  0  0  0
M  CHG  2  10   1  12  -1
M  END
>  <DRUGBANK_ID>
DB03065

>  <SECONDARY_ACCESSION_NUMBERS>
EXPT00312

>  <COMMON_NAME>
7-Nitroindazole-2-Carboxamidine

$$$$
