
 OpenBabel10282417072D

 56 59  0  0  1  0  0  0  0  0999 V2000
   -0.2360   -0.1121    0.0000 C   0  0  0  0  0  0  0  0  0  0  0  0
    0.5562    0.1182    0.0000 C   0  0  1  0  0  0  0  0  0  0  0  0
    1.1517   -0.4527    0.0000 C   0  0  0  0  0  0  0  0  0  0  0  0
    0.9551   -1.2539    0.0000 N   0  0  0  0  0  0  0  0  0  0  0  0
    1.4877   -1.8839    0.0000 C   0  0  0  0  0  0  0  0  0  0  0  0
    2.3123   -1.9097    0.0000 C   0  0  0  0  0  0  0  0  0  0  0  0
    2.7469   -1.2084    0.0000 C   0  0  0  0  0  0  0  0  0  0  0  0
    3.5715   -1.2342    0.0000 C   0  0  0  0  0  0  0  0  0  0  0  0
    3.9615   -1.9612    0.0000 C   0  0  0  0  0  0  0  0  0  0  0  0
    3.5269   -2.6624    0.0000 C   0  0  0  0  0  0  0  0  0  0  0  0
    2.7023   -2.6367    0.0000 C   0  0  0  0  0  0  0  0  0  0  0  0
    2.2677   -3.3379    0.0000 N   0  0  0  0  0  0  0  0  0  0  0  0
    1.4431   -3.3122    0.0000 C   0  0  0  0  0  0  0  0  0  0  0  0
    1.0531   -2.5852    0.0000 C   0  0  0  0  0  0  0  0  0  0  0  0
    0.2519   -2.3885    0.0000 N   0  0  0  0  0  0  0  0  0  0  0  0
    0.1913   -1.5657    0.0000 C   0  0  0  0  0  0  0  0  0  0  0  0
   -0.5099   -1.1311    0.0000 O   0  0  0  0  0  0  0  0  0  0  0  0
   -0.3781   -2.9211    0.0000 C   0  0  0  0  0  0  0  0  0  0  0  0
    4.0061   -0.5330    0.0000 C   0  0  0  0  0  0  0  0  0  0  0  0
    3.6161    0.1940    0.0000 C   0  0  0  0  0  0  0  0  0  0  0  0
    4.0508    0.8953    0.0000 C   0  0  0  0  0  0  0  0  0  0  0  0
    4.8754    0.8695    0.0000 C   0  0  0  0  0  0  0  0  0  0  0  0
    5.2653    0.1425    0.0000 N   0  0  0  0  0  0  0  0  0  0  0  0
    4.8307   -0.5587    0.0000 C   0  0  0  0  0  0  0  0  0  0  0  0
    3.6608    1.6223    0.0000 C   0  0  0  0  0  0  0  0  0  0  0  0
    3.2708    2.3493    0.0000 C   0  0  0  0  0  0  0  0  0  0  0  0
    2.9338    1.2323    0.0000 C   0  0  0  0  0  0  0  0  0  0  0  0
    4.3878    2.0123    0.0000 O   0  0  0  0  0  0  0  0  0  0  0  0
    0.7528    0.9195    0.0000 O   0  0  0  0  0  0  0  0  0  0  0  0
    0.1573    1.4904    0.0000 C   0  0  0  0  0  0  0  0  0  0  0  0
   -1.0084    0.6284    0.0000 H   0  0  0  0  0  0  0  0  0  0  0  0
   -0.4911   -1.1513    0.0000 H   0  0  0  0  0  0  0  0  0  0  0  0
   -1.2635   -0.4108    0.0000 H   0  0  0  0  0  0  0  0  0  0  0  0
    0.3011   -0.9210    0.0000 H   0  0  0  0  0  0  0  0  0  0  0  0
    2.1792   -0.1540    0.0000 H   0  0  0  0  0  0  0  0  0  0  0  0
    1.9241   -1.1931    0.0000 H   0  0  0  0  0  0  0  0  0  0  0  0
    2.2591   -0.2990    0.0000 H   0  0  0  0  0  0  0  0  0  0  0  0
    4.9930   -1.9934    0.0000 H   0  0  0  0  0  0  0  0  0  0  0  0
    4.0148   -3.5718    0.0000 H   0  0  0  0  0  0  0  0  0  0  0  0
    0.8995   -4.1894    0.0000 H   0  0  0  0  0  0  0  0  0  0  0  0
   -1.3849   -2.5588    0.0000 H   0  0  0  0  0  0  0  0  0  0  0  0
   -0.1884   -3.9742    0.0000 H   0  0  0  0  0  0  0  0  0  0  0  0
   -1.1952   -3.6119    0.0000 H   0  0  0  0  0  0  0  0  0  0  0  0
    2.5846    0.2262    0.0000 H   0  0  0  0  0  0  0  0  0  0  0  0
    5.4191    1.7467    0.0000 H   0  0  0  0  0  0  0  0  0  0  0  0
    5.3186   -1.4681    0.0000 H   0  0  0  0  0  0  0  0  0  0  0  0
    3.8345    3.2588    0.0000 H   0  0  0  0  0  0  0  0  0  0  0  0
    2.2013    2.3827    0.0000 H   0  0  0  0  0  0  0  0  0  0  0  0
    2.7650    3.2922    0.0000 H   0  0  0  0  0  0  0  0  0  0  0  0
    2.0243    1.7960    0.0000 H   0  0  0  0  0  0  0  0  0  0  0  0
    2.9004    0.1628    0.0000 H   0  0  0  0  0  0  0  0  0  0  0  0
    1.9909    0.7265    0.0000 H   0  0  0  0  0  0  0  0  0  0  0  0
    5.2123    1.5013    0.0000 H   0  0  0  0  0  0  0  0  0  0  0  0
    0.4124    2.5296    0.0000 H   0  0  0  0  0  0  0  0  0  0  0  0
   -0.8702    1.1917    0.0000 H   0  0  0  0  0  0  0  0  0  0  0  0
   -0.6151    2.2309    0.0000 H   0  0  0  0  0  0  0  0  0  0  0  0
  1 31  1  0  0  0  0
  1 32  1  0  0  0  0
  1 33  1  0  0  0  0
  2  1  1  0  0  0  0
  2  3  1  0  0  0  0
  2 29  1  0  0  0  0
  2 34  1  1  0  0  0
  3  4  1  0  0  0  0
  3 35  1  0  0  0  0
  3 36  1  0  0  0  0
  4  5  1  0  0  0  0
  4 16  1  0  0  0  0
  5  6  1  0  0  0  0
  5 14  2  0  0  0  0
  6  7  2  0  0  0  0
  6 11  1  0  0  0  0
  7  8  1  0  0  0  0
  7 37  1  0  0  0  0
  8  9  2  0  0  0  0
  8 19  1  0  0  0  0
  9 10  1  0  0  0  0
  9 38  1  0  0  0  0
 10 11  2  0  0  0  0
 10 39  1  0  0  0  0
 11 12  1  0  0  0  0
 12 13  2  0  0  0  0
 13 14  1  0  0  0  0
 13 40  1  0  0  0  0
 14 15  1  0  0  0  0
 15 16  1  0  0  0  0
 15 18  1  0  0  0  0
 16 17  2  0  0  0  0
 18 41  1  0  0  0  0
 18 42  1  0  0  0  0
 18 43  1  0  0  0  0
 19 20  2  0  0  0  0
 19 24  1  0  0  0  0
 20 21  1  0  0  0  0
 20 44  1  0  0  0  0
 21 22  2  0  0  0  0
 21 25  1  0  0  0  0
 22 23  1  0  0  0  0
 22 45  1  0  0  0  0
 23 24  2  0  0  0  0
 24 46  1  0  0  0  0
 25 26  1  0  0  0  0
 25 27  1  0  0  0  0
 25 28  1  0  0  0  0
 26 47  1  0  0  0  0
 26 48  1  0  0  0  0
 26 49  1  0  0  0  0
 27 50  1  0  0  0  0
 27 51  1  0  0  0  0
 27 52  1  0  0  0  0
 28 53  1  0  0  0  0
 29 30  1  0  0  0  0
 30 54  1  0  0  0  0
 30 55  1  0  0  0  0
 30 56  1  0  0  0  0
M  END
>  <DRUGBANK_ID>
DB12167

>  <COMMON_NAME>
LY-3023414

>  <CAS_NUMBER>
1386874-06-1

>  <UNII>
C88817F47Y

>  <SYNONYMS>
Samotolisib

$$$$
