
 OpenBabel10282417072D

 50 55  0  0  1  0  0  0  0  0999 V2000
    1.8588    2.8445    0.0000 O   0  0  0  0  0  0  0  0  0  0  0  0
    1.5421    2.0843    0.0000 C   0  0  0  0  0  0  0  0  0  0  0  0
    2.0613    1.4295    0.0000 C   0  0  0  0  0  0  0  0  0  0  0  0
    1.7504    0.6654    0.0000 C   0  0  0  0  0  0  0  0  0  0  0  0
    0.9273    0.5792    0.0000 C   0  0  0  0  0  0  0  0  0  0  0  0
    0.6287   -0.1680    0.0000 C   0  0  0  0  0  0  0  0  0  0  0  0
   -0.1878   -0.1784    0.0000 C   0  0  1  0  0  0  0  0  0  0  0  0
   -0.7306   -0.7655    0.0000 N   0  0  0  0  0  0  0  0  0  0  0  0
   -0.5933   -1.5773    0.0000 C   0  0  0  0  0  0  0  0  0  0  0  0
   -1.2277   -2.1023    0.0000 C   0  0  0  0  0  0  0  0  0  0  0  0
   -1.5147   -2.8741    0.0000 C   0  0  0  0  0  0  0  0  0  0  0  0
   -2.0396   -2.2397    0.0000 C   0  0  0  0  0  0  0  0  0  0  0  0
   -1.4506   -0.3821    0.0000 C   0  0  0  0  0  0  0  0  0  0  0  0
   -1.3082    0.5035    0.0000 C   0  0  0  0  0  0  0  0  0  0  0  0
   -0.4648    1.1011    0.0000 C   0  0  1  0  0  0  0  0  0  0  0  0
   -0.6792    1.9311    0.0000 C   0  0  1  0  0  0  0  0  0  0  0  0
   -0.0150    2.4329    0.0000 O   0  0  0  0  0  0  0  0  0  0  0  0
    0.6953    1.9902    0.0000 C   0  0  0  0  0  0  0  0  0  0  0  0
    0.4052    1.2240    0.0000 C   0  0  0  0  0  0  0  0  0  0  0  0
   -1.5035    2.0911    0.0000 C   0  0  0  0  0  0  0  0  0  0  0  0
   -1.7584    2.8741    0.0000 C   0  0  0  0  0  0  0  0  0  0  0  0
   -2.0613    1.4917    0.0000 C   0  0  0  0  0  0  0  0  0  0  0  0
   -1.7493    0.7522    0.0000 C   0  0  0  0  0  0  0  0  0  0  0  0
   -0.7773    0.6055    0.0000 C   0  0  1  0  0  0  0  0  0  0  0  0
   -1.1993   -0.1016    0.0000 O   0  0  0  0  0  0  0  0  0  0  0  0
    2.7880    2.9649    0.0000 H   0  0  0  0  0  0  0  0  0  0  0  0
    3.0829    1.5755    0.0000 H   0  0  0  0  0  0  0  0  0  0  0  0
    2.3703   -0.1597    0.0000 H   0  0  0  0  0  0  0  0  0  0  0  0
    1.2343   -1.0501    0.0000 H   0  0  0  0  0  0  0  0  0  0  0  0
    0.1363   -1.1180    0.0000 H   0  0  0  0  0  0  0  0  0  0  0  0
    0.2472   -1.1560    0.0000 H   0  0  0  0  0  0  0  0  0  0  0  0
    0.4096   -1.9502    0.0000 H   0  0  0  0  0  0  0  0  0  0  0  0
   -0.4147   -2.6323    0.0000 H   0  0  0  0  0  0  0  0  0  0  0  0
   -2.0521   -2.7844    0.0000 H   0  0  0  0  0  0  0  0  0  0  0  0
   -1.3362   -3.9291    0.0000 H   0  0  0  0  0  0  0  0  0  0  0  0
   -2.4876   -3.3196    0.0000 H   0  0  0  0  0  0  0  0  0  0  0  0
   -3.0425   -1.8668    0.0000 H   0  0  0  0  0  0  0  0  0  0  0  0
   -1.9390   -1.1744    0.0000 H   0  0  0  0  0  0  0  0  0  0  0  0
   -2.4089   -0.8581    0.0000 H   0  0  0  0  0  0  0  0  0  0  0  0
   -2.3123    0.2523    0.0000 H   0  0  0  0  0  0  0  0  0  0  0  0
   -2.2165    1.0690    0.0000 H   0  0  0  0  0  0  0  0  0  0  0  0
   -1.3401    1.5730    0.0000 H   0  0  0  0  0  0  0  0  0  0  0  0
    0.3311    1.5788    0.0000 H   0  0  0  0  0  0  0  0  0  0  0  0
   -1.0683    3.6414    0.0000 H   0  0  0  0  0  0  0  0  0  0  0  0
   -2.7680    3.0881    0.0000 H   0  0  0  0  0  0  0  0  0  0  0  0
   -3.1149    1.6781    0.0000 H   0  0  0  0  0  0  0  0  0  0  0  0
   -2.7285    0.6552    0.0000 H   0  0  0  0  0  0  0  0  0  0  0  0
   -2.4059   -0.0927    0.0000 H   0  0  0  0  0  0  0  0  0  0  0  0
   -1.3523   -0.2414    0.0000 H   0  0  0  0  0  0  0  0  0  0  0  0
   -2.1692   -0.0876    0.0000 H   0  0  0  0  0  0  0  0  0  0  0  0
  1  2  1  0  0  0  0
  1 26  1  0  0  0  0
  2  3  2  0  0  0  0
  2 18  1  0  0  0  0
  3  4  1  0  0  0  0
  3 27  1  0  0  0  0
  4  5  2  0  0  0  0
  4 28  1  0  0  0  0
  5  6  1  0  0  0  0
  5 19  1  0  0  0  0
  6 29  1  0  0  0  0
  6 30  1  0  0  0  0
  7  6  1  0  0  0  0
  7  8  1  0  0  0  0
  7 31  1  6  0  0  0
  8  9  1  0  0  0  0
  8 13  1  0  0  0  0
  9 10  1  0  0  0  0
  9 32  1  0  0  0  0
  9 33  1  0  0  0  0
 10 11  1  0  0  0  0
 10 12  1  0  0  0  0
 10 34  1  0  0  0  0
 11 12  1  0  0  0  0
 11 35  1  0  0  0  0
 11 36  1  0  0  0  0
 12 37  1  0  0  0  0
 12 38  1  0  0  0  0
 13 14  1  0  0  0  0
 13 39  1  0  0  0  0
 13 40  1  0  0  0  0
 14 41  1  0  0  0  0
 14 42  1  0  0  0  0
 15 14  1  0  0  0  0
 15 16  1  0  0  0  0
 15 19  1  1  0  0  0
 15 24  1  0  0  0  0
 16 17  1  0  0  0  0
 16 20  1  0  0  0  0
 16 43  1  1  0  0  0
 17 18  1  0  0  0  0
 18 19  2  0  0  0  0
 20 21  2  0  0  0  0
 20 22  1  0  0  0  0
 21 44  1  0  0  0  0
 21 45  1  0  0  0  0
 22 23  1  0  0  0  0
 22 46  1  0  0  0  0
 22 47  1  0  0  0  0
 23 48  1  0  0  0  0
 23 49  1  0  0  0  0
 24 23  1  0  0  0  0
 24  7  1  0  0  0  0
 24 25  1  1  0  0  0
 25 50  1  0  0  0  0
M  END
>  <DRUGBANK_ID>
DB06230

>  <COMMON_NAME>
Nalmefene

>  <CAS_NUMBER>
55096-26-9

>  <UNII>
TOV02TDP9I

>  <SYNONYMS>
Nalmefene; Nalmefeno

$$$$
