FLE
 OpenBabel10282417072D

 31 31  0  0  0  0  0  0  0  0999 V2000
    0.2206    0.5696    0.0000 N   0  0  0  0  0  0  0  0  0  0  0  0
   -0.4938    0.1571    0.0000 C   0  0  1  0  0  0  0  0  0  0  0  0
   -1.2083    0.5696    0.0000 C   0  0  0  0  0  0  0  0  0  0  0  0
   -1.9228    0.1571    0.0000 C   0  0  0  0  0  0  0  0  0  0  0  0
   -2.6372    0.5696    0.0000 C   0  0  0  0  0  0  0  0  0  0  0  0
   -1.9228   -0.6679    0.0000 C   0  0  0  0  0  0  0  0  0  0  0  0
   -0.4938   -0.6679    0.0000 C   0  0  0  0  0  0  0  0  0  0  0  0
   -1.2083   -1.0804    0.0000 O   0  0  0  0  0  0  0  0  0  0  0  0
    0.2206   -1.0804    0.0000 O   0  0  0  0  0  0  0  0  0  0  0  0
    0.9351    0.1571    0.0000 C   0  0  0  0  0  0  0  0  0  0  0  0
    0.9351   -0.6679    0.0000 O   0  0  0  0  0  0  0  0  0  0  0  0
    1.6496    0.5696    0.0000 C   0  0  0  0  0  0  0  0  0  0  0  0
    1.7358    1.3901    0.0000 O   0  0  0  0  0  0  0  0  0  0  0  0
    2.4033    0.2341    0.0000 C   0  0  0  0  0  0  0  0  0  0  0  0
    2.9553    0.8472    0.0000 C   0  0  0  0  0  0  0  0  0  0  0  0
    2.5428    1.5616    0.0000 C   0  0  0  0  0  0  0  0  0  0  0  0
   -0.4938    0.7410    0.0000 H   0  0  0  0  0  0  0  0  0  0  0  0
    0.2206    1.5541    0.0000 H   0  0  0  0  0  0  0  0  0  0  0  0
   -1.2083    1.6396    0.0000 H   0  0  0  0  0  0  0  0  0  0  0  0
   -2.1349    1.1046    0.0000 H   0  0  0  0  0  0  0  0  0  0  0  0
   -2.8495   -0.3779    0.0000 H   0  0  0  0  0  0  0  0  0  0  0  0
   -2.6372    1.6396    0.0000 H   0  0  0  0  0  0  0  0  0  0  0  0
   -3.5639    0.0346    0.0000 H   0  0  0  0  0  0  0  0  0  0  0  0
   -3.5638    1.1046    0.0000 H   0  0  0  0  0  0  0  0  0  0  0  0
   -2.8494   -1.2029    0.0000 H   0  0  0  0  0  0  0  0  0  0  0  0
   -0.9962   -1.2029    0.0000 H   0  0  0  0  0  0  0  0  0  0  0  0
   -1.9228   -1.7379    0.0000 H   0  0  0  0  0  0  0  0  0  0  0  0
   -2.0198   -0.6119    0.0000 H   0  0  0  0  0  0  0  0  0  0  0  0
    2.6179   -0.7753    0.0000 H   0  0  0  0  0  0  0  0  0  0  0  0
    3.9817    0.7394    0.0000 H   0  0  0  0  0  0  0  0  0  0  0  0
    2.9626    2.5044    0.0000 H   0  0  0  0  0  0  0  0  0  0  0  0
  1 10  1  0  0  0  0
  1 18  1  0  0  0  0
  2  1  1  0  0  0  0
  2  3  1  0  0  0  0
  2  7  1  0  0  0  0
  2 17  1  1  0  0  0
  3  4  1  0  0  0  0
  3 19  1  0  0  0  0
  3 20  1  0  0  0  0
  4  5  1  0  0  0  0
  4  6  1  0  0  0  0
  4 21  1  0  0  0  0
  5 22  1  0  0  0  0
  5 23  1  0  0  0  0
  5 24  1  0  0  0  0
  6 25  1  0  0  0  0
  6 26  1  0  0  0  0
  6 27  1  0  0  0  0
  7  8  1  0  0  0  0
  7  9  2  0  0  0  0
  8 28  1  0  0  0  0
 10 11  2  0  0  0  0
 10 12  1  0  0  0  0
 12 13  1  0  0  0  0
 12 14  2  0  0  0  0
 13 16  1  0  0  0  0
 14 15  1  0  0  0  0
 14 29  1  0  0  0  0
 15 16  2  0  0  0  0
 15 30  1  0  0  0  0
 16 31  1  0  0  0  0
M  END
>  <DRUGBANK_ID>
DB02215

>  <SECONDARY_ACCESSION_NUMBERS>
EXPT01441

>  <COMMON_NAME>
Furoyl-Leucine

$$$$
