1430
 OpenBabel10282417072D

 64 67  0  0  0  0  0  0  0  0999 V2000
    4.5080   -4.3313    0.0000 F   0  0  0  0  0  0  0  0  0  0  0  0
    1.6500    0.6188    0.0000 F   0  0  0  0  0  0  0  0  0  0  0  0
    5.2224   -0.6188    0.0000 N   0  0  0  0  0  0  0  0  0  0  0  0
    6.6515    0.2063    0.0000 N   0  0  0  0  0  0  0  0  0  0  0  0
    7.3659    1.4438    0.0000 N   0  0  0  0  0  0  0  0  0  0  0  0
    8.0804    0.2063    0.0000 N   0  0  0  0  0  0  0  0  0  0  0  0
    8.7949    1.4438    0.0000 N   0  0  0  0  0  0  0  0  0  0  0  0
    8.0804    2.6813    0.0000 N   0  0  0  0  0  0  0  0  0  0  0  0
    9.5094    0.2063    0.0000 N   0  0  0  0  0  0  0  0  0  0  0  0
    5.9370   -1.0313    0.0000 C   0  0  0  0  0  0  0  0  0  0  0  0
    5.2224    0.2063    0.0000 C   0  0  0  0  0  0  0  0  0  0  0  0
    4.5080   -1.0313    0.0000 C   0  0  0  0  0  0  0  0  0  0  0  0
    6.6515   -0.6188    0.0000 C   0  0  0  0  0  0  0  0  0  0  0  0
    5.9370    0.6188    0.0000 C   0  0  0  0  0  0  0  0  0  0  0  0
    4.5080   -1.8563    0.0000 C   0  0  0  0  0  0  0  0  0  0  0  0
    3.7935   -0.6188    0.0000 C   0  0  0  0  0  0  0  0  0  0  0  0
    7.3659    0.6188    0.0000 C   0  0  0  0  0  0  0  0  0  0  0  0
    5.2224   -2.2688    0.0000 C   0  0  0  0  0  0  0  0  0  0  0  0
    3.0791   -1.0313    0.0000 C   0  0  0  0  0  0  0  0  0  0  0  0
    3.7935   -2.2688    0.0000 C   0  0  0  0  0  0  0  0  0  0  0  0
    3.7935    0.2063    0.0000 C   0  0  0  0  0  0  0  0  0  0  0  0
    5.2224   -3.0938    0.0000 C   0  0  0  0  0  0  0  0  0  0  0  0
    2.3645   -0.6188    0.0000 C   0  0  0  0  0  0  0  0  0  0  0  0
    3.7935   -3.0938    0.0000 C   0  0  0  0  0  0  0  0  0  0  0  0
    3.0791    0.6188    0.0000 C   0  0  0  0  0  0  0  0  0  0  0  0
    4.5080   -3.5063    0.0000 C   0  0  0  0  0  0  0  0  0  0  0  0
    2.3645    0.2063    0.0000 C   0  0  0  0  0  0  0  0  0  0  0  0
    8.0804    1.8563    0.0000 C   0  0  0  0  0  0  0  0  0  0  0  0
    8.7949    0.6188    0.0000 C   0  0  0  0  0  0  0  0  0  0  0  0
    8.7949    3.0938    0.0000 C   0  0  0  0  0  0  0  0  0  0  0  0
   10.2239    0.6188    0.0000 C   0  0  0  0  0  0  0  0  0  0  0  0
    8.7949    3.9188    0.0000 C   0  0  0  0  0  0  0  0  0  0  0  0
   10.9383    0.2063    0.0000 C   0  0  0  0  0  0  0  0  0  0  0  0
    9.5094    4.3313    0.0000 C   0  0  0  0  0  0  0  0  0  0  0  0
   11.6529    0.6188    0.0000 C   0  0  0  0  0  0  0  0  0  0  0  0
    7.2278    3.1736    0.0000 H   0  0  0  0  0  0  0  0  0  0  0  0
    9.5094   -0.7782    0.0000 H   0  0  0  0  0  0  0  0  0  0  0  0
    5.9370   -2.1013    0.0000 H   0  0  0  0  0  0  0  0  0  0  0  0
    6.8637   -1.5663    0.0000 H   0  0  0  0  0  0  0  0  0  0  0  0
    4.2958    0.7413    0.0000 H   0  0  0  0  0  0  0  0  0  0  0  0
    5.2225    1.2763    0.0000 H   0  0  0  0  0  0  0  0  0  0  0  0
    3.5814   -1.5663    0.0000 H   0  0  0  0  0  0  0  0  0  0  0  0
    7.5781   -1.1538    0.0000 H   0  0  0  0  0  0  0  0  0  0  0  0
    6.6515   -1.6888    0.0000 H   0  0  0  0  0  0  0  0  0  0  0  0
    5.9370    1.6888    0.0000 H   0  0  0  0  0  0  0  0  0  0  0  0
    5.0104    1.1539    0.0000 H   0  0  0  0  0  0  0  0  0  0  0  0
    6.1161   -1.7528    0.0000 H   0  0  0  0  0  0  0  0  0  0  0  0
    3.0792   -2.0633    0.0000 H   0  0  0  0  0  0  0  0  0  0  0  0
    2.8998   -1.7528    0.0000 H   0  0  0  0  0  0  0  0  0  0  0  0
    4.6872    0.7223    0.0000 H   0  0  0  0  0  0  0  0  0  0  0  0
    6.1161   -3.6098    0.0000 H   0  0  0  0  0  0  0  0  0  0  0  0
    1.4708   -1.1348    0.0000 H   0  0  0  0  0  0  0  0  0  0  0  0
    2.8998   -3.6098    0.0000 H   0  0  0  0  0  0  0  0  0  0  0  0
    3.0792    1.6508    0.0000 H   0  0  0  0  0  0  0  0  0  0  0  0
    9.7215    2.5588    0.0000 H   0  0  0  0  0  0  0  0  0  0  0  0
    9.7215    3.6288    0.0000 H   0  0  0  0  0  0  0  0  0  0  0  0
   10.2239    1.6888    0.0000 H   0  0  0  0  0  0  0  0  0  0  0  0
   11.1506    1.1538    0.0000 H   0  0  0  0  0  0  0  0  0  0  0  0
    7.9012    4.4348    0.0000 H   0  0  0  0  0  0  0  0  0  0  0  0
   10.9382   -0.8257    0.0000 H   0  0  0  0  0  0  0  0  0  0  0  0
   10.4031    3.8153    0.0000 H   0  0  0  0  0  0  0  0  0  0  0  0
    9.5094    5.3633    0.0000 H   0  0  0  0  0  0  0  0  0  0  0  0
   12.5466    0.1027    0.0000 H   0  0  0  0  0  0  0  0  0  0  0  0
   11.6530    1.6508    0.0000 H   0  0  0  0  0  0  0  0  0  0  0  0
  1 26  1  0  0  0  0
  2 27  1  0  0  0  0
  3 10  1  0  0  0  0
  3 11  1  0  0  0  0
  3 12  1  0  0  0  0
  4 13  1  0  0  0  0
  4 14  1  0  0  0  0
  4 17  1  0  0  0  0
  5 17  2  0  0  0  0
  5 28  1  0  0  0  0
  6 17  1  0  0  0  0
  6 29  2  0  0  0  0
  7 28  2  0  0  0  0
  7 29  1  0  0  0  0
  8 28  1  0  0  0  0
  8 30  1  0  0  0  0
  8 36  1  0  0  0  0
  9 29  1  0  0  0  0
  9 31  1  0  0  0  0
  9 37  1  0  0  0  0
 10 13  1  0  0  0  0
 10 38  1  0  0  0  0
 10 39  1  0  0  0  0
 11 14  1  0  0  0  0
 11 40  1  0  0  0  0
 11 41  1  0  0  0  0
 12 15  1  0  0  0  0
 12 16  1  0  0  0  0
 12 42  1  0  0  0  0
 13 43  1  0  0  0  0
 13 44  1  0  0  0  0
 14 45  1  0  0  0  0
 14 46  1  0  0  0  0
 15 18  2  0  0  0  0
 15 20  1  0  0  0  0
 16 19  2  0  0  0  0
 16 21  1  0  0  0  0
 18 22  1  0  0  0  0
 18 47  1  0  0  0  0
 19 23  1  0  0  0  0
 19 48  1  0  0  0  0
 20 24  2  0  0  0  0
 20 49  1  0  0  0  0
 21 25  2  0  0  0  0
 21 50  1  0  0  0  0
 22 26  2  0  0  0  0
 22 51  1  0  0  0  0
 23 27  2  0  0  0  0
 23 52  1  0  0  0  0
 24 26  1  0  0  0  0
 24 53  1  0  0  0  0
 25 27  1  0  0  0  0
 25 54  1  0  0  0  0
 30 32  1  0  0  0  0
 30 55  1  0  0  0  0
 30 56  1  0  0  0  0
 31 33  1  0  0  0  0
 31 57  1  0  0  0  0
 31 58  1  0  0  0  0
 32 34  2  0  0  0  0
 32 59  1  0  0  0  0
 33 35  2  0  0  0  0
 33 60  1  0  0  0  0
 34 61  1  0  0  0  0
 34 62  1  0  0  0  0
 35 63  1  0  0  0  0
 35 64  1  0  0  0  0
M  END
>  <DRUGBANK_ID>
DB01430

>  <COMMON_NAME>
Almitrine

>  <CAS_NUMBER>
27469-53-0

>  <UNII>
9A1222NBG4

>  <SYNONYMS>
2,4-Bis(allylamino)-6-(4-(bis(p-fluorophenyl)methyl)-1-piperazinyl)-s-triazine; Almitrina; Almitrine; Almitrinum

$$$$
