
 OpenBabel10282417072D

 56 55  0  0  0  0  0  0  0  0999 V2000
   -0.1914   -0.7145    0.0000 C   0  0  0  0  0  0  0  0  0  0  0  0
    0.5230   -1.1270    0.0000 C   0  0  0  0  0  0  0  0  0  0  0  0
    1.2375   -0.7145    0.0000 C   0  0  0  0  0  0  0  0  0  0  0  0
    1.9520   -1.1270    0.0000 C   0  0  0  0  0  0  0  0  0  0  0  0
    2.6664   -0.7145    0.0000 C   0  0  0  0  0  0  0  0  0  0  0  0
    3.3809   -1.1270    0.0000 C   0  0  0  0  0  0  0  0  0  0  0  0
    4.0954   -0.7145    0.0000 C   0  0  0  0  0  0  0  0  0  0  0  0
    4.0954    0.1105    0.0000 C   0  0  0  0  0  0  0  0  0  0  0  0
    4.8099    0.5230    0.0000 C   0  0  0  0  0  0  0  0  0  0  0  0
    4.8099    1.3480    0.0000 C   0  0  0  0  0  0  0  0  0  0  0  0
    4.0954    1.7605    0.0000 C   0  0  0  0  0  0  0  0  0  0  0  0
    3.3809    1.3480    0.0000 C   0  0  0  0  0  0  0  0  0  0  0  0
    2.6664    1.7605    0.0000 C   0  0  0  0  0  0  0  0  0  0  0  0
    2.6664    2.5855    0.0000 C   0  0  0  0  0  0  0  0  0  0  0  0
    3.3809    2.9980    0.0000 C   0  0  0  0  0  0  0  0  0  0  0  0
    3.3809    3.8230    0.0000 C   0  0  0  0  0  0  0  0  0  0  0  0
    2.6664    4.2355    0.0000 C   0  0  0  0  0  0  0  0  0  0  0  0
    2.6664    5.0605    0.0000 C   0  0  0  0  0  0  0  0  0  0  0  0
    1.9520    5.4730    0.0000 C   0  0  0  0  0  0  0  0  0  0  0  0
    1.9520    6.2980    0.0000 C   0  0  0  0  0  0  0  0  0  0  0  0
    2.6664    6.7105    0.0000 O   0  0  0  0  0  0  0  0  0  0  0  0
    1.2375    6.7105    0.0000 C   0  0  0  0  0  0  0  0  0  0  0  0
    0.5230    7.1230    0.0000 F   0  0  0  0  0  0  0  0  0  0  0  0
    1.6500    7.4250    0.0000 F   0  0  0  0  0  0  0  0  0  0  0  0
    0.8250    5.9961    0.0000 F   0  0  0  0  0  0  0  0  0  0  0  0
   -0.1914    0.3555    0.0000 H   0  0  0  0  0  0  0  0  0  0  0  0
   -1.1181   -1.2495    0.0000 H   0  0  0  0  0  0  0  0  0  0  0  0
   -1.1180   -0.1795    0.0000 H   0  0  0  0  0  0  0  0  0  0  0  0
    0.5230   -2.1970    0.0000 H   0  0  0  0  0  0  0  0  0  0  0  0
    1.4496   -1.6620    0.0000 H   0  0  0  0  0  0  0  0  0  0  0  0
    1.2375    0.3555    0.0000 H   0  0  0  0  0  0  0  0  0  0  0  0
    2.1641   -0.1795    0.0000 H   0  0  0  0  0  0  0  0  0  0  0  0
    1.9520   -2.1970    0.0000 H   0  0  0  0  0  0  0  0  0  0  0  0
    2.8787   -1.6620    0.0000 H   0  0  0  0  0  0  0  0  0  0  0  0
    2.6664    0.3555    0.0000 H   0  0  0  0  0  0  0  0  0  0  0  0
    3.5930   -0.1795    0.0000 H   0  0  0  0  0  0  0  0  0  0  0  0
    3.3809   -2.1590    0.0000 H   0  0  0  0  0  0  0  0  0  0  0  0
    4.9891   -1.2305    0.0000 H   0  0  0  0  0  0  0  0  0  0  0  0
    3.1688    0.6455    0.0000 H   0  0  0  0  0  0  0  0  0  0  0  0
    4.0954    1.1805    0.0000 H   0  0  0  0  0  0  0  0  0  0  0  0
    5.7036    0.0070    0.0000 H   0  0  0  0  0  0  0  0  0  0  0  0
    5.7036    1.8640    0.0000 H   0  0  0  0  0  0  0  0  0  0  0  0
    4.0954    2.8305    0.0000 H   0  0  0  0  0  0  0  0  0  0  0  0
    3.1688    2.2955    0.0000 H   0  0  0  0  0  0  0  0  0  0  0  0
    3.3809    0.3160    0.0000 H   0  0  0  0  0  0  0  0  0  0  0  0
    1.7727    1.2445    0.0000 H   0  0  0  0  0  0  0  0  0  0  0  0
    1.7398    3.1205    0.0000 H   0  0  0  0  0  0  0  0  0  0  0  0
    2.6664    3.6555    0.0000 H   0  0  0  0  0  0  0  0  0  0  0  0
    4.2746    2.4820    0.0000 H   0  0  0  0  0  0  0  0  0  0  0  0
    4.2746    4.3390    0.0000 H   0  0  0  0  0  0  0  0  0  0  0  0
    1.7398    3.7005    0.0000 H   0  0  0  0  0  0  0  0  0  0  0  0
    1.7398    4.7705    0.0000 H   0  0  0  0  0  0  0  0  0  0  0  0
    3.5931    5.5955    0.0000 H   0  0  0  0  0  0  0  0  0  0  0  0
    2.6664    6.1305    0.0000 H   0  0  0  0  0  0  0  0  0  0  0  0
    1.0253    4.9380    0.0000 H   0  0  0  0  0  0  0  0  0  0  0  0
    1.0254    6.0080    0.0000 H   0  0  0  0  0  0  0  0  0  0  0  0
  1  2  1  0  0  0  0
  1 26  1  0  0  0  0
  1 27  1  0  0  0  0
  1 28  1  0  0  0  0
  2  3  1  0  0  0  0
  2 29  1  0  0  0  0
  2 30  1  0  0  0  0
  3  4  1  0  0  0  0
  3 31  1  0  0  0  0
  3 32  1  0  0  0  0
  4  5  1  0  0  0  0
  4 33  1  0  0  0  0
  4 34  1  0  0  0  0
  5  6  1  0  0  0  0
  5 35  1  0  0  0  0
  5 36  1  0  0  0  0
  6  7  2  0  0  0  0
  6 37  1  0  0  0  0
  7  8  1  0  0  0  0
  7 38  1  0  0  0  0
  8  9  1  0  0  0  0
  8 39  1  0  0  0  0
  8 40  1  0  0  0  0
  9 10  2  0  0  0  0
  9 41  1  0  0  0  0
 10 11  1  0  0  0  0
 10 42  1  0  0  0  0
 11 12  1  0  0  0  0
 11 43  1  0  0  0  0
 11 44  1  0  0  0  0
 12 13  2  0  0  0  0
 12 45  1  0  0  0  0
 13 14  1  0  0  0  0
 13 46  1  0  0  0  0
 14 15  1  0  0  0  0
 14 47  1  0  0  0  0
 14 48  1  0  0  0  0
 15 16  2  0  0  0  0
 15 49  1  0  0  0  0
 16 17  1  0  0  0  0
 16 50  1  0  0  0  0
 17 18  1  0  0  0  0
 17 51  1  0  0  0  0
 17 52  1  0  0  0  0
 18 19  1  0  0  0  0
 18 53  1  0  0  0  0
 18 54  1  0  0  0  0
 19 20  1  0  0  0  0
 19 55  1  0  0  0  0
 19 56  1  0  0  0  0
 20 21  2  0  0  0  0
 20 22  1  0  0  0  0
 22 23  1  0  0  0  0
 22 24  1  0  0  0  0
 22 25  1  0  0  0  0
M  END
>  <DRUGBANK_ID>
DB17022

>  <COMMON_NAME>
Arachidonyltrifluoromethane

>  <CAS_NUMBER>
149301-79-1

>  <UNII>
00XIW1CR0F

>  <SYNONYMS>
6,9,12,15-heneicosatetraen-2-one, 1,1,1-trifluoro-, (6z,9z,12z,15z)-; Aacocf3; Arachidonyl trifluoromethyl ketone

$$$$
