
 OpenBabel10282417072D

 48 49  0  0  0  0  0  0  0  0999 V2000
    0.6591   -1.6500    0.0000 C   0  0  0  0  0  0  0  0  0  0  0  0
    1.3737   -2.0625    0.0000 C   0  0  0  0  0  0  0  0  0  0  0  0
    1.3737   -2.8874    0.0000 C   0  0  0  0  0  0  0  0  0  0  0  0
    0.6591   -3.3000    0.0000 C   0  0  0  0  0  0  0  0  0  0  0  0
   -0.0552   -2.8874    0.0000 C   0  0  0  0  0  0  0  0  0  0  0  0
   -0.0552   -2.0625    0.0000 C   0  0  0  0  0  0  0  0  0  0  0  0
    0.6591   -4.1250    0.0000 O   0  0  0  0  0  0  0  0  0  0  0  0
    1.3737   -4.5375    0.0000 C   0  0  0  0  0  0  0  0  0  0  0  0
    0.6591   -0.8250    0.0000 C   0  0  0  0  0  0  0  0  0  0  0  0
   -0.0552   -0.4125    0.0000 C   0  0  0  0  0  0  0  0  0  0  0  0
   -0.0552    0.4125    0.0000 C   0  0  0  0  0  0  0  0  0  0  0  0
    0.6591    0.8250    0.0000 C   0  0  0  0  0  0  0  0  0  0  0  0
    1.3737    0.4125    0.0000 C   0  0  0  0  0  0  0  0  0  0  0  0
    1.3737   -0.4125    0.0000 C   0  0  0  0  0  0  0  0  0  0  0  0
    0.6591    1.6500    0.0000 S   0  0  0  0  0  0  0  0  0  0  0  0
    1.4842    1.6500    0.0000 O   0  0  0  0  0  0  0  0  0  0  0  0
   -0.1658    1.6500    0.0000 O   0  0  0  0  0  0  0  0  0  0  0  0
    0.6591    2.4749    0.0000 N   0  0  0  0  0  0  0  0  0  0  0  0
   -0.0552    2.8874    0.0000 C   0  0  2  0  0  0  0  0  0  0  0  0
   -0.7697    2.4749    0.0000 C   0  0  0  0  0  0  0  0  0  0  0  0
   -0.7697    1.6500    0.0000 C   0  0  0  0  0  0  0  0  0  0  0  0
   -1.4842    2.8874    0.0000 C   0  0  0  0  0  0  0  0  0  0  0  0
   -0.0552    3.7125    0.0000 P   0  0  0  0  0  0  0  0  0  0  0  0
   -0.8802    3.7125    0.0000 O   0  0  0  0  0  0  0  0  0  0  0  0
   -0.0552    4.5375    0.0000 O   0  0  0  0  0  0  0  0  0  0  0  0
    0.7697    3.7125    0.0000 O   0  0  0  0  0  0  0  0  0  0  0  0
    2.2674   -1.5465    0.0000 H   0  0  0  0  0  0  0  0  0  0  0  0
    2.2674   -3.4034    0.0000 H   0  0  0  0  0  0  0  0  0  0  0  0
   -0.9490   -3.4033    0.0000 H   0  0  0  0  0  0  0  0  0  0  0  0
   -0.9490   -1.5465    0.0000 H   0  0  0  0  0  0  0  0  0  0  0  0
    1.3738   -5.6075    0.0000 H   0  0  0  0  0  0  0  0  0  0  0  0
    2.3003   -4.0024    0.0000 H   0  0  0  0  0  0  0  0  0  0  0  0
    2.3004   -5.0724    0.0000 H   0  0  0  0  0  0  0  0  0  0  0  0
   -0.9490   -0.9285    0.0000 H   0  0  0  0  0  0  0  0  0  0  0  0
   -0.9490    0.9285    0.0000 H   0  0  0  0  0  0  0  0  0  0  0  0
    2.2674    0.9285    0.0000 H   0  0  0  0  0  0  0  0  0  0  0  0
    2.2674   -0.9285    0.0000 H   0  0  0  0  0  0  0  0  0  0  0  0
    1.5425    2.9849    0.0000 H   0  0  0  0  0  0  0  0  0  0  0  0
   -0.0553    1.8174    0.0000 H   0  0  0  0  0  0  0  0  0  0  0  0
   -1.6963    1.9399    0.0000 H   0  0  0  0  0  0  0  0  0  0  0  0
   -1.6963    1.1150    0.0000 H   0  0  0  0  0  0  0  0  0  0  0  0
    0.1569    1.1150    0.0000 H   0  0  0  0  0  0  0  0  0  0  0  0
   -0.7697    0.5800    0.0000 H   0  0  0  0  0  0  0  0  0  0  0  0
   -1.4842    3.9574    0.0000 H   0  0  0  0  0  0  0  0  0  0  0  0
   -2.4108    2.3524    0.0000 H   0  0  0  0  0  0  0  0  0  0  0  0
   -2.4109    3.4224    0.0000 H   0  0  0  0  0  0  0  0  0  0  0  0
    0.7848    5.0225    0.0000 H   0  0  0  0  0  0  0  0  0  0  0  0
    1.2547    2.8725    0.0000 H   0  0  0  0  0  0  0  0  0  0  0  0
  1  2  1  0  0  0  0
  1  6  2  0  0  0  0
  1  9  1  0  0  0  0
  2  3  2  0  0  0  0
  2 27  1  0  0  0  0
  3  4  1  0  0  0  0
  3 28  1  0  0  0  0
  4  7  1  0  0  0  0
  5  4  2  0  0  0  0
  5  6  1  0  0  0  0
  5 29  1  0  0  0  0
  6 30  1  0  0  0  0
  8  7  1  0  0  0  0
  8 31  1  0  0  0  0
  8 32  1  0  0  0  0
  8 33  1  0  0  0  0
  9 10  1  0  0  0  0
  9 14  2  0  0  0  0
 10 11  2  0  0  0  0
 10 34  1  0  0  0  0
 11 12  1  0  0  0  0
 11 35  1  0  0  0  0
 12 13  2  0  0  0  0
 12 15  1  0  0  0  0
 13 14  1  0  0  0  0
 13 36  1  0  0  0  0
 14 37  1  0  0  0  0
 16 15  2  0  0  0  0
 17 15  2  0  0  0  0
 18 15  1  0  0  0  0
 18 38  1  0  0  0  0
 19 18  1  0  0  0  0
 19 20  1  0  0  0  0
 19 23  1  0  0  0  0
 19 39  1  1  0  0  0
 20 21  1  0  0  0  0
 20 22  1  0  0  0  0
 20 40  1  0  0  0  0
 21 41  1  0  0  0  0
 21 42  1  0  0  0  0
 21 43  1  0  0  0  0
 22 44  1  0  0  0  0
 22 45  1  0  0  0  0
 22 46  1  0  0  0  0
 24 23  2  0  0  0  0
 25 23  1  0  0  0  0
 25 47  1  0  0  0  0
 26 23  1  0  0  0  0
 26 48  1  0  0  0  0
M  END
>  <DRUGBANK_ID>
DB07713

>  <COMMON_NAME>
(1S)-1-{[(4'-methoxy-1,1'-biphenyl-4-yl)sulfonyl]amino}-2-methylpropylphosphonic acid

$$$$
