AYM
 OpenBabel10282417072D

 44 46  0  0  0  0  0  0  0  0999 V2000
   -2.9036    3.4866    0.0000 N   0  0  0  0  0  0  0  0  0  0  0  0
   -2.4911    2.7722    0.0000 C   0  0  0  0  0  0  0  0  0  0  0  0
   -1.6661    2.7722    0.0000 N   0  0  0  0  0  0  0  0  0  0  0  0
   -1.2536    2.0577    0.0000 C   0  0  0  0  0  0  0  0  0  0  0  0
   -1.6661    1.3432    0.0000 C   0  0  0  0  0  0  0  0  0  0  0  0
   -2.4911    1.3432    0.0000 C   0  0  0  0  0  0  0  0  0  0  0  0
   -2.9036    2.0577    0.0000 C   0  0  0  0  0  0  0  0  0  0  0  0
   -1.2536    0.6288    0.0000 C   0  0  0  0  0  0  0  0  0  0  0  0
   -1.6661   -0.0857    0.0000 C   0  0  0  0  0  0  0  0  0  0  0  0
   -1.2536   -0.8002    0.0000 C   0  0  0  0  0  0  0  0  0  0  0  0
   -1.6661   -1.5147    0.0000 O   0  0  0  0  0  0  0  0  0  0  0  0
   -0.4286   -0.8002    0.0000 N   0  0  0  0  0  0  0  0  0  0  0  0
   -0.0161   -0.0857    0.0000 C   0  0  0  0  0  0  0  0  0  0  0  0
   -0.0161   -1.5147    0.0000 C   0  0  0  0  0  0  0  0  0  0  0  0
    0.8089   -1.5147    0.0000 C   0  0  0  0  0  0  0  0  0  0  0  0
    1.2938   -2.1821    0.0000 C   0  0  0  0  0  0  0  0  0  0  0  0
    2.0784   -1.9272    0.0000 C   0  0  0  0  0  0  0  0  0  0  0  0
    2.0784   -1.1022    0.0000 C   0  0  0  0  0  0  0  0  0  0  0  0
    1.2938   -0.8472    0.0000 N   0  0  0  0  0  0  0  0  0  0  0  0
    1.0389   -0.0626    0.0000 C   0  0  0  0  0  0  0  0  0  0  0  0
    2.7929   -2.3397    0.0000 C   0  0  0  0  0  0  0  0  0  0  0  0
    3.5074   -1.9272    0.0000 C   0  0  0  0  0  0  0  0  0  0  0  0
    3.5074   -1.1022    0.0000 C   0  0  0  0  0  0  0  0  0  0  0  0
    2.7929   -0.6897    0.0000 C   0  0  0  0  0  0  0  0  0  0  0  0
   -2.4114    4.3392    0.0000 H   0  0  0  0  0  0  0  0  0  0  0  0
   -3.8881    3.4866    0.0000 H   0  0  0  0  0  0  0  0  0  0  0  0
   -0.2216    2.0577    0.0000 H   0  0  0  0  0  0  0  0  0  0  0  0
   -3.0071    0.4495    0.0000 H   0  0  0  0  0  0  0  0  0  0  0  0
   -3.9356    2.0577    0.0000 H   0  0  0  0  0  0  0  0  0  0  0  0
   -0.2216    0.6288    0.0000 H   0  0  0  0  0  0  0  0  0  0  0  0
   -2.6981   -0.0857    0.0000 H   0  0  0  0  0  0  0  0  0  0  0  0
    1.0539   -0.0857    0.0000 H   0  0  0  0  0  0  0  0  0  0  0  0
   -0.5511    0.8409    0.0000 H   0  0  0  0  0  0  0  0  0  0  0  0
    0.5189    0.8410    0.0000 H   0  0  0  0  0  0  0  0  0  0  0  0
   -0.5511   -2.4413    0.0000 H   0  0  0  0  0  0  0  0  0  0  0  0
    0.5189   -2.4413    0.0000 H   0  0  0  0  0  0  0  0  0  0  0  0
    0.9749   -3.1636    0.0000 H   0  0  0  0  0  0  0  0  0  0  0  0
    1.7549    0.7325    0.0000 H   0  0  0  0  0  0  0  0  0  0  0  0
   -0.0077    0.1599    0.0000 H   0  0  0  0  0  0  0  0  0  0  0  0
    0.7083    0.9550    0.0000 H   0  0  0  0  0  0  0  0  0  0  0  0
    2.7929   -3.3717    0.0000 H   0  0  0  0  0  0  0  0  0  0  0  0
    4.4011   -2.4432    0.0000 H   0  0  0  0  0  0  0  0  0  0  0  0
    4.4011   -0.5862    0.0000 H   0  0  0  0  0  0  0  0  0  0  0  0
    2.7929    0.3423    0.0000 H   0  0  0  0  0  0  0  0  0  0  0  0
  1  2  1  0  0  0  0
  1 25  1  0  0  0  0
  1 26  1  0  0  0  0
  2  3  2  0  0  0  0
  2  7  1  0  0  0  0
  3  4  1  0  0  0  0
  4  5  2  0  0  0  0
  4 27  1  0  0  0  0
  5  6  1  0  0  0  0
  5  8  1  0  0  0  0
  6  7  2  0  0  0  0
  6 28  1  0  0  0  0
  7 29  1  0  0  0  0
  8  9  2  0  0  0  0
  8 30  1  0  0  0  0
  9 10  1  0  0  0  0
  9 31  1  0  0  0  0
 10 11  2  0  0  0  0
 10 12  1  0  0  0  0
 12 13  1  0  0  0  0
 12 14  1  0  0  0  0
 13 32  1  0  0  0  0
 13 33  1  0  0  0  0
 13 34  1  0  0  0  0
 14 15  1  0  0  0  0
 14 35  1  0  0  0  0
 14 36  1  0  0  0  0
 15 16  2  0  0  0  0
 15 19  1  0  0  0  0
 16 17  1  0  0  0  0
 16 37  1  0  0  0  0
 17 18  2  0  0  0  0
 17 21  1  0  0  0  0
 18 19  1  0  0  0  0
 18 24  1  0  0  0  0
 19 20  1  0  0  0  0
 20 38  1  0  0  0  0
 20 39  1  0  0  0  0
 20 40  1  0  0  0  0
 21 22  2  0  0  0  0
 21 41  1  0  0  0  0
 22 23  1  0  0  0  0
 22 42  1  0  0  0  0
 23 24  2  0  0  0  0
 23 43  1  0  0  0  0
 24 44  1  0  0  0  0
M  END
>  <DRUGBANK_ID>
DB01865

>  <SECONDARY_ACCESSION_NUMBERS>
EXPT00597

>  <COMMON_NAME>
3-(6-Aminopyridin-3-Yl)-N-Methyl-N-[(1-Methyl-1h-Indol-2-Yl)Methyl]Acrylamide

$$$$
