
 OpenBabel10282417072D

123132  0  0  1  0  0  0  0  0999 V2000
   10.6987   -1.4356    0.0000 C   0  0  0  0  0  0  0  0  0  0  0  0
    9.9028   -1.2182    0.0000 C   0  0  0  0  0  0  0  0  0  0  0  0
    9.6931   -0.4203    0.0000 C   0  0  0  0  0  0  0  0  0  0  0  0
    9.3167   -1.7988    0.0000 C   0  0  1  0  0  0  0  0  0  0  0  0
    8.5208   -1.5814    0.0000 C   0  0  0  0  0  0  0  0  0  0  0  0
    8.3111   -0.7835    0.0000 O   0  0  0  0  0  0  0  0  0  0  0  0
    7.9346   -2.1620    0.0000 N   0  0  0  0  0  0  0  0  0  0  0  0
    8.0598   -2.9774    0.0000 C   0  0  0  0  0  0  0  0  0  0  0  0
    7.3229   -3.3484    0.0000 C   0  0  0  0  0  0  0  0  0  0  0  0
    6.7423   -2.7622    0.0000 C   0  0  0  0  0  0  0  0  0  0  0  0
    7.1204   -2.0290    0.0000 C   0  0  1  0  0  0  0  0  0  0  0  0
    6.7494   -1.2921    0.0000 C   0  0  0  0  0  0  0  0  0  0  0  0
    5.9352   -1.1591    0.0000 N   0  0  0  0  0  0  0  0  0  0  0  0
    5.8101   -0.3437    0.0000 C   0  0  0  0  0  0  0  0  0  0  0  0
    6.5470    0.0273    0.0000 C   0  0  0  0  0  0  0  0  0  0  0  0
    7.1275   -0.5588    0.0000 N   0  0  0  0  0  0  0  0  0  0  0  0
    5.0768    0.0344    0.0000 C   0  0  0  0  0  0  0  0  0  0  0  0
    5.0376    0.8585    0.0000 C   0  0  0  0  0  0  0  0  0  0  0  0
    4.3043    1.2366    0.0000 C   0  0  0  0  0  0  0  0  0  0  0  0
    3.6103    0.7906    0.0000 C   0  0  0  0  0  0  0  0  0  0  0  0
    3.6495   -0.0335    0.0000 C   0  0  0  0  0  0  0  0  0  0  0  0
    4.3828   -0.4116    0.0000 C   0  0  0  0  0  0  0  0  0  0  0  0
    2.8779   -0.3254    0.0000 C   0  0  0  0  0  0  0  0  0  0  0  0
    2.3618    0.3182    0.0000 C   0  0  0  0  0  0  0  0  0  0  0  0
    2.8144    1.0079    0.0000 N   0  0  0  0  0  0  0  0  0  0  0  0
    2.4434    1.7448    0.0000 C   0  0  1  0  0  0  0  0  0  0  0  0
    1.6198    1.7920    0.0000 O   0  0  0  0  0  0  0  0  0  0  0  0
    1.1671    1.1022    0.0000 C   0  0  0  0  0  0  0  0  0  0  0  0
    1.5381    0.3654    0.0000 C   0  0  0  0  0  0  0  0  0  0  0  0
    1.0855   -0.3244    0.0000 C   0  0  0  0  0  0  0  0  0  0  0  0
    0.2618   -0.2772    0.0000 C   0  0  0  0  0  0  0  0  0  0  0  0
   -0.1092    0.4596    0.0000 C   0  0  0  0  0  0  0  0  0  0  0  0
    0.3435    1.1494    0.0000 C   0  0  0  0  0  0  0  0  0  0  0  0
   -0.9328    0.5068    0.0000 C   0  0  0  0  0  0  0  0  0  0  0  0
   -1.4551   -0.1318    0.0000 C   0  0  0  0  0  0  0  0  0  0  0  0
   -2.2239    0.1675    0.0000 N   0  0  0  0  0  0  0  0  0  0  0  0
   -2.1767    0.9912    0.0000 C   0  0  0  0  0  0  0  0  0  0  0  0
   -1.3788    1.2008    0.0000 N   0  0  0  0  0  0  0  0  0  0  0  0
   -2.8154    1.5134    0.0000 C   0  0  2  0  0  0  0  0  0  0  0  0
   -3.6133    1.3038    0.0000 C   0  0  0  0  0  0  0  0  0  0  0  0
   -4.0593    1.9978    0.0000 C   0  0  0  0  0  0  0  0  0  0  0  0
   -3.5370    2.6364    0.0000 C   0  0  0  0  0  0  0  0  0  0  0  0
   -2.7682    2.3371    0.0000 N   0  0  0  0  0  0  0  0  0  0  0  0
   -2.0742    2.7831    0.0000 C   0  0  0  0  0  0  0  0  0  0  0  0
   -1.3409    2.4050    0.0000 O   0  0  0  0  0  0  0  0  0  0  0  0
   -2.1134    3.6071    0.0000 C   0  0  2  0  0  0  0  0  0  0  0  0
   -2.8466    3.9852    0.0000 C   0  0  0  0  0  0  0  0  0  0  0  0
   -3.5407    3.5392    0.0000 C   0  0  0  0  0  0  0  0  0  0  0  0
   -2.8858    4.8093    0.0000 C   0  0  0  0  0  0  0  0  0  0  0  0
   -1.4193    4.0531    0.0000 N   0  0  0  0  0  0  0  0  0  0  0  0
   -1.4585    4.8772    0.0000 C   0  0  0  0  0  0  0  0  0  0  0  0
   -2.1918    5.2553    0.0000 O   0  0  0  0  0  0  0  0  0  0  0  0
   -0.7645    5.3232    0.0000 O   0  0  0  0  0  0  0  0  0  0  0  0
   -0.0312    4.9451    0.0000 C   0  0  0  0  0  0  0  0  0  0  0  0
    1.4565   -1.0613    0.0000 F   0  0  0  0  0  0  0  0  0  0  0  0
    2.8961    2.4345    0.0000 C   0  0  0  0  0  0  0  0  0  0  0  0
    2.6041    3.2062    0.0000 C   0  0  0  0  0  0  0  0  0  0  0  0
    3.2478    3.7223    0.0000 N   0  0  0  0  0  0  0  0  0  0  0  0
    3.9375    3.2696    0.0000 C   0  0  0  0  0  0  0  0  0  0  0  0
    3.7202    2.4738    0.0000 S   0  0  0  0  0  0  0  0  0  0  0  0
    4.7091    3.5615    0.0000 C   0  0  0  0  0  0  0  0  0  0  0  0
    5.2314    4.2002    0.0000 C   0  0  0  0  0  0  0  0  0  0  0  0
    5.5233    3.4286    0.0000 C   0  0  0  0  0  0  0  0  0  0  0  0
    9.5263   -2.5967    0.0000 N   0  0  0  0  0  0  0  0  0  0  0  0
   10.3222   -2.8140    0.0000 C   0  0  0  0  0  0  0  0  0  0  0  0
   10.9084   -2.2335    0.0000 O   0  0  0  0  0  0  0  0  0  0  0  0
   10.5319   -3.6119    0.0000 O   0  0  0  0  0  0  0  0  0  0  0  0
    9.9457   -4.1925    0.0000 C   0  0  0  0  0  0  0  0  0  0  0  0
   10.9706   -2.4705    0.0000 H   0  0  0  0  0  0  0  0  0  0  0  0
   11.4590   -0.6827    0.0000 H   0  0  0  0  0  0  0  0  0  0  0  0
   11.7309   -1.7175    0.0000 H   0  0  0  0  0  0  0  0  0  0  0  0
    8.8706   -0.9364    0.0000 H   0  0  0  0  0  0  0  0  0  0  0  0
   10.4533    0.3327    0.0000 H   0  0  0  0  0  0  0  0  0  0  0  0
    8.6609   -0.1384    0.0000 H   0  0  0  0  0  0  0  0  0  0  0  0
    9.4211    0.6146    0.0000 H   0  0  0  0  0  0  0  0  0  0  0  0
   10.3489   -2.0807    0.0000 H   0  0  0  0  0  0  0  0  0  0  0  0
    9.0108   -3.4677    0.0000 H   0  0  0  0  0  0  0  0  0  0  0  0
    8.0547   -4.0474    0.0000 H   0  0  0  0  0  0  0  0  0  0  0  0
    7.1504   -4.4044    0.0000 H   0  0  0  0  0  0  0  0  0  0  0  0
    6.3037   -3.6742    0.0000 H   0  0  0  0  0  0  0  0  0  0  0  0
    5.6847   -2.9245    0.0000 H   0  0  0  0  0  0  0  0  0  0  0  0
    6.1176   -1.8935    0.0000 H   0  0  0  0  0  0  0  0  0  0  0  0
    6.0504   -2.0238    0.0000 H   0  0  0  0  0  0  0  0  0  0  0  0
    5.2357   -1.8519    0.0000 H   0  0  0  0  0  0  0  0  0  0  0  0
    6.7133    1.0458    0.0000 H   0  0  0  0  0  0  0  0  0  0  0  0
    5.9058    1.4164    0.0000 H   0  0  0  0  0  0  0  0  0  0  0  0
    4.2552    2.2674    0.0000 H   0  0  0  0  0  0  0  0  0  0  0  0
    4.4319   -1.4424    0.0000 H   0  0  0  0  0  0  0  0  0  0  0  0
    2.6060   -1.3209    0.0000 H   0  0  0  0  0  0  0  0  0  0  0  0
    3.5116    1.6836    0.0000 H   0  0  0  0  0  0  0  0  0  0  0  0
   -0.3044   -1.1400    0.0000 H   0  0  0  0  0  0  0  0  0  0  0  0
   -0.1206    2.0712    0.0000 H   0  0  0  0  0  0  0  0  0  0  0  0
   -1.1928   -1.1299    0.0000 H   0  0  0  0  0  0  0  0  0  0  0  0
   -1.0215    2.1182    0.0000 H   0  0  0  0  0  0  0  0  0  0  0  0
   -3.0429    0.4679    0.0000 H   0  0  0  0  0  0  0  0  0  0  0  0
   -4.0016    0.3067    0.0000 H   0  0  0  0  0  0  0  0  0  0  0  0
   -4.6780    1.1971    0.0000 H   0  0  0  0  0  0  0  0  0  0  0  0
   -5.1276    2.0589    0.0000 H   0  0  0  0  0  0  0  0  0  0  0  0
   -4.4898    2.9774    0.0000 H   0  0  0  0  0  0  0  0  0  0  0  0
   -3.8090    3.6713    0.0000 H   0  0  0  0  0  0  0  0  0  0  0  0
   -2.7384    3.3486    0.0000 H   0  0  0  0  0  0  0  0  0  0  0  0
   -1.1624    3.1167    0.0000 H   0  0  0  0  0  0  0  0  0  0  0  0
   -3.7976    4.4756    0.0000 H   0  0  0  0  0  0  0  0  0  0  0  0
   -4.4917    4.0296    0.0000 H   0  0  0  0  0  0  0  0  0  0  0  0
   -3.4899    2.4704    0.0000 H   0  0  0  0  0  0  0  0  0  0  0  0
   -4.4409    2.9608    0.0000 H   0  0  0  0  0  0  0  0  0  0  0  0
   -1.9856    5.3877    0.0000 H   0  0  0  0  0  0  0  0  0  0  0  0
   -3.8368    5.2997    0.0000 H   0  0  0  0  0  0  0  0  0  0  0  0
   -2.9366    5.8781    0.0000 H   0  0  0  0  0  0  0  0  0  0  0  0
   -0.5443    3.6019    0.0000 H   0  0  0  0  0  0  0  0  0  0  0  0
    0.0196    3.8763    0.0000 H   0  0  0  0  0  0  0  0  0  0  0  0
    0.8690    5.5235    0.0000 H   0  0  0  0  0  0  0  0  0  0  0  0
    0.9198    4.4547    0.0000 H   0  0  0  0  0  0  0  0  0  0  0  0
    1.6086    3.4781    0.0000 H   0  0  0  0  0  0  0  0  0  0  0  0
    5.7098    3.9402    0.0000 H   0  0  0  0  0  0  0  0  0  0  0  0
    5.4039    5.2562    0.0000 H   0  0  0  0  0  0  0  0  0  0  0  0
    6.2961    4.3069    0.0000 H   0  0  0  0  0  0  0  0  0  0  0  0
    6.3516    2.7513    0.0000 H   0  0  0  0  0  0  0  0  0  0  0  0
    5.0834    2.4532    0.0000 H   0  0  0  0  0  0  0  0  0  0  0  0
    8.8268   -3.2895    0.0000 H   0  0  0  0  0  0  0  0  0  0  0  0
    8.9135   -3.9106    0.0000 H   0  0  0  0  0  0  0  0  0  0  0  0
   10.2177   -5.2274    0.0000 H   0  0  0  0  0  0  0  0  0  0  0  0
    9.1855   -4.9455    0.0000 H   0  0  0  0  0  0  0  0  0  0  0  0
  1  2  1  0  0  0  0
  1 69  1  0  0  0  0
  1 70  1  0  0  0  0
  1 71  1  0  0  0  0
  2  3  1  0  0  0  0
  2  4  1  0  0  0  0
  2 72  1  0  0  0  0
  3 73  1  0  0  0  0
  3 74  1  0  0  0  0
  3 75  1  0  0  0  0
  4  5  1  0  0  0  0
  4 64  1  0  0  0  0
  4 76  1  1  0  0  0
  5  6  2  0  0  0  0
  5  7  1  0  0  0  0
  7  8  1  0  0  0  0
  7 11  1  0  0  0  0
  8  9  1  0  0  0  0
  8 77  1  0  0  0  0
  8 78  1  0  0  0  0
  9 10  1  0  0  0  0
  9 79  1  0  0  0  0
  9 80  1  0  0  0  0
 10 11  1  0  0  0  0
 10 81  1  0  0  0  0
 10 82  1  0  0  0  0
 11 12  1  0  0  0  0
 11 83  1  6  0  0  0
 12 13  1  0  0  0  0
 12 16  2  0  0  0  0
 13 14  1  0  0  0  0
 13 84  1  0  0  0  0
 14 15  2  0  0  0  0
 14 17  1  0  0  0  0
 15 16  1  0  0  0  0
 15 85  1  0  0  0  0
 17 18  2  0  0  0  0
 17 22  1  0  0  0  0
 18 19  1  0  0  0  0
 18 86  1  0  0  0  0
 19 20  2  0  0  0  0
 19 87  1  0  0  0  0
 20 21  1  0  0  0  0
 20 25  1  0  0  0  0
 21 22  2  0  0  0  0
 21 23  1  0  0  0  0
 22 88  1  0  0  0  0
 23 24  2  0  0  0  0
 23 89  1  0  0  0  0
 24 25  1  0  0  0  0
 24 29  1  0  0  0  0
 25 26  1  0  0  0  0
 26 27  1  0  0  0  0
 26 56  1  0  0  0  0
 26 90  1  6  0  0  0
 27 28  1  0  0  0  0
 28 29  2  0  0  0  0
 28 33  1  0  0  0  0
 29 30  1  0  0  0  0
 30 31  2  0  0  0  0
 30 55  1  0  0  0  0
 31 32  1  0  0  0  0
 31 91  1  0  0  0  0
 32 33  2  0  0  0  0
 32 34  1  0  0  0  0
 33 92  1  0  0  0  0
 34 35  2  0  0  0  0
 34 38  1  0  0  0  0
 35 36  1  0  0  0  0
 35 93  1  0  0  0  0
 36 37  2  0  0  0  0
 37 38  1  0  0  0  0
 38 94  1  0  0  0  0
 39 37  1  0  0  0  0
 39 40  1  0  0  0  0
 39 43  1  0  0  0  0
 39 95  1  1  0  0  0
 40 41  1  0  0  0  0
 40 96  1  0  0  0  0
 40 97  1  0  0  0  0
 41 42  1  0  0  0  0
 41 98  1  0  0  0  0
 41 99  1  0  0  0  0
 42 43  1  0  0  0  0
 42100  1  0  0  0  0
 42101  1  0  0  0  0
 43 44  1  0  0  0  0
 44 45  2  0  0  0  0
 44 46  1  0  0  0  0
 46 47  1  0  0  0  0
 46 50  1  0  0  0  0
 46102  1  1  0  0  0
 47 48  1  0  0  0  0
 47 49  1  0  0  0  0
 47103  1  0  0  0  0
 48104  1  0  0  0  0
 48105  1  0  0  0  0
 48106  1  0  0  0  0
 49107  1  0  0  0  0
 49108  1  0  0  0  0
 49109  1  0  0  0  0
 50 51  1  0  0  0  0
 50110  1  0  0  0  0
 51 52  2  0  0  0  0
 51 53  1  0  0  0  0
 53 54  1  0  0  0  0
 54111  1  0  0  0  0
 54112  1  0  0  0  0
 54113  1  0  0  0  0
 56 57  2  0  0  0  0
 56 60  1  0  0  0  0
 57 58  1  0  0  0  0
 57114  1  0  0  0  0
 58 59  2  0  0  0  0
 59 60  1  0  0  0  0
 59 61  1  0  0  0  0
 61 62  1  0  0  0  0
 61 63  1  0  0  0  0
 61115  1  0  0  0  0
 62 63  1  0  0  0  0
 62116  1  0  0  0  0
 62117  1  0  0  0  0
 63118  1  0  0  0  0
 63119  1  0  0  0  0
 64 65  1  0  0  0  0
 64120  1  0  0  0  0
 65 66  2  0  0  0  0
 65 67  1  0  0  0  0
 67 68  1  0  0  0  0
 68121  1  0  0  0  0
 68122  1  0  0  0  0
 68123  1  0  0  0  0
M  END
>  <DRUGBANK_ID>
DB11713

>  <COMMON_NAME>
Ruzasvir

>  <CAS_NUMBER>
1613081-64-3

>  <UNII>
LX752BD95Y

>  <SYNONYMS>
Ruzasvir

$$$$
