
 OpenBabel10282417072D

 39 42  0  0  0  0  0  0  0  0999 V2000
   -0.4571    0.0415    0.0000 C   0  0  0  0  0  0  0  0  0  0  0  0
   -0.9558    0.7065    0.0000 C   0  0  0  0  0  0  0  0  0  0  0  0
   -0.7481    1.4962    0.0000 C   0  0  0  0  0  0  0  0  0  0  0  0
    0.0000    1.8702    0.0000 C   0  0  0  0  0  0  0  0  0  0  0  0
    0.3740    0.0415    0.0000 C   0  0  0  0  0  0  0  0  0  0  0  0
    0.7481    1.4962    0.0000 C   0  0  0  0  0  0  0  0  0  0  0  0
    0.9143    0.6650    0.0000 C   0  0  0  0  0  0  0  0  0  0  0  0
   -1.3299    2.0780    0.0000 C   0  0  0  0  0  0  0  0  0  0  0  0
   -2.1196    1.8702    0.0000 C   0  0  0  0  0  0  0  0  0  0  0  0
   -2.3273    1.0390    0.0000 C   0  0  0  0  0  0  0  0  0  0  0  0
   -1.7455    0.4987    0.0000 C   0  0  0  0  0  0  0  0  0  0  0  0
    1.7039    0.4156    0.0000 C   0  0  0  0  0  0  0  0  0  0  0  0
    2.3273    0.9558    0.0000 C   0  0  0  0  0  0  0  0  0  0  0  0
    2.1611    1.7870    0.0000 C   0  0  0  0  0  0  0  0  0  0  0  0
    1.3715    2.0364    0.0000 C   0  0  0  0  0  0  0  0  0  0  0  0
   -0.8727   -0.6650    0.0000 C   0  0  0  0  0  0  0  0  0  0  0  0
   -0.4571   -1.3715    0.0000 N   0  0  0  0  0  0  0  0  0  0  0  0
    0.3740   -1.3715    0.0000 C   0  0  0  0  0  0  0  0  0  0  0  0
    0.7896   -0.6650    0.0000 C   0  0  0  0  0  0  0  0  0  0  0  0
   -0.9143   -2.0780    0.0000 C   0  0  0  0  0  0  0  0  0  0  0  0
    0.0000    2.9402    0.0000 H   0  0  0  0  0  0  0  0  0  0  0  0
    0.9102    2.4328    0.0000 H   0  0  0  0  0  0  0  0  0  0  0  0
   -1.0606    3.0742    0.0000 H   0  0  0  0  0  0  0  0  0  0  0  0
   -2.8539    2.5954    0.0000 H   0  0  0  0  0  0  0  0  0  0  0  0
   -3.3166    0.7451    0.0000 H   0  0  0  0  0  0  0  0  0  0  0  0
   -1.9964   -0.5023    0.0000 H   0  0  0  0  0  0  0  0  0  0  0  0
    1.9130   -0.5950    0.0000 H   0  0  0  0  0  0  0  0  0  0  0  0
    3.3037    0.6217    0.0000 H   0  0  0  0  0  0  0  0  0  0  0  0
    2.9294    2.4761    0.0000 H   0  0  0  0  0  0  0  0  0  0  0  0
    1.1624    3.0470    0.0000 H   0  0  0  0  0  0  0  0  0  0  0  0
   -1.9427   -0.6650    0.0000 H   0  0  0  0  0  0  0  0  0  0  0  0
   -1.4039   -1.5938    0.0000 H   0  0  0  0  0  0  0  0  0  0  0  0
    0.9052   -2.3003    0.0000 H   0  0  0  0  0  0  0  0  0  0  0  0
    1.4440   -1.3780    0.0000 H   0  0  0  0  0  0  0  0  0  0  0  0
    1.8596   -0.6650    0.0000 H   0  0  0  0  0  0  0  0  0  0  0  0
    1.3208    0.2638    0.0000 H   0  0  0  0  0  0  0  0  0  0  0  0
   -1.9829   -2.0237    0.0000 H   0  0  0  0  0  0  0  0  0  0  0  0
   -0.4270   -3.0306    0.0000 H   0  0  0  0  0  0  0  0  0  0  0  0
   -1.4956   -2.9763    0.0000 H   0  0  0  0  0  0  0  0  0  0  0  0
  1  5  2  0  0  0  0
  1  2  1  0  0  0  0
  1 16  1  0  0  0  0
  2  3  1  0  0  0  0
  2 11  2  0  0  0  0
  3  4  1  0  0  0  0
  3  8  2  0  0  0  0
  4  6  1  0  0  0  0
  4 21  1  0  0  0  0
  4 22  1  0  0  0  0
  5  7  1  0  0  0  0
  5 19  1  0  0  0  0
  6  7  1  0  0  0  0
  6 15  2  0  0  0  0
  7 12  2  0  0  0  0
  8  9  1  0  0  0  0
  8 23  1  0  0  0  0
  9 10  2  0  0  0  0
  9 24  1  0  0  0  0
 10 11  1  0  0  0  0
 10 25  1  0  0  0  0
 11 26  1  0  0  0  0
 12 13  1  0  0  0  0
 12 27  1  0  0  0  0
 13 14  2  0  0  0  0
 13 28  1  0  0  0  0
 14 15  1  0  0  0  0
 14 29  1  0  0  0  0
 15 30  1  0  0  0  0
 16 17  1  0  0  0  0
 16 31  1  0  0  0  0
 16 32  1  0  0  0  0
 17 18  1  0  0  0  0
 17 20  1  0  0  0  0
 18 19  1  0  0  0  0
 18 33  1  0  0  0  0
 18 34  1  0  0  0  0
 19 35  1  0  0  0  0
 19 36  1  0  0  0  0
 20 37  1  0  0  0  0
 20 38  1  0  0  0  0
 20 39  1  0  0  0  0
M  END
>  <DRUGBANK_ID>
DB09304

>  <COMMON_NAME>
Setiptiline

>  <CAS_NUMBER>
57262-94-9

>  <UNII>
7L38105Z6E

>  <SYNONYMS>
Setiptilina; Setiptiline; Setiptilinum

$$$$
