
 OpenBabel10282417072D

 66 71  0  0  1  0  0  0  0  0999 V2000
    9.4383    0.4903    0.0000 C   0  0  0  0  0  0  0  0  0  0  0  0
    8.6222    0.3696    0.0000 C   0  0  2  0  0  0  0  0  0  0  0  0
    8.3187   -0.3976    0.0000 C   0  0  1  0  0  0  0  0  0  0  0  0
    7.5025   -0.5183    0.0000 C   0  0  0  0  0  0  0  0  0  0  0  0
    6.9899    0.1282    0.0000 C   0  0  2  0  0  0  0  0  0  0  0  0
    6.1738    0.0075    0.0000 N   0  0  0  0  0  0  0  0  0  0  0  0
    5.6612    0.6539    0.0000 C   0  0  0  0  0  0  0  0  0  0  0  0
    5.9648    1.4210    0.0000 O   0  0  0  0  0  0  0  0  0  0  0  0
    4.8451    0.5332    0.0000 C   0  0  0  0  0  0  0  0  0  0  0  0
    4.5416   -0.2339    0.0000 C   0  0  0  0  0  0  0  0  0  0  0  0
    3.7255   -0.3546    0.0000 N   0  0  0  0  0  0  0  0  0  0  0  0
    3.2129    0.2918    0.0000 C   0  0  0  0  0  0  0  0  0  0  0  0
    2.3895    0.3434    0.0000 C   0  0  0  0  0  0  0  0  0  0  0  0
    2.1841    1.1425    0.0000 C   0  0  2  0  0  0  0  0  0  0  0  0
    2.8806    1.5847    0.0000 C   0  0  0  0  0  0  0  0  0  0  0  0
    3.5164    1.0589    0.0000 C   0  0  0  0  0  0  0  0  0  0  0  0
    4.3325    1.1796    0.0000 C   0  0  0  0  0  0  0  0  0  0  0  0
    1.9788    1.9415    0.0000 C   0  0  0  0  0  0  0  0  0  0  0  0
    2.5045    2.5773    0.0000 O   0  0  0  0  0  0  0  0  0  0  0  0
    1.1554    1.9931    0.0000 N   0  0  0  0  0  0  0  0  0  0  0  0
    0.8519    1.2260    0.0000 C   0  0  0  0  0  0  0  0  0  0  0  0
    1.4877    0.7002    0.0000 C   0  0  0  0  0  0  0  0  0  0  0  0
    1.3503   -0.1132    0.0000 C   0  0  0  0  0  0  0  0  0  0  0  0
    0.5771   -0.4010    0.0000 C   0  0  0  0  0  0  0  0  0  0  0  0
   -0.0587    0.1248    0.0000 C   0  0  0  0  0  0  0  0  0  0  0  0
    0.0787    0.9382    0.0000 N   0  0  0  0  0  0  0  0  0  0  0  0
    7.2935    0.8953    0.0000 C   0  0  0  0  0  0  0  0  0  0  0  0
    6.7809    1.5417    0.0000 O   0  0  0  0  0  0  0  0  0  0  0  0
    8.1096    1.0160    0.0000 N   0  0  0  0  0  0  0  0  0  0  0  0
    8.4131    1.7831    0.0000 C   0  0  0  0  0  0  0  0  0  0  0  0
    9.2293    1.9038    0.0000 C   0  0  0  0  0  0  0  0  0  0  0  0
    9.3500    1.0877    0.0000 F   0  0  0  0  0  0  0  0  0  0  0  0
    9.1086    2.7200    0.0000 F   0  0  0  0  0  0  0  0  0  0  0  0
   10.0454    2.0245    0.0000 F   0  0  0  0  0  0  0  0  0  0  0  0
    8.8313   -1.0440    0.0000 C   0  0  0  0  0  0  0  0  0  0  0  0
    9.6474   -0.9233    0.0000 C   0  0  0  0  0  0  0  0  0  0  0  0
    9.9509   -0.1562    0.0000 F   0  0  0  0  0  0  0  0  0  0  0  0
   10.1600   -1.5697    0.0000 C   0  0  0  0  0  0  0  0  0  0  0  0
   10.9761   -1.4490    0.0000 F   0  0  0  0  0  0  0  0  0  0  0  0
    9.8564   -2.3369    0.0000 C   0  0  0  0  0  0  0  0  0  0  0  0
    9.0403   -2.4576    0.0000 C   0  0  0  0  0  0  0  0  0  0  0  0
    8.5277   -1.8111    0.0000 C   0  0  0  0  0  0  0  0  0  0  0  0
    7.7116   -1.9318    0.0000 F   0  0  0  0  0  0  0  0  0  0  0  0
   10.1031   -0.3481    0.0000 H   0  0  0  0  0  0  0  0  0  0  0  0
    9.8320    1.4853    0.0000 H   0  0  0  0  0  0  0  0  0  0  0  0
   10.4968    0.6468    0.0000 H   0  0  0  0  0  0  0  0  0  0  0  0
    9.2870   -0.4688    0.0000 H   0  0  0  0  0  0  0  0  0  0  0  0
    9.3772   -0.2410    0.0000 H   0  0  0  0  0  0  0  0  0  0  0  0
    7.1088   -1.5132    0.0000 H   0  0  0  0  0  0  0  0  0  0  0  0
    6.4440   -0.6748    0.0000 H   0  0  0  0  0  0  0  0  0  0  0  0
    6.5962   -0.8667    0.0000 H   0  0  0  0  0  0  0  0  0  0  0  0
    5.8116   -0.9080    0.0000 H   0  0  0  0  0  0  0  0  0  0  0  0
    5.1828   -1.0425    0.0000 H   0  0  0  0  0  0  0  0  0  0  0  0
    1.7077   -0.4812    0.0000 H   0  0  0  0  0  0  0  0  0  0  0  0
    1.3452    0.5765    0.0000 H   0  0  0  0  0  0  0  0  0  0  0  0
    2.9476    2.6526    0.0000 H   0  0  0  0  0  0  0  0  0  0  0  0
    3.8625    2.0098    0.0000 H   0  0  0  0  0  0  0  0  0  0  0  0
    4.7122    2.1392    0.0000 H   0  0  0  0  0  0  0  0  0  0  0  0
    0.6277    2.8242    0.0000 H   0  0  0  0  0  0  0  0  0  0  0  0
    2.1456   -0.7708    0.0000 H   0  0  0  0  0  0  0  0  0  0  0  0
    0.4052   -1.4186    0.0000 H   0  0  0  0  0  0  0  0  0  0  0  0
   -1.0259   -0.2351    0.0000 H   0  0  0  0  0  0  0  0  0  0  0  0
    7.7483    2.6215    0.0000 H   0  0  0  0  0  0  0  0  0  0  0  0
    8.8068    2.7780    0.0000 H   0  0  0  0  0  0  0  0  0  0  0  0
   10.4976   -3.1455    0.0000 H   0  0  0  0  0  0  0  0  0  0  0  0
    8.6606   -3.4172    0.0000 H   0  0  0  0  0  0  0  0  0  0  0  0
  1 44  1  0  0  0  0
  1 45  1  0  0  0  0
  1 46  1  0  0  0  0
  2  1  1  0  0  0  0
  2  3  1  0  0  0  0
  2 29  1  0  0  0  0
  2 47  1  1  0  0  0
  3  4  1  0  0  0  0
  3 35  1  0  0  0  0
  3 48  1  1  0  0  0
  4 49  1  0  0  0  0
  4 50  1  0  0  0  0
  5  4  1  0  0  0  0
  5  6  1  0  0  0  0
  5 27  1  0  0  0  0
  5 51  1  1  0  0  0
  6  7  1  0  0  0  0
  6 52  1  0  0  0  0
  7  8  2  0  0  0  0
  7  9  1  0  0  0  0
  9 10  2  0  0  0  0
  9 17  1  0  0  0  0
 10 11  1  0  0  0  0
 10 53  1  0  0  0  0
 11 12  2  0  0  0  0
 12 13  1  0  0  0  0
 12 16  1  0  0  0  0
 13 54  1  0  0  0  0
 13 55  1  0  0  0  0
 14 13  1  0  0  0  0
 14 15  1  0  0  0  0
 14 18  1  1  0  0  0
 14 22  1  0  0  0  0
 15 16  1  0  0  0  0
 15 56  1  0  0  0  0
 15 57  1  0  0  0  0
 16 17  2  0  0  0  0
 17 58  1  0  0  0  0
 18 19  2  0  0  0  0
 18 20  1  0  0  0  0
 20 21  1  0  0  0  0
 20 59  1  0  0  0  0
 21 22  2  0  0  0  0
 21 26  1  0  0  0  0
 22 23  1  0  0  0  0
 23 24  2  0  0  0  0
 23 60  1  0  0  0  0
 24 25  1  0  0  0  0
 24 61  1  0  0  0  0
 25 26  2  0  0  0  0
 25 62  1  0  0  0  0
 27 28  2  0  0  0  0
 27 29  1  0  0  0  0
 29 30  1  0  0  0  0
 30 31  1  0  0  0  0
 30 63  1  0  0  0  0
 30 64  1  0  0  0  0
 31 32  1  0  0  0  0
 31 33  1  0  0  0  0
 31 34  1  0  0  0  0
 35 36  2  0  0  0  0
 35 42  1  0  0  0  0
 36 37  1  0  0  0  0
 36 38  1  0  0  0  0
 38 39  1  0  0  0  0
 38 40  2  0  0  0  0
 40 41  1  0  0  0  0
 40 65  1  0  0  0  0
 41 42  2  0  0  0  0
 41 66  1  0  0  0  0
 42 43  1  0  0  0  0
M  END
>  <DRUGBANK_ID>
DB16098

>  <COMMON_NAME>
Atogepant

>  <CAS_NUMBER>
1374248-81-3

>  <UNII>
7CRV8RR151

>  <SYNONYMS>
Atogepant

$$$$
