
 OpenBabel10282417072D

 66 68  0  0  0  0  0  0  0  0999 V2000
   -1.5356   -1.7116    0.0000 C   0  0  0  0  0  0  0  0  0  0  0  0
   -0.8212   -1.2991    0.0000 C   0  0  1  0  0  0  0  0  0  0  0  0
   -0.8212   -0.4741    0.0000 C   0  0  0  0  0  0  0  0  0  0  0  0
   -0.1067   -0.0616    0.0000 C   0  0  0  0  0  0  0  0  0  0  0  0
    0.6078   -0.4741    0.0000 C   0  0  1  0  0  0  0  0  0  0  0  0
    0.6078   -1.2991    0.0000 C   0  0  0  0  0  0  0  0  0  0  0  0
   -0.1067   -1.7116    0.0000 C   0  0  0  0  0  0  0  0  0  0  0  0
    1.3222   -0.0616    0.0000 C   0  0  0  0  0  0  0  0  0  0  0  0
    1.3222    0.7634    0.0000 O   0  0  0  0  0  0  0  0  0  0  0  0
    2.0367   -0.4741    0.0000 N   0  0  0  0  0  0  0  0  0  0  0  0
    2.7512   -0.0616    0.0000 C   0  0  1  0  0  0  0  0  0  0  0  0
    2.7512    0.7634    0.0000 C   0  0  0  0  0  0  0  0  0  0  0  0
    3.4656    1.1759    0.0000 C   0  0  0  0  0  0  0  0  0  0  0  0
    4.1801    0.7634    0.0000 C   0  0  1  0  0  0  0  0  0  0  0  0
    4.1801   -0.0616    0.0000 C   0  0  0  0  0  0  0  0  0  0  0  0
    3.4656   -0.4741    0.0000 C   0  0  0  0  0  0  0  0  0  0  0  0
    4.8946    1.1759    0.0000 O   0  0  0  0  0  0  0  0  0  0  0  0
    2.0367   -1.2991    0.0000 C   0  0  0  0  0  0  0  0  0  0  0  0
    2.7041   -1.7840    0.0000 C   0  0  0  0  0  0  0  0  0  0  0  0
    2.4492   -2.5687    0.0000 S   0  0  0  0  0  0  0  0  0  0  0  0
    1.6242   -2.5687    0.0000 C   0  0  0  0  0  0  0  0  0  0  0  0
    1.3693   -1.7840    0.0000 C   0  0  0  0  0  0  0  0  0  0  0  0
    1.1393   -3.2361    0.0000 C   0  0  0  0  0  0  0  0  0  0  0  0
    0.6544   -3.9035    0.0000 C   0  0  0  0  0  0  0  0  0  0  0  0
    0.1694   -4.5710    0.0000 C   0  0  0  0  0  0  0  0  0  0  0  0
   -0.3155   -5.2384    0.0000 C   0  0  0  0  0  0  0  0  0  0  0  0
   -0.4980   -4.0860    0.0000 C   0  0  0  0  0  0  0  0  0  0  0  0
    0.8369   -5.0559    0.0000 C   0  0  0  0  0  0  0  0  0  0  0  0
    3.4888   -1.5291    0.0000 C   0  0  0  0  0  0  0  0  0  0  0  0
    4.1019   -2.0811    0.0000 O   0  0  0  0  0  0  0  0  0  0  0  0
    3.6603   -0.7221    0.0000 O   0  0  0  0  0  0  0  0  0  0  0  0
   -2.4623   -1.1766    0.0000 H   0  0  0  0  0  0  0  0  0  0  0  0
   -1.5356   -2.7816    0.0000 H   0  0  0  0  0  0  0  0  0  0  0  0
   -2.4622   -2.2466    0.0000 H   0  0  0  0  0  0  0  0  0  0  0  0
   -1.7479   -0.7641    0.0000 H   0  0  0  0  0  0  0  0  0  0  0  0
   -1.7478    0.0609    0.0000 H   0  0  0  0  0  0  0  0  0  0  0  0
   -0.8212    0.5959    0.0000 H   0  0  0  0  0  0  0  0  0  0  0  0
   -0.1067    1.0084    0.0000 H   0  0  0  0  0  0  0  0  0  0  0  0
    0.8199    0.4734    0.0000 H   0  0  0  0  0  0  0  0  0  0  0  0
    0.6078    0.5959    0.0000 H   0  0  0  0  0  0  0  0  0  0  0  0
    1.5344   -1.8341    0.0000 H   0  0  0  0  0  0  0  0  0  0  0  0
    0.6078   -2.3691    0.0000 H   0  0  0  0  0  0  0  0  0  0  0  0
   -0.1067   -2.7816    0.0000 H   0  0  0  0  0  0  0  0  0  0  0  0
   -1.0333   -2.2466    0.0000 H   0  0  0  0  0  0  0  0  0  0  0  0
    1.8246    0.4734    0.0000 H   0  0  0  0  0  0  0  0  0  0  0  0
    1.8245    1.2984    0.0000 H   0  0  0  0  0  0  0  0  0  0  0  0
    2.7512    1.8334    0.0000 H   0  0  0  0  0  0  0  0  0  0  0  0
    3.4656    2.2459    0.0000 H   0  0  0  0  0  0  0  0  0  0  0  0
    4.3922    1.7109    0.0000 H   0  0  0  0  0  0  0  0  0  0  0  0
    4.1801    1.8334    0.0000 H   0  0  0  0  0  0  0  0  0  0  0  0
    5.1067   -0.5966    0.0000 H   0  0  0  0  0  0  0  0  0  0  0  0
    4.1801   -1.1316    0.0000 H   0  0  0  0  0  0  0  0  0  0  0  0
    3.4656   -1.5441    0.0000 H   0  0  0  0  0  0  0  0  0  0  0  0
    2.5389   -1.0091    0.0000 H   0  0  0  0  0  0  0  0  0  0  0  0
    5.7346    0.6909    0.0000 H   0  0  0  0  0  0  0  0  0  0  0  0
    0.3878   -1.4651    0.0000 H   0  0  0  0  0  0  0  0  0  0  0  0
   -1.3796   -5.1265    0.0000 H   0  0  0  0  0  0  0  0  0  0  0  0
    0.1197   -6.2159    0.0000 H   0  0  0  0  0  0  0  0  0  0  0  0
   -0.9444   -6.1040    0.0000 H   0  0  0  0  0  0  0  0  0  0  0  0
   -0.3860   -3.0219    0.0000 H   0  0  0  0  0  0  0  0  0  0  0  0
   -1.4755   -4.5211    0.0000 H   0  0  0  0  0  0  0  0  0  0  0  0
   -1.3636   -3.4570    0.0000 H   0  0  0  0  0  0  0  0  0  0  0  0
    0.7251   -6.1200    0.0000 H   0  0  0  0  0  0  0  0  0  0  0  0
    1.8144   -4.6206    0.0000 H   0  0  0  0  0  0  0  0  0  0  0  0
    1.7026   -5.6848    0.0000 H   0  0  0  0  0  0  0  0  0  0  0  0
    4.5514   -0.4325    0.0000 H   0  0  0  0  0  0  0  0  0  0  0  0
  1 32  1  0  0  0  0
  1 33  1  0  0  0  0
  1 34  1  0  0  0  0
  2  1  1  0  0  0  0
  2  3  1  0  0  0  0
  2  7  1  0  0  0  0
  2 35  1  6  0  0  0
  3  4  1  0  0  0  0
  3 36  1  0  0  0  0
  3 37  1  0  0  0  0
  4  5  1  0  0  0  0
  4 38  1  0  0  0  0
  4 39  1  0  0  0  0
  5  6  1  0  0  0  0
  5  8  1  0  0  0  0
  5 40  1  1  0  0  0
  6  7  1  0  0  0  0
  6 41  1  0  0  0  0
  6 42  1  0  0  0  0
  7 43  1  0  0  0  0
  7 44  1  0  0  0  0
  8  9  2  0  0  0  0
  8 10  1  0  0  0  0
 10 18  1  0  0  0  0
 11 10  1  0  0  0  0
 11 12  1  0  0  0  0
 11 16  1  0  0  0  0
 11 45  1  6  0  0  0
 12 13  1  0  0  0  0
 12 46  1  0  0  0  0
 12 47  1  0  0  0  0
 13 14  1  0  0  0  0
 13 48  1  0  0  0  0
 13 49  1  0  0  0  0
 14 15  1  0  0  0  0
 14 17  1  0  0  0  0
 14 50  1  1  0  0  0
 15 16  1  0  0  0  0
 15 51  1  0  0  0  0
 15 52  1  0  0  0  0
 16 53  1  0  0  0  0
 16 54  1  0  0  0  0
 17 55  1  0  0  0  0
 18 19  2  0  0  0  0
 18 22  1  0  0  0  0
 19 20  1  0  0  0  0
 19 29  1  0  0  0  0
 20 21  1  0  0  0  0
 21 22  2  0  0  0  0
 21 23  1  0  0  0  0
 22 56  1  0  0  0  0
 23 24  3  0  0  0  0
 24 25  1  0  0  0  0
 25 26  1  0  0  0  0
 25 27  1  0  0  0  0
 25 28  1  0  0  0  0
 26 57  1  0  0  0  0
 26 58  1  0  0  0  0
 26 59  1  0  0  0  0
 27 60  1  0  0  0  0
 27 61  1  0  0  0  0
 27 62  1  0  0  0  0
 28 63  1  0  0  0  0
 28 64  1  0  0  0  0
 28 65  1  0  0  0  0
 29 30  2  0  0  0  0
 29 31  1  0  0  0  0
 31 66  1  0  0  0  0
M  END
>  <DRUGBANK_ID>
DB11954

>  <COMMON_NAME>
Lomibuvir

>  <CAS_NUMBER>
1026785-55-6

>  <UNII>
37L2LF4A2D

>  <SYNONYMS>
Lomibuvir

$$$$
