KJ2
 OpenBabel10282417072D

 43 45  0  0  0  0  0  0  0  0999 V2000
   -2.5227    1.5804    0.0000 C   0  0  0  0  0  0  0  0  0  0  0  0
   -1.7381    1.3254    0.0000 C   0  0  0  0  0  0  0  0  0  0  0  0
   -3.1358    1.0283    0.0000 C   0  0  0  0  0  0  0  0  0  0  0  0
   -2.9642    0.2214    0.0000 C   0  0  0  0  0  0  0  0  0  0  0  0
   -2.1796   -0.0336    0.0000 C   0  0  0  0  0  0  0  0  0  0  0  0
   -1.5665    0.5185    0.0000 C   0  0  0  0  0  0  0  0  0  0  0  0
   -3.5773   -0.3307    0.0000 O   0  0  0  0  0  0  0  0  0  0  0  0
   -2.6942    2.3874    0.0000 O   0  0  0  0  0  0  0  0  0  0  0  0
   -1.1250    1.8775    0.0000 Cl  0  0  0  0  0  0  0  0  0  0  0  0
   -2.0081   -0.8405    0.0000 C   0  0  0  0  0  0  0  0  0  0  0  0
   -1.2544   -1.1761    0.0000 C   0  0  0  0  0  0  0  0  0  0  0  0
   -2.1476   -2.1681    0.0000 N   0  0  0  0  0  0  0  0  0  0  0  0
   -1.3407   -1.9966    0.0000 C   0  0  0  0  0  0  0  0  0  0  0  0
   -2.5601   -1.4536    0.0000 N   0  0  0  0  0  0  0  0  0  0  0  0
   -0.5400   -0.7636    0.0000 C   0  0  0  0  0  0  0  0  0  0  0  0
   -0.5400    0.0614    0.0000 C   0  0  0  0  0  0  0  0  0  0  0  0
    0.1745    0.4739    0.0000 C   0  0  0  0  0  0  0  0  0  0  0  0
    0.8890   -0.7636    0.0000 C   0  0  0  0  0  0  0  0  0  0  0  0
    0.1745   -1.1761    0.0000 C   0  0  0  0  0  0  0  0  0  0  0  0
    0.8890    0.0614    0.0000 C   0  0  0  0  0  0  0  0  0  0  0  0
    1.6035    0.4739    0.0000 O   0  0  0  0  0  0  0  0  0  0  0  0
    2.3179    0.0614    0.0000 C   0  0  0  0  0  0  0  0  0  0  0  0
    3.0324    0.4739    0.0000 C   0  0  0  0  0  0  0  0  0  0  0  0
    3.7469    0.0614    0.0000 C   0  0  0  0  0  0  0  0  0  0  0  0
    4.4613    0.4739    0.0000 N   0  0  0  0  0  0  0  0  0  0  0  0
   -4.1173    1.3471    0.0000 H   0  0  0  0  0  0  0  0  0  0  0  0
   -0.5850    0.1997    0.0000 H   0  0  0  0  0  0  0  0  0  0  0  0
   -4.4685   -0.0412    0.0000 H   0  0  0  0  0  0  0  0  0  0  0  0
   -1.9978    3.0143    0.0000 H   0  0  0  0  0  0  0  0  0  0  0  0
   -0.5738   -2.6872    0.0000 H   0  0  0  0  0  0  0  0  0  0  0  0
   -3.5392   -1.3507    0.0000 H   0  0  0  0  0  0  0  0  0  0  0  0
   -1.4337    0.5774    0.0000 H   0  0  0  0  0  0  0  0  0  0  0  0
    0.1745    1.5059    0.0000 H   0  0  0  0  0  0  0  0  0  0  0  0
    1.7827   -1.2796    0.0000 H   0  0  0  0  0  0  0  0  0  0  0  0
    0.1745   -2.2081    0.0000 H   0  0  0  0  0  0  0  0  0  0  0  0
    2.3179   -1.0086    0.0000 H   0  0  0  0  0  0  0  0  0  0  0  0
    3.2445   -0.4736    0.0000 H   0  0  0  0  0  0  0  0  0  0  0  0
    3.0324    1.5439    0.0000 H   0  0  0  0  0  0  0  0  0  0  0  0
    3.9590    1.0089    0.0000 H   0  0  0  0  0  0  0  0  0  0  0  0
    3.7469   -1.0086    0.0000 H   0  0  0  0  0  0  0  0  0  0  0  0
    4.6736   -0.4736    0.0000 H   0  0  0  0  0  0  0  0  0  0  0  0
    5.3447   -0.0361    0.0000 H   0  0  0  0  0  0  0  0  0  0  0  0
    4.4613    1.4939    0.0000 H   0  0  0  0  0  0  0  0  0  0  0  0
  1  2  2  0  0  0  0
  1  3  1  0  0  0  0
  1  8  1  0  0  0  0
  2  6  1  0  0  0  0
  2  9  1  0  0  0  0
  3  4  2  0  0  0  0
  3 26  1  0  0  0  0
  4  5  1  0  0  0  0
  4  7  1  0  0  0  0
  5  6  2  0  0  0  0
  5 10  1  0  0  0  0
  6 27  1  0  0  0  0
  7 28  1  0  0  0  0
  8 29  1  0  0  0  0
 10 11  2  0  0  0  0
 10 14  1  0  0  0  0
 11 13  1  0  0  0  0
 11 15  1  0  0  0  0
 12 13  2  0  0  0  0
 12 14  1  0  0  0  0
 13 30  1  0  0  0  0
 14 31  1  0  0  0  0
 15 16  2  0  0  0  0
 15 19  1  0  0  0  0
 16 17  1  0  0  0  0
 16 32  1  0  0  0  0
 17 20  2  0  0  0  0
 17 33  1  0  0  0  0
 18 19  2  0  0  0  0
 18 20  1  0  0  0  0
 18 34  1  0  0  0  0
 19 35  1  0  0  0  0
 20 21  1  0  0  0  0
 21 22  1  0  0  0  0
 22 23  1  0  0  0  0
 22 36  1  0  0  0  0
 22 37  1  0  0  0  0
 23 24  1  0  0  0  0
 23 38  1  0  0  0  0
 23 39  1  0  0  0  0
 24 25  1  0  0  0  0
 24 40  1  0  0  0  0
 24 41  1  0  0  0  0
 25 42  1  0  0  0  0
 25 43  1  0  0  0  0
M  END
>  <DRUGBANK_ID>
DB08045

>  <COMMON_NAME>
4-{4-[4-(3-AMINOPROPOXY)PHENYL]-1H-PYRAZOL-5-YL}-6-CHLOROBENZENE-1,3-DIOL

$$$$
