
 OpenBabel10282417072D

 98101  0  0  0  0  0  0  0  0999 V2000
    0.6284   -0.0276    0.0000 C   0  0  1  0  0  0  0  0  0  0  0  0
    0.6327   -0.8527    0.0000 C   0  0  0  0  0  0  0  0  0  0  0  0
    1.3466    0.3826    0.0000 C   0  0  0  0  0  0  0  0  0  0  0  0
   -0.0854    0.3783    0.0000 N   0  0  0  0  0  0  0  0  0  0  0  0
    1.2140   -1.4385    0.0000 C   0  0  0  0  0  0  0  0  0  0  0  0
    2.0603   -0.0234    0.0000 C   0  0  1  0  0  0  0  0  0  0  0  0
   -0.7993   -0.0320    0.0000 C   0  0  0  0  0  0  0  0  0  0  0  0
    0.7951   -2.1480    0.0000 C   0  0  0  0  0  0  0  0  0  0  0  0
    2.0348   -1.4427    0.0000 C   0  0  0  0  0  0  0  0  0  0  0  0
    2.7700    0.3868    0.0000 C   0  0  2  0  0  0  0  0  0  0  0  0
    2.0648   -0.8484    0.0000 O   0  0  0  0  0  0  0  0  0  0  0  0
   -1.5131    0.3740    0.0000 C   0  0  1  0  0  0  0  0  0  0  0  0
   -0.7993   -0.8570    0.0000 O   0  0  0  0  0  0  0  0  0  0  0  0
    1.2055   -2.8618    0.0000 C   0  0  0  0  0  0  0  0  0  0  0  0
    2.4451   -2.1566    0.0000 C   0  0  0  0  0  0  0  0  0  0  0  0
    2.7700    1.2161    0.0000 C   0  0  0  0  0  0  0  0  0  0  0  0
    3.4838   -0.0190    0.0000 N   0  0  0  0  0  0  0  0  0  0  0  0
   -2.2312   -0.0362    0.0000 N   0  0  0  0  0  0  0  0  0  0  0  0
   -1.5175    1.3684    0.0000 C   0  0  0  0  0  0  0  0  0  0  0  0
    2.0262   -2.8661    0.0000 C   0  0  0  0  0  0  0  0  0  0  0  0
    2.0518    1.6307    0.0000 C   0  0  0  0  0  0  0  0  0  0  0  0
    4.2019    0.3911    0.0000 C   0  0  0  0  0  0  0  0  0  0  0  0
   -2.9453    0.3698    0.0000 C   0  0  0  0  0  0  0  0  0  0  0  0
   -0.7993    1.7830    0.0000 C   0  0  0  0  0  0  0  0  0  0  0  0
   -2.2356    1.7830    0.0000 C   0  0  0  0  0  0  0  0  0  0  0  0
    2.0518    2.4558    0.0000 C   0  0  0  0  0  0  0  0  0  0  0  0
    1.3423    1.2119    0.0000 C   0  0  0  0  0  0  0  0  0  0  0  0
    4.9159   -0.0149    0.0000 O   0  0  0  0  0  0  0  0  0  0  0  0
    4.1976    1.2205    0.0000 O   0  0  0  0  0  0  0  0  0  0  0  0
   -3.6547   -0.0405    0.0000 N   0  0  0  0  0  0  0  0  0  0  0  0
   -2.9453    1.1990    0.0000 O   0  0  0  0  0  0  0  0  0  0  0  0
    1.3380    2.8661    0.0000 C   0  0  0  0  0  0  0  0  0  0  0  0
    0.6242    1.6266    0.0000 C   0  0  0  0  0  0  0  0  0  0  0  0
    5.6298    0.3953    0.0000 C   0  0  0  0  0  0  0  0  0  0  0  0
   -4.3687    0.3654    0.0000 C   0  0  0  0  0  0  0  0  0  0  0  0
   -3.6547   -0.8655    0.0000 C   0  0  0  0  0  0  0  0  0  0  0  0
    0.6242    2.4516    0.0000 C   0  0  0  0  0  0  0  0  0  0  0  0
    6.3436   -0.0105    0.0000 C   0  0  0  0  0  0  0  0  0  0  0  0
   -5.0869   -0.0447    0.0000 C   0  0  0  0  0  0  0  0  0  0  0  0
    6.3394   -0.8356    0.0000 C   0  0  0  0  0  0  0  0  0  0  0  0
    7.1303    0.2373    0.0000 S   0  0  0  0  0  0  0  0  0  0  0  0
   -5.8820    0.1688    0.0000 N   0  0  0  0  0  0  0  0  0  0  0  0
   -5.0855   -0.8697    0.0000 C   0  0  0  0  0  0  0  0  0  0  0  0
    7.1217   -1.0921    0.0000 N   0  0  0  0  0  0  0  0  0  0  0  0
    7.6089   -0.4296    0.0000 C   0  0  0  0  0  0  0  0  0  0  0  0
   -6.3393   -0.5235    0.0000 C   0  0  0  0  0  0  0  0  0  0  0  0
   -5.8178   -1.1648    0.0000 S   0  0  0  0  0  0  0  0  0  0  0  0
   -7.1643   -0.5209    0.0000 C   0  0  0  0  0  0  0  0  0  0  0  0
   -7.6089    0.1716    0.0000 C   0  0  0  0  0  0  0  0  0  0  0  0
   -7.5405   -1.2604    0.0000 C   0  0  0  0  0  0  0  0  0  0  0  0
    1.5552   -0.5623    0.0000 H   0  0  0  0  0  0  0  0  0  0  0  0
   -0.3556   -1.2628    0.0000 H   0  0  0  0  0  0  0  0  0  0  0  0
    0.4223   -1.9018    0.0000 H   0  0  0  0  0  0  0  0  0  0  0  0
    1.3457    1.4526    0.0000 H   0  0  0  0  0  0  0  0  0  0  0  0
    2.2713    0.9210    0.0000 H   0  0  0  0  0  0  0  0  0  0  0  0
   -0.0877    1.3628    0.0000 H   0  0  0  0  0  0  0  0  0  0  0  0
    1.1368   -0.5639    0.0000 H   0  0  0  0  0  0  0  0  0  0  0  0
   -0.2369   -2.1420    0.0000 H   0  0  0  0  0  0  0  0  0  0  0  0
    2.5540   -0.5508    0.0000 H   0  0  0  0  0  0  0  0  0  0  0  0
    1.8432    0.9216    0.0000 H   0  0  0  0  0  0  0  0  0  0  0  0
    1.2274   -1.3380    0.0000 H   0  0  0  0  0  0  0  0  0  0  0  0
   -0.5894    0.9140    0.0000 H   0  0  0  0  0  0  0  0  0  0  0  0
    0.6864   -3.7537    0.0000 H   0  0  0  0  0  0  0  0  0  0  0  0
    3.4771   -2.1626    0.0000 H   0  0  0  0  0  0  0  0  0  0  0  0
    3.6966    1.7511    0.0000 H   0  0  0  0  0  0  0  0  0  0  0  0
    2.7700    2.2861    0.0000 H   0  0  0  0  0  0  0  0  0  0  0  0
    3.4848   -1.0035    0.0000 H   0  0  0  0  0  0  0  0  0  0  0  0
   -2.2302   -1.0207    0.0000 H   0  0  0  0  0  0  0  0  0  0  0  0
   -1.5175    2.4384    0.0000 H   0  0  0  0  0  0  0  0  0  0  0  0
    2.5355   -3.7637    0.0000 H   0  0  0  0  0  0  0  0  0  0  0  0
    0.1273    1.2479    0.0000 H   0  0  0  0  0  0  0  0  0  0  0  0
   -0.7992    2.8530    0.0000 H   0  0  0  0  0  0  0  0  0  0  0  0
    0.1274    2.3179    0.0000 H   0  0  0  0  0  0  0  0  0  0  0  0
   -2.2356    2.8530    0.0000 H   0  0  0  0  0  0  0  0  0  0  0  0
   -3.1622    1.2480    0.0000 H   0  0  0  0  0  0  0  0  0  0  0  0
   -3.1622    2.3180    0.0000 H   0  0  0  0  0  0  0  0  0  0  0  0
    2.9450    2.9727    0.0000 H   0  0  0  0  0  0  0  0  0  0  0  0
    1.3472    0.1799    0.0000 H   0  0  0  0  0  0  0  0  0  0  0  0
    1.3357    3.8981    0.0000 H   0  0  0  0  0  0  0  0  0  0  0  0
   -0.2696    1.1106    0.0000 H   0  0  0  0  0  0  0  0  0  0  0  0
    5.6273    1.4653    0.0000 H   0  0  0  0  0  0  0  0  0  0  0  0
    6.5540    0.9344    0.0000 H   0  0  0  0  0  0  0  0  0  0  0  0
   -4.3697    1.4354    0.0000 H   0  0  0  0  0  0  0  0  0  0  0  0
   -5.2943    0.9022    0.0000 H   0  0  0  0  0  0  0  0  0  0  0  0
   -4.5813   -1.4005    0.0000 H   0  0  0  0  0  0  0  0  0  0  0  0
   -2.7281   -1.4005    0.0000 H   0  0  0  0  0  0  0  0  0  0  0  0
   -3.6547   -1.9355    0.0000 H   0  0  0  0  0  0  0  0  0  0  0  0
   -0.2702    2.9665    0.0000 H   0  0  0  0  0  0  0  0  0  0  0  0
    5.5021   -1.4389    0.0000 H   0  0  0  0  0  0  0  0  0  0  0  0
   -4.2297   -1.4464    0.0000 H   0  0  0  0  0  0  0  0  0  0  0  0
    8.6409   -0.4356    0.0000 H   0  0  0  0  0  0  0  0  0  0  0  0
   -8.2330   -0.5745    0.0000 H   0  0  0  0  0  0  0  0  0  0  0  0
   -7.1182    1.1224    0.0000 H   0  0  0  0  0  0  0  0  0  0  0  0
   -8.6777    0.1212    0.0000 H   0  0  0  0  0  0  0  0  0  0  0  0
   -8.1870    1.0720    0.0000 H   0  0  0  0  0  0  0  0  0  0  0  0
   -8.6090   -1.3171    0.0000 H   0  0  0  0  0  0  0  0  0  0  0  0
   -6.9572   -2.1574    0.0000 H   0  0  0  0  0  0  0  0  0  0  0  0
   -8.0257   -2.2141    0.0000 H   0  0  0  0  0  0  0  0  0  0  0  0
  1  2  1  0  0  0  0
  1  3  1  0  0  0  0
  1  4  1  0  0  0  0
  1 51  1  1  0  0  0
  2  5  1  0  0  0  0
  2 52  1  0  0  0  0
  2 53  1  0  0  0  0
  3  6  1  0  0  0  0
  3 54  1  0  0  0  0
  3 55  1  0  0  0  0
  4  7  1  0  0  0  0
  4 56  1  0  0  0  0
  5  8  2  0  0  0  0
  5  9  1  0  0  0  0
  6 10  1  0  0  0  0
  6 11  1  0  0  0  0
  6 57  1  6  0  0  0
  7 12  1  0  0  0  0
  7 13  2  0  0  0  0
  8 14  1  0  0  0  0
  8 58  1  0  0  0  0
  9 15  2  0  0  0  0
  9 59  1  0  0  0  0
 10 16  1  0  0  0  0
 10 17  1  0  0  0  0
 10 60  1  1  0  0  0
 11 61  1  0  0  0  0
 12 18  1  0  0  0  0
 12 19  1  0  0  0  0
 12 62  1  6  0  0  0
 14 20  2  0  0  0  0
 14 63  1  0  0  0  0
 15 20  1  0  0  0  0
 15 64  1  0  0  0  0
 16 21  1  0  0  0  0
 16 65  1  0  0  0  0
 16 66  1  0  0  0  0
 17 22  1  0  0  0  0
 17 67  1  0  0  0  0
 18 23  1  0  0  0  0
 18 68  1  0  0  0  0
 19 24  1  0  0  0  0
 19 25  1  0  0  0  0
 19 69  1  0  0  0  0
 20 70  1  0  0  0  0
 21 26  2  0  0  0  0
 21 27  1  0  0  0  0
 22 28  1  0  0  0  0
 22 29  2  0  0  0  0
 23 30  1  0  0  0  0
 23 31  2  0  0  0  0
 24 71  1  0  0  0  0
 24 72  1  0  0  0  0
 24 73  1  0  0  0  0
 25 74  1  0  0  0  0
 25 75  1  0  0  0  0
 25 76  1  0  0  0  0
 26 32  1  0  0  0  0
 26 77  1  0  0  0  0
 27 33  2  0  0  0  0
 27 78  1  0  0  0  0
 28 34  1  0  0  0  0
 30 35  1  0  0  0  0
 30 36  1  0  0  0  0
 32 37  2  0  0  0  0
 32 79  1  0  0  0  0
 33 37  1  0  0  0  0
 33 80  1  0  0  0  0
 34 38  1  0  0  0  0
 34 81  1  0  0  0  0
 34 82  1  0  0  0  0
 35 39  1  0  0  0  0
 35 83  1  0  0  0  0
 35 84  1  0  0  0  0
 36 85  1  0  0  0  0
 36 86  1  0  0  0  0
 36 87  1  0  0  0  0
 37 88  1  0  0  0  0
 38 40  2  0  0  0  0
 38 41  1  0  0  0  0
 39 42  1  0  0  0  0
 39 43  2  0  0  0  0
 40 44  1  0  0  0  0
 40 89  1  0  0  0  0
 41 45  1  0  0  0  0
 42 46  2  0  0  0  0
 43 47  1  0  0  0  0
 43 90  1  0  0  0  0
 44 45  2  0  0  0  0
 45 91  1  0  0  0  0
 46 48  1  0  0  0  0
 46 47  1  0  0  0  0
 48 49  1  0  0  0  0
 48 50  1  0  0  0  0
 48 92  1  0  0  0  0
 49 93  1  0  0  0  0
 49 94  1  0  0  0  0
 49 95  1  0  0  0  0
 50 96  1  0  0  0  0
 50 97  1  0  0  0  0
 50 98  1  0  0  0  0
M  END
>  <DRUGBANK_ID>
DB00503

>  <SECONDARY_ACCESSION_NUMBERS>
APRD00312

>  <COMMON_NAME>
Ritonavir

>  <CAS_NUMBER>
155213-67-5

>  <UNII>
O3J8G9O825

>  <SYNONYMS>
Ritonavir; Ritonavirum

$$$$
