
 OpenBabel10282417072D

 32 34  0  0  0  0  0  0  0  0999 V2000
    0.6021    0.8513    0.0000 O   0  0  0  0  0  0  0  0  0  0  0  0
    2.5376   -0.0494    0.0000 O   0  0  0  0  0  0  0  0  0  0  0  0
    1.3876    2.9151    0.0000 O   0  0  0  0  0  0  0  0  0  0  0  0
   -0.6656   -2.9151    0.0000 O   0  0  0  0  0  0  0  0  0  0  0  0
    0.8295   -0.6012    0.0000 N   0  0  0  0  0  0  0  0  0  0  0  0
   -0.6656   -0.4400    0.0000 N   0  0  0  0  0  0  0  0  0  0  0  0
    0.8295   -1.9290    0.0000 N   0  0  0  0  0  0  0  0  0  0  0  0
   -1.3800   -1.6776    0.0000 N   0  0  0  0  0  0  0  0  0  0  0  0
   -2.0946   -0.4400    0.0000 N   0  0  0  0  0  0  0  0  0  0  0  0
    1.0858    0.1829    0.0000 C   0  0  1  0  0  0  0  0  0  0  0  0
    1.8709    0.4365    0.0000 C   0  0  1  0  0  0  0  0  0  0  0  0
    1.8723    1.2616    0.0000 C   0  0  0  0  0  0  0  0  0  0  0  0
    1.0881    1.5180    0.0000 C   0  0  1  0  0  0  0  0  0  0  0  0
    0.8345    2.3030    0.0000 C   0  0  0  0  0  0  0  0  0  0  0  0
    0.0488   -0.8526    0.0000 C   0  0  0  0  0  0  0  0  0  0  0  0
    1.3109   -1.2650    0.0000 C   0  0  0  0  0  0  0  0  0  0  0  0
    0.0488   -1.6776    0.0000 C   0  0  0  0  0  0  0  0  0  0  0  0
   -0.6656   -2.0901    0.0000 C   0  0  0  0  0  0  0  0  0  0  0  0
   -1.3800   -0.8526    0.0000 C   0  0  0  0  0  0  0  0  0  0  0  0
   -0.6656    0.0714    0.0000 H   0  0  0  0  0  0  0  0  0  0  0  0
   -2.5376   -0.6958    0.0000 H   0  0  0  0  0  0  0  0  0  0  0  0
   -2.0946    0.0714    0.0000 H   0  0  0  0  0  0  0  0  0  0  0  0
    2.4348   -1.0139    0.0000 H   0  0  0  0  0  0  0  0  0  0  0  0
    2.3360    2.7117    0.0000 H   0  0  0  0  0  0  0  0  0  0  0  0
    0.0287    0.0174    0.0000 H   0  0  0  0  0  0  0  0  0  0  0  0
    1.7018   -0.6201    0.0000 H   0  0  0  0  0  0  0  0  0  0  0  0
    2.7391    1.8890    0.0000 H   0  0  0  0  0  0  0  0  0  0  0  0
    1.7068    2.3187    0.0000 H   0  0  0  0  0  0  0  0  0  0  0  0
    0.0315    1.6871    0.0000 H   0  0  0  0  0  0  0  0  0  0  0  0
   -0.2117    2.5273    0.0000 H   0  0  0  0  0  0  0  0  0  0  0  0
    0.1172    1.5091    0.0000 H   0  0  0  0  0  0  0  0  0  0  0  0
    2.3429   -1.2649    0.0000 H   0  0  0  0  0  0  0  0  0  0  0  0
  1 10  1  0  0  0  0
  1 13  1  0  0  0  0
  2 23  1  0  0  0  0
  3 14  1  0  0  0  0
  3 24  1  0  0  0  0
  4 18  2  0  0  0  0
  5 15  1  0  0  0  0
  5 16  1  0  0  0  0
  6 15  1  0  0  0  0
  6 19  1  0  0  0  0
  6 20  1  0  0  0  0
  7 16  2  0  0  0  0
  7 17  1  0  0  0  0
  8 18  1  0  0  0  0
  8 19  2  0  0  0  0
  9 19  1  0  0  0  0
  9 21  1  0  0  0  0
  9 22  1  0  0  0  0
 10  5  1  0  0  0  0
 10 11  1  0  0  0  0
 10 25  1  1  0  0  0
 11  2  1  0  0  0  0
 11 12  1  0  0  0  0
 11 26  1  6  0  0  0
 12 13  1  0  0  0  0
 12 27  1  0  0  0  0
 12 28  1  0  0  0  0
 13 14  1  0  0  0  0
 13 29  1  1  0  0  0
 14 30  1  0  0  0  0
 14 31  1  0  0  0  0
 15 17  2  0  0  0  0
 16 32  1  0  0  0  0
 17 18  1  0  0  0  0
M  END
>  <DRUGBANK_ID>
DB03609

>  <SECONDARY_ACCESSION_NUMBERS>
EXPT00167

>  <COMMON_NAME>
3'-deoxyguanosine

>  <CAS_NUMBER>
3608-58-0

$$$$
