
 OpenBabel10282417072D

 57 60  0  0  0  0  0  0  0  0999 V2000
   -1.7616   -0.7461    0.0000 C   0  0  0  0  0  0  0  0  0  0  0  0
   -2.4761   -1.1586    0.0000 C   0  0  0  0  0  0  0  0  0  0  0  0
   -1.7616   -2.3962    0.0000 C   0  0  0  0  0  0  0  0  0  0  0  0
   -1.0472   -1.9837    0.0000 C   0  0  0  0  0  0  0  0  0  0  0  0
   -0.3327   -2.3962    0.0000 C   0  0  0  0  0  0  0  0  0  0  0  0
    0.3816   -1.9837    0.0000 C   0  0  0  0  0  0  0  0  0  0  0  0
    0.3816    0.4913    0.0000 C   0  0  0  0  0  0  0  0  0  0  0  0
    1.8807   -1.0010    0.0000 C   0  0  0  0  0  0  0  0  0  0  0  0
   -2.4761   -1.9837    0.0000 C   0  0  0  0  0  0  0  0  0  0  0  0
   -3.1906   -2.3962    0.0000 O   0  0  0  0  0  0  0  0  0  0  0  0
    1.8807    0.3337    0.0000 C   0  0  2  0  0  0  0  0  0  0  0  0
    2.5952    0.7462    0.0000 O   0  0  0  0  0  0  0  0  0  0  0  0
    2.3656   -0.3336    0.0000 C   0  0  2  0  0  0  0  0  0  0  0  0
    3.1906   -0.3336    0.0000 C   0  0  0  0  0  0  0  0  0  0  0  0
   -1.0472   -1.1586    0.0000 C   0  0  2  0  0  0  0  0  0  0  0  0
   -1.0472   -0.3336    0.0000 C   0  0  0  0  0  0  0  0  0  0  0  0
    1.0961    0.0788    0.0000 C   0  0  1  0  0  0  0  0  0  0  0  0
    1.0961    0.9038    0.0000 C   0  0  0  0  0  0  0  0  0  0  0  0
    1.0961   -0.7461    0.0000 C   0  0  2  0  0  0  0  0  0  0  0  0
    1.0961   -1.5711    0.0000 H   0  0  0  0  0  0  0  0  0  0  0  0
   -0.3327   -0.7461    0.0000 C   0  0  1  0  0  0  0  0  0  0  0  0
   -0.3327   -1.5711    0.0000 F   0  0  0  0  0  0  0  0  0  0  0  0
   -0.3327    0.0788    0.0000 C   0  0  1  0  0  0  0  0  0  0  0  0
   -1.0472    0.4913    0.0000 O   0  0  0  0  0  0  0  0  0  0  0  0
    1.8807    1.1587    0.0000 C   0  0  0  0  0  0  0  0  0  0  0  0
    2.5952    1.5712    0.0000 O   0  0  0  0  0  0  0  0  0  0  0  0
    0.3816   -1.1586    0.0000 C   0  0  1  0  0  0  0  0  0  0  0  0
    0.3816   -0.3336    0.0000 H   0  0  0  0  0  0  0  0  0  0  0  0
    1.1663    1.5712    0.0000 C   0  0  0  0  0  0  0  0  0  0  0  0
    1.1663    2.3962    0.0000 O   0  0  0  0  0  0  0  0  0  0  0  0
   -1.7616    0.2859    0.0000 H   0  0  0  0  0  0  0  0  0  0  0  0
   -3.3698   -0.6426    0.0000 H   0  0  0  0  0  0  0  0  0  0  0  0
   -1.7616   -3.4282    0.0000 H   0  0  0  0  0  0  0  0  0  0  0  0
   -0.3326   -3.4662    0.0000 H   0  0  0  0  0  0  0  0  0  0  0  0
    0.5940   -2.9311    0.0000 H   0  0  0  0  0  0  0  0  0  0  0  0
    1.3083   -2.5187    0.0000 H   0  0  0  0  0  0  0  0  0  0  0  0
    1.3082   -1.4487    0.0000 H   0  0  0  0  0  0  0  0  0  0  0  0
    0.3815    1.5613    0.0000 H   0  0  0  0  0  0  0  0  0  0  0  0
    1.3082    1.0263    0.0000 H   0  0  0  0  0  0  0  0  0  0  0  0
    2.2114   -2.0186    0.0000 H   0  0  0  0  0  0  0  0  0  0  0  0
    2.9375   -1.1684    0.0000 H   0  0  0  0  0  0  0  0  0  0  0  0
    3.4352    0.2612    0.0000 H   0  0  0  0  0  0  0  0  0  0  0  0
    2.8513    0.6198    0.0000 H   0  0  0  0  0  0  0  0  0  0  0  0
    3.7256   -1.2602    0.0000 H   0  0  0  0  0  0  0  0  0  0  0  0
    3.7256    0.5930    0.0000 H   0  0  0  0  0  0  0  0  0  0  0  0
    4.2606   -0.3336    0.0000 H   0  0  0  0  0  0  0  0  0  0  0  0
   -0.1206    0.2014    0.0000 H   0  0  0  0  0  0  0  0  0  0  0  0
   -1.9738    0.2014    0.0000 H   0  0  0  0  0  0  0  0  0  0  0  0
   -1.0472    0.7364    0.0000 H   0  0  0  0  0  0  0  0  0  0  0  0
    2.0227    1.4388    0.0000 H   0  0  0  0  0  0  0  0  0  0  0  0
    0.1695    1.4388    0.0000 H   0  0  0  0  0  0  0  0  0  0  0  0
    1.0961    1.9738    0.0000 H   0  0  0  0  0  0  0  0  0  0  0  0
   -1.2593   -0.4562    0.0000 H   0  0  0  0  0  0  0  0  0  0  0  0
   -1.0472    1.4613    0.0000 H   0  0  0  0  0  0  0  0  0  0  0  0
    0.2396    1.0362    0.0000 H   0  0  0  0  0  0  0  0  0  0  0  0
    0.2397    2.1062    0.0000 H   0  0  0  0  0  0  0  0  0  0  0  0
    2.0063    2.8812    0.0000 H   0  0  0  0  0  0  0  0  0  0  0  0
  1  2  2  0  0  0  0
  1 15  1  0  0  0  0
  1 31  1  0  0  0  0
  2  9  1  0  0  0  0
  2 32  1  0  0  0  0
  3  4  2  0  0  0  0
  3 33  1  0  0  0  0
  4  5  1  0  0  0  0
  5  6  1  0  0  0  0
  5 34  1  0  0  0  0
  5 35  1  0  0  0  0
  6 27  1  0  0  0  0
  6 36  1  0  0  0  0
  6 37  1  0  0  0  0
  7 23  1  0  0  0  0
  7 17  1  0  0  0  0
  7 38  1  0  0  0  0
  7 39  1  0  0  0  0
  8 13  1  0  0  0  0
  8 40  1  0  0  0  0
  8 41  1  0  0  0  0
  9  3  1  0  0  0  0
  9 10  2  0  0  0  0
 11 17  1  0  0  0  0
 11 13  1  0  0  0  0
 11 25  1  1  0  0  0
 11 12  1  0  0  0  0
 12 42  1  0  0  0  0
 13 14  1  0  0  0  0
 13 43  1  1  0  0  0
 14 44  1  0  0  0  0
 14 45  1  0  0  0  0
 14 46  1  0  0  0  0
 15  4  1  0  0  0  0
 15 16  1  1  0  0  0
 16 47  1  0  0  0  0
 16 48  1  0  0  0  0
 16 49  1  0  0  0  0
 17 19  1  0  0  0  0
 17 18  1  1  0  0  0
 18 50  1  0  0  0  0
 18 51  1  0  0  0  0
 18 52  1  0  0  0  0
 19  8  1  0  0  0  0
 19 20  1  6  0  0  0
 21 15  1  0  0  0  0
 21 27  1  0  0  0  0
 21 22  1  6  0  0  0
 23 21  1  0  0  0  0
 23 24  1  0  0  0  0
 23 53  1  6  0  0  0
 24 54  1  0  0  0  0
 25 29  1  0  0  0  0
 25 26  2  0  0  0  0
 27 19  1  0  0  0  0
 27 28  1  1  0  0  0
 29 30  1  0  0  0  0
 29 55  1  0  0  0  0
 29 56  1  0  0  0  0
 30 57  1  0  0  0  0
M  END
>  <DRUGBANK_ID>
DB01234

>  <SECONDARY_ACCESSION_NUMBERS>
APRD00674

>  <COMMON_NAME>
Dexamethasone

>  <CAS_NUMBER>
50-02-2

>  <UNII>
7S5I7G3JQL

>  <SYNONYMS>
1-Dehydro-16alpha-methyl-9alpha-fluorohydrocortisone; 1-Dehydro-16α-methyl-9α-fluorohydrocortisone; 16alpha-Methyl-9alpha-fluoro-1-dehydrocortisol; 16α-Methyl-9α-fluoro-1-dehydrocortisol; 9alpha-Fluoro-16alpha-methylprednisolone; 9α-Fluoro-16α-methylprednisolone; Dexametasona; Dexaméthasone; Dexamethasone; Dexamethasonum

$$$$
