
 OpenBabel10282417072D

 21 20  0  0  0  0  0  0  0  0999 V2000
    0.0000    0.8250    0.0000 C   0  0  0  0  0  0  0  0  0  0  0  0
   -0.7145    1.2375    0.0000 O   0  0  0  0  0  0  0  0  0  0  0  0
    0.7145    1.2375    0.0000 O   0  0  0  0  0  0  0  0  0  0  0  0
    1.4289    0.0000    0.0000 C   0  0  0  0  0  0  0  0  0  0  0  0
    1.4289    0.8250    0.0000 O   0  0  0  0  0  0  0  0  0  0  0  0
    2.1434   -0.4125    0.0000 O   0  0  0  0  0  0  0  0  0  0  0  0
   -1.4290    0.8250    0.0000 O   0  0  0  0  0  0  0  0  0  0  0  0
   -1.4290    0.0000    0.0000 C   0  0  0  0  0  0  0  0  0  0  0  0
   -2.1434   -0.4125    0.0000 O   0  0  0  0  0  0  0  0  0  0  0  0
   -0.7145   -0.4125    0.0000 C   0  0  0  0  0  0  0  0  0  0  0  0
    0.7145   -0.4125    0.0000 C   0  0  0  0  0  0  0  0  0  0  0  0
    0.0000    0.0000    0.0000 C   0  0  0  0  0  0  0  0  0  0  0  0
    0.0000   -0.8250    0.0000 O   0  0  0  0  0  0  0  0  0  0  0  0
    1.5260    0.7690    0.0000 H   0  0  0  0  0  0  0  0  0  0  0  0
    2.1434   -1.3495    0.0000 H   0  0  0  0  0  0  0  0  0  0  0  0
   -2.9549    0.0560    0.0000 H   0  0  0  0  0  0  0  0  0  0  0  0
   -0.7145   -1.4825    0.0000 H   0  0  0  0  0  0  0  0  0  0  0  0
    0.2121   -0.9475    0.0000 H   0  0  0  0  0  0  0  0  0  0  0  0
    0.7145   -1.4825    0.0000 H   0  0  0  0  0  0  0  0  0  0  0  0
   -0.2121   -0.9475    0.0000 H   0  0  0  0  0  0  0  0  0  0  0  0
   -0.8400   -1.3100    0.0000 H   0  0  0  0  0  0  0  0  0  0  0  0
  1 12  1  0  0  0  0
  2  1  2  0  0  0  0
  3  1  1  0  0  0  0
  3 14  1  0  0  0  0
  4 11  1  0  0  0  0
  5  4  2  0  0  0  0
  6  4  1  0  0  0  0
  6 15  1  0  0  0  0
  8  7  2  0  0  0  0
  8  9  1  0  0  0  0
  9 16  1  0  0  0  0
 10  8  1  0  0  0  0
 10 17  1  0  0  0  0
 10 18  1  0  0  0  0
 11 12  1  0  0  0  0
 11 19  1  0  0  0  0
 11 20  1  0  0  0  0
 12 10  1  0  0  0  0
 12 13  1  0  0  0  0
 13 21  1  0  0  0  0
M  END
>  <DRUGBANK_ID>
DB04272

>  <SECONDARY_ACCESSION_NUMBERS>
EXPT00922

>  <COMMON_NAME>
Citric acid

>  <CAS_NUMBER>
77-92-9

>  <UNII>
XF417D3PSL

>  <SYNONYMS>
2-hydroxy-1,2,3-propanetricarboxyic acid; 2-Hydroxytricarballylic acid; 3-carboxy-3-hydroxypentane-1,5-dioic acid; ácido cítrico; Acidum citricum; Anhydrous citric acid; Citric acid monoglyceride; Citric acid, anhydrous; Citric acid,anhydrous; Citronensäure

$$$$
