
 OpenBabel10282417072D

 21 22  0  0  0  0  0  0  0  0999 V2000
   13.7720   -7.8522    0.0000 C   0  0  0  0  0  0  0  0  0  0  0  0
   13.7720   -7.0273    0.0000 C   0  0  0  0  0  0  0  0  0  0  0  0
   13.0575   -8.2647    0.0000 C   0  0  0  0  0  0  0  0  0  0  0  0
   13.0575   -6.6148    0.0000 C   0  0  0  0  0  0  0  0  0  0  0  0
   12.3431   -7.8522    0.0000 C   0  0  0  0  0  0  0  0  0  0  0  0
   12.3431   -7.0273    0.0000 C   0  0  0  0  0  0  0  0  0  0  0  0
   15.2008   -7.0272    0.0000 N   0  0  0  0  0  0  0  0  0  0  0  0
   15.2009   -7.8521    0.0000 C   0  0  0  0  0  0  0  0  0  0  0  0
   14.4864   -8.2647    0.0000 N   0  0  0  0  0  0  0  0  0  0  0  0
   11.6200   -6.6098    0.0000 C   0  0  0  0  0  0  0  0  0  0  0  0
   11.6200   -8.2697    0.0000 C   0  0  0  0  0  0  0  0  0  0  0  0
   13.0575   -9.2967    0.0000 H   0  0  0  0  0  0  0  0  0  0  0  0
   13.0575   -5.5828    0.0000 H   0  0  0  0  0  0  0  0  0  0  0  0
   16.0947   -8.3680    0.0000 H   0  0  0  0  0  0  0  0  0  0  0  0
   14.4864   -9.2492    0.0000 H   0  0  0  0  0  0  0  0  0  0  0  0
   11.6200   -5.5398    0.0000 H   0  0  0  0  0  0  0  0  0  0  0  0
   10.6933   -7.1448    0.0000 H   0  0  0  0  0  0  0  0  0  0  0  0
   10.6934   -6.0748    0.0000 H   0  0  0  0  0  0  0  0  0  0  0  0
   10.6933   -7.7347    0.0000 H   0  0  0  0  0  0  0  0  0  0  0  0
   11.6200   -9.3397    0.0000 H   0  0  0  0  0  0  0  0  0  0  0  0
   10.6934   -8.8047    0.0000 H   0  0  0  0  0  0  0  0  0  0  0  0
  1  3  1  0  0  0  0
  1  2  2  0  0  0  0
  1  9  1  0  0  0  0
  2  4  1  0  0  0  0
  2  7  1  0  0  0  0
  3  5  2  0  0  0  0
  3 12  1  0  0  0  0
  4  6  2  0  0  0  0
  4 13  1  0  0  0  0
  5  6  1  0  0  0  0
  8  7  2  0  0  0  0
  8 14  1  0  0  0  0
  9  8  1  0  0  0  0
  9 15  1  0  0  0  0
 10  6  1  0  0  0  0
 10 16  1  0  0  0  0
 10 17  1  0  0  0  0
 10 18  1  0  0  0  0
 11  5  1  0  0  0  0
 11 19  1  0  0  0  0
 11 20  1  0  0  0  0
 11 21  1  0  0  0  0
M  END
>  <DRUGBANK_ID>
DB02591

>  <SECONDARY_ACCESSION_NUMBERS>
EXPT01222

>  <COMMON_NAME>
5,6-Dimethylbenzimidazole

>  <CAS_NUMBER>
582-60-5

>  <UNII>
553XI1DS20

$$$$
