IAG
 OpenBabel10282417072D

 29 30  0  0  0  0  0  0  0  0999 V2000
   -3.7692    0.1976    0.0000 O   0  0  0  0  0  0  0  0  0  0  0  0
   -3.0548   -0.2149    0.0000 C   0  0  0  0  0  0  0  0  0  0  0  0
   -3.0548   -1.0399    0.0000 O   0  0  0  0  0  0  0  0  0  0  0  0
   -2.3403    0.1976    0.0000 C   0  0  0  0  0  0  0  0  0  0  0  0
   -1.6258   -0.2149    0.0000 N   0  0  0  0  0  0  0  0  0  0  0  0
   -0.9114    0.1976    0.0000 C   0  0  0  0  0  0  0  0  0  0  0  0
   -0.9114    1.0226    0.0000 O   0  0  0  0  0  0  0  0  0  0  0  0
   -0.1969   -0.2149    0.0000 C   0  0  0  0  0  0  0  0  0  0  0  0
    0.5176    0.1976    0.0000 C   0  0  0  0  0  0  0  0  0  0  0  0
    0.6038    1.0181    0.0000 C   0  0  0  0  0  0  0  0  0  0  0  0
    1.4108    1.1896    0.0000 N   0  0  0  0  0  0  0  0  0  0  0  0
    1.2713   -0.1379    0.0000 C   0  0  0  0  0  0  0  0  0  0  0  0
    1.8233    0.4752    0.0000 C   0  0  0  0  0  0  0  0  0  0  0  0
    2.6303    0.3037    0.0000 C   0  0  0  0  0  0  0  0  0  0  0  0
    2.8852   -0.4810    0.0000 C   0  0  0  0  0  0  0  0  0  0  0  0
    2.3332   -1.0941    0.0000 C   0  0  0  0  0  0  0  0  0  0  0  0
    1.5262   -0.9225    0.0000 C   0  0  0  0  0  0  0  0  0  0  0  0
   -3.7692    1.1346    0.0000 H   0  0  0  0  0  0  0  0  0  0  0  0
   -2.3403    1.2676    0.0000 H   0  0  0  0  0  0  0  0  0  0  0  0
   -1.4137    0.7326    0.0000 H   0  0  0  0  0  0  0  0  0  0  0  0
   -1.6258   -1.1994    0.0000 H   0  0  0  0  0  0  0  0  0  0  0  0
   -0.1969   -1.2849    0.0000 H   0  0  0  0  0  0  0  0  0  0  0  0
    0.7297   -0.7499    0.0000 H   0  0  0  0  0  0  0  0  0  0  0  0
   -0.1631    1.7086    0.0000 H   0  0  0  0  0  0  0  0  0  0  0  0
    1.8112    2.0890    0.0000 H   0  0  0  0  0  0  0  0  0  0  0  0
    3.3209    1.0706    0.0000 H   0  0  0  0  0  0  0  0  0  0  0  0
    3.8946   -0.6956    0.0000 H   0  0  0  0  0  0  0  0  0  0  0  0
    2.6521   -2.0756    0.0000 H   0  0  0  0  0  0  0  0  0  0  0  0
    0.8356   -1.6894    0.0000 H   0  0  0  0  0  0  0  0  0  0  0  0
  1  2  1  0  0  0  0
  1 18  1  0  0  0  0
  2  3  2  0  0  0  0
  2  4  1  0  0  0  0
  4  5  1  0  0  0  0
  4 19  1  0  0  0  0
  4 20  1  0  0  0  0
  5  6  1  0  0  0  0
  5 21  1  0  0  0  0
  6  7  2  0  0  0  0
  6  8  1  0  0  0  0
  8  9  1  0  0  0  0
  8 22  1  0  0  0  0
  8 23  1  0  0  0  0
  9 10  2  0  0  0  0
  9 12  1  0  0  0  0
 10 11  1  0  0  0  0
 10 24  1  0  0  0  0
 11 13  1  0  0  0  0
 11 25  1  0  0  0  0
 12 13  2  0  0  0  0
 12 17  1  0  0  0  0
 13 14  1  0  0  0  0
 14 15  2  0  0  0  0
 14 26  1  0  0  0  0
 15 16  1  0  0  0  0
 15 27  1  0  0  0  0
 16 17  2  0  0  0  0
 16 28  1  0  0  0  0
 17 29  1  0  0  0  0
M  END
>  <DRUGBANK_ID>
DB07952

>  <COMMON_NAME>
N-[1H-INDOL-3-YL-ACETYL]GLYCINE ACID

$$$$
