2RD
 OpenBabel10282417072D

 48 48  0  0  0  0  0  0  0  0999 V2000
   -3.8870    0.2242    0.0000 C   0  0  0  0  0  0  0  0  0  0  0  0
   -3.1724   -0.1883    0.0000 C   0  0  0  0  0  0  0  0  0  0  0  0
   -2.4579    0.2242    0.0000 C   0  0  0  0  0  0  0  0  0  0  0  0
   -1.7434   -0.1883    0.0000 C   0  0  0  0  0  0  0  0  0  0  0  0
   -1.0289    0.2242    0.0000 C   0  0  0  0  0  0  0  0  0  0  0  0
   -0.3143   -0.1883    0.0000 C   0  0  0  0  0  0  0  0  0  0  0  0
    0.4001    0.2242    0.0000 C   0  0  0  0  0  0  0  0  0  0  0  0
    1.1147   -0.1883    0.0000 C   0  0  0  0  0  0  0  0  0  0  0  0
    1.8292    0.2242    0.0000 C   0  0  0  0  0  0  0  0  0  0  0  0
    2.5438   -0.1883    0.0000 C   0  0  0  0  0  0  0  0  0  0  0  0
    3.2582    0.2242    0.0000 C   0  0  0  0  0  0  0  0  0  0  0  0
    3.9728   -0.1883    0.0000 C   0  0  0  0  0  0  0  0  0  0  0  0
    4.6873    0.2242    0.0000 S   0  0  0  0  0  0  0  0  0  0  0  0
    5.4018   -0.1883    0.0000 C   0  0  0  0  0  0  0  0  0  0  0  0
    5.4881   -1.0089    0.0000 N   0  0  0  0  0  0  0  0  0  0  0  0
    6.2952   -1.1804    0.0000 N   0  0  0  0  0  0  0  0  0  0  0  0
    6.7077   -0.4658    0.0000 N   0  0  0  0  0  0  0  0  0  0  0  0
    6.1556    0.1473    0.0000 C   0  0  0  0  0  0  0  0  0  0  0  0
    6.3271    0.9543    0.0000 C   0  0  0  0  0  0  0  0  0  0  0  0
    5.7140    1.5064    0.0000 O   0  0  0  0  0  0  0  0  0  0  0  0
    7.1118    1.2093    0.0000 O   0  0  0  0  0  0  0  0  0  0  0  0
   -3.8871    1.2942    0.0000 H   0  0  0  0  0  0  0  0  0  0  0  0
   -4.8136   -0.3109    0.0000 H   0  0  0  0  0  0  0  0  0  0  0  0
   -4.8137    0.7591    0.0000 H   0  0  0  0  0  0  0  0  0  0  0  0
   -3.1724   -1.2583    0.0000 H   0  0  0  0  0  0  0  0  0  0  0  0
   -2.2457   -0.7233    0.0000 H   0  0  0  0  0  0  0  0  0  0  0  0
   -2.4579    1.2942    0.0000 H   0  0  0  0  0  0  0  0  0  0  0  0
   -1.5313    0.7592    0.0000 H   0  0  0  0  0  0  0  0  0  0  0  0
   -1.7434   -1.2583    0.0000 H   0  0  0  0  0  0  0  0  0  0  0  0
   -0.8168   -0.7233    0.0000 H   0  0  0  0  0  0  0  0  0  0  0  0
   -1.0289    1.2942    0.0000 H   0  0  0  0  0  0  0  0  0  0  0  0
   -0.1023    0.7593    0.0000 H   0  0  0  0  0  0  0  0  0  0  0  0
   -0.3142   -1.2583    0.0000 H   0  0  0  0  0  0  0  0  0  0  0  0
    0.6124   -0.7233    0.0000 H   0  0  0  0  0  0  0  0  0  0  0  0
    0.4000    1.2942    0.0000 H   0  0  0  0  0  0  0  0  0  0  0  0
    1.3267    0.7593    0.0000 H   0  0  0  0  0  0  0  0  0  0  0  0
    1.1147   -1.2583    0.0000 H   0  0  0  0  0  0  0  0  0  0  0  0
    2.0414   -0.7233    0.0000 H   0  0  0  0  0  0  0  0  0  0  0  0
    1.8292    1.2942    0.0000 H   0  0  0  0  0  0  0  0  0  0  0  0
    2.7558    0.7593    0.0000 H   0  0  0  0  0  0  0  0  0  0  0  0
    2.5439   -1.2583    0.0000 H   0  0  0  0  0  0  0  0  0  0  0  0
    3.4705   -0.7233    0.0000 H   0  0  0  0  0  0  0  0  0  0  0  0
    3.2581    1.2942    0.0000 H   0  0  0  0  0  0  0  0  0  0  0  0
    4.1848    0.7593    0.0000 H   0  0  0  0  0  0  0  0  0  0  0  0
    3.9728   -1.2583    0.0000 H   0  0  0  0  0  0  0  0  0  0  0  0
    4.8995   -0.7233    0.0000 H   0  0  0  0  0  0  0  0  0  0  0  0
    4.7565   -1.6677    0.0000 H   0  0  0  0  0  0  0  0  0  0  0  0
    7.8082    0.5824    0.0000 H   0  0  0  0  0  0  0  0  0  0  0  0
  1  2  1  0  0  0  0
  1 22  1  0  0  0  0
  1 23  1  0  0  0  0
  1 24  1  0  0  0  0
  2  3  1  0  0  0  0
  2 25  1  0  0  0  0
  2 26  1  0  0  0  0
  3  4  1  0  0  0  0
  3 27  1  0  0  0  0
  3 28  1  0  0  0  0
  4  5  1  0  0  0  0
  4 29  1  0  0  0  0
  4 30  1  0  0  0  0
  5 31  1  0  0  0  0
  5 32  1  0  0  0  0
  6  5  1  0  0  0  0
  6  7  1  0  0  0  0
  6 33  1  0  0  0  0
  6 34  1  0  0  0  0
  7  8  1  0  0  0  0
  7 35  1  0  0  0  0
  7 36  1  0  0  0  0
  8 37  1  0  0  0  0
  8 38  1  0  0  0  0
  9  8  1  0  0  0  0
  9 10  1  0  0  0  0
  9 39  1  0  0  0  0
  9 40  1  0  0  0  0
 10 41  1  0  0  0  0
 10 42  1  0  0  0  0
 11 10  1  0  0  0  0
 11 12  1  0  0  0  0
 11 43  1  0  0  0  0
 11 44  1  0  0  0  0
 12 13  1  0  0  0  0
 12 45  1  0  0  0  0
 12 46  1  0  0  0  0
 13 14  1  0  0  0  0
 14 18  2  0  0  0  0
 14 15  1  0  0  0  0
 15 16  1  0  0  0  0
 15 47  1  0  0  0  0
 17 16  2  0  0  0  0
 18 17  1  0  0  0  0
 19 18  1  0  0  0  0
 19 21  1  0  0  0  0
 20 19  2  0  0  0  0
 21 48  1  0  0  0  0
M  END
>  <DRUGBANK_ID>
DB06979

>  <COMMON_NAME>
5-(dodecylthio)-1H-1,2,3-triazole-4-carboxylic acid

$$$$
