
 OpenBabel10282417072D

 86 91  0  0  1  0  0  0  0  0999 V2000
   -1.7514   -1.8746    0.0000 H   0  0  0  0  0  0  0  0  0  0  0  0
   -2.0063   -2.6593    0.0000 C   0  0  1  0  0  0  0  0  0  0  0  0
   -2.2613   -3.4439    0.0000 O   0  0  0  0  0  0  0  0  0  0  0  0
   -3.0682   -3.6154    0.0000 C   0  0  2  0  0  0  0  0  0  0  0  0
   -3.3232   -4.4000    0.0000 C   0  0  0  0  0  0  0  0  0  0  0  0
   -4.1302   -4.5716    0.0000 O   0  0  0  0  0  0  0  0  0  0  0  0
   -3.6203   -3.0023    0.0000 C   0  0  1  0  0  0  0  0  0  0  0  0
   -4.4272   -3.1738    0.0000 O   0  0  0  0  0  0  0  0  0  0  0  0
   -3.3653   -2.2177    0.0000 C   0  0  2  0  0  0  0  0  0  0  0  0
   -3.9174   -1.6046    0.0000 O   0  0  0  0  0  0  0  0  0  0  0  0
   -2.5584   -2.0462    0.0000 C   0  0  2  0  0  0  0  0  0  0  0  0
   -2.3034   -1.2615    0.0000 O   0  0  0  0  0  0  0  0  0  0  0  0
   -1.1994   -2.4877    0.0000 C   0  0  0  0  0  0  0  0  0  0  0  0
   -0.3924   -2.3162    0.0000 C   0  0  0  0  0  0  0  0  0  0  0  0
    0.4146   -2.1447    0.0000 C   0  0  0  0  0  0  0  0  0  0  0  0
    0.6695   -1.3601    0.0000 C   0  0  0  0  0  0  0  0  0  0  0  0
    1.4765   -1.1885    0.0000 C   0  0  0  0  0  0  0  0  0  0  0  0
    2.0285   -1.8016    0.0000 C   0  0  0  0  0  0  0  0  0  0  0  0
    2.8535   -1.8016    0.0000 C   0  0  0  0  0  0  0  0  0  0  0  0
    3.4056   -1.1885    0.0000 C   0  0  0  0  0  0  0  0  0  0  0  0
    4.2125   -1.3601    0.0000 C   0  0  0  0  0  0  0  0  0  0  0  0
    4.4675   -2.1447    0.0000 C   0  0  0  0  0  0  0  0  0  0  0  0
    3.9154   -2.7578    0.0000 C   0  0  0  0  0  0  0  0  0  0  0  0
    3.1085   -2.5862    0.0000 C   0  0  0  0  0  0  0  0  0  0  0  0
    2.4410   -3.0712    0.0000 C   0  0  0  0  0  0  0  0  0  0  0  0
    3.1555   -3.4837    0.0000 C   0  0  0  0  0  0  0  0  0  0  0  0
    3.1555   -4.3087    0.0000 C   0  0  0  0  0  0  0  0  0  0  0  0
    2.4410   -4.7212    0.0000 N   0  0  0  0  0  0  0  0  0  0  0  0
    1.7266   -4.3087    0.0000 C   0  0  0  0  0  0  0  0  0  0  0  0
    1.7266   -3.4837    0.0000 C   0  0  0  0  0  0  0  0  0  0  0  0
    2.4410   -5.5462    0.0000 C   0  0  0  0  0  0  0  0  0  0  0  0
    1.7266   -5.9587    0.0000 C   0  0  0  0  0  0  0  0  0  0  0  0
    3.1555   -5.9587    0.0000 O   0  0  0  0  0  0  0  0  0  0  0  0
    1.7736   -2.5862    0.0000 C   0  0  0  0  0  0  0  0  0  0  0  0
    0.9666   -2.7578    0.0000 C   0  0  0  0  0  0  0  0  0  0  0  0
    5.2744   -2.3162    0.0000 C   0  0  0  0  0  0  0  0  0  0  0  0
    6.0814   -2.4877    0.0000 C   0  0  0  0  0  0  0  0  0  0  0  0
    6.8884   -2.6593    0.0000 C   0  0  1  0  0  0  0  0  0  0  0  0
    6.3364   -3.2723    0.0000 H   0  0  0  0  0  0  0  0  0  0  0  0
    7.4404   -2.0462    0.0000 O   0  0  0  0  0  0  0  0  0  0  0  0
    8.2474   -2.2177    0.0000 C   0  0  2  0  0  0  0  0  0  0  0  0
    8.7994   -1.6046    0.0000 C   0  0  0  0  0  0  0  0  0  0  0  0
    8.5445   -0.8200    0.0000 O   0  0  0  0  0  0  0  0  0  0  0  0
    8.5023   -3.0023    0.0000 C   0  0  1  0  0  0  0  0  0  0  0  0
    9.3093   -3.1738    0.0000 O   0  0  0  0  0  0  0  0  0  0  0  0
    7.9503   -3.6154    0.0000 C   0  0  2  0  0  0  0  0  0  0  0  0
    8.2052   -4.4000    0.0000 O   0  0  0  0  0  0  0  0  0  0  0  0
    7.1433   -3.4439    0.0000 C   0  0  2  0  0  0  0  0  0  0  0  0
    6.5913   -4.0570    0.0000 O   0  0  0  0  0  0  0  0  0  0  0  0
   -2.3523   -4.4106    0.0000 H   0  0  0  0  0  0  0  0  0  0  0  0
   -2.6072   -5.1952    0.0000 H   0  0  0  0  0  0  0  0  0  0  0  0
   -3.6538   -5.4176    0.0000 H   0  0  0  0  0  0  0  0  0  0  0  0
   -4.7793   -3.8508    0.0000 H   0  0  0  0  0  0  0  0  0  0  0  0
   -3.9509   -4.0199    0.0000 H   0  0  0  0  0  0  0  0  0  0  0  0
   -5.0762   -2.4529    0.0000 H   0  0  0  0  0  0  0  0  0  0  0  0
   -4.4119   -2.4402    0.0000 H   0  0  0  0  0  0  0  0  0  0  0  0
   -3.6177   -0.6821    0.0000 H   0  0  0  0  0  0  0  0  0  0  0  0
   -3.2743   -1.2510    0.0000 H   0  0  0  0  0  0  0  0  0  0  0  0
   -1.3546   -1.0599    0.0000 H   0  0  0  0  0  0  0  0  0  0  0  0
   -0.0211   -0.5932    0.0000 H   0  0  0  0  0  0  0  0  0  0  0  0
    1.7954   -0.2070    0.0000 H   0  0  0  0  0  0  0  0  0  0  0  0
    3.0868   -0.2070    0.0000 H   0  0  0  0  0  0  0  0  0  0  0  0
    4.9031   -0.5932    0.0000 H   0  0  0  0  0  0  0  0  0  0  0  0
    4.2342   -3.7393    0.0000 H   0  0  0  0  0  0  0  0  0  0  0  0
    4.0821   -2.9487    0.0000 H   0  0  0  0  0  0  0  0  0  0  0  0
    4.0821   -4.0187    0.0000 H   0  0  0  0  0  0  0  0  0  0  0  0
    4.0821   -4.8437    0.0000 H   0  0  0  0  0  0  0  0  0  0  0  0
    3.1555   -5.3787    0.0000 H   0  0  0  0  0  0  0  0  0  0  0  0
    0.7999   -4.8437    0.0000 H   0  0  0  0  0  0  0  0  0  0  0  0
    0.8000   -3.7737    0.0000 H   0  0  0  0  0  0  0  0  0  0  0  0
    0.7999   -2.9487    0.0000 H   0  0  0  0  0  0  0  0  0  0  0  0
    1.7266   -2.4137    0.0000 H   0  0  0  0  0  0  0  0  0  0  0  0
    0.7999   -5.4237    0.0000 H   0  0  0  0  0  0  0  0  0  0  0  0
    1.7266   -7.0287    0.0000 H   0  0  0  0  0  0  0  0  0  0  0  0
    0.8000   -6.4937    0.0000 H   0  0  0  0  0  0  0  0  0  0  0  0
    0.6477   -3.7393    0.0000 H   0  0  0  0  0  0  0  0  0  0  0  0
    7.9167   -1.2001    0.0000 H   0  0  0  0  0  0  0  0  0  0  0  0
    9.8460   -1.8271    0.0000 H   0  0  0  0  0  0  0  0  0  0  0  0
    9.5154   -0.8094    0.0000 H   0  0  0  0  0  0  0  0  0  0  0  0
    9.1936   -0.0992    0.0000 H   0  0  0  0  0  0  0  0  0  0  0  0
    9.2183   -2.2071    0.0000 H   0  0  0  0  0  0  0  0  0  0  0  0
    9.6091   -4.0963    0.0000 H   0  0  0  0  0  0  0  0  0  0  0  0
    8.9969   -3.8379    0.0000 H   0  0  0  0  0  0  0  0  0  0  0  0
    7.5561   -5.1208    0.0000 H   0  0  0  0  0  0  0  0  0  0  0  0
    7.4740   -4.4615    0.0000 H   0  0  0  0  0  0  0  0  0  0  0  0
    5.6425   -3.8554    0.0000 H   0  0  0  0  0  0  0  0  0  0  0  0
  2  1  1  6  0  0  0
  2  3  1  0  0  0  0
  2 13  1  0  0  0  0
  4  3  1  0  0  0  0
  4  5  1  0  0  0  0
  4 50  1  1  0  0  0
  5  6  1  0  0  0  0
  5 51  1  0  0  0  0
  5 52  1  0  0  0  0
  6 53  1  0  0  0  0
  7  4  1  0  0  0  0
  7  8  1  0  0  0  0
  7  9  1  0  0  0  0
  7 54  1  6  0  0  0
  8 55  1  0  0  0  0
  9 10  1  0  0  0  0
  9 11  1  0  0  0  0
  9 56  1  1  0  0  0
 10 57  1  0  0  0  0
 11  2  1  0  0  0  0
 11 12  1  0  0  0  0
 11 58  1  1  0  0  0
 12 59  1  0  0  0  0
 13 14  3  0  0  0  0
 14 15  1  0  0  0  0
 15 16  2  0  0  0  0
 15 35  1  0  0  0  0
 16 17  1  0  0  0  0
 16 60  1  0  0  0  0
 17 18  2  0  0  0  0
 17 61  1  0  0  0  0
 18 19  1  0  0  0  0
 18 34  1  0  0  0  0
 19 20  2  0  0  0  0
 19 24  1  0  0  0  0
 20 21  1  0  0  0  0
 20 62  1  0  0  0  0
 21 22  2  0  0  0  0
 21 63  1  0  0  0  0
 22 23  1  0  0  0  0
 22 36  1  0  0  0  0
 23 24  2  0  0  0  0
 23 64  1  0  0  0  0
 24 25  1  0  0  0  0
 25 26  1  0  0  0  0
 25 30  1  0  0  0  0
 25 34  1  0  0  0  0
 26 27  1  0  0  0  0
 26 65  1  0  0  0  0
 26 66  1  0  0  0  0
 27 28  1  0  0  0  0
 27 67  1  0  0  0  0
 27 68  1  0  0  0  0
 28 29  1  0  0  0  0
 28 31  1  0  0  0  0
 29 30  1  0  0  0  0
 29 69  1  0  0  0  0
 29 70  1  0  0  0  0
 30 71  1  0  0  0  0
 30 72  1  0  0  0  0
 31 32  1  0  0  0  0
 31 33  2  0  0  0  0
 32 73  1  0  0  0  0
 32 74  1  0  0  0  0
 32 75  1  0  0  0  0
 34 35  2  0  0  0  0
 35 76  1  0  0  0  0
 36 37  3  0  0  0  0
 38 37  1  0  0  0  0
 38 39  1  6  0  0  0
 38 40  1  0  0  0  0
 41 40  1  0  0  0  0
 41 42  1  0  0  0  0
 41 77  1  1  0  0  0
 42 43  1  0  0  0  0
 42 78  1  0  0  0  0
 42 79  1  0  0  0  0
 43 80  1  0  0  0  0
 44 41  1  0  0  0  0
 44 45  1  0  0  0  0
 44 46  1  0  0  0  0
 44 81  1  6  0  0  0
 45 82  1  0  0  0  0
 46 47  1  0  0  0  0
 46 48  1  0  0  0  0
 46 83  1  1  0  0  0
 47 84  1  0  0  0  0
 48 38  1  0  0  0  0
 48 49  1  0  0  0  0
 48 85  1  1  0  0  0
 49 86  1  0  0  0  0
M  END
>  <DRUGBANK_ID>
DB16400

>  <COMMON_NAME>
Sibofimloc

>  <CAS_NUMBER>
1616113-45-1

>  <UNII>
00OF00QZC4

>  <SYNONYMS>
Sibofimloc

$$$$
