
 OpenBabel10282417072D

 71 74  0  0  0  0  0  0  0  0999 V2000
   -4.2250   -0.8575    0.0000 C   0  0  0  0  0  0  0  0  0  0  0  0
   -4.2250   -1.6523    0.0000 C   0  0  0  0  0  0  0  0  0  0  0  0
   -3.5138   -2.0288    0.0000 C   0  0  0  0  0  0  0  0  0  0  0  0
   -2.8027   -1.6523    0.0000 C   0  0  0  0  0  0  0  0  0  0  0  0
   -2.8027   -0.8575    0.0000 C   0  0  2  0  0  0  0  0  0  0  0  0
   -3.5138   -0.4392    0.0000 C   0  0  0  0  0  0  0  0  0  0  0  0
   -2.1334   -2.0288    0.0000 C   0  0  0  0  0  0  0  0  0  0  0  0
   -1.3804   -1.6523    0.0000 C   0  0  0  0  0  0  0  0  0  0  0  0
   -1.3804   -0.8575    0.0000 C   0  0  2  0  0  0  0  0  0  0  0  0
   -2.1334   -0.4392    0.0000 C   0  0  2  0  0  0  0  0  0  0  0  0
   -0.6693   -0.4392    0.0000 C   0  0  1  0  0  0  0  0  0  0  0  0
   -0.6693    0.3974    0.0000 C   0  0  1  0  0  0  0  0  0  0  0  0
   -1.3804    0.8157    0.0000 C   0  0  0  0  0  0  0  0  0  0  0  0
   -2.1334    0.3974    0.0000 C   0  0  0  0  0  0  0  0  0  0  0  0
   -4.9361   -2.0288    0.0000 O   0  0  0  0  0  0  0  0  0  0  0  0
   -2.8027   -0.0209    0.0000 C   0  0  0  0  0  0  0  0  0  0  0  0
   -1.3804   -0.0209    0.0000 H   0  0  0  0  0  0  0  0  0  0  0  0
   -0.6693    1.2340    0.0000 C   0  0  0  0  0  0  0  0  0  0  0  0
   -2.1334   -1.2340    0.0000 H   0  0  0  0  0  0  0  0  0  0  0  0
   -0.6693   -1.2340    0.0000 H   0  0  0  0  0  0  0  0  0  0  0  0
    0.7529   -0.4392    0.0000 C   0  0  0  0  0  0  0  0  0  0  0  0
    0.7529    0.3974    0.0000 C   0  0  0  0  0  0  0  0  0  0  0  0
    0.0418    0.8157    0.0000 C   0  0  2  0  0  0  0  0  0  0  0  0
    0.0418    1.6523    0.0000 C   0  0  0  0  0  0  0  0  0  0  0  0
   -0.6693    2.0288    0.0000 O   0  0  0  0  0  0  0  0  0  0  0  0
    0.7111    2.0288    0.0000 C   0  0  0  0  0  0  0  0  0  0  0  0
    0.7111    1.2340    0.0000 O   0  0  0  0  0  0  0  0  0  0  0  0
    1.4223    0.8157    0.0000 C   0  0  0  0  0  0  0  0  0  0  0  0
    2.1334    1.2340    0.0000 C   0  0  0  0  0  0  0  0  0  0  0  0
    1.4223   -0.0209    0.0000 O   0  0  0  0  0  0  0  0  0  0  0  0
    2.8445    0.8157    0.0000 C   0  0  0  0  0  0  0  0  0  0  0  0
    3.5556    1.2340    0.0000 C   0  0  0  0  0  0  0  0  0  0  0  0
    4.2250    0.8157    0.0000 C   0  0  0  0  0  0  0  0  0  0  0  0
    4.9361    1.2340    0.0000 C   0  0  0  0  0  0  0  0  0  0  0  0
   -5.1538   -0.3262    0.0000 H   0  0  0  0  0  0  0  0  0  0  0  0
   -4.2315    0.2125    0.0000 H   0  0  0  0  0  0  0  0  0  0  0  0
   -3.5138   -3.0608    0.0000 H   0  0  0  0  0  0  0  0  0  0  0  0
   -3.5138    0.6308    0.0000 H   0  0  0  0  0  0  0  0  0  0  0  0
   -4.4426    0.0921    0.0000 H   0  0  0  0  0  0  0  0  0  0  0  0
   -2.1595   -3.0985    0.0000 H   0  0  0  0  0  0  0  0  0  0  0  0
   -1.2301   -2.6024    0.0000 H   0  0  0  0  0  0  0  0  0  0  0  0
   -0.4702   -2.2148    0.0000 H   0  0  0  0  0  0  0  0  0  0  0  0
   -0.4458   -1.1312    0.0000 H   0  0  0  0  0  0  0  0  0  0  0  0
   -1.3672    1.8856    0.0000 H   0  0  0  0  0  0  0  0  0  0  0  0
   -2.2992    1.3640    0.0000 H   0  0  0  0  0  0  0  0  0  0  0  0
   -3.0556    0.9400    0.0000 H   0  0  0  0  0  0  0  0  0  0  0  0
   -3.0623   -0.1338    0.0000 H   0  0  0  0  0  0  0  0  0  0  0  0
   -1.8761    0.5141    0.0000 H   0  0  0  0  0  0  0  0  0  0  0  0
   -3.7293    0.5141    0.0000 H   0  0  0  0  0  0  0  0  0  0  0  0
   -2.8027    1.0491    0.0000 H   0  0  0  0  0  0  0  0  0  0  0  0
    0.2573    1.7690    0.0000 H   0  0  0  0  0  0  0  0  0  0  0  0
   -1.5959    1.7690    0.0000 H   0  0  0  0  0  0  0  0  0  0  0  0
   -0.6693    2.3040    0.0000 H   0  0  0  0  0  0  0  0  0  0  0  0
    1.5095   -1.1958    0.0000 H   0  0  0  0  0  0  0  0  0  0  0  0
    1.7415   -0.0297    0.0000 H   0  0  0  0  0  0  0  0  0  0  0  0
    1.6817    0.9286    0.0000 H   0  0  0  0  0  0  0  0  0  0  0  0
    0.7594    1.4674    0.0000 H   0  0  0  0  0  0  0  0  0  0  0  0
    1.6317    1.4835    0.0000 H   0  0  0  0  0  0  0  0  0  0  0  0
    0.7231    3.0987    0.0000 H   0  0  0  0  0  0  0  0  0  0  0  0
    1.6437    2.5534    0.0000 H   0  0  0  0  0  0  0  0  0  0  0  0
    2.1334    2.3040    0.0000 H   0  0  0  0  0  0  0  0  0  0  0  0
    3.0622    1.7652    0.0000 H   0  0  0  0  0  0  0  0  0  0  0  0
    2.8445   -0.2543    0.0000 H   0  0  0  0  0  0  0  0  0  0  0  0
    3.7733    0.2845    0.0000 H   0  0  0  0  0  0  0  0  0  0  0  0
    3.5699    2.3039    0.0000 H   0  0  0  0  0  0  0  0  0  0  0  0
    4.4949    1.7465    0.0000 H   0  0  0  0  0  0  0  0  0  0  0  0
    4.2107   -0.2542    0.0000 H   0  0  0  0  0  0  0  0  0  0  0  0
    5.1502    0.2783    0.0000 H   0  0  0  0  0  0  0  0  0  0  0  0
    5.8671    0.7066    0.0000 H   0  0  0  0  0  0  0  0  0  0  0  0
    4.9274    2.3040    0.0000 H   0  0  0  0  0  0  0  0  0  0  0  0
    5.8584    1.7765    0.0000 H   0  0  0  0  0  0  0  0  0  0  0  0
  1  2  1  0  0  0  0
  1  6  1  0  0  0  0
  1 35  1  0  0  0  0
  1 36  1  0  0  0  0
  2  3  1  0  0  0  0
  2 15  2  0  0  0  0
  3  4  2  0  0  0  0
  3 37  1  0  0  0  0
  4  5  1  0  0  0  0
  4  7  1  0  0  0  0
  5  6  1  0  0  0  0
  5 10  1  0  0  0  0
  5 16  1  1  0  0  0
  6 38  1  0  0  0  0
  6 39  1  0  0  0  0
  7  8  1  0  0  0  0
  7 40  1  0  0  0  0
  7 41  1  0  0  0  0
  8  9  1  0  0  0  0
  8 42  1  0  0  0  0
  8 43  1  0  0  0  0
  9 10  1  0  0  0  0
  9 11  1  0  0  0  0
  9 17  1  1  0  0  0
 10 14  1  0  0  0  0
 10 19  1  6  0  0  0
 11 12  1  0  0  0  0
 11 20  1  6  0  0  0
 11 21  1  0  0  0  0
 12 13  1  0  0  0  0
 12 18  1  1  0  0  0
 12 23  1  0  0  0  0
 13 14  1  0  0  0  0
 13 44  1  0  0  0  0
 13 45  1  0  0  0  0
 14 46  1  0  0  0  0
 14 47  1  0  0  0  0
 16 48  1  0  0  0  0
 16 49  1  0  0  0  0
 16 50  1  0  0  0  0
 18 51  1  0  0  0  0
 18 52  1  0  0  0  0
 18 53  1  0  0  0  0
 21 22  1  0  0  0  0
 21 54  1  0  0  0  0
 21 55  1  0  0  0  0
 22 23  1  0  0  0  0
 22 56  1  0  0  0  0
 22 57  1  0  0  0  0
 23 24  1  1  0  0  0
 23 27  1  0  0  0  0
 24 25  2  0  0  0  0
 24 26  1  0  0  0  0
 26 58  1  0  0  0  0
 26 59  1  0  0  0  0
 26 60  1  0  0  0  0
 27 28  1  0  0  0  0
 28 29  1  0  0  0  0
 28 30  2  0  0  0  0
 29 31  1  0  0  0  0
 29 61  1  0  0  0  0
 29 62  1  0  0  0  0
 31 32  1  0  0  0  0
 31 63  1  0  0  0  0
 31 64  1  0  0  0  0
 32 33  1  0  0  0  0
 32 65  1  0  0  0  0
 32 66  1  0  0  0  0
 33 34  1  0  0  0  0
 33 67  1  0  0  0  0
 33 68  1  0  0  0  0
 34 69  1  0  0  0  0
 34 70  1  0  0  0  0
 34 71  1  0  0  0  0
M  END
>  <DRUGBANK_ID>
DB06789

>  <COMMON_NAME>
Hydroxyprogesterone caproate

>  <CAS_NUMBER>
630-56-8

>  <UNII>
276F2O42F5

>  <SYNONYMS>
17-alpha-hydroxy-progesterone caproate; 17alpha-Caproyloxypregn-4-ene-3,20-dione; 17alpha-Hydroxyprogesterone hexanoate; Caproate d'hydroxyprogesterone; Caproato de hidroxiprogesterona; Hydroxyprogesterone caproate; Hydroxyprogesterone hexanoate

$$$$
