PDM
 OpenBabel10282417072D

 37 38  0  0  0  0  0  0  0  0999 V2000
    1.3835   -0.2848    0.0000 C   0  0  0  0  0  0  0  0  0  0  0  0
    0.6690   -0.6973    0.0000 C   0  0  0  0  0  0  0  0  0  0  0  0
   -0.0454   -0.2848    0.0000 C   0  0  0  0  0  0  0  0  0  0  0  0
   -0.0454    0.5402    0.0000 C   0  0  0  0  0  0  0  0  0  0  0  0
    0.6690    0.9527    0.0000 C   0  0  0  0  0  0  0  0  0  0  0  0
    1.3835    0.5402    0.0000 C   0  0  0  0  0  0  0  0  0  0  0  0
   -1.4744    0.5402    0.0000 C   0  0  1  0  0  0  0  0  0  0  0  0
   -2.1888    0.9527    0.0000 C   0  0  0  0  0  0  0  0  0  0  0  0
   -2.9033    0.5402    0.0000 C   0  0  0  0  0  0  0  0  0  0  0  0
   -3.6178    0.9527    0.0000 C   0  0  0  0  0  0  0  0  0  0  0  0
    2.1842   -1.5178    0.0000 C   0  0  0  0  0  0  0  0  0  0  0  0
    2.0980   -0.6973    0.0000 N   0  0  0  0  0  0  0  0  0  0  0  0
   -0.7599    0.9527    0.0000 N   0  0  0  0  0  0  0  0  0  0  0  0
    1.5711   -2.0698    0.0000 O   0  0  0  0  0  0  0  0  0  0  0  0
    3.0232    0.4452    0.0000 O   0  0  0  0  0  0  0  0  0  0  0  0
   -1.4744   -0.2848    0.0000 O   0  0  0  0  0  0  0  0  0  0  0  0
   -4.3322    0.5402    0.0000 O   0  0  0  0  0  0  0  0  0  0  0  0
   -3.6178    1.7777    0.0000 O   0  0  0  0  0  0  0  0  0  0  0  0
    2.9912   -1.6893    0.0000 C   0  0  0  0  0  0  0  0  0  0  0  0
    2.8517   -0.3617    0.0000 C   0  0  0  0  0  0  0  0  0  0  0  0
    3.4037   -0.9748    0.0000 C   0  0  0  0  0  0  0  0  0  0  0  0
   -1.4744    1.1241    0.0000 H   0  0  0  0  0  0  0  0  0  0  0  0
    0.6690   -1.7293    0.0000 H   0  0  0  0  0  0  0  0  0  0  0  0
   -0.9391   -0.8008    0.0000 H   0  0  0  0  0  0  0  0  0  0  0  0
    0.6690    1.9847    0.0000 H   0  0  0  0  0  0  0  0  0  0  0  0
    2.2772    1.0562    0.0000 H   0  0  0  0  0  0  0  0  0  0  0  0
   -2.1888    2.0227    0.0000 H   0  0  0  0  0  0  0  0  0  0  0  0
   -3.1154    1.4877    0.0000 H   0  0  0  0  0  0  0  0  0  0  0  0
   -2.9033   -0.5298    0.0000 H   0  0  0  0  0  0  0  0  0  0  0  0
   -3.8299    0.0052    0.0000 H   0  0  0  0  0  0  0  0  0  0  0  0
   -0.7599    1.9372    0.0000 H   0  0  0  0  0  0  0  0  0  0  0  0
   -2.3144   -0.7698    0.0000 H   0  0  0  0  0  0  0  0  0  0  0  0
   -5.1437    1.0087    0.0000 H   0  0  0  0  0  0  0  0  0  0  0  0
    3.4264   -2.6668    0.0000 H   0  0  0  0  0  0  0  0  0  0  0  0
    4.0597   -1.7453    0.0000 H   0  0  0  0  0  0  0  0  0  0  0  0
    4.4678   -0.8630    0.0000 H   0  0  0  0  0  0  0  0  0  0  0  0
    3.7872    0.0241    0.0000 H   0  0  0  0  0  0  0  0  0  0  0  0
  1  2  2  0  0  0  0
  1  6  1  0  0  0  0
  1 12  1  0  0  0  0
  2  3  1  0  0  0  0
  2 23  1  0  0  0  0
  3  4  2  0  0  0  0
  3 24  1  0  0  0  0
  4  5  1  0  0  0  0
  4 13  1  0  0  0  0
  5  6  2  0  0  0  0
  5 25  1  0  0  0  0
  6 26  1  0  0  0  0
  7  8  1  0  0  0  0
  7 13  1  0  0  0  0
  7 16  1  0  0  0  0
  7 22  1  6  0  0  0
  8  9  1  0  0  0  0
  8 27  1  0  0  0  0
  8 28  1  0  0  0  0
  9 10  1  0  0  0  0
  9 29  1  0  0  0  0
  9 30  1  0  0  0  0
 10 17  1  0  0  0  0
 10 18  2  0  0  0  0
 11 12  1  0  0  0  0
 11 14  2  0  0  0  0
 11 19  1  0  0  0  0
 12 20  1  0  0  0  0
 13 31  1  0  0  0  0
 15 20  2  0  0  0  0
 16 32  1  0  0  0  0
 17 33  1  0  0  0  0
 19 21  1  0  0  0  0
 19 34  1  0  0  0  0
 19 35  1  0  0  0  0
 20 21  1  0  0  0  0
 21 36  1  0  0  0  0
 21 37  1  0  0  0  0
M  END
>  <DRUGBANK_ID>
DB08378

>  <COMMON_NAME>
4-[4-(2,5-DIOXO-PYRROLIDIN-1-YL)-PHENYLAMINO]-4-HYDROXY-BUTYRIC ACID

$$$$
