777
 OpenBabel10282417072D

 48 50  0  0  1  0  0  0  0  0999 V2000
    3.6957   -1.9664    0.0000 S   0  0  0  0  0  0  0  0  0  0  0  0
    6.4888    0.4289    0.0000 O   0  0  0  0  0  0  0  0  0  0  0  0
    3.6957   -0.3823    0.0000 N   0  0  0  0  0  0  0  0  0  0  0  0
    3.0099    1.5979    0.0000 N   0  0  0  0  0  0  0  0  0  0  0  0
    3.0099    0.8058    0.0000 C   0  0  3  0  0  0  0  0  0  0  0  0
    3.6957    0.4098    0.0000 C   0  0  0  0  0  0  0  0  0  0  0  0
    4.3817   -0.7783    0.0000 C   0  0  0  0  0  0  0  0  0  0  0  0
    3.0099   -0.7783    0.0000 C   0  0  0  0  0  0  0  0  0  0  0  0
    2.3239    0.4098    0.0000 C   0  0  0  0  0  0  0  0  0  0  0  0
    4.3817   -1.5704    0.0000 C   0  0  0  0  0  0  0  0  0  0  0  0
    3.0099   -1.5704    0.0000 C   0  0  0  0  0  0  0  0  0  0  0  0
    5.0898   -0.3548    0.0000 C   0  0  0  0  0  0  0  0  0  0  0  0
    2.3018   -0.3548    0.0000 C   0  0  0  0  0  0  0  0  0  0  0  0
    2.3239    1.9939    0.0000 C   0  0  0  0  0  0  0  0  0  0  0  0
    3.6957    1.9939    0.0000 C   0  0  0  0  0  0  0  0  0  0  0  0
    5.8075   -0.7619    0.0000 C   0  0  0  0  0  0  0  0  0  0  0  0
    5.0898   -1.9939    0.0000 C   0  0  0  0  0  0  0  0  0  0  0  0
    2.3018   -1.9939    0.0000 C   0  0  0  0  0  0  0  0  0  0  0  0
    5.8075   -1.5869    0.0000 C   0  0  0  0  0  0  0  0  0  0  0  0
    1.5841   -0.7619    0.0000 C   0  0  0  0  0  0  0  0  0  0  0  0
    1.5841   -1.5869    0.0000 C   0  0  0  0  0  0  0  0  0  0  0  0
    6.4919   -0.3632    0.0000 C   0  0  0  0  0  0  0  0  0  0  0  0
    7.1793   -0.7565    0.0000 C   0  0  0  0  0  0  0  0  0  0  0  0
    7.8638   -0.3578    0.0000 C   0  0  0  0  0  0  0  0  0  0  0  0
    3.9366    1.3408    0.0000 H   0  0  0  0  0  0  0  0  0  0  0  0
    4.6224    0.9448    0.0000 H   0  0  0  0  0  0  0  0  0  0  0  0
    3.6957    1.4798    0.0000 H   0  0  0  0  0  0  0  0  0  0  0  0
    1.3973    0.9449    0.0000 H   0  0  0  0  0  0  0  0  0  0  0  0
    2.3238   -0.6602    0.0000 H   0  0  0  0  0  0  0  0  0  0  0  0
    1.3972   -0.1251    0.0000 H   0  0  0  0  0  0  0  0  0  0  0  0
    5.0779    0.6771    0.0000 H   0  0  0  0  0  0  0  0  0  0  0  0
    2.3137    0.6771    0.0000 H   0  0  0  0  0  0  0  0  0  0  0  0
    2.3238    3.0639    0.0000 H   0  0  0  0  0  0  0  0  0  0  0  0
    1.3973    1.4588    0.0000 H   0  0  0  0  0  0  0  0  0  0  0  0
    1.3972    2.5288    0.0000 H   0  0  0  0  0  0  0  0  0  0  0  0
    4.6224    1.4590    0.0000 H   0  0  0  0  0  0  0  0  0  0  0  0
    3.6956    3.0639    0.0000 H   0  0  0  0  0  0  0  0  0  0  0  0
    4.6223    2.5290    0.0000 H   0  0  0  0  0  0  0  0  0  0  0  0
    5.0779   -3.0258    0.0000 H   0  0  0  0  0  0  0  0  0  0  0  0
    2.3137   -3.0258    0.0000 H   0  0  0  0  0  0  0  0  0  0  0  0
    6.6992   -2.1064    0.0000 H   0  0  0  0  0  0  0  0  0  0  0  0
    0.6923   -0.2425    0.0000 H   0  0  0  0  0  0  0  0  0  0  0  0
    0.6924   -2.1064    0.0000 H   0  0  0  0  0  0  0  0  0  0  0  0
    7.1834   -1.8265    0.0000 H   0  0  0  0  0  0  0  0  0  0  0  0
    8.1080   -1.2879    0.0000 H   0  0  0  0  0  0  0  0  0  0  0  0
    8.7925   -0.8892    0.0000 H   0  0  0  0  0  0  0  0  0  0  0  0
    7.8597    0.7122    0.0000 H   0  0  0  0  0  0  0  0  0  0  0  0
    8.7884    0.1807    0.0000 H   0  0  0  0  0  0  0  0  0  0  0  0
  1 10  1  0  0  0  0
  1 11  1  0  0  0  0
  2 22  2  0  0  0  0
  3  6  1  0  0  0  0
  3  7  1  0  0  0  0
  3  8  1  0  0  0  0
  4  5  1  0  0  0  0
  4 14  1  0  0  0  0
  4 15  1  0  0  0  0
  5  6  1  0  0  0  0
  5  9  1  0  0  0  0
  5 25  1  0  0  0  0
  6 26  1  0  0  0  0
  6 27  1  0  0  0  0
  7 10  2  0  0  0  0
  7 12  1  0  0  0  0
  8 11  1  0  0  0  0
  8 13  2  0  0  0  0
  9 28  1  0  0  0  0
  9 29  1  0  0  0  0
  9 30  1  0  0  0  0
 10 17  1  0  0  0  0
 11 18  2  0  0  0  0
 12 16  2  0  0  0  0
 12 31  1  0  0  0  0
 13 20  1  0  0  0  0
 13 32  1  0  0  0  0
 14 33  1  0  0  0  0
 14 34  1  0  0  0  0
 14 35  1  0  0  0  0
 15 36  1  0  0  0  0
 15 37  1  0  0  0  0
 15 38  1  0  0  0  0
 16 19  1  0  0  0  0
 16 22  1  0  0  0  0
 17 19  2  0  0  0  0
 17 39  1  0  0  0  0
 18 21  1  0  0  0  0
 18 40  1  0  0  0  0
 19 41  1  0  0  0  0
 20 21  2  0  0  0  0
 20 42  1  0  0  0  0
 21 43  1  0  0  0  0
 22 23  1  0  0  0  0
 23 24  1  0  0  0  0
 23 44  1  0  0  0  0
 23 45  1  0  0  0  0
 24 46  1  0  0  0  0
 24 47  1  0  0  0  0
 24 48  1  0  0  0  0
M  END
>  <DRUGBANK_ID>
DB00777

>  <SECONDARY_ACCESSION_NUMBERS>
APRD00339

>  <COMMON_NAME>
Propiomazine

>  <CAS_NUMBER>
362-29-8

>  <UNII>
242Z0PM79Y

>  <SYNONYMS>
10-(2-Dimethylaminopropyl)-2-propionylphenothiazine; 2-Propionyl-10-(2-(dimethylamino)propyl)phenothiazine; 3-Propionyl-10-dimethylaminoisopropylphenothiazine; Propiomazin; Propiomazina; Propiomazine; Propiomazinum

$$$$
