
 OpenBabel10282417072D

 18 18  0  0  0  0  0  0  0  0999 V2000
    1.4290    1.4933    0.0000 O   0  0  0  0  0  0  0  0  0  0  0  0
   -1.4290   -0.9818    0.0000 N   0  0  0  0  0  0  0  0  0  0  0  0
    0.0000   -0.9818    0.0000 N   0  0  0  0  0  0  0  0  0  0  0  0
    0.7145   -0.5692    0.0000 N   0  0  0  0  0  0  0  0  0  0  0  0
   -2.1436   -0.5692    0.0000 N   0  0  0  0  0  0  0  0  0  0  0  0
    2.1436    0.2557    0.0000 N   0  0  0  0  0  0  0  0  0  0  0  0
   -0.7145   -0.5692    0.0000 C   0  0  0  0  0  0  0  0  0  0  0  0
    0.7145    0.2557    0.0000 C   0  0  0  0  0  0  0  0  0  0  0  0
   -0.7145    0.2557    0.0000 C   0  0  0  0  0  0  0  0  0  0  0  0
    0.0000    0.6682    0.0000 C   0  0  0  0  0  0  0  0  0  0  0  0
    1.4290    0.6682    0.0000 C   0  0  0  0  0  0  0  0  0  0  0  0
   -1.4290   -1.4933    0.0000 H   0  0  0  0  0  0  0  0  0  0  0  0
   -2.5865   -0.8251    0.0000 H   0  0  0  0  0  0  0  0  0  0  0  0
   -2.1436   -0.0577    0.0000 H   0  0  0  0  0  0  0  0  0  0  0  0
    2.5865    0.5115    0.0000 H   0  0  0  0  0  0  0  0  0  0  0  0
    2.1436   -0.2557    0.0000 H   0  0  0  0  0  0  0  0  0  0  0  0
   -1.6082    0.7717    0.0000 H   0  0  0  0  0  0  0  0  0  0  0  0
    0.0000    1.7002    0.0000 H   0  0  0  0  0  0  0  0  0  0  0  0
  1 11  2  0  0  0  0
  2  5  1  0  0  0  0
  2  7  1  0  0  0  0
  2 12  1  0  0  0  0
  3  4  1  0  0  0  0
  3  7  2  0  0  0  0
  4  8  2  0  0  0  0
  5 13  1  0  0  0  0
  5 14  1  0  0  0  0
  6 11  1  0  0  0  0
  6 15  1  0  0  0  0
  6 16  1  0  0  0  0
  7  9  1  0  0  0  0
  8 10  1  0  0  0  0
  8 11  1  0  0  0  0
  9 10  2  0  0  0  0
  9 17  1  0  0  0  0
 10 18  1  0  0  0  0
M  END
>  <DRUGBANK_ID>
DB09243

>  <COMMON_NAME>
Hydracarbazine

>  <CAS_NUMBER>
3614-47-9

>  <UNII>
6CTK2FB9QM

>  <SYNONYMS>
Hydracarbazine

$$$$
