
 OpenBabel10282417072D

 23 23  0  0  0  0  0  0  0  0999 V2000
   -1.1312    2.3719    0.0000 C   0  0  0  0  0  0  0  0  0  0  0  0
   -0.4168    1.9594    0.0000 C   0  0  0  0  0  0  0  0  0  0  0  0
    1.0122   -1.3406    0.0000 C   0  0  0  0  0  0  0  0  0  0  0  0
    1.0122   -0.5155    0.0000 C   0  0  0  0  0  0  0  0  0  0  0  0
    0.2977   -1.7531    0.0000 C   0  0  0  0  0  0  0  0  0  0  0  0
   -0.4168   -0.5155    0.0000 C   0  0  0  0  0  0  0  0  0  0  0  0
    0.2977   -0.1031    0.0000 C   0  0  0  0  0  0  0  0  0  0  0  0
   -0.4168   -1.3406    0.0000 C   0  0  0  0  0  0  0  0  0  0  0  0
    0.2977    0.7219    0.0000 C   0  0  0  0  0  0  0  0  0  0  0  0
   -1.1312   -1.7531    0.0000 N   0  0  0  0  0  0  0  0  0  0  0  0
    1.0122    1.1344    0.0000 O   0  0  0  0  0  0  0  0  0  0  0  0
   -0.4168    1.1344    0.0000 O   0  0  0  0  0  0  0  0  0  0  0  0
   -1.1312    3.4419    0.0000 H   0  0  0  0  0  0  0  0  0  0  0  0
   -2.0579    1.8369    0.0000 H   0  0  0  0  0  0  0  0  0  0  0  0
   -2.0578    2.9069    0.0000 H   0  0  0  0  0  0  0  0  0  0  0  0
    0.5099    2.4944    0.0000 H   0  0  0  0  0  0  0  0  0  0  0  0
    0.5098    1.4244    0.0000 H   0  0  0  0  0  0  0  0  0  0  0  0
    1.9059   -1.8566    0.0000 H   0  0  0  0  0  0  0  0  0  0  0  0
    1.9059    0.0006    0.0000 H   0  0  0  0  0  0  0  0  0  0  0  0
    0.2977   -2.7851    0.0000 H   0  0  0  0  0  0  0  0  0  0  0  0
   -1.3105    0.0006    0.0000 H   0  0  0  0  0  0  0  0  0  0  0  0
   -1.9838   -1.2609    0.0000 H   0  0  0  0  0  0  0  0  0  0  0  0
   -1.1312   -2.7376    0.0000 H   0  0  0  0  0  0  0  0  0  0  0  0
  1 13  1  0  0  0  0
  1 14  1  0  0  0  0
  1 15  1  0  0  0  0
  2  1  1  0  0  0  0
  2 16  1  0  0  0  0
  2 17  1  0  0  0  0
  3 18  1  0  0  0  0
  4  3  2  0  0  0  0
  4 19  1  0  0  0  0
  5  3  1  0  0  0  0
  5 20  1  0  0  0  0
  6 21  1  0  0  0  0
  7  4  1  0  0  0  0
  7  6  2  0  0  0  0
  8  5  2  0  0  0  0
  8  6  1  0  0  0  0
  9  7  1  0  0  0  0
 10  8  1  0  0  0  0
 10 22  1  0  0  0  0
 10 23  1  0  0  0  0
 11  9  2  0  0  0  0
 12  2  1  0  0  0  0
 12  9  1  0  0  0  0
M  END
>  <DRUGBANK_ID>
DB11552

>  <COMMON_NAME>
Tricaine

>  <CAS_NUMBER>
582-33-2

>  <UNII>
02591PHL19

>  <SYNONYMS>
Tricaine mesylate

$$$$
