
 OpenBabel10282417072D

 21 20  0  0  1  0  0  0  0  0999 V2000
   -0.7145    0.4125    0.0000 C   0  0  0  0  0  0  0  0  0  0  0  0
    1.4289    0.0000    0.0000 C   0  0  0  0  0  0  0  0  0  0  0  0
    0.7145    0.4125    0.0000 C   0  0  0  0  0  0  0  0  0  0  0  0
    2.1434    0.4125    0.0000 C   0  0  1  0  0  0  0  0  0  0  0  0
    2.8579    0.0000    0.0000 C   0  0  0  0  0  0  0  0  0  0  0  0
    2.1434    1.2375    0.0000 N   0  0  0  0  0  0  0  0  0  0  0  0
    3.5724    0.4125    0.0000 O   0  0  0  0  0  0  0  0  0  0  0  0
    2.8579   -0.8250    0.0000 O   0  0  0  0  0  0  0  0  0  0  0  0
   -0.0000   -0.8250    0.0000 O   0  0  0  0  0  0  0  0  0  0  0  0
    0.0000    0.0000    0.0000 Se  0  0  3  0  0  0  0  0  0  0  0  0
    2.1434   -0.4125    0.0000 H   0  0  0  0  0  0  0  0  0  0  0  0
   -0.7145    1.4825    0.0000 H   0  0  0  0  0  0  0  0  0  0  0  0
   -1.6411   -0.1225    0.0000 H   0  0  0  0  0  0  0  0  0  0  0  0
   -1.6412    0.9475    0.0000 H   0  0  0  0  0  0  0  0  0  0  0  0
    1.4289   -1.0700    0.0000 H   0  0  0  0  0  0  0  0  0  0  0  0
    2.3555   -0.5350    0.0000 H   0  0  0  0  0  0  0  0  0  0  0  0
    0.7145    1.4825    0.0000 H   0  0  0  0  0  0  0  0  0  0  0  0
   -0.2121    0.9475    0.0000 H   0  0  0  0  0  0  0  0  0  0  0  0
    3.0267    1.7475    0.0000 H   0  0  0  0  0  0  0  0  0  0  0  0
    1.2601    1.7475    0.0000 H   0  0  0  0  0  0  0  0  0  0  0  0
    2.0464   -1.2935    0.0000 H   0  0  0  0  0  0  0  0  0  0  0  0
  1 12  1  0  0  0  0
  1 13  1  0  0  0  0
  1 14  1  0  0  0  0
  2 15  1  0  0  0  0
  2 16  1  0  0  0  0
  3  2  1  0  0  0  0
  3 17  1  0  0  0  0
  3 18  1  0  0  0  0
  4  2  1  0  0  0  0
  4  6  1  0  0  0  0
  4 11  1  1  0  0  0
  5  4  1  0  0  0  0
  6 19  1  0  0  0  0
  6 20  1  0  0  0  0
  7  5  2  0  0  0  0
  8  5  1  0  0  0  0
  8 21  1  0  0  0  0
 10  1  1  0  0  0  0
 10  3  1  0  0  0  0
 10  9  2  0  0  0  0
M  END
>  <DRUGBANK_ID>
DB02958

>  <SECONDARY_ACCESSION_NUMBERS>
EXPT02238

>  <COMMON_NAME>
Selenomethionine Selenoxide

$$$$
