
 OpenBabel10282417072D

 51 54  0  0  0  0  0  0  0  0999 V2000
    7.2055    0.9505    0.0000 C   0  0  0  0  0  0  0  0  0  0  0  0
    6.4209    1.2054    0.0000 C   0  0  0  0  0  0  0  0  0  0  0  0
    6.2494    2.0124    0.0000 N   0  0  0  0  0  0  0  0  0  0  0  0
    5.4957    2.3479    0.0000 C   0  0  0  0  0  0  0  0  0  0  0  0
    5.5819    3.1684    0.0000 N   0  0  0  0  0  0  0  0  0  0  0  0
    6.3889    3.3400    0.0000 C   0  0  0  0  0  0  0  0  0  0  0  0
    6.8014    2.6255    0.0000 N   0  0  0  0  0  0  0  0  0  0  0  0
    4.7812    1.9354    0.0000 C   0  0  0  0  0  0  0  0  0  0  0  0
    4.0668    2.3479    0.0000 O   0  0  0  0  0  0  0  0  0  0  0  0
    3.3523    1.9354    0.0000 C   0  0  0  0  0  0  0  0  0  0  0  0
    3.3523    1.1104    0.0000 C   0  0  0  0  0  0  0  0  0  0  0  0
    2.6378    0.6979    0.0000 C   0  0  0  0  0  0  0  0  0  0  0  0
    1.9233    1.1104    0.0000 C   0  0  0  0  0  0  0  0  0  0  0  0
    1.1387    0.8555    0.0000 N   0  0  0  0  0  0  0  0  0  0  0  0
    0.6538    1.5229    0.0000 N   0  0  0  0  0  0  0  0  0  0  0  0
    1.1387    2.1904    0.0000 C   0  0  0  0  0  0  0  0  0  0  0  0
    1.9233    1.9354    0.0000 N   0  0  0  0  0  0  0  0  0  0  0  0
    2.6378    2.3479    0.0000 N   0  0  0  0  0  0  0  0  0  0  0  0
    0.8838    2.9750    0.0000 C   0  0  0  0  0  0  0  0  0  0  0  0
    0.0768    3.1465    0.0000 C   0  0  0  0  0  0  0  0  0  0  0  0
   -0.1781    3.9312    0.0000 C   0  0  0  0  0  0  0  0  0  0  0  0
    0.3739    4.5442    0.0000 C   0  0  0  0  0  0  0  0  0  0  0  0
    1.1809    4.3727    0.0000 C   0  0  0  0  0  0  0  0  0  0  0  0
    1.4358    3.5881    0.0000 C   0  0  0  0  0  0  0  0  0  0  0  0
    2.2428    3.4166    0.0000 F   0  0  0  0  0  0  0  0  0  0  0  0
    4.0668    0.6979    0.0000 C   0  0  0  0  0  0  0  0  0  0  0  0
    4.7812    0.2854    0.0000 C   0  0  0  0  0  0  0  0  0  0  0  0
    3.6543   -0.0165    0.0000 C   0  0  0  0  0  0  0  0  0  0  0  0
    4.4793    1.4124    0.0000 C   0  0  0  0  0  0  0  0  0  0  0  0
    7.4280   -0.0961    0.0000 H   0  0  0  0  0  0  0  0  0  0  0  0
    8.0006    1.6665    0.0000 H   0  0  0  0  0  0  0  0  0  0  0  0
    8.2231    0.6199    0.0000 H   0  0  0  0  0  0  0  0  0  0  0  0
    5.6257    0.4894    0.0000 H   0  0  0  0  0  0  0  0  0  0  0  0
    5.4033    1.5361    0.0000 H   0  0  0  0  0  0  0  0  0  0  0  0
    6.8086    4.2828    0.0000 H   0  0  0  0  0  0  0  0  0  0  0  0
    4.7812    0.8654    0.0000 H   0  0  0  0  0  0  0  0  0  0  0  0
    3.8545    1.4004    0.0000 H   0  0  0  0  0  0  0  0  0  0  0  0
    2.6378   -0.3341    0.0000 H   0  0  0  0  0  0  0  0  0  0  0  0
   -0.6138    2.3796    0.0000 H   0  0  0  0  0  0  0  0  0  0  0  0
   -1.1875    4.1458    0.0000 H   0  0  0  0  0  0  0  0  0  0  0  0
    0.0550    5.5257    0.0000 H   0  0  0  0  0  0  0  0  0  0  0  0
    1.8714    5.1396    0.0000 H   0  0  0  0  0  0  0  0  0  0  0  0
    4.7812   -0.7846    0.0000 H   0  0  0  0  0  0  0  0  0  0  0  0
    5.7079    0.8204    0.0000 H   0  0  0  0  0  0  0  0  0  0  0  0
    5.7078   -0.2496    0.0000 H   0  0  0  0  0  0  0  0  0  0  0  0
    2.5843   -0.0165    0.0000 H   0  0  0  0  0  0  0  0  0  0  0  0
    4.1893   -0.9432    0.0000 H   0  0  0  0  0  0  0  0  0  0  0  0
    3.1193   -0.9431    0.0000 H   0  0  0  0  0  0  0  0  0  0  0  0
    5.5493    1.4124    0.0000 H   0  0  0  0  0  0  0  0  0  0  0  0
    3.9443    2.3390    0.0000 H   0  0  0  0  0  0  0  0  0  0  0  0
    5.0143    2.3391    0.0000 H   0  0  0  0  0  0  0  0  0  0  0  0
  1  2  1  0  0  0  0
  1 30  1  0  0  0  0
  1 31  1  0  0  0  0
  1 32  1  0  0  0  0
  2  3  1  0  0  0  0
  2 33  1  0  0  0  0
  2 34  1  0  0  0  0
  3  4  1  0  0  0  0
  3  7  1  0  0  0  0
  4  5  2  0  0  0  0
  4  8  1  0  0  0  0
  5  6  1  0  0  0  0
  6  7  2  0  0  0  0
  6 35  1  0  0  0  0
  8  9  1  0  0  0  0
  8 36  1  0  0  0  0
  8 37  1  0  0  0  0
  9 10  1  0  0  0  0
 10 11  1  0  0  0  0
 10 18  2  0  0  0  0
 11 12  2  0  0  0  0
 11 26  1  0  0  0  0
 12 13  1  0  0  0  0
 12 38  1  0  0  0  0
 13 14  2  0  0  0  0
 13 17  1  0  0  0  0
 14 15  1  0  0  0  0
 15 16  2  0  0  0  0
 16 17  1  0  0  0  0
 16 19  1  0  0  0  0
 17 18  1  0  0  0  0
 19 20  2  0  0  0  0
 19 24  1  0  0  0  0
 20 21  1  0  0  0  0
 20 39  1  0  0  0  0
 21 22  2  0  0  0  0
 21 40  1  0  0  0  0
 22 23  1  0  0  0  0
 22 41  1  0  0  0  0
 23 24  2  0  0  0  0
 23 42  1  0  0  0  0
 24 25  1  0  0  0  0
 26 27  1  0  0  0  0
 26 28  1  0  0  0  0
 26 29  1  0  0  0  0
 27 43  1  0  0  0  0
 27 44  1  0  0  0  0
 27 45  1  0  0  0  0
 28 46  1  0  0  0  0
 28 47  1  0  0  0  0
 28 48  1  0  0  0  0
 29 49  1  0  0  0  0
 29 50  1  0  0  0  0
 29 51  1  0  0  0  0
M  END
>  <DRUGBANK_ID>
DB12238

>  <COMMON_NAME>
MK-0777

>  <CAS_NUMBER>
252977-51-8

>  <UNII>
1FI3KTC550

$$$$
