CDU
 OpenBabel10282417072D

 54 54  0  0  0  0  0  0  0  0999 V2000
   -4.1910   -1.2165    0.0000 C   0  0  0  0  0  0  0  0  0  0  0  0
   -4.9055   -0.8040    0.0000 C   0  0  0  0  0  0  0  0  0  0  0  0
   -4.9055    0.0210    0.0000 C   0  0  0  0  0  0  0  0  0  0  0  0
   -4.1910    0.4334    0.0000 C   0  0  0  0  0  0  0  0  0  0  0  0
   -3.4767    0.0210    0.0000 C   0  0  0  0  0  0  0  0  0  0  0  0
   -3.4767   -0.8040    0.0000 C   0  0  0  0  0  0  0  0  0  0  0  0
   -2.7622    0.4334    0.0000 N   0  0  0  0  0  0  0  0  0  0  0  0
   -2.0478    0.0210    0.0000 C   0  0  0  0  0  0  0  0  0  0  0  0
   -2.0478   -0.8040    0.0000 O   0  0  0  0  0  0  0  0  0  0  0  0
   -1.3332    0.4334    0.0000 N   0  0  0  0  0  0  0  0  0  0  0  0
   -0.6188    0.0210    0.0000 C   0  0  0  0  0  0  0  0  0  0  0  0
    0.0956    0.4334    0.0000 C   0  0  0  0  0  0  0  0  0  0  0  0
    0.8101    0.0210    0.0000 C   0  0  0  0  0  0  0  0  0  0  0  0
    1.5244    0.4334    0.0000 C   0  0  0  0  0  0  0  0  0  0  0  0
    2.2389    0.0210    0.0000 C   0  0  0  0  0  0  0  0  0  0  0  0
    2.9533    0.4334    0.0000 C   0  0  0  0  0  0  0  0  0  0  0  0
    3.6679    0.0210    0.0000 C   0  0  0  0  0  0  0  0  0  0  0  0
    4.3822    0.4334    0.0000 C   0  0  0  0  0  0  0  0  0  0  0  0
    5.0967    0.0210    0.0000 C   0  0  0  0  0  0  0  0  0  0  0  0
    5.8111    0.4334    0.0000 C   0  0  0  0  0  0  0  0  0  0  0  0
   -4.1909   -2.2865    0.0000 H   0  0  0  0  0  0  0  0  0  0  0  0
   -3.2643   -1.7514    0.0000 H   0  0  0  0  0  0  0  0  0  0  0  0
   -5.8321   -1.3390    0.0000 H   0  0  0  0  0  0  0  0  0  0  0  0
   -5.8321   -0.2690    0.0000 H   0  0  0  0  0  0  0  0  0  0  0  0
   -5.8321    0.5561    0.0000 H   0  0  0  0  0  0  0  0  0  0  0  0
   -4.9054    1.0910    0.0000 H   0  0  0  0  0  0  0  0  0  0  0  0
   -4.1909    1.5034    0.0000 H   0  0  0  0  0  0  0  0  0  0  0  0
   -3.2643    0.9684    0.0000 H   0  0  0  0  0  0  0  0  0  0  0  0
   -2.5501   -0.5141    0.0000 H   0  0  0  0  0  0  0  0  0  0  0  0
   -2.5500   -1.3390    0.0000 H   0  0  0  0  0  0  0  0  0  0  0  0
   -2.5501   -0.2690    0.0000 H   0  0  0  0  0  0  0  0  0  0  0  0
   -2.7622    1.4179    0.0000 H   0  0  0  0  0  0  0  0  0  0  0  0
   -1.3331    1.4179    0.0000 H   0  0  0  0  0  0  0  0  0  0  0  0
   -0.6188   -1.0490    0.0000 H   0  0  0  0  0  0  0  0  0  0  0  0
    0.3078   -0.5140    0.0000 H   0  0  0  0  0  0  0  0  0  0  0  0
    0.0956    1.5034    0.0000 H   0  0  0  0  0  0  0  0  0  0  0  0
    1.0222    0.9685    0.0000 H   0  0  0  0  0  0  0  0  0  0  0  0
    0.8102   -1.0490    0.0000 H   0  0  0  0  0  0  0  0  0  0  0  0
    1.7368   -0.5140    0.0000 H   0  0  0  0  0  0  0  0  0  0  0  0
    1.5243    1.5034    0.0000 H   0  0  0  0  0  0  0  0  0  0  0  0
    2.4510    0.9685    0.0000 H   0  0  0  0  0  0  0  0  0  0  0  0
    2.2389   -1.0490    0.0000 H   0  0  0  0  0  0  0  0  0  0  0  0
    3.1655   -0.5140    0.0000 H   0  0  0  0  0  0  0  0  0  0  0  0
    2.9532    1.5034    0.0000 H   0  0  0  0  0  0  0  0  0  0  0  0
    3.8799    0.9685    0.0000 H   0  0  0  0  0  0  0  0  0  0  0  0
    3.6680   -1.0490    0.0000 H   0  0  0  0  0  0  0  0  0  0  0  0
    4.5946   -0.5140    0.0000 H   0  0  0  0  0  0  0  0  0  0  0  0
    4.3821    1.5034    0.0000 H   0  0  0  0  0  0  0  0  0  0  0  0
    5.3088    0.9685    0.0000 H   0  0  0  0  0  0  0  0  0  0  0  0
    5.0967   -1.0490    0.0000 H   0  0  0  0  0  0  0  0  0  0  0  0
    6.0233   -0.5140    0.0000 H   0  0  0  0  0  0  0  0  0  0  0  0
    6.7377   -0.1017    0.0000 H   0  0  0  0  0  0  0  0  0  0  0  0
    5.8112    1.5034    0.0000 H   0  0  0  0  0  0  0  0  0  0  0  0
    6.7378    0.9683    0.0000 H   0  0  0  0  0  0  0  0  0  0  0  0
  1  2  1  0  0  0  0
  1  6  1  0  0  0  0
  1 21  1  0  0  0  0
  1 22  1  0  0  0  0
  2  3  1  0  0  0  0
  2 23  1  0  0  0  0
  2 24  1  0  0  0  0
  3  4  1  0  0  0  0
  3 25  1  0  0  0  0
  3 26  1  0  0  0  0
  4  5  1  0  0  0  0
  4 27  1  0  0  0  0
  4 28  1  0  0  0  0
  5  6  1  0  0  0  0
  5  7  1  0  0  0  0
  5 29  1  0  0  0  0
  6 30  1  0  0  0  0
  6 31  1  0  0  0  0
  7  8  1  0  0  0  0
  7 32  1  0  0  0  0
  8  9  2  0  0  0  0
  8 10  1  0  0  0  0
 10 11  1  0  0  0  0
 10 33  1  0  0  0  0
 11 12  1  0  0  0  0
 11 34  1  0  0  0  0
 11 35  1  0  0  0  0
 12 13  1  0  0  0  0
 12 36  1  0  0  0  0
 12 37  1  0  0  0  0
 13 14  1  0  0  0  0
 13 38  1  0  0  0  0
 13 39  1  0  0  0  0
 14 15  1  0  0  0  0
 14 40  1  0  0  0  0
 14 41  1  0  0  0  0
 15 16  1  0  0  0  0
 15 42  1  0  0  0  0
 15 43  1  0  0  0  0
 16 17  1  0  0  0  0
 16 44  1  0  0  0  0
 16 45  1  0  0  0  0
 17 18  1  0  0  0  0
 17 46  1  0  0  0  0
 17 47  1  0  0  0  0
 18 19  1  0  0  0  0
 18 48  1  0  0  0  0
 18 49  1  0  0  0  0
 19 20  1  0  0  0  0
 19 50  1  0  0  0  0
 19 51  1  0  0  0  0
 20 52  1  0  0  0  0
 20 53  1  0  0  0  0
 20 54  1  0  0  0  0
M  END
>  <DRUGBANK_ID>
DB03677

>  <SECONDARY_ACCESSION_NUMBERS>
EXPT00878

>  <COMMON_NAME>
N-Cyclohexyl-N'-Decylurea

$$$$
