RB1
 OpenBabel10282417072D

 41 43  0  0  0  0  0  0  0  0999 V2000
   -0.9286    2.9064    0.0000 C   0  0  0  0  0  0  0  0  0  0  0  0
   -0.6737    2.1218    0.0000 C   0  0  0  0  0  0  0  0  0  0  0  0
   -1.4583    1.8668    0.0000 C   0  0  0  0  0  0  0  0  0  0  0  0
    0.1110    2.3767    0.0000 C   0  0  0  0  0  0  0  0  0  0  0  0
   -0.4187    1.3371    0.0000 N   0  0  0  0  0  0  0  0  0  0  0  0
   -0.9036    0.6697    0.0000 N   0  0  0  0  0  0  0  0  0  0  0  0
    0.3659    1.0822    0.0000 C   0  0  0  0  0  0  0  0  0  0  0  0
    1.0804    1.4947    0.0000 N   0  0  0  0  0  0  0  0  0  0  0  0
    1.7948    1.0822    0.0000 C   0  0  0  0  0  0  0  0  0  0  0  0
    1.7948    0.2572    0.0000 N   0  0  0  0  0  0  0  0  0  0  0  0
    1.0804   -0.1553    0.0000 C   0  0  0  0  0  0  0  0  0  0  0  0
    1.0804   -0.9803    0.0000 N   0  0  0  0  0  0  0  0  0  0  0  0
    0.3659    0.2572    0.0000 C   0  0  0  0  0  0  0  0  0  0  0  0
   -0.4187    0.0023    0.0000 C   0  0  0  0  0  0  0  0  0  0  0  0
   -0.6737   -0.7824    0.0000 C   0  0  0  0  0  0  0  0  0  0  0  0
   -0.1216   -1.3955    0.0000 C   0  0  0  0  0  0  0  0  0  0  0  0
    0.6853   -1.2239    0.0000 C   0  0  0  0  0  0  0  0  0  0  0  0
   -0.3766   -2.1801    0.0000 C   0  0  0  0  0  0  0  0  0  0  0  0
    0.1755   -2.7932    0.0000 C   0  0  0  0  0  0  0  0  0  0  0  0
    0.9824   -2.6217    0.0000 C   0  0  0  0  0  0  0  0  0  0  0  0
    1.2374   -1.8370    0.0000 C   0  0  0  0  0  0  0  0  0  0  0  0
    2.0444   -1.6655    0.0000 O   0  0  0  0  0  0  0  0  0  0  0  0
   -0.2126    3.7015    0.0000 H   0  0  0  0  0  0  0  0  0  0  0  0
   -1.9752    3.1289    0.0000 H   0  0  0  0  0  0  0  0  0  0  0  0
   -1.2592    3.9240    0.0000 H   0  0  0  0  0  0  0  0  0  0  0  0
   -2.2535    2.5827    0.0000 H   0  0  0  0  0  0  0  0  0  0  0  0
   -1.6807    0.8202    0.0000 H   0  0  0  0  0  0  0  0  0  0  0  0
   -2.4759    1.5361    0.0000 H   0  0  0  0  0  0  0  0  0  0  0  0
    0.9061    1.6607    0.0000 H   0  0  0  0  0  0  0  0  0  0  0  0
    0.3335    3.4233    0.0000 H   0  0  0  0  0  0  0  0  0  0  0  0
    1.1287    2.7073    0.0000 H   0  0  0  0  0  0  0  0  0  0  0  0
    2.6885    1.5982    0.0000 H   0  0  0  0  0  0  0  0  0  0  0  0
    0.2278   -1.4726    0.0000 H   0  0  0  0  0  0  0  0  0  0  0  0
    1.9330   -1.4726    0.0000 H   0  0  0  0  0  0  0  0  0  0  0  0
   -1.7203   -1.0049    0.0000 H   0  0  0  0  0  0  0  0  0  0  0  0
   -1.0043   -1.8000    0.0000 H   0  0  0  0  0  0  0  0  0  0  0  0
    1.0041   -0.2424    0.0000 H   0  0  0  0  0  0  0  0  0  0  0  0
   -1.3861   -2.3947    0.0000 H   0  0  0  0  0  0  0  0  0  0  0  0
   -0.1434   -3.7747    0.0000 H   0  0  0  0  0  0  0  0  0  0  0  0
    1.6729   -3.3886    0.0000 H   0  0  0  0  0  0  0  0  0  0  0  0
    2.6713   -2.3619    0.0000 H   0  0  0  0  0  0  0  0  0  0  0  0
  1  2  1  0  0  0  0
  1 23  1  0  0  0  0
  1 24  1  0  0  0  0
  1 25  1  0  0  0  0
  2  3  1  0  0  0  0
  2  4  1  0  0  0  0
  2  5  1  0  0  0  0
  3 26  1  0  0  0  0
  3 27  1  0  0  0  0
  3 28  1  0  0  0  0
  4 29  1  0  0  0  0
  4 30  1  0  0  0  0
  4 31  1  0  0  0  0
  5  6  1  0  0  0  0
  5  7  1  0  0  0  0
  6 14  2  0  0  0  0
  7  8  1  0  0  0  0
  7 13  2  0  0  0  0
  8  9  2  0  0  0  0
  9 10  1  0  0  0  0
  9 32  1  0  0  0  0
 10 11  2  0  0  0  0
 11 12  1  0  0  0  0
 11 13  1  0  0  0  0
 12 33  1  0  0  0  0
 12 34  1  0  0  0  0
 13 14  1  0  0  0  0
 14 15  1  0  0  0  0
 15 16  1  0  0  0  0
 15 35  1  0  0  0  0
 15 36  1  0  0  0  0
 16 17  2  0  0  0  0
 16 18  1  0  0  0  0
 17 21  1  0  0  0  0
 17 37  1  0  0  0  0
 18 19  2  0  0  0  0
 18 38  1  0  0  0  0
 19 20  1  0  0  0  0
 19 39  1  0  0  0  0
 20 21  2  0  0  0  0
 20 40  1  0  0  0  0
 21 22  1  0  0  0  0
 22 41  1  0  0  0  0
M  END
>  <DRUGBANK_ID>
DB08461

>  <COMMON_NAME>
3-[(4-AMINO-1-TERT-BUTYL-1H-PYRAZOLO[3,4-D]PYRIMIDIN-3-YL)METHYL]PHENOL

$$$$
