M38
 OpenBabel10282417072D

 40 43  0  0  0  0  0  0  0  0999 V2000
    3.2724    3.5603    0.0000 C   0  0  0  0  0  0  0  0  0  0  0  0
    4.0961    3.5131    0.0000 C   0  0  0  0  0  0  0  0  0  0  0  0
    4.4671    2.7763    0.0000 C   0  0  0  0  0  0  0  0  0  0  0  0
    4.0144    2.0865    0.0000 C   0  0  0  0  0  0  0  0  0  0  0  0
    3.1908    2.1337    0.0000 C   0  0  0  0  0  0  0  0  0  0  0  0
    2.8198    2.8705    0.0000 C   0  0  0  0  0  0  0  0  0  0  0  0
    1.9961    2.9177    0.0000 C   0  0  0  0  0  0  0  0  0  0  0  0
    1.5435    2.2280    0.0000 C   0  0  0  0  0  0  0  0  0  0  0  0
    2.7381    1.4439    0.0000 C   0  0  0  0  0  0  0  0  0  0  0  0
    1.9145    1.4911    0.0000 N   0  0  0  0  0  0  0  0  0  0  0  0
    1.4800    3.5613    0.0000 C   0  0  0  0  0  0  0  0  0  0  0  0
    0.7084    3.2694    0.0000 C   0  0  0  0  0  0  0  0  0  0  0  0
    0.7476    2.4453    0.0000 C   0  0  0  0  0  0  0  0  0  0  0  0
   -0.0249    3.6475    0.0000 C   0  0  0  0  0  0  0  0  0  0  0  0
   -0.7189    3.2015    0.0000 C   0  0  0  0  0  0  0  0  0  0  0  0
   -0.6797    2.3774    0.0000 C   0  0  0  0  0  0  0  0  0  0  0  0
    0.0536    1.9993    0.0000 C   0  0  0  0  0  0  0  0  0  0  0  0
    1.6974    4.3572    0.0000 O   0  0  0  0  0  0  0  0  0  0  0  0
   -1.0908   -0.4838    0.0000 O   0  0  0  0  0  0  0  0  0  0  0  0
   -1.0091    0.9428    0.0000 O   0  0  0  0  0  0  0  0  0  0  0  0
    3.1091    0.7071    0.0000 O   0  0  0  0  0  0  0  0  0  0  0  0
    1.4618    0.8014    0.0000 C   0  0  0  0  0  0  0  0  0  0  0  0
    0.6382    0.8485    0.0000 C   0  0  0  0  0  0  0  0  0  0  0  0
   -0.6381    0.2059    0.0000 C   0  0  0  0  0  0  0  0  0  0  0  0
    0.1855    0.1588    0.0000 C   0  0  0  0  0  0  0  0  0  0  0  0
    2.8083    4.4821    0.0000 H   0  0  0  0  0  0  0  0  0  0  0  0
    4.6623    4.3759    0.0000 H   0  0  0  0  0  0  0  0  0  0  0  0
    5.4974    2.7173    0.0000 H   0  0  0  0  0  0  0  0  0  0  0  0
    4.4785    1.1647    0.0000 H   0  0  0  0  0  0  0  0  0  0  0  0
   -0.0740    4.6783    0.0000 H   0  0  0  0  0  0  0  0  0  0  0  0
   -1.6362    3.6744    0.0000 H   0  0  0  0  0  0  0  0  0  0  0  0
   -1.5479    1.8195    0.0000 H   0  0  0  0  0  0  0  0  0  0  0  0
    0.1027    0.9685    0.0000 H   0  0  0  0  0  0  0  0  0  0  0  0
   -2.0263   -0.4302    0.0000 H   0  0  0  0  0  0  0  0  0  0  0  0
    1.9430   -0.1543    0.0000 H   0  0  0  0  0  0  0  0  0  0  0  0
    0.8747   -0.0932    0.0000 H   0  0  0  0  0  0  0  0  0  0  0  0
    0.1570    1.8042    0.0000 H   0  0  0  0  0  0  0  0  0  0  0  0
   -0.4300    0.9097    0.0000 H   0  0  0  0  0  0  0  0  0  0  0  0
    0.6667   -0.7969    0.0000 H   0  0  0  0  0  0  0  0  0  0  0  0
   -0.4016   -0.7358    0.0000 H   0  0  0  0  0  0  0  0  0  0  0  0
  1  2  1  0  0  0  0
  1  6  2  0  0  0  0
  1 26  1  0  0  0  0
  2  3  2  0  0  0  0
  2 27  1  0  0  0  0
  3  4  1  0  0  0  0
  3 28  1  0  0  0  0
  4  5  2  0  0  0  0
  4 29  1  0  0  0  0
  5  6  1  0  0  0  0
  5  9  1  0  0  0  0
  6  7  1  0  0  0  0
  7  8  2  0  0  0  0
  7 11  1  0  0  0  0
  8 10  1  0  0  0  0
  8 13  1  0  0  0  0
  9 10  1  0  0  0  0
  9 21  2  0  0  0  0
 10 22  1  0  0  0  0
 11 12  1  0  0  0  0
 11 18  2  0  0  0  0
 12 13  1  0  0  0  0
 12 14  2  0  0  0  0
 13 17  2  0  0  0  0
 14 15  1  0  0  0  0
 14 30  1  0  0  0  0
 15 16  2  0  0  0  0
 15 31  1  0  0  0  0
 16 17  1  0  0  0  0
 16 32  1  0  0  0  0
 17 33  1  0  0  0  0
 19 24  1  0  0  0  0
 19 34  1  0  0  0  0
 20 24  2  0  0  0  0
 22 23  1  0  0  0  0
 22 35  1  0  0  0  0
 22 36  1  0  0  0  0
 23 25  1  0  0  0  0
 23 37  1  0  0  0  0
 23 38  1  0  0  0  0
 24 25  1  0  0  0  0
 25 39  1  0  0  0  0
 25 40  1  0  0  0  0
M  END
>  <DRUGBANK_ID>
DB08159

>  <COMMON_NAME>
4-(5,11-DIOXO-5H-INDENO[1,2-C]ISOQUINOLIN-6(11H)-YL)BUTANOATE

$$$$
