
 OpenBabel10282417072D

 17 16  0  0  0  0  0  0  0  0999 V2000
    1.0752   -0.0542    0.0000 S   0  0  0  0  0  0  0  0  0  0  0  0
    0.3470   -0.4556    0.0000 C   0  0  0  0  0  0  0  0  0  0  0  0
    1.7904    0.3642    0.0000 O   0  0  0  0  0  0  0  0  0  0  0  0
    0.6538    0.6689    0.0000 O   0  0  0  0  0  0  0  0  0  0  0  0
    1.4857   -0.7655    0.0000 O   0  0  0  0  0  0  0  0  0  0  0  0
   -0.3691   -0.0443    0.0000 C   0  0  3  0  0  0  0  0  0  0  0  0
   -1.0762   -0.4676    0.0000 C   0  0  0  0  0  0  0  0  0  0  0  0
   -0.3691    0.7655    0.0000 S   0  0  0  0  0  0  0  0  0  0  0  0
   -1.7904   -0.1005    0.0000 S   0  0  0  0  0  0  0  0  0  0  0  0
    0.3376   -1.5256    0.0000 H   0  0  0  0  0  0  0  0  0  0  0  0
   -0.5814   -0.9876    0.0000 H   0  0  0  0  0  0  0  0  0  0  0  0
    2.6332   -0.1160    0.0000 H   0  0  0  0  0  0  0  0  0  0  0  0
   -0.3594   -1.1143    0.0000 H   0  0  0  0  0  0  0  0  0  0  0  0
   -1.0416   -1.5370    0.0000 H   0  0  0  0  0  0  0  0  0  0  0  0
   -1.9804   -1.0397    0.0000 H   0  0  0  0  0  0  0  0  0  0  0  0
    0.8087    1.4455    0.0000 H   0  0  0  0  0  0  0  0  0  0  0  0
   -1.8568    1.2579    0.0000 H   0  0  0  0  0  0  0  0  0  0  0  0
  1  2  1  0  0  0  0
  1  3  1  0  0  0  0
  1  4  2  0  0  0  0
  1  5  2  0  0  0  0
  2  6  1  0  0  0  0
  2 10  1  0  0  0  0
  2 11  1  0  0  0  0
  3 12  1  0  0  0  0
  6  7  1  0  0  0  0
  6  8  1  0  0  0  0
  6 13  1  0  0  0  0
  7  9  1  0  0  0  0
  7 14  1  0  0  0  0
  7 15  1  0  0  0  0
  8 16  1  0  0  0  0
  9 17  1  0  0  0  0
M  END
>  <DRUGBANK_ID>
DB15967

>  <COMMON_NAME>
2,3-Dimercapto-1-propanesulfonic acid

>  <CAS_NUMBER>
74-61-3

>  <UNII>
086L82361J

>  <SYNONYMS>
2,3-Dimercapto-1-propane sulfonate; 2,3-Dimercaptopropan-1-sulfonsaeure; 2,3-Dimercaptopropanesulfonic acid; DMPS

$$$$
