
 OpenBabel10282417072D

 69 73  0  0  0  0  0  0  0  0999 V2000
    3.0753    2.7910    0.0000 N   0  0  0  0  0  0  0  0  0  0  0  0
    3.0743    1.9653    0.0000 C   0  0  0  0  0  0  0  0  0  0  0  0
    3.7876    1.5533    0.0000 C   0  0  0  0  0  0  0  0  0  0  0  0
    4.5024    1.9658    0.0000 C   0  0  0  0  0  0  0  0  0  0  0  0
    4.4995    2.7946    0.0000 C   0  0  0  0  0  0  0  0  0  0  0  0
    3.7858    3.2028    0.0000 C   0  0  0  0  0  0  0  0  0  0  0  0
    2.3602    1.5519    0.0000 C   0  0  0  0  0  0  0  0  0  0  0  0
    2.3592    0.7264    0.0000 C   0  0  0  0  0  0  0  0  0  0  0  0
    3.0724    0.3144    0.0000 C   0  0  0  0  0  0  0  0  0  0  0  0
    3.7873    0.7268    0.0000 C   0  0  0  0  0  0  0  0  0  0  0  0
    3.0806   -0.5087    0.0000 N   0  0  0  0  0  0  0  0  0  0  0  0
    2.4087   -0.9944    0.0000 C   0  0  0  0  0  0  0  0  0  0  0  0
    2.6649   -1.7809    0.0000 C   0  0  0  0  0  0  0  0  0  0  0  0
    3.4923   -1.7809    0.0000 C   0  0  0  0  0  0  0  0  0  0  0  0
    3.7484   -0.9944    0.0000 N   0  0  0  0  0  0  0  0  0  0  0  0
   -0.4358   -1.0039    0.0000 C   0  0  0  0  0  0  0  0  0  0  0  0
    0.2751   -0.5924    0.0000 N   0  0  0  0  0  0  0  0  0  0  0  0
    0.9861   -0.9997    0.0000 C   0  0  0  0  0  0  0  0  0  0  0  0
    1.6970   -0.5882    0.0000 N   0  0  0  0  0  0  0  0  0  0  0  0
   -1.8598   -1.0075    0.0000 C   0  0  0  0  0  0  0  0  0  0  0  0
   -1.8610   -1.8332    0.0000 C   0  0  0  0  0  0  0  0  0  0  0  0
   -1.1478   -2.2452    0.0000 C   0  0  0  0  0  0  0  0  0  0  0  0
   -0.4329   -1.8327    0.0000 C   0  0  0  0  0  0  0  0  0  0  0  0
   -1.1496   -0.5956    0.0000 C   0  0  0  0  0  0  0  0  0  0  0  0
   -3.2808   -1.8410    0.0000 C   0  0  0  0  0  0  0  0  0  0  0  0
   -2.5699   -2.2485    0.0000 O   0  0  0  0  0  0  0  0  0  0  0  0
   -4.7078   -1.0159    0.0000 N   0  0  0  0  0  0  0  0  0  0  0  0
   -4.7089   -1.8415    0.0000 C   0  0  0  0  0  0  0  0  0  0  0  0
   -3.9957   -2.2534    0.0000 C   0  0  0  0  0  0  0  0  0  0  0  0
   -3.2836   -1.0123    0.0000 C   0  0  0  0  0  0  0  0  0  0  0  0
   -3.9975   -0.6041    0.0000 C   0  0  0  0  0  0  0  0  0  0  0  0
   -4.0038    0.2230    0.0000 C   0  0  0  0  0  0  0  0  0  0  0  0
   -3.2928    0.6387    0.0000 N   0  0  0  0  0  0  0  0  0  0  0  0
   -2.5819    0.2272    0.0000 C   0  0  0  0  0  0  0  0  0  0  0  0
   -4.7188    0.6346    0.0000 O   0  0  0  0  0  0  0  0  0  0  0  0
    0.2743   -2.2425    0.0000 F   0  0  0  0  0  0  0  0  0  0  0  0
    0.9812   -1.8225    0.0000 O   0  0  0  0  0  0  0  0  0  0  0  0
    3.8956   -2.4919    0.0000 C   0  0  0  0  0  0  0  0  0  0  0  0
    3.4798   -3.2028    0.0000 C   0  0  0  0  0  0  0  0  0  0  0  0
    4.7188   -2.4919    0.0000 C   0  0  0  0  0  0  0  0  0  0  0  0
    4.3031   -3.2028    0.0000 C   0  0  0  0  0  0  0  0  0  0  0  0
    5.3970    1.4513    0.0000 H   0  0  0  0  0  0  0  0  0  0  0  0
    5.3913    3.3140    0.0000 H   0  0  0  0  0  0  0  0  0  0  0  0
    3.7828    4.2348    0.0000 H   0  0  0  0  0  0  0  0  0  0  0  0
    1.4665    2.0679    0.0000 H   0  0  0  0  0  0  0  0  0  0  0  0
    1.4651    0.2111    0.0000 H   0  0  0  0  0  0  0  0  0  0  0  0
    4.6809    0.2105    0.0000 H   0  0  0  0  0  0  0  0  0  0  0  0
    2.0586   -2.6160    0.0000 H   0  0  0  0  0  0  0  0  0  0  0  0
    0.2729    0.3921    0.0000 H   0  0  0  0  0  0  0  0  0  0  0  0
    1.6940    0.3963    0.0000 H   0  0  0  0  0  0  0  0  0  0  0  0
   -2.7537   -0.4917    0.0000 H   0  0  0  0  0  0  0  0  0  0  0  0
   -1.1481   -3.2772    0.0000 H   0  0  0  0  0  0  0  0  0  0  0  0
   -1.1527    0.4364    0.0000 H   0  0  0  0  0  0  0  0  0  0  0  0
   -5.6030   -2.3568    0.0000 H   0  0  0  0  0  0  0  0  0  0  0  0
   -3.9960   -3.2854    0.0000 H   0  0  0  0  0  0  0  0  0  0  0  0
   -2.3918   -0.4929    0.0000 H   0  0  0  0  0  0  0  0  0  0  0  0
   -3.2949    1.6232    0.0000 H   0  0  0  0  0  0  0  0  0  0  0  0
   -2.5831   -0.8428    0.0000 H   0  0  0  0  0  0  0  0  0  0  0  0
   -1.6547    0.7612    0.0000 H   0  0  0  0  0  0  0  0  0  0  0  0
   -1.6559   -0.3088    0.0000 H   0  0  0  0  0  0  0  0  0  0  0  0
    2.4098   -3.1968    0.0000 H   0  0  0  0  0  0  0  0  0  0  0  0
    4.0096   -4.1324    0.0000 H   0  0  0  0  0  0  0  0  0  0  0  0
    2.9396   -4.1264    0.0000 H   0  0  0  0  0  0  0  0  0  0  0  0
    5.2538   -3.4185    0.0000 H   0  0  0  0  0  0  0  0  0  0  0  0
    5.2538   -1.5653    0.0000 H   0  0  0  0  0  0  0  0  0  0  0  0
    5.7888   -2.4919    0.0000 H   0  0  0  0  0  0  0  0  0  0  0  0
    3.7652   -4.1278    0.0000 H   0  0  0  0  0  0  0  0  0  0  0  0
    5.3731   -3.2061    0.0000 H   0  0  0  0  0  0  0  0  0  0  0  0
    4.8352   -4.1311    0.0000 H   0  0  0  0  0  0  0  0  0  0  0  0
  1  2  2  0  0  0  0
  2  3  1  0  0  0  0
  2  7  1  0  0  0  0
  3  4  2  0  0  0  0
  4  5  1  0  0  0  0
  4 42  1  0  0  0  0
  5  6  2  0  0  0  0
  5 43  1  0  0  0  0
  6  1  1  0  0  0  0
  6 44  1  0  0  0  0
  7  8  2  0  0  0  0
  7 45  1  0  0  0  0
  8  9  1  0  0  0  0
  8 46  1  0  0  0  0
  9 10  2  0  0  0  0
 10  3  1  0  0  0  0
 10 47  1  0  0  0  0
 11 12  1  0  0  0  0
 11  9  1  0  0  0  0
 12 13  2  0  0  0  0
 13 14  1  0  0  0  0
 13 48  1  0  0  0  0
 14 15  2  0  0  0  0
 14 38  1  0  0  0  0
 15 11  1  0  0  0  0
 16 17  1  0  0  0  0
 16 24  2  0  0  0  0
 17 18  1  0  0  0  0
 17 49  1  0  0  0  0
 18 19  1  0  0  0  0
 18 37  2  0  0  0  0
 19 12  1  0  0  0  0
 19 50  1  0  0  0  0
 20 21  2  0  0  0  0
 20 51  1  0  0  0  0
 21 22  1  0  0  0  0
 22 23  2  0  0  0  0
 22 52  1  0  0  0  0
 23 16  1  0  0  0  0
 23 36  1  0  0  0  0
 24 20  1  0  0  0  0
 24 53  1  0  0  0  0
 25 26  1  0  0  0  0
 25 30  1  0  0  0  0
 26 21  1  0  0  0  0
 27 28  2  0  0  0  0
 28 29  1  0  0  0  0
 28 54  1  0  0  0  0
 29 25  2  0  0  0  0
 29 55  1  0  0  0  0
 30 31  2  0  0  0  0
 30 56  1  0  0  0  0
 31 27  1  0  0  0  0
 31 32  1  0  0  0  0
 32 33  1  0  0  0  0
 32 35  2  0  0  0  0
 33 34  1  0  0  0  0
 33 57  1  0  0  0  0
 34 58  1  0  0  0  0
 34 59  1  0  0  0  0
 34 60  1  0  0  0  0
 38 39  1  0  0  0  0
 38 40  1  0  0  0  0
 38 41  1  0  0  0  0
 39 61  1  0  0  0  0
 39 62  1  0  0  0  0
 39 63  1  0  0  0  0
 40 64  1  0  0  0  0
 40 65  1  0  0  0  0
 40 66  1  0  0  0  0
 41 67  1  0  0  0  0
 41 68  1  0  0  0  0
 41 69  1  0  0  0  0
M  END
>  <DRUGBANK_ID>
DB13005

>  <COMMON_NAME>
Rebastinib

>  <CAS_NUMBER>
1020172-07-9

>  <UNII>
75017Q6I97

>  <SYNONYMS>
Rebastinib

$$$$
