
 OpenBabel10282417072D

 45 47  0  0  0  0  0  0  0  0999 V2000
   -0.3880    0.0552    0.0000 C   0  0  0  0  0  0  0  0  0  0  0  0
    0.3264    0.4677    0.0000 C   0  0  0  0  0  0  0  0  0  0  0  0
    1.0409    0.0552    0.0000 C   0  0  0  0  0  0  0  0  0  0  0  0
    1.0409   -0.7698    0.0000 C   0  0  0  0  0  0  0  0  0  0  0  0
    0.3264   -1.1823    0.0000 C   0  0  0  0  0  0  0  0  0  0  0  0
   -0.3880   -0.7698    0.0000 C   0  0  0  0  0  0  0  0  0  0  0  0
   -1.1026   -1.1823    0.0000 O   0  0  0  0  0  0  0  0  0  0  0  0
   -1.8171   -0.7698    0.0000 C   0  0  0  0  0  0  0  0  0  0  0  0
   -1.8171    0.0552    0.0000 C   0  0  0  0  0  0  0  0  0  0  0  0
   -1.1026    0.4677    0.0000 C   0  0  0  0  0  0  0  0  0  0  0  0
    1.8255   -1.0248    0.0000 O   0  0  0  0  0  0  0  0  0  0  0  0
    2.3106   -0.3572    0.0000 C   0  0  1  0  0  0  0  0  0  0  0  0
    1.8255    0.3101    0.0000 C   0  0  0  0  0  0  0  0  0  0  0  0
   -2.5316   -1.1823    0.0000 O   0  0  0  0  0  0  0  0  0  0  0  0
   -2.5316    0.4677    0.0000 C   0  0  0  0  0  0  0  0  0  0  0  0
   -2.9441   -0.2467    0.0000 C   0  0  0  0  0  0  0  0  0  0  0  0
   -2.1191    1.1823    0.0000 C   0  0  0  0  0  0  0  0  0  0  0  0
   -3.2461    0.8803    0.0000 C   0  0  0  0  0  0  0  0  0  0  0  0
   -3.9607    0.4677    0.0000 C   0  0  0  0  0  0  0  0  0  0  0  0
    3.1356   -0.3572    0.0000 C   0  0  0  0  0  0  0  0  0  0  0  0
    3.9607   -0.3572    0.0000 O   0  0  0  0  0  0  0  0  0  0  0  0
    3.1356   -1.1823    0.0000 C   0  0  0  0  0  0  0  0  0  0  0  0
    3.1356    0.4677    0.0000 C   0  0  0  0  0  0  0  0  0  0  0  0
    0.3264    1.4997    0.0000 H   0  0  0  0  0  0  0  0  0  0  0  0
    0.3264   -2.2143    0.0000 H   0  0  0  0  0  0  0  0  0  0  0  0
   -1.1026    1.4997    0.0000 H   0  0  0  0  0  0  0  0  0  0  0  0
    2.7963   -1.3106    0.0000 H   0  0  0  0  0  0  0  0  0  0  0  0
    2.1560    1.3278    0.0000 H   0  0  0  0  0  0  0  0  0  0  0  0
    2.8823    0.4777    0.0000 H   0  0  0  0  0  0  0  0  0  0  0  0
   -4.0141   -0.2467    0.0000 H   0  0  0  0  0  0  0  0  0  0  0  0
   -2.4091   -1.1734    0.0000 H   0  0  0  0  0  0  0  0  0  0  0  0
   -3.4791   -1.1733    0.0000 H   0  0  0  0  0  0  0  0  0  0  0  0
   -1.0491    1.1824    0.0000 H   0  0  0  0  0  0  0  0  0  0  0  0
   -2.6542    2.1089    0.0000 H   0  0  0  0  0  0  0  0  0  0  0  0
   -1.5842    2.1090    0.0000 H   0  0  0  0  0  0  0  0  0  0  0  0
   -3.2461    1.9123    0.0000 H   0  0  0  0  0  0  0  0  0  0  0  0
   -4.8545    0.9837    0.0000 H   0  0  0  0  0  0  0  0  0  0  0  0
   -3.9607   -0.5643    0.0000 H   0  0  0  0  0  0  0  0  0  0  0  0
    4.4457   -1.1972    0.0000 H   0  0  0  0  0  0  0  0  0  0  0  0
    2.2090   -1.7173    0.0000 H   0  0  0  0  0  0  0  0  0  0  0  0
    4.0622   -1.7173    0.0000 H   0  0  0  0  0  0  0  0  0  0  0  0
    3.1356   -2.2523    0.0000 H   0  0  0  0  0  0  0  0  0  0  0  0
    4.0622    1.0027    0.0000 H   0  0  0  0  0  0  0  0  0  0  0  0
    2.2090    1.0027    0.0000 H   0  0  0  0  0  0  0  0  0  0  0  0
    3.1356    1.5377    0.0000 H   0  0  0  0  0  0  0  0  0  0  0  0
  1  2  2  0  0  0  0
  1  6  1  0  0  0  0
  1 10  1  0  0  0  0
  2  3  1  0  0  0  0
  2 24  1  0  0  0  0
  3  4  2  0  0  0  0
  4  5  1  0  0  0  0
  4 11  1  0  0  0  0
  5  6  2  0  0  0  0
  5 25  1  0  0  0  0
  6  7  1  0  0  0  0
  8  7  1  0  0  0  0
  8  9  1  0  0  0  0
  8 14  2  0  0  0  0
 10  9  2  0  0  0  0
 10 26  1  0  0  0  0
 12 11  1  0  0  0  0
 12 13  1  0  0  0  0
 12 20  1  0  0  0  0
 12 27  1  6  0  0  0
 13  3  1  0  0  0  0
 13 28  1  0  0  0  0
 13 29  1  0  0  0  0
 15  9  1  0  0  0  0
 15 16  1  0  0  0  0
 15 17  1  0  0  0  0
 15 18  1  0  0  0  0
 16 30  1  0  0  0  0
 16 31  1  0  0  0  0
 16 32  1  0  0  0  0
 17 33  1  0  0  0  0
 17 34  1  0  0  0  0
 17 35  1  0  0  0  0
 18 19  2  0  0  0  0
 18 36  1  0  0  0  0
 19 37  1  0  0  0  0
 19 38  1  0  0  0  0
 20 21  1  0  0  0  0
 20 22  1  0  0  0  0
 20 23  1  0  0  0  0
 21 39  1  0  0  0  0
 22 40  1  0  0  0  0
 22 41  1  0  0  0  0
 22 42  1  0  0  0  0
 23 43  1  0  0  0  0
 23 44  1  0  0  0  0
 23 45  1  0  0  0  0
M  END
>  <DRUGBANK_ID>
DB02205

>  <SECONDARY_ACCESSION_NUMBERS>
EXPT00760

>  <COMMON_NAME>
(+)-Rutamarin alcohol

>  <CAS_NUMBER>
14755-47-6

>  <UNII>
V0632559OD

>  <SYNONYMS>
(+)-Chalepin

$$$$
