
 OpenBabel10282417072D

 39 39  0  0  0  0  0  0  0  0999 V2000
   -4.6271   -0.0042    0.0000 C   0  0  0  0  0  0  0  0  0  0  0  0
   -4.6271   -0.8294    0.0000 C   0  0  0  0  0  0  0  0  0  0  0  0
   -3.9126   -1.2421    0.0000 C   0  0  0  0  0  0  0  0  0  0  0  0
   -3.1979   -0.8294    0.0000 C   0  0  0  0  0  0  0  0  0  0  0  0
   -3.1979   -0.0042    0.0000 C   0  0  0  0  0  0  0  0  0  0  0  0
   -3.9126    0.4082    0.0000 C   0  0  0  0  0  0  0  0  0  0  0  0
   -1.7686   -0.8294    0.0000 O   0  0  0  0  0  0  0  0  0  0  0  0
   -1.7686   -0.0042    0.0000 C   0  0  0  0  0  0  0  0  0  0  0  0
   -2.4832    0.4082    0.0000 N   0  0  0  0  0  0  0  0  0  0  0  0
   -1.0627    0.4031    0.0000 C   0  0  0  0  0  0  0  0  0  0  0  0
   -0.3624   -0.0010    0.0000 C   0  0  0  0  0  0  0  0  0  0  0  0
    0.3629    0.4216    0.0000 C   0  0  0  0  0  0  0  0  0  0  0  0
    1.0736    0.0112    0.0000 C   0  0  0  0  0  0  0  0  0  0  0  0
    1.7842    0.4216    0.0000 C   0  0  0  0  0  0  0  0  0  0  0  0
    2.4950    0.0112    0.0000 C   0  0  0  0  0  0  0  0  0  0  0  0
    3.2057    0.4216    0.0000 C   0  0  0  0  0  0  0  0  0  0  0  0
    3.9163    0.0112    0.0000 N   0  0  0  0  0  0  0  0  0  0  0  0
    4.6271    0.4216    0.0000 O   0  0  0  0  0  0  0  0  0  0  0  0
    3.2057    1.2421    0.0000 O   0  0  0  0  0  0  0  0  0  0  0  0
   -5.5208    0.5119    0.0000 H   0  0  0  0  0  0  0  0  0  0  0  0
   -5.5209   -1.3453    0.0000 H   0  0  0  0  0  0  0  0  0  0  0  0
   -3.9127   -2.2741    0.0000 H   0  0  0  0  0  0  0  0  0  0  0  0
   -2.3041   -1.3454    0.0000 H   0  0  0  0  0  0  0  0  0  0  0  0
   -3.9127    1.4402    0.0000 H   0  0  0  0  0  0  0  0  0  0  0  0
   -2.4832    1.3927    0.0000 H   0  0  0  0  0  0  0  0  0  0  0  0
   -1.0627    1.4731    0.0000 H   0  0  0  0  0  0  0  0  0  0  0  0
   -0.1361    0.9382    0.0000 H   0  0  0  0  0  0  0  0  0  0  0  0
   -0.3602   -1.0710    0.0000 H   0  0  0  0  0  0  0  0  0  0  0  0
    0.5659   -0.5332    0.0000 H   0  0  0  0  0  0  0  0  0  0  0  0
    0.3608    1.4916    0.0000 H   0  0  0  0  0  0  0  0  0  0  0  0
    1.2890    0.9575    0.0000 H   0  0  0  0  0  0  0  0  0  0  0  0
    1.0736   -1.0588    0.0000 H   0  0  0  0  0  0  0  0  0  0  0  0
    2.0003   -0.5237    0.0000 H   0  0  0  0  0  0  0  0  0  0  0  0
    1.7841    1.4916    0.0000 H   0  0  0  0  0  0  0  0  0  0  0  0
    2.7108    0.9566    0.0000 H   0  0  0  0  0  0  0  0  0  0  0  0
    2.4950   -1.0588    0.0000 H   0  0  0  0  0  0  0  0  0  0  0  0
    3.4217   -0.5237    0.0000 H   0  0  0  0  0  0  0  0  0  0  0  0
    3.9162   -0.9733    0.0000 H   0  0  0  0  0  0  0  0  0  0  0  0
    5.4672   -0.0634    0.0000 H   0  0  0  0  0  0  0  0  0  0  0  0
  1  2  2  0  0  0  0
  1  6  1  0  0  0  0
  1 20  1  0  0  0  0
  2  3  1  0  0  0  0
  2 21  1  0  0  0  0
  3  4  2  0  0  0  0
  3 22  1  0  0  0  0
  4  5  1  0  0  0  0
  4 23  1  0  0  0  0
  5  6  2  0  0  0  0
  5  9  1  0  0  0  0
  6 24  1  0  0  0  0
  7  8  2  0  0  0  0
  8  9  1  0  0  0  0
  8 10  1  0  0  0  0
  9 25  1  0  0  0  0
 10 11  1  0  0  0  0
 10 26  1  0  0  0  0
 10 27  1  0  0  0  0
 11 12  1  0  0  0  0
 11 28  1  0  0  0  0
 11 29  1  0  0  0  0
 12 13  1  0  0  0  0
 12 30  1  0  0  0  0
 12 31  1  0  0  0  0
 13 14  1  0  0  0  0
 13 32  1  0  0  0  0
 13 33  1  0  0  0  0
 14 15  1  0  0  0  0
 14 34  1  0  0  0  0
 14 35  1  0  0  0  0
 15 16  1  0  0  0  0
 15 36  1  0  0  0  0
 15 37  1  0  0  0  0
 16 17  1  0  0  0  0
 16 19  2  0  0  0  0
 17 18  1  0  0  0  0
 17 38  1  0  0  0  0
 18 39  1  0  0  0  0
M  END
>  <DRUGBANK_ID>
DB02546

>  <SECONDARY_ACCESSION_NUMBERS>
EXPT02902

>  <COMMON_NAME>
Vorinostat

>  <CAS_NUMBER>
149647-78-9

>  <UNII>
58IFB293JI

>  <SYNONYMS>
Octanedioic acid hydroxyamide phenylamide; SAHA; SHH; Suberanilohydroxamic acid; Suberoylanilide hydroxamic acid; Vorinostat; Vorinostatum

$$$$
