MBT
 OpenBabel10282417072D

 38 40  0  0  0  0  0  0  0  0999 V2000
    0.7145    0.8443    0.0000 C   0  0  0  0  0  0  0  0  0  0  0  0
    0.7145    0.0193    0.0000 C   0  0  0  0  0  0  0  0  0  0  0  0
    0.0000   -0.3932    0.0000 S   0  3  0  0  0  0  0  0  0  0  0  0
   -0.7145    0.0193    0.0000 C   0  0  0  0  0  0  0  0  0  0  0  0
   -0.7145    0.8443    0.0000 C   0  0  0  0  0  0  0  0  0  0  0  0
    0.0000    1.2568    0.0000 N   0  0  0  0  0  0  0  0  0  0  0  0
   -1.4290   -0.3932    0.0000 C   0  0  0  0  0  0  0  0  0  0  0  0
   -2.1434    0.0193    0.0000 C   0  0  0  0  0  0  0  0  0  0  0  0
   -2.1434    0.8443    0.0000 C   0  0  0  0  0  0  0  0  0  0  0  0
   -1.4290    1.2568    0.0000 C   0  0  0  0  0  0  0  0  0  0  0  0
    1.4289   -0.3932    0.0000 C   0  0  0  0  0  0  0  0  0  0  0  0
    2.1434    0.0193    0.0000 C   0  0  0  0  0  0  0  0  0  0  0  0
    2.1434    0.8443    0.0000 C   0  0  0  0  0  0  0  0  0  0  0  0
    1.4289    1.2568    0.0000 C   0  0  0  0  0  0  0  0  0  0  0  0
   -2.8579   -0.3932    0.0000 N   0  0  0  0  0  0  0  0  0  0  0  0
   -3.5724    0.0193    0.0000 C   0  0  0  0  0  0  0  0  0  0  0  0
   -2.8579   -1.2182    0.0000 C   0  0  0  0  0  0  0  0  0  0  0  0
    2.8579   -0.3932    0.0000 N   0  0  0  0  0  0  0  0  0  0  0  0
    3.5723    0.0193    0.0000 C   0  0  0  0  0  0  0  0  0  0  0  0
    2.8579   -1.2182    0.0000 C   0  0  0  0  0  0  0  0  0  0  0  0
   -1.4290   -1.4252    0.0000 H   0  0  0  0  0  0  0  0  0  0  0  0
   -3.0371    1.3603    0.0000 H   0  0  0  0  0  0  0  0  0  0  0  0
   -1.4290    2.2888    0.0000 H   0  0  0  0  0  0  0  0  0  0  0  0
    1.4289   -1.4252    0.0000 H   0  0  0  0  0  0  0  0  0  0  0  0
    3.0371    1.3603    0.0000 H   0  0  0  0  0  0  0  0  0  0  0  0
    1.4289    2.2888    0.0000 H   0  0  0  0  0  0  0  0  0  0  0  0
   -3.5724    1.0893    0.0000 H   0  0  0  0  0  0  0  0  0  0  0  0
   -4.4990   -0.5157    0.0000 H   0  0  0  0  0  0  0  0  0  0  0  0
   -4.4991    0.5543    0.0000 H   0  0  0  0  0  0  0  0  0  0  0  0
   -3.7845   -1.7532    0.0000 H   0  0  0  0  0  0  0  0  0  0  0  0
   -1.9313   -1.7532    0.0000 H   0  0  0  0  0  0  0  0  0  0  0  0
   -2.8579   -2.2882    0.0000 H   0  0  0  0  0  0  0  0  0  0  0  0
    4.4990   -0.5157    0.0000 H   0  0  0  0  0  0  0  0  0  0  0  0
    3.5723    1.0893    0.0000 H   0  0  0  0  0  0  0  0  0  0  0  0
    4.4989    0.5543    0.0000 H   0  0  0  0  0  0  0  0  0  0  0  0
    1.9313   -1.7532    0.0000 H   0  0  0  0  0  0  0  0  0  0  0  0
    3.7845   -1.7532    0.0000 H   0  0  0  0  0  0  0  0  0  0  0  0
    2.8579   -2.2882    0.0000 H   0  0  0  0  0  0  0  0  0  0  0  0
  1 14  1  0  0  0  0
  1  6  2  0  0  0  0
  1  2  1  0  0  0  0
  2  3  2  0  0  0  0
  2 11  1  0  0  0  0
  3  4  1  0  0  0  0
  4  7  2  0  0  0  0
  4  5  1  0  0  0  0
  5  6  1  0  0  0  0
  5 10  2  0  0  0  0
  7  8  1  0  0  0  0
  7 21  1  0  0  0  0
  8  9  2  0  0  0  0
  8 15  1  0  0  0  0
  9 10  1  0  0  0  0
  9 22  1  0  0  0  0
 10 23  1  0  0  0  0
 11 12  2  0  0  0  0
 11 24  1  0  0  0  0
 12 18  1  0  0  0  0
 12 13  1  0  0  0  0
 13 14  2  0  0  0  0
 13 25  1  0  0  0  0
 14 26  1  0  0  0  0
 15 16  1  0  0  0  0
 15 17  1  0  0  0  0
 16 27  1  0  0  0  0
 16 28  1  0  0  0  0
 16 29  1  0  0  0  0
 17 30  1  0  0  0  0
 17 31  1  0  0  0  0
 17 32  1  0  0  0  0
 18 19  1  0  0  0  0
 18 20  1  0  0  0  0
 19 33  1  0  0  0  0
 19 34  1  0  0  0  0
 19 35  1  0  0  0  0
 20 36  1  0  0  0  0
 20 37  1  0  0  0  0
 20 38  1  0  0  0  0
M  CHG  1   3   1
M  END
>  <DRUGBANK_ID>
DB08167

>  <COMMON_NAME>
Methylthioninium

>  <CAS_NUMBER>
7060-82-4

>  <UNII>
ZMZ79891ZH

>  <SYNONYMS>
Methylene blue cation

$$$$
