
 OpenBabel10282417072D

 24 25  0  0  0  0  0  0  0  0999 V2000
   -0.3686    0.0092    0.0000 N   0  0  0  0  0  0  0  0  0  0  0  0
   -0.3686    0.8344    0.0000 C   0  0  2  0  0  0  0  0  0  0  0  0
    0.3427   -0.4181    0.0000 C   0  0  0  0  0  0  0  0  0  0  0  0
   -1.1935    0.0092    0.0000 C   0  0  0  0  0  0  0  0  0  0  0  0
    0.3427    1.2466    0.0000 S   0  0  0  0  0  0  0  0  0  0  0  0
    1.0655    0.0019    0.0000 C   0  0  0  0  0  0  0  0  0  0  0  0
    0.3351   -1.2430    0.0000 C   0  0  0  0  0  0  0  0  0  0  0  0
   -1.7763   -0.5695    0.0000 O   0  0  0  0  0  0  0  0  0  0  0  0
    1.0655    0.8344    0.0000 C   0  0  0  0  0  0  0  0  0  0  0  0
    1.7769   -0.4068    0.0000 C   0  0  0  0  0  0  0  0  0  0  0  0
   -0.3799   -1.6441    0.0000 O   0  0  0  0  0  0  0  0  0  0  0  0
    1.0465   -1.6555    0.0000 O   0  0  0  0  0  0  0  0  0  0  0  0
   -0.3686    1.6555    0.0000 H   0  0  0  0  0  0  0  0  0  0  0  0
   -1.1935    0.8344    0.0000 C   0  0  1  0  0  0  0  0  0  0  0  0
   -1.7769    1.4177    0.0000 N   0  0  0  0  0  0  0  0  0  0  0  0
    1.9907    1.3719    0.0000 H   0  0  0  0  0  0  0  0  0  0  0  0
    1.9929    0.3006    0.0000 H   0  0  0  0  0  0  0  0  0  0  0  0
    1.7792   -1.4768    0.0000 H   0  0  0  0  0  0  0  0  0  0  0  0
    2.7024    0.1302    0.0000 H   0  0  0  0  0  0  0  0  0  0  0  0
    2.7047   -0.9398    0.0000 H   0  0  0  0  0  0  0  0  0  0  0  0
   -1.1855   -1.1656    0.0000 H   0  0  0  0  0  0  0  0  0  0  0  0
   -0.7841    1.8230    0.0000 H   0  0  0  0  0  0  0  0  0  0  0  0
   -1.5130    2.4030    0.0000 H   0  0  0  0  0  0  0  0  0  0  0  0
   -2.7621    1.1536    0.0000 H   0  0  0  0  0  0  0  0  0  0  0  0
  1  2  1  0  0  0  0
  1  3  1  0  0  0  0
  1  4  1  0  0  0  0
  2 14  1  0  0  0  0
  2  5  1  0  0  0  0
  2 13  1  6  0  0  0
  3  6  2  0  0  0  0
  3  7  1  0  0  0  0
  4  8  2  0  0  0  0
  4 14  1  0  0  0  0
  5  9  1  0  0  0  0
  6 10  1  0  0  0  0
  6  9  1  0  0  0  0
  7 11  1  0  0  0  0
  7 12  2  0  0  0  0
  9 16  1  0  0  0  0
  9 17  1  0  0  0  0
 10 18  1  0  0  0  0
 10 19  1  0  0  0  0
 10 20  1  0  0  0  0
 11 21  1  0  0  0  0
 14 15  1  0  0  0  0
 14 22  1  6  0  0  0
 15 23  1  0  0  0  0
 15 24  1  0  0  0  0
M  END
>  <DRUGBANK_ID>
DB14107

>  <COMMON_NAME>
7-Aminodesacetoxycephalosporanic acid

>  <CAS_NUMBER>
22252-43-3

>  <UNII>
ANM3MSM8TN

>  <SYNONYMS>
3-methyl-7-amino-Δ3-cephem-4-carboxylic acid; 3-methyl-7-aminoceph-3-em-4-carboxylic acid; 7-ADCA; 7-amino-3-methyl-3-cephem-4-carboxylic acid; 7beta-aminodeacetoxycephalosporanic acid; 7β-aminodeacetoxycephalosporanic acid

$$$$
