
 OpenBabel10282417072D

 62 65  0  0  0  0  0  0  0  0999 V2000
   12.7871    1.5229    0.0000 C   0  0  0  0  0  0  0  0  0  0  0  0
   12.0726    1.1104    0.0000 N   0  0  0  0  0  0  0  0  0  0  0  0
   12.0726    0.2854    0.0000 C   0  0  0  0  0  0  0  0  0  0  0  0
   11.3582    1.5229    0.0000 C   0  0  0  0  0  0  0  0  0  0  0  0
   10.6437    1.1104    0.0000 C   0  0  0  0  0  0  0  0  0  0  0  0
    9.9292    1.5229    0.0000 N   0  0  0  0  0  0  0  0  0  0  0  0
    9.2148    1.1104    0.0000 S   0  0  0  0  0  0  0  0  0  0  0  0
    8.8023    1.8249    0.0000 O   0  0  0  0  0  0  0  0  0  0  0  0
    9.6273    0.3960    0.0000 O   0  0  0  0  0  0  0  0  0  0  0  0
    8.5003    0.6979    0.0000 C   0  0  0  0  0  0  0  0  0  0  0  0
    7.7858    1.1104    0.0000 C   0  0  0  0  0  0  0  0  0  0  0  0
    7.0714    0.6979    0.0000 C   0  0  0  0  0  0  0  0  0  0  0  0
    6.3569    1.1104    0.0000 C   0  0  0  0  0  0  0  0  0  0  0  0
    5.6424    0.6979    0.0000 N   0  0  0  0  0  0  0  0  0  0  0  0
    4.9279    1.1104    0.0000 C   0  0  0  0  0  0  0  0  0  0  0  0
    4.2135    0.6979    0.0000 N   0  0  0  0  0  0  0  0  0  0  0  0
    3.4990    1.1104    0.0000 C   0  0  0  0  0  0  0  0  0  0  0  0
    2.7845    0.6979    0.0000 O   0  0  0  0  0  0  0  0  0  0  0  0
    2.0701    1.1104    0.0000 C   0  0  0  0  0  0  0  0  0  0  0  0
    1.3556    0.6979    0.0000 C   0  0  0  0  0  0  0  0  0  0  0  0
    0.6411    1.1104    0.0000 C   0  0  0  0  0  0  0  0  0  0  0  0
    0.6411    1.9354    0.0000 C   0  0  0  0  0  0  0  0  0  0  0  0
   -0.1435    2.1904    0.0000 N   0  0  0  0  0  0  0  0  0  0  0  0
   -0.6284    1.5229    0.0000 C   0  0  0  0  0  0  0  0  0  0  0  0
   -1.4534    1.5229    0.0000 C   0  0  0  0  0  0  0  0  0  0  0  0
   -0.1435    0.8555    0.0000 C   0  0  0  0  0  0  0  0  0  0  0  0
    1.3556    2.3479    0.0000 C   0  0  0  0  0  0  0  0  0  0  0  0
    2.0701    1.9354    0.0000 C   0  0  0  0  0  0  0  0  0  0  0  0
    3.4990    1.9354    0.0000 C   0  0  0  0  0  0  0  0  0  0  0  0
    4.2135    2.3479    0.0000 C   0  0  0  0  0  0  0  0  0  0  0  0
    4.9279    1.9354    0.0000 N   0  0  0  0  0  0  0  0  0  0  0  0
    6.3569    1.9354    0.0000 C   0  0  0  0  0  0  0  0  0  0  0  0
    7.0714    2.3479    0.0000 C   0  0  0  0  0  0  0  0  0  0  0  0
    7.7858    1.9354    0.0000 C   0  0  0  0  0  0  0  0  0  0  0  0
   13.7137    0.9879    0.0000 H   0  0  0  0  0  0  0  0  0  0  0  0
   12.7871    2.5929    0.0000 H   0  0  0  0  0  0  0  0  0  0  0  0
   13.7138    2.0579    0.0000 H   0  0  0  0  0  0  0  0  0  0  0  0
   11.1460   -0.2496    0.0000 H   0  0  0  0  0  0  0  0  0  0  0  0
   12.9992   -0.2496    0.0000 H   0  0  0  0  0  0  0  0  0  0  0  0
   12.0726   -0.7846    0.0000 H   0  0  0  0  0  0  0  0  0  0  0  0
   11.3582    2.5929    0.0000 H   0  0  0  0  0  0  0  0  0  0  0  0
   10.4316    2.0579    0.0000 H   0  0  0  0  0  0  0  0  0  0  0  0
   10.6437    0.0404    0.0000 H   0  0  0  0  0  0  0  0  0  0  0  0
    9.7171    0.5754    0.0000 H   0  0  0  0  0  0  0  0  0  0  0  0
    9.9292    2.5429    0.0000 H   0  0  0  0  0  0  0  0  0  0  0  0
    8.5003   -0.3721    0.0000 H   0  0  0  0  0  0  0  0  0  0  0  0
    7.5737    0.1629    0.0000 H   0  0  0  0  0  0  0  0  0  0  0  0
    7.0714   -0.3341    0.0000 H   0  0  0  0  0  0  0  0  0  0  0  0
    5.6424   -0.2866    0.0000 H   0  0  0  0  0  0  0  0  0  0  0  0
    1.3556   -0.3341    0.0000 H   0  0  0  0  0  0  0  0  0  0  0  0
   -0.4477    3.1267    0.0000 H   0  0  0  0  0  0  0  0  0  0  0  0
   -1.9884    2.4495    0.0000 H   0  0  0  0  0  0  0  0  0  0  0  0
   -1.9884    0.5963    0.0000 H   0  0  0  0  0  0  0  0  0  0  0  0
   -2.5234    1.5229    0.0000 H   0  0  0  0  0  0  0  0  0  0  0  0
   -0.4624   -0.1260    0.0000 H   0  0  0  0  0  0  0  0  0  0  0  0
    1.3556    3.3799    0.0000 H   0  0  0  0  0  0  0  0  0  0  0  0
    2.9638    2.4514    0.0000 H   0  0  0  0  0  0  0  0  0  0  0  0
    2.6053    2.4514    0.0000 H   0  0  0  0  0  0  0  0  0  0  0  0
    4.2135    3.3799    0.0000 H   0  0  0  0  0  0  0  0  0  0  0  0
    5.4632    2.4514    0.0000 H   0  0  0  0  0  0  0  0  0  0  0  0
    7.0714    3.3799    0.0000 H   0  0  0  0  0  0  0  0  0  0  0  0
    8.6795    2.4514    0.0000 H   0  0  0  0  0  0  0  0  0  0  0  0
  1  2  1  0  0  0  0
  1 35  1  0  0  0  0
  1 36  1  0  0  0  0
  1 37  1  0  0  0  0
  2  3  1  0  0  0  0
  2  4  1  0  0  0  0
  3 38  1  0  0  0  0
  3 39  1  0  0  0  0
  3 40  1  0  0  0  0
  4  5  1  0  0  0  0
  4 41  1  0  0  0  0
  4 42  1  0  0  0  0
  5  6  1  0  0  0  0
  5 43  1  0  0  0  0
  5 44  1  0  0  0  0
  6  7  1  0  0  0  0
  6 45  1  0  0  0  0
  7  8  2  0  0  0  0
  7  9  2  0  0  0  0
  7 10  1  0  0  0  0
 10 11  1  0  0  0  0
 10 46  1  0  0  0  0
 10 47  1  0  0  0  0
 11 12  2  0  0  0  0
 11 34  1  0  0  0  0
 12 13  1  0  0  0  0
 12 48  1  0  0  0  0
 13 14  1  0  0  0  0
 13 32  2  0  0  0  0
 14 15  1  0  0  0  0
 14 49  1  0  0  0  0
 15 16  2  0  0  0  0
 15 31  1  0  0  0  0
 16 17  1  0  0  0  0
 17 18  1  0  0  0  0
 17 29  2  0  0  0  0
 18 19  1  0  0  0  0
 19 20  2  0  0  0  0
 19 28  1  0  0  0  0
 20 21  1  0  0  0  0
 20 50  1  0  0  0  0
 21 22  2  0  0  0  0
 21 26  1  0  0  0  0
 22 23  1  0  0  0  0
 22 27  1  0  0  0  0
 23 24  1  0  0  0  0
 23 51  1  0  0  0  0
 24 25  1  0  0  0  0
 24 26  2  0  0  0  0
 25 52  1  0  0  0  0
 25 53  1  0  0  0  0
 25 54  1  0  0  0  0
 26 55  1  0  0  0  0
 27 28  2  0  0  0  0
 27 56  1  0  0  0  0
 28 57  1  0  0  0  0
 29 30  1  0  0  0  0
 29 58  1  0  0  0  0
 30 31  2  0  0  0  0
 30 59  1  0  0  0  0
 32 33  1  0  0  0  0
 32 60  1  0  0  0  0
 33 34  2  0  0  0  0
 33 61  1  0  0  0  0
 34 62  1  0  0  0  0
M  END
>  <DRUGBANK_ID>
DB15106

>  <COMMON_NAME>
Surufatinib

>  <CAS_NUMBER>
1308672-74-3

>  <UNII>
B2K5L1L8S9

>  <SYNONYMS>
SULFATINIB; Surufatinib

$$$$
