
 OpenBabel10282417072D

 54 55  0  0  0  0  0  0  0  0999 V2000
   -3.4473    0.0884    0.0000 N   0  0  0  0  0  0  0  0  0  0  0  0
   -4.1618   -0.3241    0.0000 C   0  0  0  0  0  0  0  0  0  0  0  0
   -4.1618   -1.1491    0.0000 C   0  0  0  0  0  0  0  0  0  0  0  0
   -3.4473   -1.5616    0.0000 C   0  0  0  0  0  0  0  0  0  0  0  0
   -2.7329   -1.1491    0.0000 C   0  0  0  0  0  0  0  0  0  0  0  0
   -2.7329   -0.3241    0.0000 C   0  0  0  0  0  0  0  0  0  0  0  0
   -2.0184    0.0884    0.0000 C   0  0  3  0  0  0  0  0  0  0  0  0
   -1.3039   -0.3241    0.0000 C   0  0  0  0  0  0  0  0  0  0  0  0
   -0.5894    0.0884    0.0000 C   0  0  0  0  0  0  0  0  0  0  0  0
    0.1250   -0.3241    0.0000 N   0  0  0  0  0  0  0  0  0  0  0  0
    0.8395    0.0884    0.0000 C   0  0  0  0  0  0  0  0  0  0  0  0
    1.5540   -0.3241    0.0000 C   0  0  0  0  0  0  0  0  0  0  0  0
    0.8395    0.9134    0.0000 C   0  0  0  0  0  0  0  0  0  0  0  0
    0.1250   -1.1491    0.0000 C   0  0  0  0  0  0  0  0  0  0  0  0
   -0.5894   -1.5616    0.0000 C   0  0  0  0  0  0  0  0  0  0  0  0
    0.8395   -1.5616    0.0000 C   0  0  0  0  0  0  0  0  0  0  0  0
   -2.0184    0.9134    0.0000 C   0  0  0  0  0  0  0  0  0  0  0  0
   -1.3039    1.3259    0.0000 N   0  0  0  0  0  0  0  0  0  0  0  0
   -1.9889   -2.1214    0.0000 C   0  0  0  0  0  0  0  0  0  0  0  0
   -2.7329    1.3259    0.0000 O   0  0  0  0  0  0  0  0  0  0  0  0
   -2.7033   -2.5339    0.0000 C   0  0  0  0  0  0  0  0  0  0  0  0
   -2.7033   -3.3589    0.0000 C   0  0  0  0  0  0  0  0  0  0  0  0
   -1.9889   -3.7715    0.0000 C   0  0  0  0  0  0  0  0  0  0  0  0
   -1.2745   -3.3589    0.0000 C   0  0  0  0  0  0  0  0  0  0  0  0
   -1.2745   -2.5339    0.0000 C   0  0  0  0  0  0  0  0  0  0  0  0
   -5.0555    0.1919    0.0000 H   0  0  0  0  0  0  0  0  0  0  0  0
   -5.0555   -1.6651    0.0000 H   0  0  0  0  0  0  0  0  0  0  0  0
   -3.4473   -2.5936    0.0000 H   0  0  0  0  0  0  0  0  0  0  0  0
   -1.8392   -1.6651    0.0000 H   0  0  0  0  0  0  0  0  0  0  0  0
   -1.3039   -1.3941    0.0000 H   0  0  0  0  0  0  0  0  0  0  0  0
   -0.3773   -0.8591    0.0000 H   0  0  0  0  0  0  0  0  0  0  0  0
   -0.5894    1.1584    0.0000 H   0  0  0  0  0  0  0  0  0  0  0  0
    0.3373    0.6234    0.0000 H   0  0  0  0  0  0  0  0  0  0  0  0
    1.7661    0.6234    0.0000 H   0  0  0  0  0  0  0  0  0  0  0  0
    1.5540   -1.3941    0.0000 H   0  0  0  0  0  0  0  0  0  0  0  0
    2.4806    0.2109    0.0000 H   0  0  0  0  0  0  0  0  0  0  0  0
    2.4807   -0.8591    0.0000 H   0  0  0  0  0  0  0  0  0  0  0  0
    1.7661    1.4484    0.0000 H   0  0  0  0  0  0  0  0  0  0  0  0
   -0.0871    1.4484    0.0000 H   0  0  0  0  0  0  0  0  0  0  0  0
    0.8395    1.9834    0.0000 H   0  0  0  0  0  0  0  0  0  0  0  0
    0.1250   -2.2191    0.0000 H   0  0  0  0  0  0  0  0  0  0  0  0
   -1.5161   -1.0266    0.0000 H   0  0  0  0  0  0  0  0  0  0  0  0
   -0.5894   -2.6316    0.0000 H   0  0  0  0  0  0  0  0  0  0  0  0
   -1.5160   -2.0966    0.0000 H   0  0  0  0  0  0  0  0  0  0  0  0
    0.8395   -2.6316    0.0000 H   0  0  0  0  0  0  0  0  0  0  0  0
    1.7661   -1.0266    0.0000 H   0  0  0  0  0  0  0  0  0  0  0  0
    1.7662   -2.0966    0.0000 H   0  0  0  0  0  0  0  0  0  0  0  0
   -0.4513    0.8336    0.0000 H   0  0  0  0  0  0  0  0  0  0  0  0
   -1.3039    2.3104    0.0000 H   0  0  0  0  0  0  0  0  0  0  0  0
   -3.5970   -2.0179    0.0000 H   0  0  0  0  0  0  0  0  0  0  0  0
   -3.5971   -3.8748    0.0000 H   0  0  0  0  0  0  0  0  0  0  0  0
   -1.9889   -4.8035    0.0000 H   0  0  0  0  0  0  0  0  0  0  0  0
   -0.3807   -3.8748    0.0000 H   0  0  0  0  0  0  0  0  0  0  0  0
   -0.3808   -2.0179    0.0000 H   0  0  0  0  0  0  0  0  0  0  0  0
  1  2  1  0  0  0  0
  1  6  2  0  0  0  0
  2  3  2  0  0  0  0
  2 26  1  0  0  0  0
  3  4  1  0  0  0  0
  3 27  1  0  0  0  0
  4  5  2  0  0  0  0
  4 28  1  0  0  0  0
  5  6  1  0  0  0  0
  5 29  1  0  0  0  0
  6  7  1  0  0  0  0
  7  8  1  0  0  0  0
  7 17  1  0  0  0  0
  7 19  1  0  0  0  0
  8  9  1  0  0  0  0
  8 30  1  0  0  0  0
  8 31  1  0  0  0  0
  9 10  1  0  0  0  0
  9 32  1  0  0  0  0
  9 33  1  0  0  0  0
 10 11  1  0  0  0  0
 10 14  1  0  0  0  0
 11 12  1  0  0  0  0
 11 13  1  0  0  0  0
 11 34  1  0  0  0  0
 12 35  1  0  0  0  0
 12 36  1  0  0  0  0
 12 37  1  0  0  0  0
 13 38  1  0  0  0  0
 13 39  1  0  0  0  0
 13 40  1  0  0  0  0
 14 15  1  0  0  0  0
 14 16  1  0  0  0  0
 14 41  1  0  0  0  0
 15 42  1  0  0  0  0
 15 43  1  0  0  0  0
 15 44  1  0  0  0  0
 16 45  1  0  0  0  0
 16 46  1  0  0  0  0
 16 47  1  0  0  0  0
 17 18  1  0  0  0  0
 17 20  2  0  0  0  0
 18 48  1  0  0  0  0
 18 49  1  0  0  0  0
 19 21  2  0  0  0  0
 19 25  1  0  0  0  0
 21 22  1  0  0  0  0
 21 50  1  0  0  0  0
 22 23  2  0  0  0  0
 22 51  1  0  0  0  0
 23 24  1  0  0  0  0
 23 52  1  0  0  0  0
 24 25  2  0  0  0  0
 24 53  1  0  0  0  0
 25 54  1  0  0  0  0
M  END
>  <DRUGBANK_ID>
DB00280

>  <SECONDARY_ACCESSION_NUMBERS>
APRD00507

>  <COMMON_NAME>
Disopyramide

>  <CAS_NUMBER>
3737-09-5

>  <UNII>
GFO928U8MQ

>  <SYNONYMS>
Disopiramida; Disopyramide; Disopyramidum

$$$$
