
 OpenBabel10282417072D

 39 40  0  0  0  0  0  0  0  0999 V2000
   -0.3485    0.8166    0.0000 C   0  0  0  0  0  0  0  0  0  0  0  0
   -0.3485   -0.0083    0.0000 C   0  0  0  0  0  0  0  0  0  0  0  0
    0.3633   -0.4165    0.0000 C   0  0  0  0  0  0  0  0  0  0  0  0
    1.0754   -0.0083    0.0000 C   0  0  0  0  0  0  0  0  0  0  0  0
    1.0754    0.8166    0.0000 C   0  0  0  0  0  0  0  0  0  0  0  0
    0.3633    1.2334    0.0000 N   0  0  0  0  0  0  0  0  0  0  0  0
    0.3633    2.0584    0.0000 C   0  0  0  0  0  0  0  0  0  0  0  0
   -0.3570   -0.8250    0.0000 C   0  0  0  0  0  0  0  0  0  0  0  0
    1.0722   -0.8291    0.0000 C   0  0  0  0  0  0  0  0  0  0  0  0
    1.0716   -1.6480    0.0000 O   0  0  0  0  0  0  0  0  0  0  0  0
   -1.0703   -0.4023    0.0000 C   0  0  0  0  0  0  0  0  0  0  0  0
   -1.7901   -0.8100    0.0000 C   0  0  0  0  0  0  0  0  0  0  0  0
   -1.7971   -1.6389    0.0000 C   0  0  0  0  0  0  0  0  0  0  0  0
   -1.0783   -2.0584    0.0000 C   0  0  0  0  0  0  0  0  0  0  0  0
   -0.3613   -1.6484    0.0000 C   0  0  0  0  0  0  0  0  0  0  0  0
    1.7875   -0.4181    0.0000 C   0  0  0  0  0  0  0  0  0  0  0  0
    2.5011   -0.8320    0.0000 C   0  0  0  0  0  0  0  0  0  0  0  0
   -2.5011   -0.3915    0.0000 O   0  0  0  0  0  0  0  0  0  0  0  0
   -1.2768    1.3488    0.0000 H   0  0  0  0  0  0  0  0  0  0  0  0
   -0.3534    1.8866    0.0000 H   0  0  0  0  0  0  0  0  0  0  0  0
   -1.2744   -0.5446    0.0000 H   0  0  0  0  0  0  0  0  0  0  0  0
   -1.2755    0.5260    0.0000 H   0  0  0  0  0  0  0  0  0  0  0  0
    2.0012   -0.5447    0.0000 H   0  0  0  0  0  0  0  0  0  0  0  0
    2.0025    0.5260    0.0000 H   0  0  0  0  0  0  0  0  0  0  0  0
    2.0036    1.3488    0.0000 H   0  0  0  0  0  0  0  0  0  0  0  0
    1.0802    1.8866    0.0000 H   0  0  0  0  0  0  0  0  0  0  0  0
    1.2899    2.5934    0.0000 H   0  0  0  0  0  0  0  0  0  0  0  0
   -0.5633    2.5934    0.0000 H   0  0  0  0  0  0  0  0  0  0  0  0
    0.3633    3.1284    0.0000 H   0  0  0  0  0  0  0  0  0  0  0  0
   -1.0602    0.6297    0.0000 H   0  0  0  0  0  0  0  0  0  0  0  0
   -2.6942   -2.1490    0.0000 H   0  0  0  0  0  0  0  0  0  0  0  0
   -1.0829   -3.0904    0.0000 H   0  0  0  0  0  0  0  0  0  0  0  0
    0.5300   -2.1686    0.0000 H   0  0  0  0  0  0  0  0  0  0  0  0
    1.7897    0.6519    0.0000 H   0  0  0  0  0  0  0  0  0  0  0  0
    2.7152    0.1150    0.0000 H   0  0  0  0  0  0  0  0  0  0  0  0
    2.4990   -1.9020    0.0000 H   0  0  0  0  0  0  0  0  0  0  0  0
    3.4288   -0.2989    0.0000 H   0  0  0  0  0  0  0  0  0  0  0  0
    3.4267   -1.3689    0.0000 H   0  0  0  0  0  0  0  0  0  0  0  0
   -2.4932    0.5455    0.0000 H   0  0  0  0  0  0  0  0  0  0  0  0
  1  2  1  0  0  0  0
  1  6  1  0  0  0  0
  1 19  1  0  0  0  0
  1 20  1  0  0  0  0
  2  3  1  0  0  0  0
  2 21  1  0  0  0  0
  2 22  1  0  0  0  0
  3  9  1  0  0  0  0
  3  4  1  0  0  0  0
  3  8  1  0  0  0  0
  4  5  1  0  0  0  0
  4 23  1  0  0  0  0
  4 24  1  0  0  0  0
  5  6  1  0  0  0  0
  5 25  1  0  0  0  0
  5 26  1  0  0  0  0
  6  7  1  0  0  0  0
  7 27  1  0  0  0  0
  7 28  1  0  0  0  0
  7 29  1  0  0  0  0
  8 11  2  0  0  0  0
  9 10  2  0  0  0  0
  9 16  1  0  0  0  0
 11 12  1  0  0  0  0
 11 30  1  0  0  0  0
 12 13  2  0  0  0  0
 12 18  1  0  0  0  0
 13 14  1  0  0  0  0
 13 31  1  0  0  0  0
 14 15  2  0  0  0  0
 14 32  1  0  0  0  0
 15  8  1  0  0  0  0
 15 33  1  0  0  0  0
 16 17  1  0  0  0  0
 16 34  1  0  0  0  0
 16 35  1  0  0  0  0
 17 36  1  0  0  0  0
 17 37  1  0  0  0  0
 17 38  1  0  0  0  0
 18 39  1  0  0  0  0
M  END
>  <DRUGBANK_ID>
DB06738

>  <COMMON_NAME>
Ketobemidone

>  <CAS_NUMBER>
469-79-4

>  <UNII>
PQS1L514CF

>  <SYNONYMS>
Cetobemidona; Cetobemidone; Cetobemidonum; Ketobemidone

$$$$
