
 OpenBabel10282417072D

 60 63  0  0  0  0  0  0  0  0999 V2000
   -0.9789    2.8029    0.0000 C   0  0  0  0  0  0  0  0  0  0  0  0
   -0.3115    2.3180    0.0000 C   0  0  0  0  0  0  0  0  0  0  0  0
   -0.3115    1.4930    0.0000 C   0  0  0  0  0  0  0  0  0  0  0  0
    0.4731    1.2381    0.0000 N   0  0  0  0  0  0  0  0  0  0  0  0
    0.9581    1.9055    0.0000 C   0  0  0  0  0  0  0  0  0  0  0  0
    0.4731    2.5729    0.0000 N   0  3  0  0  0  0  0  0  0  0  0  0
    0.8087    3.3266    0.0000 C   0  0  0  0  0  0  0  0  0  0  0  0
    1.6292    3.4128    0.0000 C   0  0  0  0  0  0  0  0  0  0  0  0
    2.1141    2.7454    0.0000 C   0  0  0  0  0  0  0  0  0  0  0  0
    1.7785    1.9917    0.0000 C   0  0  0  0  0  0  0  0  0  0  0  0
    0.7281    0.4534    0.0000 N   0  0  0  0  0  0  0  0  0  0  0  0
    0.1761   -0.1597    0.0000 N   0  0  0  0  0  0  0  0  0  0  0  0
    0.4310   -0.9443    0.0000 N   0  0  0  0  0  0  0  0  0  0  0  0
    1.2156   -1.1992    0.0000 C   0  0  0  0  0  0  0  0  0  0  0  0
    1.9301   -0.7867    0.0000 C   0  0  0  0  0  0  0  0  0  0  0  0
    2.6446   -1.1992    0.0000 C   0  0  0  0  0  0  0  0  0  0  0  0
    2.6446   -2.0242    0.0000 C   0  0  0  0  0  0  0  0  0  0  0  0
    1.9301   -2.4367    0.0000 C   0  0  0  0  0  0  0  0  0  0  0  0
    1.2156   -2.0242    0.0000 N   0  3  0  0  0  0  0  0  0  0  0  0
    0.4310   -2.2792    0.0000 C   0  0  0  0  0  0  0  0  0  0  0  0
   -0.0539   -1.6117    0.0000 C   0  0  0  0  0  0  0  0  0  0  0  0
   -0.8789   -1.6117    0.0000 C   0  0  0  0  0  0  0  0  0  0  0  0
   -1.2914   -2.3262    0.0000 C   0  0  0  0  0  0  0  0  0  0  0  0
   -2.1164   -2.3262    0.0000 C   0  0  0  0  0  0  0  0  0  0  0  0
   -2.5289   -1.6117    0.0000 C   0  0  0  0  0  0  0  0  0  0  0  0
   -2.1164   -0.8973    0.0000 C   0  0  0  0  0  0  0  0  0  0  0  0
   -1.2914   -0.8973    0.0000 C   0  0  0  0  0  0  0  0  0  0  0  0
    0.1761   -3.0638    0.0000 C   0  0  0  0  0  0  0  0  0  0  0  0
   -0.9789    1.0081    0.0000 C   0  0  0  0  0  0  0  0  0  0  0  0
   -0.8927    0.1876    0.0000 C   0  0  0  0  0  0  0  0  0  0  0  0
   -1.5601   -0.2973    0.0000 C   0  0  0  0  0  0  0  0  0  0  0  0
   -2.3138    0.0382    0.0000 C   0  0  0  0  0  0  0  0  0  0  0  0
   -2.4000    0.8587    0.0000 C   0  0  0  0  0  0  0  0  0  0  0  0
   -1.7326    1.3436    0.0000 C   0  0  0  0  0  0  0  0  0  0  0  0
    5.0017    0.0000    0.0000 Br  0  5  0  0  0  0  0  0  0  0  0  0
    0.0000   -4.7138    0.0000 Br  0  5  0  0  0  0  0  0  0  0  0  0
   -0.8670    3.8670    0.0000 H   0  0  0  0  0  0  0  0  0  0  0  0
   -1.9564    2.3677    0.0000 H   0  0  0  0  0  0  0  0  0  0  0  0
   -1.8445    3.4318    0.0000 H   0  0  0  0  0  0  0  0  0  0  0  0
    0.2021    4.1615    0.0000 H   0  0  0  0  0  0  0  0  0  0  0  0
    2.0490    4.3556    0.0000 H   0  0  0  0  0  0  0  0  0  0  0  0
    3.1404    2.8533    0.0000 H   0  0  0  0  0  0  0  0  0  0  0  0
    2.3851    1.1568    0.0000 H   0  0  0  0  0  0  0  0  0  0  0  0
    1.9301    0.2453    0.0000 H   0  0  0  0  0  0  0  0  0  0  0  0
    3.5383   -0.6832    0.0000 H   0  0  0  0  0  0  0  0  0  0  0  0
    3.5383   -2.5402    0.0000 H   0  0  0  0  0  0  0  0  0  0  0  0
    1.9301   -3.4687    0.0000 H   0  0  0  0  0  0  0  0  0  0  0  0
   -0.7754   -3.2199    0.0000 H   0  0  0  0  0  0  0  0  0  0  0  0
   -2.6324   -3.2199    0.0000 H   0  0  0  0  0  0  0  0  0  0  0  0
   -3.5609   -1.6117    0.0000 H   0  0  0  0  0  0  0  0  0  0  0  0
   -2.6324   -0.0036    0.0000 H   0  0  0  0  0  0  0  0  0  0  0  0
   -0.7754   -0.0036    0.0000 H   0  0  0  0  0  0  0  0  0  0  0  0
   -0.8705   -3.2863    0.0000 H   0  0  0  0  0  0  0  0  0  0  0  0
    0.8921   -3.8589    0.0000 H   0  0  0  0  0  0  0  0  0  0  0  0
   -0.1545   -4.0814    0.0000 H   0  0  0  0  0  0  0  0  0  0  0  0
    0.0501   -0.2322    0.0000 H   0  0  0  0  0  0  0  0  0  0  0  0
   -1.4522   -1.3236    0.0000 H   0  0  0  0  0  0  0  0  0  0  0  0
   -3.1487   -0.5684    0.0000 H   0  0  0  0  0  0  0  0  0  0  0  0
   -3.3428    1.2785    0.0000 H   0  0  0  0  0  0  0  0  0  0  0  0
   -1.8405    2.3699    0.0000 H   0  0  0  0  0  0  0  0  0  0  0  0
  1  2  1  0  0  0  0
  1 37  1  0  0  0  0
  1 38  1  0  0  0  0
  1 39  1  0  0  0  0
  2  3  2  0  0  0  0
  2  6  1  0  0  0  0
  3  4  1  0  0  0  0
  3 29  1  0  0  0  0
  4  5  1  0  0  0  0
  4 11  1  0  0  0  0
  5  6  1  0  0  0  0
  5 10  2  0  0  0  0
  6  7  2  0  0  0  0
  7  8  1  0  0  0  0
  7 40  1  0  0  0  0
  8  9  2  0  0  0  0
  8 41  1  0  0  0  0
  9 10  1  0  0  0  0
  9 42  1  0  0  0  0
 10 43  1  0  0  0  0
 11 12  2  0  0  0  0
 12 13  1  0  0  0  0
 13 14  1  0  0  0  0
 13 21  1  0  0  0  0
 14 15  2  0  0  0  0
 14 19  1  0  0  0  0
 15 16  1  0  0  0  0
 15 44  1  0  0  0  0
 16 17  2  0  0  0  0
 16 45  1  0  0  0  0
 17 18  1  0  0  0  0
 17 46  1  0  0  0  0
 18 19  2  0  0  0  0
 18 47  1  0  0  0  0
 19 20  1  0  0  0  0
 20 21  2  0  0  0  0
 20 28  1  0  0  0  0
 21 22  1  0  0  0  0
 22 23  2  0  0  0  0
 22 27  1  0  0  0  0
 23 24  1  0  0  0  0
 23 48  1  0  0  0  0
 24 25  2  0  0  0  0
 24 49  1  0  0  0  0
 25 26  1  0  0  0  0
 25 50  1  0  0  0  0
 26 27  2  0  0  0  0
 26 51  1  0  0  0  0
 27 52  1  0  0  0  0
 28 53  1  0  0  0  0
 28 54  1  0  0  0  0
 28 55  1  0  0  0  0
 29 30  2  0  0  0  0
 29 34  1  0  0  0  0
 30 31  1  0  0  0  0
 30 56  1  0  0  0  0
 31 32  2  0  0  0  0
 31 57  1  0  0  0  0
 32 33  1  0  0  0  0
 32 58  1  0  0  0  0
 33 34  2  0  0  0  0
 33 59  1  0  0  0  0
 34 60  1  0  0  0  0
M  CHG  4   6   1  19   1  35  -1  36  -1
M  END
>  <DRUGBANK_ID>
DB13745

>  <COMMON_NAME>
Fazadinium bromide

>  <CAS_NUMBER>
49564-56-9

>  <UNII>
8WV5538LFK

>  <SYNONYMS>
Fazadinium bromide

$$$$
