
 OpenBabel10282417072D

 56 59  0  0  1  0  0  0  0  0999 V2000
   -1.4289   -0.3397    0.0000 C   0  0  0  0  0  0  0  0  0  0  0  0
   -1.4289    0.4853    0.0000 C   0  0  0  0  0  0  0  0  0  0  0  0
    1.4289   -0.3397    0.0000 C   0  0  1  0  0  0  0  0  0  0  0  0
    1.4289    0.4853    0.0000 C   0  0  2  0  0  0  0  0  0  0  0  0
    0.7145   -0.7522    0.0000 C   0  0  0  0  0  0  0  0  0  0  0  0
    0.7145    0.8978    0.0000 C   0  0  0  0  0  0  0  0  0  0  0  0
    0.0000   -0.3397    0.0000 C   0  0  1  0  0  0  0  0  0  0  0  0
    0.0000    0.4853    0.0000 C   0  0  0  0  0  0  0  0  0  0  0  0
   -0.7145    0.8978    0.0000 C   0  0  0  0  0  0  0  0  0  0  0  0
   -0.7145   -0.7522    0.0000 C   0  0  2  0  0  0  0  0  0  0  0  0
    2.1434   -0.7522    0.0000 C   0  0  1  0  0  0  0  0  0  0  0  0
    2.1434    0.8978    0.0000 C   0  0  0  0  0  0  0  0  0  0  0  0
    1.4289    1.3103    0.0000 O   0  0  0  0  0  0  0  0  0  0  0  0
    2.8579   -0.3397    0.0000 C   0  0  0  0  0  0  0  0  0  0  0  0
    2.1434   -1.5772    0.0000 N   0  0  0  0  0  0  0  0  0  0  0  0
    0.7145    1.7228    0.0000 O   0  0  0  0  0  0  0  0  0  0  0  0
    2.8579    0.4853    0.0000 C   0  0  0  0  0  0  0  0  0  0  0  0
    2.1434    1.7228    0.0000 O   0  0  0  0  0  0  0  0  0  0  0  0
    3.5724   -0.7522    0.0000 O   0  0  0  0  0  0  0  0  0  0  0  0
    2.8579   -1.9897    0.0000 C   0  0  0  0  0  0  0  0  0  0  0  0
    1.4289   -1.9897    0.0000 C   0  0  0  0  0  0  0  0  0  0  0  0
    3.5724    0.8978    0.0000 C   0  0  0  0  0  0  0  0  0  0  0  0
   -0.7145    1.7228    0.0000 O   0  0  0  0  0  0  0  0  0  0  0  0
    4.2868    0.4853    0.0000 N   0  0  0  0  0  0  0  0  0  0  0  0
    3.5724    1.7228    0.0000 O   0  0  0  0  0  0  0  0  0  0  0  0
   -2.1434   -0.7522    0.0000 C   0  0  0  0  0  0  0  0  0  0  0  0
   -2.1434    0.8978    0.0000 C   0  0  0  0  0  0  0  0  0  0  0  0
   -2.8579   -0.3397    0.0000 C   0  0  0  0  0  0  0  0  0  0  0  0
   -2.8579    0.4853    0.0000 C   0  0  0  0  0  0  0  0  0  0  0  0
   -2.1434    1.7228    0.0000 O   0  0  0  0  0  0  0  0  0  0  0  0
    1.4289   -1.1647    0.0000 H   0  0  0  0  0  0  0  0  0  0  0  0
    0.0000   -1.1647    0.0000 H   0  0  0  0  0  0  0  0  0  0  0  0
   -1.4289   -1.1647    0.0000 O   0  0  0  0  0  0  0  0  0  0  0  0
   -0.7145   -1.5772    0.0000 C   0  0  0  0  0  0  0  0  0  0  0  0
    0.7145   -1.8222    0.0000 H   0  0  0  0  0  0  0  0  0  0  0  0
   -0.2121   -1.2872    0.0000 H   0  0  0  0  0  0  0  0  0  0  0  0
    1.2168   -1.2872    0.0000 H   0  0  0  0  0  0  0  0  0  0  0  0
    2.2689    1.7953    0.0000 H   0  0  0  0  0  0  0  0  0  0  0  0
    1.5260    2.1913    0.0000 H   0  0  0  0  0  0  0  0  0  0  0  0
    3.5724   -1.6892    0.0000 H   0  0  0  0  0  0  0  0  0  0  0  0
    2.8579   -3.0597    0.0000 H   0  0  0  0  0  0  0  0  0  0  0  0
    3.7845   -1.4547    0.0000 H   0  0  0  0  0  0  0  0  0  0  0  0
    3.7846   -2.5247    0.0000 H   0  0  0  0  0  0  0  0  0  0  0  0
    0.5023   -1.4547    0.0000 H   0  0  0  0  0  0  0  0  0  0  0  0
    1.4289   -3.0597    0.0000 H   0  0  0  0  0  0  0  0  0  0  0  0
    0.5022   -2.5247    0.0000 H   0  0  0  0  0  0  0  0  0  0  0  0
    4.2868   -0.4992    0.0000 H   0  0  0  0  0  0  0  0  0  0  0  0
    5.1394    0.9775    0.0000 H   0  0  0  0  0  0  0  0  0  0  0  0
   -2.1434   -1.7842    0.0000 H   0  0  0  0  0  0  0  0  0  0  0  0
   -3.7516   -0.8557    0.0000 H   0  0  0  0  0  0  0  0  0  0  0  0
   -3.7516    1.0013    0.0000 H   0  0  0  0  0  0  0  0  0  0  0  0
   -1.3319    2.1913    0.0000 H   0  0  0  0  0  0  0  0  0  0  0  0
   -2.2690   -0.6797    0.0000 H   0  0  0  0  0  0  0  0  0  0  0  0
   -1.6411   -2.1122    0.0000 H   0  0  0  0  0  0  0  0  0  0  0  0
    0.2121   -2.1122    0.0000 H   0  0  0  0  0  0  0  0  0  0  0  0
   -0.7145   -2.6472    0.0000 H   0  0  0  0  0  0  0  0  0  0  0  0
  1 26  2  0  0  0  0
  1  2  1  0  0  0  0
  2 27  2  0  0  0  0
  3 11  1  0  0  0  0
  3 31  1  1  0  0  0
  3  4  1  0  0  0  0
  3  5  1  0  0  0  0
  4 12  1  0  0  0  0
  4 13  1  1  0  0  0
  4  6  1  0  0  0  0
  5  7  1  0  0  0  0
  5 35  1  0  0  0  0
  5 36  1  0  0  0  0
  6 16  1  0  0  0  0
  6  8  2  0  0  0  0
  7 32  1  1  0  0  0
  7  8  1  0  0  0  0
  7 10  1  0  0  0  0
  8  9  1  0  0  0  0
  9  2  1  0  0  0  0
  9 23  2  0  0  0  0
 10  1  1  0  0  0  0
 10 34  1  0  0  0  0
 10 33  1  6  0  0  0
 11 14  1  0  0  0  0
 11 15  1  0  0  0  0
 11 37  1  6  0  0  0
 12 17  1  0  0  0  0
 12 18  2  0  0  0  0
 13 38  1  0  0  0  0
 14 19  1  0  0  0  0
 14 17  2  0  0  0  0
 15 20  1  0  0  0  0
 15 21  1  0  0  0  0
 16 39  1  0  0  0  0
 17 22  1  0  0  0  0
 19 40  1  0  0  0  0
 20 41  1  0  0  0  0
 20 42  1  0  0  0  0
 20 43  1  0  0  0  0
 21 44  1  0  0  0  0
 21 45  1  0  0  0  0
 21 46  1  0  0  0  0
 22 24  1  0  0  0  0
 22 25  2  0  0  0  0
 24 47  1  0  0  0  0
 24 48  1  0  0  0  0
 26 28  1  0  0  0  0
 26 49  1  0  0  0  0
 27 29  1  0  0  0  0
 27 30  1  0  0  0  0
 28 29  2  0  0  0  0
 28 50  1  0  0  0  0
 29 51  1  0  0  0  0
 30 52  1  0  0  0  0
 33 53  1  0  0  0  0
 34 54  1  0  0  0  0
 34 55  1  0  0  0  0
 34 56  1  0  0  0  0
M  END
>  <DRUGBANK_ID>
DB00759

>  <SECONDARY_ACCESSION_NUMBERS>
APRD00572

>  <COMMON_NAME>
Tetracycline

>  <CAS_NUMBER>
60-54-8

>  <UNII>
F8VB5M810T

>  <SYNONYMS>
(4S,4aS,5aS,12aS)-4-(Dimethylamino)-1,4,4a,5,5a,6,11,12a-octahydro-3,6,10,12,12a-pentahydroxy-6-methyl-1,11-dioxo-2-naphthacenecarboxamide; Abramycin; Anhydrotetracycline; Deschlorobiomycin; Tetracyclin; TÃ©tracycline; Tetracycline; Tetracyclinum; Tetrazyklin; Tsiklomitsin

$$$$
