3BD
 OpenBabel10282417072D

 55 58  0  0  0  0  0  0  0  0999 V2000
    2.6958    0.7570    0.0000 C   0  0  0  0  0  0  0  0  0  0  0  0
    0.5524   -0.4805    0.0000 C   0  0  0  0  0  0  0  0  0  0  0  0
   -1.5910    2.4070    0.0000 C   0  0  0  0  0  0  0  0  0  0  0  0
   -2.3055    2.8195    0.0000 C   0  0  0  0  0  0  0  0  0  0  0  0
   -2.0035    1.6926    0.0000 C   0  0  0  0  0  0  0  0  0  0  0  0
   -1.1785    3.1215    0.0000 C   0  0  0  0  0  0  0  0  0  0  0  0
    0.5524   -1.3055    0.0000 C   0  0  0  0  0  0  0  0  0  0  0  0
   -0.8766   -1.3055    0.0000 C   0  0  0  0  0  0  0  0  0  0  0  0
    3.4103    1.1695    0.0000 O   0  0  0  0  0  0  0  0  0  0  0  0
   -0.1621    2.4070    0.0000 N   0  0  0  0  0  0  0  0  0  0  0  0
    1.9813    1.9945    0.0000 C   0  0  0  0  0  0  0  0  0  0  0  0
    1.9813    1.1695    0.0000 C   0  0  0  0  0  0  0  0  0  0  0  0
    1.2669    0.7570    0.0000 C   0  0  0  0  0  0  0  0  0  0  0  0
    0.5524    1.9945    0.0000 C   0  0  0  0  0  0  0  0  0  0  0  0
   -0.8766    1.9945    0.0000 C   0  0  0  0  0  0  0  0  0  0  0  0
    1.2669    2.4070    0.0000 N   0  0  0  0  0  0  0  0  0  0  0  0
   -0.8766    1.1695    0.0000 N   0  0  0  0  0  0  0  0  0  0  0  0
    0.5524    1.1695    0.0000 C   0  0  0  0  0  0  0  0  0  0  0  0
   -0.1621    0.7570    0.0000 C   0  0  0  0  0  0  0  0  0  0  0  0
    2.6958    2.4070    0.0000 N   0  0  0  0  0  0  0  0  0  0  0  0
    2.6958   -0.0680    0.0000 N   0  0  0  0  0  0  0  0  0  0  0  0
   -0.1621   -0.0680    0.0000 N   0  0  0  0  0  0  0  0  0  0  0  0
   -0.1621   -1.7180    0.0000 N   0  0  0  0  0  0  0  0  0  0  0  0
   -0.8766   -0.4805    0.0000 C   0  0  0  0  0  0  0  0  0  0  0  0
   -0.1621   -2.5430    0.0000 C   0  0  0  0  0  0  0  0  0  0  0  0
    0.5524   -2.9555    0.0000 N   0  0  0  0  0  0  0  0  0  0  0  0
    0.5524   -3.7805    0.0000 C   0  0  0  0  0  0  0  0  0  0  0  0
   -0.1621   -4.1930    0.0000 C   0  0  0  0  0  0  0  0  0  0  0  0
   -0.8766   -3.7805    0.0000 C   0  0  0  0  0  0  0  0  0  0  0  0
   -0.8766   -2.9555    0.0000 N   0  0  0  0  0  0  0  0  0  0  0  0
    1.4790    0.0545    0.0000 H   0  0  0  0  0  0  0  0  0  0  0  0
    0.5524    0.5895    0.0000 H   0  0  0  0  0  0  0  0  0  0  0  0
   -2.3055    3.8895    0.0000 H   0  0  0  0  0  0  0  0  0  0  0  0
   -3.2321    2.2845    0.0000 H   0  0  0  0  0  0  0  0  0  0  0  0
   -3.2322    3.3545    0.0000 H   0  0  0  0  0  0  0  0  0  0  0  0
   -3.0735    1.6926    0.0000 H   0  0  0  0  0  0  0  0  0  0  0  0
   -1.4685    0.7659    0.0000 H   0  0  0  0  0  0  0  0  0  0  0  0
   -2.5385    0.7660    0.0000 H   0  0  0  0  0  0  0  0  0  0  0  0
   -0.1085    3.1215    0.0000 H   0  0  0  0  0  0  0  0  0  0  0  0
   -1.7135    4.0481    0.0000 H   0  0  0  0  0  0  0  0  0  0  0  0
   -0.6435    4.0482    0.0000 H   0  0  0  0  0  0  0  0  0  0  0  0
    1.4790   -1.8405    0.0000 H   0  0  0  0  0  0  0  0  0  0  0  0
    0.5524   -2.3755    0.0000 H   0  0  0  0  0  0  0  0  0  0  0  0
   -1.8032   -1.8405    0.0000 H   0  0  0  0  0  0  0  0  0  0  0  0
   -1.8032   -0.7705    0.0000 H   0  0  0  0  0  0  0  0  0  0  0  0
    1.2669   -0.2750    0.0000 H   0  0  0  0  0  0  0  0  0  0  0  0
    3.5484    1.9147    0.0000 H   0  0  0  0  0  0  0  0  0  0  0  0
    2.6958    3.3915    0.0000 H   0  0  0  0  0  0  0  0  0  0  0  0
    1.8432   -0.5603    0.0000 H   0  0  0  0  0  0  0  0  0  0  0  0
    3.5484   -0.5602    0.0000 H   0  0  0  0  0  0  0  0  0  0  0  0
   -1.8032    0.0545    0.0000 H   0  0  0  0  0  0  0  0  0  0  0  0
   -0.8766    0.5895    0.0000 H   0  0  0  0  0  0  0  0  0  0  0  0
    1.4461   -4.2965    0.0000 H   0  0  0  0  0  0  0  0  0  0  0  0
   -0.1621   -5.2250    0.0000 H   0  0  0  0  0  0  0  0  0  0  0  0
   -1.7703   -4.2965    0.0000 H   0  0  0  0  0  0  0  0  0  0  0  0
  1  9  2  0  0  0  0
  1 12  1  0  0  0  0
  1 21  1  0  0  0  0
  2  7  1  0  0  0  0
  2 22  1  0  0  0  0
  2 31  1  0  0  0  0
  2 32  1  0  0  0  0
  3  4  1  0  0  0  0
  3  5  1  0  0  0  0
  3  6  1  0  0  0  0
  3 15  1  0  0  0  0
  4 33  1  0  0  0  0
  4 34  1  0  0  0  0
  4 35  1  0  0  0  0
  5 36  1  0  0  0  0
  5 37  1  0  0  0  0
  5 38  1  0  0  0  0
  6 39  1  0  0  0  0
  6 40  1  0  0  0  0
  6 41  1  0  0  0  0
  7 23  1  0  0  0  0
  7 42  1  0  0  0  0
  7 43  1  0  0  0  0
  8 23  1  0  0  0  0
  8 24  1  0  0  0  0
  8 44  1  0  0  0  0
  8 45  1  0  0  0  0
 10 14  2  0  0  0  0
 10 15  1  0  0  0  0
 11 12  1  0  0  0  0
 11 16  2  0  0  0  0
 11 20  1  0  0  0  0
 12 13  2  0  0  0  0
 13 18  1  0  0  0  0
 13 46  1  0  0  0  0
 14 16  1  0  0  0  0
 14 18  1  0  0  0  0
 15 17  2  0  0  0  0
 17 19  1  0  0  0  0
 18 19  2  0  0  0  0
 19 22  1  0  0  0  0
 20 47  1  0  0  0  0
 20 48  1  0  0  0  0
 21 49  1  0  0  0  0
 21 50  1  0  0  0  0
 22 24  1  0  0  0  0
 23 25  1  0  0  0  0
 24 51  1  0  0  0  0
 24 52  1  0  0  0  0
 25 26  2  0  0  0  0
 25 30  1  0  0  0  0
 26 27  1  0  0  0  0
 27 28  2  0  0  0  0
 27 53  1  0  0  0  0
 28 29  1  0  0  0  0
 28 54  1  0  0  0  0
 29 30  2  0  0  0  0
 29 55  1  0  0  0  0
M  END
>  <DRUGBANK_ID>
DB07043

>  <COMMON_NAME>
7-amino-2-tert-butyl-4-(4-pyrimidin-2-ylpiperazin-1-yl)pyrido[2,3-d]pyrimidine-6-carboxamide

$$$$
