
 OpenBabel10282417072D

 47 49  0  0  1  0  0  0  0  0999 V2000
   -3.6917   -0.3011    0.0000 C   0  0  0  0  0  0  0  0  0  0  0  0
   -2.9772   -0.7136    0.0000 C   0  0  0  0  0  0  0  0  0  0  0  0
   -2.9772   -1.5386    0.0000 C   0  0  2  0  0  0  0  0  0  0  0  0
   -3.6917   -1.9511    0.0000 C   0  0  0  0  0  0  0  0  0  0  0  0
   -4.4061   -1.5386    0.0000 N   0  0  0  0  0  0  0  0  0  0  0  0
   -4.4061   -0.7136    0.0000 C   0  0  0  0  0  0  0  0  0  0  0  0
   -2.2627   -1.9511    0.0000 C   0  0  0  0  0  0  0  0  0  0  0  0
   -2.2627   -2.7761    0.0000 O   0  0  0  0  0  0  0  0  0  0  0  0
   -1.5483   -1.5386    0.0000 N   0  0  0  0  0  0  0  0  0  0  0  0
   -0.8338   -1.9511    0.0000 N   0  0  0  0  0  0  0  0  0  0  0  0
   -0.1193   -1.5386    0.0000 C   0  0  0  0  0  0  0  0  0  0  0  0
   -0.1193   -0.7136    0.0000 O   0  0  0  0  0  0  0  0  0  0  0  0
    0.5952   -1.9511    0.0000 C   0  0  2  0  0  0  0  0  0  0  0  0
    0.5335   -2.7738    0.0000 C   0  0  0  0  0  0  0  0  0  0  0  0
    1.1383   -3.3349    0.0000 C   0  0  0  0  0  0  0  0  0  0  0  0
    1.9541   -3.2120    0.0000 C   0  0  2  0  0  0  0  0  0  0  0  0
    1.8311   -2.2645    0.0000 C   0  0  0  0  0  0  0  0  0  0  0  0
    1.2768   -1.4864    0.0000 N   0  0  0  0  0  0  0  0  0  0  0  0
    2.0652   -1.7295    0.0000 C   0  0  0  0  0  0  0  0  0  0  0  0
    2.6263   -1.1248    0.0000 O   0  0  0  0  0  0  0  0  0  0  0  0
    2.3666   -2.4975    0.0000 N   0  0  0  0  0  0  0  0  0  0  0  0
    3.1893   -2.5592    0.0000 O   0  0  0  0  0  0  0  0  0  0  0  0
    3.6540   -1.8775    0.0000 S   0  0  0  0  0  0  0  0  0  0  0  0
    4.1187   -1.1959    0.0000 O   0  0  0  0  0  0  0  0  0  0  0  0
    4.3356   -2.3423    0.0000 O   0  0  0  0  0  0  0  0  0  0  0  0
    2.9723   -1.4128    0.0000 O   0  0  0  0  0  0  0  0  0  0  0  0
   -3.6917    0.7689    0.0000 H   0  0  0  0  0  0  0  0  0  0  0  0
   -4.6184    0.2339    0.0000 H   0  0  0  0  0  0  0  0  0  0  0  0
   -2.0506   -0.1786    0.0000 H   0  0  0  0  0  0  0  0  0  0  0  0
   -2.0506   -1.2486    0.0000 H   0  0  0  0  0  0  0  0  0  0  0  0
   -2.0506   -1.0036    0.0000 H   0  0  0  0  0  0  0  0  0  0  0  0
   -3.6917   -3.0211    0.0000 H   0  0  0  0  0  0  0  0  0  0  0  0
   -4.6184   -2.4861    0.0000 H   0  0  0  0  0  0  0  0  0  0  0  0
   -5.2895   -2.0486    0.0000 H   0  0  0  0  0  0  0  0  0  0  0  0
   -5.3328   -0.1786    0.0000 H   0  0  0  0  0  0  0  0  0  0  0  0
   -4.4061    0.3564    0.0000 H   0  0  0  0  0  0  0  0  0  0  0  0
   -1.5483   -0.5541    0.0000 H   0  0  0  0  0  0  0  0  0  0  0  0
   -0.8338   -2.9356    0.0000 H   0  0  0  0  0  0  0  0  0  0  0  0
   -0.3508   -2.4511    0.0000 H   0  0  0  0  0  0  0  0  0  0  0  0
   -0.4625   -3.1647    0.0000 H   0  0  0  0  0  0  0  0  0  0  0  0
    0.3346   -3.8252    0.0000 H   0  0  0  0  0  0  0  0  0  0  0  0
    0.8229   -4.3574    0.0000 H   0  0  0  0  0  0  0  0  0  0  0  0
    1.8362   -4.1460    0.0000 H   0  0  0  0  0  0  0  0  0  0  0  0
    1.0998   -2.5678    0.0000 H   0  0  0  0  0  0  0  0  0  0  0  0
    2.8271   -1.8735    0.0000 H   0  0  0  0  0  0  0  0  0  0  0  0
    2.1359   -1.2388    0.0000 H   0  0  0  0  0  0  0  0  0  0  0  0
    3.0447   -0.4455    0.0000 H   0  0  0  0  0  0  0  0  0  0  0  0
  1  2  1  0  0  0  0
  1  6  1  0  0  0  0
  1 27  1  0  0  0  0
  1 28  1  0  0  0  0
  2  3  1  0  0  0  0
  2 29  1  0  0  0  0
  2 30  1  0  0  0  0
  3  4  1  0  0  0  0
  3  7  1  0  0  0  0
  3 31  1  6  0  0  0
  4  5  1  0  0  0  0
  4 32  1  0  0  0  0
  4 33  1  0  0  0  0
  5  6  1  0  0  0  0
  5 34  1  0  0  0  0
  6 35  1  0  0  0  0
  6 36  1  0  0  0  0
  7  8  2  0  0  0  0
  7  9  1  0  0  0  0
  9 10  1  0  0  0  0
  9 37  1  0  0  0  0
 10 11  1  0  0  0  0
 10 38  1  0  0  0  0
 11 12  2  0  0  0  0
 13 11  1  0  0  0  0
 13 14  1  0  0  0  0
 13 18  1  0  0  0  0
 13 39  1  6  0  0  0
 14 15  1  0  0  0  0
 14 40  1  0  0  0  0
 14 41  1  0  0  0  0
 15 16  1  0  0  0  0
 15 42  1  0  0  0  0
 15 43  1  0  0  0  0
 16 17  1  0  0  0  0
 16 21  1  0  0  0  0
 16 44  1  1  0  0  0
 17 45  1  0  0  0  0
 17 46  1  0  0  0  0
 18 17  1  0  0  0  0
 18 19  1  0  0  0  0
 19 20  2  0  0  0  0
 19 21  1  0  0  0  0
 21 22  1  0  0  0  0
 22 23  1  0  0  0  0
 23 24  2  0  0  0  0
 23 25  2  0  0  0  0
 23 26  1  0  0  0  0
 26 47  1  0  0  0  0
M  END
>  <DRUGBANK_ID>
DB13090

>  <COMMON_NAME>
Zidebactam

>  <CAS_NUMBER>
1436861-97-0

>  <UNII>
YPM97423DB

>  <SYNONYMS>
Zidebactam

$$$$
