
 OpenBabel10282417072D

  1  0  0  0  0  0  0  0  0  0999 V2000
    0.0000    0.0000    0.0000 He  0  0  0  0  0  0  0  0  0  0  0  0
M  ISO  1   1   3
M  END
>  <DRUGBANK_ID>
DB12940

>  <COMMON_NAME>
Helium He-3

>  <CAS_NUMBER>
14762-55-1

>  <UNII>
I83W8ELB18

>  <SYNONYMS>
Helium-3; Helium, He-3

$$$$
