
 OpenBabel10282417072D

 44 47  0  0  1  0  0  0  0  0999 V2000
    3.2147    1.4754    0.0000 C   0  0  0  0  0  0  0  0  0  0  0  0
    3.9726    1.1494    0.0000 C   0  0  2  0  0  0  0  0  0  0  0  0
    4.7962    1.1022    0.0000 C   0  0  0  0  0  0  0  0  0  0  0  0
    5.1672    0.3654    0.0000 C   0  0  0  0  0  0  0  0  0  0  0  0
    4.7145   -0.3244    0.0000 C   0  0  0  0  0  0  0  0  0  0  0  0
    3.8909   -0.2772    0.0000 N   0  0  3  0  0  0  0  0  0  0  0  0
    3.5199    0.4596    0.0000 C   0  0  2  0  0  0  0  0  0  0  0  0
    2.6962    0.5068    0.0000 C   0  0  0  0  0  0  0  0  0  0  0  0
    2.2436   -0.1829    0.0000 C   0  0  0  0  0  0  0  0  0  0  0  0
    1.4477    0.0344    0.0000 C   0  0  0  0  0  0  0  0  0  0  0  0
    0.7537   -0.4116    0.0000 C   0  0  0  0  0  0  0  0  0  0  0  0
    0.0204   -0.0335    0.0000 C   0  0  0  0  0  0  0  0  0  0  0  0
   -0.0188    0.7906    0.0000 C   0  0  0  0  0  0  0  0  0  0  0  0
    0.6753    1.2366    0.0000 C   0  0  0  0  0  0  0  0  0  0  0  0
    1.4085    0.8585    0.0000 C   0  0  0  0  0  0  0  0  0  0  0  0
    2.1801    1.1504    0.0000 O   0  0  0  0  0  0  0  0  0  0  0  0
    2.6146   -0.9198    0.0000 C   0  0  0  0  0  0  0  0  0  0  0  0
    3.4382   -0.9670    0.0000 C   0  0  0  0  0  0  0  0  0  0  0  0
    4.1620    1.9523    0.0000 C   0  0  0  0  0  0  0  0  0  0  0  0
    4.9521    2.1897    0.0000 O   0  0  0  0  0  0  0  0  0  0  0  0
    5.1416    2.9927    0.0000 C   0  0  0  0  0  0  0  0  0  0  0  0
    3.0894    2.5380    0.0000 H   0  0  0  0  0  0  0  0  0  0  0  0
    2.3571    0.8356    0.0000 H   0  0  0  0  0  0  0  0  0  0  0  0
    2.2318    1.8982    0.0000 H   0  0  0  0  0  0  0  0  0  0  0  0
    5.3833    1.9968    0.0000 H   0  0  0  0  0  0  0  0  0  0  0  0
    5.8645    1.0411    0.0000 H   0  0  0  0  0  0  0  0  0  0  0  0
    6.2355    0.3043    0.0000 H   0  0  0  0  0  0  0  0  0  0  0  0
    5.6484   -0.5903    0.0000 H   0  0  0  0  0  0  0  0  0  0  0  0
    5.1956   -1.2801    0.0000 H   0  0  0  0  0  0  0  0  0  0  0  0
    4.1274   -1.2189    0.0000 H   0  0  0  0  0  0  0  0  0  0  0  0
    2.9328   -0.4350    0.0000 H   0  0  0  0  0  0  0  0  0  0  0  0
    0.8028   -1.4424    0.0000 H   0  0  0  0  0  0  0  0  0  0  0  0
   -0.8478   -0.5914    0.0000 H   0  0  0  0  0  0  0  0  0  0  0  0
   -0.9360    1.2636    0.0000 H   0  0  0  0  0  0  0  0  0  0  0  0
    0.6263    2.2674    0.0000 H   0  0  0  0  0  0  0  0  0  0  0  0
    2.0275   -1.8143    0.0000 H   0  0  0  0  0  0  0  0  0  0  0  0
    3.0957   -1.8755    0.0000 H   0  0  0  0  0  0  0  0  0  0  0  0
    3.9193   -1.9227    0.0000 H   0  0  0  0  0  0  0  0  0  0  0  0
    4.5065   -1.0282    0.0000 H   0  0  0  0  0  0  0  0  0  0  0  0
    3.3830    2.6858    0.0000 H   0  0  0  0  0  0  0  0  0  0  0  0
    4.4077    2.9937    0.0000 H   0  0  0  0  0  0  0  0  0  0  0  0
    6.1664    3.3006    0.0000 H   0  0  0  0  0  0  0  0  0  0  0  0
    4.3626    3.7262    0.0000 H   0  0  0  0  0  0  0  0  0  0  0  0
    5.3874    4.0341    0.0000 H   0  0  0  0  0  0  0  0  0  0  0  0
  1 22  1  0  0  0  0
  1 23  1  0  0  0  0
  1 24  1  0  0  0  0
  2  1  1  6  0  0  0
  2  3  1  0  0  0  0
  2  7  1  0  0  0  0
  2 19  1  0  0  0  0
  3  4  1  0  0  0  0
  3 25  1  0  0  0  0
  3 26  1  0  0  0  0
  4  5  1  0  0  0  0
  4 27  1  0  0  0  0
  4 28  1  0  0  0  0
  5  6  1  0  0  0  0
  5 29  1  0  0  0  0
  5 30  1  0  0  0  0
  6  7  1  0  0  0  0
  6 18  1  0  0  0  0
  7  8  1  0  0  0  0
  7 31  1  1  0  0  0
  8  9  2  0  0  0  0
  8 16  1  0  0  0  0
  9 10  1  0  0  0  0
  9 17  1  0  0  0  0
 10 11  2  0  0  0  0
 10 15  1  0  0  0  0
 11 12  1  0  0  0  0
 11 32  1  0  0  0  0
 12 13  2  0  0  0  0
 12 33  1  0  0  0  0
 13 14  1  0  0  0  0
 13 34  1  0  0  0  0
 14 15  2  0  0  0  0
 14 35  1  0  0  0  0
 15 16  1  0  0  0  0
 17 18  1  0  0  0  0
 17 36  1  0  0  0  0
 17 37  1  0  0  0  0
 18 38  1  0  0  0  0
 18 39  1  0  0  0  0
 19 20  1  0  0  0  0
 19 40  1  0  0  0  0
 19 41  1  0  0  0  0
 20 21  1  0  0  0  0
 21 42  1  0  0  0  0
 21 43  1  0  0  0  0
 21 44  1  0  0  0  0
M  END
>  <DRUGBANK_ID>
DB12057

>  <COMMON_NAME>
ORM-12741

>  <CAS_NUMBER>
610782-82-6

>  <UNII>
C5D3YG7ZR8

$$$$
