
 OpenBabel10282417072D

 43 46  0  0  1  0  0  0  0  0999 V2000
    6.2068    1.2552    0.0000 O   0  0  0  0  0  0  0  0  0  0  0  0
    4.1129    1.6713    0.0000 O   0  0  0  0  0  0  0  0  0  0  0  0
    5.1704    3.1215    0.0000 O   0  0  0  0  0  0  0  0  0  0  0  0
    1.6500   -2.7866    0.0000 O   0  0  0  0  0  0  0  0  0  0  0  0
    7.6296    2.2271    0.0000 O   0  0  0  0  0  0  0  0  0  0  0  0
    5.1654    0.2174    0.0000 N   0  0  0  0  0  0  0  0  0  0  0  0
    3.6703   -2.0965    0.0000 N   0  0  0  0  0  0  0  0  0  0  0  0
    5.1654   -1.1105    0.0000 N   0  0  0  0  0  0  0  0  0  0  0  0
    3.6703    0.3785    0.0000 N   0  0  0  0  0  0  0  0  0  0  0  0
    2.9558   -0.8590    0.0000 N   0  0  0  0  0  0  0  0  0  0  0  0
    5.4217    1.0016    0.0000 C   0  0  1  0  0  0  0  0  0  0  0  0
    4.9379    1.6698    0.0000 C   0  0  1  0  0  0  0  0  0  0  0  0
    5.4240    2.3365    0.0000 C   0  0  1  0  0  0  0  0  0  0  0  0
    6.2082    2.0802    0.0000 C   0  0  1  0  0  0  0  0  0  0  0  0
    6.8765    2.5640    0.0000 C   0  0  0  0  0  0  0  0  0  0  0  0
    2.9558   -2.5090    0.0000 C   0  0  2  0  0  0  0  0  0  0  0  0
    4.3847   -0.0340    0.0000 C   0  0  0  0  0  0  0  0  0  0  0  0
    2.8695   -3.3296    0.0000 C   0  0  0  0  0  0  0  0  0  0  0  0
    4.3847   -0.8590    0.0000 C   0  0  0  0  0  0  0  0  0  0  0  0
    5.6469   -0.4465    0.0000 C   0  0  0  0  0  0  0  0  0  0  0  0
    2.2021   -2.1735    0.0000 C   0  0  0  0  0  0  0  0  0  0  0  0
    3.6703   -1.2715    0.0000 C   0  0  0  0  0  0  0  0  0  0  0  0
    2.0625   -3.5011    0.0000 C   0  0  0  0  0  0  0  0  0  0  0  0
    2.9558   -0.0340    0.0000 C   0  0  0  0  0  0  0  0  0  0  0  0
    3.6294    2.5122    0.0000 H   0  0  0  0  0  0  0  0  0  0  0  0
    5.8207    3.8413    0.0000 H   0  0  0  0  0  0  0  0  0  0  0  0
    7.7293    1.2622    0.0000 H   0  0  0  0  0  0  0  0  0  0  0  0
    4.5229   -2.5888    0.0000 H   0  0  0  0  0  0  0  0  0  0  0  0
    6.1770    0.2437    0.0000 H   0  0  0  0  0  0  0  0  0  0  0  0
    4.4505    0.7173    0.0000 H   0  0  0  0  0  0  0  0  0  0  0  0
    4.3675    2.5057    0.0000 H   0  0  0  0  0  0  0  0  0  0  0  0
    7.1607    1.5928    0.0000 H   0  0  0  0  0  0  0  0  0  0  0  0
    6.7665    3.6283    0.0000 H   0  0  0  0  0  0  0  0  0  0  0  0
    5.8998    3.0009    0.0000 H   0  0  0  0  0  0  0  0  0  0  0  0
    3.8532   -3.0918    0.0000 H   0  0  0  0  0  0  0  0  0  0  0  0
    3.6646   -4.0456    0.0000 H   0  0  0  0  0  0  0  0  0  0  0  0
    2.5925   -4.3631    0.0000 H   0  0  0  0  0  0  0  0  0  0  0  0
    6.6789   -0.4465    0.0000 H   0  0  0  0  0  0  0  0  0  0  0  0
    1.9796   -1.1269    0.0000 H   0  0  0  0  0  0  0  0  0  0  0  0
    3.0336   -1.5001    0.0000 H   0  0  0  0  0  0  0  0  0  0  0  0
    1.6273   -4.4786    0.0000 H   0  0  0  0  0  0  0  0  0  0  0  0
    2.7358   -4.3327    0.0000 H   0  0  0  0  0  0  0  0  0  0  0  0
    2.0621    0.4820    0.0000 H   0  0  0  0  0  0  0  0  0  0  0  0
  1 11  1  0  0  0  0
  1 14  1  0  0  0  0
  2 25  1  0  0  0  0
  3 26  1  0  0  0  0
  4 21  1  0  0  0  0
  4 23  1  0  0  0  0
  5 15  1  0  0  0  0
  5 27  1  0  0  0  0
  6 17  1  0  0  0  0
  6 20  1  0  0  0  0
  7 22  1  0  0  0  0
  7 28  1  0  0  0  0
  8 19  1  0  0  0  0
  8 20  2  0  0  0  0
  9 17  2  0  0  0  0
  9 24  1  0  0  0  0
 10 22  1  0  0  0  0
 10 24  2  0  0  0  0
 11  6  1  0  0  0  0
 11 12  1  0  0  0  0
 11 29  1  6  0  0  0
 12  2  1  0  0  0  0
 12 13  1  0  0  0  0
 12 30  1  1  0  0  0
 13  3  1  0  0  0  0
 13 14  1  0  0  0  0
 13 31  1  1  0  0  0
 14 15  1  0  0  0  0
 14 32  1  6  0  0  0
 15 33  1  0  0  0  0
 15 34  1  0  0  0  0
 16  7  1  0  0  0  0
 16 18  1  0  0  0  0
 16 21  1  0  0  0  0
 16 35  1  1  0  0  0
 17 19  1  0  0  0  0
 18 23  1  0  0  0  0
 18 36  1  0  0  0  0
 18 37  1  0  0  0  0
 19 22  2  0  0  0  0
 20 38  1  0  0  0  0
 21 39  1  0  0  0  0
 21 40  1  0  0  0  0
 23 41  1  0  0  0  0
 23 42  1  0  0  0  0
 24 43  1  0  0  0  0
M  END
>  <DRUGBANK_ID>
DB04954

>  <COMMON_NAME>
Tecadenoson

>  <CAS_NUMBER>
204512-90-3

>  <UNII>
GZ1X96601Z

>  <SYNONYMS>
Tecadenoson

$$$$
