
 OpenBabel10282417072D

 72 76  0  0  1  0  0  0  0  0999 V2000
    2.3645    1.2375    0.0000 C   0  0  0  0  0  0  0  0  0  0  0  0
    1.9520    1.9520    0.0000 C   0  0  2  0  0  0  0  0  0  0  0  0
    1.1270    1.9520    0.0000 N   0  0  0  0  0  0  0  0  0  0  0  0
    0.7145    1.2375    0.0000 P   0  0  3  0  0  0  0  0  0  0  0  0
    0.0000    1.6500    0.0000 O   0  0  0  0  0  0  0  0  0  0  0  0
    0.3020    0.5230    0.0000 O   0  0  0  0  0  0  0  0  0  0  0  0
   -0.5230    0.5230    0.0000 C   0  0  0  0  0  0  0  0  0  0  0  0
   -0.9355   -0.1914    0.0000 C   0  0  1  0  0  0  0  0  0  0  0  0
   -0.6000   -0.9451    0.0000 O   0  0  0  0  0  0  0  0  0  0  0  0
   -1.2131   -1.4971    0.0000 C   0  0  2  0  0  0  0  0  0  0  0  0
   -1.9275   -1.0846    0.0000 C   0  0  0  0  0  0  0  0  0  0  0  0
   -1.7560   -0.2777    0.0000 C   0  0  2  0  0  0  0  0  0  0  0  0
   -2.3080    0.3354    0.0000 O   0  0  0  0  0  0  0  0  0  0  0  0
   -1.1268   -2.3176    0.0000 N   0  0  0  0  0  0  0  0  0  0  0  0
   -0.3732   -2.6532    0.0000 C   0  0  0  0  0  0  0  0  0  0  0  0
   -0.2869   -3.4737    0.0000 C   0  0  0  0  0  0  0  0  0  0  0  0
    0.4668   -3.8092    0.0000 F   0  0  0  0  0  0  0  0  0  0  0  0
   -0.9544   -3.9586    0.0000 C   0  0  0  0  0  0  0  0  0  0  0  0
   -0.8681   -4.7791    0.0000 O   0  0  0  0  0  0  0  0  0  0  0  0
   -1.7080   -3.6230    0.0000 N   0  0  0  0  0  0  0  0  0  0  0  0
   -1.7943   -2.8026    0.0000 C   0  0  0  0  0  0  0  0  0  0  0  0
   -2.5479   -2.4670    0.0000 O   0  0  0  0  0  0  0  0  0  0  0  0
    1.4289    0.8250    0.0000 O   0  0  0  0  0  0  0  0  0  0  0  0
    1.4289    0.0000    0.0000 C   0  0  0  0  0  0  0  0  0  0  0  0
    2.1434   -0.4125    0.0000 C   0  0  0  0  0  0  0  0  0  0  0  0
    2.8579    0.0000    0.0000 C   0  0  0  0  0  0  0  0  0  0  0  0
    3.5724   -0.4125    0.0000 C   0  0  0  0  0  0  0  0  0  0  0  0
    3.5724   -1.2375    0.0000 C   0  0  0  0  0  0  0  0  0  0  0  0
    2.8579   -1.6500    0.0000 C   0  0  0  0  0  0  0  0  0  0  0  0
    2.1434   -1.2375    0.0000 C   0  0  0  0  0  0  0  0  0  0  0  0
    1.4289   -1.6500    0.0000 C   0  0  0  0  0  0  0  0  0  0  0  0
    0.7145   -1.2375    0.0000 C   0  0  0  0  0  0  0  0  0  0  0  0
    0.7145   -0.4125    0.0000 C   0  0  0  0  0  0  0  0  0  0  0  0
    2.3645    2.6664    0.0000 C   0  0  0  0  0  0  0  0  0  0  0  0
    1.9520    3.3809    0.0000 O   0  0  0  0  0  0  0  0  0  0  0  0
    3.1895    2.6664    0.0000 O   0  0  0  0  0  0  0  0  0  0  0  0
    3.6020    3.3809    0.0000 C   0  0  0  0  0  0  0  0  0  0  0  0
    4.4270    3.3809    0.0000 C   0  0  0  0  0  0  0  0  0  0  0  0
    4.8395    4.0954    0.0000 C   0  0  0  0  0  0  0  0  0  0  0  0
    5.6645    4.0954    0.0000 C   0  0  0  0  0  0  0  0  0  0  0  0
    6.0770    3.3809    0.0000 C   0  0  0  0  0  0  0  0  0  0  0  0
    5.6645    2.6664    0.0000 C   0  0  0  0  0  0  0  0  0  0  0  0
    4.8395    2.6664    0.0000 C   0  0  0  0  0  0  0  0  0  0  0  0
    1.8295    0.3109    0.0000 H   0  0  0  0  0  0  0  0  0  0  0  0
    3.4345    1.2375    0.0000 H   0  0  0  0  0  0  0  0  0  0  0  0
    2.8995    0.3108    0.0000 H   0  0  0  0  0  0  0  0  0  0  0  0
    1.4170    1.0254    0.0000 H   0  0  0  0  0  0  0  0  0  0  0  0
    0.6170    2.8353    0.0000 H   0  0  0  0  0  0  0  0  0  0  0  0
   -1.0580    1.4497    0.0000 H   0  0  0  0  0  0  0  0  0  0  0  0
   -1.5930    0.5230    0.0000 H   0  0  0  0  0  0  0  0  0  0  0  0
    0.1330   -0.2475    0.0000 H   0  0  0  0  0  0  0  0  0  0  0  0
   -0.2142   -1.8805    0.0000 H   0  0  0  0  0  0  0  0  0  0  0  0
   -2.9050   -1.5198    0.0000 H   0  0  0  0  0  0  0  0  0  0  0  0
   -2.7590   -0.4112    0.0000 H   0  0  0  0  0  0  0  0  0  0  0  0
   -2.7895   -0.5546    0.0000 H   0  0  0  0  0  0  0  0  0  0  0  0
   -2.0082    1.2579    0.0000 H   0  0  0  0  0  0  0  0  0  0  0  0
    0.4617   -2.0466    0.0000 H   0  0  0  0  0  0  0  0  0  0  0  0
   -2.5045   -4.2017    0.0000 H   0  0  0  0  0  0  0  0  0  0  0  0
    2.8579    1.0320    0.0000 H   0  0  0  0  0  0  0  0  0  0  0  0
    4.4661    0.1035    0.0000 H   0  0  0  0  0  0  0  0  0  0  0  0
    4.4661   -1.7535    0.0000 H   0  0  0  0  0  0  0  0  0  0  0  0
    2.8579   -2.6820    0.0000 H   0  0  0  0  0  0  0  0  0  0  0  0
    1.4289   -2.6820    0.0000 H   0  0  0  0  0  0  0  0  0  0  0  0
   -0.1792   -1.7535    0.0000 H   0  0  0  0  0  0  0  0  0  0  0  0
   -0.1792    0.1035    0.0000 H   0  0  0  0  0  0  0  0  0  0  0  0
    3.0670    4.3075    0.0000 H   0  0  0  0  0  0  0  0  0  0  0  0
    4.1370    4.3075    0.0000 H   0  0  0  0  0  0  0  0  0  0  0  0
    4.3235    4.9891    0.0000 H   0  0  0  0  0  0  0  0  0  0  0  0
    6.1805    4.9891    0.0000 H   0  0  0  0  0  0  0  0  0  0  0  0
    7.1090    3.3809    0.0000 H   0  0  0  0  0  0  0  0  0  0  0  0
    6.1805    1.7727    0.0000 H   0  0  0  0  0  0  0  0  0  0  0  0
    4.3235    1.7727    0.0000 H   0  0  0  0  0  0  0  0  0  0  0  0
  1 44  1  0  0  0  0
  1 45  1  0  0  0  0
  1 46  1  0  0  0  0
  2  1  1  0  0  0  0
  2  3  1  0  0  0  0
  2 34  1  0  0  0  0
  2 47  1  1  0  0  0
  3  4  1  0  0  0  0
  3 48  1  0  0  0  0
  4  5  2  0  0  0  0
  4  6  1  0  0  0  0
  4 23  1  0  0  0  0
  6  7  1  0  0  0  0
  7 49  1  0  0  0  0
  7 50  1  0  0  0  0
  8  7  1  0  0  0  0
  8  9  1  0  0  0  0
  8 12  1  0  0  0  0
  8 51  1  6  0  0  0
 10  9  1  0  0  0  0
 10 11  1  0  0  0  0
 10 14  1  0  0  0  0
 10 52  1  6  0  0  0
 11 53  1  0  0  0  0
 11 54  1  0  0  0  0
 12 11  1  0  0  0  0
 12 13  1  0  0  0  0
 12 55  1  1  0  0  0
 13 56  1  0  0  0  0
 14 15  1  0  0  0  0
 14 21  1  0  0  0  0
 15 16  2  0  0  0  0
 15 57  1  0  0  0  0
 16 17  1  0  0  0  0
 16 18  1  0  0  0  0
 18 19  2  0  0  0  0
 18 20  1  0  0  0  0
 20 21  1  0  0  0  0
 20 58  1  0  0  0  0
 21 22  2  0  0  0  0
 23 24  1  0  0  0  0
 24 25  2  0  0  0  0
 24 33  1  0  0  0  0
 25 26  1  0  0  0  0
 25 30  1  0  0  0  0
 26 27  2  0  0  0  0
 26 59  1  0  0  0  0
 27 28  1  0  0  0  0
 27 60  1  0  0  0  0
 28 29  2  0  0  0  0
 28 61  1  0  0  0  0
 29 30  1  0  0  0  0
 29 62  1  0  0  0  0
 30 31  2  0  0  0  0
 31 32  1  0  0  0  0
 31 63  1  0  0  0  0
 32 33  2  0  0  0  0
 32 64  1  0  0  0  0
 33 65  1  0  0  0  0
 34 35  2  0  0  0  0
 34 36  1  0  0  0  0
 36 37  1  0  0  0  0
 37 38  1  0  0  0  0
 37 66  1  0  0  0  0
 37 67  1  0  0  0  0
 38 39  2  0  0  0  0
 38 43  1  0  0  0  0
 39 40  1  0  0  0  0
 39 68  1  0  0  0  0
 40 41  2  0  0  0  0
 40 69  1  0  0  0  0
 41 42  1  0  0  0  0
 41 70  1  0  0  0  0
 42 43  2  0  0  0  0
 42 71  1  0  0  0  0
 43 72  1  0  0  0  0
M  END
>  <DRUGBANK_ID>
DB14859

>  <COMMON_NAME>
Fosifloxuridine nafalbenamide

>  <CAS_NUMBER>
1332837-31-6

>  <UNII>
4YO6QT3SZ9

>  <SYNONYMS>
Fosifloxuridine nafalbenamide

$$$$
