
 OpenBabel10282417072D

 10  9  0  0  0  0  0  0  0  0999 V2000
    2.3643    0.2063    0.0000 S   0  0  0  0  0  0  0  0  0  0  0  0
    3.0789    0.6187    0.0000 O   0  0  0  0  0  0  0  0  0  0  0  0
    1.6499    0.6187    0.0000 C   0  0  0  0  0  0  0  0  0  0  0  0
    2.3643   -0.6187    0.0000 C   0  0  0  0  0  0  0  0  0  0  0  0
    1.6498    1.6887    0.0000 H   0  0  0  0  0  0  0  0  0  0  0  0
    0.7233    0.0836    0.0000 H   0  0  0  0  0  0  0  0  0  0  0  0
    0.7232    1.1536    0.0000 H   0  0  0  0  0  0  0  0  0  0  0  0
    1.4377   -1.1537    0.0000 H   0  0  0  0  0  0  0  0  0  0  0  0
    3.2909   -1.1537    0.0000 H   0  0  0  0  0  0  0  0  0  0  0  0
    2.3643   -1.6887    0.0000 H   0  0  0  0  0  0  0  0  0  0  0  0
  1  2  2  0  0  0  0
  1  3  1  0  0  0  0
  1  4  1  0  0  0  0
  3  5  1  0  0  0  0
  3  6  1  0  0  0  0
  3  7  1  0  0  0  0
  4  8  1  0  0  0  0
  4  9  1  0  0  0  0
  4 10  1  0  0  0  0
M  END
>  <DRUGBANK_ID>
DB01093

>  <SECONDARY_ACCESSION_NUMBERS>
APRD00925; EXPT01231

>  <COMMON_NAME>
Dimethyl sulfoxide

>  <CAS_NUMBER>
67-68-5

>  <UNII>
YOW8V9698H

>  <SYNONYMS>
Dimethyl sulfoxide; Dimethyl sulfur oxide; Dimethyl sulphoxide; Dimethyli sulfoxidum; Dimethylsulfoxid; Diméthylsulfoxyde; Dimetil sulfóxido; DMSO; Methylsulfinylmethane; S(O)Me2; Sulfinylbis(methane)

$$$$
