1123
 OpenBabel10282417072D

 27 29  0  0  0  0  0  0  0  0999 V2000
    4.8066    0.5507    0.0000 N   0  0  0  0  0  0  0  0  0  0  0  0
    7.6027    0.5698    0.0000 N   0  0  0  0  0  0  0  0  0  0  0  0
    2.0104    0.5698    0.0000 N   0  0  0  0  0  0  0  0  0  0  0  0
    5.4925   -0.6374    0.0000 C   0  0  0  0  0  0  0  0  0  0  0  0
    4.1206   -0.6374    0.0000 C   0  0  0  0  0  0  0  0  0  0  0  0
    5.4925    0.1547    0.0000 C   0  0  0  0  0  0  0  0  0  0  0  0
    4.1206    0.1547    0.0000 C   0  0  0  0  0  0  0  0  0  0  0  0
    4.8066   -1.0334    0.0000 C   0  0  0  0  0  0  0  0  0  0  0  0
    6.2005   -1.0609    0.0000 C   0  0  0  0  0  0  0  0  0  0  0  0
    3.4125   -1.0609    0.0000 C   0  0  0  0  0  0  0  0  0  0  0  0
    6.2005    0.5781    0.0000 C   0  0  0  0  0  0  0  0  0  0  0  0
    3.4125    0.5781    0.0000 C   0  0  0  0  0  0  0  0  0  0  0  0
    6.9183    0.1712    0.0000 C   0  0  0  0  0  0  0  0  0  0  0  0
    2.6948    0.1712    0.0000 C   0  0  0  0  0  0  0  0  0  0  0  0
    6.9183   -0.6539    0.0000 C   0  0  0  0  0  0  0  0  0  0  0  0
    2.6948   -0.6539    0.0000 C   0  0  0  0  0  0  0  0  0  0  0  0
    8.4572    0.0808    0.0000 H   0  0  0  0  0  0  0  0  0  0  0  0
    7.5990    1.5543    0.0000 H   0  0  0  0  0  0  0  0  0  0  0  0
    2.0141    1.5543    0.0000 H   0  0  0  0  0  0  0  0  0  0  0  0
    1.1559    0.0808    0.0000 H   0  0  0  0  0  0  0  0  0  0  0  0
    4.8066   -2.0654    0.0000 H   0  0  0  0  0  0  0  0  0  0  0  0
    6.1885   -2.0928    0.0000 H   0  0  0  0  0  0  0  0  0  0  0  0
    3.4244   -2.0928    0.0000 H   0  0  0  0  0  0  0  0  0  0  0  0
    6.1885    1.6100    0.0000 H   0  0  0  0  0  0  0  0  0  0  0  0
    3.4244    1.6100    0.0000 H   0  0  0  0  0  0  0  0  0  0  0  0
    7.8100   -1.1734    0.0000 H   0  0  0  0  0  0  0  0  0  0  0  0
    1.8031   -1.1734    0.0000 H   0  0  0  0  0  0  0  0  0  0  0  0
  1  6  2  0  0  0  0
  1  7  1  0  0  0  0
  2 13  1  0  0  0  0
  2 17  1  0  0  0  0
  2 18  1  0  0  0  0
  3 14  1  0  0  0  0
  3 19  1  0  0  0  0
  3 20  1  0  0  0  0
  4  6  1  0  0  0  0
  4  8  2  0  0  0  0
  4  9  1  0  0  0  0
  5  7  2  0  0  0  0
  5  8  1  0  0  0  0
  5 10  1  0  0  0  0
  6 11  1  0  0  0  0
  7 12  1  0  0  0  0
  8 21  1  0  0  0  0
  9 15  2  0  0  0  0
  9 22  1  0  0  0  0
 10 16  2  0  0  0  0
 10 23  1  0  0  0  0
 11 13  2  0  0  0  0
 11 24  1  0  0  0  0
 12 14  2  0  0  0  0
 12 25  1  0  0  0  0
 13 15  1  0  0  0  0
 14 16  1  0  0  0  0
 15 26  1  0  0  0  0
 16 27  1  0  0  0  0
M  END
>  <DRUGBANK_ID>
DB01123

>  <SECONDARY_ACCESSION_NUMBERS>
APRD00535

>  <COMMON_NAME>
Proflavine

>  <CAS_NUMBER>
92-62-6

>  <UNII>
CY3RNB3K4T

>  <SYNONYMS>
2,8-Diaminoacridine; 3,6-acridinediamine; 3,6-diaminoacridine; Diaminoacridine; Proflavin; Proflavina; Proflavine; Proflavinum

$$$$
