
 OpenBabel10282417072D

108107  0  0  0  0  0  0  0  0999 V2000
   -1.0321    4.0801    0.0000 C   0  0  0  0  0  0  0  0  0  0  0  0
   -1.0321    3.2551    0.0000 C   0  0  0  0  0  0  0  0  0  0  0  0
   -1.7465    4.4925    0.0000 C   0  0  0  0  0  0  0  0  0  0  0  0
   -1.7465    2.8426    0.0000 O   0  0  0  0  0  0  0  0  0  0  0  0
   -2.4609    4.0801    0.0000 C   0  0  1  0  0  0  0  0  0  0  0  0
   -2.4609    3.2551    0.0000 C   0  0  0  0  0  0  0  0  0  0  0  0
   -3.1777    4.4826    0.0000 N   0  0  0  0  0  0  0  0  0  0  0  0
   -3.1777    2.8327    0.0000 O   0  0  0  0  0  0  0  0  0  0  0  0
   -3.1777    2.0078    0.0000 C   0  0  0  0  0  0  0  0  0  0  0  0
   -3.8933    4.0652    0.0000 C   0  0  0  0  0  0  0  0  0  0  0  0
   -4.6096    4.4744    0.0000 C   0  0  0  0  0  0  0  0  0  0  0  0
   -3.8897    3.2402    0.0000 O   0  0  0  0  0  0  0  0  0  0  0  0
   -0.3152    2.8327    0.0000 N   0  0  0  0  0  0  0  0  0  0  0  0
    0.5096    2.8327    0.0000 C   0  0  0  0  0  0  0  0  0  0  0  0
    1.2252    3.2501    0.0000 C   0  0  0  0  0  0  0  0  0  0  0  0
    0.7645    2.0481    0.0000 O   0  0  0  0  0  0  0  0  0  0  0  0
   -0.5702    2.0481    0.0000 O   0  5  0  0  0  0  0  0  0  0  0  0
    1.9409    2.8426    0.0000 C   0  0  0  0  0  0  0  0  0  0  0  0
    2.6528    3.2594    0.0000 C   0  0  0  0  0  0  0  0  0  0  0  0
    1.9458    2.0177    0.0000 C   0  0  0  0  0  0  0  0  0  0  0  0
    3.3697    2.8511    0.0000 C   0  0  0  0  0  0  0  0  0  0  0  0
    4.0817    3.2678    0.0000 O   0  0  0  0  0  0  0  0  0  0  0  0
   -2.2526    1.4379    0.0000 C   0  0  0  0  0  0  0  0  0  0  0  0
   -2.8809    0.9032    0.0000 C   0  0  0  0  0  0  0  0  0  0  0  0
   -3.8071    1.2299    0.0000 C   0  0  0  0  0  0  0  0  0  0  0  0
   -2.7319    0.0920    0.0000 C   0  0  0  0  0  0  0  0  0  0  0  0
   -1.9404   -0.1355    0.0000 C   0  0  0  0  0  0  0  0  0  0  0  0
   -1.4555    0.5318    0.0000 O   0  0  0  0  0  0  0  0  0  0  0  0
   -1.4555   -0.8028    0.0000 N   0  0  0  0  0  0  0  0  0  0  0  0
   -0.6708   -0.5479    0.0000 O   0  5  0  0  0  0  0  0  0  0  0  0
   -1.4582   -1.6299    0.0000 C   0  0  0  0  0  0  0  0  0  0  0  0
   -0.3699   -2.3444    0.0000 N   0  0  0  0  0  0  0  0  0  0  0  0
   -0.7824   -3.0588    0.0000 C   0  0  1  0  0  0  0  0  0  0  0  0
   -1.6073   -3.0587    0.0000 C   0  0  0  0  0  0  0  0  0  0  0  0
   -2.0198   -2.3442    0.0000 C   0  0  0  0  0  0  0  0  0  0  0  0
    0.4550   -2.3445    0.0000 C   0  0  0  0  0  0  0  0  0  0  0  0
    0.8673   -3.0588    0.0000 C   0  0  1  0  0  0  0  0  0  0  0  0
   -0.3699   -3.7733    0.0000 C   0  0  0  0  0  0  0  0  0  0  0  0
    0.4549   -3.7733    0.0000 N   0  0  0  0  0  0  0  0  0  0  0  0
    0.8575   -1.6299    0.0000 O   0  0  0  0  0  0  0  0  0  0  0  0
   -0.7824   -4.4925    0.0000 O   0  0  0  0  0  0  0  0  0  0  0  0
    2.9597   -0.1354    0.0000 C   0  0  0  0  0  0  0  0  0  0  0  0
    2.1347   -0.1355    0.0000 C   0  0  0  0  0  0  0  0  0  0  0  0
    1.6499    0.5318    0.0000 O   0  0  0  0  0  0  0  0  0  0  0  0
    1.6499   -0.8028    0.0000 N   0  0  0  0  0  0  0  0  0  0  0  0
    0.8651   -0.5479    0.0000 O   0  5  0  0  0  0  0  0  0  0  0  0
    1.6922   -3.0591    0.0000 C   0  0  0  0  0  0  0  0  0  0  0  0
    2.1047   -2.3446    0.0000 C   0  0  0  0  0  0  0  0  0  0  0  0
    1.6426   -1.6301    0.0000 C   0  0  0  0  0  0  0  0  0  0  0  0
    3.3722   -0.8499    0.0000 C   0  0  0  0  0  0  0  0  0  0  0  0
    4.1971   -0.8499    0.0000 C   0  0  0  0  0  0  0  0  0  0  0  0
    2.9597   -1.5643    0.0000 C   0  0  0  0  0  0  0  0  0  0  0  0
    4.6096   -1.5643    0.0000 C   0  0  0  0  0  0  0  0  0  0  0  0
   -1.3689   -3.6477    0.0000 H   0  0  0  0  0  0  0  0  0  0  0  0
    1.4539   -3.6477    0.0000 H   0  0  0  0  0  0  0  0  0  0  0  0
   -0.0270    0.9343    0.0000 Fe  0  1  0  0  0  0  0  0  0  0  0  0
    4.1971   -2.2787    0.0000 O   0  0  0  0  0  0  0  0  0  0  0  0
   -0.1055    4.6151    0.0000 H   0  0  0  0  0  0  0  0  0  0  0  0
   -1.0321    5.1501    0.0000 H   0  0  0  0  0  0  0  0  0  0  0  0
   -1.9611    2.7242    0.0000 H   0  0  0  0  0  0  0  0  0  0  0  0
   -1.0392    2.1851    0.0000 H   0  0  0  0  0  0  0  0  0  0  0  0
   -1.7465    5.5625    0.0000 H   0  0  0  0  0  0  0  0  0  0  0  0
   -2.6731    5.0275    0.0000 H   0  0  0  0  0  0  0  0  0  0  0  0
   -2.4673    5.1501    0.0000 H   0  0  0  0  0  0  0  0  0  0  0  0
   -3.1858    5.4671    0.0000 H   0  0  0  0  0  0  0  0  0  0  0  0
   -2.1690    1.6508    0.0000 H   0  0  0  0  0  0  0  0  0  0  0  0
   -2.8869    0.9781    0.0000 H   0  0  0  0  0  0  0  0  0  0  0  0
   -4.6145    5.5444    0.0000 H   0  0  0  0  0  0  0  0  0  0  0  0
   -5.5338    3.9352    0.0000 H   0  0  0  0  0  0  0  0  0  0  0  0
   -5.5387    5.0052    0.0000 H   0  0  0  0  0  0  0  0  0  0  0  0
    1.2198    4.2821    0.0000 H   0  0  0  0  0  0  0  0  0  0  0  0
    2.6464    4.3294    0.0000 H   0  0  0  0  0  0  0  0  0  0  0  0
    3.5763    3.7999    0.0000 H   0  0  0  0  0  0  0  0  0  0  0  0
    1.0223    1.4772    0.0000 H   0  0  0  0  0  0  0  0  0  0  0  0
    2.8756    1.4882    0.0000 H   0  0  0  0  0  0  0  0  0  0  0  0
    1.9522    0.9477    0.0000 H   0  0  0  0  0  0  0  0  0  0  0  0
    3.3760    1.7811    0.0000 H   0  0  0  0  0  0  0  0  0  0  0  0
    4.2995    2.3216    0.0000 H   0  0  0  0  0  0  0  0  0  0  0  0
    4.9246    2.7878    0.0000 H   0  0  0  0  0  0  0  0  0  0  0  0
   -1.2446    1.0789    0.0000 H   0  0  0  0  0  0  0  0  0  0  0  0
   -2.4457    2.4903    0.0000 H   0  0  0  0  0  0  0  0  0  0  0  0
   -1.4377    2.1314    0.0000 H   0  0  0  0  0  0  0  0  0  0  0  0
   -4.8367    0.9386    0.0000 H   0  0  0  0  0  0  0  0  0  0  0  0
   -4.3963    2.1231    0.0000 H   0  0  0  0  0  0  0  0  0  0  0  0
   -3.4966   -0.6010    0.0000 H   0  0  0  0  0  0  0  0  0  0  0  0
   -0.4476   -1.9815    0.0000 H   0  0  0  0  0  0  0  0  0  0  0  0
   -1.1575   -2.6568    0.0000 H   0  0  0  0  0  0  0  0  0  0  0  0
   -0.8621   -1.4918    0.0000 H   0  0  0  0  0  0  0  0  0  0  0  0
   -2.1424   -3.9853    0.0000 H   0  0  0  0  0  0  0  0  0  0  0  0
   -2.6773   -3.0587    0.0000 H   0  0  0  0  0  0  0  0  0  0  0  0
   -3.0871   -2.2679    0.0000 H   0  0  0  0  0  0  0  0  0  0  0  0
   -2.4528   -1.3657    0.0000 H   0  0  0  0  0  0  0  0  0  0  0  0
    0.9472   -4.6259    0.0000 H   0  0  0  0  0  0  0  0  0  0  0  0
    3.4757    0.7584    0.0000 H   0  0  0  0  0  0  0  0  0  0  0  0
    2.2270   -3.9858    0.0000 H   0  0  0  0  0  0  0  0  0  0  0  0
    2.7622   -3.0592    0.0000 H   0  0  0  0  0  0  0  0  0  0  0  0
    3.1744   -2.3176    0.0000 H   0  0  0  0  0  0  0  0  0  0  0  0
    2.6042   -1.3984    0.0000 H   0  0  0  0  0  0  0  0  0  0  0  0
    0.6151   -1.9285    0.0000 H   0  0  0  0  0  0  0  0  0  0  0  0
    0.7898   -0.9838    0.0000 H   0  0  0  0  0  0  0  0  0  0  0  0
    4.7321    0.0768    0.0000 H   0  0  0  0  0  0  0  0  0  0  0  0
    5.2671   -0.8499    0.0000 H   0  0  0  0  0  0  0  0  0  0  0  0
    1.8897   -1.5643    0.0000 H   0  0  0  0  0  0  0  0  0  0  0  0
    3.4947   -2.4910    0.0000 H   0  0  0  0  0  0  0  0  0  0  0  0
    2.4247   -2.4909    0.0000 H   0  0  0  0  0  0  0  0  0  0  0  0
    5.6796   -1.5643    0.0000 H   0  0  0  0  0  0  0  0  0  0  0  0
    5.1446   -2.4910    0.0000 H   0  0  0  0  0  0  0  0  0  0  0  0
    3.2271   -2.2787    0.0000 H   0  0  0  0  0  0  0  0  0  0  0  0
  1 58  1  0  0  0  0
  1 59  1  0  0  0  0
  2  1  1  0  0  0  0
  2 13  1  0  0  0  0
  2 60  1  0  0  0  0
  2 61  1  0  0  0  0
  3  1  1  0  0  0  0
  3 62  1  0  0  0  0
  3 63  1  0  0  0  0
  5  3  1  0  0  0  0
  5  7  1  0  0  0  0
  5 64  1  6  0  0  0
  6  4  2  0  0  0  0
  6  5  1  0  0  0  0
  6  8  1  0  0  0  0
  7 10  1  0  0  0  0
  7 65  1  0  0  0  0
  8  9  1  0  0  0  0
  9 25  1  0  0  0  0
  9 66  1  0  0  0  0
  9 67  1  0  0  0  0
 10 11  1  0  0  0  0
 10 12  2  0  0  0  0
 11 68  1  0  0  0  0
 11 69  1  0  0  0  0
 11 70  1  0  0  0  0
 13 14  1  0  0  0  0
 14 15  1  0  0  0  0
 15 18  2  0  0  0  0
 15 71  1  0  0  0  0
 16 14  2  0  0  0  0
 17 13  1  0  0  0  0
 18 19  1  0  0  0  0
 18 20  1  0  0  0  0
 19 21  1  0  0  0  0
 19 72  1  0  0  0  0
 19 73  1  0  0  0  0
 20 74  1  0  0  0  0
 20 75  1  0  0  0  0
 20 76  1  0  0  0  0
 21 22  1  0  0  0  0
 21 77  1  0  0  0  0
 21 78  1  0  0  0  0
 22 79  1  0  0  0  0
 23 80  1  0  0  0  0
 23 81  1  0  0  0  0
 23 82  1  0  0  0  0
 24 23  1  0  0  0  0
 25 24  1  0  0  0  0
 25 83  1  0  0  0  0
 25 84  1  0  0  0  0
 26 24  2  0  0  0  0
 26 85  1  0  0  0  0
 27 26  1  0  0  0  0
 28 27  2  0  0  0  0
 29 27  1  0  0  0  0
 29 31  1  0  0  0  0
 30 29  1  0  0  0  0
 31 86  1  0  0  0  0
 31 87  1  0  0  0  0
 32 88  1  0  0  0  0
 33 32  1  0  0  0  0
 33 54  1  1  0  0  0
 34 33  1  0  0  0  0
 34 89  1  0  0  0  0
 34 90  1  0  0  0  0
 35 34  1  0  0  0  0
 35 31  1  0  0  0  0
 35 91  1  0  0  0  0
 35 92  1  0  0  0  0
 36 32  1  0  0  0  0
 36 40  2  0  0  0  0
 37 36  1  0  0  0  0
 37 55  1  1  0  0  0
 38 33  1  0  0  0  0
 38 41  2  0  0  0  0
 39 38  1  0  0  0  0
 39 37  1  0  0  0  0
 39 93  1  0  0  0  0
 42 94  1  0  0  0  0
 43 42  1  0  0  0  0
 44 43  2  0  0  0  0
 45 43  1  0  0  0  0
 46 45  1  0  0  0  0
 47 37  1  0  0  0  0
 47 48  1  0  0  0  0
 47 95  1  0  0  0  0
 47 96  1  0  0  0  0
 48 49  1  0  0  0  0
 48 97  1  0  0  0  0
 48 98  1  0  0  0  0
 49 45  1  0  0  0  0
 49 99  1  0  0  0  0
 49100  1  0  0  0  0
 50 42  2  0  0  0  0
 50 52  1  0  0  0  0
 51 50  1  0  0  0  0
 51 53  1  0  0  0  0
 51101  1  0  0  0  0
 51102  1  0  0  0  0
 52103  1  0  0  0  0
 52104  1  0  0  0  0
 52105  1  0  0  0  0
 53 57  1  0  0  0  0
 53106  1  0  0  0  0
 53107  1  0  0  0  0
 57108  1  0  0  0  0
M  CHG  4  17  -1  30  -1  46  -1  56   3
M  END
>  <DRUGBANK_ID>
DB01747

>  <SECONDARY_ACCESSION_NUMBERS>
EXPT01001

>  <COMMON_NAME>
Coprogen

>  <CAS_NUMBER>
31418-71-0

>  <UNII>
9262JXU362

$$$$
