
 OpenBabel10282417072D

 81 85  0  0  1  0  0  0  0  0999 V2000
   -0.6112    3.7211    0.0000 C   0  0  0  0  0  0  0  0  0  0  0  0
   -1.1633    3.1080    0.0000 C   0  0  2  0  0  0  0  0  0  0  0  0
   -0.9083    2.3234    0.0000 C   0  0  0  0  0  0  0  0  0  0  0  0
   -1.4604    1.7103    0.0000 N   0  0  0  0  0  0  0  0  0  0  0  0
   -1.2054    0.9256    0.0000 C   0  0  0  0  0  0  0  0  0  0  0  0
   -0.3984    0.7541    0.0000 C   0  0  0  0  0  0  0  0  0  0  0  0
    0.1536    1.3672    0.0000 O   0  0  0  0  0  0  0  0  0  0  0  0
   -0.1435   -0.0305    0.0000 N   0  0  0  0  0  0  0  0  0  0  0  0
   -0.6284   -0.6979    0.0000 C   0  0  0  0  0  0  0  0  0  0  0  0
   -0.1435   -1.3654    0.0000 C   0  0  0  0  0  0  0  0  0  0  0  0
   -0.8580   -1.7779    0.0000 C   0  0  0  0  0  0  0  0  0  0  0  0
    0.1921   -2.1191    0.0000 C   0  0  0  0  0  0  0  0  0  0  0  0
    0.6411   -1.1104    0.0000 C   0  0  0  0  0  0  0  0  0  0  0  0
    0.6411   -0.2854    0.0000 C   0  0  0  0  0  0  0  0  0  0  0  0
    1.3556    0.1271    0.0000 C   0  0  0  0  0  0  0  0  0  0  0  0
    2.0701   -0.2854    0.0000 C   0  0  0  0  0  0  0  0  0  0  0  0
    2.7845    0.1271    0.0000 C   0  0  0  0  0  0  0  0  0  0  0  0
    3.4990   -0.2854    0.0000 C   0  0  0  0  0  0  0  0  0  0  0  0
    4.2135    0.1271    0.0000 C   0  0  0  0  0  0  0  0  0  0  0  0
    4.9279   -0.2854    0.0000 C   0  0  0  0  0  0  0  0  0  0  0  0
    4.9279   -1.1104    0.0000 C   0  0  0  0  0  0  0  0  0  0  0  0
    5.6424   -1.5229    0.0000 F   0  0  0  0  0  0  0  0  0  0  0  0
    4.2135   -1.5229    0.0000 C   0  0  0  0  0  0  0  0  0  0  0  0
    3.4990   -1.1104    0.0000 C   0  0  0  0  0  0  0  0  0  0  0  0
    2.0701   -1.1104    0.0000 C   0  0  0  0  0  0  0  0  0  0  0  0
    2.7845   -1.5229    0.0000 C   0  0  0  0  0  0  0  0  0  0  0  0
    2.7845   -2.3479    0.0000 O   0  0  0  0  0  0  0  0  0  0  0  0
    1.3556   -1.5229    0.0000 N   0  0  0  0  0  0  0  0  0  0  0  0
   -2.2673    1.8818    0.0000 C   0  0  1  0  0  0  0  0  0  0  0  0
   -2.8194    1.2687    0.0000 C   0  0  0  0  0  0  0  0  0  0  0  0
   -3.6263    1.4402    0.0000 N   0  0  0  0  0  0  0  0  0  0  0  0
   -4.1784    0.8271    0.0000 C   0  0  0  0  0  0  0  0  0  0  0  0
   -4.9853    0.9987    0.0000 C   0  0  0  0  0  0  0  0  0  0  0  0
   -5.2403    1.7833    0.0000 O   0  0  0  0  0  0  0  0  0  0  0  0
   -4.6882    2.3964    0.0000 C   0  0  0  0  0  0  0  0  0  0  0  0
   -3.8813    2.2248    0.0000 C   0  0  1  0  0  0  0  0  0  0  0  0
   -3.3292    2.8379    0.0000 C   0  0  0  0  0  0  0  0  0  0  0  0
   -2.5223    2.6664    0.0000 C   0  0  0  0  0  0  0  0  0  0  0  0
   -1.9702    3.2795    0.0000 N   0  0  0  0  0  0  0  0  0  0  0  0
    0.4354    3.4986    0.0000 H   0  0  0  0  0  0  0  0  0  0  0  0
   -0.9418    4.7387    0.0000 H   0  0  0  0  0  0  0  0  0  0  0  0
    0.1048    4.5162    0.0000 H   0  0  0  0  0  0  0  0  0  0  0  0
   -0.1167    2.8855    0.0000 H   0  0  0  0  0  0  0  0  0  0  0  0
    0.1383    2.1009    0.0000 H   0  0  0  0  0  0  0  0  0  0  0  0
   -0.5777    1.3058    0.0000 H   0  0  0  0  0  0  0  0  0  0  0  0
   -1.9213    0.1304    0.0000 H   0  0  0  0  0  0  0  0  0  0  0  0
   -0.8747   -0.0920    0.0000 H   0  0  0  0  0  0  0  0  0  0  0  0
   -1.6984   -0.6979    0.0000 H   0  0  0  0  0  0  0  0  0  0  0  0
   -1.1142   -1.6513    0.0000 H   0  0  0  0  0  0  0  0  0  0  0  0
   -1.7846   -1.2429    0.0000 H   0  0  0  0  0  0  0  0  0  0  0  0
   -0.8580   -2.8479    0.0000 H   0  0  0  0  0  0  0  0  0  0  0  0
   -1.7847   -2.3129    0.0000 H   0  0  0  0  0  0  0  0  0  0  0  0
   -0.4368   -2.9848    0.0000 H   0  0  0  0  0  0  0  0  0  0  0  0
    1.2562   -2.2309    0.0000 H   0  0  0  0  0  0  0  0  0  0  0  0
    0.6273   -3.0966    0.0000 H   0  0  0  0  0  0  0  0  0  0  0  0
    1.3556    1.1591    0.0000 H   0  0  0  0  0  0  0  0  0  0  0  0
    2.7845    1.1971    0.0000 H   0  0  0  0  0  0  0  0  0  0  0  0
    3.7111    0.6621    0.0000 H   0  0  0  0  0  0  0  0  0  0  0  0
    4.2135    1.1591    0.0000 H   0  0  0  0  0  0  0  0  0  0  0  0
    5.8216    0.2306    0.0000 H   0  0  0  0  0  0  0  0  0  0  0  0
    4.2135   -2.5549    0.0000 H   0  0  0  0  0  0  0  0  0  0  0  0
    2.6053   -1.6264    0.0000 H   0  0  0  0  0  0  0  0  0  0  0  0
    3.7112   -0.9879    0.0000 H   0  0  0  0  0  0  0  0  0  0  0  0
    3.7111   -2.0579    0.0000 H   0  0  0  0  0  0  0  0  0  0  0  0
    1.9445   -2.8329    0.0000 H   0  0  0  0  0  0  0  0  0  0  0  0
   -1.9367    0.8642    0.0000 H   0  0  0  0  0  0  0  0  0  0  0  0
   -2.4888    0.2511    0.0000 H   0  0  0  0  0  0  0  0  0  0  0  0
   -3.5354    0.4735    0.0000 H   0  0  0  0  0  0  0  0  0  0  0  0
   -3.8478   -0.1906    0.0000 H   0  0  0  0  0  0  0  0  0  0  0  0
   -4.8944    0.0320    0.0000 H   0  0  0  0  0  0  0  0  0  0  0  0
   -5.7013    0.2035    0.0000 H   0  0  0  0  0  0  0  0  0  0  0  0
   -6.0319    1.2211    0.0000 H   0  0  0  0  0  0  0  0  0  0  0  0
   -5.0188    3.4141    0.0000 H   0  0  0  0  0  0  0  0  0  0  0  0
   -3.9722    3.1915    0.0000 H   0  0  0  0  0  0  0  0  0  0  0  0
   -4.2119    3.2425    0.0000 H   0  0  0  0  0  0  0  0  0  0  0  0
   -2.2826    2.6154    0.0000 H   0  0  0  0  0  0  0  0  0  0  0  0
   -3.6598    3.8555    0.0000 H   0  0  0  0  0  0  0  0  0  0  0  0
   -2.6132    3.6330    0.0000 H   0  0  0  0  0  0  0  0  0  0  0  0
   -3.5689    2.8889    0.0000 H   0  0  0  0  0  0  0  0  0  0  0  0
   -2.8529    3.6840    0.0000 H   0  0  0  0  0  0  0  0  0  0  0  0
   -2.2854    4.2496    0.0000 H   0  0  0  0  0  0  0  0  0  0  0  0
  1 40  1  0  0  0  0
  1 41  1  0  0  0  0
  1 42  1  0  0  0  0
  2  1  1  0  0  0  0
  2  3  1  0  0  0  0
  2 39  1  0  0  0  0
  2 43  1  1  0  0  0
  3  4  1  0  0  0  0
  3 44  1  0  0  0  0
  3 45  1  0  0  0  0
  4  5  1  0  0  0  0
  5  6  1  0  0  0  0
  5 46  1  0  0  0  0
  5 47  1  0  0  0  0
  6  7  2  0  0  0  0
  6  8  1  0  0  0  0
  8  9  1  0  0  0  0
  8 14  1  0  0  0  0
  9 10  1  0  0  0  0
  9 48  1  0  0  0  0
  9 49  1  0  0  0  0
 10 11  1  0  0  0  0
 10 12  1  0  0  0  0
 10 13  1  0  0  0  0
 11 50  1  0  0  0  0
 11 51  1  0  0  0  0
 11 52  1  0  0  0  0
 12 53  1  0  0  0  0
 12 54  1  0  0  0  0
 12 55  1  0  0  0  0
 13 14  2  0  0  0  0
 13 28  1  0  0  0  0
 14 15  1  0  0  0  0
 15 16  2  0  0  0  0
 15 56  1  0  0  0  0
 16 17  1  0  0  0  0
 16 25  1  0  0  0  0
 17 18  1  0  0  0  0
 17 57  1  0  0  0  0
 17 58  1  0  0  0  0
 18 19  2  0  0  0  0
 18 24  1  0  0  0  0
 19 20  1  0  0  0  0
 19 59  1  0  0  0  0
 20 21  2  0  0  0  0
 20 60  1  0  0  0  0
 21 22  1  0  0  0  0
 21 23  1  0  0  0  0
 23 24  2  0  0  0  0
 23 61  1  0  0  0  0
 24 62  1  0  0  0  0
 25 26  1  0  0  0  0
 25 28  2  0  0  0  0
 26 27  1  0  0  0  0
 26 63  1  0  0  0  0
 26 64  1  0  0  0  0
 27 65  1  0  0  0  0
 29  4  1  0  0  0  0
 29 30  1  0  0  0  0
 29 38  1  0  0  0  0
 29 66  1  6  0  0  0
 30 31  1  0  0  0  0
 30 67  1  0  0  0  0
 30 68  1  0  0  0  0
 31 32  1  0  0  0  0
 32 33  1  0  0  0  0
 32 69  1  0  0  0  0
 32 70  1  0  0  0  0
 33 34  1  0  0  0  0
 33 71  1  0  0  0  0
 33 72  1  0  0  0  0
 34 35  1  0  0  0  0
 35 73  1  0  0  0  0
 35 74  1  0  0  0  0
 36 35  1  0  0  0  0
 36 31  1  0  0  0  0
 36 37  1  0  0  0  0
 36 75  1  6  0  0  0
 37 76  1  0  0  0  0
 37 77  1  0  0  0  0
 37 78  1  0  0  0  0
 38 39  1  0  0  0  0
 38 79  1  0  0  0  0
 38 80  1  0  0  0  0
 39 81  1  0  0  0  0
M  END
>  <DRUGBANK_ID>
DB16160

>  <COMMON_NAME>
Tolinapant

>  <CAS_NUMBER>
1799328-86-1

>  <UNII>
2LHZ9ZC3YO

$$$$
