
 OpenBabel10282417072D

 43 44  0  0  0  0  0  0  0  0999 V2000
    0.2262    0.7153    0.0000 C   0  0  0  0  0  0  0  0  0  0  0  0
   -0.5807    0.5437    0.0000 O   0  0  0  0  0  0  0  0  0  0  0  0
    0.4811    1.4999    0.0000 C   0  0  1  0  0  0  0  0  0  0  0  0
    0.7782    0.1021    0.0000 N   0  0  0  0  0  0  0  0  0  0  0  0
   -0.0708    2.1130    0.0000 N   0  0  0  0  0  0  0  0  0  0  0  0
    1.2882    1.6715    0.0000 C   0  0  0  0  0  0  0  0  0  0  0  0
    1.5431    2.4561    0.0000 C   0  0  0  0  0  0  0  0  0  0  0  0
    2.3501    2.6276    0.0000 C   0  0  0  0  0  0  0  0  0  0  0  0
    2.6050    3.4123    0.0000 O   0  0  0  0  0  0  0  0  0  0  0  0
    2.9021    2.0145    0.0000 O   0  0  0  0  0  0  0  0  0  0  0  0
   -0.5388   -1.6383    0.0000 C   0  0  0  0  0  0  0  0  0  0  0  0
   -0.5390   -2.9731    0.0000 N   0  0  0  0  0  0  0  0  0  0  0  0
   -0.0540   -2.3058    0.0000 C   0  0  0  0  0  0  0  0  0  0  0  0
   -1.3236   -1.8932    0.0000 C   0  0  0  0  0  0  0  0  0  0  0  0
    1.0751   -1.2955    0.0000 C   0  0  0  0  0  0  0  0  0  0  0  0
   -0.2838   -0.8538    0.0000 C   0  0  0  0  0  0  0  0  0  0  0  0
   -1.3236   -2.7182    0.0000 C   0  0  0  0  0  0  0  0  0  0  0  0
    0.5231   -0.6824    0.0000 C   0  0  2  0  0  0  0  0  0  0  0  0
    1.8821   -1.1240    0.0000 O   0  0  0  0  0  0  0  0  0  0  0  0
    0.8200   -2.0800    0.0000 O   0  0  0  0  0  0  0  0  0  0  0  0
   -2.0378   -1.4806    0.0000 C   0  0  0  0  0  0  0  0  0  0  0  0
   -2.0381   -3.1306    0.0000 C   0  0  0  0  0  0  0  0  0  0  0  0
   -2.7524   -1.8929    0.0000 C   0  0  0  0  0  0  0  0  0  0  0  0
   -2.7526   -2.7180    0.0000 C   0  0  0  0  0  0  0  0  0  0  0  0
   -0.5655    1.2775    0.0000 H   0  0  0  0  0  0  0  0  0  0  0  0
    1.7412    0.3066    0.0000 H   0  0  0  0  0  0  0  0  0  0  0  0
    0.2445    3.0830    0.0000 H   0  0  0  0  0  0  0  0  0  0  0  0
   -1.0685    1.9011    0.0000 H   0  0  0  0  0  0  0  0  0  0  0  0
    2.0042    0.8764    0.0000 H   0  0  0  0  0  0  0  0  0  0  0  0
    2.3348    1.8940    0.0000 H   0  0  0  0  0  0  0  0  0  0  0  0
    0.8271    3.2513    0.0000 H   0  0  0  0  0  0  0  0  0  0  0  0
    1.8738    3.4737    0.0000 H   0  0  0  0  0  0  0  0  0  0  0  0
    2.6125    1.1234    0.0000 H   0  0  0  0  0  0  0  0  0  0  0  0
   -0.2348   -3.9094    0.0000 H   0  0  0  0  0  0  0  0  0  0  0  0
    0.9780   -2.3060    0.0000 H   0  0  0  0  0  0  0  0  0  0  0  0
   -0.9997   -0.0585    0.0000 H   0  0  0  0  0  0  0  0  0  0  0  0
    0.0470    0.1638    0.0000 H   0  0  0  0  0  0  0  0  0  0  0  0
    1.5697   -0.4601    0.0000 H   0  0  0  0  0  0  0  0  0  0  0  0
   -0.0966   -2.2746    0.0000 H   0  0  0  0  0  0  0  0  0  0  0  0
   -2.0375   -0.4486    0.0000 H   0  0  0  0  0  0  0  0  0  0  0  0
   -2.0382   -4.1626    0.0000 H   0  0  0  0  0  0  0  0  0  0  0  0
   -3.6460   -1.3767    0.0000 H   0  0  0  0  0  0  0  0  0  0  0  0
   -3.6464   -3.2339    0.0000 H   0  0  0  0  0  0  0  0  0  0  0  0
  2  1  2  0  0  0  0
  3  1  1  0  0  0  0
  3  5  1  0  0  0  0
  3 25  1  6  0  0  0
  4  1  1  0  0  0  0
  4 26  1  0  0  0  0
  5 27  1  0  0  0  0
  5 28  1  0  0  0  0
  6  3  1  0  0  0  0
  6 29  1  0  0  0  0
  6 30  1  0  0  0  0
  7  6  1  0  0  0  0
  7 31  1  0  0  0  0
  7 32  1  0  0  0  0
  8  7  1  0  0  0  0
  8  9  2  0  0  0  0
  8 10  1  0  0  0  0
 10 33  1  0  0  0  0
 12 34  1  0  0  0  0
 13 11  2  0  0  0  0
 13 12  1  0  0  0  0
 13 35  1  0  0  0  0
 14 11  1  0  0  0  0
 16 11  1  0  0  0  0
 16 36  1  0  0  0  0
 16 37  1  0  0  0  0
 17 12  1  0  0  0  0
 17 14  2  0  0  0  0
 18 15  1  0  0  0  0
 18 16  1  0  0  0  0
 18  4  1  0  0  0  0
 18 38  1  1  0  0  0
 19 15  2  0  0  0  0
 20 15  1  0  0  0  0
 20 39  1  0  0  0  0
 21 14  1  0  0  0  0
 21 40  1  0  0  0  0
 22 17  1  0  0  0  0
 22 41  1  0  0  0  0
 23 21  2  0  0  0  0
 23 42  1  0  0  0  0
 24 22  2  0  0  0  0
 24 23  1  0  0  0  0
 24 43  1  0  0  0  0
M  END
>  <DRUGBANK_ID>
DB05779

>  <COMMON_NAME>
Oglufanide

>  <CAS_NUMBER>
38101-59-6

>  <UNII>
4RHY598T5U

>  <SYNONYMS>
alpha-Glutamyltryptophan; Glutamyltryptophan; L-Glu-L-Trp; L-glutamyl-L-tryptophan; L-α-Glu-L-Trp; Oglufanide; α-Glu-Trp

$$$$
