M03
 OpenBabel10282417072D

 44 47  0  0  0  0  0  0  0  0999 V2000
    4.3194    4.0652    0.0000 N   0  0  0  0  0  0  0  0  0  0  0  0
    3.6049    4.4777    0.0000 C   0  0  0  0  0  0  0  0  0  0  0  0
    3.6049    5.3027    0.0000 C   0  0  0  0  0  0  0  0  0  0  0  0
    4.3194    5.7152    0.0000 C   0  0  0  0  0  0  0  0  0  0  0  0
    3.7891    6.3472    0.0000 C   0  0  0  0  0  0  0  0  0  0  0  0
    4.0712    7.1225    0.0000 N   0  0  0  0  0  0  0  0  0  0  0  0
    5.0338    5.3027    0.0000 C   0  0  0  0  0  0  0  0  0  0  0  0
    5.0338    4.4777    0.0000 C   0  0  0  0  0  0  0  0  0  0  0  0
    4.8497    6.3472    0.0000 C   0  0  0  0  0  0  0  0  0  0  0  0
    4.5675    7.1225    0.0000 C   0  0  0  0  0  0  0  0  0  0  0  0
    5.0978    7.7544    0.0000 C   0  0  0  0  0  0  0  0  0  0  0  0
    5.9103    7.6112    0.0000 C   0  0  0  0  0  0  0  0  0  0  0  0
    6.4406    8.2432    0.0000 Cl  0  0  0  0  0  0  0  0  0  0  0  0
    6.1924    6.8359    0.0000 C   0  0  0  0  0  0  0  0  0  0  0  0
    5.6621    6.2040    0.0000 C   0  0  0  0  0  0  0  0  0  0  0  0
    4.3194    3.2402    0.0000 C   0  0  0  0  0  0  0  0  0  0  0  0
    5.0338    2.8277    0.0000 N   0  0  0  0  0  0  0  0  0  0  0  0
    5.0338    2.0027    0.0000 C   0  0  0  0  0  0  0  0  0  0  0  0
    4.3194    1.5902    0.0000 N   0  0  0  0  0  0  0  0  0  0  0  0
    3.6049    2.0027    0.0000 C   0  0  0  0  0  0  0  0  0  0  0  0
    2.8203    1.7478    0.0000 N   0  0  0  0  0  0  0  0  0  0  0  0
    2.3354    2.4152    0.0000 C   0  0  0  0  0  0  0  0  0  0  0  0
    2.8203    3.0827    0.0000 C   0  0  0  0  0  0  0  0  0  0  0  0
    3.6049    2.8277    0.0000 C   0  0  0  0  0  0  0  0  0  0  0  0
    2.6783    3.9427    0.0000 H   0  0  0  0  0  0  0  0  0  0  0  0
    2.6783    5.0127    0.0000 H   0  0  0  0  0  0  0  0  0  0  0  0
    2.6783    5.8377    0.0000 H   0  0  0  0  0  0  0  0  0  0  0  0
    3.6049    6.3727    0.0000 H   0  0  0  0  0  0  0  0  0  0  0  0
    2.7354    6.1614    0.0000 H   0  0  0  0  0  0  0  0  0  0  0  0
    3.1013    7.1668    0.0000 H   0  0  0  0  0  0  0  0  0  0  0  0
    5.0757    7.2997    0.0000 H   0  0  0  0  0  0  0  0  0  0  0  0
    3.4155    7.9038    0.0000 H   0  0  0  0  0  0  0  0  0  0  0  0
    5.9605    5.8377    0.0000 H   0  0  0  0  0  0  0  0  0  0  0  0
    5.9604    4.7677    0.0000 H   0  0  0  0  0  0  0  0  0  0  0  0
    5.9605    3.9427    0.0000 H   0  0  0  0  0  0  0  0  0  0  0  0
    5.9604    5.0127    0.0000 H   0  0  0  0  0  0  0  0  0  0  0  0
    3.5512    7.3017    0.0000 H   0  0  0  0  0  0  0  0  0  0  0  0
    4.7448    8.7242    0.0000 H   0  0  0  0  0  0  0  0  0  0  0  0
    7.2087    6.6566    0.0000 H   0  0  0  0  0  0  0  0  0  0  0  0
    6.0151    5.2342    0.0000 H   0  0  0  0  0  0  0  0  0  0  0  0
    5.9275    1.4867    0.0000 H   0  0  0  0  0  0  0  0  0  0  0  0
    2.5161    0.8115    0.0000 H   0  0  0  0  0  0  0  0  0  0  0  0
    1.3034    2.4152    0.0000 H   0  0  0  0  0  0  0  0  0  0  0  0
    2.5014    4.0642    0.0000 H   0  0  0  0  0  0  0  0  0  0  0  0
  1  2  1  0  0  0  0
  1  8  1  0  0  0  0
  1 16  1  0  0  0  0
  2  3  1  0  0  0  0
  2 25  1  0  0  0  0
  2 26  1  0  0  0  0
  3  4  1  0  0  0  0
  3 27  1  0  0  0  0
  3 28  1  0  0  0  0
  4  5  1  0  0  0  0
  4  7  1  0  0  0  0
  4  9  1  0  0  0  0
  5  6  1  0  0  0  0
  5 29  1  0  0  0  0
  5 30  1  0  0  0  0
  6 31  1  0  0  0  0
  6 32  1  0  0  0  0
  7  8  1  0  0  0  0
  7 33  1  0  0  0  0
  7 34  1  0  0  0  0
  8 35  1  0  0  0  0
  8 36  1  0  0  0  0
  9 10  1  0  0  0  0
  9 15  2  0  0  0  0
 10 11  2  0  0  0  0
 10 37  1  0  0  0  0
 11 12  1  0  0  0  0
 11 38  1  0  0  0  0
 12 13  1  0  0  0  0
 12 14  2  0  0  0  0
 14 15  1  0  0  0  0
 14 39  1  0  0  0  0
 15 40  1  0  0  0  0
 16 17  1  0  0  0  0
 16 24  2  0  0  0  0
 17 18  2  0  0  0  0
 18 19  1  0  0  0  0
 18 41  1  0  0  0  0
 19 20  2  0  0  0  0
 20 21  1  0  0  0  0
 20 24  1  0  0  0  0
 21 22  1  0  0  0  0
 21 42  1  0  0  0  0
 22 23  2  0  0  0  0
 22 43  1  0  0  0  0
 23 24  1  0  0  0  0
 23 44  1  0  0  0  0
M  END
>  <DRUGBANK_ID>
DB08148

>  <COMMON_NAME>
1-[4-(4-chlorophenyl)-1-(7H-pyrrolo[2,3-d]pyrimidin-4-yl)piperidin-4-yl]methanamine

$$$$
