
 OpenBabel10282417072D

 78 82  0  0  0  0  0  0  0  0999 V2000
   -5.0767    1.5093    0.0000 P   0  0  0  0  0  0  0  0  0  0  0  0
   -0.4801    1.8337    0.0000 P   0  0  3  0  0  0  0  0  0  0  0  0
    0.9413    1.9807    0.0000 P   0  0  3  0  0  0  0  0  0  0  0  0
   -2.5713    0.3780    0.0000 O   0  0  0  0  0  0  0  0  0  0  0  0
    3.2860    0.9833    0.0000 O   0  0  0  0  0  0  0  0  0  0  0  0
   -4.6654    0.7942    0.0000 O   0  0  0  0  0  0  0  0  0  0  0  0
   -3.6078    2.2445    0.0000 O   0  0  0  0  0  0  0  0  0  0  0  0
    5.2507    1.8190    0.0000 O   0  0  0  0  0  0  0  0  0  0  0  0
    3.9188    3.0224    0.0000 O   0  0  0  0  0  0  0  0  0  0  0  0
   -1.1484    1.3499    0.0000 O   0  0  0  0  0  0  0  0  0  0  0  0
    1.6944    1.6438    0.0000 O   0  0  0  0  0  0  0  0  0  0  0  0
    0.1881    2.3176    0.0000 O   0  0  0  0  0  0  0  0  0  0  0  0
   -5.4879    2.2246    0.0000 O   0  0  0  0  0  0  0  0  0  0  0  0
   -5.7919    1.0980    0.0000 O   0  0  0  0  0  0  0  0  0  0  0  0
   -4.3614    1.9206    0.0000 O   0  0  0  0  0  0  0  0  0  0  0  0
    0.0036    1.1654    0.0000 O   0  0  0  0  0  0  0  0  0  0  0  0
    1.2781    2.7338    0.0000 O   0  0  0  0  0  0  0  0  0  0  0  0
   -0.9640    2.5020    0.0000 O   0  0  0  0  0  0  0  0  0  0  0  0
    0.6044    1.2275    0.0000 O   0  0  0  0  0  0  0  0  0  0  0  0
    5.7516   -1.9652    0.0000 O   0  0  0  0  0  0  0  0  0  0  0  0
    3.2764   -1.9609    0.0000 O   0  0  0  0  0  0  0  0  0  0  0  0
   -3.6128   -0.6598    0.0000 N   0  0  0  0  0  0  0  0  0  0  0  0
    4.5177    0.1805    0.0000 N   0  3  0  0  0  0  0  0  0  0  0  0
   -3.6128   -1.9877    0.0000 N   0  0  0  0  0  0  0  0  0  0  0  0
   -5.1080   -0.4987    0.0000 N   0  0  0  0  0  0  0  0  0  0  0  0
   -5.8226   -1.7363    0.0000 N   0  0  0  0  0  0  0  0  0  0  0  0
   -5.1080   -2.9739    0.0000 N   0  0  0  0  0  0  0  0  0  0  0  0
    4.5127   -2.6775    0.0000 N   0  0  0  0  0  0  0  0  0  0  0  0
   -3.8403    0.7927    0.0000 C   0  0  2  0  0  0  0  0  0  0  0  0
   -3.3542    1.4593    0.0000 C   0  0  1  0  0  0  0  0  0  0  0  0
   -3.3565    0.1244    0.0000 C   0  0  1  0  0  0  0  0  0  0  0  0
   -2.5699    1.2031    0.0000 C   0  0  1  0  0  0  0  0  0  0  0  0
    4.4433    1.6488    0.0000 C   0  0  2  0  0  0  0  0  0  0  0  0
    3.8311    2.2020    0.0000 C   0  0  1  0  0  0  0  0  0  0  0  0
    4.1064    0.8957    0.0000 C   0  0  1  0  0  0  0  0  0  0  0  0
    3.1159    1.7907    0.0000 C   0  0  1  0  0  0  0  0  0  0  0  0
   -1.9016    1.6868    0.0000 C   0  0  0  0  0  0  0  0  0  0  0  0
    2.3627    2.1275    0.0000 C   0  0  0  0  0  0  0  0  0  0  0  0
   -4.3935   -0.9112    0.0000 C   0  0  0  0  0  0  0  0  0  0  0  0
   -3.1313   -1.3238    0.0000 C   0  0  0  0  0  0  0  0  0  0  0  0
    4.1039   -0.5333    0.0000 C   0  0  0  0  0  0  0  0  0  0  0  0
    5.3427    0.1791    0.0000 C   0  0  0  0  0  0  0  0  0  0  0  0
    4.5152   -1.2485    0.0000 C   0  0  1  0  0  0  0  0  0  0  0  0
   -4.3935   -1.7363    0.0000 C   0  0  0  0  0  0  0  0  0  0  0  0
    5.7540   -0.5361    0.0000 C   0  0  0  0  0  0  0  0  0  0  0  0
    5.3403   -1.2499    0.0000 C   0  0  0  0  0  0  0  0  0  0  0  0
   -5.1080   -2.1488    0.0000 C   0  0  0  0  0  0  0  0  0  0  0  0
    4.1014   -1.9623    0.0000 C   0  0  0  0  0  0  0  0  0  0  0  0
   -5.8226   -0.9112    0.0000 C   0  0  0  0  0  0  0  0  0  0  0  0
   -2.9575    2.9642    0.0000 H   0  0  0  0  0  0  0  0  0  0  0  0
    5.8985    1.0971    0.0000 H   0  0  0  0  0  0  0  0  0  0  0  0
    4.8056    3.4154    0.0000 H   0  0  0  0  0  0  0  0  0  0  0  0
   -5.0013    3.0637    0.0000 H   0  0  0  0  0  0  0  0  0  0  0  0
   -6.6311    1.5844    0.0000 H   0  0  0  0  0  0  0  0  0  0  0  0
   -0.3925    0.2800    0.0000 H   0  0  0  0  0  0  0  0  0  0  0  0
    2.2430    2.8336    0.0000 H   0  0  0  0  0  0  0  0  0  0  0  0
   -5.9606   -3.4661    0.0000 H   0  0  0  0  0  0  0  0  0  0  0  0
   -4.2554   -3.4661    0.0000 H   0  0  0  0  0  0  0  0  0  0  0  0
    4.0190   -3.5293    0.0000 H   0  0  0  0  0  0  0  0  0  0  0  0
    5.4972   -2.6792    0.0000 H   0  0  0  0  0  0  0  0  0  0  0  0
   -4.3244    1.7469    0.0000 H   0  0  0  0  0  0  0  0  0  0  0  0
   -4.4107    1.6285    0.0000 H   0  0  0  0  0  0  0  0  0  0  0  0
   -2.6012   -0.6335    0.0000 H   0  0  0  0  0  0  0  0  0  0  0  0
   -1.6174    0.7157    0.0000 H   0  0  0  0  0  0  0  0  0  0  0  0
    4.7220    2.6819    0.0000 H   0  0  0  0  0  0  0  0  0  0  0  0
    4.8307    2.5837    0.0000 H   0  0  0  0  0  0  0  0  0  0  0  0
    3.5221   -0.0007    0.0000 H   0  0  0  0  0  0  0  0  0  0  0  0
    2.2832    1.1187    0.0000 H   0  0  0  0  0  0  0  0  0  0  0  0
   -2.0116    2.7511    0.0000 H   0  0  0  0  0  0  0  0  0  0  0  0
   -2.8783    2.1238    0.0000 H   0  0  0  0  0  0  0  0  0  0  0  0
    2.2527    3.1918    0.0000 H   0  0  0  0  0  0  0  0  0  0  0  0
    3.2294    2.7550    0.0000 H   0  0  0  0  0  0  0  0  0  0  0  0
   -2.0993   -1.3238    0.0000 H   0  0  0  0  0  0  0  0  0  0  0  0
    3.0719   -0.5315    0.0000 H   0  0  0  0  0  0  0  0  0  0  0  0
    5.8602    1.0720    0.0000 H   0  0  0  0  0  0  0  0  0  0  0  0
    3.4452   -1.2466    0.0000 H   0  0  0  0  0  0  0  0  0  0  0  0
    6.7860   -0.5378    0.0000 H   0  0  0  0  0  0  0  0  0  0  0  0
   -6.7163   -0.3952    0.0000 H   0  0  0  0  0  0  0  0  0  0  0  0
  1  6  1  0  0  0  0
  1 13  1  0  0  0  0
  1 14  1  0  0  0  0
  1 15  2  0  0  0  0
  2 10  1  0  0  0  0
  2 12  1  0  0  0  0
  2 16  1  0  0  0  0
  2 18  2  0  0  0  0
  3 11  1  0  0  0  0
  3 12  1  0  0  0  0
  3 17  1  0  0  0  0
  3 19  2  0  0  0  0
  4 31  1  0  0  0  0
  4 32  1  0  0  0  0
  5 35  1  0  0  0  0
  5 36  1  0  0  0  0
  7 50  1  0  0  0  0
  8 51  1  0  0  0  0
  9 52  1  0  0  0  0
 10 37  1  0  0  0  0
 11 38  1  0  0  0  0
 13 53  1  0  0  0  0
 14 54  1  0  0  0  0
 16 55  1  0  0  0  0
 17 56  1  0  0  0  0
 20 46  2  0  0  0  0
 21 48  2  0  0  0  0
 22 39  1  0  0  0  0
 22 40  1  0  0  0  0
 23 41  2  0  0  0  0
 23 42  1  0  0  0  0
 24 40  2  0  0  0  0
 24 44  1  0  0  0  0
 25 39  2  0  0  0  0
 25 49  1  0  0  0  0
 26 47  1  0  0  0  0
 26 49  2  0  0  0  0
 27 47  1  0  0  0  0
 27 57  1  0  0  0  0
 27 58  1  0  0  0  0
 28 48  1  0  0  0  0
 28 59  1  0  0  0  0
 28 60  1  0  0  0  0
 29  6  1  0  0  0  0
 29 30  1  0  0  0  0
 29 31  1  0  0  0  0
 29 61  1  1  0  0  0
 30  7  1  0  0  0  0
 30 32  1  0  0  0  0
 30 62  1  1  0  0  0
 31 22  1  0  0  0  0
 31 63  1  6  0  0  0
 32 37  1  0  0  0  0
 32 64  1  6  0  0  0
 33  8  1  0  0  0  0
 33 34  1  0  0  0  0
 33 35  1  0  0  0  0
 33 65  1  6  0  0  0
 34  9  1  0  0  0  0
 34 36  1  0  0  0  0
 34 66  1  6  0  0  0
 35 23  1  0  0  0  0
 35 67  1  1  0  0  0
 36 38  1  0  0  0  0
 36 68  1  1  0  0  0
 37 69  1  0  0  0  0
 37 70  1  0  0  0  0
 38 71  1  0  0  0  0
 38 72  1  0  0  0  0
 39 44  1  0  0  0  0
 40 73  1  0  0  0  0
 41 43  1  0  0  0  0
 41 74  1  0  0  0  0
 42 45  2  0  0  0  0
 42 75  1  0  0  0  0
 43 46  1  0  0  0  0
 43 48  1  0  0  0  0
 43 76  1  6  0  0  0
 44 47  2  0  0  0  0
 45 46  1  0  0  0  0
 45 77  1  0  0  0  0
 49 78  1  0  0  0  0
M  CHG  1  23   1
M  END
>  <DRUGBANK_ID>
DB01753

>  <SECONDARY_ACCESSION_NUMBERS>
EXPT02418

>  <COMMON_NAME>
4-oxo-nicotinamide-adenine dinucleotide phosphate

$$$$
