
 OpenBabel10282417072D

 57 58  0  0  0  0  0  0  0  0999 V2000
    1.7834    0.3229    0.0000 C   0  0  1  0  0  0  0  0  0  0  0  0
    1.7793   -0.5021    0.0000 O   0  0  0  0  0  0  0  0  0  0  0  0
    2.4878   -0.9159    0.0000 C   0  0  1  0  0  0  0  0  0  0  0  0
    3.2051   -0.5093    0.0000 C   0  0  1  0  0  0  0  0  0  0  0  0
    3.2092    0.3157    0.0000 C   0  0  2  0  0  0  0  0  0  0  0  0
    2.4962    0.7342    0.0000 C   0  0  1  0  0  0  0  0  0  0  0  0
   -2.4877    0.3146    0.0000 C   0  0  2  0  0  0  0  0  0  0  0  0
   -2.4877   -0.5104    0.0000 C   0  0  0  0  0  0  0  0  0  0  0  0
   -1.7756   -0.9188    0.0000 C   0  0  0  0  0  0  0  0  0  0  0  0
   -1.0636   -0.5104    0.0000 N   0  0  0  0  0  0  0  0  0  0  0  0
   -1.0636    0.3146    0.0000 C   0  0  1  0  0  0  0  0  0  0  0  0
   -1.7756    0.7314    0.0000 C   0  0  0  0  0  0  0  0  0  0  0  0
   -0.3542    0.7314    0.0000 C   0  0  0  0  0  0  0  0  0  0  0  0
    0.3583    0.3188    0.0000 N   0  0  0  0  0  0  0  0  0  0  0  0
    1.0709    0.7355    0.0000 C   0  0  2  0  0  0  0  0  0  0  0  0
    2.4836   -1.7398    0.0000 S   0  0  0  0  0  0  0  0  0  0  0  0
   -3.2045    0.7272    0.0000 C   0  0  0  0  0  0  0  0  0  0  0  0
   -3.9212    0.3188    0.0000 C   0  0  0  0  0  0  0  0  0  0  0  0
    2.4919    1.5606    0.0000 O   0  0  0  0  0  0  0  0  0  0  0  0
    3.9212    0.7355    0.0000 O   0  0  0  0  0  0  0  0  0  0  0  0
    3.9172   -0.9188    0.0000 O   0  0  0  0  0  0  0  0  0  0  0  0
   -0.3583    1.5565    0.0000 O   0  0  0  0  0  0  0  0  0  0  0  0
    1.0668    1.5606    0.0000 C   0  0  2  0  0  0  0  0  0  0  0  0
    1.6502    2.1481    0.0000 C   0  0  0  0  0  0  0  0  0  0  0  0
    0.4792    2.1481    0.0000 Cl  0  0  0  0  0  0  0  0  0  0  0  0
    0.3542    1.1480    0.0000 H   0  0  0  0  0  0  0  0  0  0  0  0
    1.7793    1.1480    0.0000 H   0  0  0  0  0  0  0  0  0  0  0  0
    1.7669   -2.1481    0.0000 C   0  0  0  0  0  0  0  0  0  0  0  0
    1.5585   -1.4462    0.0000 H   0  0  0  0  0  0  0  0  0  0  0  0
    3.2018   -1.5793    0.0000 H   0  0  0  0  0  0  0  0  0  0  0  0
    4.1370   -0.2174    0.0000 H   0  0  0  0  0  0  0  0  0  0  0  0
    1.5682    1.2669    0.0000 H   0  0  0  0  0  0  0  0  0  0  0  0
   -2.4916    1.3846    0.0000 H   0  0  0  0  0  0  0  0  0  0  0  0
   -3.4136   -1.0467    0.0000 H   0  0  0  0  0  0  0  0  0  0  0  0
   -3.4147    0.0239    0.0000 H   0  0  0  0  0  0  0  0  0  0  0  0
   -1.7756   -1.9888    0.0000 H   0  0  0  0  0  0  0  0  0  0  0  0
   -0.8497   -1.4551    0.0000 H   0  0  0  0  0  0  0  0  0  0  0  0
   -0.1810   -1.0216    0.0000 H   0  0  0  0  0  0  0  0  0  0  0  0
   -0.1349   -0.2169    0.0000 H   0  0  0  0  0  0  0  0  0  0  0  0
   -1.7756    1.8014    0.0000 H   0  0  0  0  0  0  0  0  0  0  0  0
   -0.8473    1.2636    0.0000 H   0  0  0  0  0  0  0  0  0  0  0  0
    0.3604   -0.6657    0.0000 H   0  0  0  0  0  0  0  0  0  0  0  0
   -3.2022    1.7972    0.0000 H   0  0  0  0  0  0  0  0  0  0  0  0
   -4.1290    1.2658    0.0000 H   0  0  0  0  0  0  0  0  0  0  0  0
   -4.8448    0.8590    0.0000 H   0  0  0  0  0  0  0  0  0  0  0  0
   -3.9273   -0.7512    0.0000 H   0  0  0  0  0  0  0  0  0  0  0  0
   -4.8509   -0.2110    0.0000 H   0  0  0  0  0  0  0  0  0  0  0  0
    3.3294    2.0500    0.0000 H   0  0  0  0  0  0  0  0  0  0  0  0
    4.7656    0.2582    0.0000 H   0  0  0  0  0  0  0  0  0  0  0  0
    3.9189   -1.8888    0.0000 H   0  0  0  0  0  0  0  0  0  0  0  0
    0.0793    1.1486    0.0000 H   0  0  0  0  0  0  0  0  0  0  0  0
    2.6847    1.8748    0.0000 H   0  0  0  0  0  0  0  0  0  0  0  0
    1.3696    3.1807    0.0000 H   0  0  0  0  0  0  0  0  0  0  0  0
    2.4042    2.9073    0.0000 H   0  0  0  0  0  0  0  0  0  0  0  0
    0.8434   -1.6078    0.0000 H   0  0  0  0  0  0  0  0  0  0  0  0
    1.7607   -3.2181    0.0000 H   0  0  0  0  0  0  0  0  0  0  0  0
    0.8372   -2.6778    0.0000 H   0  0  0  0  0  0  0  0  0  0  0  0
  1  2  1  0  0  0  0
  1  6  1  0  0  0  0
  1 27  1  1  0  0  0
  2  3  1  0  0  0  0
  3 16  1  0  0  0  0
  3  4  1  0  0  0  0
  3 29  1  6  0  0  0
  4  5  1  0  0  0  0
  4 21  1  0  0  0  0
  4 30  1  6  0  0  0
  5 20  1  0  0  0  0
  5  6  1  0  0  0  0
  5 31  1  1  0  0  0
  6 19  1  0  0  0  0
  6 32  1  1  0  0  0
  7 17  1  0  0  0  0
  7 12  1  0  0  0  0
  7  8  1  0  0  0  0
  7 33  1  6  0  0  0
  8  9  1  0  0  0  0
  8 34  1  0  0  0  0
  8 35  1  0  0  0  0
  9 10  1  0  0  0  0
  9 36  1  0  0  0  0
  9 37  1  0  0  0  0
 10 11  1  0  0  0  0
 10 38  1  0  0  0  0
 11 12  1  0  0  0  0
 11 13  1  0  0  0  0
 11 39  1  6  0  0  0
 12 40  1  0  0  0  0
 12 41  1  0  0  0  0
 13 14  1  0  0  0  0
 13 22  2  0  0  0  0
 14 15  1  0  0  0  0
 14 42  1  0  0  0  0
 15  1  1  0  0  0  0
 15 23  1  0  0  0  0
 15 26  1  1  0  0  0
 16 28  1  0  0  0  0
 17 18  1  0  0  0  0
 17 43  1  0  0  0  0
 17 44  1  0  0  0  0
 18 45  1  0  0  0  0
 18 46  1  0  0  0  0
 18 47  1  0  0  0  0
 19 48  1  0  0  0  0
 20 49  1  0  0  0  0
 21 50  1  0  0  0  0
 23 24  1  0  0  0  0
 23 25  1  0  0  0  0
 23 51  1  6  0  0  0
 24 52  1  0  0  0  0
 24 53  1  0  0  0  0
 24 54  1  0  0  0  0
 28 55  1  0  0  0  0
 28 56  1  0  0  0  0
 28 57  1  0  0  0  0
M  END
>  <DRUGBANK_ID>
DB11537

>  <COMMON_NAME>
Pirlimycin

>  <CAS_NUMBER>
79548-73-5

>  <UNII>
LM19JT6G5K

>  <SYNONYMS>
Pirlimycin; Pirlimycina; Pirlimycine; Pirlimycinum

$$$$
