CS4
 OpenBabel10282417072D

 32 32  0  0  0  0  0  0  0  0999 V2000
   -3.0953    1.6775    0.0000 O   0  0  0  0  0  0  0  0  0  0  0  0
   -2.3809    2.0900    0.0000 C   0  0  0  0  0  0  0  0  0  0  0  0
   -1.6664    1.6775    0.0000 C   0  0  1  0  0  0  0  0  0  0  0  0
   -1.6664    0.8525    0.0000 N   0  0  0  0  0  0  0  0  0  0  0  0
   -0.9519    2.0900    0.0000 C   0  0  0  0  0  0  0  0  0  0  0  0
   -0.2374    1.6775    0.0000 S   0  0  0  0  0  0  0  0  0  0  0  0
    0.4770    2.0900    0.0000 C   0  0  0  0  0  0  0  0  0  0  0  0
    1.1915    1.6775    0.0000 C   0  0  0  0  0  0  0  0  0  0  0  0
    1.9060    2.0900    0.0000 C   0  0  0  0  0  0  0  0  0  0  0  0
    1.9060    2.9150    0.0000 O   0  0  0  0  0  0  0  0  0  0  0  0
    2.6204    1.6775    0.0000 C   0  0  0  0  0  0  0  0  0  0  0  0
    2.6204    0.8525    0.0000 C   0  0  0  0  0  0  0  0  0  0  0  0
    3.3349    2.0900    0.0000 C   0  0  0  0  0  0  0  0  0  0  0  0
    4.0494    1.6775    0.0000 C   0  0  0  0  0  0  0  0  0  0  0  0
    4.0494    0.8525    0.0000 C   0  0  0  0  0  0  0  0  0  0  0  0
    4.7639    0.4400    0.0000 Cl  0  0  0  0  0  0  0  0  0  0  0  0
    3.3349    0.4400    0.0000 C   0  0  0  0  0  0  0  0  0  0  0  0
    3.3349   -0.3850    0.0000 Cl  0  0  0  0  0  0  0  0  0  0  0  0
   -2.3809    2.9150    0.0000 O   0  0  0  0  0  0  0  0  0  0  0  0
   -1.6664    2.2614    0.0000 H   0  0  0  0  0  0  0  0  0  0  0  0
   -3.9068    2.1460    0.0000 H   0  0  0  0  0  0  0  0  0  0  0  0
   -2.5497    0.3425    0.0000 H   0  0  0  0  0  0  0  0  0  0  0  0
   -0.7831    0.3425    0.0000 H   0  0  0  0  0  0  0  0  0  0  0  0
   -0.9519    3.1600    0.0000 H   0  0  0  0  0  0  0  0  0  0  0  0
   -0.0253    2.6250    0.0000 H   0  0  0  0  0  0  0  0  0  0  0  0
    0.4770    3.1600    0.0000 H   0  0  0  0  0  0  0  0  0  0  0  0
    1.4036    2.6250    0.0000 H   0  0  0  0  0  0  0  0  0  0  0  0
    1.1915    0.6075    0.0000 H   0  0  0  0  0  0  0  0  0  0  0  0
    2.1181    1.1425    0.0000 H   0  0  0  0  0  0  0  0  0  0  0  0
    1.7267    0.3365    0.0000 H   0  0  0  0  0  0  0  0  0  0  0  0
    3.3349    3.1220    0.0000 H   0  0  0  0  0  0  0  0  0  0  0  0
    4.9431    2.1935    0.0000 H   0  0  0  0  0  0  0  0  0  0  0  0
  1  2  1  0  0  0  0
  1 21  1  0  0  0  0
  2  3  1  0  0  0  0
  2 19  2  0  0  0  0
  3  5  1  0  0  0  0
  3  4  1  0  0  0  0
  3 20  1  1  0  0  0
  4 22  1  0  0  0  0
  4 23  1  0  0  0  0
  5  6  1  0  0  0  0
  5 24  1  0  0  0  0
  5 25  1  0  0  0  0
  6  7  1  0  0  0  0
  7  8  1  0  0  0  0
  7 26  1  0  0  0  0
  7 27  1  0  0  0  0
  8  9  1  0  0  0  0
  8 28  1  0  0  0  0
  8 29  1  0  0  0  0
  9 11  1  0  0  0  0
  9 10  2  0  0  0  0
 11 13  2  0  0  0  0
 11 12  1  0  0  0  0
 12 17  2  0  0  0  0
 12 30  1  0  0  0  0
 13 14  1  0  0  0  0
 13 31  1  0  0  0  0
 14 15  2  0  0  0  0
 14 32  1  0  0  0  0
 15 16  1  0  0  0  0
 15 17  1  0  0  0  0
 17 18  1  0  0  0  0
M  END
>  <DRUGBANK_ID>
DB07590

>  <COMMON_NAME>
S-[3-(3,4-DICHLOROPHENYL)-3-OXOPROPYL]-L-CYSTEINE

$$$$
