
 OpenBabel10282417072D

 16 17  0  0  0  0  0  0  0  0999 V2000
   12.1750  -11.7106    0.0000 O   0  0  0  0  0  0  0  0  0  0  0  0
   12.1750  -14.1857    0.0000 N   0  0  0  0  0  0  0  0  0  0  0  0
   13.6701  -12.6968    0.0000 N   0  0  0  0  0  0  0  0  0  0  0  0
   13.6701  -14.0245    0.0000 N   0  0  0  0  0  0  0  0  0  0  0  0
   11.4605  -12.9481    0.0000 N   0  0  0  0  0  0  0  0  0  0  0  0
   10.7460  -14.1857    0.0000 N   0  0  0  0  0  0  0  0  0  0  0  0
   12.8895  -12.9481    0.0000 C   0  0  0  0  0  0  0  0  0  0  0  0
   12.8895  -13.7732    0.0000 C   0  0  0  0  0  0  0  0  0  0  0  0
   12.1750  -12.5356    0.0000 C   0  0  0  0  0  0  0  0  0  0  0  0
   11.4605  -13.7732    0.0000 C   0  0  0  0  0  0  0  0  0  0  0  0
   14.1516  -13.3607    0.0000 C   0  0  0  0  0  0  0  0  0  0  0  0
   12.1750  -15.1702    0.0000 H   0  0  0  0  0  0  0  0  0  0  0  0
   13.9760  -11.7610    0.0000 H   0  0  0  0  0  0  0  0  0  0  0  0
    9.8934  -13.6934    0.0000 H   0  0  0  0  0  0  0  0  0  0  0  0
   10.7460  -15.1702    0.0000 H   0  0  0  0  0  0  0  0  0  0  0  0
   15.1836  -13.3607    0.0000 H   0  0  0  0  0  0  0  0  0  0  0  0
  1  9  2  0  0  0  0
  2  8  1  0  0  0  0
  2 10  1  0  0  0  0
  2 12  1  0  0  0  0
  3  7  1  0  0  0  0
  3 11  1  0  0  0  0
  3 13  1  0  0  0  0
  4  8  1  0  0  0  0
  4 11  2  0  0  0  0
  5  9  1  0  0  0  0
  5 10  2  0  0  0  0
  6 10  1  0  0  0  0
  6 14  1  0  0  0  0
  6 15  1  0  0  0  0
  7  8  2  0  0  0  0
  7  9  1  0  0  0  0
 11 16  1  0  0  0  0
M  END
>  <DRUGBANK_ID>
DB02377

>  <SECONDARY_ACCESSION_NUMBERS>
EXPT01672

>  <COMMON_NAME>
Guanine

>  <CAS_NUMBER>
73-40-5

>  <UNII>
5Z93L87A1R

$$$$
