
 OpenBabel10282417072D

 28 29  0  0  1  0  0  0  0  0999 V2000
    1.3113    0.3601    0.0000 O   0  0  0  0  0  0  0  0  0  0  0  0
   -2.9871    0.6149    0.0000 O   0  0  0  0  0  0  0  0  0  0  0  0
   -0.0705   -1.4475    0.0000 O   0  0  0  0  0  0  0  0  0  0  0  0
   -1.1270   -1.5400    0.0000 O   0  0  0  0  0  0  0  0  0  0  0  0
    2.9871   -0.0401    0.0000 O   0  0  0  0  0  0  0  0  0  0  0  0
    2.6173   -1.4203    0.0000 O   0  0  0  0  0  0  0  0  0  0  0  0
   -0.4402   -0.0674    0.0000 C   0  0  2  0  0  0  0  0  0  0  0  0
   -0.8344    1.5400    0.0000 C   0  0  0  0  0  0  0  0  0  0  0  0
   -0.2268    0.7294    0.0000 C   0  0  2  0  0  0  0  0  0  0  0  0
    0.9659   -0.9292    0.0000 C   0  0  0  0  0  0  0  0  0  0  0  0
    1.6070   -0.4099    0.0000 C   0  0  1  0  0  0  0  0  0  0  0  0
   -2.3741    0.0630    0.0000 C   0  0  1  0  0  0  0  0  0  0  0  0
   -1.7067   -1.0930    0.0000 C   0  0  0  0  0  0  0  0  0  0  0  0
   -2.4603   -0.7573    0.0000 C   0  0  0  0  0  0  0  0  0  0  0  0
   -0.6537   -0.8642    0.0000 C   0  0  0  0  0  0  0  0  0  0  0  0
    2.4038   -0.6235    0.0000 C   0  0  0  0  0  0  0  0  0  0  0  0
   -0.0560    1.3668    0.0000 H   0  0  0  0  0  0  0  0  0  0  0  0
   -2.7855    1.5637    0.0000 H   0  0  0  0  0  0  0  0  0  0  0  0
   -0.3131   -2.3526    0.0000 H   0  0  0  0  0  0  0  0  0  0  0  0
    3.8922   -0.2825    0.0000 H   0  0  0  0  0  0  0  0  0  0  0  0
   -1.2920    2.5072    0.0000 H   0  0  0  0  0  0  0  0  0  0  0  0
    0.0819    2.0925    0.0000 H   0  0  0  0  0  0  0  0  0  0  0  0
    1.0359   -1.9969    0.0000 H   0  0  0  0  0  0  0  0  0  0  0  0
    1.9463   -1.3579    0.0000 H   0  0  0  0  0  0  0  0  0  0  0  0
    2.3230    0.3853    0.0000 H   0  0  0  0  0  0  0  0  0  0  0  0
   -2.1447    1.1081    0.0000 H   0  0  0  0  0  0  0  0  0  0  0  0
   -1.5721   -2.1162    0.0000 H   0  0  0  0  0  0  0  0  0  0  0  0
   -3.3541   -1.2732    0.0000 H   0  0  0  0  0  0  0  0  0  0  0  0
  1  9  1  0  0  0  0
  1 11  1  0  0  0  0
  2 18  1  0  0  0  0
  3 15  1  0  0  0  0
  3 19  1  0  0  0  0
  4 15  2  0  0  0  0
  5 16  1  0  0  0  0
  5 20  1  0  0  0  0
  6 16  2  0  0  0  0
  7  8  1  0  0  0  0
  7 10  1  0  0  0  0
  7 13  1  0  0  0  0
  7 15  1  1  0  0  0
  8  9  1  0  0  0  0
  8 21  1  0  0  0  0
  8 22  1  0  0  0  0
  9 12  1  0  0  0  0
  9 17  1  6  0  0  0
 10 11  1  0  0  0  0
 10 23  1  0  0  0  0
 10 24  1  0  0  0  0
 11 16  1  0  0  0  0
 11 25  1  1  0  0  0
 12  2  1  0  0  0  0
 12 14  1  0  0  0  0
 12 26  1  6  0  0  0
 13 14  2  0  0  0  0
 13 27  1  0  0  0  0
 14 28  1  0  0  0  0
M  END
>  <DRUGBANK_ID>
DB08648

>  <COMMON_NAME>
8-Hydroxy-2-oxa-bicyclo[3.3.1]non-6-ene-3,5-dicarboxylic acid

$$$$
