
 OpenBabel10282417072D

 50 53  0  0  0  0  0  0  0  0999 V2000
    3.3523    1.9354    0.0000 C   0  0  0  0  0  0  0  0  0  0  0  0
    3.3523    1.1104    0.0000 C   0  0  0  0  0  0  0  0  0  0  0  0
    2.6378    0.6979    0.0000 C   0  0  0  0  0  0  0  0  0  0  0  0
    1.9233    1.1104    0.0000 C   0  0  0  0  0  0  0  0  0  0  0  0
    1.9233    1.9354    0.0000 C   0  0  0  0  0  0  0  0  0  0  0  0
    2.6378    2.3479    0.0000 C   0  0  0  0  0  0  0  0  0  0  0  0
    1.1387    2.1904    0.0000 C   0  0  0  0  0  0  0  0  0  0  0  0
    0.6538    1.5229    0.0000 N   0  0  0  0  0  0  0  0  0  0  0  0
    1.1387    0.8555    0.0000 C   0  0  0  0  0  0  0  0  0  0  0  0
    0.8838    0.0709    0.0000 O   0  0  0  0  0  0  0  0  0  0  0  0
   -0.1712    1.5229    0.0000 C   0  0  0  0  0  0  0  0  0  0  0  0
   -0.5837    2.2374    0.0000 C   0  0  0  0  0  0  0  0  0  0  0  0
   -1.4087    2.2374    0.0000 C   0  0  0  0  0  0  0  0  0  0  0  0
   -1.8212    2.9519    0.0000 C   0  0  0  0  0  0  0  0  0  0  0  0
   -1.4087    3.6664    0.0000 N   0  0  0  0  0  0  0  0  0  0  0  0
   -0.5837    3.6664    0.0000 C   0  0  0  0  0  0  0  0  0  0  0  0
   -0.1712    2.9519    0.0000 C   0  0  0  0  0  0  0  0  0  0  0  0
   -1.8212    4.3808    0.0000 C   0  0  0  0  0  0  0  0  0  0  0  0
   -2.6462    4.3808    0.0000 C   0  0  0  0  0  0  0  0  0  0  0  0
   -3.0587    3.6664    0.0000 O   0  0  0  0  0  0  0  0  0  0  0  0
   -3.0587    5.0953    0.0000 C   0  0  0  0  0  0  0  0  0  0  0  0
   -3.8837    5.0953    0.0000 C   0  0  0  0  0  0  0  0  0  0  0  0
   -4.2962    5.8098    0.0000 C   0  0  0  0  0  0  0  0  0  0  0  0
   -3.8837    6.5242    0.0000 C   0  0  0  0  0  0  0  0  0  0  0  0
   -3.0587    6.5242    0.0000 C   0  0  0  0  0  0  0  0  0  0  0  0
   -2.6462    5.8098    0.0000 C   0  0  0  0  0  0  0  0  0  0  0  0
   -4.2962    7.2387    0.0000 F   0  0  0  0  0  0  0  0  0  0  0  0
    4.2460    2.4514    0.0000 H   0  0  0  0  0  0  0  0  0  0  0  0
    4.2460    0.5944    0.0000 H   0  0  0  0  0  0  0  0  0  0  0  0
    2.6378   -0.3341    0.0000 H   0  0  0  0  0  0  0  0  0  0  0  0
    2.6378    3.3799    0.0000 H   0  0  0  0  0  0  0  0  0  0  0  0
    0.8081    3.2080    0.0000 H   0  0  0  0  0  0  0  0  0  0  0  0
    0.0819    2.3578    0.0000 H   0  0  0  0  0  0  0  0  0  0  0  0
   -0.7062    0.5963    0.0000 H   0  0  0  0  0  0  0  0  0  0  0  0
   -1.2412    1.5229    0.0000 H   0  0  0  0  0  0  0  0  0  0  0  0
   -1.1187    3.1640    0.0000 H   0  0  0  0  0  0  0  0  0  0  0  0
   -1.9437    1.3108    0.0000 H   0  0  0  0  0  0  0  0  0  0  0  0
   -2.4787    2.2374    0.0000 H   0  0  0  0  0  0  0  0  0  0  0  0
   -2.8912    2.9519    0.0000 H   0  0  0  0  0  0  0  0  0  0  0  0
   -2.3562    3.8785    0.0000 H   0  0  0  0  0  0  0  0  0  0  0  0
   -0.0487    4.5930    0.0000 H   0  0  0  0  0  0  0  0  0  0  0  0
    0.4863    3.6664    0.0000 H   0  0  0  0  0  0  0  0  0  0  0  0
    0.8988    2.9519    0.0000 H   0  0  0  0  0  0  0  0  0  0  0  0
    0.3638    2.0253    0.0000 H   0  0  0  0  0  0  0  0  0  0  0  0
   -1.2862    5.3075    0.0000 H   0  0  0  0  0  0  0  0  0  0  0  0
   -2.3562    5.3074    0.0000 H   0  0  0  0  0  0  0  0  0  0  0  0
   -4.3997    4.2016    0.0000 H   0  0  0  0  0  0  0  0  0  0  0  0
   -5.3282    5.8098    0.0000 H   0  0  0  0  0  0  0  0  0  0  0  0
   -2.5427    7.4179    0.0000 H   0  0  0  0  0  0  0  0  0  0  0  0
   -1.6142    5.8098    0.0000 H   0  0  0  0  0  0  0  0  0  0  0  0
  1  2  2  0  0  0  0
  1  6  1  0  0  0  0
  1 28  1  0  0  0  0
  2  3  1  0  0  0  0
  2 29  1  0  0  0  0
  3  4  2  0  0  0  0
  3 30  1  0  0  0  0
  4  5  1  0  0  0  0
  4  9  1  0  0  0  0
  5  6  2  0  0  0  0
  5  7  1  0  0  0  0
  6 31  1  0  0  0  0
  7  8  1  0  0  0  0
  7 32  1  0  0  0  0
  7 33  1  0  0  0  0
  8  9  1  0  0  0  0
  8 11  1  0  0  0  0
  9 10  2  0  0  0  0
 11 12  1  0  0  0  0
 11 34  1  0  0  0  0
 11 35  1  0  0  0  0
 12 13  1  0  0  0  0
 12 17  1  0  0  0  0
 12 36  1  0  0  0  0
 13 14  1  0  0  0  0
 13 37  1  0  0  0  0
 13 38  1  0  0  0  0
 14 15  1  0  0  0  0
 14 39  1  0  0  0  0
 14 40  1  0  0  0  0
 15 16  1  0  0  0  0
 15 18  1  0  0  0  0
 16 17  1  0  0  0  0
 16 41  1  0  0  0  0
 16 42  1  0  0  0  0
 17 43  1  0  0  0  0
 17 44  1  0  0  0  0
 18 19  1  0  0  0  0
 18 45  1  0  0  0  0
 18 46  1  0  0  0  0
 19 20  2  0  0  0  0
 19 21  1  0  0  0  0
 21 22  2  0  0  0  0
 21 26  1  0  0  0  0
 22 23  1  0  0  0  0
 22 47  1  0  0  0  0
 23 24  2  0  0  0  0
 23 48  1  0  0  0  0
 24 25  1  0  0  0  0
 24 27  1  0  0  0  0
 25 26  2  0  0  0  0
 25 49  1  0  0  0  0
 26 50  1  0  0  0  0
M  END
>  <DRUGBANK_ID>
DB13080

>  <COMMON_NAME>
Roluperidone

>  <CAS_NUMBER>
359625-79-9

>  <UNII>
4P31I0M3BF

>  <SYNONYMS>
Roluperidone

$$$$
