
 OpenBabel10282417072D

 80 81  0  0  0  0  0  0  0  0999 V2000
   -3.2082    2.4726    0.0000 O   0  0  0  0  0  0  0  0  0  0  0  0
   -3.2082    3.2886    0.0000 C   0  0  0  0  0  0  0  0  0  0  0  0
   -2.4911    3.7089    0.0000 C   0  0  1  0  0  0  0  0  0  0  0  0
   -3.9252    3.7089    0.0000 O   0  0  0  0  0  0  0  0  0  0  0  0
   -2.4911    4.5373    0.0000 C   0  0  0  0  0  0  0  0  0  0  0  0
   -1.7864    3.2886    0.0000 N   0  0  0  0  0  0  0  0  0  0  0  0
   -3.2082    4.9452    0.0000 C   0  0  0  0  0  0  0  0  0  0  0  0
   -3.9252    4.5373    0.0000 C   0  0  0  0  0  0  0  0  0  0  0  0
   -3.2082    5.7736    0.0000 C   0  0  0  0  0  0  0  0  0  0  0  0
   -1.0694    3.7089    0.0000 C   0  0  0  0  0  0  0  0  0  0  0  0
   -0.3523    3.2886    0.0000 C   0  0  2  0  0  0  0  0  0  0  0  0
   -1.0694    4.5373    0.0000 O   0  0  0  0  0  0  0  0  0  0  0  0
    0.3523    3.7089    0.0000 C   0  0  0  0  0  0  0  0  0  0  0  0
   -0.3523    2.4726    0.0000 N   0  0  0  0  0  0  0  0  0  0  0  0
    0.3523    4.5373    0.0000 C   0  0  0  0  0  0  0  0  0  0  0  0
   -0.3523    4.9452    0.0000 C   0  0  0  0  0  0  0  0  0  0  0  0
    1.0694    4.9452    0.0000 C   0  0  0  0  0  0  0  0  0  0  0  0
    1.0694    5.7736    0.0000 C   0  0  0  0  0  0  0  0  0  0  0  0
   -0.3523    5.7736    0.0000 C   0  0  0  0  0  0  0  0  0  0  0  0
    0.3523    6.1816    0.0000 C   0  0  0  0  0  0  0  0  0  0  0  0
    0.3523    2.0523    0.0000 C   0  0  0  0  0  0  0  0  0  0  0  0
    1.0694    2.4726    0.0000 O   0  0  0  0  0  0  0  0  0  0  0  0
    0.3523    1.2363    0.0000 C   0  0  0  0  0  0  0  0  0  0  0  0
    1.0694    0.8160    0.0000 N   0  0  0  0  0  0  0  0  0  0  0  0
    1.0694    0.0000    0.0000 C   0  0  0  0  0  0  0  0  0  0  0  0
    0.3523   -0.4079    0.0000 O   0  0  0  0  0  0  0  0  0  0  0  0
    1.7864   -0.4079    0.0000 C   0  0  2  0  0  0  0  0  0  0  0  0
    1.7864   -1.2363    0.0000 N   0  0  0  0  0  0  0  0  0  0  0  0
    2.5035    0.0000    0.0000 C   0  0  0  0  0  0  0  0  0  0  0  0
    2.5035   -1.6443    0.0000 C   0  0  0  0  0  0  0  0  0  0  0  0
    2.5035   -2.4725    0.0000 C   0  0  2  0  0  0  0  0  0  0  0  0
    3.2082   -1.2363    0.0000 O   0  0  0  0  0  0  0  0  0  0  0  0
    3.2082   -2.8805    0.0000 C   0  0  0  0  0  0  0  0  0  0  0  0
    3.2082   -3.7089    0.0000 C   0  0  0  0  0  0  0  0  0  0  0  0
    1.7864   -2.8930    0.0000 N   0  0  0  0  0  0  0  0  0  0  0  0
    3.2082   -5.3531    0.0000 C   0  0  0  0  0  0  0  0  0  0  0  0
    2.5035   -4.1169    0.0000 C   0  0  0  0  0  0  0  0  0  0  0  0
    3.9252   -4.1169    0.0000 C   0  0  0  0  0  0  0  0  0  0  0  0
    2.5035   -4.9451    0.0000 C   0  0  0  0  0  0  0  0  0  0  0  0
    3.9252   -4.9451    0.0000 C   0  0  0  0  0  0  0  0  0  0  0  0
    3.2082   -6.1816    0.0000 O   0  0  0  0  0  0  0  0  0  0  0  0
   -4.0197    2.0041    0.0000 H   0  0  0  0  0  0  0  0  0  0  0  0
   -2.4952    2.6389    0.0000 H   0  0  0  0  0  0  0  0  0  0  0  0
   -1.5662    5.0753    0.0000 H   0  0  0  0  0  0  0  0  0  0  0  0
   -2.4963    5.6073    0.0000 H   0  0  0  0  0  0  0  0  0  0  0  0
   -1.7901    2.3041    0.0000 H   0  0  0  0  0  0  0  0  0  0  0  0
   -4.1331    5.4831    0.0000 H   0  0  0  0  0  0  0  0  0  0  0  0
   -4.8484    5.0782    0.0000 H   0  0  0  0  0  0  0  0  0  0  0  0
   -3.9320    3.4673    0.0000 H   0  0  0  0  0  0  0  0  0  0  0  0
   -4.8552    4.0082    0.0000 H   0  0  0  0  0  0  0  0  0  0  0  0
   -2.2816    6.3086    0.0000 H   0  0  0  0  0  0  0  0  0  0  0  0
   -4.1348    6.3086    0.0000 H   0  0  0  0  0  0  0  0  0  0  0  0
   -3.2082    6.8436    0.0000 H   0  0  0  0  0  0  0  0  0  0  0  0
   -0.3564    4.3586    0.0000 H   0  0  0  0  0  0  0  0  0  0  0  0
    1.2827    3.1805    0.0000 H   0  0  0  0  0  0  0  0  0  0  0  0
    1.2770    4.2472    0.0000 H   0  0  0  0  0  0  0  0  0  0  0  0
   -1.2084    1.9864    0.0000 H   0  0  0  0  0  0  0  0  0  0  0  0
   -1.2463    4.4297    0.0000 H   0  0  0  0  0  0  0  0  0  0  0  0
    1.9615    4.4263    0.0000 H   0  0  0  0  0  0  0  0  0  0  0  0
    1.9615    6.2924    0.0000 H   0  0  0  0  0  0  0  0  0  0  0  0
   -1.2464    6.2890    0.0000 H   0  0  0  0  0  0  0  0  0  0  0  0
    0.3484    7.2136    0.0000 H   0  0  0  0  0  0  0  0  0  0  0  0
   -0.5761    0.7043    0.0000 H   0  0  0  0  0  0  0  0  0  0  0  0
    0.3470    0.1663    0.0000 H   0  0  0  0  0  0  0  0  0  0  0  0
    1.9236    1.3055    0.0000 H   0  0  0  0  0  0  0  0  0  0  0  0
    0.8615   -0.9458    0.0000 H   0  0  0  0  0  0  0  0  0  0  0  0
    0.9354   -1.7312    0.0000 H   0  0  0  0  0  0  0  0  0  0  0  0
    3.4267   -0.5409    0.0000 H   0  0  0  0  0  0  0  0  0  0  0  0
    2.5104    1.0700    0.0000 H   0  0  0  0  0  0  0  0  0  0  0  0
    3.4336    0.5290    0.0000 H   0  0  0  0  0  0  0  0  0  0  0  0
    1.5751   -1.9406    0.0000 H   0  0  0  0  0  0  0  0  0  0  0  0
    4.1352   -2.3461    0.0000 H   0  0  0  0  0  0  0  0  0  0  0  0
    4.1347   -3.4158    0.0000 H   0  0  0  0  0  0  0  0  0  0  0  0
    0.8996   -2.3890    0.0000 H   0  0  0  0  0  0  0  0  0  0  0  0
    1.7933   -3.9130    0.0000 H   0  0  0  0  0  0  0  0  0  0  0  0
    1.6094   -3.6014    0.0000 H   0  0  0  0  0  0  0  0  0  0  0  0
    4.8173   -3.5981    0.0000 H   0  0  0  0  0  0  0  0  0  0  0  0
    1.6094   -5.4606    0.0000 H   0  0  0  0  0  0  0  0  0  0  0  0
    4.8173   -5.4639    0.0000 H   0  0  0  0  0  0  0  0  0  0  0  0
    2.3967   -6.6501    0.0000 H   0  0  0  0  0  0  0  0  0  0  0  0
  1  2  1  0  0  0  0
  1 42  1  0  0  0  0
  2  3  1  0  0  0  0
  2  4  2  0  0  0  0
  3  5  1  0  0  0  0
  3  6  1  0  0  0  0
  3 43  1  6  0  0  0
  5  7  1  0  0  0  0
  5 44  1  0  0  0  0
  5 45  1  0  0  0  0
  6 10  1  0  0  0  0
  6 46  1  0  0  0  0
  7  8  1  0  0  0  0
  7  9  1  0  0  0  0
  7 47  1  0  0  0  0
  8 48  1  0  0  0  0
  8 49  1  0  0  0  0
  8 50  1  0  0  0  0
  9 51  1  0  0  0  0
  9 52  1  0  0  0  0
  9 53  1  0  0  0  0
 10 11  1  0  0  0  0
 10 12  2  0  0  0  0
 11 13  1  0  0  0  0
 11 14  1  0  0  0  0
 11 54  1  1  0  0  0
 13 15  1  0  0  0  0
 13 55  1  0  0  0  0
 13 56  1  0  0  0  0
 14 21  1  0  0  0  0
 14 57  1  0  0  0  0
 15 16  2  0  0  0  0
 15 17  1  0  0  0  0
 16 19  1  0  0  0  0
 16 58  1  0  0  0  0
 17 18  2  0  0  0  0
 17 59  1  0  0  0  0
 18 20  1  0  0  0  0
 18 60  1  0  0  0  0
 19 20  2  0  0  0  0
 19 61  1  0  0  0  0
 20 62  1  0  0  0  0
 21 23  1  0  0  0  0
 21 22  2  0  0  0  0
 23 24  1  0  0  0  0
 23 63  1  0  0  0  0
 23 64  1  0  0  0  0
 24 25  1  0  0  0  0
 24 65  1  0  0  0  0
 25 26  2  0  0  0  0
 25 27  1  0  0  0  0
 27 28  1  0  0  0  0
 27 29  1  0  0  0  0
 27 66  1  6  0  0  0
 28 30  1  0  0  0  0
 28 67  1  0  0  0  0
 29 68  1  0  0  0  0
 29 69  1  0  0  0  0
 29 70  1  0  0  0  0
 30 31  1  0  0  0  0
 30 32  2  0  0  0  0
 31 33  1  0  0  0  0
 31 35  1  0  0  0  0
 31 71  1  1  0  0  0
 33 34  1  0  0  0  0
 33 72  1  0  0  0  0
 33 73  1  0  0  0  0
 34 37  2  0  0  0  0
 34 38  1  0  0  0  0
 35 74  1  0  0  0  0
 35 75  1  0  0  0  0
 36 40  1  0  0  0  0
 36 41  1  0  0  0  0
 36 39  2  0  0  0  0
 37 39  1  0  0  0  0
 37 76  1  0  0  0  0
 38 40  2  0  0  0  0
 38 77  1  0  0  0  0
 39 78  1  0  0  0  0
 40 79  1  0  0  0  0
 41 80  1  0  0  0  0
M  END
>  <DRUGBANK_ID>
DB08856

>  <COMMON_NAME>
DADLE

>  <CAS_NUMBER>
63631-40-3

>  <UNII>
CQK2YXW6EZ

>  <SYNONYMS>
[D-Ala2, D-Leu5]-Enkephalin; H-Tyr-D-Ala-Gly-Phe-D-Leu; L-Tyrosyl-D-alanylglycyl-L-phenylalanyl-D-leucine

$$$$
