1168
 OpenBabel10282417072D

 35 35  0  0  0  0  0  0  0  0999 V2000
    2.3645    2.0625    0.0000 O   0  0  0  0  0  0  0  0  0  0  0  0
    3.7935    2.0625    0.0000 N   0  0  0  0  0  0  0  0  0  0  0  0
    2.3645   -2.0625    0.0000 N   0  0  0  0  0  0  0  0  0  0  0  0
    2.3645   -2.8876    0.0000 N   0  0  0  0  0  0  0  0  0  0  0  0
    3.7935    2.8876    0.0000 C   0  0  0  0  0  0  0  0  0  0  0  0
    3.0791   -0.8250    0.0000 C   0  0  0  0  0  0  0  0  0  0  0  0
    3.0791    0.8250    0.0000 C   0  0  0  0  0  0  0  0  0  0  0  0
    3.0791    1.6500    0.0000 C   0  0  0  0  0  0  0  0  0  0  0  0
    3.0791   -1.6500    0.0000 C   0  0  0  0  0  0  0  0  0  0  0  0
    4.5080    3.3001    0.0000 C   0  0  0  0  0  0  0  0  0  0  0  0
    3.0791    3.3001    0.0000 C   0  0  0  0  0  0  0  0  0  0  0  0
    2.3645   -0.4125    0.0000 C   0  0  0  0  0  0  0  0  0  0  0  0
    3.7935   -0.4125    0.0000 C   0  0  0  0  0  0  0  0  0  0  0  0
    2.3645    0.4125    0.0000 C   0  0  0  0  0  0  0  0  0  0  0  0
    3.7935    0.4125    0.0000 C   0  0  0  0  0  0  0  0  0  0  0  0
    1.6500   -3.3001    0.0000 C   0  0  0  0  0  0  0  0  0  0  0  0
    4.6461    1.5703    0.0000 H   0  0  0  0  0  0  0  0  0  0  0  0
    1.4812   -1.5525    0.0000 H   0  0  0  0  0  0  0  0  0  0  0  0
    3.2478   -3.3976    0.0000 H   0  0  0  0  0  0  0  0  0  0  0  0
    3.7935    3.9576    0.0000 H   0  0  0  0  0  0  0  0  0  0  0  0
    4.0057   -2.1850    0.0000 H   0  0  0  0  0  0  0  0  0  0  0  0
    4.0058   -1.1150    0.0000 H   0  0  0  0  0  0  0  0  0  0  0  0
    5.4346    2.7651    0.0000 H   0  0  0  0  0  0  0  0  0  0  0  0
    4.5080    4.3701    0.0000 H   0  0  0  0  0  0  0  0  0  0  0  0
    5.4347    3.8351    0.0000 H   0  0  0  0  0  0  0  0  0  0  0  0
    3.0791    4.3701    0.0000 H   0  0  0  0  0  0  0  0  0  0  0  0
    2.1524    2.7651    0.0000 H   0  0  0  0  0  0  0  0  0  0  0  0
    2.1525    3.8351    0.0000 H   0  0  0  0  0  0  0  0  0  0  0  0
    1.4708   -0.9285    0.0000 H   0  0  0  0  0  0  0  0  0  0  0  0
    4.6872   -0.9285    0.0000 H   0  0  0  0  0  0  0  0  0  0  0  0
    1.4708    0.9285    0.0000 H   0  0  0  0  0  0  0  0  0  0  0  0
    4.6872    0.9285    0.0000 H   0  0  0  0  0  0  0  0  0  0  0  0
    0.7234   -2.7651    0.0000 H   0  0  0  0  0  0  0  0  0  0  0  0
    1.6500   -4.3701    0.0000 H   0  0  0  0  0  0  0  0  0  0  0  0
    0.7233   -3.8351    0.0000 H   0  0  0  0  0  0  0  0  0  0  0  0
  1  8  2  0  0  0  0
  2  5  1  0  0  0  0
  2  8  1  0  0  0  0
  2 17  1  0  0  0  0
  3  4  1  0  0  0  0
  3  9  1  0  0  0  0
  3 18  1  0  0  0  0
  4 16  1  0  0  0  0
  4 19  1  0  0  0  0
  5 10  1  0  0  0  0
  5 11  1  0  0  0  0
  5 20  1  0  0  0  0
  6  9  1  0  0  0  0
  6 12  2  0  0  0  0
  6 13  1  0  0  0  0
  7  8  1  0  0  0  0
  7 14  2  0  0  0  0
  7 15  1  0  0  0  0
  9 21  1  0  0  0  0
  9 22  1  0  0  0  0
 10 23  1  0  0  0  0
 10 24  1  0  0  0  0
 10 25  1  0  0  0  0
 11 26  1  0  0  0  0
 11 27  1  0  0  0  0
 11 28  1  0  0  0  0
 12 14  1  0  0  0  0
 12 29  1  0  0  0  0
 13 15  2  0  0  0  0
 13 30  1  0  0  0  0
 14 31  1  0  0  0  0
 15 32  1  0  0  0  0
 16 33  1  0  0  0  0
 16 34  1  0  0  0  0
 16 35  1  0  0  0  0
M  END
>  <DRUGBANK_ID>
DB01168

>  <SECONDARY_ACCESSION_NUMBERS>
APRD00695

>  <COMMON_NAME>
Procarbazine

>  <CAS_NUMBER>
671-16-9

>  <UNII>
35S93Y190K

>  <SYNONYMS>
1-Methyl-2-(p-(isopropylcarbamoyl)benzyl)hydrazine; 2-(p-Isopropylcarbamoylbenzyl)-1-methylhydrazine; 4-((2-Methylhydrazino)methyl)-N-isopropylbenzamide; N-(1-Methylethyl)-4-((2-methylhydrazino)methyl)benzamide; N-4-Isopropylcarbamoylbenzyl-N'-methylhydrazine; N-isopropyl-4-[(2-methylhydrazino)methyl]benzamide; N-Isopropyl-p-(2-methylhydrazinomethyl)-benzamide; N-Isopropyl-Î±-(2-methylhydrazino)-p-toluamide; p-(2-Methylhydrazinomethyl)-N-isopropylbenzamide; Procarbazin; Procarbazina; Procarbazine; Procarbazinum

$$$$
