
 OpenBabel10282417072D

 36 36  0  0  0  0  0  0  0  0999 V2000
   -3.5797    0.0033    0.0000 C   0  0  0  0  0  0  0  0  0  0  0  0
   -3.5797   -0.8217    0.0000 C   0  0  0  0  0  0  0  0  0  0  0  0
   -2.8653   -1.2342    0.0000 C   0  0  0  0  0  0  0  0  0  0  0  0
   -2.1508   -0.8217    0.0000 C   0  0  0  0  0  0  0  0  0  0  0  0
   -2.1508    0.0033    0.0000 C   0  0  0  0  0  0  0  0  0  0  0  0
   -2.8653    0.4158    0.0000 C   0  0  0  0  0  0  0  0  0  0  0  0
   -1.4215    0.4158    0.0000 N   0  0  0  0  0  0  0  0  0  0  0  0
   -0.7070    0.0033    0.0000 C   0  0  0  0  0  0  0  0  0  0  0  0
    0.0073    0.4158    0.0000 C   0  0  0  0  0  0  0  0  0  0  0  0
    0.7218    0.0033    0.0000 N   0  0  0  0  0  0  0  0  0  0  0  0
    1.4363    0.4158    0.0000 C   0  0  0  0  0  0  0  0  0  0  0  0
    2.1508    0.0033    0.0000 C   0  0  0  0  0  0  0  0  0  0  0  0
    2.8652    0.4158    0.0000 C   0  0  0  0  0  0  0  0  0  0  0  0
    3.5797    0.0033    0.0000 C   0  0  0  0  0  0  0  0  0  0  0  0
   -2.8653    1.2406    0.0000 C   0  0  0  0  0  0  0  0  0  0  0  0
   -1.4253   -1.2406    0.0000 Cl  0  0  0  0  0  0  0  0  0  0  0  0
   -0.7070   -0.8215    0.0000 O   0  0  0  0  0  0  0  0  0  0  0  0
   -4.4734    0.5193    0.0000 H   0  0  0  0  0  0  0  0  0  0  0  0
   -4.4734   -1.3377    0.0000 H   0  0  0  0  0  0  0  0  0  0  0  0
   -2.8653   -2.2662    0.0000 H   0  0  0  0  0  0  0  0  0  0  0  0
   -1.4172    1.4003    0.0000 H   0  0  0  0  0  0  0  0  0  0  0  0
    0.0072    1.4858    0.0000 H   0  0  0  0  0  0  0  0  0  0  0  0
    0.9339    0.9508    0.0000 H   0  0  0  0  0  0  0  0  0  0  0  0
    0.7218   -1.0167    0.0000 H   0  0  0  0  0  0  0  0  0  0  0  0
    1.4363    1.4858    0.0000 H   0  0  0  0  0  0  0  0  0  0  0  0
    2.3629    0.9508    0.0000 H   0  0  0  0  0  0  0  0  0  0  0  0
    2.1508   -1.0667    0.0000 H   0  0  0  0  0  0  0  0  0  0  0  0
    3.0775   -0.5317    0.0000 H   0  0  0  0  0  0  0  0  0  0  0  0
    2.8652    1.4858    0.0000 H   0  0  0  0  0  0  0  0  0  0  0  0
    3.7918    0.9508    0.0000 H   0  0  0  0  0  0  0  0  0  0  0  0
    3.5797   -1.0667    0.0000 H   0  0  0  0  0  0  0  0  0  0  0  0
    4.5063    0.5383    0.0000 H   0  0  0  0  0  0  0  0  0  0  0  0
    4.5064   -0.5317    0.0000 H   0  0  0  0  0  0  0  0  0  0  0  0
   -1.9387    1.7756    0.0000 H   0  0  0  0  0  0  0  0  0  0  0  0
   -3.7919    1.7756    0.0000 H   0  0  0  0  0  0  0  0  0  0  0  0
   -2.8653    2.3106    0.0000 H   0  0  0  0  0  0  0  0  0  0  0  0
  1  2  2  0  0  0  0
  1  6  1  0  0  0  0
  1 18  1  0  0  0  0
  2  3  1  0  0  0  0
  2 19  1  0  0  0  0
  3  4  2  0  0  0  0
  3 20  1  0  0  0  0
  4  5  1  0  0  0  0
  4 16  1  0  0  0  0
  5  6  2  0  0  0  0
  5  7  1  0  0  0  0
  6 15  1  0  0  0  0
  7  8  1  0  0  0  0
  7 21  1  0  0  0  0
  8  9  1  0  0  0  0
  8 17  2  0  0  0  0
  9 10  1  0  0  0  0
  9 22  1  0  0  0  0
  9 23  1  0  0  0  0
 10 11  1  0  0  0  0
 10 24  1  0  0  0  0
 11 12  1  0  0  0  0
 11 25  1  0  0  0  0
 11 26  1  0  0  0  0
 12 13  1  0  0  0  0
 12 27  1  0  0  0  0
 12 28  1  0  0  0  0
 13 14  1  0  0  0  0
 13 29  1  0  0  0  0
 13 30  1  0  0  0  0
 14 31  1  0  0  0  0
 14 32  1  0  0  0  0
 14 33  1  0  0  0  0
 15 34  1  0  0  0  0
 15 35  1  0  0  0  0
 15 36  1  0  0  0  0
M  END
>  <DRUGBANK_ID>
DB13328

>  <COMMON_NAME>
Butanilicaine

>  <CAS_NUMBER>
3785-21-5

>  <UNII>
7X3WV51F4N

>  <SYNONYMS>
2-(Butylamino)-6'-chloro-o-acetoluidide; 2-(Butylamino)-N-(2-chloro-6-methylphenyl)acetamide; 2-Butylamino-6'-chloro-o-acetotoluidide; Butacetoluide; Butanilicaina; Butanilicaine; Butanilicainum

$$$$
