PE7
 OpenBabel10282417072D

 52 51  0  0  0  0  0  0  0  0999 V2000
   -7.5842   -0.1964    0.0000 S   0  0  0  0  0  0  0  0  0  0  0  0
   -6.8697    0.2161    0.0000 C   0  0  0  0  0  0  0  0  0  0  0  0
   -6.1552   -0.1964    0.0000 C   0  0  0  0  0  0  0  0  0  0  0  0
   -5.4406    0.2161    0.0000 O   0  0  0  0  0  0  0  0  0  0  0  0
   -4.7261   -0.1964    0.0000 C   0  0  0  0  0  0  0  0  0  0  0  0
   -4.0116    0.2161    0.0000 C   0  0  0  0  0  0  0  0  0  0  0  0
   -3.2970   -0.1964    0.0000 O   0  0  0  0  0  0  0  0  0  0  0  0
   -2.5825    0.2161    0.0000 C   0  0  0  0  0  0  0  0  0  0  0  0
   -1.8680   -0.1964    0.0000 C   0  0  0  0  0  0  0  0  0  0  0  0
   -1.1535    0.2161    0.0000 O   0  0  0  0  0  0  0  0  0  0  0  0
   -0.4389   -0.1964    0.0000 C   0  0  0  0  0  0  0  0  0  0  0  0
    0.2756    0.2161    0.0000 C   0  0  0  0  0  0  0  0  0  0  0  0
    0.9901   -0.1964    0.0000 O   0  0  0  0  0  0  0  0  0  0  0  0
    1.7046    0.2161    0.0000 C   0  0  0  0  0  0  0  0  0  0  0  0
    2.4192   -0.1964    0.0000 C   0  0  0  0  0  0  0  0  0  0  0  0
    3.1336    0.2161    0.0000 O   0  0  0  0  0  0  0  0  0  0  0  0
    3.8482   -0.1964    0.0000 C   0  0  0  0  0  0  0  0  0  0  0  0
    4.5627    0.2161    0.0000 C   0  0  0  0  0  0  0  0  0  0  0  0
    5.2773   -0.1964    0.0000 O   0  0  0  0  0  0  0  0  0  0  0  0
    5.9917    0.2161    0.0000 C   0  0  0  0  0  0  0  0  0  0  0  0
    6.7063   -0.1964    0.0000 C   0  0  0  0  0  0  0  0  0  0  0  0
    7.4209    0.2161    0.0000 O   0  0  0  0  0  0  0  0  0  0  0  0
   -8.7620    0.4836    0.0000 H   0  0  0  0  0  0  0  0  0  0  0  0
   -6.8697    1.2861    0.0000 H   0  0  0  0  0  0  0  0  0  0  0  0
   -5.9431    0.7511    0.0000 H   0  0  0  0  0  0  0  0  0  0  0  0
   -6.1552   -1.2664    0.0000 H   0  0  0  0  0  0  0  0  0  0  0  0
   -5.2286   -0.7315    0.0000 H   0  0  0  0  0  0  0  0  0  0  0  0
   -4.7261   -1.2664    0.0000 H   0  0  0  0  0  0  0  0  0  0  0  0
   -3.7995   -0.7314    0.0000 H   0  0  0  0  0  0  0  0  0  0  0  0
   -4.0116    1.2861    0.0000 H   0  0  0  0  0  0  0  0  0  0  0  0
   -3.0850    0.7512    0.0000 H   0  0  0  0  0  0  0  0  0  0  0  0
   -2.5825    1.2861    0.0000 H   0  0  0  0  0  0  0  0  0  0  0  0
   -1.6559    0.7511    0.0000 H   0  0  0  0  0  0  0  0  0  0  0  0
   -1.8680   -1.2664    0.0000 H   0  0  0  0  0  0  0  0  0  0  0  0
   -0.9414   -0.7314    0.0000 H   0  0  0  0  0  0  0  0  0  0  0  0
   -0.4389   -1.2664    0.0000 H   0  0  0  0  0  0  0  0  0  0  0  0
    0.4878   -0.7314    0.0000 H   0  0  0  0  0  0  0  0  0  0  0  0
    0.2756    1.2861    0.0000 H   0  0  0  0  0  0  0  0  0  0  0  0
    1.2022    0.7511    0.0000 H   0  0  0  0  0  0  0  0  0  0  0  0
    1.7046    1.2861    0.0000 H   0  0  0  0  0  0  0  0  0  0  0  0
    2.6312    0.7512    0.0000 H   0  0  0  0  0  0  0  0  0  0  0  0
    2.4193   -1.2664    0.0000 H   0  0  0  0  0  0  0  0  0  0  0  0
    3.3459   -0.7314    0.0000 H   0  0  0  0  0  0  0  0  0  0  0  0
    3.8482   -1.2664    0.0000 H   0  0  0  0  0  0  0  0  0  0  0  0
    4.7749   -0.7314    0.0000 H   0  0  0  0  0  0  0  0  0  0  0  0
    4.5627    1.2861    0.0000 H   0  0  0  0  0  0  0  0  0  0  0  0
    5.4893    0.7512    0.0000 H   0  0  0  0  0  0  0  0  0  0  0  0
    5.9916    1.2861    0.0000 H   0  0  0  0  0  0  0  0  0  0  0  0
    6.9183    0.7512    0.0000 H   0  0  0  0  0  0  0  0  0  0  0  0
    6.7063   -1.2664    0.0000 H   0  0  0  0  0  0  0  0  0  0  0  0
    7.6329   -0.7314    0.0000 H   0  0  0  0  0  0  0  0  0  0  0  0
    8.2609   -0.2690    0.0000 H   0  0  0  0  0  0  0  0  0  0  0  0
  1  2  1  0  0  0  0
  1 23  1  0  0  0  0
  2  3  1  0  0  0  0
  2 24  1  0  0  0  0
  2 25  1  0  0  0  0
  3  4  1  0  0  0  0
  3 26  1  0  0  0  0
  3 27  1  0  0  0  0
  4  5  1  0  0  0  0
  5  6  1  0  0  0  0
  5 28  1  0  0  0  0
  5 29  1  0  0  0  0
  6  7  1  0  0  0  0
  6 30  1  0  0  0  0
  6 31  1  0  0  0  0
  7  8  1  0  0  0  0
  8  9  1  0  0  0  0
  8 32  1  0  0  0  0
  8 33  1  0  0  0  0
  9 10  1  0  0  0  0
  9 34  1  0  0  0  0
  9 35  1  0  0  0  0
 10 11  1  0  0  0  0
 11 12  1  0  0  0  0
 11 36  1  0  0  0  0
 11 37  1  0  0  0  0
 12 13  1  0  0  0  0
 12 38  1  0  0  0  0
 12 39  1  0  0  0  0
 13 14  1  0  0  0  0
 14 15  1  0  0  0  0
 14 40  1  0  0  0  0
 14 41  1  0  0  0  0
 15 16  1  0  0  0  0
 15 42  1  0  0  0  0
 15 43  1  0  0  0  0
 16 17  1  0  0  0  0
 17 18  1  0  0  0  0
 17 44  1  0  0  0  0
 17 45  1  0  0  0  0
 18 19  1  0  0  0  0
 18 46  1  0  0  0  0
 18 47  1  0  0  0  0
 19 20  1  0  0  0  0
 20 21  1  0  0  0  0
 20 48  1  0  0  0  0
 20 49  1  0  0  0  0
 21 22  1  0  0  0  0
 21 50  1  0  0  0  0
 21 51  1  0  0  0  0
 22 52  1  0  0  0  0
M  END
>  <DRUGBANK_ID>
DB02404

>  <SECONDARY_ACCESSION_NUMBERS>
EXPT02540

>  <COMMON_NAME>
1-Deoxy-1-Thio-Heptaethylene Glycol

$$$$
