
 OpenBabel10282417072D

 37 38  0  0  1  0  0  0  0  0999 V2000
    0.1067    1.5884    0.0000 C   0  0  0  0  0  0  0  0  0  0  0  0
   -0.6078    1.1759    0.0000 C   0  0  2  0  0  0  0  0  0  0  0  0
   -0.6078    0.3509    0.0000 C   0  0  0  0  0  0  0  0  0  0  0  0
   -0.6078   -0.4741    0.0000 C   0  0  0  0  0  0  0  0  0  0  0  0
   -0.6078   -1.2991    0.0000 C   0  0  0  0  0  0  0  0  0  0  0  0
    0.0597   -1.7840    0.0000 C   0  0  0  0  0  0  0  0  0  0  0  0
   -0.1953   -2.5687    0.0000 C   0  0  0  0  0  0  0  0  0  0  0  0
   -1.0203   -2.5687    0.0000 C   0  0  0  0  0  0  0  0  0  0  0  0
   -1.2752   -1.7840    0.0000 S   0  0  0  0  0  0  0  0  0  0  0  0
   -1.5052   -3.2361    0.0000 C   0  0  0  0  0  0  0  0  0  0  0  0
   -1.1696   -3.9898    0.0000 C   0  0  0  0  0  0  0  0  0  0  0  0
   -0.3491   -4.0760    0.0000 C   0  0  0  0  0  0  0  0  0  0  0  0
   -0.0136   -4.8297    0.0000 C   0  0  0  0  0  0  0  0  0  0  0  0
   -0.4985   -5.4971    0.0000 C   0  0  0  0  0  0  0  0  0  0  0  0
   -1.3190   -5.4109    0.0000 C   0  0  0  0  0  0  0  0  0  0  0  0
   -1.6546   -4.6572    0.0000 C   0  0  0  0  0  0  0  0  0  0  0  0
   -0.1630   -6.2508    0.0000 F   0  0  0  0  0  0  0  0  0  0  0  0
   -1.3222    1.5884    0.0000 N   0  0  0  0  0  0  0  0  0  0  0  0
   -1.3222    2.4134    0.0000 C   0  0  0  0  0  0  0  0  0  0  0  0
   -2.0367    2.8259    0.0000 O   0  0  0  0  0  0  0  0  0  0  0  0
   -0.6078    2.8259    0.0000 N   0  0  0  0  0  0  0  0  0  0  0  0
   -2.0367    1.1759    0.0000 O   0  0  0  0  0  0  0  0  0  0  0  0
    1.0333    1.0534    0.0000 H   0  0  0  0  0  0  0  0  0  0  0  0
    0.1067    2.6584    0.0000 H   0  0  0  0  0  0  0  0  0  0  0  0
    1.0334    2.1234    0.0000 H   0  0  0  0  0  0  0  0  0  0  0  0
    0.3188    0.6409    0.0000 H   0  0  0  0  0  0  0  0  0  0  0  0
    1.0412   -1.4651    0.0000 H   0  0  0  0  0  0  0  0  0  0  0  0
    0.4113   -3.4036    0.0000 H   0  0  0  0  0  0  0  0  0  0  0  0
   -2.5693   -3.1243    0.0000 H   0  0  0  0  0  0  0  0  0  0  0  0
   -2.1341   -4.1018    0.0000 H   0  0  0  0  0  0  0  0  0  0  0  0
    0.2575   -3.2411    0.0000 H   0  0  0  0  0  0  0  0  0  0  0  0
    1.0127   -4.9376    0.0000 H   0  0  0  0  0  0  0  0  0  0  0  0
   -1.9256   -6.2458    0.0000 H   0  0  0  0  0  0  0  0  0  0  0  0
   -2.6809   -4.5493    0.0000 H   0  0  0  0  0  0  0  0  0  0  0  0
    0.2448    2.3337    0.0000 H   0  0  0  0  0  0  0  0  0  0  0  0
   -0.6078    3.8104    0.0000 H   0  0  0  0  0  0  0  0  0  0  0  0
   -2.8767    1.6609    0.0000 H   0  0  0  0  0  0  0  0  0  0  0  0
  1 23  1  0  0  0  0
  1 24  1  0  0  0  0
  1 25  1  0  0  0  0
  2  1  1  0  0  0  0
  2  3  1  0  0  0  0
  2 18  1  0  0  0  0
  2 26  1  1  0  0  0
  3  4  3  0  0  0  0
  4  5  1  0  0  0  0
  5  6  2  0  0  0  0
  5  9  1  0  0  0  0
  6  7  1  0  0  0  0
  6 27  1  0  0  0  0
  7  8  2  0  0  0  0
  7 28  1  0  0  0  0
  8  9  1  0  0  0  0
  8 10  1  0  0  0  0
 10 11  1  0  0  0  0
 10 29  1  0  0  0  0
 10 30  1  0  0  0  0
 11 12  2  0  0  0  0
 11 16  1  0  0  0  0
 12 13  1  0  0  0  0
 12 31  1  0  0  0  0
 13 14  2  0  0  0  0
 13 32  1  0  0  0  0
 14 15  1  0  0  0  0
 14 17  1  0  0  0  0
 15 16  2  0  0  0  0
 15 33  1  0  0  0  0
 16 34  1  0  0  0  0
 18 19  1  0  0  0  0
 18 22  1  0  0  0  0
 19 20  2  0  0  0  0
 19 21  1  0  0  0  0
 21 35  1  0  0  0  0
 21 36  1  0  0  0  0
 22 37  1  0  0  0  0
M  END
>  <DRUGBANK_ID>
DB12758

>  <COMMON_NAME>
Atreleuton

>  <CAS_NUMBER>
154355-76-7

>  <UNII>
U301T88E1M

>  <SYNONYMS>
Atreleuton

$$$$
