179
 OpenBabel10282417072D

 44 45  0  0  1  0  0  0  0  0999 V2000
    7.0944   -3.5063    0.0000 O   0  0  0  0  0  0  0  0  0  0  0  0
    3.5220    3.5063    0.0000 O   0  0  0  0  0  0  0  0  0  0  0  0
    8.5234   -2.6813    0.0000 O   0  0  0  0  0  0  0  0  0  0  0  0
    2.0930    2.6813    0.0000 O   0  0  0  0  0  0  0  0  0  0  0  0
    5.6655   -0.2063    0.0000 C   0  0  2  0  0  0  0  0  0  0  0  0
    4.9509    0.2063    0.0000 C   0  0  1  0  0  0  0  0  0  0  0  0
    5.6655   -1.0313    0.0000 C   0  0  0  0  0  0  0  0  0  0  0  0
    4.9509    1.0313    0.0000 C   0  0  0  0  0  0  0  0  0  0  0  0
    6.3799    0.2063    0.0000 C   0  0  0  0  0  0  0  0  0  0  0  0
    4.2365   -0.2063    0.0000 C   0  0  0  0  0  0  0  0  0  0  0  0
    6.3799   -1.4438    0.0000 C   0  0  0  0  0  0  0  0  0  0  0  0
    4.2365    1.4438    0.0000 C   0  0  0  0  0  0  0  0  0  0  0  0
    6.3799   -2.2688    0.0000 C   0  0  0  0  0  0  0  0  0  0  0  0
    4.2365    2.2688    0.0000 C   0  0  0  0  0  0  0  0  0  0  0  0
    7.0944   -1.0313    0.0000 C   0  0  0  0  0  0  0  0  0  0  0  0
    3.5220    1.0313    0.0000 C   0  0  0  0  0  0  0  0  0  0  0  0
    7.0944   -2.6813    0.0000 C   0  0  0  0  0  0  0  0  0  0  0  0
    3.5220    2.6813    0.0000 C   0  0  0  0  0  0  0  0  0  0  0  0
    7.8089   -1.4438    0.0000 C   0  0  0  0  0  0  0  0  0  0  0  0
    2.8075    1.4438    0.0000 C   0  0  0  0  0  0  0  0  0  0  0  0
    7.8089   -2.2688    0.0000 C   0  0  0  0  0  0  0  0  0  0  0  0
    2.8075    2.2688    0.0000 C   0  0  0  0  0  0  0  0  0  0  0  0
    6.2829   -3.9748    0.0000 H   0  0  0  0  0  0  0  0  0  0  0  0
    4.3335    3.9748    0.0000 H   0  0  0  0  0  0  0  0  0  0  0  0
    8.5234   -3.6183    0.0000 H   0  0  0  0  0  0  0  0  0  0  0  0
    2.0930    3.6183    0.0000 H   0  0  0  0  0  0  0  0  0  0  0  0
    5.6654    0.8637    0.0000 H   0  0  0  0  0  0  0  0  0  0  0  0
    4.9510   -0.8637    0.0000 H   0  0  0  0  0  0  0  0  0  0  0  0
    4.7388   -1.5663    0.0000 H   0  0  0  0  0  0  0  0  0  0  0  0
    5.6655   -2.1013    0.0000 H   0  0  0  0  0  0  0  0  0  0  0  0
    5.8776    1.5663    0.0000 H   0  0  0  0  0  0  0  0  0  0  0  0
    4.9509    2.1013    0.0000 H   0  0  0  0  0  0  0  0  0  0  0  0
    7.3066   -0.3286    0.0000 H   0  0  0  0  0  0  0  0  0  0  0  0
    6.3797    1.2763    0.0000 H   0  0  0  0  0  0  0  0  0  0  0  0
    7.3065    0.7414    0.0000 H   0  0  0  0  0  0  0  0  0  0  0  0
    3.3098    0.3286    0.0000 H   0  0  0  0  0  0  0  0  0  0  0  0
    4.2367   -1.2763    0.0000 H   0  0  0  0  0  0  0  0  0  0  0  0
    3.3099   -0.7414    0.0000 H   0  0  0  0  0  0  0  0  0  0  0  0
    5.4862   -2.7848    0.0000 H   0  0  0  0  0  0  0  0  0  0  0  0
    5.1302    2.7848    0.0000 H   0  0  0  0  0  0  0  0  0  0  0  0
    7.0944    0.0007    0.0000 H   0  0  0  0  0  0  0  0  0  0  0  0
    3.5220   -0.0007    0.0000 H   0  0  0  0  0  0  0  0  0  0  0  0
    8.7026   -0.9278    0.0000 H   0  0  0  0  0  0  0  0  0  0  0  0
    1.9138    0.9278    0.0000 H   0  0  0  0  0  0  0  0  0  0  0  0
  1 17  1  0  0  0  0
  1 23  1  0  0  0  0
  2 18  1  0  0  0  0
  2 24  1  0  0  0  0
  3 21  1  0  0  0  0
  3 25  1  0  0  0  0
  4 22  1  0  0  0  0
  4 26  1  0  0  0  0
  5  6  1  0  0  0  0
  5  7  1  0  0  0  0
  5  9  1  0  0  0  0
  5 27  1  6  0  0  0
  6  8  1  0  0  0  0
  6 10  1  0  0  0  0
  6 28  1  1  0  0  0
  7 11  1  0  0  0  0
  7 29  1  0  0  0  0
  7 30  1  0  0  0  0
  8 12  1  0  0  0  0
  8 31  1  0  0  0  0
  8 32  1  0  0  0  0
  9 33  1  0  0  0  0
  9 34  1  0  0  0  0
  9 35  1  0  0  0  0
 10 36  1  0  0  0  0
 10 37  1  0  0  0  0
 10 38  1  0  0  0  0
 11 13  2  0  0  0  0
 11 15  1  0  0  0  0
 12 14  2  0  0  0  0
 12 16  1  0  0  0  0
 13 17  1  0  0  0  0
 13 39  1  0  0  0  0
 14 18  1  0  0  0  0
 14 40  1  0  0  0  0
 15 19  2  0  0  0  0
 15 41  1  0  0  0  0
 16 20  2  0  0  0  0
 16 42  1  0  0  0  0
 17 21  2  0  0  0  0
 18 22  2  0  0  0  0
 19 21  1  0  0  0  0
 19 43  1  0  0  0  0
 20 22  1  0  0  0  0
 20 44  1  0  0  0  0
M  END
>  <DRUGBANK_ID>
DB00179

>  <SECONDARY_ACCESSION_NUMBERS>
APRD01084; DB05900

>  <COMMON_NAME>
Masoprocol

>  <CAS_NUMBER>
27686-84-6

>  <UNII>
7BO8G1BYQU

>  <SYNONYMS>
erythro-nordihydroguaiaretic acid; Masoprocol; Masoprocolum; meso-1,4-bis(3,4-dihydroxyphenyl)-2,3-dimethylbutane; meso-2,3-bis(3,4-dihydroxyphenylmethyl)butane; meso-4-[4-(3,4-dihydroxyphenyl)-2,3-dimethylbutyl]benzene-1,2-diol; meso-4,4'-(2,3-dimethyl-1,4-butanediyl)bis(pyrocatechol); meso-4,4'-(2,3-dimethyltetramethylene)dipyrocatechol; meso-NDGA; meso-nordihydroguaiaretic acid; meso-β,γ-dimethyl-α,δ-bis(3,4-dihydroxyphenyl)butan; Nordihydroguaiaretic acid

$$$$
