
 OpenBabel10282417072D

 62 66  0  0  0  0  0  0  0  0999 V2000
    4.2559   -1.3022    0.0000 C   0  0  0  0  0  0  0  0  0  0  0  0
    4.0677   -0.4989    0.0000 C   0  0  0  0  0  0  0  0  0  0  0  0
    3.3072   -0.1791    0.0000 N   0  0  0  0  0  0  0  0  0  0  0  0
    3.3763    0.6430    0.0000 C   0  0  0  0  0  0  0  0  0  0  0  0
    4.1795    0.8313    0.0000 N   0  0  0  0  0  0  0  0  0  0  0  0
    4.6068    0.1255    0.0000 N   0  0  0  0  0  0  0  0  0  0  0  0
    4.4994    1.5917    0.0000 C   0  0  0  0  0  0  0  0  0  0  0  0
    5.3179    1.6950    0.0000 C   0  0  0  0  0  0  0  0  0  0  0  0
    4.0007    2.2490    0.0000 C   0  0  0  0  0  0  0  0  0  0  0  0
    2.7519    1.1821    0.0000 C   0  0  0  0  0  0  0  0  0  0  0  0
    2.8210    2.0042    0.0000 C   0  0  0  0  0  0  0  0  0  0  0  0
    2.0605    2.3241    0.0000 N   0  0  0  0  0  0  0  0  0  0  0  0
    1.5214    1.6996    0.0000 C   0  0  0  0  0  0  0  0  0  0  0  0
    1.9486    0.9939    0.0000 N   0  0  0  0  0  0  0  0  0  0  0  0
    0.6970    1.7318    0.0000 C   0  0  0  0  0  0  0  0  0  0  0  0
    0.3659    0.9762    0.0000 C   0  0  0  0  0  0  0  0  0  0  0  0
   -0.4541    0.8852    0.0000 C   0  0  0  0  0  0  0  0  0  0  0  0
   -0.9429    1.5498    0.0000 C   0  0  0  0  0  0  0  0  0  0  0  0
   -0.6118    2.3054    0.0000 C   0  0  0  0  0  0  0  0  0  0  0  0
    0.2082    2.3964    0.0000 C   0  0  0  0  0  0  0  0  0  0  0  0
    0.4230    3.1929    0.0000 O   0  0  0  0  0  0  0  0  0  0  0  0
    1.1797    3.5216    0.0000 C   0  0  0  0  0  0  0  0  0  0  0  0
    1.9085    3.1349    0.0000 C   0  0  0  0  0  0  0  0  0  0  0  0
   -1.7629    1.4587    0.0000 C   0  0  0  0  0  0  0  0  0  0  0  0
   -2.1712    0.7419    0.0000 C   0  0  0  0  0  0  0  0  0  0  0  0
   -2.9792    0.9087    0.0000 N   0  0  0  0  0  0  0  0  0  0  0  0
   -3.0702    1.7286    0.0000 N   0  0  0  0  0  0  0  0  0  0  0  0
   -2.3185    2.0686    0.0000 C   0  0  0  0  0  0  0  0  0  0  0  0
   -3.7871    2.1370    0.0000 C   0  0  0  0  0  0  0  0  0  0  0  0
   -3.3787    2.8538    0.0000 C   0  0  0  0  0  0  0  0  0  0  0  0
   -4.1954    1.4201    0.0000 C   0  0  0  0  0  0  0  0  0  0  0  0
   -4.5039    2.5453    0.0000 C   0  0  0  0  0  0  0  0  0  0  0  0
   -5.2160    2.1286    0.0000 O   0  0  0  0  0  0  0  0  0  0  0  0
   -4.5087    3.3703    0.0000 N   0  0  0  0  0  0  0  0  0  0  0  0
    3.4757   -2.0345    0.0000 H   0  0  0  0  0  0  0  0  0  0  0  0
    5.2802   -1.6117    0.0000 H   0  0  0  0  0  0  0  0  0  0  0  0
    4.5000   -2.3440    0.0000 H   0  0  0  0  0  0  0  0  0  0  0  0
    4.9142    2.5780    0.0000 H   0  0  0  0  0  0  0  0  0  0  0  0
    5.9647    0.8426    0.0000 H   0  0  0  0  0  0  0  0  0  0  0  0
    5.7327    2.6813    0.0000 H   0  0  0  0  0  0  0  0  0  0  0  0
    6.3795    1.8290    0.0000 H   0  0  0  0  0  0  0  0  0  0  0  0
    4.4155    3.2353    0.0000 H   0  0  0  0  0  0  0  0  0  0  0  0
    2.9391    2.1151    0.0000 H   0  0  0  0  0  0  0  0  0  0  0  0
    3.3540    3.1014    0.0000 H   0  0  0  0  0  0  0  0  0  0  0  0
    3.7038    2.5387    0.0000 H   0  0  0  0  0  0  0  0  0  0  0  0
    0.9774    0.1449    0.0000 H   0  0  0  0  0  0  0  0  0  0  0  0
   -0.8684   -0.0600    0.0000 H   0  0  0  0  0  0  0  0  0  0  0  0
   -1.2233    3.1367    0.0000 H   0  0  0  0  0  0  0  0  0  0  0  0
    1.2214    4.5908    0.0000 H   0  0  0  0  0  0  0  0  0  0  0  0
    2.1072    4.0551    0.0000 H   0  0  0  0  0  0  0  0  0  0  0  0
    2.7705    3.7689    0.0000 H   0  0  0  0  0  0  0  0  0  0  0  0
    2.9039    2.7423    0.0000 H   0  0  0  0  0  0  0  0  0  0  0  0
   -1.7459   -0.1984    0.0000 H   0  0  0  0  0  0  0  0  0  0  0  0
   -2.1098    3.0793    0.0000 H   0  0  0  0  0  0  0  0  0  0  0  0
   -2.3087    2.8599    0.0000 H   0  0  0  0  0  0  0  0  0  0  0  0
   -3.9190    3.7774    0.0000 H   0  0  0  0  0  0  0  0  0  0  0  0
   -2.8490    3.7835    0.0000 H   0  0  0  0  0  0  0  0  0  0  0  0
   -5.2654    1.4138    0.0000 H   0  0  0  0  0  0  0  0  0  0  0  0
   -3.6550    0.4966    0.0000 H   0  0  0  0  0  0  0  0  0  0  0  0
   -4.7249    0.4903    0.0000 H   0  0  0  0  0  0  0  0  0  0  0  0
   -3.6590    3.8675    0.0000 H   0  0  0  0  0  0  0  0  0  0  0  0
   -5.3642    3.8576    0.0000 H   0  0  0  0  0  0  0  0  0  0  0  0
  1  2  1  0  0  0  0
  1 35  1  0  0  0  0
  1 36  1  0  0  0  0
  1 37  1  0  0  0  0
  2  3  1  0  0  0  0
  2  6  2  0  0  0  0
  3  4  2  0  0  0  0
  4  5  1  0  0  0  0
  4 10  1  0  0  0  0
  5  6  1  0  0  0  0
  5  7  1  0  0  0  0
  7  8  1  0  0  0  0
  7  9  1  0  0  0  0
  7 38  1  0  0  0  0
  8 39  1  0  0  0  0
  8 40  1  0  0  0  0
  8 41  1  0  0  0  0
  9 42  1  0  0  0  0
  9 43  1  0  0  0  0
  9 44  1  0  0  0  0
 10 11  2  0  0  0  0
 10 14  1  0  0  0  0
 11 12  1  0  0  0  0
 11 45  1  0  0  0  0
 12 13  1  0  0  0  0
 12 23  1  0  0  0  0
 13 14  2  0  0  0  0
 13 15  1  0  0  0  0
 15 16  2  0  0  0  0
 15 20  1  0  0  0  0
 16 17  1  0  0  0  0
 16 46  1  0  0  0  0
 17 18  2  0  0  0  0
 17 47  1  0  0  0  0
 18 19  1  0  0  0  0
 18 24  1  0  0  0  0
 19 20  2  0  0  0  0
 19 48  1  0  0  0  0
 20 21  1  0  0  0  0
 21 22  1  0  0  0  0
 22 23  1  0  0  0  0
 22 49  1  0  0  0  0
 22 50  1  0  0  0  0
 23 51  1  0  0  0  0
 23 52  1  0  0  0  0
 24 25  1  0  0  0  0
 24 28  2  0  0  0  0
 25 26  2  0  0  0  0
 25 53  1  0  0  0  0
 26 27  1  0  0  0  0
 27 28  1  0  0  0  0
 27 29  1  0  0  0  0
 28 54  1  0  0  0  0
 29 30  1  0  0  0  0
 29 31  1  0  0  0  0
 29 32  1  0  0  0  0
 30 55  1  0  0  0  0
 30 56  1  0  0  0  0
 30 57  1  0  0  0  0
 31 58  1  0  0  0  0
 31 59  1  0  0  0  0
 31 60  1  0  0  0  0
 32 33  2  0  0  0  0
 32 34  1  0  0  0  0
 34 61  1  0  0  0  0
 34 62  1  0  0  0  0
M  END
>  <DRUGBANK_ID>
DB12108

>  <COMMON_NAME>
Taselisib

>  <CAS_NUMBER>
1282512-48-4

>  <UNII>
L08J2O299M

>  <SYNONYMS>
Taselisib

$$$$
