PG2
 OpenBabel10282417072D

 57 57  0  0  0  0  0  0  0  0999 V2000
   -3.5770   -0.5674    0.0000 C   0  0  0  0  0  0  0  0  0  0  0  0
   -2.7923   -0.3125    0.0000 C   0  0  0  0  0  0  0  0  0  0  0  0
   -2.6208    0.4945    0.0000 C   0  0  0  0  0  0  0  0  0  0  0  0
   -1.8362    0.7494    0.0000 C   0  0  0  0  0  0  0  0  0  0  0  0
   -1.2231    0.1974    0.0000 C   0  0  0  0  0  0  0  0  0  0  0  0
   -0.4385    0.4523    0.0000 C   0  0  0  0  0  0  0  0  0  0  0  0
   -0.2670    1.2593    0.0000 C   0  0  0  0  0  0  0  0  0  0  0  0
    0.5177    1.5143    0.0000 C   0  0  1  0  0  0  0  0  0  0  0  0
    0.7726    2.2989    0.0000 C   0  0  2  0  0  0  0  0  0  0  0  0
    1.5976    2.2989    0.0000 C   0  0  0  0  0  0  0  0  0  0  0  0
    1.8525    1.5143    0.0000 C   0  0  0  0  0  0  0  0  0  0  0  0
    1.1851    1.0293    0.0000 C   0  0  2  0  0  0  0  0  0  0  0  0
    1.1851    0.2043    0.0000 C   0  0  0  0  0  0  0  0  0  0  0  0
    0.4706   -0.2082    0.0000 C   0  0  0  0  0  0  0  0  0  0  0  0
    0.4706   -1.0332    0.0000 C   0  0  2  0  0  0  0  0  0  0  0  0
    1.1851   -1.4457    0.0000 C   0  0  0  0  0  0  0  0  0  0  0  0
    1.8996   -1.0332    0.0000 C   0  0  0  0  0  0  0  0  0  0  0  0
    2.6140   -1.4457    0.0000 C   0  0  0  0  0  0  0  0  0  0  0  0
    3.3285   -1.0332    0.0000 C   0  0  0  0  0  0  0  0  0  0  0  0
    4.0430   -1.4457    0.0000 C   0  0  0  0  0  0  0  0  0  0  0  0
   -3.7485   -1.3744    0.0000 O   0  0  0  0  0  0  0  0  0  0  0  0
   -4.1901   -0.0154    0.0000 O   0  0  0  0  0  0  0  0  0  0  0  0
    0.2877    2.9663    0.0000 O   0  0  0  0  0  0  0  0  0  0  0  0
    2.6372    1.2593    0.0000 O   0  0  0  0  0  0  0  0  0  0  0  0
   -0.2438   -1.4457    0.0000 O   0  0  0  0  0  0  0  0  0  0  0  0
    0.1048    1.9272    0.0000 H   0  0  0  0  0  0  0  0  0  0  0  0
    0.1959    2.2075    0.0000 H   0  0  0  0  0  0  0  0  0  0  0  0
    0.6648    0.7642    0.0000 H   0  0  0  0  0  0  0  0  0  0  0  0
    0.9763   -0.7412    0.0000 H   0  0  0  0  0  0  0  0  0  0  0  0
   -1.9971   -1.0285    0.0000 H   0  0  0  0  0  0  0  0  0  0  0  0
   -1.7747    0.0182    0.0000 H   0  0  0  0  0  0  0  0  0  0  0  0
   -3.4160    1.2105    0.0000 H   0  0  0  0  0  0  0  0  0  0  0  0
   -2.3983    1.5411    0.0000 H   0  0  0  0  0  0  0  0  0  0  0  0
   -1.6137    1.7960    0.0000 H   0  0  0  0  0  0  0  0  0  0  0  0
   -0.8186    1.0801    0.0000 H   0  0  0  0  0  0  0  0  0  0  0  0
   -1.4377   -0.8120    0.0000 H   0  0  0  0  0  0  0  0  0  0  0  0
    0.3284   -0.2382    0.0000 H   0  0  0  0  0  0  0  0  0  0  0  0
   -1.0622    1.9752    0.0000 H   0  0  0  0  0  0  0  0  0  0  0  0
   -0.0446    2.3059    0.0000 H   0  0  0  0  0  0  0  0  0  0  0  0
    2.2265    3.1645    0.0000 H   0  0  0  0  0  0  0  0  0  0  0  0
    2.6544    2.1315    0.0000 H   0  0  0  0  0  0  0  0  0  0  0  0
    2.0788   -0.3117    0.0000 H   0  0  0  0  0  0  0  0  0  0  0  0
   -0.4231    0.3078    0.0000 H   0  0  0  0  0  0  0  0  0  0  0  0
    1.1851   -2.5157    0.0000 H   0  0  0  0  0  0  0  0  0  0  0  0
    2.1117   -1.9807    0.0000 H   0  0  0  0  0  0  0  0  0  0  0  0
    1.8996    0.0368    0.0000 H   0  0  0  0  0  0  0  0  0  0  0  0
    2.8263   -0.4982    0.0000 H   0  0  0  0  0  0  0  0  0  0  0  0
    2.6140   -2.5157    0.0000 H   0  0  0  0  0  0  0  0  0  0  0  0
    3.5406   -1.9807    0.0000 H   0  0  0  0  0  0  0  0  0  0  0  0
    3.3285    0.0368    0.0000 H   0  0  0  0  0  0  0  0  0  0  0  0
    4.2551   -0.4982    0.0000 H   0  0  0  0  0  0  0  0  0  0  0  0
    4.0430   -2.5157    0.0000 H   0  0  0  0  0  0  0  0  0  0  0  0
    4.9696   -0.9107    0.0000 H   0  0  0  0  0  0  0  0  0  0  0  0
    4.9697   -1.9807    0.0000 H   0  0  0  0  0  0  0  0  0  0  0  0
   -4.6396   -1.6640    0.0000 H   0  0  0  0  0  0  0  0  0  0  0  0
    0.6822    3.8524    0.0000 H   0  0  0  0  0  0  0  0  0  0  0  0
   -1.0839   -0.9607    0.0000 H   0  0  0  0  0  0  0  0  0  0  0  0
  1  2  1  0  0  0  0
  1 21  1  0  0  0  0
  1 22  2  0  0  0  0
  2  3  1  0  0  0  0
  2 30  1  0  0  0  0
  2 31  1  0  0  0  0
  3  4  1  0  0  0  0
  3 32  1  0  0  0  0
  3 33  1  0  0  0  0
  4  5  1  0  0  0  0
  4 34  1  0  0  0  0
  4 35  1  0  0  0  0
  5  6  2  0  0  0  0
  5 36  1  0  0  0  0
  6  7  1  0  0  0  0
  6 37  1  0  0  0  0
  7 38  1  0  0  0  0
  7 39  1  0  0  0  0
  8  7  1  0  0  0  0
  8  9  1  0  0  0  0
  8 12  1  0  0  0  0
  8 26  1  6  0  0  0
  9 10  1  0  0  0  0
  9 23  1  0  0  0  0
  9 27  1  6  0  0  0
 10 11  1  0  0  0  0
 10 40  1  0  0  0  0
 10 41  1  0  0  0  0
 11 12  1  0  0  0  0
 11 24  2  0  0  0  0
 12 13  1  0  0  0  0
 12 28  1  1  0  0  0
 13 14  2  0  0  0  0
 13 42  1  0  0  0  0
 14 15  1  0  0  0  0
 14 43  1  0  0  0  0
 15 16  1  0  0  0  0
 15 25  1  0  0  0  0
 15 29  1  1  0  0  0
 16 17  1  0  0  0  0
 16 44  1  0  0  0  0
 16 45  1  0  0  0  0
 17 18  1  0  0  0  0
 17 46  1  0  0  0  0
 17 47  1  0  0  0  0
 18 19  1  0  0  0  0
 18 48  1  0  0  0  0
 18 49  1  0  0  0  0
 19 20  1  0  0  0  0
 19 50  1  0  0  0  0
 19 51  1  0  0  0  0
 20 52  1  0  0  0  0
 20 53  1  0  0  0  0
 20 54  1  0  0  0  0
 21 55  1  0  0  0  0
 23 56  1  0  0  0  0
 25 57  1  0  0  0  0
M  END
>  <DRUGBANK_ID>
DB02056

>  <SECONDARY_ACCESSION_NUMBERS>
EXPT02562; DB08863

>  <COMMON_NAME>
Prostaglandin D2

>  <CAS_NUMBER>
41598-07-6

>  <UNII>
RXY07S6CZ2

>  <SYNONYMS>
(5Z,13E,15S)-9alpha,15-Dihydroxy-11-oxoprosta-5,13-dienoate; (5Z,13E)-(15S)-9alpha,15-Dihydroxy-11-oxoprosta-5,13-dienoate; 11-Dehydroprostaglandin F2-alpha; PGD2

$$$$
