871
 OpenBabel10282417072D

 35 35  0  0  1  0  0  0  0  0999 V2000
    2.3645    0.7235    0.0000 O   0  0  0  0  0  0  0  0  0  0  0  0
    1.6500   -2.1640    0.0000 O   0  0  0  0  0  0  0  0  0  0  0  0
    4.5080   -2.1640    0.0000 O   0  0  0  0  0  0  0  0  0  0  0  0
    3.7935    1.5486    0.0000 N   0  0  0  0  0  0  0  0  0  0  0  0
    4.5080    1.9611    0.0000 C   0  0  0  0  0  0  0  0  0  0  0  0
    3.7935    0.7235    0.0000 C   0  0  0  0  0  0  0  0  0  0  0  0
    3.0791    0.3110    0.0000 C   0  0  3  0  0  0  0  0  0  0  0  0
    5.2224    2.3736    0.0000 C   0  0  0  0  0  0  0  0  0  0  0  0
    4.0955    2.6755    0.0000 C   0  0  0  0  0  0  0  0  0  0  0  0
    4.9205    1.2466    0.0000 C   0  0  0  0  0  0  0  0  0  0  0  0
    3.0791   -0.5140    0.0000 C   0  0  0  0  0  0  0  0  0  0  0  0
    3.7935   -0.9265    0.0000 C   0  0  0  0  0  0  0  0  0  0  0  0
    2.3645   -0.9265    0.0000 C   0  0  0  0  0  0  0  0  0  0  0  0
    2.3645   -1.7515    0.0000 C   0  0  0  0  0  0  0  0  0  0  0  0
    3.7935   -1.7515    0.0000 C   0  0  0  0  0  0  0  0  0  0  0  0
    3.0791   -2.1640    0.0000 C   0  0  0  0  0  0  0  0  0  0  0  0
    2.3644    1.6935    0.0000 H   0  0  0  0  0  0  0  0  0  0  0  0
    0.8385   -1.6955    0.0000 H   0  0  0  0  0  0  0  0  0  0  0  0
    4.5080   -3.1010    0.0000 H   0  0  0  0  0  0  0  0  0  0  0  0
    2.9102    2.0586    0.0000 H   0  0  0  0  0  0  0  0  0  0  0  0
    4.7202    0.1885    0.0000 H   0  0  0  0  0  0  0  0  0  0  0  0
    3.7935   -0.3465    0.0000 H   0  0  0  0  0  0  0  0  0  0  0  0
    3.0790    1.3810    0.0000 H   0  0  0  0  0  0  0  0  0  0  0  0
    6.1491    1.8386    0.0000 H   0  0  0  0  0  0  0  0  0  0  0  0
    5.2224    3.4436    0.0000 H   0  0  0  0  0  0  0  0  0  0  0  0
    6.1490    2.9086    0.0000 H   0  0  0  0  0  0  0  0  0  0  0  0
    4.6305    3.6022    0.0000 H   0  0  0  0  0  0  0  0  0  0  0  0
    3.0255    2.6755    0.0000 H   0  0  0  0  0  0  0  0  0  0  0  0
    3.5605    3.6021    0.0000 H   0  0  0  0  0  0  0  0  0  0  0  0
    4.3855    0.3200    0.0000 H   0  0  0  0  0  0  0  0  0  0  0  0
    5.9905    1.2466    0.0000 H   0  0  0  0  0  0  0  0  0  0  0  0
    5.4555    0.3199    0.0000 H   0  0  0  0  0  0  0  0  0  0  0  0
    4.6872   -0.4105    0.0000 H   0  0  0  0  0  0  0  0  0  0  0  0
    1.4708   -0.4105    0.0000 H   0  0  0  0  0  0  0  0  0  0  0  0
    3.0792   -3.1960    0.0000 H   0  0  0  0  0  0  0  0  0  0  0  0
  1  7  1  0  0  0  0
  1 17  1  0  0  0  0
  2 14  1  0  0  0  0
  2 18  1  0  0  0  0
  3 15  1  0  0  0  0
  3 19  1  0  0  0  0
  4  5  1  0  0  0  0
  4  6  1  0  0  0  0
  4 20  1  0  0  0  0
  5  8  1  0  0  0  0
  5  9  1  0  0  0  0
  5 10  1  0  0  0  0
  6  7  1  0  0  0  0
  6 21  1  0  0  0  0
  6 22  1  0  0  0  0
  7 11  1  0  0  0  0
  7 23  1  0  0  0  0
  8 24  1  0  0  0  0
  8 25  1  0  0  0  0
  8 26  1  0  0  0  0
  9 27  1  0  0  0  0
  9 28  1  0  0  0  0
  9 29  1  0  0  0  0
 10 30  1  0  0  0  0
 10 31  1  0  0  0  0
 10 32  1  0  0  0  0
 11 12  2  0  0  0  0
 11 13  1  0  0  0  0
 12 15  1  0  0  0  0
 12 33  1  0  0  0  0
 13 14  2  0  0  0  0
 13 34  1  0  0  0  0
 14 16  1  0  0  0  0
 15 16  2  0  0  0  0
 16 35  1  0  0  0  0
M  END
>  <DRUGBANK_ID>
DB00871

>  <SECONDARY_ACCESSION_NUMBERS>
APRD00589

>  <COMMON_NAME>
Terbutaline

>  <CAS_NUMBER>
23031-25-6

>  <UNII>
N8ONU3L3PG

>  <SYNONYMS>
Terbutalin; Terbutalina; Terbutaline; Terbutalinum

$$$$
