
 OpenBabel10282417072D

 32 32  0  0  0  0  0  0  0  0999 V2000
    2.4903    0.4125    0.0000 C   0  0  0  0  0  0  0  0  0  0  0  0
    1.7758    0.0000    0.0000 N   0  0  0  0  0  0  0  0  0  0  0  0
   -1.0819    0.0000    0.0000 C   0  0  2  0  0  0  0  0  0  0  0  0
    0.3469    0.0000    0.0000 C   0  0  0  0  0  0  0  0  0  0  0  0
    1.0614    0.4125    0.0000 C   0  0  0  0  0  0  0  0  0  0  0  0
   -0.3675    0.4125    0.0000 C   0  0  0  0  0  0  0  0  0  0  0  0
   -1.7964    0.4125    0.0000 N   0  0  0  0  0  0  0  0  0  0  0  0
   -1.0819   -0.8249    0.0000 C   0  0  0  0  0  0  0  0  0  0  0  0
   -1.7964   -1.2374    0.0000 O   0  0  0  0  0  0  0  0  0  0  0  0
    3.2048    0.0000    0.0000 N   0  0  0  0  0  0  0  0  0  0  0  0
   -0.3675   -1.2374    0.0000 O   0  0  0  0  0  0  0  0  0  0  0  0
    2.4903    1.2375    0.0000 N   0  0  0  0  0  0  0  0  0  0  0  0
   -3.2048   -0.1708    0.0000 O   0  0  0  0  0  0  0  0  0  0  0  0
   -1.7964    1.2375    0.0000 C   0  0  0  0  0  0  0  0  0  0  0  0
   -2.6214    0.4125    0.0000 C   0  0  0  0  0  0  0  0  0  0  0  0
   -2.6214    1.2375    0.0000 C   0  0  0  0  0  0  0  0  0  0  0  0
    1.7758   -0.9845    0.0000 H   0  0  0  0  0  0  0  0  0  0  0  0
   -0.1552   -0.5350    0.0000 H   0  0  0  0  0  0  0  0  0  0  0  0
    0.3469   -1.0700    0.0000 H   0  0  0  0  0  0  0  0  0  0  0  0
   -0.5798   -0.5350    0.0000 H   0  0  0  0  0  0  0  0  0  0  0  0
    1.0614    1.4825    0.0000 H   0  0  0  0  0  0  0  0  0  0  0  0
    0.1348    0.9475    0.0000 H   0  0  0  0  0  0  0  0  0  0  0  0
   -0.3675    1.4825    0.0000 H   0  0  0  0  0  0  0  0  0  0  0  0
   -1.2942    0.9475    0.0000 H   0  0  0  0  0  0  0  0  0  0  0  0
   -2.6079   -0.7689    0.0000 H   0  0  0  0  0  0  0  0  0  0  0  0
    3.2048   -0.9845    0.0000 H   0  0  0  0  0  0  0  0  0  0  0  0
    4.0574    0.4923    0.0000 H   0  0  0  0  0  0  0  0  0  0  0  0
    3.3429    1.7298    0.0000 H   0  0  0  0  0  0  0  0  0  0  0  0
   -1.0398    1.9941    0.0000 H   0  0  0  0  0  0  0  0  0  0  0  0
   -2.2059    2.2261    0.0000 H   0  0  0  0  0  0  0  0  0  0  0  0
   -3.3780    1.9941    0.0000 H   0  0  0  0  0  0  0  0  0  0  0  0
   -3.6100    0.8280    0.0000 H   0  0  0  0  0  0  0  0  0  0  0  0
  1  2  1  0  0  0  0
  2  5  1  0  0  0  0
  2 17  1  0  0  0  0
  3  8  1  0  0  0  0
  3  6  1  0  0  0  0
  3  7  1  0  0  0  0
  3 18  1  6  0  0  0
  4  5  1  0  0  0  0
  4 19  1  0  0  0  0
  4 20  1  0  0  0  0
  5 21  1  0  0  0  0
  5 22  1  0  0  0  0
  6  4  1  0  0  0  0
  6 23  1  0  0  0  0
  6 24  1  0  0  0  0
  7 14  1  0  0  0  0
  9  8  1  0  0  0  0
  9 25  1  0  0  0  0
 10  1  1  0  0  0  0
 10 26  1  0  0  0  0
 10 27  1  0  0  0  0
 11  8  2  0  0  0  0
 12  1  2  0  0  0  0
 12 28  1  0  0  0  0
 13 15  2  0  0  0  0
 14 29  1  0  0  0  0
 14 30  1  0  0  0  0
 15  7  1  0  0  0  0
 16 14  1  0  0  0  0
 16 15  1  0  0  0  0
 16 31  1  0  0  0  0
 16 32  1  0  0  0  0
M  END
>  <DRUGBANK_ID>
DB02475

>  <SECONDARY_ACCESSION_NUMBERS>
EXPT02527

>  <COMMON_NAME>
Deoxyamidinoproclavaminic acid

>  <SYNONYMS>
Deoxyamidinoproclavaminate; Deoxyguanidinoproclavaminate; Deoxyguanidinoproclavaminic acid

$$$$
