
 OpenBabel10282417072D

 61 60  0  0  0  0  0  0  0  0999 V2000
   -5.7158    0.2062    0.0000 C   0  0  0  0  0  0  0  0  0  0  0  0
   -5.0012   -0.2062    0.0000 C   0  0  0  0  0  0  0  0  0  0  0  0
    5.0012   -0.2062    0.0000 C   0  0  2  0  0  0  0  0  0  0  0  0
    4.2868    0.2062    0.0000 C   0  0  1  0  0  0  0  0  0  0  0  0
    3.5724   -0.2062    0.0000 C   0  0  1  0  0  0  0  0  0  0  0  0
    2.8579    0.2062    0.0000 C   0  0  0  0  0  0  0  0  0  0  0  0
    2.1434   -0.2062    0.0000 C   0  0  0  0  0  0  0  0  0  0  0  0
    1.4289    0.2062    0.0000 C   0  0  0  0  0  0  0  0  0  0  0  0
    0.7145   -0.2062    0.0000 C   0  0  0  0  0  0  0  0  0  0  0  0
    0.0000    0.2062    0.0000 C   0  0  0  0  0  0  0  0  0  0  0  0
   -0.7145   -0.2062    0.0000 C   0  0  0  0  0  0  0  0  0  0  0  0
   -1.4289    0.2062    0.0000 C   0  0  0  0  0  0  0  0  0  0  0  0
   -2.1434   -0.2062    0.0000 C   0  0  0  0  0  0  0  0  0  0  0  0
   -2.8579    0.2062    0.0000 C   0  0  0  0  0  0  0  0  0  0  0  0
   -3.5724   -0.2062    0.0000 C   0  0  0  0  0  0  0  0  0  0  0  0
   -4.2868    0.2062    0.0000 C   0  0  0  0  0  0  0  0  0  0  0  0
   -6.4302   -0.2062    0.0000 C   0  0  0  0  0  0  0  0  0  0  0  0
    5.7158    0.2062    0.0000 C   0  0  0  0  0  0  0  0  0  0  0  0
    6.4302   -0.2062    0.0000 O   0  0  0  0  0  0  0  0  0  0  0  0
    5.0012   -1.0312    0.0000 N   0  0  0  0  0  0  0  0  0  0  0  0
    3.5724   -1.0312    0.0000 O   0  0  0  0  0  0  0  0  0  0  0  0
    4.2868    1.0312    0.0000 O   0  0  0  0  0  0  0  0  0  0  0  0
   -5.7159    1.2762    0.0000 H   0  0  0  0  0  0  0  0  0  0  0  0
   -6.6424    0.7412    0.0000 H   0  0  0  0  0  0  0  0  0  0  0  0
   -5.0011   -1.2762    0.0000 H   0  0  0  0  0  0  0  0  0  0  0  0
   -4.0746   -0.7412    0.0000 H   0  0  0  0  0  0  0  0  0  0  0  0
    4.0746   -0.7412    0.0000 H   0  0  0  0  0  0  0  0  0  0  0  0
    5.2134    0.7412    0.0000 H   0  0  0  0  0  0  0  0  0  0  0  0
    4.4990   -0.7412    0.0000 H   0  0  0  0  0  0  0  0  0  0  0  0
    2.8579    1.2762    0.0000 H   0  0  0  0  0  0  0  0  0  0  0  0
    1.9313    0.7413    0.0000 H   0  0  0  0  0  0  0  0  0  0  0  0
    2.1434   -1.2762    0.0000 H   0  0  0  0  0  0  0  0  0  0  0  0
    1.2168   -0.7413    0.0000 H   0  0  0  0  0  0  0  0  0  0  0  0
    1.4289    1.2762    0.0000 H   0  0  0  0  0  0  0  0  0  0  0  0
    0.5023    0.7412    0.0000 H   0  0  0  0  0  0  0  0  0  0  0  0
    0.7145   -1.2762    0.0000 H   0  0  0  0  0  0  0  0  0  0  0  0
   -0.2121   -0.7413    0.0000 H   0  0  0  0  0  0  0  0  0  0  0  0
    0.0000    1.2762    0.0000 H   0  0  0  0  0  0  0  0  0  0  0  0
   -0.9266    0.7413    0.0000 H   0  0  0  0  0  0  0  0  0  0  0  0
   -0.7145   -1.2762    0.0000 H   0  0  0  0  0  0  0  0  0  0  0  0
   -1.6411   -0.7412    0.0000 H   0  0  0  0  0  0  0  0  0  0  0  0
   -1.4289    1.2762    0.0000 H   0  0  0  0  0  0  0  0  0  0  0  0
   -2.3555    0.7413    0.0000 H   0  0  0  0  0  0  0  0  0  0  0  0
   -2.1434   -1.2762    0.0000 H   0  0  0  0  0  0  0  0  0  0  0  0
   -3.0700   -0.7413    0.0000 H   0  0  0  0  0  0  0  0  0  0  0  0
   -2.8579    1.2762    0.0000 H   0  0  0  0  0  0  0  0  0  0  0  0
   -3.7845    0.7413    0.0000 H   0  0  0  0  0  0  0  0  0  0  0  0
   -3.5724   -1.2762    0.0000 H   0  0  0  0  0  0  0  0  0  0  0  0
   -4.4990   -0.7412    0.0000 H   0  0  0  0  0  0  0  0  0  0  0  0
   -4.2868    1.2762    0.0000 H   0  0  0  0  0  0  0  0  0  0  0  0
   -5.2134    0.7412    0.0000 H   0  0  0  0  0  0  0  0  0  0  0  0
   -7.3568    0.3289    0.0000 H   0  0  0  0  0  0  0  0  0  0  0  0
   -6.4303   -1.2762    0.0000 H   0  0  0  0  0  0  0  0  0  0  0  0
   -7.3569   -0.7411    0.0000 H   0  0  0  0  0  0  0  0  0  0  0  0
    5.7159    1.2762    0.0000 H   0  0  0  0  0  0  0  0  0  0  0  0
    6.6424    0.7412    0.0000 H   0  0  0  0  0  0  0  0  0  0  0  0
    6.4303   -1.1762    0.0000 H   0  0  0  0  0  0  0  0  0  0  0  0
    4.1179   -1.5412    0.0000 H   0  0  0  0  0  0  0  0  0  0  0  0
    5.8845   -1.5412    0.0000 H   0  0  0  0  0  0  0  0  0  0  0  0
    2.7324   -1.5162    0.0000 H   0  0  0  0  0  0  0  0  0  0  0  0
    5.1268    1.5162    0.0000 H   0  0  0  0  0  0  0  0  0  0  0  0
  1 17  1  0  0  0  0
  1 23  1  0  0  0  0
  1 24  1  0  0  0  0
  2  1  1  0  0  0  0
  2 25  1  0  0  0  0
  2 26  1  0  0  0  0
  3 20  1  0  0  0  0
  3  4  1  0  0  0  0
  3 18  1  0  0  0  0
  3 27  1  1  0  0  0
  4 22  1  0  0  0  0
  4  5  1  0  0  0  0
  4 28  1  6  0  0  0
  5 21  1  0  0  0  0
  5  6  1  0  0  0  0
  5 29  1  1  0  0  0
  6  7  1  0  0  0  0
  6 30  1  0  0  0  0
  6 31  1  0  0  0  0
  7  8  1  0  0  0  0
  7 32  1  0  0  0  0
  7 33  1  0  0  0  0
  8  9  1  0  0  0  0
  8 34  1  0  0  0  0
  8 35  1  0  0  0  0
  9 10  1  0  0  0  0
  9 36  1  0  0  0  0
  9 37  1  0  0  0  0
 10 11  1  0  0  0  0
 10 38  1  0  0  0  0
 10 39  1  0  0  0  0
 11 12  1  0  0  0  0
 11 40  1  0  0  0  0
 11 41  1  0  0  0  0
 12 13  1  0  0  0  0
 12 42  1  0  0  0  0
 12 43  1  0  0  0  0
 13 14  1  0  0  0  0
 13 44  1  0  0  0  0
 13 45  1  0  0  0  0
 14 15  1  0  0  0  0
 14 46  1  0  0  0  0
 14 47  1  0  0  0  0
 15 16  1  0  0  0  0
 15 48  1  0  0  0  0
 15 49  1  0  0  0  0
 16  2  1  0  0  0  0
 16 50  1  0  0  0  0
 16 51  1  0  0  0  0
 17 52  1  0  0  0  0
 17 53  1  0  0  0  0
 17 54  1  0  0  0  0
 18 19  1  0  0  0  0
 18 55  1  0  0  0  0
 18 56  1  0  0  0  0
 19 57  1  0  0  0  0
 20 58  1  0  0  0  0
 20 59  1  0  0  0  0
 21 60  1  0  0  0  0
 22 61  1  0  0  0  0
M  END
>  <DRUGBANK_ID>
DB14119

>  <COMMON_NAME>
Phytosphingosine

>  <CAS_NUMBER>
554-62-1

>  <UNII>
GIN46U9Q2Q

>  <SYNONYMS>
(+)-D-ribo-phytosphingosine; 4-D-Hydroxysphinganine; 4-R-hydroxyoctadecasphinganine; C18-phytosphingosine; D-ribo-phytosphingosine; DS-phytosphingosine

$$$$
