291
 OpenBabel10282417072D

 38 38  0  0  0  0  0  0  0  0999 V2000
    2.3645    3.8405    0.0000 Cl  0  0  0  0  0  0  0  0  0  0  0  0
    5.2224    3.8405    0.0000 Cl  0  0  0  0  0  0  0  0  0  0  0  0
    2.3645   -3.5847    0.0000 O   0  0  0  0  0  0  0  0  0  0  0  0
    1.6500   -2.3472    0.0000 O   0  0  0  0  0  0  0  0  0  0  0  0
    3.7935    2.1904    0.0000 N   0  0  0  0  0  0  0  0  0  0  0  0
    3.7935    1.3654    0.0000 C   0  0  0  0  0  0  0  0  0  0  0  0
    3.7935   -1.1096    0.0000 C   0  0  0  0  0  0  0  0  0  0  0  0
    3.7935   -0.2846    0.0000 C   0  0  0  0  0  0  0  0  0  0  0  0
    3.0791   -1.5222    0.0000 C   0  0  0  0  0  0  0  0  0  0  0  0
    3.0791    2.6029    0.0000 C   0  0  0  0  0  0  0  0  0  0  0  0
    4.5080    2.6029    0.0000 C   0  0  0  0  0  0  0  0  0  0  0  0
    3.0791    0.9529    0.0000 C   0  0  0  0  0  0  0  0  0  0  0  0
    4.5080    0.9529    0.0000 C   0  0  0  0  0  0  0  0  0  0  0  0
    3.0791    0.1279    0.0000 C   0  0  0  0  0  0  0  0  0  0  0  0
    4.5080    0.1279    0.0000 C   0  0  0  0  0  0  0  0  0  0  0  0
    3.0791   -2.3472    0.0000 C   0  0  0  0  0  0  0  0  0  0  0  0
    3.0791    3.4280    0.0000 C   0  0  0  0  0  0  0  0  0  0  0  0
    4.5080    3.4280    0.0000 C   0  0  0  0  0  0  0  0  0  0  0  0
    2.3645   -2.7597    0.0000 C   0  0  0  0  0  0  0  0  0  0  0  0
    1.5530   -4.0532    0.0000 H   0  0  0  0  0  0  0  0  0  0  0  0
    4.7202   -1.6445    0.0000 H   0  0  0  0  0  0  0  0  0  0  0  0
    3.7936   -2.1796    0.0000 H   0  0  0  0  0  0  0  0  0  0  0  0
    2.1524   -0.9873    0.0000 H   0  0  0  0  0  0  0  0  0  0  0  0
    2.1525   -2.0572    0.0000 H   0  0  0  0  0  0  0  0  0  0  0  0
    2.1524    2.0679    0.0000 H   0  0  0  0  0  0  0  0  0  0  0  0
    2.1525    3.1379    0.0000 H   0  0  0  0  0  0  0  0  0  0  0  0
    5.4346    2.0679    0.0000 H   0  0  0  0  0  0  0  0  0  0  0  0
    5.4346    3.1379    0.0000 H   0  0  0  0  0  0  0  0  0  0  0  0
    2.1854    1.4689    0.0000 H   0  0  0  0  0  0  0  0  0  0  0  0
    5.4017    1.4689    0.0000 H   0  0  0  0  0  0  0  0  0  0  0  0
    2.1854   -0.3881    0.0000 H   0  0  0  0  0  0  0  0  0  0  0  0
    5.4017   -0.3881    0.0000 H   0  0  0  0  0  0  0  0  0  0  0  0
    4.0057   -2.8822    0.0000 H   0  0  0  0  0  0  0  0  0  0  0  0
    3.0790   -3.4172    0.0000 H   0  0  0  0  0  0  0  0  0  0  0  0
    4.0057    3.9630    0.0000 H   0  0  0  0  0  0  0  0  0  0  0  0
    4.0058    2.8930    0.0000 H   0  0  0  0  0  0  0  0  0  0  0  0
    3.5813    3.9630    0.0000 H   0  0  0  0  0  0  0  0  0  0  0  0
    3.5814    2.8930    0.0000 H   0  0  0  0  0  0  0  0  0  0  0  0
  1 17  1  0  0  0  0
  2 18  1  0  0  0  0
  3 19  1  0  0  0  0
  3 20  1  0  0  0  0
  4 19  2  0  0  0  0
  5  6  1  0  0  0  0
  5 10  1  0  0  0  0
  5 11  1  0  0  0  0
  6 12  2  0  0  0  0
  6 13  1  0  0  0  0
  7  8  1  0  0  0  0
  7  9  1  0  0  0  0
  7 21  1  0  0  0  0
  7 22  1  0  0  0  0
  8 14  2  0  0  0  0
  8 15  1  0  0  0  0
  9 16  1  0  0  0  0
  9 23  1  0  0  0  0
  9 24  1  0  0  0  0
 10 17  1  0  0  0  0
 10 25  1  0  0  0  0
 10 26  1  0  0  0  0
 11 18  1  0  0  0  0
 11 27  1  0  0  0  0
 11 28  1  0  0  0  0
 12 14  1  0  0  0  0
 12 29  1  0  0  0  0
 13 15  2  0  0  0  0
 13 30  1  0  0  0  0
 14 31  1  0  0  0  0
 15 32  1  0  0  0  0
 16 19  1  0  0  0  0
 16 33  1  0  0  0  0
 16 34  1  0  0  0  0
 17 35  1  0  0  0  0
 17 36  1  0  0  0  0
 18 37  1  0  0  0  0
 18 38  1  0  0  0  0
M  END
>  <DRUGBANK_ID>
DB00291

>  <SECONDARY_ACCESSION_NUMBERS>
APRD00115

>  <COMMON_NAME>
Chlorambucil

>  <CAS_NUMBER>
305-03-3

>  <UNII>
18D0SL7309

>  <SYNONYMS>
4-(p-bis(beta-chloroethyl)aminophenyl)butyric acid; 4-(p-bis(β-chloroethyl)aminophenyl)butyric acid; 4-[p-[bis(2-chloroethyl)amino]phenyl]butyric acid; Ambochlorin; Chlorambucil; Chloraminophen; Clorambucilo; gamma-[p-di(2-chloroethyl)aminophenyl]butyric acid; N,N-di-2-chloroethyl-gamma-p-aminophenylbutyric acid; N,N-di-2-chloroethyl-γ-p-aminophenylbutyric acid; Phenylbutyric acid nitrogen mustard; γ-[p-di(2-chloroethyl)aminophenyl]butyric acid

$$$$
