
 OpenBabel10282417072D

 76 80  0  0  0  0  0  0  0  0999 V2000
    5.8070    1.1270    0.0000 C   0  0  0  0  0  0  0  0  0  0  0  0
    6.2195    0.4125    0.0000 C   0  0  0  0  0  0  0  0  0  0  0  0
    7.0445    0.4125    0.0000 C   0  0  0  0  0  0  0  0  0  0  0  0
    7.4570   -0.3020    0.0000 C   0  0  0  0  0  0  0  0  0  0  0  0
    7.0445   -1.0164    0.0000 C   0  0  0  0  0  0  0  0  0  0  0  0
    6.2195   -1.0164    0.0000 C   0  0  0  0  0  0  0  0  0  0  0  0
    5.8070   -1.7309    0.0000 C   0  0  0  0  0  0  0  0  0  0  0  0
    5.8070   -0.3020    0.0000 C   0  0  0  0  0  0  0  0  0  0  0  0
    4.9820   -0.3020    0.0000 C   0  0  0  0  0  0  0  0  0  0  0  0
    4.5695    0.4125    0.0000 C   0  0  0  0  0  0  0  0  0  0  0  0
    3.7445    0.4125    0.0000 S   0  0  0  0  0  0  0  0  0  0  0  0
    3.7445   -0.4125    0.0000 O   0  0  0  0  0  0  0  0  0  0  0  0
    3.7445    1.2375    0.0000 O   0  0  0  0  0  0  0  0  0  0  0  0
    2.9195    0.4125    0.0000 N   0  0  0  0  0  0  0  0  0  0  0  0
    2.5070   -0.3020    0.0000 C   0  0  0  0  0  0  0  0  0  0  0  0
    1.6820   -0.3020    0.0000 C   0  0  0  0  0  0  0  0  0  0  0  0
    1.2695    0.4125    0.0000 C   0  0  0  0  0  0  0  0  0  0  0  0
    1.6820    1.1270    0.0000 C   0  0  0  0  0  0  0  0  0  0  0  0
    2.5070    1.1270    0.0000 C   0  0  0  0  0  0  0  0  0  0  0  0
    0.7846   -0.2549    0.0000 N   0  0  0  0  0  0  0  0  0  0  0  0
    0.0000   -0.0000    0.0000 C   0  0  0  0  0  0  0  0  0  0  0  0
   -0.0000    0.8250    0.0000 N   0  0  0  0  0  0  0  0  0  0  0  0
    0.7846    1.0799    0.0000 C   0  0  0  0  0  0  0  0  0  0  0  0
    1.0396    1.8646    0.0000 O   0  0  0  0  0  0  0  0  0  0  0  0
   -0.6674   -0.4849    0.0000 C   0  0  0  0  0  0  0  0  0  0  0  0
   -0.5812   -1.3054    0.0000 C   0  0  0  0  0  0  0  0  0  0  0  0
   -1.2486   -1.7903    0.0000 C   0  0  0  0  0  0  0  0  0  0  0  0
   -2.0023   -1.4548    0.0000 C   0  0  0  0  0  0  0  0  0  0  0  0
   -2.6698   -1.9397    0.0000 O   0  0  0  0  0  0  0  0  0  0  0  0
   -3.4234   -1.6041    0.0000 C   0  0  0  0  0  0  0  0  0  0  0  0
   -4.1771   -1.2686    0.0000 F   0  0  0  0  0  0  0  0  0  0  0  0
   -3.7590   -2.3578    0.0000 F   0  0  0  0  0  0  0  0  0  0  0  0
   -3.0879   -0.8505    0.0000 F   0  0  0  0  0  0  0  0  0  0  0  0
   -2.0886   -0.6343    0.0000 C   0  0  0  0  0  0  0  0  0  0  0  0
   -1.4211   -0.1494    0.0000 C   0  0  0  0  0  0  0  0  0  0  0  0
    8.2820   -0.3020    0.0000 N   0  0  0  0  0  0  0  0  0  0  0  0
    8.7670    0.3655    0.0000 C   0  0  0  0  0  0  0  0  0  0  0  0
    8.5120    1.1501    0.0000 O   0  0  0  0  0  0  0  0  0  0  0  0
    9.5516    0.1105    0.0000 N   0  0  0  0  0  0  0  0  0  0  0  0
    9.5516   -0.7145    0.0000 C   0  0  0  0  0  0  0  0  0  0  0  0
   10.2190   -1.1994    0.0000 O   0  0  0  0  0  0  0  0  0  0  0  0
    8.7670   -0.9694    0.0000 C   0  0  0  0  0  0  0  0  0  0  0  0
    8.9300   -1.7781    0.0000 C   0  0  0  0  0  0  0  0  0  0  0  0
    8.1597   -1.5278    0.0000 C   0  0  0  0  0  0  0  0  0  0  0  0
    6.3420    2.0536    0.0000 H   0  0  0  0  0  0  0  0  0  0  0  0
    4.7370    1.1270    0.0000 H   0  0  0  0  0  0  0  0  0  0  0  0
    5.2720    2.0537    0.0000 H   0  0  0  0  0  0  0  0  0  0  0  0
    7.5605    1.3062    0.0000 H   0  0  0  0  0  0  0  0  0  0  0  0
    7.5605   -1.9101    0.0000 H   0  0  0  0  0  0  0  0  0  0  0  0
    4.7370   -1.7309    0.0000 H   0  0  0  0  0  0  0  0  0  0  0  0
    6.3420   -2.6575    0.0000 H   0  0  0  0  0  0  0  0  0  0  0  0
    5.2720   -2.6576    0.0000 H   0  0  0  0  0  0  0  0  0  0  0  0
    4.4470   -1.2286    0.0000 H   0  0  0  0  0  0  0  0  0  0  0  0
    3.9120   -0.3020    0.0000 H   0  0  0  0  0  0  0  0  0  0  0  0
    5.1045    1.3391    0.0000 H   0  0  0  0  0  0  0  0  0  0  0  0
    4.0345    1.3391    0.0000 H   0  0  0  0  0  0  0  0  0  0  0  0
    3.0420   -1.2286    0.0000 H   0  0  0  0  0  0  0  0  0  0  0  0
    1.9720   -1.2286    0.0000 H   0  0  0  0  0  0  0  0  0  0  0  0
    1.1470   -1.2286    0.0000 H   0  0  0  0  0  0  0  0  0  0  0  0
    0.6120   -0.3020    0.0000 H   0  0  0  0  0  0  0  0  0  0  0  0
    1.1470    2.0536    0.0000 H   0  0  0  0  0  0  0  0  0  0  0  0
    2.2170    2.0536    0.0000 H   0  0  0  0  0  0  0  0  0  0  0  0
    3.0420    2.0536    0.0000 H   0  0  0  0  0  0  0  0  0  0  0  0
    3.5770    1.1270    0.0000 H   0  0  0  0  0  0  0  0  0  0  0  0
   -0.7965    1.4037    0.0000 H   0  0  0  0  0  0  0  0  0  0  0  0
    0.3616   -1.7252    0.0000 H   0  0  0  0  0  0  0  0  0  0  0  0
   -1.1407   -2.8166    0.0000 H   0  0  0  0  0  0  0  0  0  0  0  0
   -3.0314   -0.2146    0.0000 H   0  0  0  0  0  0  0  0  0  0  0  0
   -1.5290    0.8769    0.0000 H   0  0  0  0  0  0  0  0  0  0  0  0
   10.3481    0.6891    0.0000 H   0  0  0  0  0  0  0  0  0  0  0  0
    8.1273   -2.4856    0.0000 H   0  0  0  0  0  0  0  0  0  0  0  0
    9.9441   -2.1195    0.0000 H   0  0  0  0  0  0  0  0  0  0  0  0
    9.1414   -2.8270    0.0000 H   0  0  0  0  0  0  0  0  0  0  0  0
    7.1387   -1.2078    0.0000 H   0  0  0  0  0  0  0  0  0  0  0  0
    8.3931   -2.5720    0.0000 H   0  0  0  0  0  0  0  0  0  0  0  0
    7.3720   -2.2520    0.0000 H   0  0  0  0  0  0  0  0  0  0  0  0
  1  2  1  0  0  0  0
  1 45  1  0  0  0  0
  1 46  1  0  0  0  0
  1 47  1  0  0  0  0
  2  3  2  0  0  0  0
  2  8  1  0  0  0  0
  3  4  1  0  0  0  0
  3 48  1  0  0  0  0
  4  5  2  0  0  0  0
  4 36  1  0  0  0  0
  5  6  1  0  0  0  0
  5 49  1  0  0  0  0
  6  7  1  0  0  0  0
  6  8  2  0  0  0  0
  7 50  1  0  0  0  0
  7 51  1  0  0  0  0
  7 52  1  0  0  0  0
  8  9  1  0  0  0  0
  9 10  1  0  0  0  0
  9 53  1  0  0  0  0
  9 54  1  0  0  0  0
 10 11  1  0  0  0  0
 10 55  1  0  0  0  0
 10 56  1  0  0  0  0
 11 12  2  0  0  0  0
 11 13  2  0  0  0  0
 11 14  1  0  0  0  0
 14 15  1  0  0  0  0
 14 19  1  0  0  0  0
 15 16  1  0  0  0  0
 15 57  1  0  0  0  0
 15 58  1  0  0  0  0
 16 17  1  0  0  0  0
 16 59  1  0  0  0  0
 16 60  1  0  0  0  0
 17 18  1  0  0  0  0
 17 20  1  0  0  0  0
 17 23  1  0  0  0  0
 18 19  1  0  0  0  0
 18 61  1  0  0  0  0
 18 62  1  0  0  0  0
 19 63  1  0  0  0  0
 19 64  1  0  0  0  0
 20 21  2  0  0  0  0
 21 22  1  0  0  0  0
 21 25  1  0  0  0  0
 22 23  1  0  0  0  0
 22 65  1  0  0  0  0
 23 24  2  0  0  0  0
 25 26  2  0  0  0  0
 25 35  1  0  0  0  0
 26 27  1  0  0  0  0
 26 66  1  0  0  0  0
 27 28  2  0  0  0  0
 27 67  1  0  0  0  0
 28 29  1  0  0  0  0
 28 34  1  0  0  0  0
 29 30  1  0  0  0  0
 30 31  1  0  0  0  0
 30 32  1  0  0  0  0
 30 33  1  0  0  0  0
 34 35  2  0  0  0  0
 34 68  1  0  0  0  0
 35 69  1  0  0  0  0
 36 37  1  0  0  0  0
 36 42  1  0  0  0  0
 37 38  2  0  0  0  0
 37 39  1  0  0  0  0
 39 40  1  0  0  0  0
 39 70  1  0  0  0  0
 40 41  2  0  0  0  0
 40 42  1  0  0  0  0
 42 43  1  0  0  0  0
 42 44  1  0  0  0  0
 43 71  1  0  0  0  0
 43 72  1  0  0  0  0
 43 73  1  0  0  0  0
 44 74  1  0  0  0  0
 44 75  1  0  0  0  0
 44 76  1  0  0  0  0
M  END
>  <DRUGBANK_ID>
DB14946

>  <COMMON_NAME>
PCO-371

>  <CAS_NUMBER>
1613373-33-3

>  <UNII>
TE53TU0WSQ

>  <SYNONYMS>
2,4-IMIDAZOLIDINEDIONE, 1-(3,5-DIMETHYL-4-(2-((4-OXO-2-(4-(TRIFLUOROMETHOXY)PHENYL)-1,3,8-TRIAZASPIRO(4.5)DEC-1-EN-8-YL)SULFONYL)ETHYL)PHENYL)-5,5-DIMETHYL-; non-peptide small molecule orally available agonist of the parathyroid hormone receptor type I

$$$$
