
 OpenBabel10282417072D

 38 38  0  0  0  0  0  0  0  0999 V2000
   -2.1254    0.0000    0.0000 C   0  0  0  0  0  0  0  0  0  0  0  0
   -2.1254   -0.8250    0.0000 C   0  0  0  0  0  0  0  0  0  0  0  0
   -1.4109   -1.2375    0.0000 C   0  0  0  0  0  0  0  0  0  0  0  0
   -0.6964   -0.8250    0.0000 C   0  0  0  0  0  0  0  0  0  0  0  0
   -0.6964    0.0000    0.0000 C   0  0  0  0  0  0  0  0  0  0  0  0
   -1.4109    0.4125    0.0000 C   0  0  0  0  0  0  0  0  0  0  0  0
    0.0291    0.4190    0.0000 C   0  0  3  0  0  0  0  0  0  0  0  0
    0.7394    0.0090    0.0000 C   0  0  3  0  0  0  0  0  0  0  0  0
    0.0289    1.2375    0.0000 O   0  0  0  0  0  0  0  0  0  0  0  0
    1.4361    0.4114    0.0000 N   0  0  0  0  0  0  0  0  0  0  0  0
   -2.8399   -1.2375    0.0000 O   0  0  0  0  0  0  0  0  0  0  0  0
   -2.8399    0.4125    0.0000 O   0  0  0  0  0  0  0  0  0  0  0  0
    2.1398    0.0052    0.0000 C   0  0  0  0  0  0  0  0  0  0  0  0
    2.8399    0.4094    0.0000 C   0  0  0  0  0  0  0  0  0  0  0  0
    2.1400   -0.8248    0.0000 C   0  0  0  0  0  0  0  0  0  0  0  0
    0.7397   -0.8248    0.0000 C   0  0  0  0  0  0  0  0  0  0  0  0
    1.4403   -1.2292    0.0000 C   0  0  0  0  0  0  0  0  0  0  0  0
   -1.4109   -2.2695    0.0000 H   0  0  0  0  0  0  0  0  0  0  0  0
    0.1973   -1.3410    0.0000 H   0  0  0  0  0  0  0  0  0  0  0  0
   -1.4109    1.4445    0.0000 H   0  0  0  0  0  0  0  0  0  0  0  0
    0.0292   -0.6510    0.0000 H   0  0  0  0  0  0  0  0  0  0  0  0
    0.7393    1.0790    0.0000 H   0  0  0  0  0  0  0  0  0  0  0  0
    0.8688    1.7227    0.0000 H   0  0  0  0  0  0  0  0  0  0  0  0
    1.4360    1.4314    0.0000 H   0  0  0  0  0  0  0  0  0  0  0  0
   -3.6514   -0.7690    0.0000 H   0  0  0  0  0  0  0  0  0  0  0  0
   -2.8399    1.3495    0.0000 H   0  0  0  0  0  0  0  0  0  0  0  0
    3.0665   -0.5297    0.0000 H   0  0  0  0  0  0  0  0  0  0  0  0
    3.7665   -0.1256    0.0000 H   0  0  0  0  0  0  0  0  0  0  0  0
    2.8399    1.4794    0.0000 H   0  0  0  0  0  0  0  0  0  0  0  0
    3.7665    0.9444    0.0000 H   0  0  0  0  0  0  0  0  0  0  0  0
    1.2135   -1.3600    0.0000 H   0  0  0  0  0  0  0  0  0  0  0  0
    3.0668   -1.3596    0.0000 H   0  0  0  0  0  0  0  0  0  0  0  0
    2.1403   -1.8948    0.0000 H   0  0  0  0  0  0  0  0  0  0  0  0
   -0.1868   -1.3600    0.0000 H   0  0  0  0  0  0  0  0  0  0  0  0
    0.7399   -1.8948    0.0000 H   0  0  0  0  0  0  0  0  0  0  0  0
    1.4404   -2.2992    0.0000 H   0  0  0  0  0  0  0  0  0  0  0  0
    2.3669   -0.6941    0.0000 H   0  0  0  0  0  0  0  0  0  0  0  0
    2.3670   -1.7641    0.0000 H   0  0  0  0  0  0  0  0  0  0  0  0
  1  2  2  0  0  0  0
  1  6  1  0  0  0  0
  1 12  1  0  0  0  0
  2  3  1  0  0  0  0
  2 11  1  0  0  0  0
  3  4  2  0  0  0  0
  3 18  1  0  0  0  0
  4  5  1  0  0  0  0
  4 19  1  0  0  0  0
  5  6  2  0  0  0  0
  5  7  1  0  0  0  0
  6 20  1  0  0  0  0
  7  8  1  0  0  0  0
  7  9  1  0  0  0  0
  7 21  1  0  0  0  0
  8 10  1  0  0  0  0
  8 16  1  0  0  0  0
  8 22  1  0  0  0  0
  9 23  1  0  0  0  0
 10 13  1  0  0  0  0
 10 24  1  0  0  0  0
 11 25  1  0  0  0  0
 12 26  1  0  0  0  0
 13 14  1  0  0  0  0
 13 15  1  0  0  0  0
 13 27  1  0  0  0  0
 14 28  1  0  0  0  0
 14 29  1  0  0  0  0
 14 30  1  0  0  0  0
 15 31  1  0  0  0  0
 15 32  1  0  0  0  0
 15 33  1  0  0  0  0
 16 17  1  0  0  0  0
 16 34  1  0  0  0  0
 16 35  1  0  0  0  0
 17 36  1  0  0  0  0
 17 37  1  0  0  0  0
 17 38  1  0  0  0  0
M  END
>  <DRUGBANK_ID>
DB00221

>  <SECONDARY_ACCESSION_NUMBERS>
APRD00750

>  <COMMON_NAME>
Isoetharine

>  <CAS_NUMBER>
79490-84-9

>  <UNII>
YV0SN3276Q

>  <SYNONYMS>
Isoetarina; Isoetarine; Isoetarinum; Isoetharine

$$$$
