
 OpenBabel10282417072D

 55 59  0  0  1  0  0  0  0  0999 V2000
   -3.4827    2.2253    0.0000 C   0  0  0  0  0  0  0  0  0  0  0  0
   -2.8754    2.7837    0.0000 O   0  0  0  0  0  0  0  0  0  0  0  0
   -2.0882    2.5370    0.0000 C   0  0  0  0  0  0  0  0  0  0  0  0
   -1.9082    1.7319    0.0000 C   0  0  0  0  0  0  0  0  0  0  0  0
   -1.1209    1.4851    0.0000 C   0  0  0  0  0  0  0  0  0  0  0  0
   -0.9410    0.6800    0.0000 C   0  0  0  0  0  0  0  0  0  0  0  0
   -0.1537    0.4333    0.0000 O   0  0  0  0  0  0  0  0  0  0  0  0
   -1.5483    0.1216    0.0000 N   0  0  0  0  0  0  0  0  0  0  0  0
   -2.3570    0.2847    0.0000 C   0  0  0  0  0  0  0  0  0  0  0  0
   -2.7620   -0.4341    0.0000 C   0  0  0  0  0  0  0  0  0  0  0  0
   -2.2035   -1.0414    0.0000 C   0  0  0  0  0  0  0  0  0  0  0  0
   -1.4534   -0.6979    0.0000 C   0  0  2  0  0  0  0  0  0  0  0  0
   -1.0261   -1.4036    0.0000 C   0  0  0  0  0  0  0  0  0  0  0  0
   -0.6284   -0.6979    0.0000 C   0  0  0  0  0  0  0  0  0  0  0  0
   -0.1435   -1.3654    0.0000 N   0  0  0  0  0  0  0  0  0  0  0  0
    0.6411   -1.1104    0.0000 C   0  0  0  0  0  0  0  0  0  0  0  0
    0.6411   -0.2854    0.0000 C   0  0  0  0  0  0  0  0  0  0  0  0
   -0.1435   -0.0305    0.0000 N   0  0  0  0  0  0  0  0  0  0  0  0
    1.3556    0.1271    0.0000 C   0  0  0  0  0  0  0  0  0  0  0  0
    2.0701   -0.2854    0.0000 C   0  0  0  0  0  0  0  0  0  0  0  0
    2.0701   -1.1104    0.0000 C   0  0  0  0  0  0  0  0  0  0  0  0
    2.7845   -1.5229    0.0000 Cl  0  0  0  0  0  0  0  0  0  0  0  0
    1.3556   -1.5229    0.0000 C   0  0  0  0  0  0  0  0  0  0  0  0
    1.3556   -2.3479    0.0000 C   0  0  0  0  0  0  0  0  0  0  0  0
   -0.5137    2.0436    0.0000 C   0  0  0  0  0  0  0  0  0  0  0  0
   -0.6936    2.8487    0.0000 C   0  0  0  0  0  0  0  0  0  0  0  0
   -1.4809    3.0954    0.0000 C   0  0  0  0  0  0  0  0  0  0  0  0
    0.2736    1.7969    0.0000 N   0  0  0  0  0  0  0  0  0  0  0  0
    0.9359    2.2887    0.0000 N   0  0  0  0  0  0  0  0  0  0  0  0
    1.6084    1.8108    0.0000 C   0  0  0  0  0  0  0  0  0  0  0  0
    1.3617    1.0236    0.0000 C   0  0  0  0  0  0  0  0  0  0  0  0
    0.5367    1.0149    0.0000 N   0  0  0  0  0  0  0  0  0  0  0  0
   -4.5037    2.5453    0.0000 H   0  0  0  0  0  0  0  0  0  0  0  0
   -3.2493    1.1811    0.0000 H   0  0  0  0  0  0  0  0  0  0  0  0
   -4.2704    1.5011    0.0000 H   0  0  0  0  0  0  0  0  0  0  0  0
   -2.6679    1.0334    0.0000 H   0  0  0  0  0  0  0  0  0  0  0  0
   -2.8024    1.2576    0.0000 H   0  0  0  0  0  0  0  0  0  0  0  0
   -3.4261    0.3295    0.0000 H   0  0  0  0  0  0  0  0  0  0  0  0
   -3.8249   -0.5571    0.0000 H   0  0  0  0  0  0  0  0  0  0  0  0
   -3.1349   -1.4370    0.0000 H   0  0  0  0  0  0  0  0  0  0  0  0
   -2.4149   -2.0903    0.0000 H   0  0  0  0  0  0  0  0  0  0  0  0
   -1.3649   -1.7060    0.0000 H   0  0  0  0  0  0  0  0  0  0  0  0
   -1.5417   -2.3412    0.0000 H   0  0  0  0  0  0  0  0  0  0  0  0
    0.0437   -1.3813    0.0000 H   0  0  0  0  0  0  0  0  0  0  0  0
   -0.4719   -2.3189    0.0000 H   0  0  0  0  0  0  0  0  0  0  0  0
   -0.4477    0.9058    0.0000 H   0  0  0  0  0  0  0  0  0  0  0  0
    1.3556    1.1591    0.0000 H   0  0  0  0  0  0  0  0  0  0  0  0
    2.9638    0.2306    0.0000 H   0  0  0  0  0  0  0  0  0  0  0  0
    0.4290   -2.8829    0.0000 H   0  0  0  0  0  0  0  0  0  0  0  0
    2.2822   -2.8829    0.0000 H   0  0  0  0  0  0  0  0  0  0  0  0
    1.3556   -3.4179    0.0000 H   0  0  0  0  0  0  0  0  0  0  0  0
    0.0661    3.5472    0.0000 H   0  0  0  0  0  0  0  0  0  0  0  0
   -1.7060    4.1025    0.0000 H   0  0  0  0  0  0  0  0  0  0  0  0
    2.5865    2.1400    0.0000 H   0  0  0  0  0  0  0  0  0  0  0  0
    1.9770    0.1951    0.0000 H   0  0  0  0  0  0  0  0  0  0  0  0
  1  2  1  0  0  0  0
  1 33  1  0  0  0  0
  1 34  1  0  0  0  0
  1 35  1  0  0  0  0
  2  3  1  0  0  0  0
  3  4  2  0  0  0  0
  3 27  1  0  0  0  0
  4  5  1  0  0  0  0
  4 36  1  0  0  0  0
  5  6  1  0  0  0  0
  5 25  2  0  0  0  0
  6  7  2  0  0  0  0
  6  8  1  0  0  0  0
  8  9  1  0  0  0  0
  9 10  1  0  0  0  0
  9 37  1  0  0  0  0
  9 38  1  0  0  0  0
 10 11  1  0  0  0  0
 10 39  1  0  0  0  0
 10 40  1  0  0  0  0
 11 41  1  0  0  0  0
 11 42  1  0  0  0  0
 12 11  1  0  0  0  0
 12  8  1  0  0  0  0
 12 13  1  1  0  0  0
 12 14  1  0  0  0  0
 13 43  1  0  0  0  0
 13 44  1  0  0  0  0
 13 45  1  0  0  0  0
 14 15  2  0  0  0  0
 14 18  1  0  0  0  0
 15 16  1  0  0  0  0
 16 17  2  0  0  0  0
 16 23  1  0  0  0  0
 17 18  1  0  0  0  0
 17 19  1  0  0  0  0
 18 46  1  0  0  0  0
 19 20  2  0  0  0  0
 19 47  1  0  0  0  0
 20 21  1  0  0  0  0
 20 48  1  0  0  0  0
 21 22  1  0  0  0  0
 21 23  2  0  0  0  0
 23 24  1  0  0  0  0
 24 49  1  0  0  0  0
 24 50  1  0  0  0  0
 24 51  1  0  0  0  0
 25 26  1  0  0  0  0
 25 28  1  0  0  0  0
 26 27  2  0  0  0  0
 26 52  1  0  0  0  0
 27 53  1  0  0  0  0
 28 29  1  0  0  0  0
 28 32  1  0  0  0  0
 29 30  2  0  0  0  0
 30 31  1  0  0  0  0
 30 54  1  0  0  0  0
 31 32  2  0  0  0  0
 31 55  1  0  0  0  0
M  END
>  <DRUGBANK_ID>
DB15031

>  <COMMON_NAME>
Daridorexant

>  <CAS_NUMBER>
1505484-82-1

>  <UNII>
LMQ24G57E9

>  <SYNONYMS>
ACT-541468; Nemorexant

$$$$
