
 OpenBabel10282417072D

 32 31  0  0  0  0  0  0  0  0999 V2000
   -3.9296    0.2062    0.0000 O   0  0  0  0  0  0  0  0  0  0  0  0
   -3.2151   -0.2062    0.0000 C   0  0  0  0  0  0  0  0  0  0  0  0
    3.2151    0.2063    0.0000 C   0  0  0  0  0  0  0  0  0  0  0  0
    2.5006   -0.2061    0.0000 C   0  0  0  0  0  0  0  0  0  0  0  0
    1.7862    0.2063    0.0000 C   0  0  0  0  0  0  0  0  0  0  0  0
    1.0717   -0.2061    0.0000 C   0  0  0  0  0  0  0  0  0  0  0  0
    0.3572    0.2063    0.0000 C   0  0  0  0  0  0  0  0  0  0  0  0
   -0.3572   -0.2062    0.0000 C   0  0  0  0  0  0  0  0  0  0  0  0
   -1.0717    0.2062    0.0000 C   0  0  0  0  0  0  0  0  0  0  0  0
   -1.7862   -0.2062    0.0000 C   0  0  0  0  0  0  0  0  0  0  0  0
   -2.5006    0.2062    0.0000 C   0  0  0  0  0  0  0  0  0  0  0  0
    3.9296   -0.2061    0.0000 O   0  0  0  0  0  0  0  0  0  0  0  0
    3.2151    1.0312    0.0000 O   0  0  0  0  0  0  0  0  0  0  0  0
   -3.2151   -1.0312    0.0000 O   0  0  0  0  0  0  0  0  0  0  0  0
   -3.9297    1.1432    0.0000 H   0  0  0  0  0  0  0  0  0  0  0  0
    2.5006   -1.2761    0.0000 H   0  0  0  0  0  0  0  0  0  0  0  0
    1.5740   -0.7411    0.0000 H   0  0  0  0  0  0  0  0  0  0  0  0
    1.7862    1.2763    0.0000 H   0  0  0  0  0  0  0  0  0  0  0  0
    0.8596    0.7414    0.0000 H   0  0  0  0  0  0  0  0  0  0  0  0
    1.0717   -1.2761    0.0000 H   0  0  0  0  0  0  0  0  0  0  0  0
    0.1451   -0.7412    0.0000 H   0  0  0  0  0  0  0  0  0  0  0  0
    0.3571    1.2763    0.0000 H   0  0  0  0  0  0  0  0  0  0  0  0
   -0.5695    0.7412    0.0000 H   0  0  0  0  0  0  0  0  0  0  0  0
   -0.3571   -1.2762    0.0000 H   0  0  0  0  0  0  0  0  0  0  0  0
   -1.2838   -0.7413    0.0000 H   0  0  0  0  0  0  0  0  0  0  0  0
   -1.0717    1.2762    0.0000 H   0  0  0  0  0  0  0  0  0  0  0  0
   -1.9983    0.7413    0.0000 H   0  0  0  0  0  0  0  0  0  0  0  0
   -1.7862   -1.2762    0.0000 H   0  0  0  0  0  0  0  0  0  0  0  0
   -2.7128   -0.7412    0.0000 H   0  0  0  0  0  0  0  0  0  0  0  0
   -2.5006    1.2762    0.0000 H   0  0  0  0  0  0  0  0  0  0  0  0
   -1.5740    0.7412    0.0000 H   0  0  0  0  0  0  0  0  0  0  0  0
    3.9297   -1.1431    0.0000 H   0  0  0  0  0  0  0  0  0  0  0  0
  1  2  1  0  0  0  0
  1 15  1  0  0  0  0
  3 13  2  0  0  0  0
  3  4  1  0  0  0  0
  3 12  1  0  0  0  0
  4  5  1  0  0  0  0
  4 16  1  0  0  0  0
  4 17  1  0  0  0  0
  5  6  1  0  0  0  0
  5 18  1  0  0  0  0
  5 19  1  0  0  0  0
  6  7  1  0  0  0  0
  6 20  1  0  0  0  0
  6 21  1  0  0  0  0
  7  8  1  0  0  0  0
  7 22  1  0  0  0  0
  7 23  1  0  0  0  0
  8  9  1  0  0  0  0
  8 24  1  0  0  0  0
  8 25  1  0  0  0  0
  9 10  1  0  0  0  0
  9 26  1  0  0  0  0
  9 27  1  0  0  0  0
 10 11  1  0  0  0  0
 10 28  1  0  0  0  0
 10 29  1  0  0  0  0
 11  2  1  0  0  0  0
 11 30  1  0  0  0  0
 11 31  1  0  0  0  0
 12 32  1  0  0  0  0
 14  2  2  0  0  0  0
M  END
>  <DRUGBANK_ID>
DB07645

>  <COMMON_NAME>
Sebacic acid

>  <CAS_NUMBER>
111-20-6

>  <UNII>
97AN39ICTC

>  <SYNONYMS>
1,10-decanedioic acid; 1,8-dicarboxyoctane; Decanedioic acid; Sebacins√§ure

$$$$
