
 OpenBabel10282417072D

 24 24  0  0  0  0  0  0  0  0999 V2000
   17.1758   -3.7812    0.0000 O   0  0  0  0  0  0  0  0  0  0  0  0
   15.7468   -4.6062    0.0000 O   0  0  0  0  0  0  0  0  0  0  0  0
   17.8902   -5.8437    0.0000 C   0  0  0  0  0  0  0  0  0  0  0  0
   18.6047   -6.2563    0.0000 C   0  0  0  0  0  0  0  0  0  0  0  0
   17.8902   -5.0187    0.0000 C   0  0  0  0  0  0  0  0  0  0  0  0
   17.1758   -4.6062    0.0000 C   0  0  0  0  0  0  0  0  0  0  0  0
   17.1758   -6.2563    0.0000 C   0  0  0  0  0  0  0  0  0  0  0  0
   16.4613   -5.0187    0.0000 C   0  0  0  0  0  0  0  0  0  0  0  0
   16.4613   -5.8437    0.0000 C   0  0  0  0  0  0  0  0  0  0  0  0
   18.6047   -7.0813    0.0000 C   0  0  0  0  0  0  0  0  0  0  0  0
   17.8902   -3.3687    0.0000 C   0  0  0  0  0  0  0  0  0  0  0  0
   19.3192   -7.4938    0.0000 C   0  0  0  0  0  0  0  0  0  0  0  0
   15.7468   -3.6692    0.0000 H   0  0  0  0  0  0  0  0  0  0  0  0
   19.5314   -5.7213    0.0000 H   0  0  0  0  0  0  0  0  0  0  0  0
   19.5313   -6.7913    0.0000 H   0  0  0  0  0  0  0  0  0  0  0  0
   18.7839   -4.5027    0.0000 H   0  0  0  0  0  0  0  0  0  0  0  0
   17.1758   -7.2883    0.0000 H   0  0  0  0  0  0  0  0  0  0  0  0
   15.5675   -6.3597    0.0000 H   0  0  0  0  0  0  0  0  0  0  0  0
   17.7110   -7.5973    0.0000 H   0  0  0  0  0  0  0  0  0  0  0  0
   18.8169   -3.9037    0.0000 H   0  0  0  0  0  0  0  0  0  0  0  0
   17.8902   -2.2987    0.0000 H   0  0  0  0  0  0  0  0  0  0  0  0
   18.8168   -2.8337    0.0000 H   0  0  0  0  0  0  0  0  0  0  0  0
   19.3192   -8.5258    0.0000 H   0  0  0  0  0  0  0  0  0  0  0  0
   20.2129   -6.9778    0.0000 H   0  0  0  0  0  0  0  0  0  0  0  0
  1  6  1  0  0  0  0
  1 11  1  0  0  0  0
  2  8  1  0  0  0  0
  2 13  1  0  0  0  0
  3  4  1  0  0  0  0
  3  5  2  0  0  0  0
  3  7  1  0  0  0  0
  4 10  1  0  0  0  0
  4 14  1  0  0  0  0
  4 15  1  0  0  0  0
  5  6  1  0  0  0  0
  5 16  1  0  0  0  0
  6  8  2  0  0  0  0
  7  9  2  0  0  0  0
  7 17  1  0  0  0  0
  8  9  1  0  0  0  0
  9 18  1  0  0  0  0
 10 12  2  0  0  0  0
 10 19  1  0  0  0  0
 11 20  1  0  0  0  0
 11 21  1  0  0  0  0
 11 22  1  0  0  0  0
 12 23  1  0  0  0  0
 12 24  1  0  0  0  0
M  END
>  <DRUGBANK_ID>
DB09086

>  <COMMON_NAME>
Eugenol

>  <CAS_NUMBER>
97-53-0

>  <UNII>
3T8H1794QW

>  <SYNONYMS>
Eugenol

$$$$
