PU7
 OpenBabel10282417072D

 48 50  0  0  0  0  0  0  0  0999 V2000
    0.6276    2.0702    0.0000 C   0  0  0  0  0  0  0  0  0  0  0  0
   -1.0224    2.0702    0.0000 C   0  0  0  0  0  0  0  0  0  0  0  0
    0.2151    1.3557    0.0000 O   0  0  0  0  0  0  0  0  0  0  0  0
   -0.6099    1.3557    0.0000 C   0  0  0  0  0  0  0  0  0  0  0  0
   -1.8474    2.0702    0.0000 C   0  0  0  0  0  0  0  0  0  0  0  0
   -2.2599    1.3557    0.0000 C   0  0  0  0  0  0  0  0  0  0  0  0
   -3.0849    1.3557    0.0000 O   0  0  0  0  0  0  0  0  0  0  0  0
   -3.4974    2.0702    0.0000 C   0  0  0  0  0  0  0  0  0  0  0  0
   -1.8474    0.6413    0.0000 C   0  0  0  0  0  0  0  0  0  0  0  0
   -1.0224    0.6413    0.0000 C   0  0  0  0  0  0  0  0  0  0  0  0
   -0.6099   -0.0732    0.0000 C   0  0  0  0  0  0  0  0  0  0  0  0
    0.2151   -0.0732    0.0000 C   0  0  0  0  0  0  0  0  0  0  0  0
    0.7000    0.5942    0.0000 N   0  0  0  0  0  0  0  0  0  0  0  0
    1.4846    0.3393    0.0000 C   0  0  0  0  0  0  0  0  0  0  0  0
    2.1991    0.7518    0.0000 C   0  0  0  0  0  0  0  0  0  0  0  0
    2.1991    1.5768    0.0000 N   0  0  0  0  0  0  0  0  0  0  0  0
    1.4846   -0.4857    0.0000 C   0  0  0  0  0  0  0  0  0  0  0  0
    2.1991   -0.8982    0.0000 N   0  0  0  0  0  0  0  0  0  0  0  0
    2.9135   -0.4857    0.0000 C   0  0  0  0  0  0  0  0  0  0  0  0
    2.9135    0.3393    0.0000 N   0  0  0  0  0  0  0  0  0  0  0  0
    0.7000   -0.7406    0.0000 N   0  0  0  0  0  0  0  0  0  0  0  0
    0.4450   -1.5253    0.0000 C   0  0  0  0  0  0  0  0  0  0  0  0
    0.9971   -2.1384    0.0000 C   0  0  0  0  0  0  0  0  0  0  0  0
    0.7421   -2.9230    0.0000 C   0  0  0  0  0  0  0  0  0  0  0  0
    1.2942   -3.5361    0.0000 C   0  0  0  0  0  0  0  0  0  0  0  0
    1.6976    2.0702    0.0000 H   0  0  0  0  0  0  0  0  0  0  0  0
    0.0926    2.9968    0.0000 H   0  0  0  0  0  0  0  0  0  0  0  0
    1.1626    2.9969    0.0000 H   0  0  0  0  0  0  0  0  0  0  0  0
   -0.5064    2.9639    0.0000 H   0  0  0  0  0  0  0  0  0  0  0  0
   -2.3634    2.9639    0.0000 H   0  0  0  0  0  0  0  0  0  0  0  0
   -2.9624    2.9968    0.0000 H   0  0  0  0  0  0  0  0  0  0  0  0
   -4.5674    2.0702    0.0000 H   0  0  0  0  0  0  0  0  0  0  0  0
   -4.0324    2.9969    0.0000 H   0  0  0  0  0  0  0  0  0  0  0  0
   -2.3634   -0.2524    0.0000 H   0  0  0  0  0  0  0  0  0  0  0  0
   -1.1449   -0.9998    0.0000 H   0  0  0  0  0  0  0  0  0  0  0  0
   -0.0749   -0.9998    0.0000 H   0  0  0  0  0  0  0  0  0  0  0  0
    3.0517    2.0691    0.0000 H   0  0  0  0  0  0  0  0  0  0  0  0
    1.3465    2.0690    0.0000 H   0  0  0  0  0  0  0  0  0  0  0  0
    3.8072   -1.0017    0.0000 H   0  0  0  0  0  0  0  0  0  0  0  0
   -0.6016   -1.7478    0.0000 H   0  0  0  0  0  0  0  0  0  0  0  0
    0.1144   -2.5429    0.0000 H   0  0  0  0  0  0  0  0  0  0  0  0
    2.0437   -1.9159    0.0000 H   0  0  0  0  0  0  0  0  0  0  0  0
    1.7130   -2.9336    0.0000 H   0  0  0  0  0  0  0  0  0  0  0  0
   -0.3045   -3.1455    0.0000 H   0  0  0  0  0  0  0  0  0  0  0  0
    0.4115   -3.9406    0.0000 H   0  0  0  0  0  0  0  0  0  0  0  0
    0.9636   -4.5537    0.0000 H   0  0  0  0  0  0  0  0  0  0  0  0
    2.3408   -3.3136    0.0000 H   0  0  0  0  0  0  0  0  0  0  0  0
    2.0102   -4.3312    0.0000 H   0  0  0  0  0  0  0  0  0  0  0  0
  1  3  1  0  0  0  0
  1 26  1  0  0  0  0
  1 27  1  0  0  0  0
  1 28  1  0  0  0  0
  2  4  2  0  0  0  0
  2  5  1  0  0  0  0
  2 29  1  0  0  0  0
  3  4  1  0  0  0  0
  4 10  1  0  0  0  0
  5  6  2  0  0  0  0
  5 30  1  0  0  0  0
  6  7  1  0  0  0  0
  6  9  1  0  0  0  0
  7  8  1  0  0  0  0
  8 31  1  0  0  0  0
  8 32  1  0  0  0  0
  8 33  1  0  0  0  0
  9 10  2  0  0  0  0
  9 34  1  0  0  0  0
 10 11  1  0  0  0  0
 11 12  1  0  0  0  0
 11 35  1  0  0  0  0
 11 36  1  0  0  0  0
 12 13  2  0  0  0  0
 12 21  1  0  0  0  0
 13 14  1  0  0  0  0
 14 15  2  0  0  0  0
 14 17  1  0  0  0  0
 15 16  1  0  0  0  0
 15 20  1  0  0  0  0
 16 37  1  0  0  0  0
 16 38  1  0  0  0  0
 17 18  2  0  0  0  0
 17 21  1  0  0  0  0
 18 19  1  0  0  0  0
 19 20  2  0  0  0  0
 19 39  1  0  0  0  0
 21 22  1  0  0  0  0
 22 23  1  0  0  0  0
 22 40  1  0  0  0  0
 22 41  1  0  0  0  0
 23 24  1  0  0  0  0
 23 42  1  0  0  0  0
 23 43  1  0  0  0  0
 24 25  1  0  0  0  0
 24 44  1  0  0  0  0
 24 45  1  0  0  0  0
 25 46  1  0  0  0  0
 25 47  1  0  0  0  0
 25 48  1  0  0  0  0
M  END
>  <DRUGBANK_ID>
DB02359

>  <SECONDARY_ACCESSION_NUMBERS>
EXPT02697

>  <COMMON_NAME>
9-Butyl-8-(2,5-Dimethoxy-Benzyl)-9h-Purin-6-Ylamine

$$$$
