PSK
 OpenBabel10282417072D

 27 26  0  0  0  0  0  0  0  0999 V2000
   -1.5833   -0.4241    0.0000 C   0  0  0  0  0  0  0  0  0  0  0  0
   -0.8689   -0.0116    0.0000 C   0  0  0  0  0  0  0  0  0  0  0  0
   -0.1543   -0.4241    0.0000 C   0  0  2  0  0  0  0  0  0  0  0  0
   -0.1543   -1.2492    0.0000 O   0  0  0  0  0  0  0  0  0  0  0  0
    0.5602   -0.0116    0.0000 C   0  0  1  0  0  0  0  0  0  0  0  0
    0.5602    0.8135    0.0000 C   0  0  0  0  0  0  0  0  0  0  0  0
    1.2747   -0.4241    0.0000 C   0  0  0  0  0  0  0  0  0  0  0  0
    1.2747   -1.2492    0.0000 O   0  0  0  0  0  0  0  0  0  0  0  0
    1.9892   -0.0116    0.0000 C   0  0  0  0  0  0  0  0  0  0  0  0
    2.7038   -0.4241    0.0000 P   0  0  1  0  0  0  0  0  0  0  0  0
    3.4183   -0.0116    0.0000 O   0  0  0  0  0  0  0  0  0  0  0  0
    2.7038   -1.2492    0.0000 O   0  0  0  0  0  0  0  0  0  0  0  0
   -0.6600   -0.7162    0.0000 H   0  0  0  0  0  0  0  0  0  0  0  0
    0.0545    0.2804    0.0000 H   0  0  0  0  0  0  0  0  0  0  0  0
    2.7038    0.3045    0.0000 H   0  0  0  0  0  0  0  0  0  0  0  0
   -2.5100    0.1109    0.0000 H   0  0  0  0  0  0  0  0  0  0  0  0
   -1.5833   -1.4941    0.0000 H   0  0  0  0  0  0  0  0  0  0  0  0
   -2.5099   -0.9591    0.0000 H   0  0  0  0  0  0  0  0  0  0  0  0
   -0.8690    1.0584    0.0000 H   0  0  0  0  0  0  0  0  0  0  0  0
    0.0577    0.5235    0.0000 H   0  0  0  0  0  0  0  0  0  0  0  0
   -0.9943   -1.7342    0.0000 H   0  0  0  0  0  0  0  0  0  0  0  0
    1.4868    1.3485    0.0000 H   0  0  0  0  0  0  0  0  0  0  0  0
   -0.3664    1.3485    0.0000 H   0  0  0  0  0  0  0  0  0  0  0  0
    0.5602    1.8835    0.0000 H   0  0  0  0  0  0  0  0  0  0  0  0
    1.9892    1.0584    0.0000 H   0  0  0  0  0  0  0  0  0  0  0  0
    2.9158    0.5235    0.0000 H   0  0  0  0  0  0  0  0  0  0  0  0
    1.8638   -1.7342    0.0000 H   0  0  0  0  0  0  0  0  0  0  0  0
  1  2  1  0  0  0  0
  1 16  1  0  0  0  0
  1 17  1  0  0  0  0
  1 18  1  0  0  0  0
  2  3  1  0  0  0  0
  2 19  1  0  0  0  0
  2 20  1  0  0  0  0
  3  4  1  0  0  0  0
  3  5  1  0  0  0  0
  3 13  1  6  0  0  0
  4 21  1  0  0  0  0
  5  6  1  0  0  0  0
  5  7  1  0  0  0  0
  5 14  1  6  0  0  0
  6 22  1  0  0  0  0
  6 23  1  0  0  0  0
  6 24  1  0  0  0  0
  7  8  2  0  0  0  0
  7  9  1  0  0  0  0
  9 10  1  0  0  0  0
  9 25  1  0  0  0  0
  9 26  1  0  0  0  0
 10 11  2  0  0  0  0
 10 12  1  0  0  0  0
 10 15  1  6  0  0  0
 12 27  1  0  0  0  0
M  END
>  <DRUGBANK_ID>
DB08431

>  <COMMON_NAME>
[(3R,4S)-4-HYDROXY-3-METHYL-2-OXOHEXYL]PHOSPHONIC ACID

$$$$
