
 OpenBabel10282417072D

 24 24  0  0  0  0  0  0  0  0999 V2000
    1.0717    0.8250    0.0000 C   0  0  1  0  0  0  0  0  0  0  0  0
    1.0717    0.0000    0.0000 C   0  0  1  0  0  0  0  0  0  0  0  0
    0.3572    1.2375    0.0000 O   0  0  0  0  0  0  0  0  0  0  0  0
    0.3572   -0.4124    0.0000 C   0  0  2  0  0  0  0  0  0  0  0  0
   -0.3572    0.8250    0.0000 C   0  0  1  0  0  0  0  0  0  0  0  0
   -0.3572    0.0000    0.0000 C   0  0  1  0  0  0  0  0  0  0  0  0
    1.7862    1.2375    0.0000 S   0  0  0  0  0  0  0  0  0  0  0  0
    1.7862   -0.4124    0.0000 O   0  0  0  0  0  0  0  0  0  0  0  0
    0.3572   -1.2375    0.0000 O   0  0  0  0  0  0  0  0  0  0  0  0
   -1.0716   -0.4124    0.0000 O   0  0  0  0  0  0  0  0  0  0  0  0
   -1.0716    1.2375    0.0000 C   0  0  0  0  0  0  0  0  0  0  0  0
   -1.7861    0.8250    0.0000 O   0  0  0  0  0  0  0  0  0  0  0  0
    1.9983    0.2900    0.0000 H   0  0  0  0  0  0  0  0  0  0  0  0
    1.9983    0.5351    0.0000 H   0  0  0  0  0  0  0  0  0  0  0  0
    1.2838   -0.9475    0.0000 H   0  0  0  0  0  0  0  0  0  0  0  0
   -0.3572    1.8950    0.0000 H   0  0  0  0  0  0  0  0  0  0  0  0
   -0.3572   -1.0700    0.0000 H   0  0  0  0  0  0  0  0  0  0  0  0
    2.9640    0.5575    0.0000 H   0  0  0  0  0  0  0  0  0  0  0  0
    1.7863   -1.3824    0.0000 H   0  0  0  0  0  0  0  0  0  0  0  0
   -0.4828   -1.7225    0.0000 H   0  0  0  0  0  0  0  0  0  0  0  0
   -1.9116    0.0727    0.0000 H   0  0  0  0  0  0  0  0  0  0  0  0
   -1.0716    2.3075    0.0000 H   0  0  0  0  0  0  0  0  0  0  0  0
   -1.9982    1.7725    0.0000 H   0  0  0  0  0  0  0  0  0  0  0  0
   -2.6261    1.3100    0.0000 H   0  0  0  0  0  0  0  0  0  0  0  0
  1  2  1  0  0  0  0
  1  3  1  0  0  0  0
  1  7  1  0  0  0  0
  1 13  1  6  0  0  0
  2  4  1  0  0  0  0
  2  8  1  0  0  0  0
  2 14  1  1  0  0  0
  3  5  1  0  0  0  0
  4  6  1  0  0  0  0
  4  9  1  0  0  0  0
  4 15  1  6  0  0  0
  5  6  1  0  0  0  0
  5 11  1  0  0  0  0
  5 16  1  6  0  0  0
  6 10  1  0  0  0  0
  6 17  1  1  0  0  0
  7 18  1  0  0  0  0
  8 19  1  0  0  0  0
  9 20  1  0  0  0  0
 10 21  1  0  0  0  0
 11 22  1  0  0  0  0
 11 23  1  0  0  0  0
 12 11  1  0  0  0  0
 12 24  1  0  0  0  0
M  END
>  <DRUGBANK_ID>
DB03859

>  <SECONDARY_ACCESSION_NUMBERS>
EXPT01644

>  <COMMON_NAME>
1-thio-beta-D-glucopyranose

>  <CAS_NUMBER>
7534-35-2

>  <UNII>
NG6BJW0OE1

>  <SYNONYMS>
1-thio-b-D-glucose; 1-thio-β-D-glucose; beta-D-Thioglucose; β-D-Glc-SH; β-D-Glcp-SH

$$$$
