525
 OpenBabel10282417072D

 39 41  0  0  0  0  0  0  0  0999 V2000
    5.2224    0.8107    0.0000 S   0  0  0  0  0  0  0  0  0  0  0  0
    5.9370   -0.4268    0.0000 O   0  0  0  0  0  0  0  0  0  0  0  0
    4.5080   -0.4268    0.0000 N   0  0  0  0  0  0  0  0  0  0  0  0
    8.0804   -0.0143    0.0000 C   0  0  0  0  0  0  0  0  0  0  0  0
    8.0804    0.8107    0.0000 C   0  0  0  0  0  0  0  0  0  0  0  0
    3.7935   -0.0143    0.0000 C   0  0  0  0  0  0  0  0  0  0  0  0
    6.6515   -0.0143    0.0000 C   0  0  0  0  0  0  0  0  0  0  0  0
    7.3659   -0.4268    0.0000 C   0  0  0  0  0  0  0  0  0  0  0  0
    3.0791   -0.4268    0.0000 C   0  0  0  0  0  0  0  0  0  0  0  0
    2.3645   -0.0143    0.0000 C   0  0  0  0  0  0  0  0  0  0  0  0
    7.3659    1.2233    0.0000 C   0  0  0  0  0  0  0  0  0  0  0  0
    6.6515    0.8107    0.0000 C   0  0  0  0  0  0  0  0  0  0  0  0
    8.8180   -0.4554    0.0000 C   0  0  0  0  0  0  0  0  0  0  0  0
    3.7935    0.8107    0.0000 C   0  0  0  0  0  0  0  0  0  0  0  0
    8.8180    1.2518    0.0000 C   0  0  0  0  0  0  0  0  0  0  0  0
    5.2224   -0.0143    0.0000 C   0  0  0  0  0  0  0  0  0  0  0  0
    2.3645    0.8107    0.0000 C   0  0  0  0  0  0  0  0  0  0  0  0
    3.0791    1.2233    0.0000 C   0  0  0  0  0  0  0  0  0  0  0  0
    4.5080   -1.2518    0.0000 C   0  0  0  0  0  0  0  0  0  0  0  0
    9.5654   -0.0314    0.0000 C   0  0  0  0  0  0  0  0  0  0  0  0
    9.5654    0.8279    0.0000 C   0  0  0  0  0  0  0  0  0  0  0  0
    1.6500   -0.4268    0.0000 C   0  0  0  0  0  0  0  0  0  0  0  0
    7.3659   -1.4588    0.0000 H   0  0  0  0  0  0  0  0  0  0  0  0
    3.0792   -1.4588    0.0000 H   0  0  0  0  0  0  0  0  0  0  0  0
    7.3659    2.2553    0.0000 H   0  0  0  0  0  0  0  0  0  0  0  0
    5.7577    1.3266    0.0000 H   0  0  0  0  0  0  0  0  0  0  0  0
    8.8062   -1.4873    0.0000 H   0  0  0  0  0  0  0  0  0  0  0  0
    4.6873    1.3266    0.0000 H   0  0  0  0  0  0  0  0  0  0  0  0
    8.8061    2.2837    0.0000 H   0  0  0  0  0  0  0  0  0  0  0  0
    1.4708    1.3267    0.0000 H   0  0  0  0  0  0  0  0  0  0  0  0
    3.0792    2.2553    0.0000 H   0  0  0  0  0  0  0  0  0  0  0  0
    3.5814   -1.7868    0.0000 H   0  0  0  0  0  0  0  0  0  0  0  0
    5.4346   -1.7868    0.0000 H   0  0  0  0  0  0  0  0  0  0  0  0
    4.5080   -2.3218    0.0000 H   0  0  0  0  0  0  0  0  0  0  0  0
   10.4572   -0.5508    0.0000 H   0  0  0  0  0  0  0  0  0  0  0  0
   10.4572    1.3473    0.0000 H   0  0  0  0  0  0  0  0  0  0  0  0
    0.7234    0.1082    0.0000 H   0  0  0  0  0  0  0  0  0  0  0  0
    1.6500   -1.4968    0.0000 H   0  0  0  0  0  0  0  0  0  0  0  0
    0.7233   -0.9618    0.0000 H   0  0  0  0  0  0  0  0  0  0  0  0
  1 16  2  0  0  0  0
  2  7  1  0  0  0  0
  2 16  1  0  0  0  0
  3  6  1  0  0  0  0
  3 16  1  0  0  0  0
  3 19  1  0  0  0  0
  4  5  1  0  0  0  0
  4  8  1  0  0  0  0
  4 13  2  0  0  0  0
  5 11  1  0  0  0  0
  5 15  2  0  0  0  0
  6  9  1  0  0  0  0
  6 14  2  0  0  0  0
  7  8  2  0  0  0  0
  7 12  1  0  0  0  0
  8 23  1  0  0  0  0
  9 10  2  0  0  0  0
  9 24  1  0  0  0  0
 10 17  1  0  0  0  0
 10 22  1  0  0  0  0
 11 12  2  0  0  0  0
 11 25  1  0  0  0  0
 12 26  1  0  0  0  0
 13 20  1  0  0  0  0
 13 27  1  0  0  0  0
 14 18  1  0  0  0  0
 14 28  1  0  0  0  0
 15 21  1  0  0  0  0
 15 29  1  0  0  0  0
 17 18  2  0  0  0  0
 17 30  1  0  0  0  0
 18 31  1  0  0  0  0
 19 32  1  0  0  0  0
 19 33  1  0  0  0  0
 19 34  1  0  0  0  0
 20 21  2  0  0  0  0
 20 35  1  0  0  0  0
 21 36  1  0  0  0  0
 22 37  1  0  0  0  0
 22 38  1  0  0  0  0
 22 39  1  0  0  0  0
M  END
>  <DRUGBANK_ID>
DB00525

>  <SECONDARY_ACCESSION_NUMBERS>
APRD01607

>  <COMMON_NAME>
Tolnaftate

>  <CAS_NUMBER>
2398-96-1

>  <UNII>
06KB629TKV

>  <SYNONYMS>
2-Naphthyl N-methyl-N-(3-tolyl)thionocarbamate; m,N-Dimethylthiocarbanilic acid O-2-naphthyl ester; Methyl (3-methylphenyl)carbamothioic acid O-2-naphthalenyl ester; N-methyl-N-(3-methylphenyl)-1-(naphthalen-2-yloxy)methanethioamide; O-2-Naphthyl m,N-dimethylthiocarbanilate; Tolnaftate; Tolnaftato; Tolnaftatum; Tolnaphthate

$$$$
