
 OpenBabel10282417072D

 65 66  0  0  0  0  0  0  0  0999 V2000
    4.2868    7.4250    0.0000 C   0  0  0  0  0  0  0  0  0  0  0  0
   10.7171    4.5375    0.0000 C   0  0  0  0  0  0  0  0  0  0  0  0
   16.4328    9.4875    0.0000 C   0  0  0  0  0  0  0  0  0  0  0  0
    5.0013    7.0125    0.0000 C   0  0  0  0  0  0  0  0  0  0  0  0
   11.4315    4.9500    0.0000 C   0  0  0  0  0  0  0  0  0  0  0  0
   16.4328    8.6625    0.0000 C   0  0  0  0  0  0  0  0  0  0  0  0
    5.7158    7.4250    0.0000 C   0  0  0  0  0  0  0  0  0  0  0  0
    6.4302    7.0125    0.0000 C   0  0  0  0  0  0  0  0  0  0  0  0
    7.1447    7.4250    0.0000 C   0  0  0  0  0  0  0  0  0  0  0  0
    7.8592    7.0125    0.0000 C   0  0  0  0  0  0  0  0  0  0  0  0
    8.5737    7.4250    0.0000 C   0  0  0  0  0  0  0  0  0  0  0  0
    9.2881    7.0125    0.0000 C   0  0  0  0  0  0  0  0  0  0  0  0
   10.0026    7.4250    0.0000 C   0  0  0  0  0  0  0  0  0  0  0  0
   10.7171    7.0125    0.0000 C   0  0  0  0  0  0  0  0  0  0  0  0
   12.8605    7.4250    0.0000 C   0  0  0  0  0  0  0  0  0  0  0  0
   12.8605    5.7750    0.0000 C   0  0  0  0  0  0  0  0  0  0  0  0
   15.0039    6.1875    0.0000 C   0  0  0  0  0  0  0  0  0  0  0  0
   13.5749    7.0125    0.0000 C   0  0  0  0  0  0  0  0  0  0  0  0
   15.0039    7.0125    0.0000 C   0  0  0  0  0  0  0  0  0  0  0  0
   13.5749    6.1875    0.0000 C   0  0  0  0  0  0  0  0  0  0  0  0
   12.1460    7.0125    0.0000 C   0  0  0  0  0  0  0  0  0  0  0  0
   12.1460    6.1875    0.0000 C   0  0  0  0  0  0  0  0  0  0  0  0
   14.2894    7.4250    0.0000 C   0  0  0  0  0  0  0  0  0  0  0  0
   15.7184    7.4250    0.0000 C   0  0  0  0  0  0  0  0  0  0  0  0
   14.2894    5.7750    0.0000 N   0  0  0  0  0  0  0  0  0  0  0  0
   14.2894    8.2500    0.0000 O   0  0  0  0  0  0  0  0  0  0  0  0
   16.4328    7.0125    0.0000 O   0  0  0  0  0  0  0  0  0  0  0  0
   11.4315    5.7750    0.0000 O   0  0  0  0  0  0  0  0  0  0  0  0
   15.7184    8.2500    0.0000 O   0  0  0  0  0  0  0  0  0  0  0  0
   11.4315    7.4250    0.0000 O   0  0  0  0  0  0  0  0  0  0  0  0
    4.2868    8.4950    0.0000 H   0  0  0  0  0  0  0  0  0  0  0  0
    3.3602    6.8900    0.0000 H   0  0  0  0  0  0  0  0  0  0  0  0
    3.3601    7.9600    0.0000 H   0  0  0  0  0  0  0  0  0  0  0  0
    9.7904    5.0725    0.0000 H   0  0  0  0  0  0  0  0  0  0  0  0
   10.7171    3.4675    0.0000 H   0  0  0  0  0  0  0  0  0  0  0  0
    9.7905    4.0025    0.0000 H   0  0  0  0  0  0  0  0  0  0  0  0
   17.3594   10.0225    0.0000 H   0  0  0  0  0  0  0  0  0  0  0  0
   15.5062   10.0225    0.0000 H   0  0  0  0  0  0  0  0  0  0  0  0
   16.4328   10.5575    0.0000 H   0  0  0  0  0  0  0  0  0  0  0  0
    5.0013    5.9425    0.0000 H   0  0  0  0  0  0  0  0  0  0  0  0
    5.9279    6.4775    0.0000 H   0  0  0  0  0  0  0  0  0  0  0  0
   12.3582    4.4150    0.0000 H   0  0  0  0  0  0  0  0  0  0  0  0
   12.3581    5.4850    0.0000 H   0  0  0  0  0  0  0  0  0  0  0  0
   17.3595    8.1275    0.0000 H   0  0  0  0  0  0  0  0  0  0  0  0
   16.4328    7.5925    0.0000 H   0  0  0  0  0  0  0  0  0  0  0  0
    5.7158    8.4950    0.0000 H   0  0  0  0  0  0  0  0  0  0  0  0
    6.6425    7.9600    0.0000 H   0  0  0  0  0  0  0  0  0  0  0  0
    6.4302    5.9425    0.0000 H   0  0  0  0  0  0  0  0  0  0  0  0
    7.3568    6.4775    0.0000 H   0  0  0  0  0  0  0  0  0  0  0  0
    7.1447    8.4950    0.0000 H   0  0  0  0  0  0  0  0  0  0  0  0
    8.0713    7.9600    0.0000 H   0  0  0  0  0  0  0  0  0  0  0  0
    7.8592    5.9425    0.0000 H   0  0  0  0  0  0  0  0  0  0  0  0
    8.7858    6.4775    0.0000 H   0  0  0  0  0  0  0  0  0  0  0  0
    8.5737    8.4950    0.0000 H   0  0  0  0  0  0  0  0  0  0  0  0
    9.5004    7.9600    0.0000 H   0  0  0  0  0  0  0  0  0  0  0  0
    9.2881    5.9425    0.0000 H   0  0  0  0  0  0  0  0  0  0  0  0
   10.2147    6.4775    0.0000 H   0  0  0  0  0  0  0  0  0  0  0  0
   10.0026    8.4950    0.0000 H   0  0  0  0  0  0  0  0  0  0  0  0
   10.9292    7.9600    0.0000 H   0  0  0  0  0  0  0  0  0  0  0  0
   10.7171    5.9425    0.0000 H   0  0  0  0  0  0  0  0  0  0  0  0
   11.6438    6.4775    0.0000 H   0  0  0  0  0  0  0  0  0  0  0  0
   12.8605    8.4570    0.0000 H   0  0  0  0  0  0  0  0  0  0  0  0
   12.8605    4.7430    0.0000 H   0  0  0  0  0  0  0  0  0  0  0  0
   15.8976    5.6715    0.0000 H   0  0  0  0  0  0  0  0  0  0  0  0
   14.2894    4.7905    0.0000 H   0  0  0  0  0  0  0  0  0  0  0  0
  1 31  1  0  0  0  0
  1 32  1  0  0  0  0
  1 33  1  0  0  0  0
  2 34  1  0  0  0  0
  2 35  1  0  0  0  0
  2 36  1  0  0  0  0
  3 37  1  0  0  0  0
  3 38  1  0  0  0  0
  3 39  1  0  0  0  0
  4  1  1  0  0  0  0
  4 40  1  0  0  0  0
  4 41  1  0  0  0  0
  5  2  1  0  0  0  0
  5 42  1  0  0  0  0
  5 43  1  0  0  0  0
  6  3  1  0  0  0  0
  6 44  1  0  0  0  0
  6 45  1  0  0  0  0
  7  4  1  0  0  0  0
  7 46  1  0  0  0  0
  7 47  1  0  0  0  0
  8  7  1  0  0  0  0
  8 48  1  0  0  0  0
  8 49  1  0  0  0  0
  9  8  1  0  0  0  0
  9 50  1  0  0  0  0
  9 51  1  0  0  0  0
 10  9  1  0  0  0  0
 10 52  1  0  0  0  0
 10 53  1  0  0  0  0
 11 10  1  0  0  0  0
 11 54  1  0  0  0  0
 11 55  1  0  0  0  0
 12 11  1  0  0  0  0
 12 56  1  0  0  0  0
 12 57  1  0  0  0  0
 13 12  1  0  0  0  0
 13 58  1  0  0  0  0
 13 59  1  0  0  0  0
 14 13  1  0  0  0  0
 14 60  1  0  0  0  0
 14 61  1  0  0  0  0
 15 62  1  0  0  0  0
 16 63  1  0  0  0  0
 17 64  1  0  0  0  0
 18 15  2  0  0  0  0
 19 17  2  0  0  0  0
 20 16  2  0  0  0  0
 20 18  1  0  0  0  0
 21 15  1  0  0  0  0
 22 16  1  0  0  0  0
 22 21  2  0  0  0  0
 23 18  1  0  0  0  0
 23 19  1  0  0  0  0
 24 19  1  0  0  0  0
 25 17  1  0  0  0  0
 25 20  1  0  0  0  0
 25 65  1  0  0  0  0
 26 23  2  0  0  0  0
 27 24  2  0  0  0  0
 28  5  1  0  0  0  0
 28 22  1  0  0  0  0
 29  6  1  0  0  0  0
 29 24  1  0  0  0  0
 30 14  1  0  0  0  0
 30 21  1  0  0  0  0
M  END
>  <DRUGBANK_ID>
DB11394

>  <COMMON_NAME>
Decoquinate

>  <CAS_NUMBER>
18507-89-6

>  <UNII>
534I52PVWH

>  <SYNONYMS>
Decoquinate; Decoquinato; Decoquinatum

$$$$
