1428
 OpenBabel10282417072D

 29 30  0  0  0  0  0  0  0  0999 V2000
    3.5220   -2.2688    0.0000 O   0  0  0  0  0  0  0  0  0  0  0  0
    2.0930    0.2063    0.0000 O   0  0  0  0  0  0  0  0  0  0  0  0
    2.8075    1.4438    0.0000 O   0  0  0  0  0  0  0  0  0  0  0  0
    3.5220    0.2063    0.0000 C   0  0  0  0  0  0  0  0  0  0  0  0
    3.5220    1.0313    0.0000 C   0  0  0  0  0  0  0  0  0  0  0  0
    4.2365    1.4438    0.0000 C   0  0  0  0  0  0  0  0  0  0  0  0
    2.8075   -0.2063    0.0000 C   0  0  0  0  0  0  0  0  0  0  0  0
    4.2365   -0.2063    0.0000 C   0  0  0  0  0  0  0  0  0  0  0  0
    3.5220   -1.4438    0.0000 C   0  0  0  0  0  0  0  0  0  0  0  0
    2.8075   -1.0313    0.0000 C   0  0  0  0  0  0  0  0  0  0  0  0
    4.2365   -1.0313    0.0000 C   0  0  0  0  0  0  0  0  0  0  0  0
    4.2365    2.2688    0.0000 C   0  0  0  0  0  0  0  0  0  0  0  0
    4.9509    1.0313    0.0000 C   0  0  0  0  0  0  0  0  0  0  0  0
    4.9509    2.6813    0.0000 C   0  0  0  0  0  0  0  0  0  0  0  0
    5.6655    1.4438    0.0000 C   0  0  0  0  0  0  0  0  0  0  0  0
    5.6655    2.2688    0.0000 C   0  0  0  0  0  0  0  0  0  0  0  0
    4.2365   -2.6813    0.0000 C   0  0  0  0  0  0  0  0  0  0  0  0
    2.0931    1.1433    0.0000 H   0  0  0  0  0  0  0  0  0  0  0  0
    5.1303    0.3097    0.0000 H   0  0  0  0  0  0  0  0  0  0  0  0
    1.9138   -1.5473    0.0000 H   0  0  0  0  0  0  0  0  0  0  0  0
    5.1302   -1.5473    0.0000 H   0  0  0  0  0  0  0  0  0  0  0  0
    3.3428    2.7848    0.0000 H   0  0  0  0  0  0  0  0  0  0  0  0
    4.9508   -0.0007    0.0000 H   0  0  0  0  0  0  0  0  0  0  0  0
    4.9508    3.7133    0.0000 H   0  0  0  0  0  0  0  0  0  0  0  0
    6.5592    0.9278    0.0000 H   0  0  0  0  0  0  0  0  0  0  0  0
    6.5592    2.7848    0.0000 H   0  0  0  0  0  0  0  0  0  0  0  0
    4.2365   -3.7513    0.0000 H   0  0  0  0  0  0  0  0  0  0  0  0
    5.1631   -2.1463    0.0000 H   0  0  0  0  0  0  0  0  0  0  0  0
    5.1632   -3.2163    0.0000 H   0  0  0  0  0  0  0  0  0  0  0  0
  1  9  1  0  0  0  0
  1 17  1  0  0  0  0
  2  7  1  0  0  0  0
  2 18  1  0  0  0  0
  3  5  2  0  0  0  0
  4  5  1  0  0  0  0
  4  7  2  0  0  0  0
  4  8  1  0  0  0  0
  5  6  1  0  0  0  0
  6 12  2  0  0  0  0
  6 13  1  0  0  0  0
  7 10  1  0  0  0  0
  8 11  2  0  0  0  0
  8 19  1  0  0  0  0
  9 10  2  0  0  0  0
  9 11  1  0  0  0  0
 10 20  1  0  0  0  0
 11 21  1  0  0  0  0
 12 14  1  0  0  0  0
 12 22  1  0  0  0  0
 13 15  2  0  0  0  0
 13 23  1  0  0  0  0
 14 16  2  0  0  0  0
 14 24  1  0  0  0  0
 15 16  1  0  0  0  0
 15 25  1  0  0  0  0
 16 26  1  0  0  0  0
 17 27  1  0  0  0  0
 17 28  1  0  0  0  0
 17 29  1  0  0  0  0
M  END
>  <DRUGBANK_ID>
DB01428

>  <COMMON_NAME>
Oxybenzone

>  <CAS_NUMBER>
131-57-7

>  <UNII>
95OOS7VE0Y

>  <SYNONYMS>
2-Benzoyl-5-methoxyphenol; 2-Hydroxy-4-methoxybenzophenone; 4-Methoxy-2-hydroxybenzophenone; Benzophenone-3; Oxibenzona; Oxybenzone; Oxybenzonum

$$$$
