
 OpenBabel10282417072D

 70 72  0  0  0  0  0  0  0  0999 V2000
    0.7326    1.8563    0.0000 C   0  0  1  0  0  0  0  0  0  0  0  0
    0.7326    1.0313    0.0000 C   0  0  1  0  0  0  0  0  0  0  0  0
    0.0180    2.2689    0.0000 C   0  0  0  0  0  0  0  0  0  0  0  0
    0.0180    0.6187    0.0000 C   0  0  2  0  0  0  0  0  0  0  0  0
   -0.6965    1.8563    0.0000 C   0  0  1  0  0  0  0  0  0  0  0  0
   -0.6965    1.0313    0.0000 C   0  0  1  0  0  0  0  0  0  0  0  0
    1.4471    2.2689    0.0000 N   0  0  0  0  0  0  0  0  0  0  0  0
   -1.4109    2.2689    0.0000 N   0  0  0  0  0  0  0  0  0  0  0  0
   -1.4109    0.6187    0.0000 O   0  0  0  0  0  0  0  0  0  0  0  0
    0.0179   -0.2062    0.0000 O   0  0  0  0  0  0  0  0  0  0  0  0
    1.4471    0.6187    0.0000 O   0  0  0  0  0  0  0  0  0  0  0  0
   -2.1255    0.2062    0.0000 C   0  0  2  0  0  0  0  0  0  0  0  0
   -2.1255   -0.6187    0.0000 C   0  0  1  0  0  0  0  0  0  0  0  0
   -2.8400    0.6187    0.0000 O   0  0  0  0  0  0  0  0  0  0  0  0
   -2.8400   -1.0313    0.0000 C   0  0  0  0  0  0  0  0  0  0  0  0
   -3.5546    0.2062    0.0000 C   0  0  1  0  0  0  0  0  0  0  0  0
   -3.5546   -0.6187    0.0000 C   0  0  0  0  0  0  0  0  0  0  0  0
   -1.4109   -1.0313    0.0000 N   0  0  0  0  0  0  0  0  0  0  0  0
    2.1617    0.2062    0.0000 C   0  0  2  0  0  0  0  0  0  0  0  0
    2.1617   -0.6187    0.0000 C   0  0  1  0  0  0  0  0  0  0  0  0
    2.8762    0.6187    0.0000 O   0  0  0  0  0  0  0  0  0  0  0  0
    2.8762   -1.0313    0.0000 C   0  0  2  0  0  0  0  0  0  0  0  0
    3.5907    0.2062    0.0000 C   0  0  0  0  0  0  0  0  0  0  0  0
    3.5907   -0.6187    0.0000 C   0  0  1  0  0  0  0  0  0  0  0  0
    1.4471   -1.0313    0.0000 O   0  0  0  0  0  0  0  0  0  0  0  0
    2.8762   -1.8563    0.0000 N   0  0  0  0  0  0  0  0  0  0  0  0
    2.1617   -2.2689    0.0000 C   0  0  0  0  0  0  0  0  0  0  0  0
    4.2690   -0.3319    0.0000 C   0  0  0  0  0  0  0  0  0  0  0  0
    3.7583   -1.3691    0.0000 O   0  0  0  0  0  0  0  0  0  0  0  0
   -4.2690    0.6187    0.0000 C   0  0  0  0  0  0  0  0  0  0  0  0
   -4.2690    1.4438    0.0000 N   0  0  0  0  0  0  0  0  0  0  0  0
    1.6593    1.3213    0.0000 H   0  0  0  0  0  0  0  0  0  0  0  0
    1.6593    1.5663    0.0000 H   0  0  0  0  0  0  0  0  0  0  0  0
    0.0180    3.3389    0.0000 H   0  0  0  0  0  0  0  0  0  0  0  0
   -0.9087    2.8038    0.0000 H   0  0  0  0  0  0  0  0  0  0  0  0
    0.9446    0.0837    0.0000 H   0  0  0  0  0  0  0  0  0  0  0  0
   -0.6965    2.9263    0.0000 H   0  0  0  0  0  0  0  0  0  0  0  0
   -0.6965   -0.0387    0.0000 H   0  0  0  0  0  0  0  0  0  0  0  0
    2.3305    1.7590    0.0000 H   0  0  0  0  0  0  0  0  0  0  0  0
    1.4470    3.2889    0.0000 H   0  0  0  0  0  0  0  0  0  0  0  0
   -1.4107    3.2889    0.0000 H   0  0  0  0  0  0  0  0  0  0  0  0
   -2.2943    1.7590    0.0000 H   0  0  0  0  0  0  0  0  0  0  0  0
   -0.8222   -0.6911    0.0000 H   0  0  0  0  0  0  0  0  0  0  0  0
   -1.1989   -0.3288    0.0000 H   0  0  0  0  0  0  0  0  0  0  0  0
   -1.1988   -0.0837    0.0000 H   0  0  0  0  0  0  0  0  0  0  0  0
   -2.8400   -2.1013    0.0000 H   0  0  0  0  0  0  0  0  0  0  0  0
   -3.7666   -1.5663    0.0000 H   0  0  0  0  0  0  0  0  0  0  0  0
   -3.5545    1.2762    0.0000 H   0  0  0  0  0  0  0  0  0  0  0  0
   -4.4813   -1.1537    0.0000 H   0  0  0  0  0  0  0  0  0  0  0  0
   -4.4812   -0.0837    0.0000 H   0  0  0  0  0  0  0  0  0  0  0  0
   -1.4109   -2.0513    0.0000 H   0  0  0  0  0  0  0  0  0  0  0  0
   -0.5275   -0.5213    0.0000 H   0  0  0  0  0  0  0  0  0  0  0  0
    1.2351   -0.3288    0.0000 H   0  0  0  0  0  0  0  0  0  0  0  0
    1.2350   -0.0837    0.0000 H   0  0  0  0  0  0  0  0  0  0  0  0
    1.9495   -1.5663    0.0000 H   0  0  0  0  0  0  0  0  0  0  0  0
    4.5173    0.7412    0.0000 H   0  0  0  0  0  0  0  0  0  0  0  0
    4.5173   -0.3288    0.0000 H   0  0  0  0  0  0  0  0  0  0  0  0
    0.6070   -0.5463    0.0000 H   0  0  0  0  0  0  0  0  0  0  0  0
    3.7596   -2.3663    0.0000 H   0  0  0  0  0  0  0  0  0  0  0  0
    1.2350   -1.7340    0.0000 H   0  0  0  0  0  0  0  0  0  0  0  0
    2.1618   -3.3389    0.0000 H   0  0  0  0  0  0  0  0  0  0  0  0
    1.2351   -2.8040    0.0000 H   0  0  0  0  0  0  0  0  0  0  0  0
    5.1226   -0.9770    0.0000 H   0  0  0  0  0  0  0  0  0  0  0  0
    4.4009    0.7299    0.0000 H   0  0  0  0  0  0  0  0  0  0  0  0
    5.2545    0.0848    0.0000 H   0  0  0  0  0  0  0  0  0  0  0  0
    3.0442   -2.0255    0.0000 H   0  0  0  0  0  0  0  0  0  0  0  0
   -5.1957    0.0837    0.0000 H   0  0  0  0  0  0  0  0  0  0  0  0
   -5.1956    1.1537    0.0000 H   0  0  0  0  0  0  0  0  0  0  0  0
   -3.3857    1.9538    0.0000 H   0  0  0  0  0  0  0  0  0  0  0  0
   -5.1523    1.9538    0.0000 H   0  0  0  0  0  0  0  0  0  0  0  0
  1  7  1  0  0  0  0
  1 32  1  6  0  0  0
  2  1  1  0  0  0  0
  2 11  1  0  0  0  0
  2 33  1  1  0  0  0
  3  1  1  0  0  0  0
  3 34  1  0  0  0  0
  3 35  1  0  0  0  0
  4  2  1  0  0  0  0
  4 10  1  0  0  0  0
  4 36  1  6  0  0  0
  5  3  1  0  0  0  0
  5  8  1  0  0  0  0
  5 37  1  6  0  0  0
  6  4  1  0  0  0  0
  6  5  1  0  0  0  0
  6  9  1  0  0  0  0
  6 38  1  1  0  0  0
  7 39  1  0  0  0  0
  7 40  1  0  0  0  0
  8 41  1  0  0  0  0
  8 42  1  0  0  0  0
 10 43  1  0  0  0  0
 12 13  1  0  0  0  0
 12 14  1  0  0  0  0
 12  9  1  0  0  0  0
 12 44  1  1  0  0  0
 13 15  1  0  0  0  0
 13 18  1  0  0  0  0
 13 45  1  1  0  0  0
 14 16  1  0  0  0  0
 15 17  1  0  0  0  0
 15 46  1  0  0  0  0
 15 47  1  0  0  0  0
 16 17  1  0  0  0  0
 16 30  1  0  0  0  0
 16 48  1  6  0  0  0
 17 49  1  0  0  0  0
 17 50  1  0  0  0  0
 18 51  1  0  0  0  0
 18 52  1  0  0  0  0
 19 20  1  0  0  0  0
 19 21  1  0  0  0  0
 19 11  1  0  0  0  0
 19 53  1  6  0  0  0
 20 22  1  0  0  0  0
 20 25  1  0  0  0  0
 20 54  1  6  0  0  0
 21 23  1  0  0  0  0
 22 24  1  0  0  0  0
 22 26  1  0  0  0  0
 22 55  1  1  0  0  0
 23 24  1  0  0  0  0
 23 56  1  0  0  0  0
 23 57  1  0  0  0  0
 24 28  1  0  0  0  0
 24 29  1  6  0  0  0
 25 58  1  0  0  0  0
 26 59  1  0  0  0  0
 27 26  1  0  0  0  0
 27 60  1  0  0  0  0
 27 61  1  0  0  0  0
 27 62  1  0  0  0  0
 28 63  1  0  0  0  0
 28 64  1  0  0  0  0
 28 65  1  0  0  0  0
 29 66  1  0  0  0  0
 30 67  1  0  0  0  0
 30 68  1  0  0  0  0
 31 30  1  0  0  0  0
 31 69  1  0  0  0  0
 31 70  1  0  0  0  0
M  END
>  <DRUGBANK_ID>
DB04729

>  <COMMON_NAME>
Gentamicin C1a

>  <CAS_NUMBER>
26098-04-4

>  <UNII>
AV4A72IATD

>  <SYNONYMS>
Gentamycin C12

$$$$
