DT1
 OpenBabel10282417072D

 50 53  0  0  0  0  0  0  0  0999 V2000
   -4.6049   -3.6865    0.0000 O   0  0  0  0  0  0  0  0  0  0  0  0
   -3.8904   -3.2740    0.0000 S   0  0  0  0  0  0  0  0  0  0  0  0
   -3.4779   -3.9884    0.0000 O   0  0  0  0  0  0  0  0  0  0  0  0
   -4.3029   -2.5595    0.0000 N   0  0  0  0  0  0  0  0  0  0  0  0
   -3.1759   -2.8615    0.0000 C   0  0  0  0  0  0  0  0  0  0  0  0
   -3.1759   -2.0365    0.0000 C   0  0  0  0  0  0  0  0  0  0  0  0
   -2.4615   -3.2740    0.0000 C   0  0  0  0  0  0  0  0  0  0  0  0
   -1.7470   -2.8615    0.0000 C   0  0  0  0  0  0  0  0  0  0  0  0
   -2.4615   -1.6240    0.0000 C   0  0  0  0  0  0  0  0  0  0  0  0
   -1.7470   -2.0365    0.0000 C   0  0  0  0  0  0  0  0  0  0  0  0
   -1.0325   -1.6240    0.0000 N   0  0  0  0  0  0  0  0  0  0  0  0
   -1.0325   -0.7990    0.0000 C   0  0  0  0  0  0  0  0  0  0  0  0
   -1.7470   -0.3865    0.0000 N   0  0  0  0  0  0  0  0  0  0  0  0
   -1.7470    0.4385    0.0000 C   0  0  0  0  0  0  0  0  0  0  0  0
   -1.0325    0.8510    0.0000 N   0  0  0  0  0  0  0  0  0  0  0  0
   -2.5316    0.6935    0.0000 N   0  0  0  0  0  0  0  0  0  0  0  0
   -3.0165    0.0260    0.0000 C   0  0  0  0  0  0  0  0  0  0  0  0
   -2.5316   -0.6414    0.0000 N   0  0  0  0  0  0  0  0  0  0  0  0
   -0.3181   -0.3865    0.0000 C   0  0  0  0  0  0  0  0  0  0  0  0
   -0.3181    0.4385    0.0000 C   0  0  0  0  0  0  0  0  0  0  0  0
    0.3964    1.6760    0.0000 C   0  0  0  0  0  0  0  0  0  0  0  0
    0.3964    0.8510    0.0000 O   0  0  0  0  0  0  0  0  0  0  0  0
    1.1109    2.0885    0.0000 C   0  0  0  0  0  0  0  0  0  0  0  0
    1.1109    2.9135    0.0000 C   0  0  0  0  0  0  0  0  0  0  0  0
    1.8254    3.3260    0.0000 C   0  0  0  0  0  0  0  0  0  0  0  0
    2.5398    2.9135    0.0000 C   0  0  0  0  0  0  0  0  0  0  0  0
    2.5398    2.0885    0.0000 C   0  0  0  0  0  0  0  0  0  0  0  0
    1.8254    1.6760    0.0000 C   0  0  0  0  0  0  0  0  0  0  0  0
   -3.7929   -1.6762    0.0000 H   0  0  0  0  0  0  0  0  0  0  0  0
   -5.3229   -2.5595    0.0000 H   0  0  0  0  0  0  0  0  0  0  0  0
   -4.0696   -1.5205    0.0000 H   0  0  0  0  0  0  0  0  0  0  0  0
   -2.4615   -4.3060    0.0000 H   0  0  0  0  0  0  0  0  0  0  0  0
   -0.8533   -3.3775    0.0000 H   0  0  0  0  0  0  0  0  0  0  0  0
   -2.4615   -0.5920    0.0000 H   0  0  0  0  0  0  0  0  0  0  0  0
   -0.1799   -2.1163    0.0000 H   0  0  0  0  0  0  0  0  0  0  0  0
   -4.0485    0.0260    0.0000 H   0  0  0  0  0  0  0  0  0  0  0  0
    0.5756   -0.9025    0.0000 H   0  0  0  0  0  0  0  0  0  0  0  0
   -0.5302    2.2110    0.0000 H   0  0  0  0  0  0  0  0  0  0  0  0
    0.3964    2.7460    0.0000 H   0  0  0  0  0  0  0  0  0  0  0  0
    2.0375    2.6235    0.0000 H   0  0  0  0  0  0  0  0  0  0  0  0
    0.1843    3.4485    0.0000 H   0  0  0  0  0  0  0  0  0  0  0  0
    1.1109    3.9835    0.0000 H   0  0  0  0  0  0  0  0  0  0  0  0
    1.8254    4.3960    0.0000 H   0  0  0  0  0  0  0  0  0  0  0  0
    2.7521    3.8610    0.0000 H   0  0  0  0  0  0  0  0  0  0  0  0
    3.4665    3.4485    0.0000 H   0  0  0  0  0  0  0  0  0  0  0  0
    3.4664    2.3785    0.0000 H   0  0  0  0  0  0  0  0  0  0  0  0
    3.4665    1.5535    0.0000 H   0  0  0  0  0  0  0  0  0  0  0  0
    2.5398    1.0185    0.0000 H   0  0  0  0  0  0  0  0  0  0  0  0
    1.8254    0.6060    0.0000 H   0  0  0  0  0  0  0  0  0  0  0  0
    2.7521    1.1410    0.0000 H   0  0  0  0  0  0  0  0  0  0  0  0
  1  2  2  0  0  0  0
  2  3  2  0  0  0  0
  2  4  1  0  0  0  0
  2  5  1  0  0  0  0
  4 29  1  0  0  0  0
  4 30  1  0  0  0  0
  5  6  2  0  0  0  0
  5  7  1  0  0  0  0
  6  9  1  0  0  0  0
  6 31  1  0  0  0  0
  7  8  2  0  0  0  0
  7 32  1  0  0  0  0
  8 10  1  0  0  0  0
  8 33  1  0  0  0  0
  9 10  2  0  0  0  0
  9 34  1  0  0  0  0
 10 11  1  0  0  0  0
 11 12  1  0  0  0  0
 11 35  1  0  0  0  0
 12 13  1  0  0  0  0
 12 19  2  0  0  0  0
 13 14  1  0  0  0  0
 13 18  1  0  0  0  0
 14 15  1  0  0  0  0
 14 16  2  0  0  0  0
 15 20  2  0  0  0  0
 16 17  1  0  0  0  0
 17 18  2  0  0  0  0
 17 36  1  0  0  0  0
 19 20  1  0  0  0  0
 19 37  1  0  0  0  0
 20 22  1  0  0  0  0
 21 22  1  0  0  0  0
 21 23  1  0  0  0  0
 21 38  1  0  0  0  0
 21 39  1  0  0  0  0
 23 24  1  0  0  0  0
 23 28  1  0  0  0  0
 23 40  1  0  0  0  0
 24 25  1  0  0  0  0
 24 41  1  0  0  0  0
 24 42  1  0  0  0  0
 25 26  1  0  0  0  0
 25 43  1  0  0  0  0
 25 44  1  0  0  0  0
 26 27  1  0  0  0  0
 26 45  1  0  0  0  0
 26 46  1  0  0  0  0
 27 28  1  0  0  0  0
 27 47  1  0  0  0  0
 27 48  1  0  0  0  0
 28 49  1  0  0  0  0
 28 50  1  0  0  0  0
M  END
>  <DRUGBANK_ID>
DB07685

>  <COMMON_NAME>
4-{[5-(CYCLOHEXYLMETHOXY)[1,2,4]TRIAZOLO[1,5-A]PYRIMIDIN-7-YL]AMINO}BENZENESULFONAMIDE

$$$$
