
 OpenBabel10282417072D

 38 40  0  0  1  0  0  0  0  0999 V2000
   -2.4761    0.8249    0.0000 C   0  0  0  0  0  0  0  0  0  0  0  0
   -1.7617    1.2374    0.0000 C   0  0  0  0  0  0  0  0  0  0  0  0
   -1.0473    0.8249    0.0000 C   0  0  0  0  0  0  0  0  0  0  0  0
   -0.3327    1.2374    0.0000 C   0  0  0  0  0  0  0  0  0  0  0  0
   -0.3327    2.0624    0.0000 C   0  0  0  0  0  0  0  0  0  0  0  0
   -1.0473    2.4749    0.0000 C   0  0  0  0  0  0  0  0  0  0  0  0
   -1.7617    2.0624    0.0000 C   0  0  0  0  0  0  0  0  0  0  0  0
   -1.0473    3.2999    0.0000 F   0  0  0  0  0  0  0  0  0  0  0  0
    0.3817    0.8249    0.0000 O   0  0  0  0  0  0  0  0  0  0  0  0
    0.3817    0.0000    0.0000 C   0  0  0  0  0  0  0  0  0  0  0  0
    1.0961   -0.4125    0.0000 C   0  0  0  0  0  0  0  0  0  0  0  0
    1.8807   -0.1575    0.0000 C   0  0  2  0  0  0  0  0  0  0  0  0
    2.3657   -0.8250    0.0000 C   0  0  2  0  0  0  0  0  0  0  0  0
    1.8807   -1.4924    0.0000 C   0  0  2  0  0  0  0  0  0  0  0  0
    1.0961   -1.2375    0.0000 C   0  0  0  0  0  0  0  0  0  0  0  0
    0.3817   -1.6500    0.0000 C   0  0  0  0  0  0  0  0  0  0  0  0
   -0.3327   -1.2375    0.0000 C   0  0  0  0  0  0  0  0  0  0  0  0
   -0.3327   -0.4125    0.0000 C   0  0  0  0  0  0  0  0  0  0  0  0
    0.3817   -2.4750    0.0000 S   0  0  0  0  0  0  0  0  0  0  0  0
   -0.4432   -2.4750    0.0000 O   0  0  0  0  0  0  0  0  0  0  0  0
    1.2067   -2.4750    0.0000 O   0  0  0  0  0  0  0  0  0  0  0  0
    0.3817   -3.3000    0.0000 C   0  0  0  0  0  0  0  0  0  0  0  0
    2.1357   -2.2771    0.0000 O   0  0  0  0  0  0  0  0  0  0  0  0
    3.1907   -0.8250    0.0000 F   0  0  0  0  0  0  0  0  0  0  0  0
    2.1357    0.6270    0.0000 F   0  0  0  0  0  0  0  0  0  0  0  0
   -3.1907    0.4124    0.0000 N   0  0  0  0  0  0  0  0  0  0  0  0
   -1.0474   -0.2071    0.0000 H   0  0  0  0  0  0  0  0  0  0  0  0
    0.5610    2.5784    0.0000 H   0  0  0  0  0  0  0  0  0  0  0  0
   -2.6554    2.5784    0.0000 H   0  0  0  0  0  0  0  0  0  0  0  0
    1.1241    0.5991    0.0000 H   0  0  0  0  0  0  0  0  0  0  0  0
    2.8515    0.1284    0.0000 H   0  0  0  0  0  0  0  0  0  0  0  0
    2.9375   -1.6598    0.0000 H   0  0  0  0  0  0  0  0  0  0  0  0
   -1.2264   -1.7535    0.0000 H   0  0  0  0  0  0  0  0  0  0  0  0
   -1.2264    0.1035    0.0000 H   0  0  0  0  0  0  0  0  0  0  0  0
   -0.5449   -3.8350    0.0000 H   0  0  0  0  0  0  0  0  0  0  0  0
    1.3083   -3.8350    0.0000 H   0  0  0  0  0  0  0  0  0  0  0  0
    0.3817   -4.3700    0.0000 H   0  0  0  0  0  0  0  0  0  0  0  0
    1.4867   -2.9980    0.0000 H   0  0  0  0  0  0  0  0  0  0  0  0
  1  2  1  0  0  0  0
  1 26  3  0  0  0  0
  2  3  1  0  0  0  0
  2  7  2  0  0  0  0
  3  4  2  0  0  0  0
  3 27  1  0  0  0  0
  4  5  1  0  0  0  0
  4  9  1  0  0  0  0
  5  6  2  0  0  0  0
  5 28  1  0  0  0  0
  6  7  1  0  0  0  0
  6  8  1  0  0  0  0
  7 29  1  0  0  0  0
  9 10  1  0  0  0  0
 10 18  2  0  0  0  0
 11 10  1  0  0  0  0
 11 15  2  0  0  0  0
 12 11  1  0  0  0  0
 12 25  1  0  0  0  0
 12 30  1  6  0  0  0
 13 12  1  0  0  0  0
 13 24  1  0  0  0  0
 13 31  1  6  0  0  0
 14 13  1  0  0  0  0
 14 15  1  0  0  0  0
 14 23  1  0  0  0  0
 14 32  1  6  0  0  0
 16 15  1  0  0  0  0
 16 19  1  0  0  0  0
 17 16  2  0  0  0  0
 17 33  1  0  0  0  0
 18 17  1  0  0  0  0
 18 34  1  0  0  0  0
 19 20  2  0  0  0  0
 19 21  2  0  0  0  0
 19 22  1  0  0  0  0
 22 35  1  0  0  0  0
 22 36  1  0  0  0  0
 22 37  1  0  0  0  0
 23 38  1  0  0  0  0
M  END
>  <DRUGBANK_ID>
DB15463

>  <COMMON_NAME>
Belzutifan

>  <CAS_NUMBER>
1672668-24-4

>  <UNII>
7K28NB895L

>  <SYNONYMS>
Belzutifan

$$$$
