BYS
 OpenBabel10282417072D

 43 45  0  0  0  0  0  0  0  0999 V2000
   -0.7354    0.2029    0.0000 C   0  0  1  0  0  0  0  0  0  0  0  0
   -0.7354    1.0279    0.0000 C   0  0  0  0  0  0  0  0  0  0  0  0
   -0.0209    1.4404    0.0000 O   0  0  0  0  0  0  0  0  0  0  0  0
   -1.4498    1.4404    0.0000 O   0  0  0  0  0  0  0  0  0  0  0  0
   -1.4498   -0.2096    0.0000 C   0  0  0  0  0  0  0  0  0  0  0  0
   -2.1643    0.2029    0.0000 C   0  0  0  0  0  0  0  0  0  0  0  0
   -2.8788   -0.2096    0.0000 C   0  0  0  0  0  0  0  0  0  0  0  0
   -3.5932    0.2029    0.0000 C   0  0  0  0  0  0  0  0  0  0  0  0
   -3.5932    1.0279    0.0000 C   0  0  0  0  0  0  0  0  0  0  0  0
   -2.8788    1.4404    0.0000 C   0  0  0  0  0  0  0  0  0  0  0  0
   -2.1643    1.0279    0.0000 C   0  0  0  0  0  0  0  0  0  0  0  0
   -0.0209   -0.2096    0.0000 C   0  0  1  0  0  0  0  0  0  0  0  0
   -0.0209   -1.0346    0.0000 C   0  0  0  0  0  0  0  0  0  0  0  0
    0.6936   -1.4471    0.0000 O   0  0  0  0  0  0  0  0  0  0  0  0
   -0.7354   -1.4471    0.0000 O   0  0  0  0  0  0  0  0  0  0  0  0
    0.6936    0.2029    0.0000 C   0  0  0  0  0  0  0  0  0  0  0  0
    1.4081   -0.2096    0.0000 C   0  0  0  0  0  0  0  0  0  0  0  0
    2.1225    0.2029    0.0000 C   0  0  0  0  0  0  0  0  0  0  0  0
    2.8370   -0.2096    0.0000 C   0  0  0  0  0  0  0  0  0  0  0  0
    3.6216    0.0453    0.0000 O   0  0  0  0  0  0  0  0  0  0  0  0
    4.1065   -0.6221    0.0000 C   0  0  0  0  0  0  0  0  0  0  0  0
    3.6216   -1.2896    0.0000 O   0  0  0  0  0  0  0  0  0  0  0  0
    2.8370   -1.0346    0.0000 C   0  0  0  0  0  0  0  0  0  0  0  0
    2.1225   -1.4471    0.0000 C   0  0  0  0  0  0  0  0  0  0  0  0
    1.4081   -1.0346    0.0000 C   0  0  0  0  0  0  0  0  0  0  0  0
   -1.2410    0.4948    0.0000 H   0  0  0  0  0  0  0  0  0  0  0  0
   -0.5266   -0.5016    0.0000 H   0  0  0  0  0  0  0  0  0  0  0  0
   -1.4498    2.3774    0.0000 H   0  0  0  0  0  0  0  0  0  0  0  0
   -1.4498   -1.2796    0.0000 H   0  0  0  0  0  0  0  0  0  0  0  0
   -2.3764   -0.7446    0.0000 H   0  0  0  0  0  0  0  0  0  0  0  0
   -2.8788   -1.2416    0.0000 H   0  0  0  0  0  0  0  0  0  0  0  0
   -4.4869   -0.3131    0.0000 H   0  0  0  0  0  0  0  0  0  0  0  0
   -4.4869    1.5439    0.0000 H   0  0  0  0  0  0  0  0  0  0  0  0
   -2.8788    2.4724    0.0000 H   0  0  0  0  0  0  0  0  0  0  0  0
   -1.2706    1.5439    0.0000 H   0  0  0  0  0  0  0  0  0  0  0  0
   -1.5469   -0.9786    0.0000 H   0  0  0  0  0  0  0  0  0  0  0  0
    0.6936    1.2729    0.0000 H   0  0  0  0  0  0  0  0  0  0  0  0
    1.6202    0.7379    0.0000 H   0  0  0  0  0  0  0  0  0  0  0  0
    2.1225    1.2349    0.0000 H   0  0  0  0  0  0  0  0  0  0  0  0
    5.1765   -0.6221    0.0000 H   0  0  0  0  0  0  0  0  0  0  0  0
    4.5923   -1.5755    0.0000 H   0  0  0  0  0  0  0  0  0  0  0  0
    2.1225   -2.4791    0.0000 H   0  0  0  0  0  0  0  0  0  0  0  0
    0.5144   -1.5506    0.0000 H   0  0  0  0  0  0  0  0  0  0  0  0
  1  2  1  0  0  0  0
  1  5  1  0  0  0  0
  1 12  1  0  0  0  0
  1 26  1  1  0  0  0
  2  3  2  0  0  0  0
  2  4  1  0  0  0  0
  4 28  1  0  0  0  0
  5  6  1  0  0  0  0
  5 29  1  0  0  0  0
  5 30  1  0  0  0  0
  6  7  2  0  0  0  0
  6 11  1  0  0  0  0
  7  8  1  0  0  0  0
  7 31  1  0  0  0  0
  8  9  2  0  0  0  0
  8 32  1  0  0  0  0
  9 10  1  0  0  0  0
  9 33  1  0  0  0  0
 10 11  2  0  0  0  0
 10 34  1  0  0  0  0
 11 35  1  0  0  0  0
 12 13  1  0  0  0  0
 12 16  1  0  0  0  0
 12 27  1  1  0  0  0
 13 14  2  0  0  0  0
 13 15  1  0  0  0  0
 15 36  1  0  0  0  0
 16 17  1  0  0  0  0
 16 37  1  0  0  0  0
 16 38  1  0  0  0  0
 17 18  2  0  0  0  0
 17 25  1  0  0  0  0
 18 19  1  0  0  0  0
 18 39  1  0  0  0  0
 19 20  1  0  0  0  0
 19 23  2  0  0  0  0
 20 21  1  0  0  0  0
 21 22  1  0  0  0  0
 21 40  1  0  0  0  0
 21 41  1  0  0  0  0
 22 23  1  0  0  0  0
 23 24  1  0  0  0  0
 24 25  2  0  0  0  0
 24 42  1  0  0  0  0
 25 43  1  0  0  0  0
M  END
>  <DRUGBANK_ID>
DB02450

>  <SECONDARY_ACCESSION_NUMBERS>
EXPT00786

>  <COMMON_NAME>
2-Benzo[1,3]Dioxol-5-Ylmethyl-3-Benzyl-Succinic Acid

$$$$
