D93
 OpenBabel10282417072D

 58 62  0  0  0  0  0  0  0  0999 V2000
    2.8136    4.6536    0.0000 Cl  0  0  0  0  0  0  0  0  0  0  0  0
    2.0992    4.2411    0.0000 C   0  0  0  0  0  0  0  0  0  0  0  0
    1.3847    4.6536    0.0000 C   0  0  0  0  0  0  0  0  0  0  0  0
    0.6702    4.2411    0.0000 C   0  0  0  0  0  0  0  0  0  0  0  0
    0.6702    3.4161    0.0000 C   0  0  0  0  0  0  0  0  0  0  0  0
    0.0571    2.8641    0.0000 N   0  0  0  0  0  0  0  0  0  0  0  0
    2.0992    3.4161    0.0000 C   0  0  0  0  0  0  0  0  0  0  0  0
    1.3847    3.0036    0.0000 C   0  0  0  0  0  0  0  0  0  0  0  0
    1.2132    2.1967    0.0000 C   0  0  0  0  0  0  0  0  0  0  0  0
    0.3927    2.1104    0.0000 C   0  0  0  0  0  0  0  0  0  0  0  0
   -0.0198    1.3960    0.0000 C   0  0  0  0  0  0  0  0  0  0  0  0
   -0.8448    1.3960    0.0000 O   0  0  0  0  0  0  0  0  0  0  0  0
    0.3927    0.6815    0.0000 N   0  0  0  0  0  0  0  0  0  0  0  0
   -0.0198   -0.0330    0.0000 C   0  0  2  0  0  0  0  0  0  0  0  0
   -0.8448   -0.0330    0.0000 C   0  0  0  0  0  0  0  0  0  0  0  0
   -1.2573   -0.7475    0.0000 C   0  0  0  0  0  0  0  0  0  0  0  0
   -0.8448   -1.4619    0.0000 C   0  0  0  0  0  0  0  0  0  0  0  0
   -0.0198   -1.4619    0.0000 C   0  0  0  0  0  0  0  0  0  0  0  0
    0.3927   -0.7475    0.0000 C   0  0  1  0  0  0  0  0  0  0  0  0
    1.2177   -0.7475    0.0000 N   0  0  0  0  0  0  0  0  0  0  0  0
    1.6302   -0.0330    0.0000 C   0  0  0  0  0  0  0  0  0  0  0  0
    1.2177    0.6815    0.0000 O   0  0  0  0  0  0  0  0  0  0  0  0
    2.4552   -0.0330    0.0000 C   0  0  0  0  0  0  0  0  0  0  0  0
    2.9401    0.6345    0.0000 S   0  0  0  0  0  0  0  0  0  0  0  0
    3.7247    0.3795    0.0000 C   0  0  0  0  0  0  0  0  0  0  0  0
    4.4392    0.7920    0.0000 C   0  0  0  0  0  0  0  0  0  0  0  0
    5.1537    0.3795    0.0000 N   0  0  0  0  0  0  0  0  0  0  0  0
    5.8681    0.7920    0.0000 C   0  0  0  0  0  0  0  0  0  0  0  0
    5.1537   -0.4455    0.0000 C   0  0  0  0  0  0  0  0  0  0  0  0
    4.4392   -0.8580    0.0000 C   0  0  0  0  0  0  0  0  0  0  0  0
    3.7247   -0.4455    0.0000 C   0  0  0  0  0  0  0  0  0  0  0  0
    2.9401   -0.7004    0.0000 N   0  0  0  0  0  0  0  0  0  0  0  0
    0.5289    0.1667    0.0000 H   0  0  0  0  0  0  0  0  0  0  0  0
    0.8400   -0.3721    0.0000 H   0  0  0  0  0  0  0  0  0  0  0  0
    1.3847    5.6856    0.0000 H   0  0  0  0  0  0  0  0  0  0  0  0
   -0.2235    4.7571    0.0000 H   0  0  0  0  0  0  0  0  0  0  0  0
   -0.9059    3.0688    0.0000 H   0  0  0  0  0  0  0  0  0  0  0  0
    2.9929    2.9001    0.0000 H   0  0  0  0  0  0  0  0  0  0  0  0
    1.9038    1.4298    0.0000 H   0  0  0  0  0  0  0  0  0  0  0  0
    1.3772    0.6815    0.0000 H   0  0  0  0  0  0  0  0  0  0  0  0
   -1.3798    0.8936    0.0000 H   0  0  0  0  0  0  0  0  0  0  0  0
   -1.9148   -0.0330    0.0000 H   0  0  0  0  0  0  0  0  0  0  0  0
   -2.3273   -0.7475    0.0000 H   0  0  0  0  0  0  0  0  0  0  0  0
   -1.7923   -1.6742    0.0000 H   0  0  0  0  0  0  0  0  0  0  0  0
   -1.3798   -2.3886    0.0000 H   0  0  0  0  0  0  0  0  0  0  0  0
   -0.3098   -2.3885    0.0000 H   0  0  0  0  0  0  0  0  0  0  0  0
    0.5152   -2.3886    0.0000 H   0  0  0  0  0  0  0  0  0  0  0  0
    1.0502   -1.4619    0.0000 H   0  0  0  0  0  0  0  0  0  0  0  0
    1.7100   -1.6001    0.0000 H   0  0  0  0  0  0  0  0  0  0  0  0
    4.4392    1.8620    0.0000 H   0  0  0  0  0  0  0  0  0  0  0  0
    5.3658    1.3270    0.0000 H   0  0  0  0  0  0  0  0  0  0  0  0
    6.7948    0.2570    0.0000 H   0  0  0  0  0  0  0  0  0  0  0  0
    5.8681    1.8620    0.0000 H   0  0  0  0  0  0  0  0  0  0  0  0
    6.7947    1.3270    0.0000 H   0  0  0  0  0  0  0  0  0  0  0  0
    6.0803   -0.9805    0.0000 H   0  0  0  0  0  0  0  0  0  0  0  0
    5.1537   -1.5155    0.0000 H   0  0  0  0  0  0  0  0  0  0  0  0
    4.4392   -1.9280    0.0000 H   0  0  0  0  0  0  0  0  0  0  0  0
    3.5126   -1.3930    0.0000 H   0  0  0  0  0  0  0  0  0  0  0  0
  1  2  1  0  0  0  0
  2  7  2  0  0  0  0
  2  3  1  0  0  0  0
  3  4  2  0  0  0  0
  3 35  1  0  0  0  0
  4  5  1  0  0  0  0
  4 36  1  0  0  0  0
  5  8  2  0  0  0  0
  5  6  1  0  0  0  0
  6 10  1  0  0  0  0
  6 37  1  0  0  0  0
  7  8  1  0  0  0  0
  7 38  1  0  0  0  0
  8  9  1  0  0  0  0
  9 10  2  0  0  0  0
  9 39  1  0  0  0  0
 10 11  1  0  0  0  0
 11 12  2  0  0  0  0
 11 13  1  0  0  0  0
 13 40  1  0  0  0  0
 14 13  1  0  0  0  0
 14 19  1  0  0  0  0
 14 15  1  0  0  0  0
 14 33  1  6  0  0  0
 15 16  1  0  0  0  0
 15 41  1  0  0  0  0
 15 42  1  0  0  0  0
 16 17  1  0  0  0  0
 16 43  1  0  0  0  0
 16 44  1  0  0  0  0
 17 18  1  0  0  0  0
 17 45  1  0  0  0  0
 17 46  1  0  0  0  0
 18 19  1  0  0  0  0
 18 47  1  0  0  0  0
 18 48  1  0  0  0  0
 19 20  1  0  0  0  0
 19 34  1  1  0  0  0
 20 21  1  0  0  0  0
 20 49  1  0  0  0  0
 21 23  1  0  0  0  0
 21 22  2  0  0  0  0
 23 32  2  0  0  0  0
 23 24  1  0  0  0  0
 24 25  1  0  0  0  0
 25 26  1  0  0  0  0
 25 31  2  0  0  0  0
 26 27  1  0  0  0  0
 26 50  1  0  0  0  0
 26 51  1  0  0  0  0
 27 28  1  0  0  0  0
 27 29  1  0  0  0  0
 28 52  1  0  0  0  0
 28 53  1  0  0  0  0
 28 54  1  0  0  0  0
 29 30  1  0  0  0  0
 29 55  1  0  0  0  0
 29 56  1  0  0  0  0
 30 31  1  0  0  0  0
 30 57  1  0  0  0  0
 30 58  1  0  0  0  0
 31 32  1  0  0  0  0
M  END
>  <DRUGBANK_ID>
DB07630

>  <COMMON_NAME>
N-((1R,2R)-2-(5-CHLORO-1H-INDOLE-2-CARBOXAMIDO)CYCLOHEXYL)-5-METHYL-4,5,6,7-TETRAHYDROTHIAZOLO[5,4-C]PYRIDINE-2-CARBOXAMIDE

$$$$
