K7I
 OpenBabel10282417072D

 47 47  0  0  0  0  0  0  0  0999 V2000
    2.5133   -0.0175    0.0000 C   0  0  0  0  0  0  0  0  0  0  0  0
    3.3234    0.1384    0.0000 C   0  0  0  0  0  0  0  0  0  0  0  0
    3.8635   -0.4852    0.0000 C   0  0  0  0  0  0  0  0  0  0  0  0
    3.5934   -1.2648    0.0000 C   0  0  0  0  0  0  0  0  0  0  0  0
    2.7833   -1.4207    0.0000 C   0  0  0  0  0  0  0  0  0  0  0  0
    2.2432   -0.7970    0.0000 C   0  0  0  0  0  0  0  0  0  0  0  0
    1.4331   -0.9529    0.0000 C   0  0  0  0  0  0  0  0  0  0  0  0
    0.8930   -0.3293    0.0000 C   0  0  2  0  0  0  0  0  0  0  0  0
    0.6230    1.0739    0.0000 O   0  0  0  0  0  0  0  0  0  0  0  0
    0.0829   -0.4852    0.0000 N   0  0  0  0  0  0  0  0  0  0  0  0
   -0.4572    0.1384    0.0000 C   0  0  0  0  0  0  0  0  0  0  0  0
   -0.1872    0.9180    0.0000 O   0  0  0  0  0  0  0  0  0  0  0  0
   -1.2674   -0.0175    0.0000 C   0  0  2  0  0  0  0  0  0  0  0  0
   -1.5374   -0.7970    0.0000 C   0  0  0  0  0  0  0  0  0  0  0  0
   -1.8074    0.6062    0.0000 N   0  0  0  0  0  0  0  0  0  0  0  0
   -2.6176    0.4503    0.0000 C   0  0  0  0  0  0  0  0  0  0  0  0
   -2.8876   -0.3293    0.0000 O   0  0  0  0  0  0  0  0  0  0  0  0
   -3.1577    1.0739    0.0000 C   0  0  2  0  0  0  0  0  0  0  0  0
   -3.9678    0.9180    0.0000 C   0  0  0  0  0  0  0  0  0  0  0  0
   -2.8876    1.8534    0.0000 N   0  0  0  0  0  0  0  0  0  0  0  0
    1.1630    0.4503    0.0000 C   0  0  2  0  0  0  0  0  0  0  0  0
    1.9732    0.6062    0.0000 C   0  0  0  0  0  0  0  0  0  0  0  0
    0.7019   -0.8811    0.0000 H   0  0  0  0  0  0  0  0  0  0  0  0
   -0.8851   -0.4589    0.0000 H   0  0  0  0  0  0  0  0  0  0  0  0
   -3.3488    0.5221    0.0000 H   0  0  0  0  0  0  0  0  0  0  0  0
    0.5896    0.3399    0.0000 H   0  0  0  0  0  0  0  0  0  0  0  0
    1.8377    0.7626    0.0000 H   0  0  0  0  0  0  0  0  0  0  0  0
    3.6612    1.1136    0.0000 H   0  0  0  0  0  0  0  0  0  0  0  0
    4.8769   -0.2902    0.0000 H   0  0  0  0  0  0  0  0  0  0  0  0
    4.2690   -2.0449    0.0000 H   0  0  0  0  0  0  0  0  0  0  0  0
    2.4455   -2.3958    0.0000 H   0  0  0  0  0  0  0  0  0  0  0  0
    1.0829   -1.9640    0.0000 H   0  0  0  0  0  0  0  0  0  0  0  0
    0.3824   -1.1551    0.0000 H   0  0  0  0  0  0  0  0  0  0  0  0
    0.9406    1.9904    0.0000 H   0  0  0  0  0  0  0  0  0  0  0  0
   -0.2393   -1.4155    0.0000 H   0  0  0  0  0  0  0  0  0  0  0  0
   -2.5881   -0.9992    0.0000 H   0  0  0  0  0  0  0  0  0  0  0  0
   -0.8369   -1.6058    0.0000 H   0  0  0  0  0  0  0  0  0  0  0  0
   -1.8876   -1.8081    0.0000 H   0  0  0  0  0  0  0  0  0  0  0  0
   -1.4851    1.5364    0.0000 H   0  0  0  0  0  0  0  0  0  0  0  0
   -4.6683    1.7268    0.0000 H   0  0  0  0  0  0  0  0  0  0  0  0
   -4.3180   -0.0931    0.0000 H   0  0  0  0  0  0  0  0  0  0  0  0
   -5.0185    0.7158    0.0000 H   0  0  0  0  0  0  0  0  0  0  0  0
   -1.8860    2.0461    0.0000 H   0  0  0  0  0  0  0  0  0  0  0  0
   -3.5553    2.6245    0.0000 H   0  0  0  0  0  0  0  0  0  0  0  0
    2.6737   -0.2027    0.0000 H   0  0  0  0  0  0  0  0  0  0  0  0
    2.3235    1.6172    0.0000 H   0  0  0  0  0  0  0  0  0  0  0  0
    3.0239    0.8084    0.0000 H   0  0  0  0  0  0  0  0  0  0  0  0
  1  2  2  0  0  0  0
  1  6  1  0  0  0  0
  1 27  1  0  0  0  0
  2  3  1  0  0  0  0
  2 28  1  0  0  0  0
  3  4  2  0  0  0  0
  3 29  1  0  0  0  0
  4  5  1  0  0  0  0
  4 30  1  0  0  0  0
  5  6  2  0  0  0  0
  5 31  1  0  0  0  0
  6  7  1  0  0  0  0
  7  8  1  0  0  0  0
  7 32  1  0  0  0  0
  7 33  1  0  0  0  0
  8 10  1  0  0  0  0
  8 21  1  0  0  0  0
  8 23  1  1  0  0  0
  9 34  1  0  0  0  0
 10 11  1  0  0  0  0
 10 35  1  0  0  0  0
 11 12  2  0  0  0  0
 11 13  1  0  0  0  0
 13 14  1  0  0  0  0
 13 15  1  0  0  0  0
 13 24  1  1  0  0  0
 14 36  1  0  0  0  0
 14 37  1  0  0  0  0
 14 38  1  0  0  0  0
 15 16  1  0  0  0  0
 15 39  1  0  0  0  0
 16 17  2  0  0  0  0
 16 18  1  0  0  0  0
 18 19  1  0  0  0  0
 18 20  1  0  0  0  0
 18 25  1  1  0  0  0
 19 40  1  0  0  0  0
 19 41  1  0  0  0  0
 19 42  1  0  0  0  0
 20 43  1  0  0  0  0
 20 44  1  0  0  0  0
 21  9  1  0  0  0  0
 21 22  1  0  0  0  0
 21 26  1  1  0  0  0
 22 45  1  0  0  0  0
 22 46  1  0  0  0  0
 22 47  1  0  0  0  0
M  END
>  <DRUGBANK_ID>
DB08038

>  <COMMON_NAME>
L-alanyl-N-[(1S,2R)-1-benzyl-2-hydroxypropyl]-L-alaninamide

$$$$
