
 OpenBabel10282417072D

 57 60  0  0  1  0  0  0  0  0999 V2000
    0.1536    1.3672    0.0000 C   0  0  0  0  0  0  0  0  0  0  0  0
   -0.3984    0.7541    0.0000 C   0  0  0  0  0  0  0  0  0  0  0  0
   -0.1435   -0.0305    0.0000 C   0  0  0  0  0  0  0  0  0  0  0  0
   -0.6284   -0.6979    0.0000 C   0  0  0  0  0  0  0  0  0  0  0  0
   -0.1435   -1.3654    0.0000 N   0  0  0  0  0  0  0  0  0  0  0  0
    0.6411   -1.1104    0.0000 N   0  0  0  0  0  0  0  0  0  0  0  0
    0.6411   -0.2854    0.0000 C   0  0  0  0  0  0  0  0  0  0  0  0
    1.3556    0.1271    0.0000 N   0  0  0  0  0  0  0  0  0  0  0  0
    2.0701   -0.2854    0.0000 C   0  0  0  0  0  0  0  0  0  0  0  0
    2.0701   -1.1104    0.0000 C   0  0  0  0  0  0  0  0  0  0  0  0
    1.3556   -1.5229    0.0000 C   0  0  0  0  0  0  0  0  0  0  0  0
    1.3556   -2.3479    0.0000 N   0  0  0  0  0  0  0  0  0  0  0  0
    0.6411   -2.7604    0.0000 C   0  0  0  0  0  0  0  0  0  0  0  0
    0.6411   -3.5854    0.0000 C   0  0  0  0  0  0  0  0  0  0  0  0
    1.3556   -3.9979    0.0000 C   0  0  0  0  0  0  0  0  0  0  0  0
    1.3556   -4.8229    0.0000 C   0  0  0  0  0  0  0  0  0  0  0  0
    0.6411   -5.2354    0.0000 C   0  0  0  0  0  0  0  0  0  0  0  0
   -0.0734   -4.8229    0.0000 N   0  3  0  0  0  0  0  0  0  0  0  0
   -0.0734   -3.9979    0.0000 C   0  0  0  0  0  0  0  0  0  0  0  0
   -0.7878   -5.2354    0.0000 O   0  5  0  0  0  0  0  0  0  0  0  0
    2.7845    0.1271    0.0000 N   0  0  0  0  0  0  0  0  0  0  0  0
    2.7845    0.9521    0.0000 C   0  0  0  0  0  0  0  0  0  0  0  0
    3.4990    1.3646    0.0000 C   0  0  0  0  0  0  0  0  0  0  0  0
    4.2135    0.9521    0.0000 C   0  0  0  0  0  0  0  0  0  0  0  0
    4.2135    0.1271    0.0000 C   0  0  0  0  0  0  0  0  0  0  0  0
    3.4990   -0.2854    0.0000 C   0  0  1  0  0  0  0  0  0  0  0  0
    3.4990   -1.1104    0.0000 C   0  0  0  0  0  0  0  0  0  0  0  0
    2.7845   -1.5229    0.0000 C   0  0  0  0  0  0  0  0  0  0  0  0
    2.7845   -2.3479    0.0000 O   0  0  0  0  0  0  0  0  0  0  0  0
    1.2002    1.1448    0.0000 H   0  0  0  0  0  0  0  0  0  0  0  0
   -0.1771    2.3848    0.0000 H   0  0  0  0  0  0  0  0  0  0  0  0
    0.8695    2.1624    0.0000 H   0  0  0  0  0  0  0  0  0  0  0  0
   -1.4450    0.9766    0.0000 H   0  0  0  0  0  0  0  0  0  0  0  0
   -1.1144   -0.0411    0.0000 H   0  0  0  0  0  0  0  0  0  0  0  0
   -1.6604   -0.6979    0.0000 H   0  0  0  0  0  0  0  0  0  0  0  0
    2.9638   -1.6264    0.0000 H   0  0  0  0  0  0  0  0  0  0  0  0
    2.2082   -2.8402    0.0000 H   0  0  0  0  0  0  0  0  0  0  0  0
   -0.2855   -2.2254    0.0000 H   0  0  0  0  0  0  0  0  0  0  0  0
   -0.2855   -3.2954    0.0000 H   0  0  0  0  0  0  0  0  0  0  0  0
    2.2493   -3.4819    0.0000 H   0  0  0  0  0  0  0  0  0  0  0  0
    2.2493   -5.3389    0.0000 H   0  0  0  0  0  0  0  0  0  0  0  0
    0.6411   -6.2674    0.0000 H   0  0  0  0  0  0  0  0  0  0  0  0
   -0.9671   -3.4819    0.0000 H   0  0  0  0  0  0  0  0  0  0  0  0
    1.8579    1.4871    0.0000 H   0  0  0  0  0  0  0  0  0  0  0  0
    2.7845    2.0221    0.0000 H   0  0  0  0  0  0  0  0  0  0  0  0
    3.4990    2.4346    0.0000 H   0  0  0  0  0  0  0  0  0  0  0  0
    4.4256    1.8996    0.0000 H   0  0  0  0  0  0  0  0  0  0  0  0
    5.1401    1.4871    0.0000 H   0  0  0  0  0  0  0  0  0  0  0  0
    5.1401    0.4171    0.0000 H   0  0  0  0  0  0  0  0  0  0  0  0
    5.1401   -0.4079    0.0000 H   0  0  0  0  0  0  0  0  0  0  0  0
    4.2135   -0.9429    0.0000 H   0  0  0  0  0  0  0  0  0  0  0  0
    4.4256   -0.8204    0.0000 H   0  0  0  0  0  0  0  0  0  0  0  0
    4.4256   -1.6454    0.0000 H   0  0  0  0  0  0  0  0  0  0  0  0
    3.4990   -2.1804    0.0000 H   0  0  0  0  0  0  0  0  0  0  0  0
    1.8579   -0.9879    0.0000 H   0  0  0  0  0  0  0  0  0  0  0  0
    1.8579   -2.0579    0.0000 H   0  0  0  0  0  0  0  0  0  0  0  0
    1.9445   -2.8329    0.0000 H   0  0  0  0  0  0  0  0  0  0  0  0
  1  2  1  0  0  0  0
  1 30  1  0  0  0  0
  1 31  1  0  0  0  0
  1 32  1  0  0  0  0
  2  3  1  0  0  0  0
  2 33  1  0  0  0  0
  2 34  1  0  0  0  0
  3  4  1  0  0  0  0
  3  7  2  0  0  0  0
  4  5  2  0  0  0  0
  4 35  1  0  0  0  0
  5  6  1  0  0  0  0
  6  7  1  0  0  0  0
  6 11  1  0  0  0  0
  7  8  1  0  0  0  0
  8  9  2  0  0  0  0
  9 10  1  0  0  0  0
  9 21  1  0  0  0  0
 10 11  2  0  0  0  0
 10 36  1  0  0  0  0
 11 12  1  0  0  0  0
 12 13  1  0  0  0  0
 12 37  1  0  0  0  0
 13 14  1  0  0  0  0
 13 38  1  0  0  0  0
 13 39  1  0  0  0  0
 14 15  2  0  0  0  0
 14 19  1  0  0  0  0
 15 16  1  0  0  0  0
 15 40  1  0  0  0  0
 16 17  2  0  0  0  0
 16 41  1  0  0  0  0
 17 18  1  0  0  0  0
 17 42  1  0  0  0  0
 18 19  2  0  0  0  0
 18 20  1  0  0  0  0
 19 43  1  0  0  0  0
 21 22  1  0  0  0  0
 21 26  1  0  0  0  0
 22 23  1  0  0  0  0
 22 44  1  0  0  0  0
 22 45  1  0  0  0  0
 23 24  1  0  0  0  0
 23 46  1  0  0  0  0
 23 47  1  0  0  0  0
 24 25  1  0  0  0  0
 24 48  1  0  0  0  0
 24 49  1  0  0  0  0
 25 26  1  0  0  0  0
 25 50  1  0  0  0  0
 25 51  1  0  0  0  0
 26 27  1  0  0  0  0
 26 52  1  6  0  0  0
 27 28  1  0  0  0  0
 27 53  1  0  0  0  0
 27 54  1  0  0  0  0
 28 29  1  0  0  0  0
 28 55  1  0  0  0  0
 28 56  1  0  0  0  0
 29 57  1  0  0  0  0
M  CHG  2  18   1  20  -1
M  END
>  <DRUGBANK_ID>
DB12021

>  <COMMON_NAME>
Dinaciclib

>  <CAS_NUMBER>
779353-01-4

>  <UNII>
4V8ECV0NBQ

>  <SYNONYMS>
Dinaciclib

$$$$
