
 OpenBabel10282417072D

 23 23  0  0  0  0  0  0  0  0999 V2000
    0.0000    0.4125    0.0000 C   0  0  0  0  0  0  0  0  0  0  0  0
    0.7144    0.0000    0.0000 C   0  0  2  0  0  0  0  0  0  0  0  0
   -0.7144    0.0000    0.0000 C   0  0  0  0  0  0  0  0  0  0  0  0
   -1.4289   -1.2374    0.0000 C   0  0  0  0  0  0  0  0  0  0  0  0
   -2.1433   -0.8250    0.0000 C   0  0  0  0  0  0  0  0  0  0  0  0
   -2.1433    0.0000    0.0000 C   0  0  0  0  0  0  0  0  0  0  0  0
   -1.4289    0.4125    0.0000 C   0  0  0  0  0  0  0  0  0  0  0  0
   -0.7144   -0.8250    0.0000 C   0  0  0  0  0  0  0  0  0  0  0  0
    0.7144   -0.8250    0.0000 N   0  0  0  0  0  0  0  0  0  0  0  0
    1.4289    0.4125    0.0000 C   0  0  0  0  0  0  0  0  0  0  0  0
    2.1433    0.0000    0.0000 O   0  0  0  0  0  0  0  0  0  0  0  0
    1.4289    1.2374    0.0000 O   0  0  0  0  0  0  0  0  0  0  0  0
    0.0000    1.4825    0.0000 H   0  0  0  0  0  0  0  0  0  0  0  0
   -0.9267    0.9475    0.0000 H   0  0  0  0  0  0  0  0  0  0  0  0
   -0.2123   -0.5350    0.0000 H   0  0  0  0  0  0  0  0  0  0  0  0
   -1.4289   -2.2694    0.0000 H   0  0  0  0  0  0  0  0  0  0  0  0
   -3.0370   -1.3410    0.0000 H   0  0  0  0  0  0  0  0  0  0  0  0
   -3.0370    0.5160    0.0000 H   0  0  0  0  0  0  0  0  0  0  0  0
   -1.4289    1.4445    0.0000 H   0  0  0  0  0  0  0  0  0  0  0  0
    0.1793   -1.3411    0.0000 H   0  0  0  0  0  0  0  0  0  0  0  0
   -0.1689   -1.3350    0.0000 H   0  0  0  0  0  0  0  0  0  0  0  0
    1.5977   -1.3350    0.0000 H   0  0  0  0  0  0  0  0  0  0  0  0
    2.1433   -0.9370    0.0000 H   0  0  0  0  0  0  0  0  0  0  0  0
  1  2  1  0  0  0  0
  1 13  1  0  0  0  0
  1 14  1  0  0  0  0
  2 10  1  0  0  0  0
  2  9  1  0  0  0  0
  2 15  1  6  0  0  0
  3  1  1  0  0  0  0
  3  7  2  0  0  0  0
  3  8  1  0  0  0  0
  4  8  2  0  0  0  0
  4 16  1  0  0  0  0
  5  4  1  0  0  0  0
  5 17  1  0  0  0  0
  6  5  2  0  0  0  0
  6 18  1  0  0  0  0
  7  6  1  0  0  0  0
  7 19  1  0  0  0  0
  8 20  1  0  0  0  0
  9 21  1  0  0  0  0
  9 22  1  0  0  0  0
 11 10  1  0  0  0  0
 11 23  1  0  0  0  0
 12 10  2  0  0  0  0
M  END
>  <DRUGBANK_ID>
DB00120

>  <SECONDARY_ACCESSION_NUMBERS>
NUTR00044

>  <COMMON_NAME>
Phenylalanine

>  <CAS_NUMBER>
63-91-2

>  <UNII>
47E5O17Y3R

>  <SYNONYMS>
(S)-2-Amino-3-phenylpropionic acid; (S)-alpha-Amino-beta-phenylpropionic acid; 3-phenyl-L-alanine; beta-Phenyl-L-alanine; F; Fenilalanina; L-Phenylalanine; Phe; Phenylalanine; Phenylalaninum; Î²-phenyl-L-alanine

$$$$
