ZYS
 OpenBabel10282417072D

 36 37  0  0  0  0  0  0  0  0999 V2000
   -1.4657    2.5112    0.0000 C   0  0  0  0  0  0  0  0  0  0  0  0
   -0.7513    2.0987    0.0000 C   0  0  0  0  0  0  0  0  0  0  0  0
   -1.1638    1.3842    0.0000 C   0  0  0  0  0  0  0  0  0  0  0  0
   -0.3388    2.8132    0.0000 C   0  0  0  0  0  0  0  0  0  0  0  0
   -0.0368    1.6862    0.0000 N   0  0  0  0  0  0  0  0  0  0  0  0
   -0.0368    0.8612    0.0000 C   0  0  0  0  0  0  0  0  0  0  0  0
    0.6306    0.3763    0.0000 S   0  0  0  0  0  0  0  0  0  0  0  0
   -0.7042    0.3763    0.0000 N   0  0  0  0  0  0  0  0  0  0  0  0
   -0.4493   -0.4083    0.0000 C   0  0  0  0  0  0  0  0  0  0  0  0
   -0.9342   -1.0758    0.0000 N   0  0  0  0  0  0  0  0  0  0  0  0
    0.3757   -0.4083    0.0000 C   0  0  0  0  0  0  0  0  0  0  0  0
    0.8606   -1.0758    0.0000 C   0  0  0  0  0  0  0  0  0  0  0  0
    1.6811   -0.9895    0.0000 O   0  0  0  0  0  0  0  0  0  0  0  0
    0.5251   -1.8295    0.0000 C   0  0  0  0  0  0  0  0  0  0  0  0
    1.0100   -2.4969    0.0000 C   0  0  0  0  0  0  0  0  0  0  0  0
    0.6744   -3.2506    0.0000 C   0  0  0  0  0  0  0  0  0  0  0  0
   -0.1460   -3.3368    0.0000 C   0  0  0  0  0  0  0  0  0  0  0  0
   -0.6310   -2.6694    0.0000 C   0  0  0  0  0  0  0  0  0  0  0  0
   -0.2954   -1.9157    0.0000 C   0  0  0  0  0  0  0  0  0  0  0  0
   -1.4657    3.5812    0.0000 H   0  0  0  0  0  0  0  0  0  0  0  0
   -2.3924    1.9762    0.0000 H   0  0  0  0  0  0  0  0  0  0  0  0
   -2.3923    3.0462    0.0000 H   0  0  0  0  0  0  0  0  0  0  0  0
   -2.2338    1.3842    0.0000 H   0  0  0  0  0  0  0  0  0  0  0  0
   -0.6288    0.4576    0.0000 H   0  0  0  0  0  0  0  0  0  0  0  0
   -1.6988    0.4575    0.0000 H   0  0  0  0  0  0  0  0  0  0  0  0
    0.7312    2.8132    0.0000 H   0  0  0  0  0  0  0  0  0  0  0  0
   -0.8738    3.7398    0.0000 H   0  0  0  0  0  0  0  0  0  0  0  0
    0.1962    3.7399    0.0000 H   0  0  0  0  0  0  0  0  0  0  0  0
    0.8158    2.1785    0.0000 H   0  0  0  0  0  0  0  0  0  0  0  0
   -1.9133   -0.9730    0.0000 H   0  0  0  0  0  0  0  0  0  0  0  0
   -0.5337   -1.9752    0.0000 H   0  0  0  0  0  0  0  0  0  0  0  0
    2.0363   -2.3890    0.0000 H   0  0  0  0  0  0  0  0  0  0  0  0
    1.2810   -4.0855    0.0000 H   0  0  0  0  0  0  0  0  0  0  0  0
   -0.5657   -4.2796    0.0000 H   0  0  0  0  0  0  0  0  0  0  0  0
   -1.6573   -2.7773    0.0000 H   0  0  0  0  0  0  0  0  0  0  0  0
   -0.9020   -1.0808    0.0000 H   0  0  0  0  0  0  0  0  0  0  0  0
  1  2  1  0  0  0  0
  1 20  1  0  0  0  0
  1 21  1  0  0  0  0
  1 22  1  0  0  0  0
  2  3  1  0  0  0  0
  2  4  1  0  0  0  0
  2  5  1  0  0  0  0
  3 23  1  0  0  0  0
  3 24  1  0  0  0  0
  3 25  1  0  0  0  0
  4 26  1  0  0  0  0
  4 27  1  0  0  0  0
  4 28  1  0  0  0  0
  5  6  1  0  0  0  0
  5 29  1  0  0  0  0
  6  7  1  0  0  0  0
  6  8  2  0  0  0  0
  7 11  1  0  0  0  0
  8  9  1  0  0  0  0
  9 10  1  0  0  0  0
  9 11  2  0  0  0  0
 10 30  1  0  0  0  0
 10 31  1  0  0  0  0
 11 12  1  0  0  0  0
 12 13  2  0  0  0  0
 12 14  1  0  0  0  0
 14 15  1  0  0  0  0
 14 19  2  0  0  0  0
 15 16  2  0  0  0  0
 15 32  1  0  0  0  0
 16 17  1  0  0  0  0
 16 33  1  0  0  0  0
 17 18  2  0  0  0  0
 17 34  1  0  0  0  0
 18 19  1  0  0  0  0
 18 35  1  0  0  0  0
 19 36  1  0  0  0  0
M  END
>  <DRUGBANK_ID>
DB08778

>  <COMMON_NAME>
[4-amino-2-(tert-butylamino)-1,3-thiazol-5-yl](phenyl)methanone

>  <UNII>
VVD6G32BMR

$$$$
