
 OpenBabel10282417072D

 49 51  0  0  1  0  0  0  0  0999 V2000
   -3.4236   -2.5011    0.0000 C   0  0  0  0  0  0  0  0  0  0  0  0
   -3.4236   -1.6761    0.0000 C   0  0  1  0  0  0  0  0  0  0  0  0
   -4.1381   -1.2636    0.0000 C   0  0  1  0  0  0  0  0  0  0  0  0
   -4.8525   -1.6761    0.0000 C   0  0  0  0  0  0  0  0  0  0  0  0
   -4.8525   -2.5011    0.0000 C   0  0  0  0  0  0  0  0  0  0  0  0
   -5.5670   -2.9136    0.0000 C   0  0  0  0  0  0  0  0  0  0  0  0
   -6.2815   -2.5011    0.0000 C   0  0  0  0  0  0  0  0  0  0  0  0
   -6.2815   -1.6761    0.0000 C   0  0  0  0  0  0  0  0  0  0  0  0
   -5.5670   -1.2636    0.0000 C   0  0  0  0  0  0  0  0  0  0  0  0
   -4.1381   -0.4386    0.0000 O   0  0  0  0  0  0  0  0  0  0  0  0
   -2.7091   -1.2636    0.0000 N   0  0  0  0  0  0  0  0  0  0  0  0
   -1.9947   -1.6761    0.0000 C   0  0  0  0  0  0  0  0  0  0  0  0
   -1.2802   -1.2636    0.0000 C   0  0  0  0  0  0  0  0  0  0  0  0
   -0.5657   -1.6761    0.0000 N   0  0  0  0  0  0  0  0  0  0  0  0
   -0.4795   -2.4966    0.0000 C   0  0  0  0  0  0  0  0  0  0  0  0
    0.3275   -2.6681    0.0000 N   0  0  0  0  0  0  0  0  0  0  0  0
    0.7400   -1.9537    0.0000 C   0  0  0  0  0  0  0  0  0  0  0  0
    0.1880   -1.3406    0.0000 C   0  0  0  0  0  0  0  0  0  0  0  0
    0.4429   -0.5560    0.0000 C   0  0  0  0  0  0  0  0  0  0  0  0
   -0.1091    0.0571    0.0000 O   0  0  0  0  0  0  0  0  0  0  0  0
    1.2499   -0.3844    0.0000 N   0  0  0  0  0  0  0  0  0  0  0  0
    1.8019   -0.9975    0.0000 C   0  0  0  0  0  0  0  0  0  0  0  0
    2.6089   -0.8260    0.0000 O   0  0  0  0  0  0  0  0  0  0  0  0
    1.5470   -1.7821    0.0000 N   0  0  0  0  0  0  0  0  0  0  0  0
    2.0990   -2.3952    0.0000 C   0  0  0  0  0  0  0  0  0  0  0  0
    1.5048    0.4002    0.0000 C   0  0  0  0  0  0  0  0  0  0  0  0
   -4.3502   -3.0361    0.0000 H   0  0  0  0  0  0  0  0  0  0  0  0
   -2.4970   -3.0361    0.0000 H   0  0  0  0  0  0  0  0  0  0  0  0
   -3.4236   -3.5711    0.0000 H   0  0  0  0  0  0  0  0  0  0  0  0
   -4.3502   -2.2111    0.0000 H   0  0  0  0  0  0  0  0  0  0  0  0
   -3.2115   -0.7286    0.0000 H   0  0  0  0  0  0  0  0  0  0  0  0
   -3.9588   -3.0171    0.0000 H   0  0  0  0  0  0  0  0  0  0  0  0
   -5.5670   -3.9456    0.0000 H   0  0  0  0  0  0  0  0  0  0  0  0
   -7.1752   -3.0171    0.0000 H   0  0  0  0  0  0  0  0  0  0  0  0
   -7.1752   -1.1601    0.0000 H   0  0  0  0  0  0  0  0  0  0  0  0
   -5.5670   -0.2316    0.0000 H   0  0  0  0  0  0  0  0  0  0  0  0
   -3.2981    0.0464    0.0000 H   0  0  0  0  0  0  0  0  0  0  0  0
   -2.7091   -0.2436    0.0000 H   0  0  0  0  0  0  0  0  0  0  0  0
   -1.9947   -2.7461    0.0000 H   0  0  0  0  0  0  0  0  0  0  0  0
   -1.0681   -2.2111    0.0000 H   0  0  0  0  0  0  0  0  0  0  0  0
   -1.2802   -0.1936    0.0000 H   0  0  0  0  0  0  0  0  0  0  0  0
   -0.3536   -0.7286    0.0000 H   0  0  0  0  0  0  0  0  0  0  0  0
   -1.2464   -3.1871    0.0000 H   0  0  0  0  0  0  0  0  0  0  0  0
    1.7683   -3.4128    0.0000 H   0  0  0  0  0  0  0  0  0  0  0  0
    3.1456   -2.1728    0.0000 H   0  0  0  0  0  0  0  0  0  0  0  0
    2.8149   -3.1904    0.0000 H   0  0  0  0  0  0  0  0  0  0  0  0
    2.5514    0.6227    0.0000 H   0  0  0  0  0  0  0  0  0  0  0  0
    0.7888    1.1953    0.0000 H   0  0  0  0  0  0  0  0  0  0  0  0
    1.8354    1.4178    0.0000 H   0  0  0  0  0  0  0  0  0  0  0  0
  1 27  1  0  0  0  0
  1 28  1  0  0  0  0
  1 29  1  0  0  0  0
  2  1  1  0  0  0  0
  2  3  1  0  0  0  0
  2 11  1  0  0  0  0
  2 30  1  6  0  0  0
  3  4  1  0  0  0  0
  3 10  1  0  0  0  0
  3 31  1  6  0  0  0
  4  5  2  0  0  0  0
  4  9  1  0  0  0  0
  5  6  1  0  0  0  0
  5 32  1  0  0  0  0
  6  7  2  0  0  0  0
  6 33  1  0  0  0  0
  7  8  1  0  0  0  0
  7 34  1  0  0  0  0
  8  9  2  0  0  0  0
  8 35  1  0  0  0  0
  9 36  1  0  0  0  0
 10 37  1  0  0  0  0
 11 12  1  0  0  0  0
 11 38  1  0  0  0  0
 12 13  1  0  0  0  0
 12 39  1  0  0  0  0
 12 40  1  0  0  0  0
 13 14  1  0  0  0  0
 13 41  1  0  0  0  0
 13 42  1  0  0  0  0
 14 15  1  0  0  0  0
 14 18  1  0  0  0  0
 15 16  2  0  0  0  0
 15 43  1  0  0  0  0
 16 17  1  0  0  0  0
 17 18  2  0  0  0  0
 17 24  1  0  0  0  0
 18 19  1  0  0  0  0
 19 20  2  0  0  0  0
 19 21  1  0  0  0  0
 21 22  1  0  0  0  0
 21 26  1  0  0  0  0
 22 23  2  0  0  0  0
 22 24  1  0  0  0  0
 24 25  1  0  0  0  0
 25 44  1  0  0  0  0
 25 45  1  0  0  0  0
 25 46  1  0  0  0  0
 26 47  1  0  0  0  0
 26 48  1  0  0  0  0
 26 49  1  0  0  0  0
M  END
>  <DRUGBANK_ID>
DB12926

>  <COMMON_NAME>
Cafedrine

>  <CAS_NUMBER>
58166-83-9

>  <UNII>
0UYY5V4U2Q

>  <SYNONYMS>
Cafedrine

$$$$
