
 OpenBabel10282417072D

 50 54  0  0  0  0  0  0  0  0999 V2000
   -0.5123    1.0312    0.0000 C   0  0  0  0  0  0  0  0  0  0  0  0
   -1.2268    1.4437    0.0000 C   0  0  0  0  0  0  0  0  0  0  0  0
   -1.9414    1.0312    0.0000 C   0  0  3  0  0  0  0  0  0  0  0  0
   -1.9414    0.2062    0.0000 C   0  0  0  0  0  0  0  0  0  0  0  0
   -1.2268   -0.2062    0.0000 N   0  0  0  0  0  0  0  0  0  0  0  0
   -0.5124    0.2062    0.0000 C   0  0  0  0  0  0  0  0  0  0  0  0
    0.2721   -0.0487    0.0000 N   0  0  0  0  0  0  0  0  0  0  0  0
    0.7571    0.6187    0.0000 C   0  0  0  0  0  0  0  0  0  0  0  0
    0.2722    1.2861    0.0000 N   0  0  0  0  0  0  0  0  0  0  0  0
   -1.2268    2.2687    0.0000 O   0  0  0  0  0  0  0  0  0  0  0  0
   -2.6558   -0.2062    0.0000 O   0  0  0  0  0  0  0  0  0  0  0  0
   -2.6558    1.4437    0.0000 C   0  0  0  0  0  0  0  0  0  0  0  0
   -3.3703    1.0312    0.0000 C   0  0  0  0  0  0  0  0  0  0  0  0
   -4.0847    1.4437    0.0000 C   0  0  0  0  0  0  0  0  0  0  0  0
    1.5821    0.6186    0.0000 C   0  0  1  0  0  0  0  0  0  0  0  0
    2.2495    1.1036    0.0000 C   0  0  0  0  0  0  0  0  0  0  0  0
    1.8370   -0.1658    0.0000 C   0  0  2  0  0  0  0  0  0  0  0  0
    2.6620   -0.1658    0.0000 C   0  0  0  0  0  0  0  0  0  0  0  0
    2.9169    0.6186    0.0000 C   0  0  1  0  0  0  0  0  0  0  0  0
    2.7259   -0.8096    0.0000 C   0  0  1  0  0  0  0  0  0  0  0  0
    3.3093   -0.2262    0.0000 C   0  0  2  0  0  0  0  0  0  0  0  0
    3.5228   -1.0231    0.0000 O   0  0  0  0  0  0  0  0  0  0  0  0
    2.3713   -1.5545    0.0000 H   0  0  0  0  0  0  0  0  0  0  0  0
    4.0848    0.0552    0.0000 H   0  0  0  0  0  0  0  0  0  0  0  0
    3.6314    1.0311    0.0000 H   0  0  0  0  0  0  0  0  0  0  0  0
    1.1699   -0.6513    0.0000 H   0  0  0  0  0  0  0  0  0  0  0  0
   -1.2268   -1.0312    0.0000 C   0  0  0  0  0  0  0  0  0  0  0  0
   -0.5124   -1.4437    0.0000 C   0  0  0  0  0  0  0  0  0  0  0  0
   -0.5124   -2.2687    0.0000 C   0  0  0  0  0  0  0  0  0  0  0  0
   -1.0148    0.4962    0.0000 H   0  0  0  0  0  0  0  0  0  0  0  0
    0.5763   -0.9850    0.0000 H   0  0  0  0  0  0  0  0  0  0  0  0
   -2.6558    2.5137    0.0000 H   0  0  0  0  0  0  0  0  0  0  0  0
   -3.5824    1.9787    0.0000 H   0  0  0  0  0  0  0  0  0  0  0  0
   -3.3703   -0.0388    0.0000 H   0  0  0  0  0  0  0  0  0  0  0  0
   -4.2970    0.4962    0.0000 H   0  0  0  0  0  0  0  0  0  0  0  0
   -4.0847    2.5137    0.0000 H   0  0  0  0  0  0  0  0  0  0  0  0
   -5.0114    0.9087    0.0000 H   0  0  0  0  0  0  0  0  0  0  0  0
   -5.0113    1.9787    0.0000 H   0  0  0  0  0  0  0  0  0  0  0  0
    1.2515    1.6362    0.0000 H   0  0  0  0  0  0  0  0  0  0  0  0
    2.2495    2.1736    0.0000 H   0  0  0  0  0  0  0  0  0  0  0  0
    3.2029    1.5893    0.0000 H   0  0  0  0  0  0  0  0  0  0  0  0
    3.2909   -1.0315    0.0000 H   0  0  0  0  0  0  0  0  0  0  0  0
    3.7188    0.0016    0.0000 H   0  0  0  0  0  0  0  0  0  0  0  0
   -2.1535   -1.5662    0.0000 H   0  0  0  0  0  0  0  0  0  0  0  0
   -1.2268   -2.1012    0.0000 H   0  0  0  0  0  0  0  0  0  0  0  0
    0.4143   -0.9087    0.0000 H   0  0  0  0  0  0  0  0  0  0  0  0
    0.4142   -1.9787    0.0000 H   0  0  0  0  0  0  0  0  0  0  0  0
   -1.4390   -2.8037    0.0000 H   0  0  0  0  0  0  0  0  0  0  0  0
    0.4142   -2.8037    0.0000 H   0  0  0  0  0  0  0  0  0  0  0  0
   -0.5124   -3.3387    0.0000 H   0  0  0  0  0  0  0  0  0  0  0  0
  1  2  1  0  0  0  0
  1  6  2  0  0  0  0
  1  9  1  0  0  0  0
  2  3  1  0  0  0  0
  2 10  2  0  0  0  0
  3  4  1  0  0  0  0
  3 12  1  0  0  0  0
  3 30  1  0  0  0  0
  4  5  1  0  0  0  0
  4 11  2  0  0  0  0
  5  6  1  0  0  0  0
  5 27  1  0  0  0  0
  6  7  1  0  0  0  0
  7  8  1  0  0  0  0
  7 31  1  0  0  0  0
  8  9  2  0  0  0  0
 12 13  1  0  0  0  0
 12 32  1  0  0  0  0
 12 33  1  0  0  0  0
 13 14  1  0  0  0  0
 13 34  1  0  0  0  0
 13 35  1  0  0  0  0
 14 36  1  0  0  0  0
 14 37  1  0  0  0  0
 14 38  1  0  0  0  0
 15  8  1  0  0  0  0
 15 17  1  0  0  0  0
 15 39  1  6  0  0  0
 16 15  1  0  0  0  0
 16 19  1  0  0  0  0
 16 40  1  0  0  0  0
 16 41  1  0  0  0  0
 17 18  1  0  0  0  0
 17 20  1  0  0  0  0
 17 26  1  1  0  0  0
 18 19  1  0  0  0  0
 18 42  1  0  0  0  0
 18 43  1  0  0  0  0
 19 25  1  1  0  0  0
 20 22  1  0  0  0  0
 20 23  1  6  0  0  0
 21 19  1  0  0  0  0
 21 20  1  0  0  0  0
 21 24  1  6  0  0  0
 22 21  1  0  0  0  0
 27 28  1  0  0  0  0
 27 44  1  0  0  0  0
 27 45  1  0  0  0  0
 28 29  1  0  0  0  0
 28 46  1  0  0  0  0
 28 47  1  0  0  0  0
 29 48  1  0  0  0  0
 29 49  1  0  0  0  0
 29 50  1  0  0  0  0
M  END
>  <DRUGBANK_ID>
DB06471

>  <COMMON_NAME>
Naxifylline

>  <CAS_NUMBER>
166374-49-8

>  <UNII>
B3G45WC37L

>  <SYNONYMS>
8-((2S,5,6-exo)-5,6-epoxy-2-norbonyl)-1,3-dipropylxanthine; Naxifylline

$$$$
