
 OpenBabel10282417072D

121128  0  0  1  0  0  0  0  0999 V2000
    6.5521    6.3331    0.0000 C   0  0  0  0  0  0  0  0  0  0  0  0
    5.7384    6.1971    0.0000 C   0  0  0  0  0  0  0  0  0  0  0  0
    5.2138    6.8338    0.0000 C   0  0  0  0  0  0  0  0  0  0  0  0
    5.4494    5.4244    0.0000 N   0  0  0  0  0  0  0  0  0  0  0  0
    4.6357    5.2884    0.0000 C   0  0  0  0  0  0  0  0  0  0  0  0
    4.2674    4.5501    0.0000 N   0  0  0  0  0  0  0  0  0  0  0  0
    3.4515    4.6722    0.0000 C   0  0  0  0  0  0  0  0  0  0  0  0
    3.3155    5.4859    0.0000 C   0  0  0  0  0  0  0  0  0  0  0  0
    4.0473    5.8667    0.0000 S   0  0  0  0  0  0  0  0  0  0  0  0
    2.8731    4.0839    0.0000 C   0  0  0  0  0  0  0  0  0  0  0  0
    3.0934    3.2889    0.0000 C   0  0  0  0  0  0  0  0  0  0  0  0
    2.5151    2.7005    0.0000 C   0  0  0  0  0  0  0  0  0  0  0  0
    1.7164    2.9073    0.0000 C   0  0  0  0  0  0  0  0  0  0  0  0
    1.1380    2.3189    0.0000 C   0  0  0  0  0  0  0  0  0  0  0  0
    0.3393    2.5257    0.0000 C   0  0  0  0  0  0  0  0  0  0  0  0
    0.1190    3.3207    0.0000 C   0  0  0  0  0  0  0  0  0  0  0  0
    0.6974    3.9090    0.0000 C   0  0  0  0  0  0  0  0  0  0  0  0
    1.4961    3.7023    0.0000 C   0  0  0  0  0  0  0  0  0  0  0  0
    2.0744    4.2906    0.0000 N   0  0  0  0  0  0  0  0  0  0  0  0
    0.4771    4.7041    0.0000 Cl  0  0  0  0  0  0  0  0  0  0  0  0
   -0.6797    3.5274    0.0000 O   0  0  0  0  0  0  0  0  0  0  0  0
   -0.9000    4.3225    0.0000 C   0  0  0  0  0  0  0  0  0  0  0  0
    2.7354    1.9055    0.0000 O   0  0  0  0  0  0  0  0  0  0  0  0
    3.5341    1.6988    0.0000 C   0  0  2  0  0  0  0  0  0  0  0  0
    4.1708    2.2234    0.0000 C   0  0  0  0  0  0  0  0  0  0  0  0
    4.8665    1.7800    0.0000 C   0  0  1  0  0  0  0  0  0  0  0  0
    5.6615    2.0003    0.0000 C   0  0  0  0  0  0  0  0  0  0  0  0
    5.8682    2.7990    0.0000 O   0  0  0  0  0  0  0  0  0  0  0  0
    6.2498    1.4220    0.0000 N   0  0  0  0  0  0  0  0  0  0  0  0
    7.0449    1.6423    0.0000 C   0  0  2  0  0  0  0  0  0  0  0  0
    7.8399    1.8626    0.0000 C   0  0  0  0  0  0  0  0  0  0  0  0
    7.6332    1.0639    0.0000 C   0  0  1  0  0  0  0  0  0  0  0  0
    7.4265    0.2652    0.0000 C   0  0  0  0  0  0  0  0  0  0  0  0
    8.0148   -0.3131    0.0000 C   0  0  0  0  0  0  0  0  0  0  0  0
    7.8081   -1.1118    0.0000 C   0  0  0  0  0  0  0  0  0  0  0  0
    6.9493   -1.3904    0.0000 C   0  0  0  0  0  0  0  0  0  0  0  0
    6.5059   -2.0862    0.0000 C   0  0  0  0  0  0  0  0  0  0  0  0
    5.7073   -1.8794    0.0000 C   0  0  0  0  0  0  0  0  0  0  0  0
    5.6571   -1.0560    0.0000 C   0  0  0  0  0  0  0  0  0  0  0  0
    5.0414   -0.3957    0.0000 C   0  0  1  0  0  0  0  0  0  0  0  0
    5.2481    0.4030    0.0000 C   0  0  0  0  0  0  0  0  0  0  0  0
    6.0431    0.6233    0.0000 O   0  0  0  0  0  0  0  0  0  0  0  0
    4.6598    0.9813    0.0000 N   0  0  0  0  0  0  0  0  0  0  0  0
    3.8363    0.9311    0.0000 C   0  0  0  0  0  0  0  0  0  0  0  0
    4.2417   -0.5987    0.0000 N   0  0  0  0  0  0  0  0  0  0  0  0
    4.0177   -1.3927    0.0000 C   0  0  0  0  0  0  0  0  0  0  0  0
    3.2181   -1.5957    0.0000 O   0  0  0  0  0  0  0  0  0  0  0  0
    4.5933   -1.9837    0.0000 O   0  0  0  0  0  0  0  0  0  0  0  0
    4.3693   -2.7777    0.0000 C   0  0  0  0  0  0  0  0  0  0  0  0
    4.8800   -3.4257    0.0000 C   0  0  0  0  0  0  0  0  0  0  0  0
    4.4216   -4.1116    0.0000 C   0  0  0  0  0  0  0  0  0  0  0  0
    3.6276   -3.8876    0.0000 C   0  0  0  0  0  0  0  0  0  0  0  0
    3.5953   -3.0632    0.0000 C   0  0  0  0  0  0  0  0  0  0  0  0
    6.8246    2.4373    0.0000 P   0  0  3  0  0  0  0  0  0  0  0  0
    7.6196    2.6576    0.0000 O   0  0  0  0  0  0  0  0  0  0  0  0
    6.6042    3.2324    0.0000 C   0  0  0  0  0  0  0  0  0  0  0  0
    7.1826    3.8207    0.0000 C   0  0  0  0  0  0  0  0  0  0  0  0
    6.9623    4.6157    0.0000 C   0  0  0  0  0  0  0  0  0  0  0  0
    7.5406    5.2040    0.0000 C   0  0  0  0  0  0  0  0  0  0  0  0
    8.3393    4.9973    0.0000 C   0  0  0  0  0  0  0  0  0  0  0  0
    8.5596    4.2023    0.0000 C   0  0  0  0  0  0  0  0  0  0  0  0
    7.9813    3.6140    0.0000 C   0  0  0  0  0  0  0  0  0  0  0  0
    8.2016    2.8189    0.0000 F   0  0  0  0  0  0  0  0  0  0  0  0
    6.1636    4.8224    0.0000 F   0  0  0  0  0  0  0  0  0  0  0  0
    6.0295    2.2170    0.0000 O   0  0  0  0  0  0  0  0  0  0  0  0
    7.2325    5.5073    0.0000 H   0  0  0  0  0  0  0  0  0  0  0  0
    6.9270    7.3353    0.0000 H   0  0  0  0  0  0  0  0  0  0  0  0
    7.6075    6.5095    0.0000 H   0  0  0  0  0  0  0  0  0  0  0  0
    4.6830    6.0207    0.0000 H   0  0  0  0  0  0  0  0  0  0  0  0
    5.5888    7.8359    0.0000 H   0  0  0  0  0  0  0  0  0  0  0  0
    4.1584    6.6575    0.0000 H   0  0  0  0  0  0  0  0  0  0  0  0
    4.5334    7.6596    0.0000 H   0  0  0  0  0  0  0  0  0  0  0  0
    6.0755    4.6646    0.0000 H   0  0  0  0  0  0  0  0  0  0  0  0
    2.3920    5.9465    0.0000 H   0  0  0  0  0  0  0  0  0  0  0  0
    4.0925    3.0304    0.0000 H   0  0  0  0  0  0  0  0  0  0  0  0
    1.4136    1.3244    0.0000 H   0  0  0  0  0  0  0  0  0  0  0  0
   -0.3842    1.7898    0.0000 H   0  0  0  0  0  0  0  0  0  0  0  0
   -0.1498    5.0855    0.0000 H   0  0  0  0  0  0  0  0  0  0  0  0
   -1.9359    4.5906    0.0000 H   0  0  0  0  0  0  0  0  0  0  0  0
   -1.1857    5.3537    0.0000 H   0  0  0  0  0  0  0  0  0  0  0  0
    3.3027    2.7435    0.0000 H   0  0  0  0  0  0  0  0  0  0  0  0
    4.1057    3.2914    0.0000 H   0  0  0  0  0  0  0  0  0  0  0  0
    5.0929    2.7663    0.0000 H   0  0  0  0  0  0  0  0  0  0  0  0
    3.8709    1.3880    0.0000 H   0  0  0  0  0  0  0  0  0  0  0  0
    6.0031    0.4689    0.0000 H   0  0  0  0  0  0  0  0  0  0  0  0
    8.5900    2.6256    0.0000 H   0  0  0  0  0  0  0  0  0  0  0  0
    8.7711    1.3355    0.0000 H   0  0  0  0  0  0  0  0  0  0  0  0
    7.3475    2.0950    0.0000 H   0  0  0  0  0  0  0  0  0  0  0  0
    6.3954   -0.0206    0.0000 H   0  0  0  0  0  0  0  0  0  0  0  0
    7.1584   -0.7707    0.0000 H   0  0  0  0  0  0  0  0  0  0  0  0
    9.0459   -0.0273    0.0000 H   0  0  0  0  0  0  0  0  0  0  0  0
    8.7779   -1.0632    0.0000 H   0  0  0  0  0  0  0  0  0  0  0  0
    8.5872   -1.8452    0.0000 H   0  0  0  0  0  0  0  0  0  0  0  0
    7.5738   -2.1558    0.0000 H   0  0  0  0  0  0  0  0  0  0  0  0
    6.2945   -0.5442    0.0000 H   0  0  0  0  0  0  0  0  0  0  0  0
    5.8804   -1.4392    0.0000 H   0  0  0  0  0  0  0  0  0  0  0  0
    6.8978   -3.0818    0.0000 H   0  0  0  0  0  0  0  0  0  0  0  0
    5.7967   -2.8874    0.0000 H   0  0  0  0  0  0  0  0  0  0  0  0
    4.8815   -2.5598    0.0000 H   0  0  0  0  0  0  0  0  0  0  0  0
    4.7261   -1.4525    0.0000 H   0  0  0  0  0  0  0  0  0  0  0  0
    6.6403   -0.6337    0.0000 H   0  0  0  0  0  0  0  0  0  0  0  0
    5.8774   -0.0089    0.0000 H   0  0  0  0  0  0  0  0  0  0  0  0
    4.7397   -1.4223    0.0000 H   0  0  0  0  0  0  0  0  0  0  0  0
    3.2612    0.0288    0.0000 H   0  0  0  0  0  0  0  0  0  0  0  0
    2.7712    1.0339    0.0000 H   0  0  0  0  0  0  0  0  0  0  0  0
    3.5548    0.1066    0.0000 H   0  0  0  0  0  0  0  0  0  0  0  0
    4.0788   -3.8075    0.0000 H   0  0  0  0  0  0  0  0  0  0  0  0
    5.9492   -3.3838    0.0000 H   0  0  0  0  0  0  0  0  0  0  0  0
    5.4027   -4.3593    0.0000 H   0  0  0  0  0  0  0  0  0  0  0  0
    4.7919   -5.1155    0.0000 H   0  0  0  0  0  0  0  0  0  0  0  0
    3.6952   -4.8973    0.0000 H   0  0  0  0  0  0  0  0  0  0  0  0
    2.7872   -4.5500    0.0000 H   0  0  0  0  0  0  0  0  0  0  0  0
    2.6559   -3.4395    0.0000 H   0  0  0  0  0  0  0  0  0  0  0  0
    2.7057   -2.4687    0.0000 H   0  0  0  0  0  0  0  0  0  0  0  0
    3.7211   -2.0006    0.0000 H   0  0  0  0  0  0  0  0  0  0  0  0
    5.5683    3.5005    0.0000 H   0  0  0  0  0  0  0  0  0  0  0  0
    6.3185    4.2635    0.0000 H   0  0  0  0  0  0  0  0  0  0  0  0
    7.2650    6.1985    0.0000 H   0  0  0  0  0  0  0  0  0  0  0  0
    9.0628    5.7332    0.0000 H   0  0  0  0  0  0  0  0  0  0  0  0
    9.5587    3.9437    0.0000 H   0  0  0  0  0  0  0  0  0  0  0  0
    5.3378    2.8970    0.0000 H   0  0  0  0  0  0  0  0  0  0  0  0
  1  2  1  0  0  0  0
  1 66  1  0  0  0  0
  1 67  1  0  0  0  0
  1 68  1  0  0  0  0
  2  3  1  0  0  0  0
  2  4  1  0  0  0  0
  2 69  1  0  0  0  0
  3 70  1  0  0  0  0
  3 71  1  0  0  0  0
  3 72  1  0  0  0  0
  4  5  1  0  0  0  0
  4 73  1  0  0  0  0
  5  6  2  0  0  0  0
  5  9  1  0  0  0  0
  6  7  1  0  0  0  0
  7  8  2  0  0  0  0
  7 10  1  0  0  0  0
  8  9  1  0  0  0  0
  8 74  1  0  0  0  0
 10 11  2  0  0  0  0
 10 19  1  0  0  0  0
 11 12  1  0  0  0  0
 11 75  1  0  0  0  0
 12 13  2  0  0  0  0
 12 23  1  0  0  0  0
 13 14  1  0  0  0  0
 13 18  1  0  0  0  0
 14 15  2  0  0  0  0
 14 76  1  0  0  0  0
 15 16  1  0  0  0  0
 15 77  1  0  0  0  0
 16 17  2  0  0  0  0
 16 21  1  0  0  0  0
 17 18  1  0  0  0  0
 17 20  1  0  0  0  0
 18 19  2  0  0  0  0
 21 22  1  0  0  0  0
 22 78  1  0  0  0  0
 22 79  1  0  0  0  0
 22 80  1  0  0  0  0
 24 23  1  0  0  0  0
 24 25  1  0  0  0  0
 24 44  1  0  0  0  0
 24 81  1  1  0  0  0
 25 26  1  0  0  0  0
 25 82  1  0  0  0  0
 25 83  1  0  0  0  0
 26 27  1  0  0  0  0
 26 43  1  0  0  0  0
 26 84  1  6  0  0  0
 27 28  2  0  0  0  0
 27 29  1  0  0  0  0
 29 30  1  0  0  0  0
 29 85  1  0  0  0  0
 30 31  1  0  0  0  0
 30 32  1  0  0  0  0
 30 54  1  1  0  0  0
 31 86  1  0  0  0  0
 31 87  1  0  0  0  0
 32 31  1  0  0  0  0
 32 33  1  0  0  0  0
 32 88  1  6  0  0  0
 33 34  1  0  0  0  0
 33 89  1  0  0  0  0
 33 90  1  0  0  0  0
 34 35  1  0  0  0  0
 34 91  1  0  0  0  0
 34 92  1  0  0  0  0
 35 36  1  0  0  0  0
 35 93  1  0  0  0  0
 35 94  1  0  0  0  0
 36 37  1  0  0  0  0
 36 95  1  0  0  0  0
 36 96  1  0  0  0  0
 37 38  1  0  0  0  0
 37 97  1  0  0  0  0
 37 98  1  0  0  0  0
 38 39  1  0  0  0  0
 38 99  1  0  0  0  0
 38100  1  0  0  0  0
 39 40  1  0  0  0  0
 39101  1  0  0  0  0
 39102  1  0  0  0  0
 40 41  1  0  0  0  0
 40 45  1  0  0  0  0
 40103  1  1  0  0  0
 41 42  2  0  0  0  0
 41 43  1  0  0  0  0
 43 44  1  0  0  0  0
 44104  1  0  0  0  0
 44105  1  0  0  0  0
 45 46  1  0  0  0  0
 45106  1  0  0  0  0
 46 47  2  0  0  0  0
 46 48  1  0  0  0  0
 48 49  1  0  0  0  0
 49 50  1  0  0  0  0
 49 53  1  0  0  0  0
 49107  1  0  0  0  0
 50 51  1  0  0  0  0
 50108  1  0  0  0  0
 50109  1  0  0  0  0
 51 52  1  0  0  0  0
 51110  1  0  0  0  0
 51111  1  0  0  0  0
 52 53  1  0  0  0  0
 52112  1  0  0  0  0
 52113  1  0  0  0  0
 53114  1  0  0  0  0
 53115  1  0  0  0  0
 54 55  2  0  0  0  0
 54 56  1  0  0  0  0
 54 65  1  0  0  0  0
 56 57  1  0  0  0  0
 56116  1  0  0  0  0
 56117  1  0  0  0  0
 57 58  2  0  0  0  0
 57 62  1  0  0  0  0
 58 59  1  0  0  0  0
 58 64  1  0  0  0  0
 59 60  2  0  0  0  0
 59118  1  0  0  0  0
 60 61  1  0  0  0  0
 60119  1  0  0  0  0
 61 62  2  0  0  0  0
 61120  1  0  0  0  0
 62 63  1  0  0  0  0
 65121  1  0  0  0  0
M  END
>  <DRUGBANK_ID>
DB12876

>  <COMMON_NAME>
GS-9256

>  <CAS_NUMBER>
1001094-46-7

>  <UNII>
8V42Y78HRU

$$$$
