
 OpenBabel10282417072D

 56 60  0  0  0  0  0  0  0  0999 V2000
   -2.1262   -1.8413    0.0000 C   0  0  0  0  0  0  0  0  0  0  0  0
   -1.3057   -1.9275    0.0000 C   0  0  0  0  0  0  0  0  0  0  0  0
   -0.7537   -1.3144    0.0000 N   0  0  0  0  0  0  0  0  0  0  0  0
    0.0000   -1.6500    0.0000 N   0  0  0  0  0  0  0  0  0  0  0  0
   -0.0862   -2.4705    0.0000 C   0  0  0  0  0  0  0  0  0  0  0  0
    0.5269   -3.0225    0.0000 O   0  0  0  0  0  0  0  0  0  0  0  0
   -0.8932   -2.6420    0.0000 C   0  0  0  0  0  0  0  0  0  0  0  0
   -1.2288   -3.3957    0.0000 N   0  0  0  0  0  0  0  0  0  0  0  0
   -0.7438   -4.0631    0.0000 N   0  0  0  0  0  0  0  0  0  0  0  0
   -1.0794   -4.8168    0.0000 C   0  0  0  0  0  0  0  0  0  0  0  0
   -0.5945   -5.4842    0.0000 C   0  0  0  0  0  0  0  0  0  0  0  0
    0.2260   -5.3980    0.0000 O   0  0  0  0  0  0  0  0  0  0  0  0
   -0.9300   -6.2379    0.0000 C   0  0  0  0  0  0  0  0  0  0  0  0
   -1.7505   -6.3241    0.0000 C   0  0  0  0  0  0  0  0  0  0  0  0
   -2.2354   -5.6567    0.0000 C   0  0  0  0  0  0  0  0  0  0  0  0
   -1.8999   -4.9030    0.0000 C   0  0  0  0  0  0  0  0  0  0  0  0
   -0.4451   -6.9053    0.0000 C   0  0  0  0  0  0  0  0  0  0  0  0
    0.3799   -6.9053    0.0000 C   0  0  0  0  0  0  0  0  0  0  0  0
    0.6348   -7.6900    0.0000 C   0  0  0  0  0  0  0  0  0  0  0  0
   -0.0326   -8.1749    0.0000 C   0  0  0  0  0  0  0  0  0  0  0  0
   -0.7001   -7.6900    0.0000 O   0  0  0  0  0  0  0  0  0  0  0  0
   -0.0326   -8.9999    0.0000 C   0  0  0  0  0  0  0  0  0  0  0  0
    0.6819   -9.4124    0.0000 O   0  0  0  0  0  0  0  0  0  0  0  0
   -0.7471   -9.4124    0.0000 O   0  0  0  0  0  0  0  0  0  0  0  0
    0.7145   -1.2375    0.0000 C   0  0  0  0  0  0  0  0  0  0  0  0
    0.7145   -0.4125    0.0000 C   0  0  0  0  0  0  0  0  0  0  0  0
    1.4289    0.0000    0.0000 C   0  0  0  0  0  0  0  0  0  0  0  0
    2.1434   -0.4125    0.0000 C   0  0  0  0  0  0  0  0  0  0  0  0
    2.8579    0.0000    0.0000 C   0  0  0  0  0  0  0  0  0  0  0  0
    3.5724   -0.4125    0.0000 C   0  0  0  0  0  0  0  0  0  0  0  0
    3.5724   -1.2375    0.0000 C   0  0  0  0  0  0  0  0  0  0  0  0
    2.8579   -1.6500    0.0000 C   0  0  0  0  0  0  0  0  0  0  0  0
    2.1434   -1.2375    0.0000 C   0  0  0  0  0  0  0  0  0  0  0  0
    1.4289   -1.6500    0.0000 C   0  0  0  0  0  0  0  0  0  0  0  0
   -2.5615   -0.8638    0.0000 H   0  0  0  0  0  0  0  0  0  0  0  0
   -2.7551   -2.7070    0.0000 H   0  0  0  0  0  0  0  0  0  0  0  0
   -3.1903   -1.7295    0.0000 H   0  0  0  0  0  0  0  0  0  0  0  0
    0.2353   -3.9602    0.0000 H   0  0  0  0  0  0  0  0  0  0  0  0
    0.7767   -6.1561    0.0000 H   0  0  0  0  0  0  0  0  0  0  0  0
   -2.1703   -7.2669    0.0000 H   0  0  0  0  0  0  0  0  0  0  0  0
   -3.2617   -5.7646    0.0000 H   0  0  0  0  0  0  0  0  0  0  0  0
   -2.5065   -4.0681    0.0000 H   0  0  0  0  0  0  0  0  0  0  0  0
    0.9865   -6.0704    0.0000 H   0  0  0  0  0  0  0  0  0  0  0  0
    1.6163   -8.0089    0.0000 H   0  0  0  0  0  0  0  0  0  0  0  0
    0.6819  -10.3494    0.0000 H   0  0  0  0  0  0  0  0  0  0  0  0
   -0.1792    0.1035    0.0000 H   0  0  0  0  0  0  0  0  0  0  0  0
    1.4289    1.0320    0.0000 H   0  0  0  0  0  0  0  0  0  0  0  0
    2.8579    1.0700    0.0000 H   0  0  0  0  0  0  0  0  0  0  0  0
    3.7845    0.5350    0.0000 H   0  0  0  0  0  0  0  0  0  0  0  0
    4.4990    0.1225    0.0000 H   0  0  0  0  0  0  0  0  0  0  0  0
    4.4990   -0.9475    0.0000 H   0  0  0  0  0  0  0  0  0  0  0  0
    4.4990   -1.7725    0.0000 H   0  0  0  0  0  0  0  0  0  0  0  0
    3.5724   -2.3075    0.0000 H   0  0  0  0  0  0  0  0  0  0  0  0
    2.8579   -2.7200    0.0000 H   0  0  0  0  0  0  0  0  0  0  0  0
    1.9313   -2.1850    0.0000 H   0  0  0  0  0  0  0  0  0  0  0  0
    1.4289   -2.6820    0.0000 H   0  0  0  0  0  0  0  0  0  0  0  0
  1  2  1  0  0  0  0
  1 35  1  0  0  0  0
  1 36  1  0  0  0  0
  1 37  1  0  0  0  0
  2  3  2  0  0  0  0
  2  7  1  0  0  0  0
  3  4  1  0  0  0  0
  4  5  1  0  0  0  0
  4 25  1  0  0  0  0
  5  6  2  0  0  0  0
  5  7  1  0  0  0  0
  7  8  2  0  0  0  0
  8  9  1  0  0  0  0
  9 10  1  0  0  0  0
  9 38  1  0  0  0  0
 10 11  2  0  0  0  0
 10 16  1  0  0  0  0
 11 12  1  0  0  0  0
 11 13  1  0  0  0  0
 12 39  1  0  0  0  0
 13 14  2  0  0  0  0
 13 17  1  0  0  0  0
 14 15  1  0  0  0  0
 14 40  1  0  0  0  0
 15 16  2  0  0  0  0
 15 41  1  0  0  0  0
 16 42  1  0  0  0  0
 17 18  2  0  0  0  0
 17 21  1  0  0  0  0
 18 19  1  0  0  0  0
 18 43  1  0  0  0  0
 19 20  2  0  0  0  0
 19 44  1  0  0  0  0
 20 21  1  0  0  0  0
 20 22  1  0  0  0  0
 22 23  1  0  0  0  0
 22 24  2  0  0  0  0
 23 45  1  0  0  0  0
 25 26  2  0  0  0  0
 25 34  1  0  0  0  0
 26 27  1  0  0  0  0
 26 46  1  0  0  0  0
 27 28  2  0  0  0  0
 27 47  1  0  0  0  0
 28 29  1  0  0  0  0
 28 33  1  0  0  0  0
 29 30  1  0  0  0  0
 29 48  1  0  0  0  0
 29 49  1  0  0  0  0
 30 31  1  0  0  0  0
 30 50  1  0  0  0  0
 30 51  1  0  0  0  0
 31 32  1  0  0  0  0
 31 52  1  0  0  0  0
 31 53  1  0  0  0  0
 32 33  1  0  0  0  0
 32 54  1  0  0  0  0
 32 55  1  0  0  0  0
 33 34  2  0  0  0  0
 34 56  1  0  0  0  0
M  END
>  <DRUGBANK_ID>
DB16184

>  <COMMON_NAME>
Hetrombopag

>  <CAS_NUMBER>
1257792-41-8

>  <UNII>
9WGT51BDDL

$$$$
