
 OpenBabel10282417072D

 57 60  0  0  1  0  0  0  0  0999 V2000
   17.4442   -5.8431    0.0000 C   0  0  2  0  0  0  0  0  0  0  0  0
   19.5947   -4.5980    0.0000 C   0  0  1  0  0  0  0  0  0  0  0  0
   18.1516   -5.4186    0.0000 C   0  0  2  0  0  0  0  0  0  0  0  0
   17.4442   -6.6637    0.0000 C   0  0  0  0  0  0  0  0  0  0  0  0
   19.5947   -5.4186    0.0000 C   0  0  2  0  0  0  0  0  0  0  0  0
   18.8873   -5.8431    0.0000 C   0  0  2  0  0  0  0  0  0  0  0  0
   20.3870   -4.3433    0.0000 C   0  0  2  0  0  0  0  0  0  0  0  0
   18.1516   -4.5980    0.0000 C   0  0  2  0  0  0  0  0  0  0  0  0
   16.7085   -5.4186    0.0000 C   0  0  0  0  0  0  0  0  0  0  0  0
   18.8873   -4.1736    0.0000 C   0  0  0  0  0  0  0  0  0  0  0  0
   20.8680   -4.9942    0.0000 C   0  0  2  0  0  0  0  0  0  0  0  0
   20.3870   -5.6733    0.0000 C   0  0  0  0  0  0  0  0  0  0  0  0
   18.8873   -6.6637    0.0000 C   0  0  0  0  0  0  0  0  0  0  0  0
   18.1516   -7.0881    0.0000 C   0  0  2  0  0  0  0  0  0  0  0  0
   16.7085   -7.0881    0.0000 C   0  0  0  0  0  0  0  0  0  0  0  0
   20.3870   -3.4945    0.0000 C   0  0  0  0  0  0  0  0  0  0  0  0
   16.0010   -5.8431    0.0000 C   0  0  0  0  0  0  0  0  0  0  0  0
   16.0010   -6.6353    0.0000 C   0  0  0  0  0  0  0  0  0  0  0  0
   18.1516   -6.2109    0.0000 F   0  0  0  0  0  0  0  0  0  0  0  0
   19.6796   -3.0983    0.0000 O   0  0  0  0  0  0  0  0  0  0  0  0
   15.2654   -7.0598    0.0000 O   0  0  0  0  0  0  0  0  0  0  0  0
   17.4442   -4.9942    0.0000 C   0  0  0  0  0  0  0  0  0  0  0  0
   19.5947   -3.8057    0.0000 C   0  0  0  0  0  0  0  0  0  0  0  0
   17.4442   -4.1736    0.0000 O   0  0  0  0  0  0  0  0  0  0  0  0
   18.1516   -7.9087    0.0000 F   0  0  0  0  0  0  0  0  0  0  0  0
   21.0944   -3.0983    0.0000 C   0  0  0  0  0  0  0  0  0  0  0  0
   21.8301   -3.4945    0.0000 O   0  0  0  0  0  0  0  0  0  0  0  0
   18.8873   -4.9942    0.0000 H   0  0  0  0  0  0  0  0  0  0  0  0
   19.5947   -6.2392    0.0000 H   0  0  0  0  0  0  0  0  0  0  0  0
   21.6930   -4.9858    0.0000 C   0  0  0  0  0  0  0  0  0  0  0  0
   21.1810   -4.5522    0.0000 O   0  0  0  0  0  0  0  0  0  0  0  0
   17.2205   -5.1252    0.0000 H   0  0  0  0  0  0  0  0  0  0  0  0
   16.6997   -4.3866    0.0000 H   0  0  0  0  0  0  0  0  0  0  0  0
   18.8965   -3.1036    0.0000 H   0  0  0  0  0  0  0  0  0  0  0  0
   17.9631   -3.6345    0.0000 H   0  0  0  0  0  0  0  0  0  0  0  0
   21.3450   -4.0364    0.0000 H   0  0  0  0  0  0  0  0  0  0  0  0
   20.7254   -6.6884    0.0000 H   0  0  0  0  0  0  0  0  0  0  0  0
   21.4454   -5.8303    0.0000 H   0  0  0  0  0  0  0  0  0  0  0  0
   19.8138   -7.1989    0.0000 H   0  0  0  0  0  0  0  0  0  0  0  0
   18.8870   -7.7337    0.0000 H   0  0  0  0  0  0  0  0  0  0  0  0
   17.2205   -7.6153    0.0000 H   0  0  0  0  0  0  0  0  0  0  0  0
   16.6847   -8.1198    0.0000 H   0  0  0  0  0  0  0  0  0  0  0  0
   15.1030   -5.3346    0.0000 H   0  0  0  0  0  0  0  0  0  0  0  0
   18.3708   -4.4592    0.0000 H   0  0  0  0  0  0  0  0  0  0  0  0
   16.5176   -4.4592    0.0000 H   0  0  0  0  0  0  0  0  0  0  0  0
   17.4442   -3.9242    0.0000 H   0  0  0  0  0  0  0  0  0  0  0  0
   20.5213   -3.2707    0.0000 H   0  0  0  0  0  0  0  0  0  0  0  0
   18.6681   -3.2707    0.0000 H   0  0  0  0  0  0  0  0  0  0  0  0
   19.5947   -2.7357    0.0000 H   0  0  0  0  0  0  0  0  0  0  0  0
   17.4605   -3.2037    0.0000 H   0  0  0  0  0  0  0  0  0  0  0  0
   21.0855   -2.0283    0.0000 H   0  0  0  0  0  0  0  0  0  0  0  0
   22.0107   -2.5458    0.0000 H   0  0  0  0  0  0  0  0  0  0  0  0
   21.8588   -4.4641    0.0000 H   0  0  0  0  0  0  0  0  0  0  0  0
   22.2374   -5.9070    0.0000 H   0  0  0  0  0  0  0  0  0  0  0  0
   22.2185   -4.0538    0.0000 H   0  0  0  0  0  0  0  0  0  0  0  0
   22.7629   -4.9749    0.0000 H   0  0  0  0  0  0  0  0  0  0  0  0
   21.4363   -5.4880    0.0000 H   0  0  0  0  0  0  0  0  0  0  0  0
  1 22  1  1  0  0  0
  2 23  1  1  0  0  0
  3  1  1  0  0  0  0
  3 19  1  6  0  0  0
  4  1  1  0  0  0  0
  5  2  1  0  0  0  0
  5 29  1  6  0  0  0
  6  3  1  0  0  0  0
  6  5  1  0  0  0  0
  6 28  1  1  0  0  0
  7  2  1  0  0  0  0
  7 16  1  1  0  0  0
  7 31  1  0  0  0  0
  8  3  1  0  0  0  0
  8 24  1  0  0  0  0
  8 32  1  6  0  0  0
  9  1  1  0  0  0  0
  9 33  1  0  0  0  0
 10  2  1  0  0  0  0
 10  8  1  0  0  0  0
 10 34  1  0  0  0  0
 10 35  1  0  0  0  0
 11  7  1  0  0  0  0
 11 30  1  0  0  0  0
 11 36  1  6  0  0  0
 12  5  1  0  0  0  0
 12 11  1  0  0  0  0
 12 37  1  0  0  0  0
 12 38  1  0  0  0  0
 13  6  1  0  0  0  0
 13 39  1  0  0  0  0
 13 40  1  0  0  0  0
 14  4  1  0  0  0  0
 14 13  1  0  0  0  0
 14 25  1  0  0  0  0
 14 41  1  1  0  0  0
 15  4  2  0  0  0  0
 15 42  1  0  0  0  0
 17  9  2  0  0  0  0
 17 43  1  0  0  0  0
 18 15  1  0  0  0  0
 18 17  1  0  0  0  0
 20 16  2  0  0  0  0
 21 18  2  0  0  0  0
 22 44  1  0  0  0  0
 22 45  1  0  0  0  0
 22 46  1  0  0  0  0
 23 47  1  0  0  0  0
 23 48  1  0  0  0  0
 23 49  1  0  0  0  0
 24 50  1  0  0  0  0
 26 16  1  0  0  0  0
 26 51  1  0  0  0  0
 26 52  1  0  0  0  0
 27 26  1  0  0  0  0
 27 53  1  0  0  0  0
 30 54  1  0  0  0  0
 30 55  1  0  0  0  0
 30 56  1  0  0  0  0
 31 57  1  0  0  0  0
M  END
>  <DRUGBANK_ID>
DB00223

>  <SECONDARY_ACCESSION_NUMBERS>
APRD00921

>  <COMMON_NAME>
Diflorasone

>  <CAS_NUMBER>
2557-49-5

>  <UNII>
T2DHJ9645W

>  <SYNONYMS>
(6α,11β,16β)-6,9-difluoro-11,17,21-trihydroxy-16-methylpregna-1,4-diene-3,20-dione; Diflorasona; Diflorasone; Diflorasonum

$$$$
