
 OpenBabel10282417072D

 39 40  0  0  0  0  0  0  0  0999 V2000
    1.8137    1.9673    0.0000 C   0  0  0  0  0  0  0  0  0  0  0  0
    1.0992   -3.3952    0.0000 C   0  0  0  0  0  0  0  0  0  0  0  0
   -2.4732    0.3173    0.0000 C   0  0  0  0  0  0  0  0  0  0  0  0
   -2.4732   -0.5077    0.0000 C   0  0  0  0  0  0  0  0  0  0  0  0
    1.8137    2.7923    0.0000 C   0  0  0  0  0  0  0  0  0  0  0  0
    1.8137   -2.9827    0.0000 C   0  0  0  0  0  0  0  0  0  0  0  0
    1.0992    1.5548    0.0000 C   0  0  0  0  0  0  0  0  0  0  0  0
    0.3847   -2.9827    0.0000 C   0  0  0  0  0  0  0  0  0  0  0  0
   -1.7587    0.7298    0.0000 C   0  0  0  0  0  0  0  0  0  0  0  0
   -1.7587   -0.9202    0.0000 C   0  0  0  0  0  0  0  0  0  0  0  0
    1.0992    3.2048    0.0000 C   0  0  0  0  0  0  0  0  0  0  0  0
    1.8137   -2.1577    0.0000 C   0  0  0  0  0  0  0  0  0  0  0  0
   -0.3298    1.5548    0.0000 C   0  0  0  0  0  0  0  0  0  0  0  0
   -0.3298   -1.7452    0.0000 C   0  0  0  0  0  0  0  0  0  0  0  0
    0.3847    1.9673    0.0000 C   0  0  0  0  0  0  0  0  0  0  0  0
    0.3847   -2.1577    0.0000 C   0  0  0  0  0  0  0  0  0  0  0  0
   -1.0442    0.3173    0.0000 C   0  0  0  0  0  0  0  0  0  0  0  0
   -1.0442   -0.5077    0.0000 C   0  0  0  0  0  0  0  0  0  0  0  0
    0.3847    2.7923    0.0000 C   0  0  0  0  0  0  0  0  0  0  0  0
    1.0992   -1.7452    0.0000 C   0  0  0  0  0  0  0  0  0  0  0  0
   -0.3298    0.7298    0.0000 N   0  0  0  0  0  0  0  0  0  0  0  0
   -0.3298   -0.9202    0.0000 N   0  0  0  0  0  0  0  0  0  0  0  0
   -0.3298    3.2048    0.0000 O   0  5  0  0  0  0  0  0  0  0  0  0
    1.0992   -0.9202    0.0000 O   0  5  0  0  0  0  0  0  0  0  0  0
    4.1708    0.0000    0.0000 Fe  0  0  0  0  0  0  0  0  0  0  0  0
   -1.0442    1.9673    0.0000 H   0  0  0  0  0  0  0  0  0  0  0  0
   -1.0442   -2.1577    0.0000 H   0  0  0  0  0  0  0  0  0  0  0  0
    2.7074    1.4513    0.0000 H   0  0  0  0  0  0  0  0  0  0  0  0
    1.0992   -4.4272    0.0000 H   0  0  0  0  0  0  0  0  0  0  0  0
   -3.3669    0.8333    0.0000 H   0  0  0  0  0  0  0  0  0  0  0  0
   -3.3669   -1.0237    0.0000 H   0  0  0  0  0  0  0  0  0  0  0  0
    2.7074    3.3083    0.0000 H   0  0  0  0  0  0  0  0  0  0  0  0
    2.7074   -3.4987    0.0000 H   0  0  0  0  0  0  0  0  0  0  0  0
    1.0992    0.5228    0.0000 H   0  0  0  0  0  0  0  0  0  0  0  0
   -0.5090   -3.4987    0.0000 H   0  0  0  0  0  0  0  0  0  0  0  0
   -1.7587    1.7618    0.0000 H   0  0  0  0  0  0  0  0  0  0  0  0
   -1.7587   -1.9522    0.0000 H   0  0  0  0  0  0  0  0  0  0  0  0
    1.0992    4.2368    0.0000 H   0  0  0  0  0  0  0  0  0  0  0  0
    2.7074   -1.6417    0.0000 H   0  0  0  0  0  0  0  0  0  0  0  0
  1 28  1  0  0  0  0
  2 29  1  0  0  0  0
  3 30  1  0  0  0  0
  4  3  2  0  0  0  0
  4 31  1  0  0  0  0
  5  1  2  0  0  0  0
  5 32  1  0  0  0  0
  6  2  2  0  0  0  0
  6 33  1  0  0  0  0
  7  1  1  0  0  0  0
  7 34  1  0  0  0  0
  8  2  1  0  0  0  0
  8 35  1  0  0  0  0
  9  3  1  0  0  0  0
  9 36  1  0  0  0  0
 10  4  1  0  0  0  0
 10 37  1  0  0  0  0
 11  5  1  0  0  0  0
 11 38  1  0  0  0  0
 12  6  1  0  0  0  0
 12 39  1  0  0  0  0
 15  7  2  0  0  0  0
 15 13  1  0  0  0  0
 16  8  2  0  0  0  0
 16 14  1  0  0  0  0
 17  9  2  0  0  0  0
 18 10  2  0  0  0  0
 18 17  1  0  0  0  0
 19 11  2  0  0  0  0
 19 15  1  0  0  0  0
 20 12  2  0  0  0  0
 20 16  1  0  0  0  0
 21 13  2  0  0  0  0
 21 17  1  0  0  0  0
 22 14  2  0  0  0  0
 22 18  1  0  0  0  0
 23 19  1  0  0  0  0
 24 20  1  0  0  0  0
 26 13  1  0  0  0  0
 27 14  1  0  0  0  0
M  CHG  3  23  -1  24  -1  25   4
M  END
>  <DRUGBANK_ID>
DB04811

>  <COMMON_NAME>
Salophen iron chelate

$$$$
