
 OpenBabel10282417072D

 95102  0  0  1  0  0  0  0  0999 V2000
   -2.8579   -0.8250    0.0000 H   0  0  0  0  0  0  0  0  0  0  0  0
   -3.5724   -0.4125    0.0000 C   0  0  1  0  0  0  0  0  0  0  0  0
   -4.3570   -0.1576    0.0000 C   0  0  0  0  0  0  0  0  0  0  0  0
   -4.8419   -0.8250    0.0000 O   0  0  0  0  0  0  0  0  0  0  0  0
   -4.3570   -1.4924    0.0000 C   0  0  0  0  0  0  0  0  0  0  0  0
   -4.6119   -2.2771    0.0000 O   0  0  0  0  0  0  0  0  0  0  0  0
   -3.5724   -1.2375    0.0000 C   0  0  2  0  0  0  0  0  0  0  0  0
   -3.6586   -2.0580    0.0000 H   0  0  0  0  0  0  0  0  0  0  0  0
   -2.8579   -1.6500    0.0000 C   0  0  2  0  0  0  0  0  0  0  0  0
   -2.8579   -2.4750    0.0000 C   0  0  0  0  0  0  0  0  0  0  0  0
   -2.1434   -2.8875    0.0000 C   0  0  0  0  0  0  0  0  0  0  0  0
   -2.1434   -3.7125    0.0000 C   0  0  0  0  0  0  0  0  0  0  0  0
   -1.4289   -4.1250    0.0000 O   0  0  0  0  0  0  0  0  0  0  0  0
   -1.4289   -4.9500    0.0000 C   0  0  0  0  0  0  0  0  0  0  0  0
   -2.8579   -4.1250    0.0000 C   0  0  0  0  0  0  0  0  0  0  0  0
   -2.8579   -4.9500    0.0000 O   0  0  0  0  0  0  0  0  0  0  0  0
   -3.5724   -5.3625    0.0000 C   0  0  0  0  0  0  0  0  0  0  0  0
   -4.2868   -4.9500    0.0000 O   0  0  0  0  0  0  0  0  0  0  0  0
   -3.5724   -6.1875    0.0000 O   0  0  0  0  0  0  0  0  0  0  0  0
   -4.2868   -6.6000    0.0000 C   0  0  0  0  0  0  0  0  0  0  0  0
   -4.2868   -7.4250    0.0000 C   0  0  3  0  0  0  0  0  0  0  0  0
   -3.6194   -7.9099    0.0000 C   0  0  0  0  0  0  0  0  0  0  0  0
   -3.8743   -8.6945    0.0000 O   0  0  0  0  0  0  0  0  0  0  0  0
   -4.6993   -8.6945    0.0000 C   0  0  0  0  0  0  0  0  0  0  0  0
   -4.6131   -9.5150    0.0000 C   0  0  0  0  0  0  0  0  0  0  0  0
   -5.5063   -8.8661    0.0000 C   0  0  0  0  0  0  0  0  0  0  0  0
   -4.9543   -7.9099    0.0000 O   0  0  0  0  0  0  0  0  0  0  0  0
   -3.5724   -3.7125    0.0000 C   0  0  0  0  0  0  0  0  0  0  0  0
   -4.2868   -4.1250    0.0000 O   0  0  0  0  0  0  0  0  0  0  0  0
   -5.0013   -3.7125    0.0000 C   0  0  0  0  0  0  0  0  0  0  0  0
   -3.5724   -2.8875    0.0000 C   0  0  0  0  0  0  0  0  0  0  0  0
   -2.1434   -1.2375    0.0000 C   0  0  0  0  0  0  0  0  0  0  0  0
   -2.1434   -0.4125    0.0000 C   0  0  0  0  0  0  0  0  0  0  0  0
   -1.4289    0.0000    0.0000 C   0  0  0  0  0  0  0  0  0  0  0  0
   -0.7145   -0.4125    0.0000 C   0  0  0  0  0  0  0  0  0  0  0  0
    0.0702   -0.1576    0.0000 O   0  0  0  0  0  0  0  0  0  0  0  0
    0.5551   -0.8250    0.0000 C   0  0  0  0  0  0  0  0  0  0  0  0
    0.0702   -1.4924    0.0000 O   0  0  0  0  0  0  0  0  0  0  0  0
   -0.7145   -1.2375    0.0000 C   0  0  0  0  0  0  0  0  0  0  0  0
   -1.4289   -1.6500    0.0000 C   0  0  0  0  0  0  0  0  0  0  0  0
   -2.8579    0.0000    0.0000 C   0  0  1  0  0  0  0  0  0  0  0  0
   -2.8579    0.8250    0.0000 O   0  0  0  0  0  0  0  0  0  0  0  0
   -2.1434    1.2375    0.0000 C   0  0  2  0  0  0  0  0  0  0  0  0
   -1.4289    0.8250    0.0000 O   0  0  0  0  0  0  0  0  0  0  0  0
   -0.7145    1.2375    0.0000 C   0  0  2  0  0  0  0  0  0  0  0  0
    0.0000    1.6500    0.0000 H   0  0  0  0  0  0  0  0  0  0  0  0
    0.0000    0.8250    0.0000 C   0  0  0  0  0  0  0  0  0  0  0  0
    0.7145    1.2375    0.0000 O   0  0  0  0  0  0  0  0  0  0  0  0
    0.7145    2.0625    0.0000 C   0  0  1  0  0  0  0  0  0  0  0  0
    1.4289    2.4750    0.0000 C   0  0  0  0  0  0  0  0  0  0  0  0
    0.0000    2.4750    0.0000 O   0  0  0  0  0  0  0  0  0  0  0  0
   -0.7145    2.0625    0.0000 C   0  0  1  0  0  0  0  0  0  0  0  0
   -0.7145    2.8875    0.0000 H   0  0  0  0  0  0  0  0  0  0  0  0
   -1.4289    2.4750    0.0000 C   0  0  2  0  0  0  0  0  0  0  0  0
   -1.4289    3.3000    0.0000 O   0  0  0  0  0  0  0  0  0  0  0  0
   -2.1434    2.0625    0.0000 C   0  0  1  0  0  0  0  0  0  0  0  0
   -2.8579    2.4750    0.0000 O   0  0  0  0  0  0  0  0  0  0  0  0
   -4.6877    0.8600    0.0000 H   0  0  0  0  0  0  0  0  0  0  0  0
   -5.4138    0.0098    0.0000 H   0  0  0  0  0  0  0  0  0  0  0  0
   -3.7845   -2.1850    0.0000 H   0  0  0  0  0  0  0  0  0  0  0  0
   -1.2497   -2.3715    0.0000 H   0  0  0  0  0  0  0  0  0  0  0  0
   -2.3555   -5.4850    0.0000 H   0  0  0  0  0  0  0  0  0  0  0  0
   -0.5023   -5.4850    0.0000 H   0  0  0  0  0  0  0  0  0  0  0  0
   -1.4289   -6.0200    0.0000 H   0  0  0  0  0  0  0  0  0  0  0  0
   -5.2135   -6.0650    0.0000 H   0  0  0  0  0  0  0  0  0  0  0  0
   -5.2134   -7.1350    0.0000 H   0  0  0  0  0  0  0  0  0  0  0  0
   -3.3334   -6.9392    0.0000 H   0  0  0  0  0  0  0  0  0  0  0  0
   -2.6018   -7.5792    0.0000 H   0  0  0  0  0  0  0  0  0  0  0  0
   -2.8628   -8.6665    0.0000 H   0  0  0  0  0  0  0  0  0  0  0  0
   -5.4788  -10.1439    0.0000 H   0  0  0  0  0  0  0  0  0  0  0  0
   -3.6356   -9.9503    0.0000 H   0  0  0  0  0  0  0  0  0  0  0  0
   -4.5013  -10.5791    0.0000 H   0  0  0  0  0  0  0  0  0  0  0  0
   -6.2223   -8.0710    0.0000 H   0  0  0  0  0  0  0  0  0  0  0  0
   -5.8369   -9.8838    0.0000 H   0  0  0  0  0  0  0  0  0  0  0  0
   -6.5529   -9.0886    0.0000 H   0  0  0  0  0  0  0  0  0  0  0  0
   -5.0013   -2.6425    0.0000 H   0  0  0  0  0  0  0  0  0  0  0  0
   -5.9279   -4.2475    0.0000 H   0  0  0  0  0  0  0  0  0  0  0  0
   -5.9280   -3.1775    0.0000 H   0  0  0  0  0  0  0  0  0  0  0  0
   -4.4661   -2.3715    0.0000 H   0  0  0  0  0  0  0  0  0  0  0  0
   -1.4289    1.0320    0.0000 H   0  0  0  0  0  0  0  0  0  0  0  0
    1.6251   -0.8250    0.0000 H   0  0  0  0  0  0  0  0  0  0  0  0
    1.0409   -1.7784    0.0000 H   0  0  0  0  0  0  0  0  0  0  0  0
   -1.4289   -2.6820    0.0000 H   0  0  0  0  0  0  0  0  0  0  0  0
   -1.9313    0.5350    0.0000 H   0  0  0  0  0  0  0  0  0  0  0  0
   -2.1434    0.1675    0.0000 H   0  0  0  0  0  0  0  0  0  0  0  0
    0.0000   -0.2450    0.0000 H   0  0  0  0  0  0  0  0  0  0  0  0
    0.9266    0.2900    0.0000 H   0  0  0  0  0  0  0  0  0  0  0  0
    1.6412    1.5275    0.0000 H   0  0  0  0  0  0  0  0  0  0  0  0
    2.3556    1.9400    0.0000 H   0  0  0  0  0  0  0  0  0  0  0  0
    1.4289    3.5450    0.0000 H   0  0  0  0  0  0  0  0  0  0  0  0
    2.3555    3.0100    0.0000 H   0  0  0  0  0  0  0  0  0  0  0  0
   -0.5022    3.0100    0.0000 H   0  0  0  0  0  0  0  0  0  0  0  0
   -0.5889    3.7850    0.0000 H   0  0  0  0  0  0  0  0  0  0  0  0
   -2.1434    3.1325    0.0000 H   0  0  0  0  0  0  0  0  0  0  0  0
   -2.8579    3.4450    0.0000 H   0  0  0  0  0  0  0  0  0  0  0  0
  2  1  1  1  0  0  0
  2  3  1  0  0  0  0
  2  7  1  0  0  0  0
  2 41  1  0  0  0  0
  3  4  1  0  0  0  0
  3 58  1  0  0  0  0
  3 59  1  0  0  0  0
  4  5  1  0  0  0  0
  5  6  2  0  0  0  0
  7  5  1  0  0  0  0
  7  8  1  6  0  0  0
  7  9  1  0  0  0  0
  9 10  1  0  0  0  0
  9 32  1  0  0  0  0
  9 60  1  6  0  0  0
 10 11  2  0  0  0  0
 10 31  1  0  0  0  0
 11 12  1  0  0  0  0
 11 61  1  0  0  0  0
 12 13  1  0  0  0  0
 12 15  2  0  0  0  0
 13 14  1  0  0  0  0
 14 62  1  0  0  0  0
 14 63  1  0  0  0  0
 14 64  1  0  0  0  0
 15 16  1  0  0  0  0
 15 28  1  0  0  0  0
 16 17  1  0  0  0  0
 17 18  2  0  0  0  0
 17 19  1  0  0  0  0
 19 20  1  0  0  0  0
 20 21  1  0  0  0  0
 20 65  1  0  0  0  0
 20 66  1  0  0  0  0
 21 22  1  0  0  0  0
 21 27  1  0  0  0  0
 21 67  1  0  0  0  0
 22 23  1  0  0  0  0
 22 68  1  0  0  0  0
 22 69  1  0  0  0  0
 23 24  1  0  0  0  0
 24 25  1  0  0  0  0
 24 26  1  0  0  0  0
 24 27  1  0  0  0  0
 25 70  1  0  0  0  0
 25 71  1  0  0  0  0
 25 72  1  0  0  0  0
 26 73  1  0  0  0  0
 26 74  1  0  0  0  0
 26 75  1  0  0  0  0
 28 29  1  0  0  0  0
 28 31  2  0  0  0  0
 29 30  1  0  0  0  0
 30 76  1  0  0  0  0
 30 77  1  0  0  0  0
 30 78  1  0  0  0  0
 31 79  1  0  0  0  0
 32 33  2  0  0  0  0
 32 40  1  0  0  0  0
 33 34  1  0  0  0  0
 34 35  2  0  0  0  0
 34 80  1  0  0  0  0
 35 36  1  0  0  0  0
 35 39  1  0  0  0  0
 36 37  1  0  0  0  0
 37 38  1  0  0  0  0
 37 81  1  0  0  0  0
 37 82  1  0  0  0  0
 38 39  1  0  0  0  0
 39 40  2  0  0  0  0
 40 83  1  0  0  0  0
 41 33  1  0  0  0  0
 41 42  1  0  0  0  0
 41 84  1  1  0  0  0
 43 42  1  0  0  0  0
 43 44  1  0  0  0  0
 43 85  1  6  0  0  0
 45 44  1  0  0  0  0
 45 46  1  6  0  0  0
 45 47  1  0  0  0  0
 47 48  1  0  0  0  0
 47 86  1  0  0  0  0
 47 87  1  0  0  0  0
 49 48  1  0  0  0  0
 49 50  1  0  0  0  0
 49 51  1  0  0  0  0
 49 88  1  1  0  0  0
 50 89  1  0  0  0  0
 50 90  1  0  0  0  0
 50 91  1  0  0  0  0
 52 51  1  0  0  0  0
 52 45  1  0  0  0  0
 52 53  1  1  0  0  0
 52 54  1  0  0  0  0
 54 55  1  0  0  0  0
 54 56  1  0  0  0  0
 54 92  1  6  0  0  0
 55 93  1  0  0  0  0
 56 43  1  0  0  0  0
 56 57  1  0  0  0  0
 56 94  1  1  0  0  0
 57 95  1  0  0  0  0
M  END
>  <DRUGBANK_ID>
DB17255

>  <COMMON_NAME>
Etoposide toniribate

>  <CAS_NUMBER>
433304-61-1

>  <UNII>
A59HL2Q48U

>  <SYNONYMS>
((4rs)-2,2-dimethyl-1,3-dioxolan-4-yl)methyl4-((5r,5ar,8ar,9s)-9-((4,6-o-((1r)-ethane-1,1-diyl)-.beta.-d-glucopyranosyl)oxy)-6-oxo-5,5a,6,8,8a,9-hexahydro-2h-furo(3',4':6,7)naphtho(2,3-d)(1,3)dioxol-5-yl)-2,6-dimethoxyphenyl carbonate; Carbonic acid, (2,2-dimethyl-1,3-dioxolan-4-yl)methyl 4-((5r,5ar,8ar,9s)-9-((4,6-o-(1r)-ethylidene-.beta.-d-glucopyranosyl)oxy)-5,5a,6,8,8a,9-hexahydro-6-oxofuro(3',4':6,7)naphtho(2,3-d)-1,3-dioxol-5-yl)-2,6-dimethoxyphenyl ester; Provp-16i

$$$$
