
 OpenBabel10282417072D

 46 49  0  0  0  0  0  0  0  0999 V2000
    2.9986   -0.2111    0.0000 C   0  0  0  0  0  0  0  0  0  0  0  0
    1.4995   -1.1938    0.0000 C   0  0  0  0  0  0  0  0  0  0  0  0
    2.9986    1.1237    0.0000 C   0  0  0  0  0  0  0  0  0  0  0  0
    1.4995    1.2812    0.0000 C   0  0  0  0  0  0  0  0  0  0  0  0
    3.4835    0.4561    0.0000 C   0  0  0  0  0  0  0  0  0  0  0  0
    0.0705   -0.3687    0.0000 C   0  0  0  0  0  0  0  0  0  0  0  0
    0.7850    0.8687    0.0000 C   0  0  0  0  0  0  0  0  0  0  0  0
    0.7850   -1.6062    0.0000 C   0  0  0  0  0  0  0  0  0  0  0  0
    3.2535    1.9083    0.0000 O   0  0  0  0  0  0  0  0  0  0  0  0
    0.0705   -1.1938    0.0000 C   0  0  0  0  0  0  0  0  0  0  0  0
   -0.6439    0.0437    0.0000 C   0  0  0  0  0  0  0  0  0  0  0  0
   -0.6439   -1.6062    0.0000 C   0  0  0  0  0  0  0  0  0  0  0  0
   -1.3583   -0.3687    0.0000 C   0  0  0  0  0  0  0  0  0  0  0  0
    1.4995   -0.3687    0.0000 C   0  0  2  0  0  0  0  0  0  0  0  0
    1.4995    0.4561    0.0000 H   0  0  0  0  0  0  0  0  0  0  0  0
    0.7850    0.0437    0.0000 C   0  0  1  0  0  0  0  0  0  0  0  0
    0.7850   -0.7813    0.0000 H   0  0  0  0  0  0  0  0  0  0  0  0
    2.2139    0.8687    0.0000 C   0  0  2  0  0  0  0  0  0  0  0  0
    2.2139    1.6937    0.0000 C   0  0  0  0  0  0  0  0  0  0  0  0
    2.2139    0.0437    0.0000 C   0  0  1  0  0  0  0  0  0  0  0  0
    2.2139   -0.7813    0.0000 H   0  0  0  0  0  0  0  0  0  0  0  0
   -2.3748   -0.4793    0.0000 O   0  0  0  0  0  0  0  0  0  0  0  0
   -3.1998   -1.9083    0.0000 O   0  0  0  0  0  0  0  0  0  0  0  0
   -3.4835   -0.7995    0.0000 O   0  0  0  0  0  0  0  0  0  0  0  0
   -2.7690   -1.2120    0.0000 S   0  0  0  0  0  0  0  0  0  0  0  0
   -2.0728   -1.6062    0.0000 O   0  0  0  0  0  0  0  0  0  0  0  0
   -1.3583   -1.1938    0.0000 C   0  0  0  0  0  0  0  0  0  0  0  0
    3.3293   -1.2287    0.0000 H   0  0  0  0  0  0  0  0  0  0  0  0
    4.0554   -0.3786    0.0000 H   0  0  0  0  0  0  0  0  0  0  0  0
    2.4261   -1.7289    0.0000 H   0  0  0  0  0  0  0  0  0  0  0  0
    1.4994   -2.2638    0.0000 H   0  0  0  0  0  0  0  0  0  0  0  0
    1.4995    2.3512    0.0000 H   0  0  0  0  0  0  0  0  0  0  0  0
    0.5729    1.8162    0.0000 H   0  0  0  0  0  0  0  0  0  0  0  0
    4.5535    0.4559    0.0000 H   0  0  0  0  0  0  0  0  0  0  0  0
    3.9694    1.4094    0.0000 H   0  0  0  0  0  0  0  0  0  0  0  0
   -0.1416    1.4037    0.0000 H   0  0  0  0  0  0  0  0  0  0  0  0
    0.7850    1.9387    0.0000 H   0  0  0  0  0  0  0  0  0  0  0  0
    0.7850   -2.6762    0.0000 H   0  0  0  0  0  0  0  0  0  0  0  0
   -0.1416   -2.1413    0.0000 H   0  0  0  0  0  0  0  0  0  0  0  0
   -0.6439    1.0757    0.0000 H   0  0  0  0  0  0  0  0  0  0  0  0
   -0.6439   -2.6382    0.0000 H   0  0  0  0  0  0  0  0  0  0  0  0
   -2.2520    0.1473    0.0000 H   0  0  0  0  0  0  0  0  0  0  0  0
    3.1405    2.2287    0.0000 H   0  0  0  0  0  0  0  0  0  0  0  0
    1.2873    2.2287    0.0000 H   0  0  0  0  0  0  0  0  0  0  0  0
    2.2139    2.7637    0.0000 H   0  0  0  0  0  0  0  0  0  0  0  0
   -3.4835    0.1705    0.0000 H   0  0  0  0  0  0  0  0  0  0  0  0
  1 28  1  0  0  0  0
  1 29  1  0  0  0  0
  2  8  1  0  0  0  0
  2 30  1  0  0  0  0
  2 31  1  0  0  0  0
  3  9  2  0  0  0  0
  3  5  1  0  0  0  0
  4  7  1  0  0  0  0
  4 32  1  0  0  0  0
  4 33  1  0  0  0  0
  5  1  1  0  0  0  0
  5 34  1  0  0  0  0
  5 35  1  0  0  0  0
  6 10  2  0  0  0  0
  6 11  1  0  0  0  0
  7 36  1  0  0  0  0
  7 37  1  0  0  0  0
  8 10  1  0  0  0  0
  8 38  1  0  0  0  0
  8 39  1  0  0  0  0
 10 12  1  0  0  0  0
 11 13  2  0  0  0  0
 11 40  1  0  0  0  0
 12 27  2  0  0  0  0
 12 41  1  0  0  0  0
 13 27  1  0  0  0  0
 13 42  1  0  0  0  0
 14 16  1  0  0  0  0
 14  2  1  0  0  0  0
 14 15  1  1  0  0  0
 16  6  1  0  0  0  0
 16  7  1  0  0  0  0
 16 17  1  6  0  0  0
 18  3  1  0  0  0  0
 18  4  1  0  0  0  0
 18 19  1  1  0  0  0
 19 43  1  0  0  0  0
 19 44  1  0  0  0  0
 19 45  1  0  0  0  0
 20 14  1  0  0  0  0
 20 18  1  0  0  0  0
 20  1  1  0  0  0  0
 20 21  1  6  0  0  0
 24 46  1  0  0  0  0
 25 22  2  0  0  0  0
 25 23  2  0  0  0  0
 25 24  1  0  0  0  0
 25 26  1  0  0  0  0
 27 26  1  0  0  0  0
M  END
>  <DRUGBANK_ID>
DB04574

>  <COMMON_NAME>
Estrone sulfate

>  <CAS_NUMBER>
481-97-0

>  <UNII>
QTL48N278K

>  <SYNONYMS>
Estra-1,3,5 (10)-triene-17-one-3-yl-sulfate; Estrone 3-sulfate; Estrone bisulfate; Estrone hemisulfate; Estrone hydrogen sulfate; Estrone sulphate; Estrone-3-sulphate; Estrone, hydrogen sulfate

$$$$
