
 OpenBabel10282417072D

165168  0  0  0  0  0  0  0  0999 V2000
   -0.8512   -1.6890    0.0000 C   0  0  1  0  0  0  0  0  0  0  0  0
   -0.3661   -1.0217    0.0000 N   0  0  0  0  0  0  0  0  0  0  0  0
   -0.3662   -2.3567    0.0000 C   0  0  0  0  0  0  0  0  0  0  0  0
    0.4185   -1.2767    0.0000 C   0  0  0  0  0  0  0  0  0  0  0  0
    0.4185   -2.1018    0.0000 C   0  0  2  0  0  0  0  0  0  0  0  0
    0.8714   -0.3072    0.0000 C   0  0  0  0  0  0  0  0  0  0  0  0
    0.4588    0.4072    0.0000 C   0  0  2  0  0  0  0  0  0  0  0  0
   -0.3661    0.4073    0.0000 C   0  0  1  0  0  0  0  0  0  0  0  0
   -0.7786   -0.3072    0.0000 C   0  0  0  0  0  0  0  0  0  0  0  0
    0.4588    1.8362    0.0000 O   0  0  0  0  0  0  0  0  0  0  0  0
    0.8714    1.1217    0.0000 O   0  0  0  0  0  0  0  0  0  0  0  0
   -0.3661    1.8362    0.0000 C   0  0  0  0  0  0  0  0  0  0  0  0
   -0.7786    1.1217    0.0000 N   0  0  0  0  0  0  0  0  0  0  0  0
   -0.3661    3.2653    0.0000 C   0  0  0  0  0  0  0  0  0  0  0  0
   -0.7786    2.5508    0.0000 C   0  0  2  0  0  0  0  0  0  0  0  0
   -0.7786    3.9797    0.0000 C   0  0  2  0  0  0  0  0  0  0  0  0
   -1.6022    3.9807    0.0000 C   0  0  1  0  0  0  0  0  0  0  0  0
   -2.0140    4.6958    0.0000 N   0  0  0  0  0  0  0  0  0  0  0  0
   -2.0156    3.2668    0.0000 N   0  0  0  0  0  0  0  0  0  0  0  0
   -0.3656    4.6940    0.0000 O   0  0  0  0  0  0  0  0  0  0  0  0
   -2.8407    3.2677    0.0000 C   0  0  0  0  0  0  0  0  0  0  0  0
   -3.2540    2.5537    0.0000 C   0  0  1  0  0  0  0  0  0  0  0  0
   -3.2523    3.9827    0.0000 O   0  0  0  0  0  0  0  0  0  0  0  0
   -3.2523    1.7244    0.0000 N   0  0  0  0  0  0  0  0  0  0  0  0
   -4.5238    2.1414    0.0000 C   0  0  0  0  0  0  0  0  0  0  0  0
   -4.0387    2.8089    0.0000 C   0  0  2  0  0  0  0  0  0  0  0  0
   -4.0388    1.4739    0.0000 C   0  0  0  0  0  0  0  0  0  0  0  0
   -2.8398    1.0098    0.0000 C   0  0  0  0  0  0  0  0  0  0  0  0
   -3.2523    0.2954    0.0000 C   0  0  2  0  0  0  0  0  0  0  0  0
   -4.0775    0.2954    0.0000 C   0  0  1  0  0  0  0  0  0  0  0  0
   -4.4899    1.0099    0.0000 C   0  0  0  0  0  0  0  0  0  0  0  0
   -2.0148    1.0098    0.0000 O   0  0  0  0  0  0  0  0  0  0  0  0
   -2.8398   -0.4192    0.0000 N   0  0  0  0  0  0  0  0  0  0  0  0
   -4.4900   -0.4189    0.0000 O   0  0  0  0  0  0  0  0  0  0  0  0
   -5.3149    1.0099    0.0000 C   0  0  0  0  0  0  0  0  0  0  0  0
   -5.7274    1.7244    0.0000 N   0  0  0  0  0  0  0  0  0  0  0  0
   -3.2524   -1.1336    0.0000 C   0  0  0  0  0  0  0  0  0  0  0  0
   -4.0773   -1.1383    0.0000 O   0  0  0  0  0  0  0  0  0  0  0  0
   -2.8378   -1.8469    0.0000 C   0  0  2  0  0  0  0  0  0  0  0  0
   -3.2483   -2.5625    0.0000 C   0  0  1  0  0  0  0  0  0  0  0  0
   -2.2224   -1.4329    0.0000 N   0  0  0  0  0  0  0  0  0  0  0  0
   -1.5064   -1.8429    0.0000 C   0  0  0  0  0  0  0  0  0  0  0  0
   -1.5034   -2.6679    0.0000 O   0  0  0  0  0  0  0  0  0  0  0  0
   -4.0773   -2.5597    0.0000 C   0  0  2  0  0  0  0  0  0  0  0  0
   -4.4923   -3.2729    0.0000 C   0  0  0  0  0  0  0  0  0  0  0  0
   -4.4874   -1.8439    0.0000 O   0  0  0  0  0  0  0  0  0  0  0  0
   -2.8360   -3.2772    0.0000 O   0  0  0  0  0  0  0  0  0  0  0  0
   -5.3173   -3.2701    0.0000 C   0  0  0  0  0  0  0  0  0  0  0  0
   -4.0822   -3.9887    0.0000 C   0  0  0  0  0  0  0  0  0  0  0  0
   -4.4971   -4.7018    0.0000 C   0  0  0  0  0  0  0  0  0  0  0  0
   -5.3222   -4.6991    0.0000 C   0  0  0  0  0  0  0  0  0  0  0  0
   -5.7322   -3.9832    0.0000 C   0  0  0  0  0  0  0  0  0  0  0  0
   -5.7371   -5.4122    0.0000 O   0  0  0  0  0  0  0  0  0  0  0  0
   -4.2935    3.5935    0.0000 O   0  0  0  0  0  0  0  0  0  0  0  0
   -2.8348    4.6964    0.0000 C   0  0  0  0  0  0  0  0  0  0  0  0
   -3.2468    5.4113    0.0000 C   0  0  0  0  0  0  0  0  0  0  0  0
   -4.0674    5.4122    0.0000 N   0  0  0  0  0  0  0  0  0  0  0  0
    0.0180    2.7581    0.0000 N   0  0  0  0  0  0  0  0  0  0  0  0
    0.7336    3.1757    0.0000 C   0  0  0  0  0  0  0  0  0  0  0  0
    1.4499    2.7663    0.0000 C   0  0  0  0  0  0  0  0  0  0  0  0
    0.7299    4.0007    0.0000 O   0  0  0  0  0  0  0  0  0  0  0  0
    2.8790    2.7663    0.0000 C   0  0  0  0  0  0  0  0  0  0  0  0
    2.8790    1.9412    0.0000 C   0  0  0  0  0  0  0  0  0  0  0  0
    2.1644    3.1788    0.0000 C   0  0  0  0  0  0  0  0  0  0  0  0
    2.1644    1.5287    0.0000 C   0  0  0  0  0  0  0  0  0  0  0  0
    4.3080    2.7663    0.0000 C   0  0  0  0  0  0  0  0  0  0  0  0
    4.3080    1.9412    0.0000 C   0  0  0  0  0  0  0  0  0  0  0  0
    3.5935    3.1788    0.0000 C   0  0  0  0  0  0  0  0  0  0  0  0
    3.5935    1.5287    0.0000 C   0  0  1  0  0  0  0  0  0  0  0  0
    5.7371    2.7663    0.0000 C   0  0  0  0  0  0  0  0  0  0  0  0
    5.7371    1.9412    0.0000 C   0  0  0  0  0  0  0  0  0  0  0  0
    5.0226    3.1788    0.0000 C   0  0  0  0  0  0  0  0  0  0  0  0
    5.0226    1.5287    0.0000 C   0  0  1  0  0  0  0  0  0  0  0  0
    3.5934    0.7037    0.0000 C   0  0  0  0  0  0  0  0  0  0  0  0
    5.0224    0.7037    0.0000 C   0  0  0  0  0  0  0  0  0  0  0  0
    1.0859   -2.5868    0.0000 O   0  0  0  0  0  0  0  0  0  0  0  0
   -1.6036   -0.3072    0.0000 O   0  0  0  0  0  0  0  0  0  0  0  0
   -1.4332   -1.0986    0.0000 H   0  0  0  0  0  0  0  0  0  0  0  0
   -1.6022    2.5495    0.0000 H   0  0  0  0  0  0  0  0  0  0  0  0
   -0.6969   -3.3743    0.0000 H   0  0  0  0  0  0  0  0  0  0  0  0
    0.3903   -3.1134    0.0000 H   0  0  0  0  0  0  0  0  0  0  0  0
    1.2842   -0.6478    0.0000 H   0  0  0  0  0  0  0  0  0  0  0  0
    1.3719   -1.7625    0.0000 H   0  0  0  0  0  0  0  0  0  0  0  0
    0.2510   -3.1586    0.0000 H   0  0  0  0  0  0  0  0  0  0  0  0
    0.3365   -1.2339    0.0000 H   0  0  0  0  0  0  0  0  0  0  0  0
    1.9414   -0.3070    0.0000 H   0  0  0  0  0  0  0  0  0  0  0  0
    1.4065   -1.2338    0.0000 H   0  0  0  0  0  0  0  0  0  0  0  0
    1.5288    0.4072    0.0000 H   0  0  0  0  0  0  0  0  0  0  0  0
    0.1689   -0.5194    0.0000 H   0  0  0  0  0  0  0  0  0  0  0  0
    1.8414    1.1216    0.0000 H   0  0  0  0  0  0  0  0  0  0  0  0
   -1.7631    1.1217    0.0000 H   0  0  0  0  0  0  0  0  0  0  0  0
    0.7039    3.2653    0.0000 H   0  0  0  0  0  0  0  0  0  0  0  0
    0.1689    4.1920    0.0000 H   0  0  0  0  0  0  0  0  0  0  0  0
    0.2914    3.9794    0.0000 H   0  0  0  0  0  0  0  0  0  0  0  0
   -1.0661    4.9067    0.0000 H   0  0  0  0  0  0  0  0  0  0  0  0
   -1.5032    5.5787    0.0000 H   0  0  0  0  0  0  0  0  0  0  0  0
   -1.5244    2.4136    0.0000 H   0  0  0  0  0  0  0  0  0  0  0  0
    0.6044    4.6934    0.0000 H   0  0  0  0  0  0  0  0  0  0  0  0
   -3.6368    3.5529    0.0000 H   0  0  0  0  0  0  0  0  0  0  0  0
   -5.5938    2.1415    0.0000 H   0  0  0  0  0  0  0  0  0  0  0  0
   -5.0096    1.1880    0.0000 H   0  0  0  0  0  0  0  0  0  0  0  0
   -5.0955    2.9764    0.0000 H   0  0  0  0  0  0  0  0  0  0  0  0
   -4.3724    0.4572    0.0000 H   0  0  0  0  0  0  0  0  0  0  0  0
   -3.2855    0.7140    0.0000 H   0  0  0  0  0  0  0  0  0  0  0  0
   -3.7873    1.2221    0.0000 H   0  0  0  0  0  0  0  0  0  0  0  0
   -3.5425   -0.6313    0.0000 H   0  0  0  0  0  0  0  0  0  0  0  0
   -3.9548    1.9365    0.0000 H   0  0  0  0  0  0  0  0  0  0  0  0
   -5.0249    1.9366    0.0000 H   0  0  0  0  0  0  0  0  0  0  0  0
   -1.8553   -0.4193    0.0000 H   0  0  0  0  0  0  0  0  0  0  0  0
   -5.4600   -0.4188    0.0000 H   0  0  0  0  0  0  0  0  0  0  0  0
   -5.8499    0.0833    0.0000 H   0  0  0  0  0  0  0  0  0  0  0  0
   -6.3849    1.0099    0.0000 H   0  0  0  0  0  0  0  0  0  0  0  0
   -5.2174    2.6077    0.0000 H   0  0  0  0  0  0  0  0  0  0  0  0
   -6.7474    1.7244    0.0000 H   0  0  0  0  0  0  0  0  0  0  0  0
   -3.9078   -1.8499    0.0000 H   0  0  0  0  0  0  0  0  0  0  0  0
   -2.1783   -2.5612    0.0000 H   0  0  0  0  0  0  0  0  0  0  0  0
   -2.2579   -0.4490    0.0000 H   0  0  0  0  0  0  0  0  0  0  0  0
   -3.5392   -1.6349    0.0000 H   0  0  0  0  0  0  0  0  0  0  0  0
   -3.9996   -1.0055    0.0000 H   0  0  0  0  0  0  0  0  0  0  0  0
   -3.3213   -4.1171    0.0000 H   0  0  0  0  0  0  0  0  0  0  0  0
   -5.8303   -2.3746    0.0000 H   0  0  0  0  0  0  0  0  0  0  0  0
   -3.0502   -3.9921    0.0000 H   0  0  0  0  0  0  0  0  0  0  0  0
   -3.9841   -5.5972    0.0000 H   0  0  0  0  0  0  0  0  0  0  0  0
   -6.7642   -3.9797    0.0000 H   0  0  0  0  0  0  0  0  0  0  0  0
   -6.6741   -5.4091    0.0000 H   0  0  0  0  0  0  0  0  0  0  0  0
   -3.6443    4.3143    0.0000 H   0  0  0  0  0  0  0  0  0  0  0  0
   -3.3705    3.7702    0.0000 H   0  0  0  0  0  0  0  0  0  0  0  0
   -3.9048    4.6972    0.0000 H   0  0  0  0  0  0  0  0  0  0  0  0
   -2.7109    6.3374    0.0000 H   0  0  0  0  0  0  0  0  0  0  0  0
   -3.7809    6.3385    0.0000 H   0  0  0  0  0  0  0  0  0  0  0  0
   -4.5764    6.2961    0.0000 H   0  0  0  0  0  0  0  0  0  0  0  0
   -4.5784    4.5294    0.0000 H   0  0  0  0  0  0  0  0  0  0  0  0
    0.3936    1.8481    0.0000 H   0  0  0  0  0  0  0  0  0  0  0  0
    1.4522    1.6963    0.0000 H   0  0  0  0  0  0  0  0  0  0  0  0
    2.3771    2.2323    0.0000 H   0  0  0  0  0  0  0  0  0  0  0  0
    2.8790    1.6963    0.0000 H   0  0  0  0  0  0  0  0  0  0  0  0
    3.8057    2.2313    0.0000 H   0  0  0  0  0  0  0  0  0  0  0  0
    2.8790    3.0112    0.0000 H   0  0  0  0  0  0  0  0  0  0  0  0
    3.8057    2.4762    0.0000 H   0  0  0  0  0  0  0  0  0  0  0  0
    2.1644    4.2488    0.0000 H   0  0  0  0  0  0  0  0  0  0  0  0
    1.2377    3.7138    0.0000 H   0  0  0  0  0  0  0  0  0  0  0  0
    1.2378    2.0638    0.0000 H   0  0  0  0  0  0  0  0  0  0  0  0
    2.1643    0.4587    0.0000 H   0  0  0  0  0  0  0  0  0  0  0  0
    1.2377    0.9938    0.0000 H   0  0  0  0  0  0  0  0  0  0  0  0
    4.3080    1.6963    0.0000 H   0  0  0  0  0  0  0  0  0  0  0  0
    5.2346    2.2312    0.0000 H   0  0  0  0  0  0  0  0  0  0  0  0
    4.3080    3.0112    0.0000 H   0  0  0  0  0  0  0  0  0  0  0  0
    5.2346    2.4763    0.0000 H   0  0  0  0  0  0  0  0  0  0  0  0
    3.5935    4.2488    0.0000 H   0  0  0  0  0  0  0  0  0  0  0  0
    2.6669    3.7138    0.0000 H   0  0  0  0  0  0  0  0  0  0  0  0
    4.5201    0.9936    0.0000 H   0  0  0  0  0  0  0  0  0  0  0  0
    6.6637    3.3013    0.0000 H   0  0  0  0  0  0  0  0  0  0  0  0
    5.7371    3.8363    0.0000 H   0  0  0  0  0  0  0  0  0  0  0  0
    6.6637    1.4062    0.0000 H   0  0  0  0  0  0  0  0  0  0  0  0
    5.7371    0.8712    0.0000 H   0  0  0  0  0  0  0  0  0  0  0  0
    5.0226    4.2488    0.0000 H   0  0  0  0  0  0  0  0  0  0  0  0
    4.0960    3.7139    0.0000 H   0  0  0  0  0  0  0  0  0  0  0  0
    5.9492    0.9936    0.0000 H   0  0  0  0  0  0  0  0  0  0  0  0
    2.6667    0.1688    0.0000 H   0  0  0  0  0  0  0  0  0  0  0  0
    4.5200    0.1686    0.0000 H   0  0  0  0  0  0  0  0  0  0  0  0
    3.5933   -0.3663    0.0000 H   0  0  0  0  0  0  0  0  0  0  0  0
    4.0956    0.1689    0.0000 H   0  0  0  0  0  0  0  0  0  0  0  0
    5.9489    0.1685    0.0000 H   0  0  0  0  0  0  0  0  0  0  0  0
    5.0221   -0.3663    0.0000 H   0  0  0  0  0  0  0  0  0  0  0  0
    0.9844   -3.5515    0.0000 H   0  0  0  0  0  0  0  0  0  0  0  0
  1 42  1  0  0  0  0
  1 78  1  6  0  0  0
  2  1  1  0  0  0  0
  3  1  1  0  0  0  0
  3 80  1  0  0  0  0
  3 81  1  0  0  0  0
  4  2  1  0  0  0  0
  4 82  1  0  0  0  0
  4 83  1  0  0  0  0
  5  3  1  0  0  0  0
  5  4  1  0  0  0  0
  5 76  1  0  0  0  0
  5 84  1  1  0  0  0
  6 85  1  0  0  0  0
  6 86  1  0  0  0  0
  6 87  1  0  0  0  0
  7  6  1  0  0  0  0
  7 11  1  0  0  0  0
  7 88  1  1  0  0  0
  8  9  1  0  0  0  0
  8  7  1  0  0  0  0
  8 13  1  0  0  0  0
  8 89  1  6  0  0  0
  9  2  1  0  0  0  0
  9 77  2  0  0  0  0
 11 90  1  0  0  0  0
 12 10  2  0  0  0  0
 13 12  1  0  0  0  0
 13 91  1  0  0  0  0
 14 16  1  0  0  0  0
 14 92  1  0  0  0  0
 14 93  1  0  0  0  0
 15 12  1  0  0  0  0
 15 14  1  0  0  0  0
 15 58  1  0  0  0  0
 15 79  1  1  0  0  0
 16 17  1  0  0  0  0
 16 20  1  0  0  0  0
 16 94  1  1  0  0  0
 17 18  1  0  0  0  0
 17 19  1  0  0  0  0
 17 95  1  1  0  0  0
 18 55  1  0  0  0  0
 18 96  1  0  0  0  0
 19 21  1  0  0  0  0
 19 97  1  0  0  0  0
 20 98  1  0  0  0  0
 21 23  2  0  0  0  0
 22 21  1  0  0  0  0
 22 26  1  0  0  0  0
 22 99  1  6  0  0  0
 24 27  1  0  0  0  0
 24 22  1  0  0  0  0
 24 28  1  0  0  0  0
 25100  1  0  0  0  0
 25101  1  0  0  0  0
 26 25  1  0  0  0  0
 26 54  1  0  0  0  0
 26102  1  1  0  0  0
 27 25  1  0  0  0  0
 27103  1  0  0  0  0
 27104  1  0  0  0  0
 28 32  2  0  0  0  0
 29 28  1  0  0  0  0
 29 33  1  0  0  0  0
 29105  1  6  0  0  0
 30 29  1  0  0  0  0
 30 34  1  0  0  0  0
 30106  1  1  0  0  0
 31 30  1  0  0  0  0
 31 35  1  0  0  0  0
 31107  1  0  0  0  0
 31108  1  0  0  0  0
 33 37  1  0  0  0  0
 33109  1  0  0  0  0
 34110  1  0  0  0  0
 35 36  1  0  0  0  0
 35111  1  0  0  0  0
 35112  1  0  0  0  0
 36113  1  0  0  0  0
 36114  1  0  0  0  0
 37 38  2  0  0  0  0
 39 37  1  0  0  0  0
 39 40  1  0  0  0  0
 39115  1  6  0  0  0
 40 44  1  0  0  0  0
 40 47  1  0  0  0  0
 40116  1  1  0  0  0
 41 42  1  0  0  0  0
 41 39  1  0  0  0  0
 41117  1  0  0  0  0
 42 43  2  0  0  0  0
 44 45  1  0  0  0  0
 44 46  1  0  0  0  0
 44118  1  1  0  0  0
 45 48  2  0  0  0  0
 45 49  1  0  0  0  0
 46119  1  0  0  0  0
 47120  1  0  0  0  0
 48 52  1  0  0  0  0
 48121  1  0  0  0  0
 49 50  2  0  0  0  0
 49122  1  0  0  0  0
 50 51  1  0  0  0  0
 50123  1  0  0  0  0
 51 52  2  0  0  0  0
 51 53  1  0  0  0  0
 52124  1  0  0  0  0
 53125  1  0  0  0  0
 54126  1  0  0  0  0
 55 56  1  0  0  0  0
 55127  1  0  0  0  0
 55128  1  0  0  0  0
 56 57  1  0  0  0  0
 56129  1  0  0  0  0
 56130  1  0  0  0  0
 57131  1  0  0  0  0
 57132  1  0  0  0  0
 58 59  1  0  0  0  0
 58133  1  0  0  0  0
 59 60  1  0  0  0  0
 59 61  2  0  0  0  0
 60 64  1  0  0  0  0
 60134  1  0  0  0  0
 60135  1  0  0  0  0
 62 68  1  0  0  0  0
 62136  1  0  0  0  0
 62137  1  0  0  0  0
 63 69  1  0  0  0  0
 63138  1  0  0  0  0
 63139  1  0  0  0  0
 64 62  1  0  0  0  0
 64140  1  0  0  0  0
 64141  1  0  0  0  0
 65 63  1  0  0  0  0
 65142  1  0  0  0  0
 65143  1  0  0  0  0
 65144  1  0  0  0  0
 66 72  1  0  0  0  0
 66145  1  0  0  0  0
 66146  1  0  0  0  0
 67 73  1  0  0  0  0
 67147  1  0  0  0  0
 67148  1  0  0  0  0
 68 66  1  0  0  0  0
 68149  1  0  0  0  0
 68150  1  0  0  0  0
 69 67  1  0  0  0  0
 69 74  1  0  0  0  0
 69151  1  6  0  0  0
 70152  1  0  0  0  0
 70153  1  0  0  0  0
 71 70  1  0  0  0  0
 71154  1  0  0  0  0
 71155  1  0  0  0  0
 72 70  1  0  0  0  0
 72156  1  0  0  0  0
 72157  1  0  0  0  0
 73 71  1  0  0  0  0
 73 75  1  0  0  0  0
 73158  1  6  0  0  0
 74159  1  0  0  0  0
 74160  1  0  0  0  0
 74161  1  0  0  0  0
 75162  1  0  0  0  0
 75163  1  0  0  0  0
 75164  1  0  0  0  0
 76165  1  0  0  0  0
M  END
>  <DRUGBANK_ID>
DB00520

>  <SECONDARY_ACCESSION_NUMBERS>
APRD00199

>  <COMMON_NAME>
Caspofungin

>  <CAS_NUMBER>
162808-62-0

>  <UNII>
F0XDI6ZL63

>  <SYNONYMS>
(4R,5S)-5-((2-Aminoethyl)amino)-N(sup 2)-(10,12-dimethyltetradecanoyl)-4-hydroxy-L-ornithyl-L-threonyl-trans-4-hydroxy-L-prolyl-(S)-4-hydroxy-4-(p-hydroxyphenyl)-L-threonyl-threo-3-hydroxy-L-ornithyl-trans-3-hydroxy-L-proline cyclic (6-1)-peptide; Caspofungin; Caspofungina

$$$$
