5B3
 OpenBabel10282417072D

 44 46  0  0  0  0  0  0  0  0999 V2000
    1.9049    0.4802    0.0000 O   0  0  0  0  0  0  0  0  0  0  0  0
    0.0635    1.4158    0.0000 C   0  0  0  0  0  0  0  0  0  0  0  0
    1.0799   -0.9487    0.0000 O   0  0  0  0  0  0  0  0  0  0  0  0
    0.7780    1.0033    0.0000 C   0  0  0  0  0  0  0  0  0  0  0  0
    2.2069   -2.2967    0.0000 C   0  0  0  0  0  0  0  0  0  0  0  0
    2.2069   -0.6467    0.0000 N   0  0  0  0  0  0  0  0  0  0  0  0
    0.7780    0.1783    0.0000 C   0  0  0  0  0  0  0  0  0  0  0  0
    3.0319   -1.4717    0.0000 C   0  0  0  0  0  0  0  0  0  0  0  0
    1.3819   -1.4717    0.0000 C   0  0  0  0  0  0  0  0  0  0  0  0
    2.2069   -1.4717    0.0000 C   0  0  0  0  0  0  0  0  0  0  0  0
    1.4924   -0.2342    0.0000 S   0  0  0  0  0  0  0  0  0  0  0  0
    0.0635   -0.2342    0.0000 C   0  0  0  0  0  0  0  0  0  0  0  0
   -0.6510    0.1783    0.0000 C   0  0  0  0  0  0  0  0  0  0  0  0
   -0.6510    1.0033    0.0000 C   0  0  0  0  0  0  0  0  0  0  0  0
   -1.3655    1.4158    0.0000 C   0  0  0  0  0  0  0  0  0  0  0  0
   -2.0799    1.0033    0.0000 C   0  0  0  0  0  0  0  0  0  0  0  0
   -2.7944    1.4158    0.0000 C   0  0  0  0  0  0  0  0  0  0  0  0
   -3.5790    1.1608    0.0000 C   0  0  0  0  0  0  0  0  0  0  0  0
   -3.8340    0.3762    0.0000 N   0  0  0  0  0  0  0  0  0  0  0  0
   -4.0639    1.8283    0.0000 N   0  0  0  0  0  0  0  0  0  0  0  0
   -3.5790    2.4957    0.0000 N   0  0  0  0  0  0  0  0  0  0  0  0
   -2.7944    2.2408    0.0000 C   0  0  0  0  0  0  0  0  0  0  0  0
   -2.0799    2.6533    0.0000 C   0  0  0  0  0  0  0  0  0  0  0  0
   -1.3655    2.2408    0.0000 C   0  0  0  0  0  0  0  0  0  0  0  0
    0.0635    2.4478    0.0000 H   0  0  0  0  0  0  0  0  0  0  0  0
    1.6717    1.5193    0.0000 H   0  0  0  0  0  0  0  0  0  0  0  0
    1.2803   -2.8317    0.0000 H   0  0  0  0  0  0  0  0  0  0  0  0
    3.1335   -2.8317    0.0000 H   0  0  0  0  0  0  0  0  0  0  0  0
    2.2069   -3.3667    0.0000 H   0  0  0  0  0  0  0  0  0  0  0  0
    3.0902   -0.1367    0.0000 H   0  0  0  0  0  0  0  0  0  0  0  0
    3.5669   -2.3983    0.0000 H   0  0  0  0  0  0  0  0  0  0  0  0
    3.5669   -0.5451    0.0000 H   0  0  0  0  0  0  0  0  0  0  0  0
    4.1019   -1.4717    0.0000 H   0  0  0  0  0  0  0  0  0  0  0  0
    0.8469   -0.5451    0.0000 H   0  0  0  0  0  0  0  0  0  0  0  0
    0.8469   -2.3983    0.0000 H   0  0  0  0  0  0  0  0  0  0  0  0
    0.3119   -1.4717    0.0000 H   0  0  0  0  0  0  0  0  0  0  0  0
    0.0635   -1.2662    0.0000 H   0  0  0  0  0  0  0  0  0  0  0  0
   -1.5447   -0.3377    0.0000 H   0  0  0  0  0  0  0  0  0  0  0  0
   -2.0799   -0.0287    0.0000 H   0  0  0  0  0  0  0  0  0  0  0  0
   -4.7970    0.1716    0.0000 H   0  0  0  0  0  0  0  0  0  0  0  0
   -3.1753   -0.3555    0.0000 H   0  0  0  0  0  0  0  0  0  0  0  0
   -3.8832    3.4320    0.0000 H   0  0  0  0  0  0  0  0  0  0  0  0
   -2.0799    3.6853    0.0000 H   0  0  0  0  0  0  0  0  0  0  0  0
   -0.4718    2.7568    0.0000 H   0  0  0  0  0  0  0  0  0  0  0  0
  1 11  2  0  0  0  0
  2  4  2  0  0  0  0
  2 14  1  0  0  0  0
  2 25  1  0  0  0  0
  3 11  2  0  0  0  0
  4  7  1  0  0  0  0
  4 26  1  0  0  0  0
  5 10  1  0  0  0  0
  5 27  1  0  0  0  0
  5 28  1  0  0  0  0
  5 29  1  0  0  0  0
  6 10  1  0  0  0  0
  6 11  1  0  0  0  0
  6 30  1  0  0  0  0
  7 11  1  0  0  0  0
  7 12  2  0  0  0  0
  8 10  1  0  0  0  0
  8 31  1  0  0  0  0
  8 32  1  0  0  0  0
  8 33  1  0  0  0  0
  9 10  1  0  0  0  0
  9 34  1  0  0  0  0
  9 35  1  0  0  0  0
  9 36  1  0  0  0  0
 12 13  1  0  0  0  0
 12 37  1  0  0  0  0
 13 14  2  0  0  0  0
 13 38  1  0  0  0  0
 14 15  1  0  0  0  0
 15 16  2  0  0  0  0
 15 24  1  0  0  0  0
 16 17  1  0  0  0  0
 16 39  1  0  0  0  0
 17 18  1  0  0  0  0
 17 22  2  0  0  0  0
 18 19  1  0  0  0  0
 18 20  2  0  0  0  0
 19 40  1  0  0  0  0
 19 41  1  0  0  0  0
 20 21  1  0  0  0  0
 21 22  1  0  0  0  0
 21 42  1  0  0  0  0
 22 23  1  0  0  0  0
 23 24  2  0  0  0  0
 23 43  1  0  0  0  0
 24 44  1  0  0  0  0
M  END
>  <DRUGBANK_ID>
DB07162

>  <COMMON_NAME>
4-(3-amino-1H-indazol-5-yl)-N-tert-butylbenzenesulfonamide

$$$$
