
 OpenBabel10282417072D

 45 48  0  0  0  0  0  0  0  0999 V2000
    2.5015   -0.5502    0.0000 P   0  0  1  0  0  0  0  0  0  0  0  0
    0.5018    2.3030    0.0000 P   0  0  1  0  0  0  0  0  0  0  0  0
    0.8013    3.7002    0.0000 P   0  0  0  0  0  0  0  0  0  0  0  0
   -0.0301   -0.5459    0.0000 O   0  0  0  0  0  0  0  0  0  0  0  0
    2.0189   -1.2133    0.0000 O   0  0  0  0  0  0  0  0  0  0  0  0
    2.0212    0.1144    0.0000 O   0  0  0  0  0  0  0  0  0  0  0  0
    0.7553    1.5179    0.0000 O   0  0  0  0  0  0  0  0  0  0  0  0
    3.1698   -0.0664    0.0000 O   0  0  0  0  0  0  0  0  0  0  0  0
    3.1682   -1.0363    0.0000 O   0  0  0  0  0  0  0  0  0  0  0  0
    0.2482    3.0881    0.0000 O   0  0  0  0  0  0  0  0  0  0  0  0
    1.2870    2.5565    0.0000 O   0  0  0  0  0  0  0  0  0  0  0  0
   -0.2832    2.0494    0.0000 O   0  0  0  0  0  0  0  0  0  0  0  0
   -1.2978   -4.3124    0.0000 O   0  0  0  0  0  0  0  0  0  0  0  0
    0.1892    4.2533    0.0000 O   0  0  0  0  0  0  0  0  0  0  0  0
    1.3544    4.3124    0.0000 O   0  0  0  0  0  0  0  0  0  0  0  0
    1.4135    3.1471    0.0000 O   0  0  0  0  0  0  0  0  0  0  0  0
    0.1972   -1.9984    0.0000 N   0  0  0  0  0  0  0  0  0  0  0  0
    0.1972   -3.3262    0.0000 N   0  0  0  0  0  0  0  0  0  0  0  0
   -1.2978   -1.8373    0.0000 N   0  0  0  0  0  0  0  0  0  0  0  0
   -2.0122   -3.0748    0.0000 N   0  0  0  0  0  0  0  0  0  0  0  0
   -2.7268   -1.8373    0.0000 N   0  0  0  0  0  0  0  0  0  0  0  0
    1.2386   -0.9606    0.0000 C   0  0  2  0  0  0  0  0  0  0  0  0
    1.2400   -0.1356    0.0000 C   0  0  1  0  0  0  0  0  0  0  0  0
    0.4535   -1.2142    0.0000 C   0  0  1  0  0  0  0  0  0  0  0  0
    0.4559    0.1207    0.0000 C   0  0  1  0  0  0  0  0  0  0  0  0
    0.2022    0.9057    0.0000 C   0  0  0  0  0  0  0  0  0  0  0  0
   -0.5833   -2.2498    0.0000 C   0  0  0  0  0  0  0  0  0  0  0  0
    0.6787   -2.6623    0.0000 C   0  0  0  0  0  0  0  0  0  0  0  0
   -0.5833   -3.0748    0.0000 C   0  0  0  0  0  0  0  0  0  0  0  0
   -1.2978   -3.4874    0.0000 C   0  0  0  0  0  0  0  0  0  0  0  0
   -2.0122   -2.2498    0.0000 C   0  0  0  0  0  0  0  0  0  0  0  0
    1.2383   -1.6207    0.0000 H   0  0  0  0  0  0  0  0  0  0  0  0
    1.2420    0.5244    0.0000 H   0  0  0  0  0  0  0  0  0  0  0  0
   -1.2978   -1.3257    0.0000 H   0  0  0  0  0  0  0  0  0  0  0  0
   -3.1698   -2.0931    0.0000 H   0  0  0  0  0  0  0  0  0  0  0  0
   -2.7268   -1.3257    0.0000 H   0  0  0  0  0  0  0  0  0  0  0  0
    4.0553   -0.4625    0.0000 H   0  0  0  0  0  0  0  0  0  0  0  0
    2.0066    1.9061    0.0000 H   0  0  0  0  0  0  0  0  0  0  0  0
    0.3926    5.2017    0.0000 H   0  0  0  0  0  0  0  0  0  0  0  0
    2.3029    4.1091    0.0000 H   0  0  0  0  0  0  0  0  0  0  0  0
   -0.6036   -1.3797    0.0000 H   0  0  0  0  0  0  0  0  0  0  0  0
   -0.6007    0.2898    0.0000 H   0  0  0  0  0  0  0  0  0  0  0  0
   -0.8441    1.1299    0.0000 H   0  0  0  0  0  0  0  0  0  0  0  0
   -0.5150    0.1117    0.0000 H   0  0  0  0  0  0  0  0  0  0  0  0
    1.7107   -2.6623    0.0000 H   0  0  0  0  0  0  0  0  0  0  0  0
  1  5  1  0  0  0  0
  1  6  1  0  0  0  0
  1  8  1  0  0  0  0
  1  9  2  6  0  0  0
  2  7  1  0  0  0  0
  2 10  1  0  0  0  0
  2 11  1  0  0  0  0
  2 12  2  6  0  0  0
  3 10  1  0  0  0  0
  3 14  1  0  0  0  0
  3 15  1  0  0  0  0
  3 16  2  0  0  0  0
  4 24  1  0  0  0  0
  4 25  1  0  0  0  0
  5 22  1  0  0  0  0
  6 23  1  0  0  0  0
  7 26  1  0  0  0  0
  8 37  1  0  0  0  0
 11 38  1  0  0  0  0
 13 30  2  0  0  0  0
 14 39  1  0  0  0  0
 15 40  1  0  0  0  0
 17 27  1  0  0  0  0
 17 28  1  0  0  0  0
 18 28  2  0  0  0  0
 18 29  1  0  0  0  0
 19 27  1  0  0  0  0
 19 31  1  0  0  0  0
 19 34  1  0  0  0  0
 20 30  1  0  0  0  0
 20 31  2  0  0  0  0
 21 31  1  0  0  0  0
 21 35  1  0  0  0  0
 21 36  1  0  0  0  0
 22 23  1  0  0  0  0
 22 24  1  0  0  0  0
 22 32  1  6  0  0  0
 23 25  1  0  0  0  0
 23 33  1  6  0  0  0
 24 17  1  0  0  0  0
 24 41  1  1  0  0  0
 25 26  1  0  0  0  0
 25 42  1  1  0  0  0
 26 43  1  0  0  0  0
 26 44  1  0  0  0  0
 27 29  2  0  0  0  0
 28 45  1  0  0  0  0
 29 30  1  0  0  0  0
M  END
>  <DRUGBANK_ID>
DB02836

>  <SECONDARY_ACCESSION_NUMBERS>
EXPT01643

>  <COMMON_NAME>
Guanosine 5'-diphosphate 2':3'-cyclic monophosphate

$$$$
