
 OpenBabel10282417072D

 42 43  0  0  0  0  0  0  0  0999 V2000
    0.7545   -1.3553    0.0000 O   0  0  0  0  0  0  0  0  0  0  0  0
    0.2948   -0.6701    0.0000 C   0  0  1  0  0  0  0  0  0  0  0  0
    0.5789    0.1043    0.0000 C   0  0  1  0  0  0  0  0  0  0  0  0
   -0.0699    0.6138    0.0000 O   0  0  0  0  0  0  0  0  0  0  0  0
   -0.7550    0.1541    0.0000 C   0  0  1  0  0  0  0  0  0  0  0  0
   -0.5296   -0.6394    0.0000 C   0  0  1  0  0  0  0  0  0  0  0  0
   -1.0391   -1.2883    0.0000 O   0  0  0  0  0  0  0  0  0  0  0  0
   -1.5297    0.4382    0.0000 C   0  0  0  0  0  0  0  0  0  0  0  0
   -2.1630   -0.0905    0.0000 O   0  0  0  0  0  0  0  0  0  0  0  0
   -2.9376    0.1934    0.0000 C   0  0  0  0  0  0  0  0  0  0  0  0
   -3.5709   -0.3353    0.0000 C   0  0  0  0  0  0  0  0  0  0  0  0
   -4.3454   -0.0512    0.0000 C   0  0  0  0  0  0  0  0  0  0  0  0
   -3.4296   -1.1482    0.0000 C   0  0  0  0  0  0  0  0  0  0  0  0
   -3.0788    1.0062    0.0000 O   0  0  0  0  0  0  0  0  0  0  0  0
    1.3724    0.3298    0.0000 N   0  0  0  0  0  0  0  0  0  0  0  0
    1.9646   -0.2446    0.0000 C   0  0  0  0  0  0  0  0  0  0  0  0
    1.7630   -1.0447    0.0000 O   0  0  0  0  0  0  0  0  0  0  0  0
    2.7583   -0.0191    0.0000 N   0  0  0  0  0  0  0  0  0  0  0  0
    2.9598    0.7808    0.0000 C   0  0  0  0  0  0  0  0  0  0  0  0
    2.3677    1.3553    0.0000 C   0  0  0  0  0  0  0  0  0  0  0  0
    1.5740    1.1298    0.0000 C   0  0  0  0  0  0  0  0  0  0  0  0
    3.7533    1.0063    0.0000 N   0  0  0  0  0  0  0  0  0  0  0  0
    4.3454    0.4318    0.0000 O   0  0  0  0  0  0  0  0  0  0  0  0
    0.3271   -2.2261    0.0000 H   0  0  0  0  0  0  0  0  0  0  0  0
    1.3571   -0.5424    0.0000 H   0  0  0  0  0  0  0  0  0  0  0  0
    1.3067   -0.6800    0.0000 H   0  0  0  0  0  0  0  0  0  0  0  0
   -0.8828    1.2164    0.0000 H   0  0  0  0  0  0  0  0  0  0  0  0
   -1.5794   -0.4327    0.0000 H   0  0  0  0  0  0  0  0  0  0  0  0
   -1.9993   -1.1510    0.0000 H   0  0  0  0  0  0  0  0  0  0  0  0
   -1.7129    1.4924    0.0000 H   0  0  0  0  0  0  0  0  0  0  0  0
   -2.5343    0.8067    0.0000 H   0  0  0  0  0  0  0  0  0  0  0  0
   -4.3923   -1.0211    0.0000 H   0  0  0  0  0  0  0  0  0  0  0  0
   -4.5286    1.0030    0.0000 H   0  0  0  0  0  0  0  0  0  0  0  0
   -5.1668   -0.7369    0.0000 H   0  0  0  0  0  0  0  0  0  0  0  0
   -5.3499    0.3173    0.0000 H   0  0  0  0  0  0  0  0  0  0  0  0
   -4.2509   -1.8340    0.0000 H   0  0  0  0  0  0  0  0  0  0  0  0
   -2.4250   -1.5166    0.0000 H   0  0  0  0  0  0  0  0  0  0  0  0
   -3.2464   -2.2024    0.0000 H   0  0  0  0  0  0  0  0  0  0  0  0
    3.4648   -0.7047    0.0000 H   0  0  0  0  0  0  0  0  0  0  0  0
    2.6198    2.3560    0.0000 H   0  0  0  0  0  0  0  0  0  0  0  0
    0.8334    1.8485    0.0000 H   0  0  0  0  0  0  0  0  0  0  0  0
    4.1166   -0.4768    0.0000 H   0  0  0  0  0  0  0  0  0  0  0  0
  1 24  1  0  0  0  0
  2  1  1  0  0  0  0
  2  3  1  0  0  0  0
  2  6  1  0  0  0  0
  2 25  1  1  0  0  0
  3  4  1  0  0  0  0
  3 15  1  0  0  0  0
  3 26  1  6  0  0  0
  4  5  1  0  0  0  0
  5  8  1  0  0  0  0
  5 27  1  6  0  0  0
  6  5  1  0  0  0  0
  6  7  1  0  0  0  0
  6 28  1  1  0  0  0
  7 29  1  0  0  0  0
  8  9  1  0  0  0  0
  8 30  1  0  0  0  0
  8 31  1  0  0  0  0
  9 10  1  0  0  0  0
 10 11  1  0  0  0  0
 10 14  2  0  0  0  0
 11 12  1  0  0  0  0
 11 13  1  0  0  0  0
 11 32  1  0  0  0  0
 12 33  1  0  0  0  0
 12 34  1  0  0  0  0
 12 35  1  0  0  0  0
 13 36  1  0  0  0  0
 13 37  1  0  0  0  0
 13 38  1  0  0  0  0
 15 16  1  0  0  0  0
 15 21  1  0  0  0  0
 16 17  2  0  0  0  0
 16 18  1  0  0  0  0
 18 19  1  0  0  0  0
 18 39  1  0  0  0  0
 19 22  2  0  0  0  0
 20 19  1  0  0  0  0
 20 40  1  0  0  0  0
 21 20  2  0  0  0  0
 21 41  1  0  0  0  0
 22 23  1  0  0  0  0
 23 42  1  0  0  0  0
M  END
>  <DRUGBANK_ID>
DB15661

>  <COMMON_NAME>
Molnupiravir

>  <CAS_NUMBER>
2349386-89-4

>  <UNII>
YA84KI1VEW

>  <SYNONYMS>
Molnupiravir

$$$$
