WAY
 OpenBabel10282417072D

 51 53  0  0  0  0  0  0  0  0999 V2000
   -0.7795   -1.2126    0.0000 C   0  0  0  0  0  0  0  0  0  0  0  0
   -0.0650   -1.6251    0.0000 C   0  0  0  0  0  0  0  0  0  0  0  0
   -0.0650   -2.4501    0.0000 C   0  0  0  0  0  0  0  0  0  0  0  0
   -0.7795   -2.8626    0.0000 C   0  0  0  0  0  0  0  0  0  0  0  0
   -1.4939   -2.4501    0.0000 C   0  0  0  0  0  0  0  0  0  0  0  0
   -1.4939   -1.6251    0.0000 C   0  0  0  0  0  0  0  0  0  0  0  0
    0.6495   -1.2126    0.0000 C   0  0  0  0  0  0  0  0  0  0  0  0
    0.6495   -0.3876    0.0000 O   0  0  0  0  0  0  0  0  0  0  0  0
    1.3639   -1.6251    0.0000 N   0  0  0  0  0  0  0  0  0  0  0  0
    2.0784   -1.2126    0.0000 O   0  0  0  0  0  0  0  0  0  0  0  0
   -2.2084   -1.2126    0.0000 C   0  0  0  0  0  0  0  0  0  0  0  0
   -0.7795   -0.3876    0.0000 N   0  0  0  0  0  0  0  0  0  0  0  0
   -0.0650    0.0249    0.0000 S   0  0  0  0  0  0  0  0  0  0  0  0
   -1.4939    0.0249    0.0000 C   0  0  0  0  0  0  0  0  0  0  0  0
   -2.2084    2.0874    0.0000 C   0  0  0  0  0  0  0  0  0  0  0  0
   -1.4939    2.4999    0.0000 C   0  0  0  0  0  0  0  0  0  0  0  0
   -0.7795    2.0874    0.0000 N   0  0  0  0  0  0  0  0  0  0  0  0
   -0.7795    1.2624    0.0000 C   0  0  0  0  0  0  0  0  0  0  0  0
   -1.4939    0.8499    0.0000 C   0  0  0  0  0  0  0  0  0  0  0  0
   -2.2084    1.2624    0.0000 C   0  0  0  0  0  0  0  0  0  0  0  0
    0.6495    0.4374    0.0000 C   0  0  0  0  0  0  0  0  0  0  0  0
    0.6495    1.2624    0.0000 C   0  0  0  0  0  0  0  0  0  0  0  0
    1.3639    1.6749    0.0000 C   0  0  0  0  0  0  0  0  0  0  0  0
    2.0784    1.2624    0.0000 C   0  0  0  0  0  0  0  0  0  0  0  0
    2.0784    0.4374    0.0000 C   0  0  0  0  0  0  0  0  0  0  0  0
    1.3639    0.0249    0.0000 C   0  0  0  0  0  0  0  0  0  0  0  0
    2.7929    1.6749    0.0000 O   0  0  0  0  0  0  0  0  0  0  0  0
    2.7929    2.4999    0.0000 C   0  0  0  0  0  0  0  0  0  0  0  0
    0.3475   -0.6896    0.0000 O   0  0  0  0  0  0  0  0  0  0  0  0
   -0.4775    0.7394    0.0000 O   0  0  0  0  0  0  0  0  0  0  0  0
    0.8287   -2.9661    0.0000 H   0  0  0  0  0  0  0  0  0  0  0  0
   -0.7795   -3.8946    0.0000 H   0  0  0  0  0  0  0  0  0  0  0  0
   -2.3876   -2.9661    0.0000 H   0  0  0  0  0  0  0  0  0  0  0  0
    1.3639   -2.6096    0.0000 H   0  0  0  0  0  0  0  0  0  0  0  0
    2.9184   -1.6976    0.0000 H   0  0  0  0  0  0  0  0  0  0  0  0
   -2.2084   -0.1426    0.0000 H   0  0  0  0  0  0  0  0  0  0  0  0
   -3.1350   -1.7476    0.0000 H   0  0  0  0  0  0  0  0  0  0  0  0
   -3.1351   -0.6776    0.0000 H   0  0  0  0  0  0  0  0  0  0  0  0
   -2.4206   -0.5101    0.0000 H   0  0  0  0  0  0  0  0  0  0  0  0
   -2.4205    0.5599    0.0000 H   0  0  0  0  0  0  0  0  0  0  0  0
   -3.1021    2.6034    0.0000 H   0  0  0  0  0  0  0  0  0  0  0  0
   -1.4939    3.5319    0.0000 H   0  0  0  0  0  0  0  0  0  0  0  0
    0.1142    0.7464    0.0000 H   0  0  0  0  0  0  0  0  0  0  0  0
   -3.1021    0.7464    0.0000 H   0  0  0  0  0  0  0  0  0  0  0  0
   -0.2442    1.7784    0.0000 H   0  0  0  0  0  0  0  0  0  0  0  0
    1.3639    2.7069    0.0000 H   0  0  0  0  0  0  0  0  0  0  0  0
    2.9721   -0.0786    0.0000 H   0  0  0  0  0  0  0  0  0  0  0  0
    1.3639   -1.0071    0.0000 H   0  0  0  0  0  0  0  0  0  0  0  0
    3.7195    3.0349    0.0000 H   0  0  0  0  0  0  0  0  0  0  0  0
    1.8663    3.0349    0.0000 H   0  0  0  0  0  0  0  0  0  0  0  0
    2.7929    3.5699    0.0000 H   0  0  0  0  0  0  0  0  0  0  0  0
  1  2  2  0  0  0  0
  1  6  1  0  0  0  0
  1 12  1  0  0  0  0
  2  3  1  0  0  0  0
  2  7  1  0  0  0  0
  3  4  2  0  0  0  0
  3 31  1  0  0  0  0
  4  5  1  0  0  0  0
  4 32  1  0  0  0  0
  5  6  2  0  0  0  0
  5 33  1  0  0  0  0
  6 11  1  0  0  0  0
  7  8  2  0  0  0  0
  7  9  1  0  0  0  0
  9 10  1  0  0  0  0
  9 34  1  0  0  0  0
 10 35  1  0  0  0  0
 11 36  1  0  0  0  0
 11 37  1  0  0  0  0
 11 38  1  0  0  0  0
 12 13  1  0  0  0  0
 12 14  1  0  0  0  0
 13 21  1  0  0  0  0
 13 29  2  0  0  0  0
 13 30  2  0  0  0  0
 14 19  1  0  0  0  0
 14 39  1  0  0  0  0
 14 40  1  0  0  0  0
 15 16  2  0  0  0  0
 15 20  1  0  0  0  0
 15 41  1  0  0  0  0
 16 17  1  0  0  0  0
 16 42  1  0  0  0  0
 17 18  2  0  0  0  0
 18 19  1  0  0  0  0
 18 43  1  0  0  0  0
 19 20  2  0  0  0  0
 20 44  1  0  0  0  0
 21 22  2  0  0  0  0
 21 26  1  0  0  0  0
 22 23  1  0  0  0  0
 22 45  1  0  0  0  0
 23 24  2  0  0  0  0
 23 46  1  0  0  0  0
 24 25  1  0  0  0  0
 24 27  1  0  0  0  0
 25 26  2  0  0  0  0
 25 47  1  0  0  0  0
 26 48  1  0  0  0  0
 27 28  1  0  0  0  0
 28 49  1  0  0  0  0
 28 50  1  0  0  0  0
 28 51  1  0  0  0  0
M  END
>  <DRUGBANK_ID>
DB02071

>  <SECONDARY_ACCESSION_NUMBERS>
EXPT03240

>  <COMMON_NAME>
WAY-151693

>  <SYNONYMS>
N-Hydroxy-2-{[(4-methoxyphenyl)sulfonyl](3-pyridinylmethyl)amino}-3-methylbenzamide

$$$$
