4UN
 OpenBabel10282417072D

 53 56  0  0  0  0  0  0  0  0999 V2000
    1.7372    3.9352    0.0000 O   0  0  0  0  0  0  0  0  0  0  0  0
    1.9922    3.1506    0.0000 S   0  0  0  0  0  0  0  0  0  0  0  0
    1.2075    2.8957    0.0000 O   0  0  0  0  0  0  0  0  0  0  0  0
    2.7768    3.4056    0.0000 O   0  0  0  0  0  0  0  0  0  0  0  0
    2.2471    2.3660    0.0000 N   0  0  0  0  0  0  0  0  0  0  0  0
    1.6951    1.7529    0.0000 C   0  0  0  0  0  0  0  0  0  0  0  0
    1.9500    0.9683    0.0000 C   0  0  0  0  0  0  0  0  0  0  0  0
    1.3980    0.3552    0.0000 C   0  0  0  0  0  0  0  0  0  0  0  0
    0.5910    0.5267    0.0000 C   0  0  0  0  0  0  0  0  0  0  0  0
    0.3361    1.3113    0.0000 C   0  0  0  0  0  0  0  0  0  0  0  0
    0.8881    1.9244    0.0000 C   0  0  0  0  0  0  0  0  0  0  0  0
    0.0390   -0.0864    0.0000 C   0  0  0  0  0  0  0  0  0  0  0  0
    0.0390   -0.9114    0.0000 C   0  0  0  0  0  0  0  0  0  0  0  0
    0.0390   -1.7364    0.0000 C   0  0  0  0  0  0  0  0  0  0  0  0
    0.7064   -2.2213    0.0000 N   0  0  0  0  0  0  0  0  0  0  0  0
    0.4515   -3.0059    0.0000 O   0  0  0  0  0  0  0  0  0  0  0  0
   -0.3735   -3.0059    0.0000 C   0  0  0  0  0  0  0  0  0  0  0  0
   -0.8584   -3.6734    0.0000 C   0  0  0  0  0  0  0  0  0  0  0  0
   -0.6285   -2.2213    0.0000 N   0  0  0  0  0  0  0  0  0  0  0  0
    0.8640   -0.9114    0.0000 C   0  0  0  0  0  0  0  0  0  0  0  0
    1.3489   -0.2439    0.0000 N   0  0  0  0  0  0  0  0  0  0  0  0
    2.1335   -0.4989    0.0000 O   0  0  0  0  0  0  0  0  0  0  0  0
    2.1335   -1.3239    0.0000 C   0  0  0  0  0  0  0  0  0  0  0  0
    2.8010   -1.8088    0.0000 C   0  0  0  0  0  0  0  0  0  0  0  0
    1.3489   -1.5788    0.0000 N   0  0  0  0  0  0  0  0  0  0  0  0
   -0.7860   -0.9114    0.0000 C   0  0  0  0  0  0  0  0  0  0  0  0
   -1.1985   -0.1969    0.0000 C   0  0  0  0  0  0  0  0  0  0  0  0
   -2.0235   -0.1969    0.0000 C   0  0  0  0  0  0  0  0  0  0  0  0
   -2.4360    0.5176    0.0000 C   0  0  0  0  0  0  0  0  0  0  0  0
   -2.0235    1.2320    0.0000 C   0  0  0  0  0  0  0  0  0  0  0  0
   -1.1985    1.2320    0.0000 C   0  0  0  0  0  0  0  0  0  0  0  0
   -0.7860    0.5176    0.0000 C   0  0  0  0  0  0  0  0  0  0  0  0
    3.4977    2.7566    0.0000 H   0  0  0  0  0  0  0  0  0  0  0  0
    3.2101    2.1613    0.0000 H   0  0  0  0  0  0  0  0  0  0  0  0
    2.9594    0.7537    0.0000 H   0  0  0  0  0  0  0  0  0  0  0  0
    1.7169   -0.6263    0.0000 H   0  0  0  0  0  0  0  0  0  0  0  0
   -0.6733    1.5259    0.0000 H   0  0  0  0  0  0  0  0  0  0  0  0
    0.5692    2.9059    0.0000 H   0  0  0  0  0  0  0  0  0  0  0  0
   -0.9599    0.2970    0.0000 H   0  0  0  0  0  0  0  0  0  0  0  0
   -0.8428   -0.6925    0.0000 H   0  0  0  0  0  0  0  0  0  0  0  0
   -1.9225   -3.5616    0.0000 H   0  0  0  0  0  0  0  0  0  0  0  0
   -0.4231   -4.6509    0.0000 H   0  0  0  0  0  0  0  0  0  0  0  0
   -1.4873   -4.5391    0.0000 H   0  0  0  0  0  0  0  0  0  0  0  0
    2.6892   -2.8729    0.0000 H   0  0  0  0  0  0  0  0  0  0  0  0
    3.7785   -1.3735    0.0000 H   0  0  0  0  0  0  0  0  0  0  0  0
    3.6667   -2.4377    0.0000 H   0  0  0  0  0  0  0  0  0  0  0  0
   -1.3210   -1.8380    0.0000 H   0  0  0  0  0  0  0  0  0  0  0  0
   -1.8560   -0.9114    0.0000 H   0  0  0  0  0  0  0  0  0  0  0  0
   -2.5395   -1.0906    0.0000 H   0  0  0  0  0  0  0  0  0  0  0  0
   -3.4680    0.5176    0.0000 H   0  0  0  0  0  0  0  0  0  0  0  0
   -2.5395    2.1257    0.0000 H   0  0  0  0  0  0  0  0  0  0  0  0
   -0.6825    2.1257    0.0000 H   0  0  0  0  0  0  0  0  0  0  0  0
    0.2460    0.5176    0.0000 H   0  0  0  0  0  0  0  0  0  0  0  0
  1  2  2  0  0  0  0
  2  3  2  0  0  0  0
  2  4  1  0  0  0  0
  2  5  1  0  0  0  0
  4 33  1  0  0  0  0
  5  6  1  0  0  0  0
  5 34  1  0  0  0  0
  6  7  2  0  0  0  0
  6 11  1  0  0  0  0
  7  8  1  0  0  0  0
  7 35  1  0  0  0  0
  8  9  2  0  0  0  0
  8 36  1  0  0  0  0
  9 10  1  0  0  0  0
  9 12  1  0  0  0  0
 10 11  2  0  0  0  0
 10 37  1  0  0  0  0
 11 38  1  0  0  0  0
 12 13  1  0  0  0  0
 12 39  1  0  0  0  0
 12 40  1  0  0  0  0
 13 14  1  0  0  0  0
 13 20  1  0  0  0  0
 13 26  1  0  0  0  0
 14 15  2  0  0  0  0
 14 19  1  0  0  0  0
 15 16  1  0  0  0  0
 16 17  1  0  0  0  0
 17 18  1  0  0  0  0
 17 19  2  0  0  0  0
 18 41  1  0  0  0  0
 18 42  1  0  0  0  0
 18 43  1  0  0  0  0
 20 21  2  0  0  0  0
 20 25  1  0  0  0  0
 21 22  1  0  0  0  0
 22 23  1  0  0  0  0
 23 24  1  0  0  0  0
 23 25  2  0  0  0  0
 24 44  1  0  0  0  0
 24 45  1  0  0  0  0
 24 46  1  0  0  0  0
 26 27  1  0  0  0  0
 26 47  1  0  0  0  0
 26 48  1  0  0  0  0
 27 28  2  0  0  0  0
 27 32  1  0  0  0  0
 28 29  1  0  0  0  0
 28 49  1  0  0  0  0
 29 30  2  0  0  0  0
 29 50  1  0  0  0  0
 30 31  1  0  0  0  0
 30 51  1  0  0  0  0
 31 32  2  0  0  0  0
 31 52  1  0  0  0  0
 32 53  1  0  0  0  0
M  END
>  <DRUGBANK_ID>
DB07127

>  <COMMON_NAME>
{4-[2,2-BIS(5-METHYL-1,2,4-OXADIAZOL-3-YL)-3-PHENYLPROPYL]PHENYL}SULFAMIC ACID

$$$$
