
 OpenBabel10282417072D

 69 72  0  0  1  0  0  0  0  0999 V2000
    0.7145   -0.4125    0.0000 C   0  0  0  0  0  0  0  0  0  0  0  0
    0.7145   -1.2375    0.0000 C   0  0  1  0  0  0  0  0  0  0  0  0
    1.3819   -1.7224    0.0000 C   0  0  2  0  0  0  0  0  0  0  0  0
    1.1270   -2.5070    0.0000 O   0  0  0  0  0  0  0  0  0  0  0  0
    0.3020   -2.5070    0.0000 C   0  0  0  0  0  0  0  0  0  0  0  0
   -0.1830   -3.1745    0.0000 O   0  0  0  0  0  0  0  0  0  0  0  0
    0.0470   -1.7224    0.0000 N   0  0  0  0  0  0  0  0  0  0  0  0
   -0.7376   -1.4675    0.0000 C   0  0  0  0  0  0  0  0  0  0  0  0
   -1.3507   -2.0195    0.0000 C   0  0  0  0  0  0  0  0  0  0  0  0
   -1.1792   -2.8265    0.0000 C   0  0  0  0  0  0  0  0  0  0  0  0
   -1.7923   -3.3785    0.0000 C   0  0  0  0  0  0  0  0  0  0  0  0
   -2.5769   -3.1236    0.0000 C   0  0  0  0  0  0  0  0  0  0  0  0
   -2.7484   -2.3166    0.0000 C   0  0  0  0  0  0  0  0  0  0  0  0
   -2.1353   -1.7646    0.0000 C   0  0  0  0  0  0  0  0  0  0  0  0
   -2.3068   -0.9576    0.0000 C   0  0  0  0  0  0  0  0  0  0  0  0
   -3.0915   -0.7027    0.0000 C   0  0  0  0  0  0  0  0  0  0  0  0
   -3.2630    0.1043    0.0000 C   0  0  0  0  0  0  0  0  0  0  0  0
   -2.6499    0.6563    0.0000 C   0  0  0  0  0  0  0  0  0  0  0  0
   -1.8653    0.4014    0.0000 C   0  0  0  0  0  0  0  0  0  0  0  0
   -1.6937   -0.4056    0.0000 C   0  0  0  0  0  0  0  0  0  0  0  0
   -0.9091   -0.6605    0.0000 O   0  0  0  0  0  0  0  0  0  0  0  0
   -0.2960   -0.1085    0.0000 C   0  0  0  0  0  0  0  0  0  0  0  0
   -2.8214    1.4633    0.0000 F   0  0  0  0  0  0  0  0  0  0  0  0
   -4.0476    0.3592    0.0000 C   0  0  0  0  0  0  0  0  0  0  0  0
   -4.2191    1.1662    0.0000 C   0  0  0  0  0  0  0  0  0  0  0  0
   -4.6607   -0.1928    0.0000 C   0  0  0  0  0  0  0  0  0  0  0  0
   -1.6207   -4.1855    0.0000 C   0  0  0  0  0  0  0  0  0  0  0  0
   -1.4492   -4.9925    0.0000 F   0  0  0  0  0  0  0  0  0  0  0  0
   -2.4277   -4.3570    0.0000 F   0  0  0  0  0  0  0  0  0  0  0  0
   -0.8138   -4.0140    0.0000 F   0  0  0  0  0  0  0  0  0  0  0  0
    2.1665   -1.4675    0.0000 C   0  0  0  0  0  0  0  0  0  0  0  0
    2.3381   -0.6605    0.0000 C   0  0  0  0  0  0  0  0  0  0  0  0
    3.1227   -0.4056    0.0000 C   0  0  0  0  0  0  0  0  0  0  0  0
    3.7358   -0.9576    0.0000 C   0  0  0  0  0  0  0  0  0  0  0  0
    3.5642   -1.7646    0.0000 C   0  0  0  0  0  0  0  0  0  0  0  0
    2.7796   -2.0195    0.0000 C   0  0  0  0  0  0  0  0  0  0  0  0
    4.1773   -2.3166    0.0000 C   0  0  0  0  0  0  0  0  0  0  0  0
    4.7904   -2.8686    0.0000 F   0  0  0  0  0  0  0  0  0  0  0  0
    3.6253   -2.9297    0.0000 F   0  0  0  0  0  0  0  0  0  0  0  0
    4.7294   -1.7035    0.0000 F   0  0  0  0  0  0  0  0  0  0  0  0
    3.2942    0.4014    0.0000 C   0  0  0  0  0  0  0  0  0  0  0  0
    3.4657    1.2084    0.0000 F   0  0  0  0  0  0  0  0  0  0  0  0
    4.1012    0.2299    0.0000 F   0  0  0  0  0  0  0  0  0  0  0  0
    2.4872    0.5729    0.0000 F   0  0  0  0  0  0  0  0  0  0  0  0
    1.6411    0.1225    0.0000 H   0  0  0  0  0  0  0  0  0  0  0  0
   -0.2121    0.1225    0.0000 H   0  0  0  0  0  0  0  0  0  0  0  0
    0.7145    0.6575    0.0000 H   0  0  0  0  0  0  0  0  0  0  0  0
    1.6679   -0.7517    0.0000 H   0  0  0  0  0  0  0  0  0  0  0  0
    1.5493   -0.6656    0.0000 H   0  0  0  0  0  0  0  0  0  0  0  0
   -0.9601   -0.4209    0.0000 H   0  0  0  0  0  0  0  0  0  0  0  0
   -1.7552   -1.1368    0.0000 H   0  0  0  0  0  0  0  0  0  0  0  0
   -0.1977   -3.1454    0.0000 H   0  0  0  0  0  0  0  0  0  0  0  0
   -3.3438   -3.8141    0.0000 H   0  0  0  0  0  0  0  0  0  0  0  0
   -3.7299   -1.9977    0.0000 H   0  0  0  0  0  0  0  0  0  0  0  0
   -3.8584   -1.3933    0.0000 H   0  0  0  0  0  0  0  0  0  0  0  0
   -1.0984    1.0920    0.0000 H   0  0  0  0  0  0  0  0  0  0  0  0
    0.7216   -0.4392    0.0000 H   0  0  0  0  0  0  0  0  0  0  0  0
   -0.5184    0.9381    0.0000 H   0  0  0  0  0  0  0  0  0  0  0  0
    0.4992    0.6074    0.0000 H   0  0  0  0  0  0  0  0  0  0  0  0
   -5.0652    0.6899    0.0000 H   0  0  0  0  0  0  0  0  0  0  0  0
   -3.4239    1.8821    0.0000 H   0  0  0  0  0  0  0  0  0  0  0  0
   -5.2367    1.4969    0.0000 H   0  0  0  0  0  0  0  0  0  0  0  0
   -4.4415    2.2128    0.0000 H   0  0  0  0  0  0  0  0  0  0  0  0
   -5.6783    0.1379    0.0000 H   0  0  0  0  0  0  0  0  0  0  0  0
   -4.4383   -1.2394    0.0000 H   0  0  0  0  0  0  0  0  0  0  0  0
   -5.4559   -0.9087    0.0000 H   0  0  0  0  0  0  0  0  0  0  0  0
    1.5712    0.0301    0.0000 H   0  0  0  0  0  0  0  0  0  0  0  0
    4.7173   -0.6387    0.0000 H   0  0  0  0  0  0  0  0  0  0  0  0
    2.5650   -3.0289    0.0000 H   0  0  0  0  0  0  0  0  0  0  0  0
  1 45  1  0  0  0  0
  1 46  1  0  0  0  0
  1 47  1  0  0  0  0
  2  1  1  0  0  0  0
  2  3  1  0  0  0  0
  2  7  1  0  0  0  0
  2 48  1  6  0  0  0
  3  4  1  0  0  0  0
  3 31  1  0  0  0  0
  3 49  1  6  0  0  0
  4  5  1  0  0  0  0
  5  6  2  0  0  0  0
  5  7  1  0  0  0  0
  7  8  1  0  0  0  0
  8  9  1  0  0  0  0
  8 50  1  0  0  0  0
  8 51  1  0  0  0  0
  9 10  2  0  0  0  0
  9 14  1  0  0  0  0
 10 11  1  0  0  0  0
 10 52  1  0  0  0  0
 11 12  2  0  0  0  0
 11 27  1  0  0  0  0
 12 13  1  0  0  0  0
 12 53  1  0  0  0  0
 13 14  2  0  0  0  0
 13 54  1  0  0  0  0
 14 15  1  0  0  0  0
 15 16  2  0  0  0  0
 15 20  1  0  0  0  0
 16 17  1  0  0  0  0
 16 55  1  0  0  0  0
 17 18  2  0  0  0  0
 17 24  1  0  0  0  0
 18 19  1  0  0  0  0
 18 23  1  0  0  0  0
 19 20  2  0  0  0  0
 19 56  1  0  0  0  0
 20 21  1  0  0  0  0
 21 22  1  0  0  0  0
 22 57  1  0  0  0  0
 22 58  1  0  0  0  0
 22 59  1  0  0  0  0
 24 25  1  0  0  0  0
 24 26  1  0  0  0  0
 24 60  1  0  0  0  0
 25 61  1  0  0  0  0
 25 62  1  0  0  0  0
 25 63  1  0  0  0  0
 26 64  1  0  0  0  0
 26 65  1  0  0  0  0
 26 66  1  0  0  0  0
 27 28  1  0  0  0  0
 27 29  1  0  0  0  0
 27 30  1  0  0  0  0
 31 32  2  0  0  0  0
 31 36  1  0  0  0  0
 32 33  1  0  0  0  0
 32 67  1  0  0  0  0
 33 34  2  0  0  0  0
 33 41  1  0  0  0  0
 34 35  1  0  0  0  0
 34 68  1  0  0  0  0
 35 36  2  0  0  0  0
 35 37  1  0  0  0  0
 36 69  1  0  0  0  0
 37 38  1  0  0  0  0
 37 39  1  0  0  0  0
 37 40  1  0  0  0  0
 41 42  1  0  0  0  0
 41 43  1  0  0  0  0
 41 44  1  0  0  0  0
M  END
>  <DRUGBANK_ID>
DB06630

>  <COMMON_NAME>
Anacetrapib

>  <CAS_NUMBER>
875446-37-0

>  <UNII>
P7T269PR6S

>  <SYNONYMS>
Anacetrapib

$$$$
