MAX
 OpenBabel10282417072D

 48 50  0  0  0  0  0  0  0  0999 V2000
    1.2806    1.9098    0.0000 C   0  0  0  0  0  0  0  0  0  0  0  0
    1.9951    2.3223    0.0000 C   0  0  0  0  0  0  0  0  0  0  0  0
    2.7096    1.9098    0.0000 C   0  0  0  0  0  0  0  0  0  0  0  0
    2.7096    1.0848    0.0000 C   0  0  0  0  0  0  0  0  0  0  0  0
    1.9951    0.6723    0.0000 C   0  0  0  0  0  0  0  0  0  0  0  0
    1.2806    1.0848    0.0000 C   0  0  0  0  0  0  0  0  0  0  0  0
    0.5661    0.6723    0.0000 C   0  0  0  0  0  0  0  0  0  0  0  0
    0.5661   -0.1527    0.0000 C   0  0  1  0  0  0  0  0  0  0  0  0
    1.2336   -0.6376    0.0000 C   0  0  0  0  0  0  0  0  0  0  0  0
    0.9786   -1.4222    0.0000 O   0  0  0  0  0  0  0  0  0  0  0  0
    0.1536   -1.4222    0.0000 C   0  0  0  0  0  0  0  0  0  0  0  0
   -0.1013   -0.6376    0.0000 C   0  0  2  0  0  0  0  0  0  0  0  0
   -0.3313   -2.0897    0.0000 O   0  0  0  0  0  0  0  0  0  0  0  0
   -0.8859   -0.3827    0.0000 C   0  0  0  0  0  0  0  0  0  0  0  0
   -1.4990   -0.9347    0.0000 C   0  0  0  0  0  0  0  0  0  0  0  0
   -1.3275   -1.7417    0.0000 C   0  0  0  0  0  0  0  0  0  0  0  0
   -1.9406   -2.2937    0.0000 C   0  0  0  0  0  0  0  0  0  0  0  0
   -2.7252   -2.0388    0.0000 C   0  0  0  0  0  0  0  0  0  0  0  0
   -2.8967   -1.2318    0.0000 C   0  0  0  0  0  0  0  0  0  0  0  0
   -2.2836   -0.6798    0.0000 C   0  0  0  0  0  0  0  0  0  0  0  0
   -3.6813   -0.9768    0.0000 O   0  0  0  0  0  0  0  0  0  0  0  0
   -4.2944   -1.5289    0.0000 C   0  0  0  0  0  0  0  0  0  0  0  0
   -3.3383   -2.5908    0.0000 O   0  0  0  0  0  0  0  0  0  0  0  0
    3.4240    2.3223    0.0000 O   0  0  0  0  0  0  0  0  0  0  0  0
    1.9951    3.1473    0.0000 O   0  0  0  0  0  0  0  0  0  0  0  0
    2.7096    3.5598    0.0000 C   0  0  0  0  0  0  0  0  0  0  0  0
    1.0864    0.1124    0.0000 H   0  0  0  0  0  0  0  0  0  0  0  0
   -0.1926   -0.0609    0.0000 H   0  0  0  0  0  0  0  0  0  0  0  0
    0.3869    2.4258    0.0000 H   0  0  0  0  0  0  0  0  0  0  0  0
    3.6033    0.5688    0.0000 H   0  0  0  0  0  0  0  0  0  0  0  0
    1.9951   -0.3597    0.0000 H   0  0  0  0  0  0  0  0  0  0  0  0
   -0.3605    1.2073    0.0000 H   0  0  0  0  0  0  0  0  0  0  0  0
   -0.3605    0.1373    0.0000 H   0  0  0  0  0  0  0  0  0  0  0  0
    2.2512   -0.3070    0.0000 H   0  0  0  0  0  0  0  0  0  0  0  0
    1.9902   -1.3942    0.0000 H   0  0  0  0  0  0  0  0  0  0  0  0
   -1.1084    0.6639    0.0000 H   0  0  0  0  0  0  0  0  0  0  0  0
   -1.9035   -0.0520    0.0000 H   0  0  0  0  0  0  0  0  0  0  0  0
   -0.3460   -2.0606    0.0000 H   0  0  0  0  0  0  0  0  0  0  0  0
   -1.7260   -3.3031    0.0000 H   0  0  0  0  0  0  0  0  0  0  0  0
   -2.4982    0.3296    0.0000 H   0  0  0  0  0  0  0  0  0  0  0  0
   -5.3120   -1.1983    0.0000 H   0  0  0  0  0  0  0  0  0  0  0  0
   -4.0719   -2.5755    0.0000 H   0  0  0  0  0  0  0  0  0  0  0  0
   -5.0895   -2.2449    0.0000 H   0  0  0  0  0  0  0  0  0  0  0  0
   -4.2294   -2.3012    0.0000 H   0  0  0  0  0  0  0  0  0  0  0  0
    4.2355    1.8538    0.0000 H   0  0  0  0  0  0  0  0  0  0  0  0
    3.6362    3.0248    0.0000 H   0  0  0  0  0  0  0  0  0  0  0  0
    2.7096    4.6298    0.0000 H   0  0  0  0  0  0  0  0  0  0  0  0
    3.6363    4.0948    0.0000 H   0  0  0  0  0  0  0  0  0  0  0  0
  1  2  2  0  0  0  0
  1  6  1  0  0  0  0
  1 29  1  0  0  0  0
  2  3  1  0  0  0  0
  2 25  1  0  0  0  0
  3  4  2  0  0  0  0
  3 24  1  0  0  0  0
  4  5  1  0  0  0  0
  4 30  1  0  0  0  0
  5  6  2  0  0  0  0
  5 31  1  0  0  0  0
  6  7  1  0  0  0  0
  7 32  1  0  0  0  0
  7 33  1  0  0  0  0
  8  7  1  0  0  0  0
  8  9  1  0  0  0  0
  8 12  1  0  0  0  0
  8 27  1  6  0  0  0
  9 10  1  0  0  0  0
  9 34  1  0  0  0  0
  9 35  1  0  0  0  0
 10 11  1  0  0  0  0
 11 12  1  0  0  0  0
 11 13  2  0  0  0  0
 12 14  1  0  0  0  0
 12 28  1  1  0  0  0
 14 15  1  0  0  0  0
 14 36  1  0  0  0  0
 14 37  1  0  0  0  0
 15 16  2  0  0  0  0
 15 20  1  0  0  0  0
 16 17  1  0  0  0  0
 16 38  1  0  0  0  0
 17 18  2  0  0  0  0
 17 39  1  0  0  0  0
 18 19  1  0  0  0  0
 18 23  1  0  0  0  0
 19 20  2  0  0  0  0
 19 21  1  0  0  0  0
 20 40  1  0  0  0  0
 21 22  1  0  0  0  0
 22 41  1  0  0  0  0
 22 42  1  0  0  0  0
 22 43  1  0  0  0  0
 23 44  1  0  0  0  0
 24 45  1  0  0  0  0
 25 26  1  0  0  0  0
 26 46  1  0  0  0  0
 26 47  1  0  0  0  0
 26 48  1  0  0  0  0
M  END
>  <DRUGBANK_ID>
DB04200

>  <SECONDARY_ACCESSION_NUMBERS>
EXPT02118

>  <COMMON_NAME>
Matairesinol

>  <CAS_NUMBER>
580-72-3

>  <UNII>
XLW63P8WUA

>  <SYNONYMS>
(âˆ’)-matairesinol; 3R,4R-Bis((4-hydroxy-3-methoxyphenyl)methyl)dihydro-2(3H)-furanone; Artigenin congener; Matairesinol

$$$$
