
 OpenBabel10282417072D

 79 84  0  0  0  0  0  0  0  0999 V2000
    2.2428    1.1957    0.0000 C   0  0  0  0  0  0  0  0  0  0  0  0
    1.4358    1.3672    0.0000 N   0  0  0  0  0  0  0  0  0  0  0  0
    1.1809    2.1518    0.0000 C   0  0  0  0  0  0  0  0  0  0  0  0
    1.7329    2.7649    0.0000 C   0  0  0  0  0  0  0  0  0  0  0  0
    1.4780    3.5496    0.0000 C   0  0  0  0  0  0  0  0  0  0  0  0
    2.0300    4.1626    0.0000 C   0  0  0  0  0  0  0  0  0  0  0  0
    2.8370    3.9911    0.0000 C   0  0  0  0  0  0  0  0  0  0  0  0
    3.0919    3.2065    0.0000 C   0  0  0  0  0  0  0  0  0  0  0  0
    2.5399    2.5934    0.0000 C   0  0  0  0  0  0  0  0  0  0  0  0
    0.8838    0.7541    0.0000 C   0  0  0  0  0  0  0  0  0  0  0  0
    1.1387   -0.0305    0.0000 C   0  0  0  0  0  0  0  0  0  0  0  0
    1.9233   -0.2854    0.0000 C   0  0  0  0  0  0  0  0  0  0  0  0
    2.6378    0.1271    0.0000 C   0  0  0  0  0  0  0  0  0  0  0  0
    2.6378    0.9521    0.0000 O   0  0  0  0  0  0  0  0  0  0  0  0
    3.3523   -0.2854    0.0000 N   0  0  0  0  0  0  0  0  0  0  0  0
    3.3523   -1.1104    0.0000 C   0  0  0  0  0  0  0  0  0  0  0  0
    4.0668   -1.5229    0.0000 O   0  0  0  0  0  0  0  0  0  0  0  0
    2.6378   -1.5229    0.0000 N   0  0  0  0  0  0  0  0  0  0  0  0
    1.9233   -1.1104    0.0000 C   0  0  0  0  0  0  0  0  0  0  0  0
    1.1387   -1.3654    0.0000 S   0  0  0  0  0  0  0  0  0  0  0  0
    0.6538   -0.6979    0.0000 C   0  0  0  0  0  0  0  0  0  0  0  0
   -0.1712   -0.6979    0.0000 C   0  0  0  0  0  0  0  0  0  0  0  0
   -0.5837   -1.4124    0.0000 C   0  0  0  0  0  0  0  0  0  0  0  0
   -1.4087   -1.4124    0.0000 C   0  0  0  0  0  0  0  0  0  0  0  0
   -1.8212   -0.6979    0.0000 C   0  0  0  0  0  0  0  0  0  0  0  0
   -1.4087    0.0165    0.0000 C   0  0  0  0  0  0  0  0  0  0  0  0
   -0.5837    0.0165    0.0000 C   0  0  0  0  0  0  0  0  0  0  0  0
   -2.6462   -0.6979    0.0000 N   0  0  0  0  0  0  0  0  0  0  0  0
   -3.0587    0.0165    0.0000 C   0  0  0  0  0  0  0  0  0  0  0  0
   -2.6462    0.7310    0.0000 O   0  0  0  0  0  0  0  0  0  0  0  0
   -3.8837    0.0165    0.0000 N   0  0  0  0  0  0  0  0  0  0  0  0
   -4.2962    0.7310    0.0000 O   0  0  0  0  0  0  0  0  0  0  0  0
   -5.1212    0.7310    0.0000 C   0  0  0  0  0  0  0  0  0  0  0  0
    2.6378   -2.3479    0.0000 C   0  0  0  0  0  0  0  0  0  0  0  0
    3.3523   -2.7604    0.0000 C   0  0  0  0  0  0  0  0  0  0  0  0
    4.0668   -2.3479    0.0000 C   0  0  0  0  0  0  0  0  0  0  0  0
    4.7812   -2.7604    0.0000 C   0  0  0  0  0  0  0  0  0  0  0  0
    4.7812   -3.5854    0.0000 C   0  0  0  0  0  0  0  0  0  0  0  0
    4.0668   -3.9979    0.0000 C   0  0  0  0  0  0  0  0  0  0  0  0
    3.3523   -3.5854    0.0000 C   0  0  0  0  0  0  0  0  0  0  0  0
    2.6378   -3.9979    0.0000 F   0  0  0  0  0  0  0  0  0  0  0  0
    4.5517   -1.6805    0.0000 F   0  0  0  0  0  0  0  0  0  0  0  0
    4.0668    0.1271    0.0000 C   0  0  0  0  0  0  0  0  0  0  0  0
    4.0668    0.9521    0.0000 C   0  0  0  0  0  0  0  0  0  0  0  0
    4.7812    1.3646    0.0000 C   0  0  0  0  0  0  0  0  0  0  0  0
    5.4957    0.9521    0.0000 C   0  0  0  0  0  0  0  0  0  0  0  0
    5.4957    0.1271    0.0000 C   0  0  0  0  0  0  0  0  0  0  0  0
    4.7812   -0.2854    0.0000 C   0  0  0  0  0  0  0  0  0  0  0  0
    2.5735    0.1781    0.0000 H   0  0  0  0  0  0  0  0  0  0  0  0
    2.9587    1.9909    0.0000 H   0  0  0  0  0  0  0  0  0  0  0  0
    3.2894    0.9733    0.0000 H   0  0  0  0  0  0  0  0  0  0  0  0
    0.1343    2.3743    0.0000 H   0  0  0  0  0  0  0  0  0  0  0  0
    0.8502    3.1694    0.0000 H   0  0  0  0  0  0  0  0  0  0  0  0
    0.4686    3.7642    0.0000 H   0  0  0  0  0  0  0  0  0  0  0  0
    1.7111    5.1441    0.0000 H   0  0  0  0  0  0  0  0  0  0  0  0
    3.5275    4.7580    0.0000 H   0  0  0  0  0  0  0  0  0  0  0  0
    4.1013    2.9919    0.0000 H   0  0  0  0  0  0  0  0  0  0  0  0
    2.8588    1.6119    0.0000 H   0  0  0  0  0  0  0  0  0  0  0  0
   -0.1628    0.9766    0.0000 H   0  0  0  0  0  0  0  0  0  0  0  0
    0.1678   -0.0411    0.0000 H   0  0  0  0  0  0  0  0  0  0  0  0
   -0.0677   -2.3061    0.0000 H   0  0  0  0  0  0  0  0  0  0  0  0
   -1.9247   -2.3061    0.0000 H   0  0  0  0  0  0  0  0  0  0  0  0
   -1.9247    0.9102    0.0000 H   0  0  0  0  0  0  0  0  0  0  0  0
   -0.0677    0.9102    0.0000 H   0  0  0  0  0  0  0  0  0  0  0  0
   -3.1384   -1.5505    0.0000 H   0  0  0  0  0  0  0  0  0  0  0  0
   -4.3760   -0.8361    0.0000 H   0  0  0  0  0  0  0  0  0  0  0  0
   -5.6562    1.6576    0.0000 H   0  0  0  0  0  0  0  0  0  0  0  0
   -5.6562   -0.1956    0.0000 H   0  0  0  0  0  0  0  0  0  0  0  0
   -6.1912    0.7310    0.0000 H   0  0  0  0  0  0  0  0  0  0  0  0
    1.7112   -2.8829    0.0000 H   0  0  0  0  0  0  0  0  0  0  0  0
    2.6378   -3.4179    0.0000 H   0  0  0  0  0  0  0  0  0  0  0  0
    5.6749   -2.2444    0.0000 H   0  0  0  0  0  0  0  0  0  0  0  0
    5.6749   -4.1014    0.0000 H   0  0  0  0  0  0  0  0  0  0  0  0
    4.0668   -5.0299    0.0000 H   0  0  0  0  0  0  0  0  0  0  0  0
    3.1731    1.4681    0.0000 H   0  0  0  0  0  0  0  0  0  0  0  0
    4.7812    2.3966    0.0000 H   0  0  0  0  0  0  0  0  0  0  0  0
    6.3894    1.4681    0.0000 H   0  0  0  0  0  0  0  0  0  0  0  0
    6.3894   -0.3889    0.0000 H   0  0  0  0  0  0  0  0  0  0  0  0
    4.7812   -1.3174    0.0000 H   0  0  0  0  0  0  0  0  0  0  0  0
  1  2  1  0  0  0  0
  1 49  1  0  0  0  0
  1 50  1  0  0  0  0
  1 51  1  0  0  0  0
  2  3  1  0  0  0  0
  2 10  1  0  0  0  0
  3  4  1  0  0  0  0
  3 52  1  0  0  0  0
  3 53  1  0  0  0  0
  4  5  2  0  0  0  0
  4  9  1  0  0  0  0
  5  6  1  0  0  0  0
  5 54  1  0  0  0  0
  6  7  2  0  0  0  0
  6 55  1  0  0  0  0
  7  8  1  0  0  0  0
  7 56  1  0  0  0  0
  8  9  2  0  0  0  0
  8 57  1  0  0  0  0
  9 58  1  0  0  0  0
 10 11  1  0  0  0  0
 10 59  1  0  0  0  0
 10 60  1  0  0  0  0
 11 12  1  0  0  0  0
 11 21  2  0  0  0  0
 12 13  1  0  0  0  0
 12 19  2  0  0  0  0
 13 14  2  0  0  0  0
 13 15  1  0  0  0  0
 15 16  1  0  0  0  0
 15 43  1  0  0  0  0
 16 17  2  0  0  0  0
 16 18  1  0  0  0  0
 18 19  1  0  0  0  0
 18 34  1  0  0  0  0
 19 20  1  0  0  0  0
 20 21  1  0  0  0  0
 21 22  1  0  0  0  0
 22 23  2  0  0  0  0
 22 27  1  0  0  0  0
 23 24  1  0  0  0  0
 23 61  1  0  0  0  0
 24 25  2  0  0  0  0
 24 62  1  0  0  0  0
 25 26  1  0  0  0  0
 25 28  1  0  0  0  0
 26 27  2  0  0  0  0
 26 63  1  0  0  0  0
 27 64  1  0  0  0  0
 28 29  1  0  0  0  0
 28 65  1  0  0  0  0
 29 30  2  0  0  0  0
 29 31  1  0  0  0  0
 31 32  1  0  0  0  0
 31 66  1  0  0  0  0
 32 33  1  0  0  0  0
 33 67  1  0  0  0  0
 33 68  1  0  0  0  0
 33 69  1  0  0  0  0
 34 35  1  0  0  0  0
 34 70  1  0  0  0  0
 34 71  1  0  0  0  0
 35 36  2  0  0  0  0
 35 40  1  0  0  0  0
 36 37  1  0  0  0  0
 36 42  1  0  0  0  0
 37 38  2  0  0  0  0
 37 72  1  0  0  0  0
 38 39  1  0  0  0  0
 38 73  1  0  0  0  0
 39 40  2  0  0  0  0
 39 74  1  0  0  0  0
 40 41  1  0  0  0  0
 43 44  2  0  0  0  0
 43 48  1  0  0  0  0
 44 45  1  0  0  0  0
 44 75  1  0  0  0  0
 45 46  2  0  0  0  0
 45 76  1  0  0  0  0
 46 47  1  0  0  0  0
 46 77  1  0  0  0  0
 47 48  2  0  0  0  0
 47 78  1  0  0  0  0
 48 79  1  0  0  0  0
M  END
>  <DRUGBANK_ID>
DB06494

>  <COMMON_NAME>
Sufugolix

>  <CAS_NUMBER>
308831-61-0

>  <UNII>
56S17Z6X9M

>  <SYNONYMS>
Sufugolix

$$$$
