952
 OpenBabel10282417072D

 48 50  0  0  0  0  0  0  0  0999 V2000
    3.0791   -0.5003    0.0000 S   0  0  0  0  0  0  0  0  0  0  0  0
    3.4916    0.2142    0.0000 O   0  0  0  0  0  0  0  0  0  0  0  0
    2.6665   -1.2148    0.0000 O   0  0  0  0  0  0  0  0  0  0  0  0
    8.2010    1.6912    0.0000 N   0  0  0  0  0  0  0  0  0  0  0  0
    7.4321   -1.9892    0.0000 N   0  0  0  0  0  0  0  0  0  0  0  0
    2.3645   -0.0878    0.0000 N   0  0  0  0  0  0  0  0  0  0  0  0
    7.6884    0.1228    0.0000 C   0  0  0  0  0  0  0  0  0  0  0  0
    8.4957    0.2930    0.0000 C   0  0  0  0  0  0  0  0  0  0  0  0
    7.1374    0.7369    0.0000 C   0  0  0  0  0  0  0  0  0  0  0  0
    8.7520    1.0771    0.0000 C   0  0  0  0  0  0  0  0  0  0  0  0
    7.3937    1.5211    0.0000 C   0  0  0  0  0  0  0  0  0  0  0  0
    7.4321   -0.6613    0.0000 C   0  0  0  0  0  0  0  0  0  0  0  0
    6.6515   -0.9128    0.0000 C   0  0  0  0  0  0  0  0  0  0  0  0
    7.9136   -1.3253    0.0000 C   0  0  0  0  0  0  0  0  0  0  0  0
    6.6515   -1.7378    0.0000 C   0  0  0  0  0  0  0  0  0  0  0  0
    8.4573    2.4754    0.0000 C   0  0  0  0  0  0  0  0  0  0  0  0
    5.9370   -0.5003    0.0000 C   0  0  0  0  0  0  0  0  0  0  0  0
    5.2224   -0.9128    0.0000 C   0  0  0  0  0  0  0  0  0  0  0  0
    5.9370   -2.1503    0.0000 C   0  0  0  0  0  0  0  0  0  0  0  0
    4.5080   -0.5003    0.0000 C   0  0  0  0  0  0  0  0  0  0  0  0
    5.2224   -1.7378    0.0000 C   0  0  0  0  0  0  0  0  0  0  0  0
    3.7935   -0.9128    0.0000 C   0  0  0  0  0  0  0  0  0  0  0  0
    1.6500   -0.5003    0.0000 C   0  0  0  0  0  0  0  0  0  0  0  0
    7.7379   -2.9250    0.0000 H   0  0  0  0  0  0  0  0  0  0  0  0
    2.3645    0.9322    0.0000 H   0  0  0  0  0  0  0  0  0  0  0  0
    6.6414   -0.0978    0.0000 H   0  0  0  0  0  0  0  0  0  0  0  0
    9.2103   -0.5034    0.0000 H   0  0  0  0  0  0  0  0  0  0  0  0
    9.5427    0.5136    0.0000 H   0  0  0  0  0  0  0  0  0  0  0  0
    6.0904    0.5163    0.0000 H   0  0  0  0  0  0  0  0  0  0  0  0
    6.4228    1.5333    0.0000 H   0  0  0  0  0  0  0  0  0  0  0  0
    9.7990    1.2977    0.0000 H   0  0  0  0  0  0  0  0  0  0  0  0
    9.4666    0.2807    0.0000 H   0  0  0  0  0  0  0  0  0  0  0  0
    6.6791    2.3175    0.0000 H   0  0  0  0  0  0  0  0  0  0  0  0
    6.3467    1.3005    0.0000 H   0  0  0  0  0  0  0  0  0  0  0  0
    8.9456   -1.3253    0.0000 H   0  0  0  0  0  0  0  0  0  0  0  0
    9.5043    2.6961    0.0000 H   0  0  0  0  0  0  0  0  0  0  0  0
    7.7427    3.2718    0.0000 H   0  0  0  0  0  0  0  0  0  0  0  0
    8.7897    3.4925    0.0000 H   0  0  0  0  0  0  0  0  0  0  0  0
    5.9370    0.5317    0.0000 H   0  0  0  0  0  0  0  0  0  0  0  0
    5.9370   -3.1823    0.0000 H   0  0  0  0  0  0  0  0  0  0  0  0
    4.5080    0.5697    0.0000 H   0  0  0  0  0  0  0  0  0  0  0  0
    3.5814    0.0347    0.0000 H   0  0  0  0  0  0  0  0  0  0  0  0
    4.3287   -2.2538    0.0000 H   0  0  0  0  0  0  0  0  0  0  0  0
    3.7935   -1.9828    0.0000 H   0  0  0  0  0  0  0  0  0  0  0  0
    4.7201   -1.4478    0.0000 H   0  0  0  0  0  0  0  0  0  0  0  0
    0.7234    0.0347    0.0000 H   0  0  0  0  0  0  0  0  0  0  0  0
    1.6500   -1.5703    0.0000 H   0  0  0  0  0  0  0  0  0  0  0  0
    0.7233   -1.0353    0.0000 H   0  0  0  0  0  0  0  0  0  0  0  0
  1  2  2  0  0  0  0
  1  3  2  0  0  0  0
  1  6  1  0  0  0  0
  1 22  1  0  0  0  0
  4 10  1  0  0  0  0
  4 11  1  0  0  0  0
  4 16  1  0  0  0  0
  5 14  1  0  0  0  0
  5 15  1  0  0  0  0
  5 24  1  0  0  0  0
  6 23  1  0  0  0  0
  6 25  1  0  0  0  0
  7  8  1  0  0  0  0
  7  9  1  0  0  0  0
  7 12  1  0  0  0  0
  7 26  1  0  0  0  0
  8 10  1  0  0  0  0
  8 27  1  0  0  0  0
  8 28  1  0  0  0  0
  9 11  1  0  0  0  0
  9 29  1  0  0  0  0
  9 30  1  0  0  0  0
 10 31  1  0  0  0  0
 10 32  1  0  0  0  0
 11 33  1  0  0  0  0
 11 34  1  0  0  0  0
 12 13  1  0  0  0  0
 12 14  2  0  0  0  0
 13 15  2  0  0  0  0
 13 17  1  0  0  0  0
 14 35  1  0  0  0  0
 15 19  1  0  0  0  0
 16 36  1  0  0  0  0
 16 37  1  0  0  0  0
 16 38  1  0  0  0  0
 17 18  2  0  0  0  0
 17 39  1  0  0  0  0
 18 20  1  0  0  0  0
 18 21  1  0  0  0  0
 19 21  2  0  0  0  0
 19 40  1  0  0  0  0
 20 22  1  0  0  0  0
 20 41  1  0  0  0  0
 20 42  1  0  0  0  0
 21 43  1  0  0  0  0
 22 44  1  0  0  0  0
 22 45  1  0  0  0  0
 23 46  1  0  0  0  0
 23 47  1  0  0  0  0
 23 48  1  0  0  0  0
M  END
>  <DRUGBANK_ID>
DB00952

>  <SECONDARY_ACCESSION_NUMBERS>
APRD00220

>  <COMMON_NAME>
Naratriptan

>  <CAS_NUMBER>
121679-13-8

>  <UNII>
QX3KXL1ZA2

>  <SYNONYMS>
N-methyl-2-(3-(1-methylpiperiden-4-yl)indole-5-yl)ethanesulfonamide; N-methyl-2-[3-(1-methyl-4-piperidyl)-1H-indol-5-yl]-ethanesulfonamide; NaratriptÃ¡n; Naratriptan; Naratriptanum

$$$$
