
 OpenBabel10282417072D

 29 32  0  0  0  0  0  0  0  0999 V2000
    6.0842   -1.6713    0.0000 F   0  0  0  0  0  0  0  0  0  0  0  0
    5.8293   -0.8867    0.0000 C   0  0  0  0  0  0  0  0  0  0  0  0
    5.0223   -0.7152    0.0000 C   0  0  0  0  0  0  0  0  0  0  0  0
    4.7674    0.0694    0.0000 C   0  0  0  0  0  0  0  0  0  0  0  0
    5.3194    0.6825    0.0000 C   0  0  0  0  0  0  0  0  0  0  0  0
    6.1264    0.5110    0.0000 C   0  0  0  0  0  0  0  0  0  0  0  0
    6.3813   -0.2736    0.0000 N   0  0  0  0  0  0  0  0  0  0  0  0
    3.9604    0.2410    0.0000 C   0  0  0  0  0  0  0  0  0  0  0  0
    3.7054    1.0256    0.0000 C   0  0  0  0  0  0  0  0  0  0  0  0
    2.8985    1.1971    0.0000 C   0  0  0  0  0  0  0  0  0  0  0  0
    2.3464    0.5840    0.0000 C   0  0  0  0  0  0  0  0  0  0  0  0
    2.6014   -0.2006    0.0000 C   0  0  0  0  0  0  0  0  0  0  0  0
    3.4084   -0.3721    0.0000 N   0  0  0  0  0  0  0  0  0  0  0  0
    1.9339   -0.6855    0.0000 N   0  0  0  0  0  0  0  0  0  0  0  0
    1.2665   -0.2006    0.0000 C   0  0  0  0  0  0  0  0  0  0  0  0
    0.4595   -0.3721    0.0000 C   0  0  0  0  0  0  0  0  0  0  0  0
   -0.0925    0.2410    0.0000 C   0  0  0  0  0  0  0  0  0  0  0  0
    0.1624    1.0256    0.0000 N   0  0  0  0  0  0  0  0  0  0  0  0
    0.9694    1.1971    0.0000 C   0  0  0  0  0  0  0  0  0  0  0  0
    1.5214    0.5840    0.0000 C   0  0  0  0  0  0  0  0  0  0  0  0
    4.3318   -1.4821    0.0000 H   0  0  0  0  0  0  0  0  0  0  0  0
    5.0005    1.6640    0.0000 H   0  0  0  0  0  0  0  0  0  0  0  0
    6.8169    1.2779    0.0000 H   0  0  0  0  0  0  0  0  0  0  0  0
    4.3959    1.7926    0.0000 H   0  0  0  0  0  0  0  0  0  0  0  0
    2.5796    2.1786    0.0000 H   0  0  0  0  0  0  0  0  0  0  0  0
    1.9339   -1.6700    0.0000 H   0  0  0  0  0  0  0  0  0  0  0  0
    0.1406   -1.3536    0.0000 H   0  0  0  0  0  0  0  0  0  0  0  0
   -1.1019    0.0264    0.0000 H   0  0  0  0  0  0  0  0  0  0  0  0
    1.2883    2.1786    0.0000 H   0  0  0  0  0  0  0  0  0  0  0  0
  1  2  1  0  0  0  0
  2  3  2  0  0  0  0
  2  7  1  0  0  0  0
  3  4  1  0  0  0  0
  3 21  1  0  0  0  0
  4  5  2  0  0  0  0
  4  8  1  0  0  0  0
  5  6  1  0  0  0  0
  5 22  1  0  0  0  0
  6  7  2  0  0  0  0
  6 23  1  0  0  0  0
  8  9  1  0  0  0  0
  8 13  2  0  0  0  0
  9 10  2  0  0  0  0
  9 24  1  0  0  0  0
 10 11  1  0  0  0  0
 10 25  1  0  0  0  0
 11 12  2  0  0  0  0
 11 20  1  0  0  0  0
 12 13  1  0  0  0  0
 12 14  1  0  0  0  0
 14 15  1  0  0  0  0
 14 26  1  0  0  0  0
 15 16  1  0  0  0  0
 15 20  2  0  0  0  0
 16 17  2  0  0  0  0
 16 27  1  0  0  0  0
 17 18  1  0  0  0  0
 17 28  1  0  0  0  0
 18 19  2  0  0  0  0
 19 20  1  0  0  0  0
 19 29  1  0  0  0  0
M  END
>  <DRUGBANK_ID>
DB18282

>  <COMMON_NAME>
Izaflortaucipir

>  <CAS_NUMBER>
2173361-80-1

>  <UNII>
MWJ7I16SUJ

>  <SYNONYMS>
2-(2-fluoropyridin-4-yl)-9h-pyrrolo(2,3-b:4,5-c')dipyridine; 9h-pyrido(3',4':4,5)pyrrolo(2,3-b)pyridine, 2-(2-fluoro-4-pyridinyl)-

$$$$
