
 OpenBabel10282417072D

 57 59  0  0  0  0  0  0  0  0999 V2000
    5.4957    0.6979    0.0000 C   0  0  0  0  0  0  0  0  0  0  0  0
    5.4957    1.5229    0.0000 C   0  0  0  0  0  0  0  0  0  0  0  0
    4.7812    1.9354    0.0000 S   0  0  0  0  0  0  0  0  0  0  0  0
    5.1937    2.6499    0.0000 O   0  0  0  0  0  0  0  0  0  0  0  0
    4.3687    1.2210    0.0000 O   0  0  0  0  0  0  0  0  0  0  0  0
    4.0668    2.3479    0.0000 N   0  0  0  0  0  0  0  0  0  0  0  0
    3.3523    1.9354    0.0000 C   0  0  0  0  0  0  0  0  0  0  0  0
    3.3523    1.1104    0.0000 C   0  0  0  0  0  0  0  0  0  0  0  0
    2.6378    0.6979    0.0000 C   0  0  0  0  0  0  0  0  0  0  0  0
    1.9233    1.1104    0.0000 C   0  0  0  0  0  0  0  0  0  0  0  0
    1.1387    0.8555    0.0000 N   0  0  0  0  0  0  0  0  0  0  0  0
    0.8838    0.0709    0.0000 C   0  0  0  0  0  0  0  0  0  0  0  0
    1.4358   -0.5422    0.0000 C   0  0  0  0  0  0  0  0  0  0  0  0
    2.2428   -0.3707    0.0000 C   0  0  0  0  0  0  0  0  0  0  0  0
    2.7948   -0.9838    0.0000 C   0  0  0  0  0  0  0  0  0  0  0  0
    2.5399   -1.7684    0.0000 C   0  0  0  0  0  0  0  0  0  0  0  0
    3.3569   -1.8832    0.0000 F   0  0  0  0  0  0  0  0  0  0  0  0
    2.5687   -2.5929    0.0000 F   0  0  0  0  0  0  0  0  0  0  0  0
    1.7329   -1.9399    0.0000 C   0  0  0  0  0  0  0  0  0  0  0  0
    1.1809   -1.3268    0.0000 C   0  0  0  0  0  0  0  0  0  0  0  0
    0.6538    1.5229    0.0000 C   0  0  0  0  0  0  0  0  0  0  0  0
    1.1387    2.1904    0.0000 N   0  0  0  0  0  0  0  0  0  0  0  0
    1.9233    1.9354    0.0000 C   0  0  0  0  0  0  0  0  0  0  0  0
    2.6378    2.3479    0.0000 C   0  0  0  0  0  0  0  0  0  0  0  0
   -0.1712    1.5229    0.0000 C   0  0  0  0  0  0  0  0  0  0  0  0
   -0.9962    1.5229    0.0000 C   0  0  0  0  0  0  0  0  0  0  0  0
   -0.1712    2.3479    0.0000 C   0  0  0  0  0  0  0  0  0  0  0  0
   -0.1712    0.6979    0.0000 C   0  0  0  0  0  0  0  0  0  0  0  0
    4.5691    0.1629    0.0000 H   0  0  0  0  0  0  0  0  0  0  0  0
    6.4223    0.1629    0.0000 H   0  0  0  0  0  0  0  0  0  0  0  0
    5.4957   -0.3721    0.0000 H   0  0  0  0  0  0  0  0  0  0  0  0
    6.4223    2.0579    0.0000 H   0  0  0  0  0  0  0  0  0  0  0  0
    5.4957    2.5929    0.0000 H   0  0  0  0  0  0  0  0  0  0  0  0
    4.0668    3.3324    0.0000 H   0  0  0  0  0  0  0  0  0  0  0  0
    4.2460    0.5944    0.0000 H   0  0  0  0  0  0  0  0  0  0  0  0
    2.6378   -0.3341    0.0000 H   0  0  0  0  0  0  0  0  0  0  0  0
   -0.1628   -0.1516    0.0000 H   0  0  0  0  0  0  0  0  0  0  0  0
    0.5531   -0.9467    0.0000 H   0  0  0  0  0  0  0  0  0  0  0  0
    2.1518   -1.3374    0.0000 H   0  0  0  0  0  0  0  0  0  0  0  0
    2.5735    0.6469    0.0000 H   0  0  0  0  0  0  0  0  0  0  0  0
    3.2894   -0.1483    0.0000 H   0  0  0  0  0  0  0  0  0  0  0  0
    3.8414   -0.7613    0.0000 H   0  0  0  0  0  0  0  0  0  0  0  0
    3.5108   -1.7790    0.0000 H   0  0  0  0  0  0  0  0  0  0  0  0
    1.4022   -2.9575    0.0000 H   0  0  0  0  0  0  0  0  0  0  0  0
    0.6863   -2.1623    0.0000 H   0  0  0  0  0  0  0  0  0  0  0  0
    0.1343   -1.5493    0.0000 H   0  0  0  0  0  0  0  0  0  0  0  0
    0.4649   -0.5316    0.0000 H   0  0  0  0  0  0  0  0  0  0  0  0
    2.6378    3.3799    0.0000 H   0  0  0  0  0  0  0  0  0  0  0  0
   -1.5312    2.4495    0.0000 H   0  0  0  0  0  0  0  0  0  0  0  0
   -1.5312    0.5963    0.0000 H   0  0  0  0  0  0  0  0  0  0  0  0
   -2.0662    1.5229    0.0000 H   0  0  0  0  0  0  0  0  0  0  0  0
    0.7554    2.8829    0.0000 H   0  0  0  0  0  0  0  0  0  0  0  0
   -1.0978    2.8829    0.0000 H   0  0  0  0  0  0  0  0  0  0  0  0
   -0.1712    3.4179    0.0000 H   0  0  0  0  0  0  0  0  0  0  0  0
   -1.0978    0.1629    0.0000 H   0  0  0  0  0  0  0  0  0  0  0  0
    0.7554    0.1629    0.0000 H   0  0  0  0  0  0  0  0  0  0  0  0
   -0.1712   -0.3721    0.0000 H   0  0  0  0  0  0  0  0  0  0  0  0
  1  2  1  0  0  0  0
  1 29  1  0  0  0  0
  1 30  1  0  0  0  0
  1 31  1  0  0  0  0
  2  3  1  0  0  0  0
  2 32  1  0  0  0  0
  2 33  1  0  0  0  0
  3  4  2  0  0  0  0
  3  5  2  0  0  0  0
  3  6  1  0  0  0  0
  6  7  1  0  0  0  0
  6 34  1  0  0  0  0
  7  8  2  0  0  0  0
  7 24  1  0  0  0  0
  8  9  1  0  0  0  0
  8 35  1  0  0  0  0
  9 10  2  0  0  0  0
  9 36  1  0  0  0  0
 10 11  1  0  0  0  0
 10 23  1  0  0  0  0
 11 12  1  0  0  0  0
 11 21  1  0  0  0  0
 12 13  1  0  0  0  0
 12 37  1  0  0  0  0
 12 38  1  0  0  0  0
 13 14  1  0  0  0  0
 13 20  1  0  0  0  0
 13 39  1  0  0  0  0
 14 15  1  0  0  0  0
 14 40  1  0  0  0  0
 14 41  1  0  0  0  0
 15 16  1  0  0  0  0
 15 42  1  0  0  0  0
 15 43  1  0  0  0  0
 16 17  1  0  0  0  0
 16 18  1  0  0  0  0
 16 19  1  0  0  0  0
 19 20  1  0  0  0  0
 19 44  1  0  0  0  0
 19 45  1  0  0  0  0
 20 46  1  0  0  0  0
 20 47  1  0  0  0  0
 21 22  2  0  0  0  0
 21 25  1  0  0  0  0
 22 23  1  0  0  0  0
 23 24  2  0  0  0  0
 24 48  1  0  0  0  0
 25 26  1  0  0  0  0
 25 27  1  0  0  0  0
 25 28  1  0  0  0  0
 26 49  1  0  0  0  0
 26 50  1  0  0  0  0
 26 51  1  0  0  0  0
 27 52  1  0  0  0  0
 27 53  1  0  0  0  0
 27 54  1  0  0  0  0
 28 55  1  0  0  0  0
 28 56  1  0  0  0  0
 28 57  1  0  0  0  0
M  END
>  <DRUGBANK_ID>
DB17077

>  <COMMON_NAME>
AZD-1940

>  <CAS_NUMBER>
881413-29-2

>  <UNII>
0J0035E9FT

>  <SYNONYMS>
Ethanesulfonamide, n-(1-((4,4-difluorocyclohexyl)methyl)-2-(1,1-dimethylethyl)-1h-benzimidazol-5-yl)-

$$$$
