
 OpenBabel10282417072D

 63 65  0  0  0  0  0  0  0  0999 V2000
    0.0288    3.7827    0.0000 C   0  0  0  0  0  0  0  0  0  0  0  0
   -0.6856    3.3702    0.0000 C   0  0  0  0  0  0  0  0  0  0  0  0
   -0.6856    2.5452    0.0000 C   0  0  0  0  0  0  0  0  0  0  0  0
    0.0288    2.1327    0.0000 C   0  0  0  0  0  0  0  0  0  0  0  0
    0.7433    2.5452    0.0000 C   0  0  0  0  0  0  0  0  0  0  0  0
    0.7433    3.3702    0.0000 C   0  0  0  0  0  0  0  0  0  0  0  0
    0.0288    4.6076    0.0000 Cl  0  0  0  0  0  0  0  0  0  0  0  0
    0.0288    1.3076    0.0000 C   0  0  0  0  0  0  0  0  0  0  0  0
   -0.6856    0.8951    0.0000 N   0  0  0  0  0  0  0  0  0  0  0  0
   -0.6856    0.0702    0.0000 C   0  0  0  0  0  0  0  0  0  0  0  0
   -1.4001    1.3076    0.0000 C   0  0  0  0  0  0  0  0  0  0  0  0
   -2.1146    0.8951    0.0000 C   0  0  0  0  0  0  0  0  0  0  0  0
   -2.8682    1.2308    0.0000 S   0  0  0  0  0  0  0  0  0  0  0  0
   -3.4202    0.6176    0.0000 C   0  0  0  0  0  0  0  0  0  0  0  0
   -3.0077   -0.0967    0.0000 C   0  0  0  0  0  0  0  0  0  0  0  0
   -2.2008    0.0747    0.0000 C   0  0  0  0  0  0  0  0  0  0  0  0
   -4.2407    0.7039    0.0000 N   0  3  0  0  0  0  0  0  0  0  0  0
   -4.7256    0.0365    0.0000 O   0  5  0  0  0  0  0  0  0  0  0  0
   -4.5763    1.4576    0.0000 O   0  0  0  0  0  0  0  0  0  0  0  0
    0.0288   -0.3422    0.0000 C   0  0  3  0  0  0  0  0  0  0  0  0
    0.1150   -1.1627    0.0000 C   0  0  0  0  0  0  0  0  0  0  0  0
    0.9219   -1.3342    0.0000 N   0  0  0  0  0  0  0  0  0  0  0  0
    1.3344   -0.6198    0.0000 C   0  0  0  0  0  0  0  0  0  0  0  0
    0.7824   -0.0066    0.0000 C   0  0  0  0  0  0  0  0  0  0  0  0
    1.2575   -2.0879    0.0000 C   0  0  0  0  0  0  0  0  0  0  0  0
    0.7726   -2.7554    0.0000 O   0  0  0  0  0  0  0  0  0  0  0  0
    2.0780   -2.1742    0.0000 N   0  0  0  0  0  0  0  0  0  0  0  0
    2.4135   -2.9278    0.0000 C   0  0  0  0  0  0  0  0  0  0  0  0
    3.2340   -3.0140    0.0000 C   0  0  0  0  0  0  0  0  0  0  0  0
    3.5696   -3.7677    0.0000 C   0  0  0  0  0  0  0  0  0  0  0  0
    4.3901   -3.8540    0.0000 C   0  0  0  0  0  0  0  0  0  0  0  0
    4.7256   -4.6077    0.0000 C   0  0  0  0  0  0  0  0  0  0  0  0
   -1.5793    3.8862    0.0000 H   0  0  0  0  0  0  0  0  0  0  0  0
   -1.5793    2.0292    0.0000 H   0  0  0  0  0  0  0  0  0  0  0  0
    1.6370    2.0292    0.0000 H   0  0  0  0  0  0  0  0  0  0  0  0
    1.6370    3.8862    0.0000 H   0  0  0  0  0  0  0  0  0  0  0  0
    0.9555    0.7726    0.0000 H   0  0  0  0  0  0  0  0  0  0  0  0
    0.0288    0.2376    0.0000 H   0  0  0  0  0  0  0  0  0  0  0  0
   -1.6122   -0.4648    0.0000 H   0  0  0  0  0  0  0  0  0  0  0  0
   -0.6856   -0.9998    0.0000 H   0  0  0  0  0  0  0  0  0  0  0  0
   -1.4001    2.3776    0.0000 H   0  0  0  0  0  0  0  0  0  0  0  0
   -2.3267    1.8426    0.0000 H   0  0  0  0  0  0  0  0  0  0  0  0
   -3.4275   -1.0395    0.0000 H   0  0  0  0  0  0  0  0  0  0  0  0
   -1.4339   -0.6159    0.0000 H   0  0  0  0  0  0  0  0  0  0  0  0
   -0.8686   -0.9250    0.0000 H   0  0  0  0  0  0  0  0  0  0  0  0
   -0.6802   -1.8787    0.0000 H   0  0  0  0  0  0  0  0  0  0  0  0
    0.3919   -2.1962    0.0000 H   0  0  0  0  0  0  0  0  0  0  0  0
    2.3985   -0.5080    0.0000 H   0  0  0  0  0  0  0  0  0  0  0  0
    1.7180    0.3791    0.0000 H   0  0  0  0  0  0  0  0  0  0  0  0
    1.0049    1.0400    0.0000 H   0  0  0  0  0  0  0  0  0  0  0  0
    1.8160    0.2703    0.0000 H   0  0  0  0  0  0  0  0  0  0  0  0
    2.6567   -1.3778    0.0000 H   0  0  0  0  0  0  0  0  0  0  0  0
    1.7846   -3.7935    0.0000 H   0  0  0  0  0  0  0  0  0  0  0  0
    2.8487   -3.9053    0.0000 H   0  0  0  0  0  0  0  0  0  0  0  0
    3.8629   -2.1483    0.0000 H   0  0  0  0  0  0  0  0  0  0  0  0
    4.2981   -3.1258    0.0000 H   0  0  0  0  0  0  0  0  0  0  0  0
    2.9407   -4.6333    0.0000 H   0  0  0  0  0  0  0  0  0  0  0  0
    4.0048   -4.7452    0.0000 H   0  0  0  0  0  0  0  0  0  0  0  0
    5.0191   -2.9884    0.0000 H   0  0  0  0  0  0  0  0  0  0  0  0
    5.4542   -3.9659    0.0000 H   0  0  0  0  0  0  0  0  0  0  0  0
    4.0966   -5.4733    0.0000 H   0  0  0  0  0  0  0  0  0  0  0  0
    5.7897   -4.7196    0.0000 H   0  0  0  0  0  0  0  0  0  0  0  0
    5.1607   -5.5852    0.0000 H   0  0  0  0  0  0  0  0  0  0  0  0
  1  2  1  0  0  0  0
  1  6  2  0  0  0  0
  1  7  1  0  0  0  0
  2  3  2  0  0  0  0
  2 33  1  0  0  0  0
  3  4  1  0  0  0  0
  3 34  1  0  0  0  0
  4  5  2  0  0  0  0
  4  8  1  0  0  0  0
  5  6  1  0  0  0  0
  5 35  1  0  0  0  0
  6 36  1  0  0  0  0
  8  9  1  0  0  0  0
  8 37  1  0  0  0  0
  8 38  1  0  0  0  0
  9 10  1  0  0  0  0
  9 11  1  0  0  0  0
 10 20  1  0  0  0  0
 10 39  1  0  0  0  0
 10 40  1  0  0  0  0
 11 12  1  0  0  0  0
 11 41  1  0  0  0  0
 11 42  1  0  0  0  0
 12 13  1  0  0  0  0
 12 16  2  0  0  0  0
 13 14  1  0  0  0  0
 14 15  2  0  0  0  0
 14 17  1  0  0  0  0
 15 16  1  0  0  0  0
 15 43  1  0  0  0  0
 16 44  1  0  0  0  0
 17 18  1  0  0  0  0
 17 19  2  0  0  0  0
 20 21  1  0  0  0  0
 20 24  1  0  0  0  0
 20 45  1  0  0  0  0
 21 22  1  0  0  0  0
 21 46  1  0  0  0  0
 21 47  1  0  0  0  0
 22 23  1  0  0  0  0
 22 25  1  0  0  0  0
 23 24  1  0  0  0  0
 23 48  1  0  0  0  0
 23 49  1  0  0  0  0
 24 50  1  0  0  0  0
 24 51  1  0  0  0  0
 25 26  2  0  0  0  0
 25 27  1  0  0  0  0
 27 28  1  0  0  0  0
 27 52  1  0  0  0  0
 28 29  1  0  0  0  0
 28 53  1  0  0  0  0
 28 54  1  0  0  0  0
 29 30  1  0  0  0  0
 29 55  1  0  0  0  0
 29 56  1  0  0  0  0
 30 31  1  0  0  0  0
 30 57  1  0  0  0  0
 30 58  1  0  0  0  0
 31 32  1  0  0  0  0
 31 59  1  0  0  0  0
 31 60  1  0  0  0  0
 32 61  1  0  0  0  0
 32 62  1  0  0  0  0
 32 63  1  0  0  0  0
M  CHG  2  17   1  18  -1
M  END
>  <DRUGBANK_ID>
DB14014

>  <COMMON_NAME>
SR-9011

>  <CAS_NUMBER>
1379686-29-9

>  <UNII>
VYI79FLZ6W

>  <SYNONYMS>
1-Pyrrolidinecarboxamide, 3-((((4-chlorophenyl)methyl)((5-nitro-2-thienyl)methyl)amino)methyl)-n-pentyl-

$$$$
