
 OpenBabel10282417072D

 31 31  0  0  0  0  0  0  0  0999 V2000
    1.0683    0.6167    0.0000 C   0  0  1  0  0  0  0  0  0  0  0  0
    1.7820    1.0306    0.0000 C   0  0  0  0  0  0  0  0  0  0  0  0
    1.0698   -0.2082    0.0000 N   0  0  0  0  0  0  0  0  0  0  0  0
    1.7850   -0.6194    0.0000 C   0  0  0  0  0  0  0  0  0  0  0  0
    0.3530    1.0279    0.0000 C   0  0  0  0  0  0  0  0  0  0  0  0
    1.7805    1.8556    0.0000 O   0  0  0  0  0  0  0  0  0  0  0  0
    2.2847   -0.3297    0.0000 O   0  0  0  0  0  0  0  0  0  0  0  0
   -0.3606    0.6141    0.0000 C   0  0  0  0  0  0  0  0  0  0  0  0
    2.4972    0.6194    0.0000 O   0  0  0  0  0  0  0  0  0  0  0  0
   -1.7881   -0.2135    0.0000 C   0  0  0  0  0  0  0  0  0  0  0  0
    2.5018   -1.8556    0.0000 N   0  0  0  0  0  0  0  0  0  0  0  0
   -1.0758    1.0253    0.0000 C   0  0  0  0  0  0  0  0  0  0  0  0
   -0.3591   -0.2108    0.0000 C   0  0  0  0  0  0  0  0  0  0  0  0
   -1.0728   -0.6247    0.0000 C   0  0  0  0  0  0  0  0  0  0  0  0
   -1.7896    0.6115    0.0000 C   0  0  0  0  0  0  0  0  0  0  0  0
   -2.5018   -0.6272    0.0000 O   0  0  0  0  0  0  0  0  0  0  0  0
    1.7866   -1.4444    0.0000 C   0  0  0  0  0  0  0  0  0  0  0  0
    1.9960    0.0834    0.0000 H   0  0  0  0  0  0  0  0  0  0  0  0
    0.2181   -0.7020    0.0000 H   0  0  0  0  0  0  0  0  0  0  0  0
    0.3510    2.0979    0.0000 H   0  0  0  0  0  0  0  0  0  0  0  0
   -0.5747    1.5612    0.0000 H   0  0  0  0  0  0  0  0  0  0  0  0
    2.5911    2.3256    0.0000 H   0  0  0  0  0  0  0  0  0  0  0  0
    2.5036   -2.8756    0.0000 H   0  0  0  0  0  0  0  0  0  0  0  0
    3.3842   -1.3440    0.0000 H   0  0  0  0  0  0  0  0  0  0  0  0
   -1.0776    2.0573    0.0000 H   0  0  0  0  0  0  0  0  0  0  0  0
    0.5356   -0.7251    0.0000 H   0  0  0  0  0  0  0  0  0  0  0  0
   -1.0708   -1.6567    0.0000 H   0  0  0  0  0  0  0  0  0  0  0  0
   -2.6843    1.1259    0.0000 H   0  0  0  0  0  0  0  0  0  0  0  0
   -3.3141   -0.1601    0.0000 H   0  0  0  0  0  0  0  0  0  0  0  0
    0.8610   -1.9811    0.0000 H   0  0  0  0  0  0  0  0  0  0  0  0
    0.8589   -0.9112    0.0000 H   0  0  0  0  0  0  0  0  0  0  0  0
  1  3  1  0  0  0  0
  1 18  1  6  0  0  0
  2  1  1  0  0  0  0
  3 19  1  0  0  0  0
  4  3  1  0  0  0  0
  5  1  1  0  0  0  0
  5 20  1  0  0  0  0
  5 21  1  0  0  0  0
  6  2  1  0  0  0  0
  6 22  1  0  0  0  0
  7  4  2  0  0  0  0
  8  5  1  0  0  0  0
  9  2  2  0  0  0  0
 10 14  1  0  0  0  0
 11 17  1  0  0  0  0
 11 23  1  0  0  0  0
 11 24  1  0  0  0  0
 12  8  2  0  0  0  0
 12 25  1  0  0  0  0
 13  8  1  0  0  0  0
 13 26  1  0  0  0  0
 14 13  2  0  0  0  0
 14 27  1  0  0  0  0
 15 12  1  0  0  0  0
 15 10  2  0  0  0  0
 15 28  1  0  0  0  0
 16 10  1  0  0  0  0
 16 29  1  0  0  0  0
 17  4  1  0  0  0  0
 17 30  1  0  0  0  0
 17 31  1  0  0  0  0
M  END
>  <DRUGBANK_ID>
DB15991

>  <COMMON_NAME>
Glycyltyrosine

>  <CAS_NUMBER>
658-79-7

>  <UNII>
A226496H4O

$$$$
