
 OpenBabel10282417072D

 15 14  0  0  0  0  0  0  0  0999 V2000
    3.7125   -0.7145    0.0000 C   0  0  0  0  0  0  0  0  0  0  0  0
    2.8875   -0.7145    0.0000 S   0  0  0  0  0  0  0  0  0  0  0  0
    2.8875    0.1105    0.0000 O   0  0  0  0  0  0  0  0  0  0  0  0
    2.8875   -1.5395    0.0000 O   0  0  0  0  0  0  0  0  0  0  0  0
    2.0625   -0.7145    0.0000 C   0  0  0  0  0  0  0  0  0  0  0  0
    1.6500   -0.0000    0.0000 C   0  0  0  0  0  0  0  0  0  0  0  0
    0.8250    0.0000    0.0000 C   0  0  0  0  0  0  0  0  0  0  0  0
    0.0000    0.0000    0.0000 N   0  0  0  0  0  0  0  0  0  0  0  0
    4.2475   -1.6411    0.0000 H   0  0  0  0  0  0  0  0  0  0  0  0
    4.2475    0.2121    0.0000 H   0  0  0  0  0  0  0  0  0  0  0  0
    4.7825   -0.7145    0.0000 H   0  0  0  0  0  0  0  0  0  0  0  0
    1.5275   -1.6411    0.0000 H   0  0  0  0  0  0  0  0  0  0  0  0
    0.9925   -0.7145    0.0000 H   0  0  0  0  0  0  0  0  0  0  0  0
    2.1850    0.9266    0.0000 H   0  0  0  0  0  0  0  0  0  0  0  0
    1.1150    0.9266    0.0000 H   0  0  0  0  0  0  0  0  0  0  0  0
  1  2  1  0  0  0  0
  1  9  1  0  0  0  0
  1 10  1  0  0  0  0
  1 11  1  0  0  0  0
  2  3  2  0  0  0  0
  2  4  2  0  0  0  0
  2  5  1  0  0  0  0
  5  6  1  0  0  0  0
  5 12  1  0  0  0  0
  5 13  1  0  0  0  0
  6  7  1  0  0  0  0
  6 14  1  0  0  0  0
  6 15  1  0  0  0  0
  7  8  3  0  0  0  0
M  END
>  <DRUGBANK_ID>
DB16130

>  <COMMON_NAME>
Dapansutrile

>  <CAS_NUMBER>
54863-37-5

>  <UNII>
2Z03364G96

>  <SYNONYMS>
Dapansutrile

$$$$
