
 OpenBabel10282417072D

 35 37  0  0  0  0  0  0  0  0999 V2000
   -3.1600   -0.3274    0.0000 C   0  0  0  0  0  0  0  0  0  0  0  0
   -3.6349   -1.0020    0.0000 C   0  0  0  0  0  0  0  0  0  0  0  0
   -3.2881   -1.7505    0.0000 C   0  0  0  0  0  0  0  0  0  0  0  0
   -2.4664   -1.8245    0.0000 C   0  0  0  0  0  0  0  0  0  0  0  0
   -1.9915   -1.1499    0.0000 C   0  0  0  0  0  0  0  0  0  0  0  0
   -2.3383   -0.4013    0.0000 C   0  0  0  0  0  0  0  0  0  0  0  0
    0.1954    0.3858    0.0000 C   0  0  0  0  0  0  0  0  0  0  0  0
   -0.5251   -0.0159    0.0000 C   0  0  0  0  0  0  0  0  0  0  0  0
   -0.5374   -0.8408    0.0000 C   0  0  0  0  0  0  0  0  0  0  0  0
    0.1707   -1.2639    0.0000 C   0  0  0  0  0  0  0  0  0  0  0  0
    0.8913   -0.8622    0.0000 C   0  0  0  0  0  0  0  0  0  0  0  0
    0.9036   -0.0373    0.0000 C   0  0  0  0  0  0  0  0  0  0  0  0
   -1.1900   -1.3455    0.0000 S   0  0  0  0  0  0  0  0  0  0  0  0
   -1.9693    0.3365    0.0000 C   0  0  0  0  0  0  0  0  0  0  0  0
   -1.1623    0.5080    0.0000 C   0  0  0  0  0  0  0  0  0  0  0  0
    1.6242    0.3644    0.0000 C   0  0  3  0  0  0  0  0  0  0  0  0
    1.6365    1.1893    0.0000 C   0  0  0  0  0  0  0  0  0  0  0  0
    2.3324   -0.0586    0.0000 C   0  0  0  0  0  0  0  0  0  0  0  0
    3.0530    0.3430    0.0000 O   0  0  0  0  0  0  0  0  0  0  0  0
    2.3201   -0.8836    0.0000 O   0  0  0  0  0  0  0  0  0  0  0  0
   -2.4739    0.9891    0.0000 O   0  0  0  0  0  0  0  0  0  0  0  0
   -3.5938    0.6090    0.0000 H   0  0  0  0  0  0  0  0  0  0  0  0
   -4.6627   -0.9095    0.0000 H   0  0  0  0  0  0  0  0  0  0  0  0
   -3.8821   -2.5944    0.0000 H   0  0  0  0  0  0  0  0  0  0  0  0
   -2.0326   -2.7609    0.0000 H   0  0  0  0  0  0  0  0  0  0  0  0
    0.2108    1.4177    0.0000 H   0  0  0  0  0  0  0  0  0  0  0  0
    0.1552   -2.2958    0.0000 H   0  0  0  0  0  0  0  0  0  0  0  0
    1.7772   -1.3915    0.0000 H   0  0  0  0  0  0  0  0  0  0  0  0
   -0.9086    1.5475    0.0000 H   0  0  0  0  0  0  0  0  0  0  0  0
   -0.1472    0.8463    0.0000 H   0  0  0  0  0  0  0  0  0  0  0  0
    0.7057    0.9132    0.0000 H   0  0  0  0  0  0  0  0  0  0  0  0
    2.5710    1.7104    0.0000 H   0  0  0  0  0  0  0  0  0  0  0  0
    0.7179    1.7381    0.0000 H   0  0  0  0  0  0  0  0  0  0  0  0
    1.6525    2.2592    0.0000 H   0  0  0  0  0  0  0  0  0  0  0  0
    3.8573   -0.1377    0.0000 H   0  0  0  0  0  0  0  0  0  0  0  0
  1  2  2  0  0  0  0
  1 22  1  0  0  0  0
  2  3  1  0  0  0  0
  2 23  1  0  0  0  0
  3  4  2  0  0  0  0
  3 24  1  0  0  0  0
  4  5  1  0  0  0  0
  4 25  1  0  0  0  0
  5  6  2  0  0  0  0
  5 13  1  0  0  0  0
  6  1  1  0  0  0  0
  6 14  1  0  0  0  0
  7  8  2  0  0  0  0
  7 26  1  0  0  0  0
  8  9  1  0  0  0  0
  9 10  2  0  0  0  0
  9 13  1  0  0  0  0
 10 11  1  0  0  0  0
 10 27  1  0  0  0  0
 11 12  2  0  0  0  0
 11 28  1  0  0  0  0
 12  7  1  0  0  0  0
 12 16  1  0  0  0  0
 14 15  1  0  0  0  0
 14 21  2  0  0  0  0
 15  8  1  0  0  0  0
 15 29  1  0  0  0  0
 15 30  1  0  0  0  0
 16 17  1  0  0  0  0
 16 18  1  0  0  0  0
 16 31  1  0  0  0  0
 17 32  1  0  0  0  0
 17 33  1  0  0  0  0
 17 34  1  0  0  0  0
 18 19  1  0  0  0  0
 18 20  2  0  0  0  0
 19 35  1  0  0  0  0
M  END
>  <DRUGBANK_ID>
DB06737

>  <COMMON_NAME>
Zaltoprofen

>  <CAS_NUMBER>
74711-43-6

>  <UNII>
H8635NG3PY

>  <SYNONYMS>
Zaltoprofen; Zaltoprofene; Zaltoprofeno; Zaltoprofenum

$$$$
