1595
 OpenBabel10282417072D

 32 34  0  0  0  0  0  0  0  0999 V2000
    2.3403    2.5929    0.0000 O   0  0  0  0  0  0  0  0  0  0  0  0
    1.8668   -2.5929    0.0000 O   0  5  0  0  0  0  0  0  0  0  0  0
    3.2913   -2.4806    0.0000 O   0  0  0  0  0  0  0  0  0  0  0  0
    2.1839    1.2046    0.0000 N   0  0  0  0  0  0  0  0  0  0  0  0
    4.0375    1.2046    0.0000 N   0  0  0  0  0  0  0  0  0  0  0  0
    2.5467   -2.1255    0.0000 N   0  3  0  0  0  0  0  0  0  0  0  0
    3.1107    0.0423    0.0000 C   0  0  0  0  0  0  0  0  0  0  0  0
    2.3674    0.4003    0.0000 C   0  0  0  0  0  0  0  0  0  0  0  0
    3.8540    0.4003    0.0000 C   0  0  0  0  0  0  0  0  0  0  0  0
    4.4990   -0.1141    0.0000 C   0  0  0  0  0  0  0  0  0  0  0  0
    3.1881   -0.8135    0.0000 C   0  0  0  0  0  0  0  0  0  0  0  0
    1.6500   -0.0728    0.0000 C   0  0  0  0  0  0  0  0  0  0  0  0
    3.5232    1.8496    0.0000 C   0  0  0  0  0  0  0  0  0  0  0  0
    2.4818   -1.3031    0.0000 C   0  0  0  0  0  0  0  0  0  0  0  0
    2.6982    1.8496    0.0000 C   0  0  0  0  0  0  0  0  0  0  0  0
    1.7076   -0.9302    0.0000 C   0  0  0  0  0  0  0  0  0  0  0  0
    5.2670    0.1873    0.0000 C   0  0  0  0  0  0  0  0  0  0  0  0
    4.3760   -0.9299    0.0000 C   0  0  0  0  0  0  0  0  0  0  0  0
    5.9120   -0.3271    0.0000 C   0  0  0  0  0  0  0  0  0  0  0  0
    5.0210   -1.4442    0.0000 C   0  0  0  0  0  0  0  0  0  0  0  0
    5.7890   -1.1429    0.0000 C   0  0  0  0  0  0  0  0  0  0  0  0
    1.2241    1.4237    0.0000 H   0  0  0  0  0  0  0  0  0  0  0  0
    4.1230   -1.2505    0.0000 H   0  0  0  0  0  0  0  0  0  0  0  0
    0.7254    0.3857    0.0000 H   0  0  0  0  0  0  0  0  0  0  0  0
    3.9875    2.8136    0.0000 H   0  0  0  0  0  0  0  0  0  0  0  0
    2.9539    2.7556    0.0000 H   0  0  0  0  0  0  0  0  0  0  0  0
    0.8527   -1.5082    0.0000 H   0  0  0  0  0  0  0  0  0  0  0  0
    5.4208    1.2078    0.0000 H   0  0  0  0  0  0  0  0  0  0  0  0
    3.4153   -1.3069    0.0000 H   0  0  0  0  0  0  0  0  0  0  0  0
    6.8727    0.0499    0.0000 H   0  0  0  0  0  0  0  0  0  0  0  0
    4.8672   -2.4647    0.0000 H   0  0  0  0  0  0  0  0  0  0  0  0
    6.5958   -1.7864    0.0000 H   0  0  0  0  0  0  0  0  0  0  0  0
  1 15  2  0  0  0  0
  2  6  1  0  0  0  0
  3  6  2  0  0  0  0
  4  8  1  0  0  0  0
  4 15  1  0  0  0  0
  4 22  1  0  0  0  0
  5  9  2  0  0  0  0
  5 13  1  0  0  0  0
  6 14  1  0  0  0  0
  7  8  2  0  0  0  0
  7  9  1  0  0  0  0
  7 11  1  0  0  0  0
  8 12  1  0  0  0  0
  9 10  1  0  0  0  0
 10 17  2  0  0  0  0
 10 18  1  0  0  0  0
 11 14  2  0  0  0  0
 11 23  1  0  0  0  0
 12 16  2  0  0  0  0
 12 24  1  0  0  0  0
 13 15  1  0  0  0  0
 13 25  1  0  0  0  0
 13 26  1  0  0  0  0
 14 16  1  0  0  0  0
 16 27  1  0  0  0  0
 17 19  1  0  0  0  0
 17 28  1  0  0  0  0
 18 20  2  0  0  0  0
 18 29  1  0  0  0  0
 19 21  2  0  0  0  0
 19 30  1  0  0  0  0
 20 21  1  0  0  0  0
 20 31  1  0  0  0  0
 21 32  1  0  0  0  0
M  CHG  2   2  -1   6   1
M  END
>  <DRUGBANK_ID>
DB01595

>  <COMMON_NAME>
Nitrazepam

>  <CAS_NUMBER>
146-22-5

>  <UNII>
9CLV70W7HS

>  <SYNONYMS>
1,3-dihydro-7-nitro-5-phenyl-2H-1,4-benzodiazepin-2-one; 2,3-dihydro-7-nitro-5-phenyl-1H-1,4-benzodiazepin-2-one; 7-nitro-1,3-dihydro-5-phenyl-2H-1,4-benzodiazepin-2-one; 7-nitro-5-phenyl-2,3-dihydro-1H-1,4-benzodiazepin-2-one; N-desmethylnimetazepam; Nitraz√©pam; Nitrazepam; Nitrazepamum

$$$$
