GVQ
 OpenBabel10282417072D

 30 31  0  0  0  0  0  0  0  0999 V2000
    1.9273   -0.2591    0.0000 C   0  0  0  0  0  0  0  0  0  0  0  0
    2.6418   -0.6716    0.0000 C   0  0  0  0  0  0  0  0  0  0  0  0
    2.6418   -1.4966    0.0000 C   0  0  0  0  0  0  0  0  0  0  0  0
    1.9273   -1.9091    0.0000 C   0  0  0  0  0  0  0  0  0  0  0  0
   -0.9306   -1.9091    0.0000 C   0  0  0  0  0  0  0  0  0  0  0  0
   -1.6450   -1.4966    0.0000 C   0  0  0  0  0  0  0  0  0  0  0  0
   -1.6450   -0.6716    0.0000 C   0  0  0  0  0  0  0  0  0  0  0  0
   -0.9306   -0.2591    0.0000 C   0  0  0  0  0  0  0  0  0  0  0  0
    0.4984   -0.2591    0.0000 C   0  0  2  0  0  0  0  0  0  0  0  0
   -0.2161   -1.4966    0.0000 C   0  0  0  0  0  0  0  0  0  0  0  0
   -0.2161   -0.6716    0.0000 C   0  0  0  0  0  0  0  0  0  0  0  0
    1.2128   -0.6716    0.0000 C   0  0  0  0  0  0  0  0  0  0  0  0
    1.2128   -1.4966    0.0000 C   0  0  0  0  0  0  0  0  0  0  0  0
    0.4984    0.5659    0.0000 C   0  0  0  0  0  0  0  0  0  0  0  0
    1.2128    0.9784    0.0000 N   0  0  0  0  0  0  0  0  0  0  0  0
    3.3563   -1.9091    0.0000 Cl  0  0  0  0  0  0  0  0  0  0  0  0
    0.4984   -0.8430    0.0000 H   0  0  0  0  0  0  0  0  0  0  0  0
    1.9273    0.7729    0.0000 H   0  0  0  0  0  0  0  0  0  0  0  0
    3.5355   -0.1556    0.0000 H   0  0  0  0  0  0  0  0  0  0  0  0
    1.9273   -2.9411    0.0000 H   0  0  0  0  0  0  0  0  0  0  0  0
   -0.9306   -2.9411    0.0000 H   0  0  0  0  0  0  0  0  0  0  0  0
   -2.5387   -2.0126    0.0000 H   0  0  0  0  0  0  0  0  0  0  0  0
   -2.5387   -0.1556    0.0000 H   0  0  0  0  0  0  0  0  0  0  0  0
   -0.9306    0.7729    0.0000 H   0  0  0  0  0  0  0  0  0  0  0  0
    0.6776   -2.0126    0.0000 H   0  0  0  0  0  0  0  0  0  0  0  0
    0.3191   -2.0126    0.0000 H   0  0  0  0  0  0  0  0  0  0  0  0
   -0.4283    1.1009    0.0000 H   0  0  0  0  0  0  0  0  0  0  0  0
    0.4984    1.6359    0.0000 H   0  0  0  0  0  0  0  0  0  0  0  0
    2.0962    0.4684    0.0000 H   0  0  0  0  0  0  0  0  0  0  0  0
    1.2128    1.9984    0.0000 H   0  0  0  0  0  0  0  0  0  0  0  0
  1  2  1  0  0  0  0
  1 12  2  0  0  0  0
  1 18  1  0  0  0  0
  2  3  2  0  0  0  0
  2 19  1  0  0  0  0
  3  4  1  0  0  0  0
  3 16  1  0  0  0  0
  4 13  2  0  0  0  0
  4 20  1  0  0  0  0
  5  6  1  0  0  0  0
  5 10  2  0  0  0  0
  5 21  1  0  0  0  0
  6  7  2  0  0  0  0
  6 22  1  0  0  0  0
  7  8  1  0  0  0  0
  7 23  1  0  0  0  0
  8 11  2  0  0  0  0
  8 24  1  0  0  0  0
  9 11  1  0  0  0  0
  9 12  1  0  0  0  0
  9 14  1  0  0  0  0
  9 17  1  6  0  0  0
 10 11  1  0  0  0  0
 10 25  1  0  0  0  0
 12 13  1  0  0  0  0
 13 26  1  0  0  0  0
 14 15  1  0  0  0  0
 14 27  1  0  0  0  0
 14 28  1  0  0  0  0
 15 29  1  0  0  0  0
 15 30  1  0  0  0  0
M  END
>  <DRUGBANK_ID>
DB07860

>  <COMMON_NAME>
(2R)-2-(4-CHLOROPHENYL)-2-PHENYLETHANAMINE

$$$$
