
 OpenBabel10282417072D

 56 58  0  0  0  0  0  0  0  0999 V2000
   -4.3974    0.1914    0.0000 C   0  0  0  0  0  0  0  0  0  0  0  0
   -3.5724    0.1914    0.0000 C   0  0  0  0  0  0  0  0  0  0  0  0
   -3.1599   -0.5230    0.0000 N   0  0  0  0  0  0  0  0  0  0  0  0
   -3.5724   -1.2375    0.0000 C   0  0  0  0  0  0  0  0  0  0  0  0
   -4.3974   -1.2375    0.0000 C   0  0  0  0  0  0  0  0  0  0  0  0
   -2.3349   -0.5230    0.0000 C   0  0  0  0  0  0  0  0  0  0  0  0
   -1.9224   -1.2375    0.0000 C   0  0  0  0  0  0  0  0  0  0  0  0
   -1.0974   -1.2375    0.0000 C   0  0  0  0  0  0  0  0  0  0  0  0
   -0.6849   -0.5230    0.0000 O   0  0  0  0  0  0  0  0  0  0  0  0
   -0.6849   -1.9520    0.0000 N   0  0  0  0  0  0  0  0  0  0  0  0
   -1.0974   -2.6664    0.0000 C   0  0  0  0  0  0  0  0  0  0  0  0
   -1.9224   -2.6664    0.0000 C   0  0  0  0  0  0  0  0  0  0  0  0
   -2.3349   -3.3809    0.0000 C   0  0  0  0  0  0  0  0  0  0  0  0
   -1.9224   -4.0954    0.0000 C   0  0  0  0  0  0  0  0  0  0  0  0
   -1.0974   -4.0954    0.0000 C   0  0  0  0  0  0  0  0  0  0  0  0
   -0.6849   -3.3809    0.0000 C   0  0  0  0  0  0  0  0  0  0  0  0
    0.1401   -3.3809    0.0000 S   0  0  0  0  0  0  0  0  0  0  0  0
    0.5526   -2.6664    0.0000 C   0  0  0  0  0  0  0  0  0  0  0  0
    0.1401   -1.9520    0.0000 C   0  0  0  0  0  0  0  0  0  0  0  0
    0.5526   -1.2375    0.0000 C   0  0  0  0  0  0  0  0  0  0  0  0
    1.3776   -1.2375    0.0000 C   0  0  0  0  0  0  0  0  0  0  0  0
    1.7901   -1.9520    0.0000 C   0  0  0  0  0  0  0  0  0  0  0  0
    1.3776   -2.6664    0.0000 C   0  0  0  0  0  0  0  0  0  0  0  0
    1.7901   -0.5230    0.0000 N   0  0  0  0  0  0  0  0  0  0  0  0
    2.6151   -0.5230    0.0000 C   0  0  0  0  0  0  0  0  0  0  0  0
    3.0276   -1.2375    0.0000 O   0  0  0  0  0  0  0  0  0  0  0  0
    3.0276    0.1914    0.0000 O   0  0  0  0  0  0  0  0  0  0  0  0
    3.8526    0.1914    0.0000 C   0  0  0  0  0  0  0  0  0  0  0  0
    4.2651    0.9059    0.0000 C   0  0  0  0  0  0  0  0  0  0  0  0
   -4.9324    1.1180    0.0000 H   0  0  0  0  0  0  0  0  0  0  0  0
   -4.9324   -0.7352    0.0000 H   0  0  0  0  0  0  0  0  0  0  0  0
   -5.4674    0.1914    0.0000 H   0  0  0  0  0  0  0  0  0  0  0  0
   -3.0374    1.1181    0.0000 H   0  0  0  0  0  0  0  0  0  0  0  0
   -2.5024    0.1914    0.0000 H   0  0  0  0  0  0  0  0  0  0  0  0
   -3.0374   -2.1641    0.0000 H   0  0  0  0  0  0  0  0  0  0  0  0
   -4.1074   -2.1641    0.0000 H   0  0  0  0  0  0  0  0  0  0  0  0
   -4.9324   -0.3109    0.0000 H   0  0  0  0  0  0  0  0  0  0  0  0
   -4.9324   -2.1641    0.0000 H   0  0  0  0  0  0  0  0  0  0  0  0
   -5.4674   -1.2375    0.0000 H   0  0  0  0  0  0  0  0  0  0  0  0
   -1.7999    0.4036    0.0000 H   0  0  0  0  0  0  0  0  0  0  0  0
   -1.2649   -0.5230    0.0000 H   0  0  0  0  0  0  0  0  0  0  0  0
   -2.4574   -2.1641    0.0000 H   0  0  0  0  0  0  0  0  0  0  0  0
   -1.3874   -2.1641    0.0000 H   0  0  0  0  0  0  0  0  0  0  0  0
   -2.4384   -1.7727    0.0000 H   0  0  0  0  0  0  0  0  0  0  0  0
   -3.3669   -3.3809    0.0000 H   0  0  0  0  0  0  0  0  0  0  0  0
   -2.4384   -4.9891    0.0000 H   0  0  0  0  0  0  0  0  0  0  0  0
   -0.5814   -4.9891    0.0000 H   0  0  0  0  0  0  0  0  0  0  0  0
    0.0366   -0.3438    0.0000 H   0  0  0  0  0  0  0  0  0  0  0  0
    2.8221   -1.9520    0.0000 H   0  0  0  0  0  0  0  0  0  0  0  0
    1.8936   -3.5601    0.0000 H   0  0  0  0  0  0  0  0  0  0  0  0
    1.2978    0.3296    0.0000 H   0  0  0  0  0  0  0  0  0  0  0  0
    4.3876   -0.7352    0.0000 H   0  0  0  0  0  0  0  0  0  0  0  0
    4.9226    0.1914    0.0000 H   0  0  0  0  0  0  0  0  0  0  0  0
    5.3351    0.9059    0.0000 H   0  0  0  0  0  0  0  0  0  0  0  0
    3.7301    1.8325    0.0000 H   0  0  0  0  0  0  0  0  0  0  0  0
    4.8001    1.8326    0.0000 H   0  0  0  0  0  0  0  0  0  0  0  0
  1  2  1  0  0  0  0
  1 30  1  0  0  0  0
  1 31  1  0  0  0  0
  1 32  1  0  0  0  0
  2  3  1  0  0  0  0
  2 33  1  0  0  0  0
  2 34  1  0  0  0  0
  3  4  1  0  0  0  0
  3  6  1  0  0  0  0
  4  5  1  0  0  0  0
  4 35  1  0  0  0  0
  4 36  1  0  0  0  0
  5 37  1  0  0  0  0
  5 38  1  0  0  0  0
  5 39  1  0  0  0  0
  6  7  1  0  0  0  0
  6 40  1  0  0  0  0
  6 41  1  0  0  0  0
  7  8  1  0  0  0  0
  7 42  1  0  0  0  0
  7 43  1  0  0  0  0
  8  9  2  0  0  0  0
  8 10  1  0  0  0  0
 10 11  1  0  0  0  0
 10 19  1  0  0  0  0
 11 12  2  0  0  0  0
 11 16  1  0  0  0  0
 12 13  1  0  0  0  0
 12 44  1  0  0  0  0
 13 14  2  0  0  0  0
 13 45  1  0  0  0  0
 14 15  1  0  0  0  0
 14 46  1  0  0  0  0
 15 16  2  0  0  0  0
 15 47  1  0  0  0  0
 16 17  1  0  0  0  0
 17 18  1  0  0  0  0
 18 19  2  0  0  0  0
 18 23  1  0  0  0  0
 19 20  1  0  0  0  0
 20 21  2  0  0  0  0
 20 48  1  0  0  0  0
 21 22  1  0  0  0  0
 21 24  1  0  0  0  0
 22 23  2  0  0  0  0
 22 49  1  0  0  0  0
 23 50  1  0  0  0  0
 24 25  1  0  0  0  0
 24 51  1  0  0  0  0
 25 26  2  0  0  0  0
 25 27  1  0  0  0  0
 27 28  1  0  0  0  0
 28 29  1  0  0  0  0
 28 52  1  0  0  0  0
 28 53  1  0  0  0  0
 29 54  1  0  0  0  0
 29 55  1  0  0  0  0
 29 56  1  0  0  0  0
M  END
>  <DRUGBANK_ID>
DB13645

>  <COMMON_NAME>
Ethacizine

>  <CAS_NUMBER>
33414-33-4

>  <UNII>
FE5SPV1Z6G

$$$$
