
 OpenBabel10282417072D

 60 62  0  0  0  0  0  0  0  0999 V2000
   -1.0895   -1.7970    0.0000 P   0  0  1  0  0  0  0  0  0  0  0  0
   -0.3750   -0.5595    0.0000 P   0  0  2  0  0  0  0  0  0  0  0  0
    1.1401    1.9108    0.0000 O   0  0  0  0  0  0  0  0  0  0  0  0
   -2.5184   -2.6220    0.0000 O   0  0  0  0  0  0  0  0  0  0  0  0
    1.9791   -0.0521    0.0000 O   0  0  0  0  0  0  0  0  0  0  0  0
    3.1800    1.2817    0.0000 O   0  0  0  0  0  0  0  0  0  0  0  0
   -1.0895   -2.6220    0.0000 O   0  0  0  0  0  0  0  0  0  0  0  0
   -2.5184   -5.0970    0.0000 O   0  0  0  0  0  0  0  0  0  0  0  0
   -3.9474   -4.2720    0.0000 O   0  0  0  0  0  0  0  0  0  0  0  0
    0.3394   -0.1470    0.0000 O   0  0  0  0  0  0  0  0  0  0  0  0
   -1.0895   -4.2720    0.0000 O   0  0  0  0  0  0  0  0  0  0  0  0
   -1.0895   -0.9720    0.0000 O   0  0  0  0  0  0  0  0  0  0  0  0
   -3.9474   -1.7970    0.0000 O   0  0  0  0  0  0  0  0  0  0  0  0
    3.5880    2.2548    0.0000 O   0  0  0  0  0  0  0  0  0  0  0  0
   -0.2645   -1.7970    0.0000 O   0  0  0  0  0  0  0  0  0  0  0  0
   -0.7875    0.1548    0.0000 O   0  0  0  0  0  0  0  0  0  0  0  0
   -1.9145   -1.7970    0.0000 O   0  0  0  0  0  0  0  0  0  0  0  0
    0.0374   -1.2740    0.0000 O   0  0  0  0  0  0  0  0  0  0  0  0
    3.2893    5.0970    0.0000 O   0  0  0  0  0  0  0  0  0  0  0  0
    2.2826    2.8361    0.0000 N   0  0  0  0  0  0  0  0  0  0  0  0
    3.4387    3.6759    0.0000 N   0  0  0  0  0  0  0  0  0  0  0  0
    1.8076    0.7548    0.0000 C   0  0  1  0  0  0  0  0  0  0  0  0
    2.3596    1.3679    0.0000 C   0  0  2  0  0  0  0  0  0  0  0  0
    1.0538    1.0904    0.0000 C   0  0  1  0  0  0  0  0  0  0  0  0
    1.9471    2.0823    0.0000 C   0  0  1  0  0  0  0  0  0  0  0  0
   -2.5184   -4.2720    0.0000 C   0  0  1  0  0  0  0  0  0  0  0  0
   -3.2328   -3.8595    0.0000 C   0  0  1  0  0  0  0  0  0  0  0  0
   -1.8039   -3.8595    0.0000 C   0  0  1  0  0  0  0  0  0  0  0  0
   -3.2328   -3.0345    0.0000 C   0  0  1  0  0  0  0  0  0  0  0  0
   -1.8039   -3.0345    0.0000 C   0  0  2  0  0  0  0  0  0  0  0  0
    0.3394    0.6779    0.0000 C   0  0  0  0  0  0  0  0  0  0  0  0
   -3.9474   -2.6220    0.0000 C   0  0  0  0  0  0  0  0  0  0  0  0
    3.1031    2.9223    0.0000 C   0  0  0  0  0  0  0  0  0  0  0  0
    1.7977    3.5035    0.0000 C   0  0  0  0  0  0  0  0  0  0  0  0
    2.1333    4.2571    0.0000 C   0  0  0  0  0  0  0  0  0  0  0  0
    2.9537    4.3434    0.0000 C   0  0  0  0  0  0  0  0  0  0  0  0
    3.9474    3.7294    0.0000 H   0  0  0  0  0  0  0  0  0  0  0  0
    1.2582   -0.7011    0.0000 H   0  0  0  0  0  0  0  0  0  0  0  0
    3.5746    0.3956    0.0000 H   0  0  0  0  0  0  0  0  0  0  0  0
   -3.3584   -5.5820    0.0000 H   0  0  0  0  0  0  0  0  0  0  0  0
   -4.7874   -3.7869    0.0000 H   0  0  0  0  0  0  0  0  0  0  0  0
   -1.0895   -5.2420    0.0000 H   0  0  0  0  0  0  0  0  0  0  0  0
   -3.1074   -1.3120    0.0000 H   0  0  0  0  0  0  0  0  0  0  0  0
    0.2205   -2.6370    0.0000 H   0  0  0  0  0  0  0  0  0  0  0  0
   -0.3026    0.9949    0.0000 H   0  0  0  0  0  0  0  0  0  0  0  0
    2.8411    0.4779    0.0000 H   0  0  0  0  0  0  0  0  0  0  0  0
    2.7431    0.3690    0.0000 H   0  0  0  0  0  0  0  0  0  0  0  0
    0.1564    1.6732    0.0000 H   0  0  0  0  0  0  0  0  0  0  0  0
    1.2737    2.9138    0.0000 H   0  0  0  0  0  0  0  0  0  0  0  0
   -3.4451   -4.8070    0.0000 H   0  0  0  0  0  0  0  0  0  0  0  0
   -3.2329   -4.9295    0.0000 H   0  0  0  0  0  0  0  0  0  0  0  0
   -1.8039   -4.9295    0.0000 H   0  0  0  0  0  0  0  0  0  0  0  0
   -3.2329   -1.9645    0.0000 H   0  0  0  0  0  0  0  0  0  0  0  0
   -1.8039   -1.9645    0.0000 H   0  0  0  0  0  0  0  0  0  0  0  0
   -0.5873    1.2129    0.0000 H   0  0  0  0  0  0  0  0  0  0  0  0
    0.3394    1.7479    0.0000 H   0  0  0  0  0  0  0  0  0  0  0  0
   -4.8740   -3.1570    0.0000 H   0  0  0  0  0  0  0  0  0  0  0  0
   -3.9473   -3.6920    0.0000 H   0  0  0  0  0  0  0  0  0  0  0  0
    0.7713    3.3957    0.0000 H   0  0  0  0  0  0  0  0  0  0  0  0
    1.5267    5.0920    0.0000 H   0  0  0  0  0  0  0  0  0  0  0  0
  1  7  1  0  0  0  0
  1 12  1  0  0  0  0
  1 15  1  0  0  0  0
  1 17  2  6  0  0  0
  2 10  1  0  0  0  0
  2 12  1  0  0  0  0
  2 16  1  0  0  0  0
  2 18  2  1  0  0  0
  3 24  1  0  0  0  0
  3 25  1  0  0  0  0
  4 29  1  0  0  0  0
  4 30  1  0  0  0  0
  5 38  1  0  0  0  0
  6 39  1  0  0  0  0
  8 40  1  0  0  0  0
  9 41  1  0  0  0  0
 10 31  1  0  0  0  0
 11 42  1  0  0  0  0
 13 32  1  0  0  0  0
 13 43  1  0  0  0  0
 14 33  2  0  0  0  0
 15 44  1  0  0  0  0
 16 45  1  0  0  0  0
 19 36  2  0  0  0  0
 20 33  1  0  0  0  0
 20 34  1  0  0  0  0
 21 33  1  0  0  0  0
 21 36  1  0  0  0  0
 21 37  1  0  0  0  0
 22  5  1  0  0  0  0
 22 23  1  0  0  0  0
 22 24  1  0  0  0  0
 22 46  1  1  0  0  0
 23  6  1  0  0  0  0
 23 25  1  0  0  0  0
 23 47  1  1  0  0  0
 24 31  1  0  0  0  0
 24 48  1  6  0  0  0
 25 20  1  0  0  0  0
 25 49  1  6  0  0  0
 26  8  1  0  0  0  0
 26 27  1  0  0  0  0
 26 28  1  0  0  0  0
 26 50  1  6  0  0  0
 27  9  1  0  0  0  0
 27 29  1  0  0  0  0
 27 51  1  1  0  0  0
 28 11  1  0  0  0  0
 28 30  1  0  0  0  0
 28 52  1  6  0  0  0
 29 32  1  0  0  0  0
 29 53  1  6  0  0  0
 30  7  1  0  0  0  0
 30 54  1  1  0  0  0
 31 55  1  0  0  0  0
 31 56  1  0  0  0  0
 32 57  1  0  0  0  0
 32 58  1  0  0  0  0
 34 35  2  0  0  0  0
 34 59  1  0  0  0  0
 35 36  1  0  0  0  0
 35 60  1  0  0  0  0
M  END
>  <DRUGBANK_ID>
DB02421

>  <SECONDARY_ACCESSION_NUMBERS>
EXPT03175

>  <COMMON_NAME>
Uridine-5'-diphosphate-mannose

$$$$
