
 OpenBabel10282417072D

 26 26  0  0  0  0  0  0  0  0999 V2000
   -2.1434    0.2584    0.0000 C   0  0  0  0  0  0  0  0  0  0  0  0
   -1.7309   -1.0110    0.0000 S   0  0  0  0  0  0  0  0  0  0  0  0
   -2.8108   -0.2264    0.0000 C   0  0  0  0  0  0  0  0  0  0  0  0
   -2.5559   -1.0110    0.0000 S   0  0  0  0  0  0  0  0  0  0  0  0
   -1.4760   -0.2264    0.0000 C   0  0  2  0  0  0  0  0  0  0  0  0
   -0.7615    0.1860    0.0000 C   0  0  0  0  0  0  0  0  0  0  0  0
   -0.0470   -0.2264    0.0000 C   0  0  0  0  0  0  0  0  0  0  0  0
    0.6674    0.1860    0.0000 C   0  0  0  0  0  0  0  0  0  0  0  0
    1.3818   -0.2264    0.0000 C   0  0  0  0  0  0  0  0  0  0  0  0
    2.0963    0.1860    0.0000 C   0  0  0  0  0  0  0  0  0  0  0  0
    2.0963    1.0110    0.0000 O   0  0  0  0  0  0  0  0  0  0  0  0
    2.8108   -0.2264    0.0000 O   0  0  0  0  0  0  0  0  0  0  0  0
   -2.1434    1.3284    0.0000 H   0  0  0  0  0  0  0  0  0  0  0  0
   -3.0968    0.7442    0.0000 H   0  0  0  0  0  0  0  0  0  0  0  0
   -3.8284    0.1043    0.0000 H   0  0  0  0  0  0  0  0  0  0  0  0
   -3.5674   -0.9830    0.0000 H   0  0  0  0  0  0  0  0  0  0  0  0
   -1.4200    0.8421    0.0000 H   0  0  0  0  0  0  0  0  0  0  0  0
   -0.7615    1.2560    0.0000 H   0  0  0  0  0  0  0  0  0  0  0  0
    0.1651    0.7211    0.0000 H   0  0  0  0  0  0  0  0  0  0  0  0
   -0.0470   -1.2964    0.0000 H   0  0  0  0  0  0  0  0  0  0  0  0
    0.8796   -0.7614    0.0000 H   0  0  0  0  0  0  0  0  0  0  0  0
    0.6674    1.2560    0.0000 H   0  0  0  0  0  0  0  0  0  0  0  0
    1.5940    0.7210    0.0000 H   0  0  0  0  0  0  0  0  0  0  0  0
    1.3818   -1.2964    0.0000 H   0  0  0  0  0  0  0  0  0  0  0  0
    2.3084   -0.7615    0.0000 H   0  0  0  0  0  0  0  0  0  0  0  0
    2.8109   -1.1634    0.0000 H   0  0  0  0  0  0  0  0  0  0  0  0
  1  3  1  0  0  0  0
  1 13  1  0  0  0  0
  1 14  1  0  0  0  0
  2  4  1  0  0  0  0
  3  4  1  0  0  0  0
  3 15  1  0  0  0  0
  3 16  1  0  0  0  0
  5  1  1  0  0  0  0
  5  2  1  0  0  0  0
  5  6  1  0  0  0  0
  5 17  1  6  0  0  0
  6  7  1  0  0  0  0
  6 18  1  0  0  0  0
  6 19  1  0  0  0  0
  7  8  1  0  0  0  0
  7 20  1  0  0  0  0
  7 21  1  0  0  0  0
  8  9  1  0  0  0  0
  8 22  1  0  0  0  0
  8 23  1  0  0  0  0
  9 10  1  0  0  0  0
  9 24  1  0  0  0  0
  9 25  1  0  0  0  0
 10 12  1  0  0  0  0
 10 11  2  0  0  0  0
 12 26  1  0  0  0  0
M  END
>  <DRUGBANK_ID>
DB00166

>  <SECONDARY_ACCESSION_NUMBERS>
NUTR00035

>  <COMMON_NAME>
Lipoic acid

>  <CAS_NUMBER>
1200-22-2

>  <UNII>
VLL71EBS9Z

>  <SYNONYMS>
(+)-alpha-Lipoic acid; (R)-(+)-Lipoate; (R)-(+)-lipoic acid; (R)-1,2-Dithiolane-3-pentanoic acid; (R)-1,2-dithiolane-3-valeric acid; (R)-6,8-thioctic acid; (R)-lipoic acid; Alpha lipoic acid; alpha-Lipoic acid; alpha-Liponsäure; D-thioctic acid; Lipoic acid; R-(+)-thioctic acid; R-alpha-lipoic acid; Thioctic acid; Thioctic acid D-form; α-lipoic acid

$$$$
