CMF
 OpenBabel10282417072D

 63 67  0  0  0  0  0  0  0  0999 V2000
   -0.8413    2.6316    0.0000 C   0  0  0  0  0  0  0  0  0  0  0  0
   -1.0962    3.4163    0.0000 C   0  0  0  0  0  0  0  0  0  0  0  0
   -0.5442    4.0294    0.0000 O   0  0  0  0  0  0  0  0  0  0  0  0
    0.2628    3.8578    0.0000 C   0  0  0  0  0  0  0  0  0  0  0  0
    0.5177    3.0732    0.0000 C   0  0  0  0  0  0  0  0  0  0  0  0
   -0.0343    2.4601    0.0000 N   0  0  0  0  0  0  0  0  0  0  0  0
    0.2206    1.6755    0.0000 C   0  0  0  0  0  0  0  0  0  0  0  0
    1.0276    1.5040    0.0000 O   0  0  0  0  0  0  0  0  0  0  0  0
   -0.3314    1.0624    0.0000 C   0  0  0  0  0  0  0  0  0  0  0  0
   -0.0765    0.2778    0.0000 N   0  0  0  0  0  0  0  0  0  0  0  0
    0.7081    0.0228    0.0000 C   0  0  0  0  0  0  0  0  0  0  0  0
    1.4226    0.4353    0.0000 C   0  0  0  0  0  0  0  0  0  0  0  0
    2.1371    0.0228    0.0000 C   0  0  0  0  0  0  0  0  0  0  0  0
    2.8516    0.4353    0.0000 C   0  0  0  0  0  0  0  0  0  0  0  0
    3.5660    0.0228    0.0000 O   0  0  0  0  0  0  0  0  0  0  0  0
    2.8516    1.2603    0.0000 O   0  0  0  0  0  0  0  0  0  0  0  0
    2.1371   -0.8022    0.0000 C   0  0  0  0  0  0  0  0  0  0  0  0
    1.4226   -1.2147    0.0000 C   0  0  0  0  0  0  0  0  0  0  0  0
    0.7081   -0.8022    0.0000 C   0  0  0  0  0  0  0  0  0  0  0  0
   -0.0765   -1.0571    0.0000 C   0  0  0  0  0  0  0  0  0  0  0  0
   -0.3314   -1.8417    0.0000 C   0  0  0  0  0  0  0  0  0  0  0  0
    0.2206   -2.4548    0.0000 C   0  0  0  0  0  0  0  0  0  0  0  0
   -0.0343   -3.2394    0.0000 C   0  0  0  0  0  0  0  0  0  0  0  0
   -0.8413   -3.4110    0.0000 C   0  0  0  0  0  0  0  0  0  0  0  0
   -1.3933   -2.7979    0.0000 C   0  0  0  0  0  0  0  0  0  0  0  0
   -1.1384   -2.0132    0.0000 C   0  0  0  0  0  0  0  0  0  0  0  0
   -0.5614   -0.3897    0.0000 C   0  0  0  0  0  0  0  0  0  0  0  0
   -1.3864   -0.3897    0.0000 C   0  0  0  0  0  0  0  0  0  0  0  0
   -1.7989   -1.1041    0.0000 C   0  0  0  0  0  0  0  0  0  0  0  0
   -2.6239   -1.1041    0.0000 C   0  0  0  0  0  0  0  0  0  0  0  0
   -3.0364   -0.3897    0.0000 C   0  0  0  0  0  0  0  0  0  0  0  0
   -2.6239    0.3248    0.0000 C   0  0  0  0  0  0  0  0  0  0  0  0
   -1.7989    0.3248    0.0000 C   0  0  0  0  0  0  0  0  0  0  0  0
   -1.5573    1.8364    0.0000 H   0  0  0  0  0  0  0  0  0  0  0  0
   -0.5106    1.6140    0.0000 H   0  0  0  0  0  0  0  0  0  0  0  0
   -2.1428    3.6388    0.0000 H   0  0  0  0  0  0  0  0  0  0  0  0
   -1.4269    4.4339    0.0000 H   0  0  0  0  0  0  0  0  0  0  0  0
    0.9788    4.6529    0.0000 H   0  0  0  0  0  0  0  0  0  0  0  0
    1.3094    3.6353    0.0000 H   0  0  0  0  0  0  0  0  0  0  0  0
    1.5643    2.8507    0.0000 H   0  0  0  0  0  0  0  0  0  0  0  0
    0.8484    2.0556    0.0000 H   0  0  0  0  0  0  0  0  0  0  0  0
   -1.3780    1.2849    0.0000 H   0  0  0  0  0  0  0  0  0  0  0  0
   -1.0474    0.2672    0.0000 H   0  0  0  0  0  0  0  0  0  0  0  0
    1.4226    1.4673    0.0000 H   0  0  0  0  0  0  0  0  0  0  0  0
    3.6631    1.7288    0.0000 H   0  0  0  0  0  0  0  0  0  0  0  0
    3.0308   -1.3182    0.0000 H   0  0  0  0  0  0  0  0  0  0  0  0
    1.4226   -2.2467    0.0000 H   0  0  0  0  0  0  0  0  0  0  0  0
   -0.6621   -2.8593    0.0000 H   0  0  0  0  0  0  0  0  0  0  0  0
    1.2672   -2.2323    0.0000 H   0  0  0  0  0  0  0  0  0  0  0  0
    0.9366   -3.2500    0.0000 H   0  0  0  0  0  0  0  0  0  0  0  0
    0.6817   -4.0345    0.0000 H   0  0  0  0  0  0  0  0  0  0  0  0
   -0.3649   -4.2571    0.0000 H   0  0  0  0  0  0  0  0  0  0  0  0
   -1.1719   -4.4286    0.0000 H   0  0  0  0  0  0  0  0  0  0  0  0
   -1.8879   -3.6335    0.0000 H   0  0  0  0  0  0  0  0  0  0  0  0
   -2.4399   -3.0204    0.0000 H   0  0  0  0  0  0  0  0  0  0  0  0
   -2.1093   -2.0028    0.0000 H   0  0  0  0  0  0  0  0  0  0  0  0
   -1.8544   -1.2180    0.0000 H   0  0  0  0  0  0  0  0  0  0  0  0
   -2.1850   -2.2357    0.0000 H   0  0  0  0  0  0  0  0  0  0  0  0
   -1.2829   -1.9978    0.0000 H   0  0  0  0  0  0  0  0  0  0  0  0
   -3.1399   -1.9978    0.0000 H   0  0  0  0  0  0  0  0  0  0  0  0
   -4.0684   -0.3897    0.0000 H   0  0  0  0  0  0  0  0  0  0  0  0
   -3.1399    1.2185    0.0000 H   0  0  0  0  0  0  0  0  0  0  0  0
   -1.2829    1.2185    0.0000 H   0  0  0  0  0  0  0  0  0  0  0  0
  1  2  1  0  0  0  0
  1  6  1  0  0  0  0
  1 34  1  0  0  0  0
  1 35  1  0  0  0  0
  2  3  1  0  0  0  0
  2 36  1  0  0  0  0
  2 37  1  0  0  0  0
  3  4  1  0  0  0  0
  4  5  1  0  0  0  0
  4 38  1  0  0  0  0
  4 39  1  0  0  0  0
  5  6  1  0  0  0  0
  5 40  1  0  0  0  0
  5 41  1  0  0  0  0
  6  7  1  0  0  0  0
  7  8  2  0  0  0  0
  7  9  1  0  0  0  0
  9 10  1  0  0  0  0
  9 42  1  0  0  0  0
  9 43  1  0  0  0  0
 10 11  1  0  0  0  0
 10 27  1  0  0  0  0
 11 12  2  0  0  0  0
 11 19  1  0  0  0  0
 12 13  1  0  0  0  0
 12 44  1  0  0  0  0
 13 14  1  0  0  0  0
 13 17  2  0  0  0  0
 14 15  2  0  0  0  0
 14 16  1  0  0  0  0
 16 45  1  0  0  0  0
 17 18  1  0  0  0  0
 17 46  1  0  0  0  0
 18 19  2  0  0  0  0
 18 47  1  0  0  0  0
 19 20  1  0  0  0  0
 20 21  1  0  0  0  0
 20 27  2  0  0  0  0
 21 22  1  0  0  0  0
 21 26  1  0  0  0  0
 21 48  1  0  0  0  0
 22 23  1  0  0  0  0
 22 49  1  0  0  0  0
 22 50  1  0  0  0  0
 23 24  1  0  0  0  0
 23 51  1  0  0  0  0
 23 52  1  0  0  0  0
 24 25  1  0  0  0  0
 24 53  1  0  0  0  0
 24 54  1  0  0  0  0
 25 26  1  0  0  0  0
 25 55  1  0  0  0  0
 25 56  1  0  0  0  0
 26 57  1  0  0  0  0
 26 58  1  0  0  0  0
 27 28  1  0  0  0  0
 28 29  2  0  0  0  0
 28 33  1  0  0  0  0
 29 30  1  0  0  0  0
 29 59  1  0  0  0  0
 30 31  2  0  0  0  0
 30 60  1  0  0  0  0
 31 32  1  0  0  0  0
 31 61  1  0  0  0  0
 32 33  2  0  0  0  0
 32 62  1  0  0  0  0
 33 63  1  0  0  0  0
M  END
>  <DRUGBANK_ID>
DB07570

>  <COMMON_NAME>
3-CYCLOHEXYL-1-(2-MORPHOLIN-4-YL-2-OXOETHYL)-2-PHENYL-1H-INDOLE-6-CARBOXYLIC ACID

$$$$
