
 OpenBabel10282417072D

160163  0  0  1  0  0  0  0  0999 V2000
   14.8928  -15.2264    0.0000 N   0  0  0  0  0  0  0  0  0  0  0  0
   15.5940  -14.8140    0.0000 C   0  0  2  0  0  0  0  0  0  0  0  0
   14.8928  -16.0514    0.0000 C   0  0  0  0  0  0  0  0  0  0  0  0
   14.1502  -14.8140    0.0000 C   0  0  0  0  0  0  0  0  0  0  0  0
   16.2952  -15.2264    0.0000 C   0  0  0  0  0  0  0  0  0  0  0  0
   15.5940  -13.9890    0.0000 C   0  0  0  0  0  0  0  0  0  0  0  0
   14.1502  -16.4640    0.0000 C   0  0  0  0  0  0  0  0  0  0  0  0
   15.5940  -16.4640    0.0000 O   0  0  0  0  0  0  0  0  0  0  0  0
   14.1502  -13.9890    0.0000 C   0  0  0  0  0  0  0  0  0  0  0  0
   16.9964  -14.8140    0.0000 O   0  0  0  0  0  0  0  0  0  0  0  0
   16.2952  -15.8865    0.0000 O   0  0  0  0  0  0  0  0  0  0  0  0
   14.8928  -13.5352    0.0000 C   0  0  0  0  0  0  0  0  0  0  0  0
   14.1502  -17.2889    0.0000 C   0  0  2  0  0  0  0  0  0  0  0  0
   13.4490  -16.0102    0.0000 O   0  0  0  0  0  0  0  0  0  0  0  0
   17.7389  -15.2264    0.0000 C   0  0  2  0  0  0  0  0  0  0  0  0
   14.8515  -17.7014    0.0000 O   0  0  0  0  0  0  0  0  0  0  0  0
   13.4077  -17.7014    0.0000 C   0  0  1  0  0  0  0  0  0  0  0  0
   13.9852  -18.1139    0.0000 O   0  0  0  0  0  0  0  0  0  0  0  0
   18.4402  -14.8140    0.0000 C   0  0  1  0  0  0  0  0  0  0  0  0
   17.7389  -16.0514    0.0000 C   0  0  0  0  0  0  0  0  0  0  0  0
   14.8515  -18.5264    0.0000 C   0  0  2  0  0  0  0  0  0  0  0  0
   13.4077  -18.4852    0.0000 C   0  0  0  0  0  0  0  0  0  0  0  0
   12.7065  -17.2476    0.0000 C   0  0  0  0  0  0  0  0  0  0  0  0
   19.1827  -15.2264    0.0000 C   0  0  0  0  0  0  0  0  0  0  0  0
   18.4402  -13.9890    0.0000 C   0  0  0  0  0  0  0  0  0  0  0  0
   18.4402  -16.4640    0.0000 C   0  0  0  0  0  0  0  0  0  0  0  0
   15.5527  -18.9389    0.0000 C   0  0  0  0  0  0  0  0  0  0  0  0
   14.1502  -18.9389    0.0000 C   0  0  0  0  0  0  0  0  0  0  0  0
   19.8840  -14.8140    0.0000 C   0  0  1  0  0  0  0  0  0  0  0  0
   18.4402  -17.2889    0.0000 C   0  0  1  0  0  0  0  0  0  0  0  0
   19.1827  -16.0102    0.0000 O   0  0  0  0  0  0  0  0  0  0  0  0
   15.5527  -19.7639    0.0000 C   0  0  1  0  0  0  0  0  0  0  0  0
   20.5852  -15.2264    0.0000 C   0  0  0  0  0  0  0  0  0  0  0  0
   19.8840  -13.9890    0.0000 C   0  0  0  0  0  0  0  0  0  0  0  0
   19.1827  -17.7014    0.0000 C   0  0  0  0  0  0  0  0  0  0  0  0
   17.7389  -17.7014    0.0000 C   0  0  0  0  0  0  0  0  0  0  0  0
   16.2539  -20.1764    0.0000 C   0  0  0  0  0  0  0  0  0  0  0  0
   14.8515  -20.1764    0.0000 O   0  0  0  0  0  0  0  0  0  0  0  0
   21.2864  -14.8140    0.0000 C   0  0  2  0  0  0  0  0  0  0  0  0
   20.5852  -13.5764    0.0000 C   0  0  0  0  0  0  0  0  0  0  0  0
   19.1827  -18.4852    0.0000 C   0  0  0  0  0  0  0  0  0  0  0  0
   16.2539  -21.0014    0.0000 C   0  0  0  0  0  0  0  0  0  0  0  0
   16.9964  -19.7639    0.0000 C   0  0  0  0  0  0  0  0  0  0  0  0
   14.8515  -21.0014    0.0000 C   0  0  0  0  0  0  0  0  0  0  0  0
   21.2864  -13.9890    0.0000 C   0  0  1  0  0  0  0  0  0  0  0  0
   22.0289  -15.2264    0.0000 O   0  0  0  0  0  0  0  0  0  0  0  0
   19.8840  -18.8976    0.0000 C   0  0  2  0  0  0  0  0  0  0  0  0
   18.4402  -18.8976    0.0000 C   0  0  0  0  0  0  0  0  0  0  0  0
   16.9552  -21.4139    0.0000 C   0  0  0  0  0  0  0  0  0  0  0  0
   22.0289  -13.5352    0.0000 O   0  0  0  0  0  0  0  0  0  0  0  0
   19.8840  -19.7226    0.0000 C   0  0  2  0  0  0  0  0  0  0  0  0
   20.5852  -18.4852    0.0000 O   0  0  0  0  0  0  0  0  0  0  0  0
   16.9552  -22.2389    0.0000 C   0  0  0  0  0  0  0  0  0  0  0  0
   20.5852  -20.1352    0.0000 C   0  0  0  0  0  0  0  0  0  0  0  0
   19.1415  -20.1352    0.0000 O   0  0  0  0  0  0  0  0  0  0  0  0
   17.6977  -22.6514    0.0000 C   0  0  0  0  0  0  0  0  0  0  0  0
   20.5852  -20.9602    0.0000 C   0  0  1  0  0  0  0  0  0  0  0  0
   21.2864  -19.7226    0.0000 O   0  0  0  0  0  0  0  0  0  0  0  0
   19.1415  -20.9602    0.0000 C   0  0  0  0  0  0  0  0  0  0  0  0
   18.3990  -22.2389    0.0000 C   0  0  0  0  0  0  0  0  0  0  0  0
   19.8840  -21.3726    0.0000 C   0  0  0  0  0  0  0  0  0  0  0  0
   21.2864  -21.3726    0.0000 C   0  0  0  0  0  0  0  0  0  0  0  0
   19.2240  -22.2389    0.0000 C   0  0  2  0  0  0  0  0  0  0  0  0
   19.4302  -23.0226    0.0000 C   0  0  0  0  0  0  0  0  0  0  0  0
   14.8515  -19.3514    0.0000 H   0  0  0  0  0  0  0  0  0  0  0  0
   22.7652  -13.9362    0.0000 C   0  0  0  0  0  0  0  0  0  0  0  0
   23.4766  -13.5013    0.0000 C   0  0  0  0  0  0  0  0  0  0  0  0
   22.0289  -16.0520    0.0000 C   0  0  0  0  0  0  0  0  0  0  0  0
   22.7859  -14.7770    0.0000 O   0  0  0  0  0  0  0  0  0  0  0  0
   24.2076  -13.8992    0.0000 C   0  0  0  0  0  0  0  0  0  0  0  0
   23.4557  -12.6725    0.0000 C   0  0  0  0  0  0  0  0  0  0  0  0
   24.1897  -12.9002    0.0000 C   0  0  0  0  0  0  0  0  0  0  0  0
   24.8928  -13.4803    0.0000 O   0  0  0  0  0  0  0  0  0  0  0  0
   24.1525  -12.2464    0.0000 O   0  0  0  0  0  0  0  0  0  0  0  0
   18.3994  -15.7762    0.0000 H   0  0  0  0  0  0  0  0  0  0  0  0
   15.5940  -15.8840    0.0000 H   0  0  0  0  0  0  0  0  0  0  0  0
   13.2280  -15.3567    0.0000 H   0  0  0  0  0  0  0  0  0  0  0  0
   13.2213  -14.2829    0.0000 H   0  0  0  0  0  0  0  0  0  0  0  0
   16.5339  -13.4777    0.0000 H   0  0  0  0  0  0  0  0  0  0  0  0
   15.6347  -12.9198    0.0000 H   0  0  0  0  0  0  0  0  0  0  0  0
   13.2170  -13.4656    0.0000 H   0  0  0  0  0  0  0  0  0  0  0  0
   14.1302  -12.9192    0.0000 H   0  0  0  0  0  0  0  0  0  0  0  0
   14.9066  -12.4653    0.0000 H   0  0  0  0  0  0  0  0  0  0  0  0
   13.9630  -13.0058    0.0000 H   0  0  0  0  0  0  0  0  0  0  0  0
   13.4437  -16.6320    0.0000 H   0  0  0  0  0  0  0  0  0  0  0  0
   13.0664  -18.4247    0.0000 H   0  0  0  0  0  0  0  0  0  0  0  0
   17.5114  -14.2827    0.0000 H   0  0  0  0  0  0  0  0  0  0  0  0
   16.8101  -16.5826    0.0000 H   0  0  0  0  0  0  0  0  0  0  0  0
   17.7323  -17.1214    0.0000 H   0  0  0  0  0  0  0  0  0  0  0  0
   12.4745  -19.0086    0.0000 H   0  0  0  0  0  0  0  0  0  0  0  0
   13.3877  -19.5550    0.0000 H   0  0  0  0  0  0  0  0  0  0  0  0
   12.7608  -16.1790    0.0000 H   0  0  0  0  0  0  0  0  0  0  0  0
   11.7539  -17.7349    0.0000 H   0  0  0  0  0  0  0  0  0  0  0  0
   11.8082  -16.6662    0.0000 H   0  0  0  0  0  0  0  0  0  0  0  0
   19.1959  -16.2963    0.0000 H   0  0  0  0  0  0  0  0  0  0  0  0
   20.1147  -15.7520    0.0000 H   0  0  0  0  0  0  0  0  0  0  0  0
   19.3668  -13.4540    0.0000 H   0  0  0  0  0  0  0  0  0  0  0  0
   17.5136  -13.4540    0.0000 H   0  0  0  0  0  0  0  0  0  0  0  0
   18.4402  -12.9190    0.0000 H   0  0  0  0  0  0  0  0  0  0  0  0
   16.4815  -18.4077    0.0000 H   0  0  0  0  0  0  0  0  0  0  0  0
   16.4783  -19.4758    0.0000 H   0  0  0  0  0  0  0  0  0  0  0  0
   14.1412  -20.0089    0.0000 H   0  0  0  0  0  0  0  0  0  0  0  0
   13.2148  -19.4584    0.0000 H   0  0  0  0  0  0  0  0  0  0  0  0
   19.8840  -15.8840    0.0000 H   0  0  0  0  0  0  0  0  0  0  0  0
   17.5114  -16.7577    0.0000 H   0  0  0  0  0  0  0  0  0  0  0  0
   14.6239  -19.2327    0.0000 H   0  0  0  0  0  0  0  0  0  0  0  0
   20.5852  -16.2964    0.0000 H   0  0  0  0  0  0  0  0  0  0  0  0
   21.5140  -15.7577    0.0000 H   0  0  0  0  0  0  0  0  0  0  0  0
   18.9552  -13.4578    0.0000 H   0  0  0  0  0  0  0  0  0  0  0  0
   19.8774  -12.9190    0.0000 H   0  0  0  0  0  0  0  0  0  0  0  0
   20.0722  -17.1780    0.0000 H   0  0  0  0  0  0  0  0  0  0  0  0
   16.8080  -17.1739    0.0000 H   0  0  0  0  0  0  0  0  0  0  0  0
   17.7476  -18.7714    0.0000 H   0  0  0  0  0  0  0  0  0  0  0  0
   16.8166  -18.2439    0.0000 H   0  0  0  0  0  0  0  0  0  0  0  0
   21.2996  -15.8839    0.0000 H   0  0  0  0  0  0  0  0  0  0  0  0
   20.5852  -12.5064    0.0000 H   0  0  0  0  0  0  0  0  0  0  0  0
   21.5140  -13.0452    0.0000 H   0  0  0  0  0  0  0  0  0  0  0  0
   15.3581  -21.5138    0.0000 H   0  0  0  0  0  0  0  0  0  0  0  0
   17.9141  -20.3141    0.0000 H   0  0  0  0  0  0  0  0  0  0  0  0
   17.0141  -18.6940    0.0000 H   0  0  0  0  0  0  0  0  0  0  0  0
   17.9317  -19.2443    0.0000 H   0  0  0  0  0  0  0  0  0  0  0  0
   13.9249  -21.5364    0.0000 H   0  0  0  0  0  0  0  0  0  0  0  0
   15.7781  -21.5364    0.0000 H   0  0  0  0  0  0  0  0  0  0  0  0
   14.8515  -22.0714    0.0000 H   0  0  0  0  0  0  0  0  0  0  0  0
   22.2197  -14.5124    0.0000 H   0  0  0  0  0  0  0  0  0  0  0  0
   19.8840  -17.8276    0.0000 H   0  0  0  0  0  0  0  0  0  0  0  0
   17.5226  -18.3473    0.0000 H   0  0  0  0  0  0  0  0  0  0  0  0
   18.4224  -19.9675    0.0000 H   0  0  0  0  0  0  0  0  0  0  0  0
   17.5048  -19.4171    0.0000 H   0  0  0  0  0  0  0  0  0  0  0  0
   17.8510  -20.9015    0.0000 H   0  0  0  0  0  0  0  0  0  0  0  0
   18.9618  -19.1800    0.0000 H   0  0  0  0  0  0  0  0  0  0  0  0
   21.4291  -18.9634    0.0000 H   0  0  0  0  0  0  0  0  0  0  0  0
   16.0657  -22.7623    0.0000 H   0  0  0  0  0  0  0  0  0  0  0  0
   17.7104  -23.6833    0.0000 H   0  0  0  0  0  0  0  0  0  0  0  0
   21.5140  -20.4289    0.0000 H   0  0  0  0  0  0  0  0  0  0  0  0
   18.2149  -21.4952    0.0000 H   0  0  0  0  0  0  0  0  0  0  0  0
   20.0681  -21.4952    0.0000 H   0  0  0  0  0  0  0  0  0  0  0  0
   19.1415  -22.0302    0.0000 H   0  0  0  0  0  0  0  0  0  0  0  0
   18.1279  -21.2432    0.0000 H   0  0  0  0  0  0  0  0  0  0  0  0
   19.1739  -20.5722    0.0000 H   0  0  0  0  0  0  0  0  0  0  0  0
   18.8147  -21.4125    0.0000 H   0  0  0  0  0  0  0  0  0  0  0  0
   21.2778  -22.4426    0.0000 H   0  0  0  0  0  0  0  0  0  0  0  0
   22.2173  -20.8451    0.0000 H   0  0  0  0  0  0  0  0  0  0  0  0
   22.2087  -21.9150    0.0000 H   0  0  0  0  0  0  0  0  0  0  0  0
   18.5707  -23.0863    0.0000 H   0  0  0  0  0  0  0  0  0  0  0  0
   18.6702  -23.7758    0.0000 H   0  0  0  0  0  0  0  0  0  0  0  0
   20.4625  -23.3042    0.0000 H   0  0  0  0  0  0  0  0  0  0  0  0
   19.7025  -24.0574    0.0000 H   0  0  0  0  0  0  0  0  0  0  0  0
   21.1023  -16.5870    0.0000 H   0  0  0  0  0  0  0  0  0  0  0  0
   22.9555  -16.5870    0.0000 H   0  0  0  0  0  0  0  0  0  0  0  0
   22.0289  -17.1220    0.0000 H   0  0  0  0  0  0  0  0  0  0  0  0
   24.2345  -14.9689    0.0000 H   0  0  0  0  0  0  0  0  0  0  0  0
   25.1474  -14.4107    0.0000 H   0  0  0  0  0  0  0  0  0  0  0  0
   22.5159  -12.1610    0.0000 H   0  0  0  0  0  0  0  0  0  0  0  0
   23.4287  -11.6028    0.0000 H   0  0  0  0  0  0  0  0  0  0  0  0
   25.1960  -13.2639    0.0000 H   0  0  0  0  0  0  0  0  0  0  0  0
   24.0015  -11.8469    0.0000 H   0  0  0  0  0  0  0  0  0  0  0  0
   25.0078  -12.2106    0.0000 H   0  0  0  0  0  0  0  0  0  0  0  0
   25.7448  -13.9440    0.0000 H   0  0  0  0  0  0  0  0  0  0  0  0
   25.0045  -12.7100    0.0000 H   0  0  0  0  0  0  0  0  0  0  0  0
  1  2  1  0  0  0  0
  1  3  1  0  0  0  0
  1  4  1  0  0  0  0
  2  5  1  0  0  0  0
  2  6  1  0  0  0  0
  2 76  1  6  0  0  0
  3  7  1  0  0  0  0
  3  8  2  0  0  0  0
  4  9  1  0  0  0  0
  4 77  1  0  0  0  0
  4 78  1  0  0  0  0
  5 10  1  0  0  0  0
  5 11  2  0  0  0  0
  6 12  1  0  0  0  0
  6 79  1  0  0  0  0
  6 80  1  0  0  0  0
  7 13  1  0  0  0  0
  7 14  2  0  0  0  0
  9 12  1  0  0  0  0
  9 81  1  0  0  0  0
  9 82  1  0  0  0  0
 10 15  1  0  0  0  0
 12 83  1  0  0  0  0
 12 84  1  0  0  0  0
 13 16  1  0  0  0  0
 13 17  1  0  0  0  0
 13 18  1  1  0  0  0
 15 19  1  0  0  0  0
 15 20  1  0  0  0  0
 15 75  1  1  0  0  0
 17 22  1  0  0  0  0
 17 23  1  0  0  0  0
 17 85  1  6  0  0  0
 18 86  1  0  0  0  0
 19 24  1  0  0  0  0
 19 25  1  0  0  0  0
 19 87  1  1  0  0  0
 20 26  1  0  0  0  0
 20 88  1  0  0  0  0
 20 89  1  0  0  0  0
 21 16  1  0  0  0  0
 21 27  1  0  0  0  0
 21 28  1  0  0  0  0
 21 65  1  1  0  0  0
 22 28  1  0  0  0  0
 22 90  1  0  0  0  0
 22 91  1  0  0  0  0
 23 92  1  0  0  0  0
 23 93  1  0  0  0  0
 23 94  1  0  0  0  0
 24 95  1  0  0  0  0
 24 96  1  0  0  0  0
 25 97  1  0  0  0  0
 25 98  1  0  0  0  0
 25 99  1  0  0  0  0
 26 30  1  0  0  0  0
 26 31  2  0  0  0  0
 27 32  1  0  0  0  0
 27100  1  0  0  0  0
 27101  1  0  0  0  0
 28102  1  0  0  0  0
 28103  1  0  0  0  0
 29 24  1  0  0  0  0
 29 33  1  0  0  0  0
 29 34  1  0  0  0  0
 29104  1  1  0  0  0
 30 35  1  0  0  0  0
 30 36  1  0  0  0  0
 30105  1  6  0  0  0
 32 37  1  0  0  0  0
 32 38  1  0  0  0  0
 32106  1  6  0  0  0
 33 39  1  0  0  0  0
 33107  1  0  0  0  0
 33108  1  0  0  0  0
 34 40  1  0  0  0  0
 34109  1  0  0  0  0
 34110  1  0  0  0  0
 35 41  2  0  0  0  0
 35111  1  0  0  0  0
 36112  1  0  0  0  0
 36113  1  0  0  0  0
 36114  1  0  0  0  0
 37 42  2  0  0  0  0
 37 43  1  0  0  0  0
 38 44  1  0  0  0  0
 39 45  1  0  0  0  0
 39 46  1  0  0  0  0
 39115  1  1  0  0  0
 40 45  1  0  0  0  0
 40116  1  0  0  0  0
 40117  1  0  0  0  0
 41 47  1  0  0  0  0
 41 48  1  0  0  0  0
 42 49  1  0  0  0  0
 42118  1  0  0  0  0
 43119  1  0  0  0  0
 43120  1  0  0  0  0
 43121  1  0  0  0  0
 44122  1  0  0  0  0
 44123  1  0  0  0  0
 44124  1  0  0  0  0
 45 50  1  0  0  0  0
 45125  1  6  0  0  0
 46 68  1  0  0  0  0
 47 51  1  0  0  0  0
 47 52  1  0  0  0  0
 47126  1  6  0  0  0
 48127  1  0  0  0  0
 48128  1  0  0  0  0
 48129  1  0  0  0  0
 49 53  2  0  0  0  0
 49130  1  0  0  0  0
 50 66  1  0  0  0  0
 51 54  1  0  0  0  0
 51 55  1  0  0  0  0
 51131  1  1  0  0  0
 52132  1  0  0  0  0
 53 56  1  0  0  0  0
 53133  1  0  0  0  0
 54 57  1  0  0  0  0
 54 58  2  0  0  0  0
 55 59  1  0  0  0  0
 56 60  2  0  0  0  0
 56134  1  0  0  0  0
 57 61  1  0  0  0  0
 57 62  1  0  0  0  0
 57135  1  1  0  0  0
 59136  1  0  0  0  0
 59137  1  0  0  0  0
 59138  1  0  0  0  0
 60 63  1  0  0  0  0
 60139  1  0  0  0  0
 61 63  1  0  0  0  0
 61140  1  0  0  0  0
 61141  1  0  0  0  0
 62142  1  0  0  0  0
 62143  1  0  0  0  0
 62144  1  0  0  0  0
 63 64  1  0  0  0  0
 63145  1  1  0  0  0
 64146  1  0  0  0  0
 64147  1  0  0  0  0
 64148  1  0  0  0  0
 66 67  1  0  0  0  0
 66 69  2  0  0  0  0
 67 70  1  0  0  0  0
 67 71  1  0  0  0  0
 67 72  1  0  0  0  0
 68149  1  0  0  0  0
 68150  1  0  0  0  0
 68151  1  0  0  0  0
 70 73  1  0  0  0  0
 70152  1  0  0  0  0
 70153  1  0  0  0  0
 71 74  1  0  0  0  0
 71154  1  0  0  0  0
 71155  1  0  0  0  0
 72156  1  0  0  0  0
 72157  1  0  0  0  0
 72158  1  0  0  0  0
 73159  1  0  0  0  0
 74160  1  0  0  0  0
M  END
>  <DRUGBANK_ID>
DB06287

>  <COMMON_NAME>
Temsirolimus

>  <CAS_NUMBER>
162635-04-3

>  <UNII>
624KN6GM2T

>  <SYNONYMS>
Temsirolimus

$$$$
