L35
 OpenBabel10282417072D

 41 42  0  0  0  0  0  0  0  0999 V2000
    1.1887   -2.1204    0.0000 C   0  0  0  0  0  0  0  0  0  0  0  0
    1.9031   -2.5329    0.0000 C   0  0  0  0  0  0  0  0  0  0  0  0
    1.9031   -3.3579    0.0000 C   0  0  0  0  0  0  0  0  0  0  0  0
    1.1887   -3.7704    0.0000 C   0  0  0  0  0  0  0  0  0  0  0  0
    0.4742   -3.3579    0.0000 C   0  0  0  0  0  0  0  0  0  0  0  0
    0.4742   -2.5329    0.0000 C   0  0  0  0  0  0  0  0  0  0  0  0
    0.4742   -0.8829    0.0000 C   0  0  0  0  0  0  0  0  0  0  0  0
   -1.6692    1.1796    0.0000 C   0  0  0  0  0  0  0  0  0  0  0  0
   -0.9547    1.5921    0.0000 C   0  0  0  0  0  0  0  0  0  0  0  0
   -0.2403    1.1796    0.0000 C   0  0  0  0  0  0  0  0  0  0  0  0
   -0.2403    0.3546    0.0000 C   0  0  0  0  0  0  0  0  0  0  0  0
   -0.9547   -0.0579    0.0000 C   0  0  0  0  0  0  0  0  0  0  0  0
   -1.6692    0.3546    0.0000 C   0  0  0  0  0  0  0  0  0  0  0  0
   -2.3837    2.4171    0.0000 C   0  0  0  0  0  0  0  0  0  0  0  0
   -1.5587    2.4171    0.0000 C   0  0  0  0  0  0  0  0  0  0  0  0
   -3.2087    2.4171    0.0000 C   0  0  0  0  0  0  0  0  0  0  0  0
   -2.3837    3.2421    0.0000 C   0  0  0  0  0  0  0  0  0  0  0  0
    1.1887   -1.2954    0.0000 N   0  0  0  0  0  0  0  0  0  0  0  0
    0.4742   -0.0579    0.0000 N   0  0  0  0  0  0  0  0  0  0  0  0
   -0.2403   -1.2954    0.0000 O   0  0  0  0  0  0  0  0  0  0  0  0
   -2.3837    1.5921    0.0000 O   0  0  0  0  0  0  0  0  0  0  0  0
   -3.0982    3.6546    0.0000 O   0  0  0  0  0  0  0  0  0  0  0  0
   -1.6692    3.6546    0.0000 O   0  0  0  0  0  0  0  0  0  0  0  0
   -0.2403   -3.7704    0.0000 Cl  0  0  0  0  0  0  0  0  0  0  0  0
    2.6176   -3.7704    0.0000 Cl  0  0  0  0  0  0  0  0  0  0  0  0
    2.7968   -2.0169    0.0000 H   0  0  0  0  0  0  0  0  0  0  0  0
    1.1887   -4.8024    0.0000 H   0  0  0  0  0  0  0  0  0  0  0  0
   -0.4195   -2.0169    0.0000 H   0  0  0  0  0  0  0  0  0  0  0  0
   -0.9547    2.6241    0.0000 H   0  0  0  0  0  0  0  0  0  0  0  0
    0.6534    1.6956    0.0000 H   0  0  0  0  0  0  0  0  0  0  0  0
   -0.9547   -1.0899    0.0000 H   0  0  0  0  0  0  0  0  0  0  0  0
   -2.5629   -0.1614    0.0000 H   0  0  0  0  0  0  0  0  0  0  0  0
   -1.0237    1.4905    0.0000 H   0  0  0  0  0  0  0  0  0  0  0  0
   -1.0237    3.3437    0.0000 H   0  0  0  0  0  0  0  0  0  0  0  0
   -0.4887    2.4171    0.0000 H   0  0  0  0  0  0  0  0  0  0  0  0
   -3.7437    3.3437    0.0000 H   0  0  0  0  0  0  0  0  0  0  0  0
   -3.7437    1.4905    0.0000 H   0  0  0  0  0  0  0  0  0  0  0  0
   -4.2787    2.4171    0.0000 H   0  0  0  0  0  0  0  0  0  0  0  0
    2.0413   -0.8031    0.0000 H   0  0  0  0  0  0  0  0  0  0  0  0
    1.3268    0.4344    0.0000 H   0  0  0  0  0  0  0  0  0  0  0  0
   -3.0982    4.5916    0.0000 H   0  0  0  0  0  0  0  0  0  0  0  0
  1  2  1  0  0  0  0
  1  6  2  0  0  0  0
  1 18  1  0  0  0  0
  2  3  2  0  0  0  0
  2 26  1  0  0  0  0
  3  4  1  0  0  0  0
  3 25  1  0  0  0  0
  4  5  2  0  0  0  0
  4 27  1  0  0  0  0
  5  6  1  0  0  0  0
  5 24  1  0  0  0  0
  6 28  1  0  0  0  0
  7 18  1  0  0  0  0
  7 19  1  0  0  0  0
  7 20  2  0  0  0  0
  8  9  1  0  0  0  0
  8 13  2  0  0  0  0
  8 21  1  0  0  0  0
  9 10  2  0  0  0  0
  9 29  1  0  0  0  0
 10 11  1  0  0  0  0
 10 30  1  0  0  0  0
 11 12  2  0  0  0  0
 11 19  1  0  0  0  0
 12 13  1  0  0  0  0
 12 31  1  0  0  0  0
 13 32  1  0  0  0  0
 14 15  1  0  0  0  0
 14 16  1  0  0  0  0
 14 17  1  0  0  0  0
 14 21  1  0  0  0  0
 15 33  1  0  0  0  0
 15 34  1  0  0  0  0
 15 35  1  0  0  0  0
 16 36  1  0  0  0  0
 16 37  1  0  0  0  0
 16 38  1  0  0  0  0
 17 22  1  0  0  0  0
 17 23  2  0  0  0  0
 18 39  1  0  0  0  0
 19 40  1  0  0  0  0
 22 41  1  0  0  0  0
M  END
>  <DRUGBANK_ID>
DB08077

>  <COMMON_NAME>
2-[4-({[(3,5-DICHLOROPHENYL)AMINO]CARBONYL}AMINO)PHENOXY]-2-METHYLPROPANOIC ACID

>  <UNII>
PS3UC84IQA

$$$$
