FRQ
 OpenBabel10282417072D

 53 56  0  0  0  0  0  0  0  0999 V2000
   -2.7090    2.9027    0.0000 C   0  0  0  0  0  0  0  0  0  0  0  0
   -1.9945    2.4902    0.0000 C   0  0  0  0  0  0  0  0  0  0  0  0
   -1.2800    2.9027    0.0000 C   0  0  0  0  0  0  0  0  0  0  0  0
   -1.2800    3.7277    0.0000 C   0  0  0  0  0  0  0  0  0  0  0  0
   -1.9945    4.1402    0.0000 C   0  0  0  0  0  0  0  0  0  0  0  0
   -2.7090    3.7277    0.0000 C   0  0  0  0  0  0  0  0  0  0  0  0
   -0.5656    2.4902    0.0000 N   0  0  0  0  0  0  0  0  0  0  0  0
    0.1489    2.9027    0.0000 C   0  0  0  0  0  0  0  0  0  0  0  0
    0.1489    3.7277    0.0000 N   0  0  0  0  0  0  0  0  0  0  0  0
   -0.5656    4.1402    0.0000 C   0  0  0  0  0  0  0  0  0  0  0  0
   -0.5656    4.9652    0.0000 O   0  0  0  0  0  0  0  0  0  0  0  0
    0.8634    2.4902    0.0000 O   0  0  0  0  0  0  0  0  0  0  0  0
   -0.5656    1.6652    0.0000 C   0  0  0  0  0  0  0  0  0  0  0  0
    0.1489    1.2527    0.0000 C   0  0  0  0  0  0  0  0  0  0  0  0
    0.1489    0.4277    0.0000 C   0  0  0  0  0  0  0  0  0  0  0  0
    0.8634    0.0152    0.0000 C   0  0  0  0  0  0  0  0  0  0  0  0
    0.8634   -0.8098    0.0000 N   0  0  0  0  0  0  0  0  0  0  0  0
    1.5778   -1.2223    0.0000 C   0  0  0  0  0  0  0  0  0  0  0  0
    1.5778   -2.0473    0.0000 C   0  0  0  0  0  0  0  0  0  0  0  0
    0.8634   -2.4598    0.0000 C   0  0  0  0  0  0  0  0  0  0  0  0
    0.1489   -2.0473    0.0000 C   0  0  0  0  0  0  0  0  0  0  0  0
    0.1489   -1.2223    0.0000 C   0  0  0  0  0  0  0  0  0  0  0  0
    0.8634   -3.2848    0.0000 C   0  0  0  0  0  0  0  0  0  0  0  0
    1.5778   -3.6973    0.0000 C   0  0  0  0  0  0  0  0  0  0  0  0
    1.5778   -4.5223    0.0000 C   0  0  0  0  0  0  0  0  0  0  0  0
    0.8634   -4.9348    0.0000 C   0  0  0  0  0  0  0  0  0  0  0  0
    0.1489   -4.5223    0.0000 C   0  0  0  0  0  0  0  0  0  0  0  0
    0.1489   -3.6973    0.0000 C   0  0  0  0  0  0  0  0  0  0  0  0
   -1.9945    4.9652    0.0000 F   0  0  0  0  0  0  0  0  0  0  0  0
   -3.6027    2.3867    0.0000 H   0  0  0  0  0  0  0  0  0  0  0  0
   -1.9945    1.4582    0.0000 H   0  0  0  0  0  0  0  0  0  0  0  0
   -3.6027    4.2437    0.0000 H   0  0  0  0  0  0  0  0  0  0  0  0
    1.0015    4.2200    0.0000 H   0  0  0  0  0  0  0  0  0  0  0  0
   -1.4922    1.1302    0.0000 H   0  0  0  0  0  0  0  0  0  0  0  0
   -0.5656    0.5952    0.0000 H   0  0  0  0  0  0  0  0  0  0  0  0
    1.0755    1.7877    0.0000 H   0  0  0  0  0  0  0  0  0  0  0  0
    1.0755    0.7177    0.0000 H   0  0  0  0  0  0  0  0  0  0  0  0
   -0.7777   -0.1073    0.0000 H   0  0  0  0  0  0  0  0  0  0  0  0
    0.1489   -0.6423    0.0000 H   0  0  0  0  0  0  0  0  0  0  0  0
    1.7900    0.5502    0.0000 H   0  0  0  0  0  0  0  0  0  0  0  0
    1.7900   -0.5198    0.0000 H   0  0  0  0  0  0  0  0  0  0  0  0
    2.5045   -0.6873    0.0000 H   0  0  0  0  0  0  0  0  0  0  0  0
    2.5044   -1.7573    0.0000 H   0  0  0  0  0  0  0  0  0  0  0  0
    2.5045   -2.5823    0.0000 H   0  0  0  0  0  0  0  0  0  0  0  0
    1.5778   -3.1173    0.0000 H   0  0  0  0  0  0  0  0  0  0  0  0
   -0.7448   -2.5633    0.0000 H   0  0  0  0  0  0  0  0  0  0  0  0
   -0.7777   -0.6873    0.0000 H   0  0  0  0  0  0  0  0  0  0  0  0
   -0.7777   -1.7573    0.0000 H   0  0  0  0  0  0  0  0  0  0  0  0
    2.4715   -3.1813    0.0000 H   0  0  0  0  0  0  0  0  0  0  0  0
    2.4715   -5.0383    0.0000 H   0  0  0  0  0  0  0  0  0  0  0  0
    0.8634   -5.9668    0.0000 H   0  0  0  0  0  0  0  0  0  0  0  0
   -0.7448   -5.0383    0.0000 H   0  0  0  0  0  0  0  0  0  0  0  0
   -0.7448   -3.1813    0.0000 H   0  0  0  0  0  0  0  0  0  0  0  0
  1  2  1  0  0  0  0
  1  6  2  0  0  0  0
  1 30  1  0  0  0  0
  2  3  2  0  0  0  0
  2 31  1  0  0  0  0
  3  4  1  0  0  0  0
  3  7  1  0  0  0  0
  4  5  2  0  0  0  0
  4 10  1  0  0  0  0
  5  6  1  0  0  0  0
  5 29  1  0  0  0  0
  6 32  1  0  0  0  0
  7  8  1  0  0  0  0
  7 13  1  0  0  0  0
  8  9  1  0  0  0  0
  8 12  2  0  0  0  0
  9 10  1  0  0  0  0
  9 33  1  0  0  0  0
 10 11  2  0  0  0  0
 13 14  1  0  0  0  0
 13 34  1  0  0  0  0
 13 35  1  0  0  0  0
 14 15  1  0  0  0  0
 14 36  1  0  0  0  0
 14 37  1  0  0  0  0
 15 16  1  0  0  0  0
 15 38  1  0  0  0  0
 15 39  1  0  0  0  0
 16 17  1  0  0  0  0
 16 40  1  0  0  0  0
 16 41  1  0  0  0  0
 17 18  1  0  0  0  0
 17 22  1  0  0  0  0
 18 19  1  0  0  0  0
 18 42  1  0  0  0  0
 18 43  1  0  0  0  0
 19 20  1  0  0  0  0
 19 44  1  0  0  0  0
 19 45  1  0  0  0  0
 20 21  2  0  0  0  0
 20 23  1  0  0  0  0
 21 22  1  0  0  0  0
 21 46  1  0  0  0  0
 22 47  1  0  0  0  0
 22 48  1  0  0  0  0
 23 24  2  0  0  0  0
 23 28  1  0  0  0  0
 24 25  1  0  0  0  0
 24 49  1  0  0  0  0
 25 26  2  0  0  0  0
 25 50  1  0  0  0  0
 26 27  1  0  0  0  0
 26 51  1  0  0  0  0
 27 28  2  0  0  0  0
 27 52  1  0  0  0  0
 28 53  1  0  0  0  0
M  END
>  <DRUGBANK_ID>
DB07787

>  <COMMON_NAME>
5-FLUORO-1-[4-(4-PHENYL-3,6-DIHYDROPYRIDIN-1(2H)-YL)BUTYL]QUINAZOLINE-2,4(1H,3H)-DIONE

$$$$
