
 OpenBabel10282417072D

 24 24  0  0  0  0  0  0  0  0999 V2000
    0.0000    2.4750    0.0000 C   0  0  0  0  0  0  0  0  0  0  0  0
    0.7145    2.0625    0.0000 C   0  0  0  0  0  0  0  0  0  0  0  0
    1.4289    2.4750    0.0000 C   0  0  0  0  0  0  0  0  0  0  0  0
    0.7145    1.2375    0.0000 C   0  0  0  0  0  0  0  0  0  0  0  0
    1.4289    0.8250    0.0000 C   0  0  0  0  0  0  0  0  0  0  0  0
    1.4289   -0.0000    0.0000 C   0  0  0  0  0  0  0  0  0  0  0  0
    2.1434   -0.4125    0.0000 O   0  0  0  0  0  0  0  0  0  0  0  0
    0.7145   -0.4125    0.0000 C   0  0  0  0  0  0  0  0  0  0  0  0
    0.7145   -1.2375    0.0000 C   0  0  0  0  0  0  0  0  0  0  0  0
    0.0000    0.0000    0.0000 C   0  0  0  0  0  0  0  0  0  0  0  0
    0.0000    0.8250    0.0000 C   0  0  0  0  0  0  0  0  0  0  0  0
   -0.7145    1.2375    0.0000 O   0  0  0  0  0  0  0  0  0  0  0  0
   -0.0000    3.5450    0.0000 H   0  0  0  0  0  0  0  0  0  0  0  0
   -0.9266    1.9400    0.0000 H   0  0  0  0  0  0  0  0  0  0  0  0
   -0.9267    3.0100    0.0000 H   0  0  0  0  0  0  0  0  0  0  0  0
    1.6412    1.5275    0.0000 H   0  0  0  0  0  0  0  0  0  0  0  0
    2.3556    1.9400    0.0000 H   0  0  0  0  0  0  0  0  0  0  0  0
    1.4289    3.5450    0.0000 H   0  0  0  0  0  0  0  0  0  0  0  0
    2.3555    3.0100    0.0000 H   0  0  0  0  0  0  0  0  0  0  0  0
    2.3226    1.3410    0.0000 H   0  0  0  0  0  0  0  0  0  0  0  0
   -0.2121   -1.7725    0.0000 H   0  0  0  0  0  0  0  0  0  0  0  0
    1.6411   -1.7725    0.0000 H   0  0  0  0  0  0  0  0  0  0  0  0
    0.7145   -2.3075    0.0000 H   0  0  0  0  0  0  0  0  0  0  0  0
   -0.8937   -0.5160    0.0000 H   0  0  0  0  0  0  0  0  0  0  0  0
  1  2  1  0  0  0  0
  1 13  1  0  0  0  0
  1 14  1  0  0  0  0
  1 15  1  0  0  0  0
  2  3  1  0  0  0  0
  2  4  1  0  0  0  0
  2 16  1  0  0  0  0
  3 17  1  0  0  0  0
  3 18  1  0  0  0  0
  3 19  1  0  0  0  0
  4  5  2  0  0  0  0
  4 11  1  0  0  0  0
  5  6  1  0  0  0  0
  5 20  1  0  0  0  0
  6  7  2  0  0  0  0
  6  8  1  0  0  0  0
  8  9  1  0  0  0  0
  8 10  2  0  0  0  0
  9 21  1  0  0  0  0
  9 22  1  0  0  0  0
  9 23  1  0  0  0  0
 10 11  1  0  0  0  0
 10 24  1  0  0  0  0
 11 12  2  0  0  0  0
M  END
>  <DRUGBANK_ID>
DB16447

>  <COMMON_NAME>
Thymoquinone

>  <CAS_NUMBER>
490-91-5

>  <UNII>
O60IE26NUF

>  <SYNONYMS>
2-Isopropyl-5-methyl-p-benzoquinone; p-Cymene-2,5-dione; p-Mentha-3,6-diene-2,5-dione; Thymoquinon

$$$$
