LIM
 OpenBabel10282417072D

 46 45  0  0  0  0  0  0  0  0999 V2000
   -5.0142    0.1764    0.0000 C   0  0  0  0  0  0  0  0  0  0  0  0
   -4.2996   -0.2361    0.0000 C   0  0  0  0  0  0  0  0  0  0  0  0
   -3.5851    0.1764    0.0000 C   0  0  0  0  0  0  0  0  0  0  0  0
   -2.8706   -0.2361    0.0000 C   0  0  0  0  0  0  0  0  0  0  0  0
   -2.1561    0.1764    0.0000 C   0  0  0  0  0  0  0  0  0  0  0  0
   -1.4415   -0.2361    0.0000 C   0  0  0  0  0  0  0  0  0  0  0  0
   -0.7270    0.1764    0.0000 C   0  0  0  0  0  0  0  0  0  0  0  0
   -0.0125   -0.2361    0.0000 C   0  0  0  0  0  0  0  0  0  0  0  0
    0.7021    0.1764    0.0000 C   0  0  0  0  0  0  0  0  0  0  0  0
    1.4166   -0.2361    0.0000 C   0  0  0  0  0  0  0  0  0  0  0  0
    2.1311    0.1764    0.0000 C   0  0  0  0  0  0  0  0  0  0  0  0
    2.8456   -0.2361    0.0000 C   0  0  0  0  0  0  0  0  0  0  0  0
    3.5602    0.1764    0.0000 C   0  0  0  0  0  0  0  0  0  0  0  0
    4.2747   -0.2361    0.0000 C   0  0  0  0  0  0  0  0  0  0  0  0
    4.9892    0.1764    0.0000 C   0  0  0  0  0  0  0  0  0  0  0  0
   -5.7286   -0.2361    0.0000 O   0  0  0  0  0  0  0  0  0  0  0  0
   -3.5851    1.0015    0.0000 O   0  0  0  0  0  0  0  0  0  0  0  0
   -5.0142    1.0015    0.0000 O   0  0  0  0  0  0  0  0  0  0  0  0
   -4.2996   -1.3061    0.0000 H   0  0  0  0  0  0  0  0  0  0  0  0
   -3.3729   -0.7711    0.0000 H   0  0  0  0  0  0  0  0  0  0  0  0
   -2.8706   -1.3061    0.0000 H   0  0  0  0  0  0  0  0  0  0  0  0
   -1.9440   -0.7711    0.0000 H   0  0  0  0  0  0  0  0  0  0  0  0
   -2.1561    1.2464    0.0000 H   0  0  0  0  0  0  0  0  0  0  0  0
   -1.2295    0.7115    0.0000 H   0  0  0  0  0  0  0  0  0  0  0  0
   -1.4415   -1.3061    0.0000 H   0  0  0  0  0  0  0  0  0  0  0  0
   -0.5148   -0.7711    0.0000 H   0  0  0  0  0  0  0  0  0  0  0  0
   -0.7270    1.2464    0.0000 H   0  0  0  0  0  0  0  0  0  0  0  0
    0.1996    0.7114    0.0000 H   0  0  0  0  0  0  0  0  0  0  0  0
   -0.0125   -1.3061    0.0000 H   0  0  0  0  0  0  0  0  0  0  0  0
    0.9141   -0.7712    0.0000 H   0  0  0  0  0  0  0  0  0  0  0  0
    0.7021    1.2464    0.0000 H   0  0  0  0  0  0  0  0  0  0  0  0
    1.6288    0.7114    0.0000 H   0  0  0  0  0  0  0  0  0  0  0  0
    1.4166   -1.3061    0.0000 H   0  0  0  0  0  0  0  0  0  0  0  0
    2.3432   -0.7711    0.0000 H   0  0  0  0  0  0  0  0  0  0  0  0
    2.1311    1.2464    0.0000 H   0  0  0  0  0  0  0  0  0  0  0  0
    3.0577    0.7114    0.0000 H   0  0  0  0  0  0  0  0  0  0  0  0
    2.8456   -1.3061    0.0000 H   0  0  0  0  0  0  0  0  0  0  0  0
    3.7722   -0.7712    0.0000 H   0  0  0  0  0  0  0  0  0  0  0  0
    3.5602    1.2464    0.0000 H   0  0  0  0  0  0  0  0  0  0  0  0
    4.4869    0.7114    0.0000 H   0  0  0  0  0  0  0  0  0  0  0  0
    4.2747   -1.3061    0.0000 H   0  0  0  0  0  0  0  0  0  0  0  0
    5.2013   -0.7711    0.0000 H   0  0  0  0  0  0  0  0  0  0  0  0
    5.9158   -0.3586    0.0000 H   0  0  0  0  0  0  0  0  0  0  0  0
    4.9892    1.2464    0.0000 H   0  0  0  0  0  0  0  0  0  0  0  0
    5.9159    0.7114    0.0000 H   0  0  0  0  0  0  0  0  0  0  0  0
   -4.2027    1.4700    0.0000 H   0  0  0  0  0  0  0  0  0  0  0  0
  1  2  1  0  0  0  0
  1 16  2  0  0  0  0
  1 18  1  0  0  0  0
  2  3  1  0  0  0  0
  2 19  1  0  0  0  0
  2 20  1  0  0  0  0
  3  4  1  0  0  0  0
  3 17  2  0  0  0  0
  4  5  1  0  0  0  0
  4 21  1  0  0  0  0
  4 22  1  0  0  0  0
  5  6  1  0  0  0  0
  5 23  1  0  0  0  0
  5 24  1  0  0  0  0
  6  7  1  0  0  0  0
  6 25  1  0  0  0  0
  6 26  1  0  0  0  0
  7  8  1  0  0  0  0
  7 27  1  0  0  0  0
  7 28  1  0  0  0  0
  8  9  1  0  0  0  0
  8 29  1  0  0  0  0
  8 30  1  0  0  0  0
  9 10  1  0  0  0  0
  9 31  1  0  0  0  0
  9 32  1  0  0  0  0
 10 11  1  0  0  0  0
 10 33  1  0  0  0  0
 10 34  1  0  0  0  0
 11 12  1  0  0  0  0
 11 35  1  0  0  0  0
 11 36  1  0  0  0  0
 12 13  1  0  0  0  0
 12 37  1  0  0  0  0
 12 38  1  0  0  0  0
 13 14  1  0  0  0  0
 13 39  1  0  0  0  0
 13 40  1  0  0  0  0
 14 15  1  0  0  0  0
 14 41  1  0  0  0  0
 14 42  1  0  0  0  0
 15 43  1  0  0  0  0
 15 44  1  0  0  0  0
 15 45  1  0  0  0  0
 18 46  1  0  0  0  0
M  END
>  <DRUGBANK_ID>
DB04039

>  <SECONDARY_ACCESSION_NUMBERS>
EXPT02034

>  <COMMON_NAME>
3-Oxo-Pentadecanoic Acid

$$$$
