
 OpenBabel10282417072D

 49 51  0  0  0  0  0  0  0  0999 V2000
   -0.1306   -1.6173    0.0000 P   0  0  2  0  0  0  0  0  0  0  0  0
    1.1747   -2.1985    0.0000 P   0  0  2  0  0  0  0  0  0  0  0  0
   -1.6660    0.4159    0.0000 O   0  0  0  0  0  0  0  0  0  0  0  0
   -3.2309   -1.0361    0.0000 O   0  0  0  0  0  0  0  0  0  0  0  0
   -3.7855    0.6708    0.0000 O   0  0  0  0  0  0  0  0  0  0  0  0
   -0.6155   -0.9499    0.0000 O   0  0  0  0  0  0  0  0  0  0  0  0
   -3.7623    1.7258    0.0000 O   0  0  0  0  0  0  0  0  0  0  0  0
    0.3542   -2.2847    0.0000 O   0  0  0  0  0  0  0  0  0  0  0  0
    0.5367   -1.1324    0.0000 O   0  0  0  0  0  0  0  0  0  0  0  0
   -0.7980   -2.1022    0.0000 O   0  0  0  0  0  0  0  0  0  0  0  0
   -2.3334    4.2008    0.0000 O   0  0  0  0  0  0  0  0  0  0  0  0
    1.9952   -2.1123    0.0000 O   0  0  0  0  0  0  0  0  0  0  0  0
    1.2610   -3.0190    0.0000 O   0  0  0  0  0  0  0  0  0  0  0  0
    1.0885   -1.3780    0.0000 O   0  0  0  0  0  0  0  0  0  0  0  0
   -2.3334    1.7258    0.0000 N   0  0  0  0  0  0  0  0  0  0  0  0
   -3.0479    2.9633    0.0000 N   0  0  0  0  0  0  0  0  0  0  0  0
   -2.7459   -0.3686    0.0000 C   0  0  1  0  0  0  0  0  0  0  0  0
   -3.0009    0.4159    0.0000 C   0  0  2  0  0  0  0  0  0  0  0  0
   -1.9209   -0.3686    0.0000 C   0  0  1  0  0  0  0  0  0  0  0  0
   -2.3334    0.9008    0.0000 C   0  0  1  0  0  0  0  0  0  0  0  0
   -1.4360   -1.0361    0.0000 C   0  0  0  0  0  0  0  0  0  0  0  0
   -3.0479    2.1383    0.0000 C   0  0  0  0  0  0  0  0  0  0  0  0
   -1.6190    2.1383    0.0000 C   0  0  0  0  0  0  0  0  0  0  0  0
   -1.6190    2.9633    0.0000 C   0  0  0  0  0  0  0  0  0  0  0  0
   -2.3334    3.3758    0.0000 C   0  0  0  0  0  0  0  0  0  0  0  0
    2.4801   -2.7797    0.0000 C   0  0  0  0  0  0  0  0  0  0  0  0
    3.3007   -2.6935    0.0000 C   0  0  0  0  0  0  0  0  0  0  0  0
    2.1446   -3.5334    0.0000 C   0  0  0  0  0  0  0  0  0  0  0  0
    3.7855   -3.3609    0.0000 C   0  0  0  0  0  0  0  0  0  0  0  0
    2.6295   -4.2008    0.0000 C   0  0  0  0  0  0  0  0  0  0  0  0
    3.4500   -4.1146    0.0000 C   0  0  0  0  0  0  0  0  0  0  0  0
   -3.4908    3.2190    0.0000 H   0  0  0  0  0  0  0  0  0  0  0  0
   -4.1956   -0.9347    0.0000 H   0  0  0  0  0  0  0  0  0  0  0  0
   -3.9872    1.6196    0.0000 H   0  0  0  0  0  0  0  0  0  0  0  0
    1.4229   -1.5269    0.0000 H   0  0  0  0  0  0  0  0  0  0  0  0
    0.4763   -3.5892    0.0000 H   0  0  0  0  0  0  0  0  0  0  0  0
   -3.8027   -0.2013    0.0000 H   0  0  0  0  0  0  0  0  0  0  0  0
   -3.7574   -0.3408    0.0000 H   0  0  0  0  0  0  0  0  0  0  0  0
   -0.8641   -0.2013    0.0000 H   0  0  0  0  0  0  0  0  0  0  0  0
   -1.3800    1.3866    0.0000 H   0  0  0  0  0  0  0  0  0  0  0  0
   -1.8713   -2.0136    0.0000 H   0  0  0  0  0  0  0  0  0  0  0  0
   -2.5001   -1.1479    0.0000 H   0  0  0  0  0  0  0  0  0  0  0  0
   -0.7253    1.6223    0.0000 H   0  0  0  0  0  0  0  0  0  0  0  0
   -0.7253    3.4793    0.0000 H   0  0  0  0  0  0  0  0  0  0  0  0
    3.7205   -1.7508    0.0000 H   0  0  0  0  0  0  0  0  0  0  0  0
    1.1183   -3.6413    0.0000 H   0  0  0  0  0  0  0  0  0  0  0  0
    4.8118   -3.2530    0.0000 H   0  0  0  0  0  0  0  0  0  0  0  0
    2.2097   -5.1436    0.0000 H   0  0  0  0  0  0  0  0  0  0  0  0
    4.0566   -4.9495    0.0000 H   0  0  0  0  0  0  0  0  0  0  0  0
  1  6  1  0  0  0  0
  1  8  1  0  0  0  0
  1  9  1  0  0  0  0
  1 10  2  6  0  0  0
  2  8  1  0  0  0  0
  2 12  1  0  0  0  0
  2 13  1  0  0  0  0
  2 14  2  1  0  0  0
  3 19  1  0  0  0  0
  3 20  1  0  0  0  0
  4 33  1  0  0  0  0
  5 34  1  0  0  0  0
  6 21  1  0  0  0  0
  7 22  2  0  0  0  0
  9 35  1  0  0  0  0
 11 25  2  0  0  0  0
 12 26  1  0  0  0  0
 13 36  1  0  0  0  0
 15 22  1  0  0  0  0
 15 23  1  0  0  0  0
 16 22  1  0  0  0  0
 16 25  1  0  0  0  0
 16 32  1  0  0  0  0
 17  4  1  0  0  0  0
 17 18  1  0  0  0  0
 17 19  1  0  0  0  0
 17 37  1  6  0  0  0
 18  5  1  0  0  0  0
 18 20  1  0  0  0  0
 18 38  1  6  0  0  0
 19 21  1  0  0  0  0
 19 39  1  1  0  0  0
 20 15  1  0  0  0  0
 20 40  1  1  0  0  0
 21 41  1  0  0  0  0
 21 42  1  0  0  0  0
 23 24  2  0  0  0  0
 23 43  1  0  0  0  0
 24 25  1  0  0  0  0
 24 44  1  0  0  0  0
 26 27  2  0  0  0  0
 26 28  1  0  0  0  0
 27 29  1  0  0  0  0
 27 45  1  0  0  0  0
 28 30  2  0  0  0  0
 28 46  1  0  0  0  0
 29 31  2  0  0  0  0
 29 47  1  0  0  0  0
 30 31  1  0  0  0  0
 30 48  1  0  0  0  0
 31 49  1  0  0  0  0
M  END
>  <DRUGBANK_ID>
DB02790

>  <SECONDARY_ACCESSION_NUMBERS>
EXPT03199

>  <COMMON_NAME>
Phenyl-uridine-5'-diphosphate

$$$$
