
 OpenBabel10282417072D

 41 43  0  0  0  0  0  0  0  0999 V2000
    4.4656   -1.4045    0.0000 C   0  0  0  0  0  0  0  0  0  0  0  0
    4.8781   -0.6900    0.0000 C   0  0  0  0  0  0  0  0  0  0  0  0
    3.6586   -1.2330    0.0000 C   0  0  0  0  0  0  0  0  0  0  0  0
    4.3260   -0.0769    0.0000 C   0  0  0  0  0  0  0  0  0  0  0  0
    2.8579   -0.0000    0.0000 C   0  0  0  0  0  0  0  0  0  0  0  0
    0.0000    0.0000    0.0000 C   0  0  0  0  0  0  0  0  0  0  0  0
    0.0000   -1.6500    0.0000 C   0  0  0  0  0  0  0  0  0  0  0  0
    3.5724   -0.4125    0.0000 C   0  0  0  0  0  0  0  0  0  0  0  0
   -0.7145   -0.4125    0.0000 C   0  0  0  0  0  0  0  0  0  0  0  0
    0.7145   -0.4125    0.0000 C   0  0  0  0  0  0  0  0  0  0  0  0
   -0.7145   -1.2375    0.0000 C   0  0  0  0  0  0  0  0  0  0  0  0
    0.7145   -1.2375    0.0000 C   0  0  0  0  0  0  0  0  0  0  0  0
    2.1434   -0.4125    0.0000 C   0  0  3  0  0  0  0  0  0  0  0  0
   -1.4289   -0.0000    0.0000 Cl  0  0  0  0  0  0  0  0  0  0  0  0
   -2.1434   -2.0625    0.0000 N   0  0  0  0  0  0  0  0  0  0  0  0
    1.4289   -0.0000    0.0000 N   0  0  0  0  0  0  0  0  0  0  0  0
    2.1434   -1.2375    0.0000 N   0  0  0  0  0  0  0  0  0  0  0  0
   -1.8414   -0.9355    0.0000 O   0  0  0  0  0  0  0  0  0  0  0  0
   -1.0164   -2.3645    0.0000 O   0  0  0  0  0  0  0  0  0  0  0  0
    1.0416   -2.3784    0.0000 O   0  0  0  0  0  0  0  0  0  0  0  0
    1.8163   -2.3784    0.0000 O   0  0  0  0  0  0  0  0  0  0  0  0
   -1.4289   -1.6500    0.0000 S   0  0  0  0  0  0  0  0  0  0  0  0
    1.4289   -1.6500    0.0000 S   0  0  0  0  0  0  0  0  0  0  0  0
    4.9008   -2.3820    0.0000 H   0  0  0  0  0  0  0  0  0  0  0  0
    3.7923   -2.2361    0.0000 H   0  0  0  0  0  0  0  0  0  0  0  0
    5.9422   -0.5781    0.0000 H   0  0  0  0  0  0  0  0  0  0  0  0
    5.2615    0.3089    0.0000 H   0  0  0  0  0  0  0  0  0  0  0  0
    2.8634   -1.9490    0.0000 H   0  0  0  0  0  0  0  0  0  0  0  0
    2.6597   -0.8495    0.0000 H   0  0  0  0  0  0  0  0  0  0  0  0
    4.5484    0.9697    0.0000 H   0  0  0  0  0  0  0  0  0  0  0  0
    3.4944    0.5964    0.0000 H   0  0  0  0  0  0  0  0  0  0  0  0
    2.8579    1.0700    0.0000 H   0  0  0  0  0  0  0  0  0  0  0  0
    1.9313    0.5350    0.0000 H   0  0  0  0  0  0  0  0  0  0  0  0
    0.0000    1.0320    0.0000 H   0  0  0  0  0  0  0  0  0  0  0  0
    0.0000   -2.6820    0.0000 H   0  0  0  0  0  0  0  0  0  0  0  0
    3.6283    0.6560    0.0000 H   0  0  0  0  0  0  0  0  0  0  0  0
    2.1434    0.6575    0.0000 H   0  0  0  0  0  0  0  0  0  0  0  0
   -3.0267   -1.5525    0.0000 H   0  0  0  0  0  0  0  0  0  0  0  0
   -2.1434   -3.0825    0.0000 H   0  0  0  0  0  0  0  0  0  0  0  0
    1.4289    0.9845    0.0000 H   0  0  0  0  0  0  0  0  0  0  0  0
    3.0267   -1.7475    0.0000 H   0  0  0  0  0  0  0  0  0  0  0  0
  1 24  1  0  0  0  0
  1 25  1  0  0  0  0
  2  1  1  0  0  0  0
  2 26  1  0  0  0  0
  2 27  1  0  0  0  0
  3  1  1  0  0  0  0
  3 28  1  0  0  0  0
  3 29  1  0  0  0  0
  4  2  1  0  0  0  0
  4 30  1  0  0  0  0
  4 31  1  0  0  0  0
  5 32  1  0  0  0  0
  5 33  1  0  0  0  0
  6 34  1  0  0  0  0
  7 35  1  0  0  0  0
  8  3  1  0  0  0  0
  8  4  1  0  0  0  0
  8  5  1  0  0  0  0
  8 36  1  0  0  0  0
  9  6  2  0  0  0  0
 10  6  1  0  0  0  0
 11  7  2  0  0  0  0
 11  9  1  0  0  0  0
 12  7  1  0  0  0  0
 12 10  2  0  0  0  0
 13  5  1  0  0  0  0
 13 37  1  0  0  0  0
 14  9  1  0  0  0  0
 15 38  1  0  0  0  0
 15 39  1  0  0  0  0
 16 10  1  0  0  0  0
 16 13  1  0  0  0  0
 16 40  1  0  0  0  0
 17 13  1  0  0  0  0
 17 41  1  0  0  0  0
 22 11  1  0  0  0  0
 22 15  1  0  0  0  0
 22 18  2  0  0  0  0
 22 19  2  0  0  0  0
 23 12  1  0  0  0  0
 23 17  1  0  0  0  0
 23 20  2  0  0  0  0
 23 21  2  0  0  0  0
M  END
>  <DRUGBANK_ID>
DB13532

>  <COMMON_NAME>
Cyclopenthiazide

>  <CAS_NUMBER>
742-20-1

>  <UNII>
VX4S2N85F5

$$$$
