
 OpenBabel10282417072D

116124  0  0  0  0  0  0  0  0999 V2000
    2.3274   -0.5318    0.0000 C   0  0  1  0  0  0  0  0  0  0  0  0
    2.3063   -1.9607    0.0000 C   0  0  2  0  0  0  0  0  0  0  0  0
    1.9003   -1.2472    0.0000 C   0  0  2  0  0  0  0  0  0  0  0  0
    1.0758   -1.2392    0.0000 N   0  0  0  0  0  0  0  0  0  0  0  0
    3.5523   -1.2518    0.0000 C   0  0  2  0  0  0  0  0  0  0  0  0
    3.1463   -0.5383    0.0000 C   0  0  2  0  0  0  0  0  0  0  0  0
    0.6783   -0.5158    0.0000 C   0  0  0  0  0  0  0  0  0  0  0  0
    3.1274   -1.9709    0.0000 C   0  0  1  0  0  0  0  0  0  0  0  0
    1.0983    0.1955    0.0000 C   0  0  0  0  0  0  0  0  0  0  0  0
   -0.1581    0.8870    0.0000 C   0  0  0  0  0  0  0  0  0  0  0  0
   -0.1306   -0.5422    0.0000 C   0  0  0  0  0  0  0  0  0  0  0  0
    0.6643    0.9068    0.0000 C   0  0  0  0  0  0  0  0  0  0  0  0
    3.5698    0.1751    0.0000 N   0  0  3  0  0  0  0  0  0  0  0  0
    1.6488   -3.0465    0.0000 C   0  0  0  0  0  0  0  0  0  0  0  0
   -0.5552    0.1700    0.0000 C   0  0  0  0  0  0  0  0  0  0  0  0
    1.9243    0.1931    0.0000 C   0  0  0  0  0  0  0  0  0  0  0  0
    0.6536   -1.9470    0.0000 C   0  0  0  0  0  0  0  0  0  0  0  0
    3.5299   -2.6864    0.0000 O   0  0  0  0  0  0  0  0  0  0  0  0
    4.3697   -1.2640    0.0000 C   0  0  0  0  0  0  0  0  0  0  0  0
    3.1880   -3.2686    0.0000 C   0  0  0  0  0  0  0  0  0  0  0  0
    3.1023    0.8859    0.0000 C   0  0  0  0  0  0  0  0  0  0  0  0
    2.7089   -2.6764    0.0000 O   0  0  0  0  0  0  0  0  0  0  0  0
    4.7918   -0.5562    0.0000 C   0  0  0  0  0  0  0  0  0  0  0  0
    0.8948   -3.0829    0.0000 O   0  0  0  0  0  0  0  0  0  0  0  0
   -0.1751   -1.9317    0.0000 O   0  0  0  0  0  0  0  0  0  0  0  0
    2.5128   -3.2590    0.0000 O   0  0  0  0  0  0  0  0  0  0  0  0
    3.9511   -1.9696    0.0000 C   0  0  0  0  0  0  0  0  0  0  0  0
    4.3942    0.1671    0.0000 C   0  0  0  0  0  0  0  0  0  0  0  0
    2.0649   -3.7685    0.0000 O   0  0  0  0  0  0  0  0  0  0  0  0
   -1.4062    0.1815    0.0000 O   0  0  0  0  0  0  0  0  0  0  0  0
    3.5194   -3.8568    0.0000 C   0  0  0  0  0  0  0  0  0  0  0  0
   -1.8994   -0.6509    0.0000 C   0  0  0  0  0  0  0  0  0  0  0  0
    1.6515   -4.4177    0.0000 C   0  0  0  0  0  0  0  0  0  0  0  0
    4.7771   -1.9717    0.0000 C   0  0  0  0  0  0  0  0  0  0  0  0
    1.4762   -1.9512    0.0000 H   0  0  0  0  0  0  0  0  0  0  0  0
    2.7374    0.1881    0.0000 H   0  0  0  0  0  0  0  0  0  0  0  0
   -1.2237    2.6593    0.0000 C   0  0  2  0  0  0  0  0  0  0  0  0
   -1.9420    3.0718    0.0000 C   0  0  0  0  0  0  0  0  0  0  0  0
   -1.9420    3.8968    0.0000 C   0  0  0  0  0  0  0  0  0  0  0  0
   -2.6503    2.6594    0.0000 N   0  0  0  0  0  0  0  0  0  0  0  0
   -3.3669    3.9010    0.0000 C   0  0  0  0  0  0  0  0  0  0  0  0
   -3.3669    3.0760    0.0000 C   0  0  0  0  0  0  0  0  0  0  0  0
    0.1245    4.4177    0.0000 N   0  0  1  0  0  0  0  0  0  0  0  0
   -0.5045    3.0718    0.0000 C   0  0  0  0  0  0  0  0  0  0  0  0
   -1.2295    4.3134    0.0000 C   0  0  0  0  0  0  0  0  0  0  0  0
    1.2994    3.5052    0.0000 C   0  0  2  0  0  0  0  0  0  0  0  0
    0.1453    2.5636    0.0000 C   0  0  1  0  0  0  0  0  0  0  0  0
    0.9327    4.2426    0.0000 C   0  0  0  0  0  0  0  0  0  0  0  0
    0.5369    3.5385    0.0000 C   0  0  0  0  0  0  0  0  0  0  0  0
   -0.5128    3.9010    0.0000 C   0  0  0  0  0  0  0  0  0  0  0  0
    0.9495    2.7635    0.0000 C   0  0  0  0  0  0  0  0  0  0  0  0
    2.1910    4.0469    0.0000 O   0  0  0  0  0  0  0  0  0  0  0  0
   -4.0836    4.3094    0.0000 C   0  0  0  0  0  0  0  0  0  0  0  0
   -4.0752    2.6552    0.0000 C   0  0  0  0  0  0  0  0  0  0  0  0
    1.8828    2.9261    0.0000 C   0  0  0  0  0  0  0  0  0  0  0  0
    2.7077    2.9302    0.0000 C   0  0  0  0  0  0  0  0  0  0  0  0
   -4.7918    3.8927    0.0000 C   0  0  0  0  0  0  0  0  0  0  0  0
   -4.7918    3.0677    0.0000 C   0  0  0  0  0  0  0  0  0  0  0  0
   -1.8172    1.6386    0.0000 C   0  0  0  0  0  0  0  0  0  0  0  0
   -2.6379    1.6426    0.0000 O   0  0  0  0  0  0  0  0  0  0  0  0
   -1.4088    0.9302    0.0000 O   0  0  0  0  0  0  0  0  0  0  0  0
   -3.0503    0.9344    0.0000 C   0  0  0  0  0  0  0  0  0  0  0  0
    2.5815   -2.8912    0.0000 H   0  0  0  0  0  0  0  0  0  0  0  0
   -0.6256   -1.4477    0.0000 H   0  0  0  0  0  0  0  0  0  0  0  0
    1.1586    1.8127    0.0000 H   0  0  0  0  0  0  0  0  0  0  0  0
    0.8919    0.4742    0.0000 H   0  0  0  0  0  0  0  0  0  0  0  0
    1.2644   -0.6492    0.0000 H   0  0  0  0  0  0  0  0  0  0  0  0
    1.1549   -2.8491    0.0000 H   0  0  0  0  0  0  0  0  0  0  0  0
    4.8727   -2.1651    0.0000 H   0  0  0  0  0  0  0  0  0  0  0  0
    3.3449    1.9280    0.0000 H   0  0  0  0  0  0  0  0  0  0  0  0
    4.1557    1.0738    0.0000 H   0  0  0  0  0  0  0  0  0  0  0  0
    2.2145   -3.5110    0.0000 H   0  0  0  0  0  0  0  0  0  0  0  0
    5.8236   -0.5743    0.0000 H   0  0  0  0  0  0  0  0  0  0  0  0
    3.4073   -2.8911    0.0000 H   0  0  0  0  0  0  0  0  0  0  0  0
    4.4805   -2.8995    0.0000 H   0  0  0  0  0  0  0  0  0  0  0  0
    4.9434    1.0854    0.0000 H   0  0  0  0  0  0  0  0  0  0  0  0
    3.8708    1.1004    0.0000 H   0  0  0  0  0  0  0  0  0  0  0  0
    2.9747   -4.7778    0.0000 H   0  0  0  0  0  0  0  0  0  0  0  0
    4.5893   -3.8681    0.0000 H   0  0  0  0  0  0  0  0  0  0  0  0
    4.0446   -4.7890    0.0000 H   0  0  0  0  0  0  0  0  0  0  0  0
   -2.9693   -0.6388    0.0000 H   0  0  0  0  0  0  0  0  0  0  0  0
   -1.3749   -1.5835    0.0000 H   0  0  0  0  0  0  0  0  0  0  0  0
   -2.4448   -1.5714    0.0000 H   0  0  0  0  0  0  0  0  0  0  0  0
    0.5825   -4.3712    0.0000 H   0  0  0  0  0  0  0  0  0  0  0  0
    2.1458   -5.3667    0.0000 H   0  0  0  0  0  0  0  0  0  0  0  0
    1.0768   -5.3202    0.0000 H   0  0  0  0  0  0  0  0  0  0  0  0
    5.3097   -2.8997    0.0000 H   0  0  0  0  0  0  0  0  0  0  0  0
    5.3145   -1.0464    0.0000 H   0  0  0  0  0  0  0  0  0  0  0  0
    5.8471   -1.9744    0.0000 H   0  0  0  0  0  0  0  0  0  0  0  0
   -2.6500    1.6749    0.0000 H   0  0  0  0  0  0  0  0  0  0  0  0
   -0.4281    4.1391    0.0000 H   0  0  0  0  0  0  0  0  0  0  0  0
    0.4735    3.5059    0.0000 H   0  0  0  0  0  0  0  0  0  0  0  0
   -1.2332    5.3834    0.0000 H   0  0  0  0  0  0  0  0  0  0  0  0
   -0.3042    4.8507    0.0000 H   0  0  0  0  0  0  0  0  0  0  0  0
   -0.1324    3.5969    0.0000 H   0  0  0  0  0  0  0  0  0  0  0  0
    1.5899    5.0870    0.0000 H   0  0  0  0  0  0  0  0  0  0  0  0
    0.5678    5.2484    0.0000 H   0  0  0  0  0  0  0  0  0  0  0  0
    1.6065    3.5688    0.0000 H   0  0  0  0  0  0  0  0  0  0  0  0
    1.1486    2.6606    0.0000 H   0  0  0  0  0  0  0  0  0  0  0  0
   -0.4278    2.8344    0.0000 H   0  0  0  0  0  0  0  0  0  0  0  0
    0.4706    3.4794    0.0000 H   0  0  0  0  0  0  0  0  0  0  0  0
    1.6280    1.9361    0.0000 H   0  0  0  0  0  0  0  0  0  0  0  0
    0.6127    1.7479    0.0000 H   0  0  0  0  0  0  0  0  0  0  0  0
    3.0417    3.5808    0.0000 H   0  0  0  0  0  0  0  0  0  0  0  0
   -4.0908    5.3414    0.0000 H   0  0  0  0  0  0  0  0  0  0  0  0
   -4.0681    1.6232    0.0000 H   0  0  0  0  0  0  0  0  0  0  0  0
    1.4776    1.9358    0.0000 H   0  0  0  0  0  0  0  0  0  0  0  0
    2.4814    2.0392    0.0000 H   0  0  0  0  0  0  0  0  0  0  0  0
    3.2473    2.0062    0.0000 H   0  0  0  0  0  0  0  0  0  0  0  0
    3.2381    3.8595    0.0000 H   0  0  0  0  0  0  0  0  0  0  0  0
    3.7777    2.9355    0.0000 H   0  0  0  0  0  0  0  0  0  0  0  0
   -5.6877    4.4050    0.0000 H   0  0  0  0  0  0  0  0  0  0  0  0
   -5.6852    2.5511    0.0000 H   0  0  0  0  0  0  0  0  0  0  0  0
   -4.1203    0.9384    0.0000 H   0  0  0  0  0  0  0  0  0  0  0  0
   -2.5188    0.0058    0.0000 H   0  0  0  0  0  0  0  0  0  0  0  0
   -3.5887    0.0097    0.0000 H   0  0  0  0  0  0  0  0  0  0  0  0
  1  9  1  6  0  0  0
  2 22  1  1  0  0  0
  2  3  1  0  0  0  0
  2 14  1  0  0  0  0
  3 35  1  1  0  0  0
  3  4  1  0  0  0  0
  3  1  1  0  0  0  0
  4  7  1  0  0  0  0
  5 27  1  6  0  0  0
  5  6  1  0  0  0  0
  6 36  1  6  0  0  0
  6  1  1  0  0  0  0
  7  9  2  0  0  0  0
  7 11  1  0  0  0  0
  8  2  1  0  0  0  0
  8  5  1  0  0  0  0
  8 18  1  0  0  0  0
  8 63  1  6  0  0  0
  9 12  1  0  0  0  0
 11 15  2  0  0  0  0
 11 64  1  0  0  0  0
 12 10  2  0  0  0  0
 12 65  1  0  0  0  0
 13  6  1  0  0  0  0
 15 10  1  0  0  0  0
 16  1  1  0  0  0  0
 16 66  1  0  0  0  0
 16 67  1  0  0  0  0
 17  4  1  0  0  0  0
 17 68  1  0  0  0  0
 19  5  1  0  0  0  0
 19 69  1  0  0  0  0
 20 18  1  0  0  0  0
 21 16  1  0  0  0  0
 21 13  1  0  0  0  0
 21 70  1  0  0  0  0
 21 71  1  0  0  0  0
 22 72  1  0  0  0  0
 23 28  1  0  0  0  0
 23 19  2  0  0  0  0
 23 73  1  0  0  0  0
 24 14  2  0  0  0  0
 25 17  2  0  0  0  0
 26 20  2  0  0  0  0
 27 74  1  0  0  0  0
 27 75  1  0  0  0  0
 28 13  1  0  0  0  0
 28 76  1  0  0  0  0
 28 77  1  0  0  0  0
 29 14  1  0  0  0  0
 30 15  1  0  0  0  0
 31 20  1  0  0  0  0
 31 78  1  0  0  0  0
 31 79  1  0  0  0  0
 31 80  1  0  0  0  0
 32 30  1  0  0  0  0
 32 81  1  0  0  0  0
 32 82  1  0  0  0  0
 32 83  1  0  0  0  0
 33 29  1  0  0  0  0
 33 84  1  0  0  0  0
 33 85  1  0  0  0  0
 33 86  1  0  0  0  0
 34 27  1  0  0  0  0
 34 87  1  0  0  0  0
 34 88  1  0  0  0  0
 34 89  1  0  0  0  0
 37 10  1  0  0  0  0
 37 59  1  1  0  0  0
 38 37  1  0  0  0  0
 39 38  2  0  0  0  0
 40 38  1  0  0  0  0
 40 90  1  0  0  0  0
 41 39  1  0  0  0  0
 42 40  1  0  0  0  0
 42 41  1  0  0  0  0
 43 49  1  6  0  0  0
 43 50  1  0  0  0  0
 44 37  1  0  0  0  0
 44 91  1  0  0  0  0
 44 92  1  0  0  0  0
 45 39  1  0  0  0  0
 45 93  1  0  0  0  0
 45 94  1  0  0  0  0
 46 51  1  0  0  0  0
 46 52  1  1  0  0  0
 46 55  1  0  0  0  0
 47 44  1  0  0  0  0
 47 49  1  0  0  0  0
 47 95  1  6  0  0  0
 48 46  1  0  0  0  0
 48 43  1  0  0  0  0
 48 96  1  0  0  0  0
 48 97  1  0  0  0  0
 49 98  1  0  0  0  0
 49 99  1  0  0  0  0
 50 45  1  0  0  0  0
 50100  1  0  0  0  0
 50101  1  0  0  0  0
 51 47  1  0  0  0  0
 51102  1  0  0  0  0
 51103  1  0  0  0  0
 52104  1  0  0  0  0
 53 41  2  0  0  0  0
 53105  1  0  0  0  0
 54 42  2  0  0  0  0
 54106  1  0  0  0  0
 55107  1  0  0  0  0
 55108  1  0  0  0  0
 56 55  1  0  0  0  0
 56109  1  0  0  0  0
 56110  1  0  0  0  0
 56111  1  0  0  0  0
 57 53  1  0  0  0  0
 57112  1  0  0  0  0
 58 54  1  0  0  0  0
 58 57  2  0  0  0  0
 58113  1  0  0  0  0
 59 60  1  0  0  0  0
 59 61  2  0  0  0  0
 60 62  1  0  0  0  0
 62114  1  0  0  0  0
 62115  1  0  0  0  0
 62116  1  0  0  0  0
M  END
>  <DRUGBANK_ID>
DB00541

>  <SECONDARY_ACCESSION_NUMBERS>
APRD00495

>  <COMMON_NAME>
Vincristine

>  <CAS_NUMBER>
57-22-7

>  <UNII>
5J49Q6B70F

>  <SYNONYMS>
22-Oxovincaleukoblastin; 22-Oxovincaleukoblastine; Leurocristine; Vincristin; Vincristina; Vincristine; Vincristinum

$$$$
