
 OpenBabel10282417072D

 85 89  0  0  0  0  0  0  0  0999 V2000
    2.3886    3.1886    0.0000 O   0  0  0  0  0  0  0  0  0  0  0  0
   -0.8178   -3.4117    0.0000 O   0  0  0  0  0  0  0  0  0  0  0  0
   -1.3554   -0.3952    0.0000 O   0  0  0  0  0  0  0  0  0  0  0  0
    1.6174   -0.4989    0.0000 O   0  0  0  0  0  0  0  0  0  0  0  0
    0.5538   -1.4532    0.0000 O   0  0  0  0  0  0  0  0  0  0  0  0
   -0.2918    0.5590    0.0000 O   0  0  0  0  0  0  0  0  0  0  0  0
    3.7564    4.2368    0.0000 O   0  0  0  0  0  0  0  0  0  0  0  0
   -0.5097   -2.4075    0.0000 O   0  0  0  0  0  0  0  0  0  0  0  0
    0.7717    1.5134    0.0000 O   0  0  0  0  0  0  0  0  0  0  0  0
   -1.8680   -1.9636    0.0000 N   0  0  0  0  0  0  0  0  0  0  0  0
    2.1300    1.0695    0.0000 N   0  0  0  0  0  0  0  0  0  0  0  0
   -2.1243   -2.7478    0.0000 C   0  0  2  0  0  0  0  0  0  0  0  0
   -1.6428   -3.4117    0.0000 C   0  0  1  0  0  0  0  0  0  0  0  0
    2.3863    1.8537    0.0000 C   0  0  1  0  0  0  0  0  0  0  0  0
   -2.1243   -4.0756    0.0000 C   0  0  0  0  0  0  0  0  0  0  0  0
   -2.9049   -2.9992    0.0000 C   0  0  0  0  0  0  0  0  0  0  0  0
    3.1714    2.1073    0.0000 C   0  0  0  0  0  0  0  0  0  0  0  0
   -2.9049   -3.8243    0.0000 C   0  0  0  0  0  0  0  0  0  0  0  0
    3.1728    2.9323    0.0000 C   0  0  1  0  0  0  0  0  0  0  0  0
    1.9025    2.5219    0.0000 C   0  0  0  0  0  0  0  0  0  0  0  0
    0.0028   -0.8391    0.0000 C   0  0  2  0  0  0  0  0  0  0  0  0
    0.2591   -0.0549    0.0000 C   0  0  2  0  0  0  0  0  0  0  0  0
   -0.8044   -1.0093    0.0000 C   0  0  2  0  0  0  0  0  0  0  0  0
    1.0664    0.1151    0.0000 C   0  0  2  0  0  0  0  0  0  0  0  0
   -1.0607   -1.7934    0.0000 C   0  0  0  0  0  0  0  0  0  0  0  0
   -3.6195   -2.5867    0.0000 C   0  0  0  0  0  0  0  0  0  0  0  0
    1.3227    0.8994    0.0000 C   0  0  0  0  0  0  0  0  0  0  0  0
   -3.6195   -4.2368    0.0000 C   0  0  0  0  0  0  0  0  0  0  0  0
    3.8412    3.4161    0.0000 C   0  0  0  0  0  0  0  0  0  0  0  0
   -4.3340   -2.9992    0.0000 C   0  0  0  0  0  0  0  0  0  0  0  0
   -4.3340   -3.8243    0.0000 C   0  0  0  0  0  0  0  0  0  0  0  0
   -1.0991    0.3889    0.0000 C   0  0  0  0  0  0  0  0  0  0  0  0
    2.4247   -0.3287    0.0000 C   0  0  0  0  0  0  0  0  0  0  0  0
   -1.6501    1.0030    0.0000 C   0  0  0  0  0  0  0  0  0  0  0  0
    2.9757   -0.9428    0.0000 C   0  0  0  0  0  0  0  0  0  0  0  0
   -2.4573    0.8329    0.0000 C   0  0  0  0  0  0  0  0  0  0  0  0
   -1.3938    1.7872    0.0000 C   0  0  0  0  0  0  0  0  0  0  0  0
    3.7830   -0.7726    0.0000 C   0  0  0  0  0  0  0  0  0  0  0  0
    2.7194   -1.7270    0.0000 C   0  0  0  0  0  0  0  0  0  0  0  0
   -3.0084    1.4469    0.0000 C   0  0  0  0  0  0  0  0  0  0  0  0
   -1.9448    2.4012    0.0000 C   0  0  0  0  0  0  0  0  0  0  0  0
    4.3340   -1.3867    0.0000 C   0  0  0  0  0  0  0  0  0  0  0  0
    3.2703   -2.3411    0.0000 C   0  0  0  0  0  0  0  0  0  0  0  0
   -2.7521    2.2311    0.0000 C   0  0  0  0  0  0  0  0  0  0  0  0
    4.0777   -2.1709    0.0000 C   0  0  0  0  0  0  0  0  0  0  0  0
   -2.2096   -1.5829    0.0000 H   0  0  0  0  0  0  0  0  0  0  0  0
    2.4716    0.6887    0.0000 H   0  0  0  0  0  0  0  0  0  0  0  0
   -0.3328   -4.2517    0.0000 H   0  0  0  0  0  0  0  0  0  0  0  0
    0.2524   -2.3752    0.0000 H   0  0  0  0  0  0  0  0  0  0  0  0
    0.0095    1.4810    0.0000 H   0  0  0  0  0  0  0  0  0  0  0  0
    4.5421    4.8056    0.0000 H   0  0  0  0  0  0  0  0  0  0  0  0
   -1.0673   -2.5818    0.0000 H   0  0  0  0  0  0  0  0  0  0  0  0
   -1.1566   -2.4585    0.0000 H   0  0  0  0  0  0  0  0  0  0  0  0
    3.1416    1.0958    0.0000 H   0  0  0  0  0  0  0  0  0  0  0  0
   -1.7918   -5.0926    0.0000 H   0  0  0  0  0  0  0  0  0  0  0  0
   -2.8792   -4.8339    0.0000 H   0  0  0  0  0  0  0  0  0  0  0  0
    4.0360    1.4769    0.0000 H   0  0  0  0  0  0  0  0  0  0  0  0
    4.1256    2.5914    0.0000 H   0  0  0  0  0  0  0  0  0  0  0  0
    3.0073    3.9894    0.0000 H   0  0  0  0  0  0  0  0  0  0  0  0
    0.8325    2.5237    0.0000 H   0  0  0  0  0  0  0  0  0  0  0  0
    1.4152    1.5693    0.0000 H   0  0  0  0  0  0  0  0  0  0  0  0
    1.0498   -0.6185    0.0000 H   0  0  0  0  0  0  0  0  0  0  0  0
   -0.7879   -0.2756    0.0000 H   0  0  0  0  0  0  0  0  0  0  0  0
   -0.4720    0.0078    0.0000 H   0  0  0  0  0  0  0  0  0  0  0  0
    0.7339   -0.9019    0.0000 H   0  0  0  0  0  0  0  0  0  0  0  0
   -3.6195   -1.5547    0.0000 H   0  0  0  0  0  0  0  0  0  0  0  0
   -3.6195   -5.2688    0.0000 H   0  0  0  0  0  0  0  0  0  0  0  0
    4.8179    2.9792    0.0000 H   0  0  0  0  0  0  0  0  0  0  0  0
    3.9512    2.3518    0.0000 H   0  0  0  0  0  0  0  0  0  0  0  0
   -5.2277   -2.4832    0.0000 H   0  0  0  0  0  0  0  0  0  0  0  0
   -5.2277   -4.3403    0.0000 H   0  0  0  0  0  0  0  0  0  0  0  0
   -0.0521    0.6095    0.0000 H   0  0  0  0  0  0  0  0  0  0  0  0
   -0.7667    1.4060    0.0000 H   0  0  0  0  0  0  0  0  0  0  0  0
    2.7571    0.6884    0.0000 H   0  0  0  0  0  0  0  0  0  0  0  0
    3.4717   -0.1080    0.0000 H   0  0  0  0  0  0  0  0  0  0  0  0
   -2.7778   -0.1481    0.0000 H   0  0  0  0  0  0  0  0  0  0  0  0
   -0.3840    2.0001    0.0000 H   0  0  0  0  0  0  0  0  0  0  0  0
    4.1036    0.2083    0.0000 H   0  0  0  0  0  0  0  0  0  0  0  0
    1.7096   -1.9398    0.0000 H   0  0  0  0  0  0  0  0  0  0  0  0
   -4.0182    1.2340    0.0000 H   0  0  0  0  0  0  0  0  0  0  0  0
   -1.6242    3.3821    0.0000 H   0  0  0  0  0  0  0  0  0  0  0  0
    5.3438   -1.1739    0.0000 H   0  0  0  0  0  0  0  0  0  0  0  0
    2.9497   -3.3220    0.0000 H   0  0  0  0  0  0  0  0  0  0  0  0
   -3.4413    2.9992    0.0000 H   0  0  0  0  0  0  0  0  0  0  0  0
    4.7669   -2.9390    0.0000 H   0  0  0  0  0  0  0  0  0  0  0  0
  1 19  1  0  0  0  0
  1 20  1  0  0  0  0
  2 48  1  0  0  0  0
  3 32  1  0  0  0  0
  4 33  1  0  0  0  0
  5 49  1  0  0  0  0
  6 50  1  0  0  0  0
  7 29  1  0  0  0  0
  7 51  1  0  0  0  0
  8 25  2  0  0  0  0
  9 27  2  0  0  0  0
 10 25  1  0  0  0  0
 10 46  1  0  0  0  0
 11 27  1  0  0  0  0
 11 47  1  0  0  0  0
 12 10  1  0  0  0  0
 12 13  1  0  0  0  0
 12 16  1  0  0  0  0
 12 52  1  1  0  0  0
 13  2  1  0  0  0  0
 13 15  1  0  0  0  0
 13 53  1  1  0  0  0
 14 11  1  0  0  0  0
 14 17  1  0  0  0  0
 14 20  1  0  0  0  0
 14 54  1  1  0  0  0
 15 18  1  0  0  0  0
 15 55  1  0  0  0  0
 15 56  1  0  0  0  0
 16 18  1  0  0  0  0
 16 26  2  0  0  0  0
 17 19  1  0  0  0  0
 17 57  1  0  0  0  0
 17 58  1  0  0  0  0
 18 28  2  0  0  0  0
 19 29  1  0  0  0  0
 19 59  1  1  0  0  0
 20 60  1  0  0  0  0
 20 61  1  0  0  0  0
 21  5  1  0  0  0  0
 21 22  1  0  0  0  0
 21 23  1  0  0  0  0
 21 62  1  6  0  0  0
 22  6  1  0  0  0  0
 22 24  1  0  0  0  0
 22 63  1  6  0  0  0
 23  3  1  0  0  0  0
 23 25  1  0  0  0  0
 23 64  1  1  0  0  0
 24  4  1  0  0  0  0
 24 27  1  0  0  0  0
 24 65  1  1  0  0  0
 26 30  1  0  0  0  0
 26 66  1  0  0  0  0
 28 31  1  0  0  0  0
 28 67  1  0  0  0  0
 29 68  1  0  0  0  0
 29 69  1  0  0  0  0
 30 31  2  0  0  0  0
 30 70  1  0  0  0  0
 31 71  1  0  0  0  0
 32 34  1  0  0  0  0
 32 72  1  0  0  0  0
 32 73  1  0  0  0  0
 33 35  1  0  0  0  0
 33 74  1  0  0  0  0
 33 75  1  0  0  0  0
 34 36  2  0  0  0  0
 34 37  1  0  0  0  0
 35 38  2  0  0  0  0
 35 39  1  0  0  0  0
 36 40  1  0  0  0  0
 36 76  1  0  0  0  0
 37 41  2  0  0  0  0
 37 77  1  0  0  0  0
 38 42  1  0  0  0  0
 38 78  1  0  0  0  0
 39 43  2  0  0  0  0
 39 79  1  0  0  0  0
 40 44  2  0  0  0  0
 40 80  1  0  0  0  0
 41 44  1  0  0  0  0
 41 81  1  0  0  0  0
 42 45  2  0  0  0  0
 42 82  1  0  0  0  0
 43 45  1  0  0  0  0
 43 83  1  0  0  0  0
 44 84  1  0  0  0  0
 45 85  1  0  0  0  0
M  END
>  <DRUGBANK_ID>
DB01887

>  <SECONDARY_ACCESSION_NUMBERS>
EXPT00659

>  <COMMON_NAME>
N,N-[2,5-O-Dibenzyl-glucaryl]-DI-[1-amino-indan-2-OL]

>  <SYNONYMS>
Inhibitor BEA369

$$$$
