51U
 OpenBabel10282417072D

 54 56  0  0  0  0  0  0  0  0999 V2000
    2.2955   -0.8706    0.0000 C   0  0  0  0  0  0  0  0  0  0  0  0
    1.3394   -1.9325    0.0000 N   0  0  0  0  0  0  0  0  0  0  0  0
    1.5109   -1.1255    0.0000 C   0  0  1  0  0  0  0  0  0  0  0  0
    0.8978   -0.5735    0.0000 C   0  0  0  0  0  0  0  0  0  0  0  0
    1.0694    0.2335    0.0000 O   0  0  0  0  0  0  0  0  0  0  0  0
    0.1132   -0.8284    0.0000 N   0  0  0  0  0  0  0  0  0  0  0  0
   -0.1417   -1.6131    0.0000 C   0  0  0  0  0  0  0  0  0  0  0  0
   -0.9667   -1.6131    0.0000 C   0  0  0  0  0  0  0  0  0  0  0  0
   -1.2217   -0.8284    0.0000 C   0  0  0  0  0  0  0  0  0  0  0  0
   -0.5542   -0.3435    0.0000 C   0  0  1  0  0  0  0  0  0  0  0  0
   -0.5542    0.4815    0.0000 C   0  0  0  0  0  0  0  0  0  0  0  0
   -1.2687    0.8940    0.0000 N   0  0  0  0  0  0  0  0  0  0  0  0
   -1.2687    1.7190    0.0000 C   0  0  0  0  0  0  0  0  0  0  0  0
   -1.9832    2.1315    0.0000 C   0  0  0  0  0  0  0  0  0  0  0  0
   -2.6976    1.7190    0.0000 C   0  0  0  0  0  0  0  0  0  0  0  0
   -3.4121    2.1315    0.0000 C   0  0  0  0  0  0  0  0  0  0  0  0
   -4.1266    1.7190    0.0000 C   0  0  0  0  0  0  0  0  0  0  0  0
   -3.4121    2.9565    0.0000 C   0  0  0  0  0  0  0  0  0  0  0  0
   -2.6976    3.3690    0.0000 C   0  0  0  0  0  0  0  0  0  0  0  0
   -1.9832    2.9565    0.0000 C   0  0  0  0  0  0  0  0  0  0  0  0
    0.1602    0.8940    0.0000 O   0  0  0  0  0  0  0  0  0  0  0  0
    2.9086   -1.4226    0.0000 C   0  0  0  0  0  0  0  0  0  0  0  0
    3.6933   -1.1677    0.0000 C   0  0  0  0  0  0  0  0  0  0  0  0
    4.3064   -1.7197    0.0000 C   0  0  0  0  0  0  0  0  0  0  0  0
    4.1348   -2.5267    0.0000 C   0  0  0  0  0  0  0  0  0  0  0  0
    3.3502   -2.7816    0.0000 C   0  0  0  0  0  0  0  0  0  0  0  0
    2.7371   -2.2296    0.0000 C   0  0  0  0  0  0  0  0  0  0  0  0
    1.9449   -1.5162    0.0000 H   0  0  0  0  0  0  0  0  0  0  0  0
   -0.0340   -0.0784    0.0000 H   0  0  0  0  0  0  0  0  0  0  0  0
    2.5180    0.1760    0.0000 H   0  0  0  0  0  0  0  0  0  0  0  0
    3.3131   -0.5399    0.0000 H   0  0  0  0  0  0  0  0  0  0  0  0
    0.3693   -2.2477    0.0000 H   0  0  0  0  0  0  0  0  0  0  0  0
    2.0974   -2.6150    0.0000 H   0  0  0  0  0  0  0  0  0  0  0  0
    0.4873   -2.4787    0.0000 H   0  0  0  0  0  0  0  0  0  0  0  0
   -0.6275   -2.5665    0.0000 H   0  0  0  0  0  0  0  0  0  0  0  0
   -1.5956   -2.4788    0.0000 H   0  0  0  0  0  0  0  0  0  0  0  0
   -2.0235   -1.4457    0.0000 H   0  0  0  0  0  0  0  0  0  0  0  0
   -2.2393   -0.4977    0.0000 H   0  0  0  0  0  0  0  0  0  0  0  0
   -1.3890    0.2284    0.0000 H   0  0  0  0  0  0  0  0  0  0  0  0
   -2.1213    0.4017    0.0000 H   0  0  0  0  0  0  0  0  0  0  0  0
   -0.3421    2.2540    0.0000 H   0  0  0  0  0  0  0  0  0  0  0  0
   -1.2687    2.7890    0.0000 H   0  0  0  0  0  0  0  0  0  0  0  0
   -2.6976    0.6870    0.0000 H   0  0  0  0  0  0  0  0  0  0  0  0
   -5.0532    2.2540    0.0000 H   0  0  0  0  0  0  0  0  0  0  0  0
   -4.1266    0.6490    0.0000 H   0  0  0  0  0  0  0  0  0  0  0  0
   -5.0533    1.1840    0.0000 H   0  0  0  0  0  0  0  0  0  0  0  0
   -4.3058    3.4725    0.0000 H   0  0  0  0  0  0  0  0  0  0  0  0
   -2.6976    4.4010    0.0000 H   0  0  0  0  0  0  0  0  0  0  0  0
   -1.0895    3.4725    0.0000 H   0  0  0  0  0  0  0  0  0  0  0  0
    3.9079   -0.1583    0.0000 H   0  0  0  0  0  0  0  0  0  0  0  0
    5.2879   -1.4008    0.0000 H   0  0  0  0  0  0  0  0  0  0  0  0
    4.9017   -3.2173    0.0000 H   0  0  0  0  0  0  0  0  0  0  0  0
    3.1356   -3.7910    0.0000 H   0  0  0  0  0  0  0  0  0  0  0  0
    1.7556   -2.5485    0.0000 H   0  0  0  0  0  0  0  0  0  0  0  0
  1  3  1  0  0  0  0
  1 22  1  0  0  0  0
  1 30  1  0  0  0  0
  1 31  1  0  0  0  0
  2 32  1  0  0  0  0
  2 33  1  0  0  0  0
  3  2  1  0  0  0  0
  3  4  1  0  0  0  0
  3 28  1  6  0  0  0
  4  5  2  0  0  0  0
  4  6  1  0  0  0  0
  6  7  1  0  0  0  0
  6 10  1  0  0  0  0
  7  8  1  0  0  0  0
  7 34  1  0  0  0  0
  7 35  1  0  0  0  0
  8  9  1  0  0  0  0
  8 36  1  0  0  0  0
  8 37  1  0  0  0  0
  9 10  1  0  0  0  0
  9 38  1  0  0  0  0
  9 39  1  0  0  0  0
 10 11  1  0  0  0  0
 10 29  1  6  0  0  0
 11 12  1  0  0  0  0
 11 21  2  0  0  0  0
 12 13  1  0  0  0  0
 12 40  1  0  0  0  0
 13 14  1  0  0  0  0
 13 41  1  0  0  0  0
 13 42  1  0  0  0  0
 14 15  2  0  0  0  0
 14 20  1  0  0  0  0
 15 16  1  0  0  0  0
 15 43  1  0  0  0  0
 16 17  1  0  0  0  0
 16 18  2  0  0  0  0
 17 44  1  0  0  0  0
 17 45  1  0  0  0  0
 17 46  1  0  0  0  0
 18 19  1  0  0  0  0
 18 47  1  0  0  0  0
 19 20  2  0  0  0  0
 19 48  1  0  0  0  0
 20 49  1  0  0  0  0
 22 23  2  0  0  0  0
 22 27  1  0  0  0  0
 23 24  1  0  0  0  0
 23 50  1  0  0  0  0
 24 25  2  0  0  0  0
 24 51  1  0  0  0  0
 25 26  1  0  0  0  0
 25 52  1  0  0  0  0
 26 27  2  0  0  0  0
 26 53  1  0  0  0  0
 27 54  1  0  0  0  0
M  END
>  <DRUGBANK_ID>
DB07133

>  <COMMON_NAME>
D-phenylalanyl-N-(3-methylbenzyl)-L-prolinamide

$$$$
