
 OpenBabel10282417072D

 79 85  0  0  0  0  0  0  0  0999 V2000
    0.8838   -2.1500    0.0000 C   0  0  0  0  0  0  0  0  0  0  0  0
    1.1387   -1.3654    0.0000 C   0  0  0  0  0  0  0  0  0  0  0  0
    0.6538   -0.6979    0.0000 C   0  0  0  0  0  0  0  0  0  0  0  0
    1.1387   -0.0305    0.0000 C   0  0  0  0  0  0  0  0  0  0  0  0
    0.8838    0.7541    0.0000 C   0  0  0  0  0  0  0  0  0  0  0  0
    1.9233   -0.2854    0.0000 C   0  0  0  0  0  0  0  0  0  0  0  0
    2.6378    0.1271    0.0000 C   0  0  0  0  0  0  0  0  0  0  0  0
    3.3523   -0.2854    0.0000 C   0  0  0  0  0  0  0  0  0  0  0  0
    4.1369   -0.0305    0.0000 C   0  0  0  0  0  0  0  0  0  0  0  0
    4.6218   -0.6979    0.0000 C   0  0  0  0  0  0  0  0  0  0  0  0
    4.1369   -1.3654    0.0000 C   0  0  0  0  0  0  0  0  0  0  0  0
    4.3918   -2.1500    0.0000 C   0  0  0  0  0  0  0  0  0  0  0  0
    3.8398   -2.7631    0.0000 C   0  0  0  0  0  0  0  0  0  0  0  0
    4.0948   -3.5477    0.0000 C   0  0  0  0  0  0  0  0  0  0  0  0
    4.9017   -3.7192    0.0000 O   0  0  0  0  0  0  0  0  0  0  0  0
    3.5427   -4.1608    0.0000 N   0  0  0  0  0  0  0  0  0  0  0  0
    3.7977   -4.9454    0.0000 C   0  0  0  0  0  0  0  0  0  0  0  0
    3.2456   -5.5585    0.0000 C   0  0  0  0  0  0  0  0  0  0  0  0
    2.4387   -5.3870    0.0000 N   0  0  0  0  0  0  0  0  0  0  0  0
    2.1837   -4.6024    0.0000 C   0  0  0  0  0  0  0  0  0  0  0  0
    2.7357   -3.9893    0.0000 C   0  0  0  0  0  0  0  0  0  0  0  0
    1.8866   -6.0001    0.0000 C   0  0  0  0  0  0  0  0  0  0  0  0
    1.0796   -5.8286    0.0000 O   0  0  0  0  0  0  0  0  0  0  0  0
    2.1416   -6.7847    0.0000 C   0  0  0  0  0  0  0  0  0  0  0  0
    2.9485   -6.9562    0.0000 C   0  0  0  0  0  0  0  0  0  0  0  0
    3.5006   -6.3432    0.0000 F   0  0  0  0  0  0  0  0  0  0  0  0
    3.2035   -7.7409    0.0000 C   0  0  0  0  0  0  0  0  0  0  0  0
    2.6514   -8.3540    0.0000 C   0  0  0  0  0  0  0  0  0  0  0  0
    1.8445   -8.1824    0.0000 C   0  0  0  0  0  0  0  0  0  0  0  0
    1.2924   -8.7955    0.0000 C   0  0  0  0  0  0  0  0  0  0  0  0
    1.5474   -9.5802    0.0000 C   0  0  0  0  0  0  0  0  0  0  0  0
    2.3543   -9.7517    0.0000 N   0  0  0  0  0  0  0  0  0  0  0  0
    2.6093  -10.5363    0.0000 N   0  0  0  0  0  0  0  0  0  0  0  0
    2.0573  -11.1494    0.0000 C   0  0  0  0  0  0  0  0  0  0  0  0
    2.3122  -11.9340    0.0000 O   0  0  0  0  0  0  0  0  0  0  0  0
    1.2503  -10.9779    0.0000 C   0  0  0  0  0  0  0  0  0  0  0  0
    0.6982  -11.5910    0.0000 C   0  0  0  0  0  0  0  0  0  0  0  0
   -0.1087  -11.4194    0.0000 C   0  0  0  0  0  0  0  0  0  0  0  0
   -0.3637  -10.6348    0.0000 C   0  0  0  0  0  0  0  0  0  0  0  0
    0.1884  -10.0217    0.0000 C   0  0  0  0  0  0  0  0  0  0  0  0
    0.9953  -10.1932    0.0000 C   0  0  0  0  0  0  0  0  0  0  0  0
    1.5895   -7.3978    0.0000 C   0  0  0  0  0  0  0  0  0  0  0  0
    3.3523   -1.1104    0.0000 N   0  3  0  0  0  0  0  0  0  0  0  0
    2.6378   -1.5229    0.0000 B   0  5  0  0  0  0  0  0  0  0  0  0
    3.1681   -2.1549    0.0000 F   0  0  0  0  0  0  0  0  0  0  0  0
    2.1075   -2.1549    0.0000 F   0  0  0  0  0  0  0  0  0  0  0  0
    1.9233   -1.1104    0.0000 N   0  0  0  0  0  0  0  0  0  0  0  0
   -0.1628   -2.3725    0.0000 H   0  0  0  0  0  0  0  0  0  0  0  0
    1.5998   -2.9451    0.0000 H   0  0  0  0  0  0  0  0  0  0  0  0
    0.5532   -3.1676    0.0000 H   0  0  0  0  0  0  0  0  0  0  0  0
   -0.3782   -0.6979    0.0000 H   0  0  0  0  0  0  0  0  0  0  0  0
    1.5998    1.5492    0.0000 H   0  0  0  0  0  0  0  0  0  0  0  0
   -0.1628    0.9766    0.0000 H   0  0  0  0  0  0  0  0  0  0  0  0
    0.5532    1.7717    0.0000 H   0  0  0  0  0  0  0  0  0  0  0  0
    2.6378    1.1591    0.0000 H   0  0  0  0  0  0  0  0  0  0  0  0
    4.4558    0.9510    0.0000 H   0  0  0  0  0  0  0  0  0  0  0  0
    5.6538   -0.6979    0.0000 H   0  0  0  0  0  0  0  0  0  0  0  0
    5.4384   -2.3725    0.0000 H   0  0  0  0  0  0  0  0  0  0  0  0
    4.7225   -3.1676    0.0000 H   0  0  0  0  0  0  0  0  0  0  0  0
    2.7932   -2.5407    0.0000 H   0  0  0  0  0  0  0  0  0  0  0  0
    3.1239   -3.5583    0.0000 H   0  0  0  0  0  0  0  0  0  0  0  0
    4.8443   -5.1679    0.0000 H   0  0  0  0  0  0  0  0  0  0  0  0
    4.1283   -5.9630    0.0000 H   0  0  0  0  0  0  0  0  0  0  0  0
    3.5762   -6.5761    0.0000 H   0  0  0  0  0  0  0  0  0  0  0  0
    2.5296   -6.3537    0.0000 H   0  0  0  0  0  0  0  0  0  0  0  0
    1.1371   -4.3800    0.0000 H   0  0  0  0  0  0  0  0  0  0  0  0
    1.8530   -3.5848    0.0000 H   0  0  0  0  0  0  0  0  0  0  0  0
    2.4050   -2.9717    0.0000 H   0  0  0  0  0  0  0  0  0  0  0  0
    3.4516   -3.1941    0.0000 H   0  0  0  0  0  0  0  0  0  0  0  0
    4.2129   -7.9555    0.0000 H   0  0  0  0  0  0  0  0  0  0  0  0
    2.9702   -9.3355    0.0000 H   0  0  0  0  0  0  0  0  0  0  0  0
    0.2458   -8.5730    0.0000 H   0  0  0  0  0  0  0  0  0  0  0  0
    0.5764   -9.5907    0.0000 H   0  0  0  0  0  0  0  0  0  0  0  0
    3.5723  -10.7409    0.0000 H   0  0  0  0  0  0  0  0  0  0  0  0
    1.0170  -12.5725    0.0000 H   0  0  0  0  0  0  0  0  0  0  0  0
   -0.7993  -12.1863    0.0000 H   0  0  0  0  0  0  0  0  0  0  0  0
   -1.3732  -10.4202    0.0000 H   0  0  0  0  0  0  0  0  0  0  0  0
   -0.1305   -9.0402    0.0000 H   0  0  0  0  0  0  0  0  0  0  0  0
    0.5800   -7.1832    0.0000 H   0  0  0  0  0  0  0  0  0  0  0  0
  1  2  1  0  0  0  0
  1 48  1  0  0  0  0
  1 49  1  0  0  0  0
  1 50  1  0  0  0  0
  2  3  2  0  0  0  0
  2 47  1  0  0  0  0
  3  4  1  0  0  0  0
  3 51  1  0  0  0  0
  4  5  1  0  0  0  0
  4  6  2  0  0  0  0
  5 52  1  0  0  0  0
  5 53  1  0  0  0  0
  5 54  1  0  0  0  0
  6  7  1  0  0  0  0
  6 47  1  0  0  0  0
  7  8  2  0  0  0  0
  7 55  1  0  0  0  0
  8  9  1  0  0  0  0
  8 43  1  0  0  0  0
  9 10  2  0  0  0  0
  9 56  1  0  0  0  0
 10 11  1  0  0  0  0
 10 57  1  0  0  0  0
 11 12  1  0  0  0  0
 11 43  2  0  0  0  0
 12 13  1  0  0  0  0
 12 58  1  0  0  0  0
 12 59  1  0  0  0  0
 13 14  1  0  0  0  0
 13 60  1  0  0  0  0
 13 61  1  0  0  0  0
 14 15  2  0  0  0  0
 14 16  1  0  0  0  0
 16 17  1  0  0  0  0
 16 21  1  0  0  0  0
 17 18  1  0  0  0  0
 17 62  1  0  0  0  0
 17 63  1  0  0  0  0
 18 19  1  0  0  0  0
 18 64  1  0  0  0  0
 18 65  1  0  0  0  0
 19 20  1  0  0  0  0
 19 22  1  0  0  0  0
 20 21  1  0  0  0  0
 20 66  1  0  0  0  0
 20 67  1  0  0  0  0
 21 68  1  0  0  0  0
 21 69  1  0  0  0  0
 22 23  2  0  0  0  0
 22 24  1  0  0  0  0
 24 25  2  0  0  0  0
 24 42  1  0  0  0  0
 25 26  1  0  0  0  0
 25 27  1  0  0  0  0
 27 28  2  0  0  0  0
 27 70  1  0  0  0  0
 28 29  1  0  0  0  0
 28 71  1  0  0  0  0
 29 30  1  0  0  0  0
 29 42  2  0  0  0  0
 30 31  1  0  0  0  0
 30 72  1  0  0  0  0
 30 73  1  0  0  0  0
 31 32  2  0  0  0  0
 31 41  1  0  0  0  0
 32 33  1  0  0  0  0
 33 34  1  0  0  0  0
 33 74  1  0  0  0  0
 34 35  2  0  0  0  0
 34 36  1  0  0  0  0
 36 37  2  0  0  0  0
 36 41  1  0  0  0  0
 37 38  1  0  0  0  0
 37 75  1  0  0  0  0
 38 39  2  0  0  0  0
 38 76  1  0  0  0  0
 39 40  1  0  0  0  0
 39 77  1  0  0  0  0
 40 41  2  0  0  0  0
 40 78  1  0  0  0  0
 42 79  1  0  0  0  0
 43 44  1  0  0  0  0
 44 45  1  0  0  0  0
 44 46  1  0  0  0  0
 44 47  1  0  0  0  0
M  CHG  2  43   1  44  -1
M  END
>  <DRUGBANK_ID>
DB16263

>  <COMMON_NAME>
Olaparib-bodipy FL

>  <CAS_NUMBER>
1380359-84-1

>  <UNII>
ZMX54372EH

>  <SYNONYMS>
Olaparib-bodipy fl; PARPi-FL

$$$$
