
 OpenBabel10282417072D

 16 15  0  0  0  0  0  0  0  0999 V2000
    0.3572    1.0312    0.0000 O   0  0  0  0  0  0  0  0  0  0  0  0
    0.3572    0.2062    0.0000 C   0  0  2  0  0  0  0  0  0  0  0  0
   -0.3572   -0.2062    0.0000 C   0  0  2  0  0  0  0  0  0  0  0  0
   -0.3572   -1.0312    0.0000 O   0  0  0  0  0  0  0  0  0  0  0  0
   -1.0717    0.2062    0.0000 C   0  0  0  0  0  0  0  0  0  0  0  0
   -1.7861   -0.2062    0.0000 O   0  0  0  0  0  0  0  0  0  0  0  0
   -1.0717    1.0312    0.0000 O   0  0  0  0  0  0  0  0  0  0  0  0
    1.0717   -0.2062    0.0000 C   0  0  0  0  0  0  0  0  0  0  0  0
    1.7861    0.2062    0.0000 O   0  0  0  0  0  0  0  0  0  0  0  0
    1.0717   -1.0312    0.0000 O   0  0  0  0  0  0  0  0  0  0  0  0
    1.1972    1.5162    0.0000 H   0  0  0  0  0  0  0  0  0  0  0  0
   -0.5694    0.7412    0.0000 H   0  0  0  0  0  0  0  0  0  0  0  0
    0.5694   -0.7412    0.0000 H   0  0  0  0  0  0  0  0  0  0  0  0
   -1.1972   -1.5162    0.0000 H   0  0  0  0  0  0  0  0  0  0  0  0
   -0.2602    1.4997    0.0000 H   0  0  0  0  0  0  0  0  0  0  0  0
    0.2602   -1.4997    0.0000 H   0  0  0  0  0  0  0  0  0  0  0  0
  1 11  1  0  0  0  0
  2  1  1  0  0  0  0
  2  3  1  0  0  0  0
  2  8  1  0  0  0  0
  2 12  1  6  0  0  0
  3  4  1  0  0  0  0
  3  5  1  0  0  0  0
  3 13  1  1  0  0  0
  4 14  1  0  0  0  0
  5  6  2  0  0  0  0
  5  7  1  0  0  0  0
  7 15  1  0  0  0  0
  8  9  2  0  0  0  0
  8 10  1  0  0  0  0
 10 16  1  0  0  0  0
M  END
>  <DRUGBANK_ID>
DB14756

>  <COMMON_NAME>
meso-Tartaric acid

>  <CAS_NUMBER>
147-73-9

>  <UNII>
JQO211TF1A

>  <SYNONYMS>
(2R,3S)-2,3-dihydroxysuccinic acid; (2R,3S)-tartaric acid; (R,S)-Tartaric acid; Erythraric acid; i-Tartaric acid; m-tartaric acid; mesotartaric acid; Mesoweins√§ure

$$$$
