
 OpenBabel10282417072D

 59 64  0  0  0  0  0  0  0  0999 V2000
    2.0466   -1.2228    0.0000 C   0  0  0  0  0  0  0  0  0  0  0  0
    4.3868    1.0276    0.0000 C   0  0  0  0  0  0  0  0  0  0  0  0
    0.8799    1.1165    0.0000 C   0  0  0  0  0  0  0  0  0  0  0  0
    0.5769    1.8564    0.0000 C   0  0  0  0  0  0  0  0  0  0  0  0
    4.6979    1.7920    0.0000 C   0  0  0  0  0  0  0  0  0  0  0  0
    1.3281    0.8602    0.0000 C   0  0  0  0  0  0  0  0  0  0  0  0
    1.1841   -0.0271    0.0000 C   0  0  0  0  0  0  0  0  0  0  0  0
    4.1246    6.0423    0.0000 C   0  0  0  0  0  0  0  0  0  0  0  0
    2.9907    5.1736    0.0000 C   0  0  0  0  0  0  0  0  0  0  0  0
    4.3099    4.6260    0.0000 C   0  0  0  0  0  0  0  0  0  0  0  0
    3.6231    6.6969    0.0000 C   0  0  0  0  0  0  0  0  0  0  0  0
    2.4892    5.8284    0.0000 C   0  0  0  0  0  0  0  0  0  0  0  0
    3.9937    3.8644    0.0000 C   0  0  0  0  0  0  0  0  0  0  0  0
    3.2627    0.1912    0.0000 C   0  0  0  0  0  0  0  0  0  0  0  0
    3.5617    0.9405    0.0000 C   0  0  0  0  0  0  0  0  0  0  0  0
    1.8504    0.9670    0.0000 C   0  0  1  0  0  0  0  0  0  0  0  0
    2.4480    0.1773    0.0000 C   0  0  2  0  0  0  0  0  0  0  0  0
    1.1358    2.4576    0.0000 C   0  0  1  0  0  0  0  0  0  0  0  0
    4.1790    2.4480    0.0000 C   0  0  0  0  0  0  0  0  0  0  0  0
    3.0422    1.5867    0.0000 C   0  0  0  0  0  0  0  0  0  0  0  0
    3.3321    2.3506    0.0000 C   0  0  0  0  0  0  0  0  0  0  0  0
    1.9574    2.2939    0.0000 C   0  0  1  0  0  0  0  0  0  0  0  0
    2.1644    1.4542    0.0000 C   0  0  2  0  0  0  0  0  0  0  0  0
    1.9072   -0.4099    0.0000 N   0  0  0  0  0  0  0  0  0  0  0  0
    3.8084    5.2807    0.0000 N   0  0  0  0  0  0  0  0  0  0  0  0
    0.8822    3.2423    0.0000 O   0  0  0  0  0  0  0  0  0  0  0  0
    2.8054    6.5900    0.0000 O   0  0  0  0  0  0  0  0  0  0  0  0
    4.4952    3.2097    0.0000 O   0  0  0  0  0  0  0  0  0  0  0  0
    2.6210    2.7949    0.0000 O   0  0  0  0  0  0  0  0  0  0  0  0
    1.4279    0.2588    0.0000 H   0  0  0  0  0  0  0  0  0  0  0  0
    2.7857   -0.5751    0.0000 H   0  0  0  0  0  0  0  0  0  0  0  0
    1.7734    3.0978    0.0000 H   0  0  0  0  0  0  0  0  0  0  0  0
    1.2237   -1.9067    0.0000 H   0  0  0  0  0  0  0  0  0  0  0  0
    3.0503   -1.5935    0.0000 H   0  0  0  0  0  0  0  0  0  0  0  0
    2.2274   -2.2774    0.0000 H   0  0  0  0  0  0  0  0  0  0  0  0
    5.0070    0.2028    0.0000 H   0  0  0  0  0  0  0  0  0  0  0  0
    0.2411    0.3060    0.0000 H   0  0  0  0  0  0  0  0  0  0  0  0
   -0.4384    2.0413    0.0000 H   0  0  0  0  0  0  0  0  0  0  0  0
    5.7196    1.9374    0.0000 H   0  0  0  0  0  0  0  0  0  0  0  0
    0.4199    1.4259    0.0000 H   0  0  0  0  0  0  0  0  0  0  0  0
    1.2957    1.9297    0.0000 H   0  0  0  0  0  0  0  0  0  0  0  0
    0.2260   -0.5036    0.0000 H   0  0  0  0  0  0  0  0  0  0  0  0
    1.1705   -1.0970    0.0000 H   0  0  0  0  0  0  0  0  0  0  0  0
    5.1856    6.1811    0.0000 H   0  0  0  0  0  0  0  0  0  0  0  0
    4.7753    5.1929    0.0000 H   0  0  0  0  0  0  0  0  0  0  0  0
    2.5805    4.1854    0.0000 H   0  0  0  0  0  0  0  0  0  0  0  0
    3.6415    4.3242    0.0000 H   0  0  0  0  0  0  0  0  0  0  0  0
    5.3709    4.7648    0.0000 H   0  0  0  0  0  0  0  0  0  0  0  0
    4.7202    5.6142    0.0000 H   0  0  0  0  0  0  0  0  0  0  0  0
    4.0334    7.6851    0.0000 H   0  0  0  0  0  0  0  0  0  0  0  0
    2.9725    7.5464    0.0000 H   0  0  0  0  0  0  0  0  0  0  0  0
    1.4282    5.6897    0.0000 H   0  0  0  0  0  0  0  0  0  0  0  0
    1.8385    6.6778    0.0000 H   0  0  0  0  0  0  0  0  0  0  0  0
    2.9327    3.7256    0.0000 H   0  0  0  0  0  0  0  0  0  0  0  0
    3.5834    2.8762    0.0000 H   0  0  0  0  0  0  0  0  0  0  0  0
    3.8705   -0.6894    0.0000 H   0  0  0  0  0  0  0  0  0  0  0  0
    2.7735   -0.7604    0.0000 H   0  0  0  0  0  0  0  0  0  0  0  0
    0.0912    2.6892    0.0000 H   0  0  0  0  0  0  0  0  0  0  0  0
    1.5324    3.9621    0.0000 H   0  0  0  0  0  0  0  0  0  0  0  0
  1 33  1  0  0  0  0
  1 34  1  0  0  0  0
  1 35  1  0  0  0  0
  2 36  1  0  0  0  0
  3 37  1  0  0  0  0
  4  3  2  0  0  0  0
  4 38  1  0  0  0  0
  5  2  2  0  0  0  0
  5 39  1  0  0  0  0
  6 40  1  0  0  0  0
  6 41  1  0  0  0  0
  7  6  1  0  0  0  0
  7 42  1  0  0  0  0
  7 43  1  0  0  0  0
  8 44  1  0  0  0  0
  8 45  1  0  0  0  0
  9 46  1  0  0  0  0
  9 47  1  0  0  0  0
 10 48  1  0  0  0  0
 10 49  1  0  0  0  0
 11  8  1  0  0  0  0
 11 50  1  0  0  0  0
 11 51  1  0  0  0  0
 12  9  1  0  0  0  0
 12 52  1  0  0  0  0
 12 53  1  0  0  0  0
 13 10  1  0  0  0  0
 13 54  1  0  0  0  0
 13 55  1  0  0  0  0
 14 56  1  0  0  0  0
 14 57  1  0  0  0  0
 15  2  1  0  0  0  0
 15 14  1  0  0  0  0
 16  3  1  0  0  0  0
 16 30  1  1  0  0  0
 17 14  1  0  0  0  0
 17 16  1  0  0  0  0
 17 31  1  6  0  0  0
 18  4  1  0  0  0  0
 18 26  1  0  0  0  0
 18 58  1  1  0  0  0
 19  5  1  0  0  0  0
 20 15  2  0  0  0  0
 21 19  2  0  0  0  0
 21 20  1  0  0  0  0
 22 18  1  0  0  0  0
 22 32  1  1  0  0  0
 23  6  1  0  0  0  0
 23 16  1  0  0  0  0
 23 20  1  1  0  0  0
 23 22  1  0  0  0  0
 24  1  1  0  0  0  0
 24  7  1  0  0  0  0
 24 17  1  0  0  0  0
 25  8  1  0  0  0  0
 25  9  1  0  0  0  0
 25 10  1  0  0  0  0
 26 59  1  0  0  0  0
 27 11  1  0  0  0  0
 27 12  1  0  0  0  0
 28 13  1  0  0  0  0
 28 19  1  0  0  0  0
 29 21  1  0  0  0  0
 29 22  1  0  0  0  0
M  END
>  <DRUGBANK_ID>
DB09209

>  <COMMON_NAME>
Pholcodine

>  <CAS_NUMBER>
509-67-1

>  <UNII>
LPP64AWZ7L

>  <SYNONYMS>
folcodina; Pholcodine

$$$$
