
 OpenBabel10282417072D

 53 53  0  0  0  0  0  0  0  0999 V2000
    0.7137    1.0284    0.0000 C   0  0  0  0  0  0  0  0  0  0  0  0
    1.4296    1.4421    0.0000 N   0  0  0  0  0  0  0  0  0  0  0  0
   -0.0008    1.4440    0.0000 O   0  0  0  0  0  0  0  0  0  0  0  0
    2.1399    1.0284    0.0000 C   0  0  0  0  0  0  0  0  0  0  0  0
    2.8490    1.4430    0.0000 C   0  0  3  0  0  0  0  0  0  0  0  0
    3.5623    1.0284    0.0000 C   0  0  0  0  0  0  0  0  0  0  0  0
    4.2756    1.4430    0.0000 O   0  0  0  0  0  0  0  0  0  0  0  0
    2.8490    2.2683    0.0000 O   0  0  0  0  0  0  0  0  0  0  0  0
    0.7131    0.2073    0.0000 C   0  0  0  0  0  0  0  0  0  0  0  0
    1.4307   -0.2032    0.0000 C   0  0  0  0  0  0  0  0  0  0  0  0
    1.4307   -1.0285    0.0000 C   0  0  0  0  0  0  0  0  0  0  0  0
    0.7137   -1.4431    0.0000 C   0  0  0  0  0  0  0  0  0  0  0  0
    0.0009   -1.0285    0.0000 C   0  0  0  0  0  0  0  0  0  0  0  0
    0.0009   -0.2032    0.0000 C   0  0  0  0  0  0  0  0  0  0  0  0
    0.7127   -2.2684    0.0000 I   0  0  0  0  0  0  0  0  0  0  0  0
   -0.7146    0.2067    0.0000 I   0  0  0  0  0  0  0  0  0  0  0  0
    2.1458    0.2076    0.0000 I   0  0  0  0  0  0  0  0  0  0  0  0
   -0.7146   -1.4426    0.0000 C   0  0  0  0  0  0  0  0  0  0  0  0
   -1.4266   -1.0244    0.0000 N   0  0  0  0  0  0  0  0  0  0  0  0
   -2.1398   -1.4390    0.0000 C   0  0  0  0  0  0  0  0  0  0  0  0
   -2.8490   -1.0244    0.0000 C   0  0  3  0  0  0  0  0  0  0  0  0
   -3.5623   -1.4390    0.0000 C   0  0  0  0  0  0  0  0  0  0  0  0
   -4.2756   -1.0244    0.0000 O   0  0  0  0  0  0  0  0  0  0  0  0
   -0.7173   -2.2679    0.0000 O   0  0  0  0  0  0  0  0  0  0  0  0
   -2.8490   -0.1991    0.0000 O   0  0  0  0  0  0  0  0  0  0  0  0
    2.1440   -1.4431    0.0000 N   0  0  0  0  0  0  0  0  0  0  0  0
    2.1383   -2.2625    0.0000 C   0  0  0  0  0  0  0  0  0  0  0  0
    2.8555   -1.0331    0.0000 C   0  0  0  0  0  0  0  0  0  0  0  0
    2.8541   -0.2084    0.0000 O   0  0  0  0  0  0  0  0  0  0  0  0
    3.5663   -1.4442    0.0000 C   0  0  0  0  0  0  0  0  0  0  0  0
    4.2654   -1.0412    0.0000 O   0  0  0  0  0  0  0  0  0  0  0  0
    1.4313    2.4266    0.0000 H   0  0  0  0  0  0  0  0  0  0  0  0
    2.1408   -0.0416    0.0000 H   0  0  0  0  0  0  0  0  0  0  0  0
    3.0682    0.4963    0.0000 H   0  0  0  0  0  0  0  0  0  0  0  0
    1.9209    1.9755    0.0000 H   0  0  0  0  0  0  0  0  0  0  0  0
    3.5623   -0.0416    0.0000 H   0  0  0  0  0  0  0  0  0  0  0  0
    2.6349    0.4948    0.0000 H   0  0  0  0  0  0  0  0  0  0  0  0
    5.1171    0.9604    0.0000 H   0  0  0  0  0  0  0  0  0  0  0  0
    3.6890    2.7533    0.0000 H   0  0  0  0  0  0  0  0  0  0  0  0
   -1.4244   -0.0399    0.0000 H   0  0  0  0  0  0  0  0  0  0  0  0
   -2.1411   -2.5090    0.0000 H   0  0  0  0  0  0  0  0  0  0  0  0
   -3.0682   -1.9709    0.0000 H   0  0  0  0  0  0  0  0  0  0  0  0
   -1.9209   -0.4919    0.0000 H   0  0  0  0  0  0  0  0  0  0  0  0
   -3.5623   -2.5090    0.0000 H   0  0  0  0  0  0  0  0  0  0  0  0
   -4.4897   -1.9726    0.0000 H   0  0  0  0  0  0  0  0  0  0  0  0
   -4.2728   -0.0544    0.0000 H   0  0  0  0  0  0  0  0  0  0  0  0
   -2.0090    0.2859    0.0000 H   0  0  0  0  0  0  0  0  0  0  0  0
    1.2080   -2.7910    0.0000 H   0  0  0  0  0  0  0  0  0  0  0  0
    3.0612   -2.8039    0.0000 H   0  0  0  0  0  0  0  0  0  0  0  0
    2.1309   -3.3325    0.0000 H   0  0  0  0  0  0  0  0  0  0  0  0
    3.5655   -2.5142    0.0000 H   0  0  0  0  0  0  0  0  0  0  0  0
    4.4926   -1.9798    0.0000 H   0  0  0  0  0  0  0  0  0  0  0  0
    5.1051   -1.5268    0.0000 H   0  0  0  0  0  0  0  0  0  0  0  0
  1  2  1  0  0  0  0
  1  3  2  0  0  0  0
  2  4  1  0  0  0  0
  2 32  1  0  0  0  0
  4  5  1  0  0  0  0
  4 33  1  0  0  0  0
  4 34  1  0  0  0  0
  5  8  1  0  0  0  0
  5  6  1  0  0  0  0
  5 35  1  0  0  0  0
  6  7  1  0  0  0  0
  6 36  1  0  0  0  0
  6 37  1  0  0  0  0
  7 38  1  0  0  0  0
  8 39  1  0  0  0  0
  9  1  1  0  0  0  0
  9 10  1  0  0  0  0
 10 17  1  0  0  0  0
 10 11  2  0  0  0  0
 11 12  1  0  0  0  0
 11 26  1  0  0  0  0
 12 13  2  0  0  0  0
 12 15  1  0  0  0  0
 13 18  1  0  0  0  0
 13 14  1  0  0  0  0
 14  9  2  0  0  0  0
 14 16  1  0  0  0  0
 18 19  1  0  0  0  0
 18 24  2  0  0  0  0
 19 20  1  0  0  0  0
 19 40  1  0  0  0  0
 20 21  1  0  0  0  0
 20 41  1  0  0  0  0
 20 42  1  0  0  0  0
 21 25  1  0  0  0  0
 21 22  1  0  0  0  0
 21 43  1  0  0  0  0
 22 23  1  0  0  0  0
 22 44  1  0  0  0  0
 22 45  1  0  0  0  0
 23 46  1  0  0  0  0
 25 47  1  0  0  0  0
 26 27  1  0  0  0  0
 26 28  1  0  0  0  0
 27 48  1  0  0  0  0
 27 49  1  0  0  0  0
 27 50  1  0  0  0  0
 28 29  2  0  0  0  0
 28 30  1  0  0  0  0
 30 31  1  0  0  0  0
 30 51  1  0  0  0  0
 30 52  1  0  0  0  0
 31 53  1  0  0  0  0
M  END
>  <DRUGBANK_ID>
DB11705

>  <COMMON_NAME>
Iomeprol

>  <CAS_NUMBER>
78649-41-9

>  <UNII>
17E17JBP8L

>  <SYNONYMS>
Iomeprol; Iomeprolum

$$$$
