ILC
 OpenBabel10282417072D

 40 42  0  0  0  0  0  0  0  0999 V2000
    0.7968    3.2287    0.0000 C   0  0  0  0  0  0  0  0  0  0  0  0
    1.5113    2.8162    0.0000 C   0  0  0  0  0  0  0  0  0  0  0  0
    1.5113    1.9912    0.0000 C   0  0  0  0  0  0  0  0  0  0  0  0
    0.7968    1.5787    0.0000 C   0  0  0  0  0  0  0  0  0  0  0  0
    0.7968    0.7537    0.0000 C   0  0  0  0  0  0  0  0  0  0  0  0
    0.0823    1.9912    0.0000 C   0  0  0  0  0  0  0  0  0  0  0  0
    0.0823    2.8162    0.0000 C   0  0  0  0  0  0  0  0  0  0  0  0
    1.5113    0.3412    0.0000 C   0  0  0  0  0  0  0  0  0  0  0  0
    1.5113   -0.4838    0.0000 C   0  0  0  0  0  0  0  0  0  0  0  0
    0.7968   -0.8963    0.0000 C   0  0  0  0  0  0  0  0  0  0  0  0
    0.0823    0.3412    0.0000 C   0  0  0  0  0  0  0  0  0  0  0  0
    0.0823   -2.1338    0.0000 C   0  0  0  0  0  0  0  0  0  0  0  0
    0.0823   -2.9588    0.0000 C   0  0  0  0  0  0  0  0  0  0  0  0
    0.7498   -3.4437    0.0000 C   0  0  0  0  0  0  0  0  0  0  0  0
   -0.5851   -3.4437    0.0000 C   0  0  0  0  0  0  0  0  0  0  0  0
    2.2257    3.2287    0.0000 O   0  0  0  0  0  0  0  0  0  0  0  0
    2.2257    4.0537    0.0000 C   0  0  0  0  0  0  0  0  0  0  0  0
    0.7968   -1.7213    0.0000 N   0  0  0  0  0  0  0  0  0  0  0  0
    0.0823   -0.4838    0.0000 C   0  0  0  0  0  0  0  0  0  0  0  0
   -0.6321   -0.8963    0.0000 F   0  0  0  0  0  0  0  0  0  0  0  0
   -0.6321   -1.7213    0.0000 O   0  0  0  0  0  0  0  0  0  0  0  0
    0.4948   -4.2283    0.0000 C   0  0  0  0  0  0  0  0  0  0  0  0
   -0.3302   -4.2283    0.0000 S   0  0  0  0  0  0  0  0  0  0  0  0
   -1.3697   -3.1888    0.0000 C   0  0  0  0  0  0  0  0  0  0  0  0
   -1.9828   -3.7408    0.0000 O   0  0  0  0  0  0  0  0  0  0  0  0
   -1.5413   -2.3818    0.0000 O   0  0  0  0  0  0  0  0  0  0  0  0
    0.7968    4.2607    0.0000 H   0  0  0  0  0  0  0  0  0  0  0  0
    2.4050    1.4752    0.0000 H   0  0  0  0  0  0  0  0  0  0  0  0
   -0.8114    1.4752    0.0000 H   0  0  0  0  0  0  0  0  0  0  0  0
   -0.8114    3.3322    0.0000 H   0  0  0  0  0  0  0  0  0  0  0  0
    2.4050    0.8572    0.0000 H   0  0  0  0  0  0  0  0  0  0  0  0
    2.4050   -0.9998    0.0000 H   0  0  0  0  0  0  0  0  0  0  0  0
   -0.8114    0.8572    0.0000 H   0  0  0  0  0  0  0  0  0  0  0  0
    1.7313   -3.1248    0.0000 H   0  0  0  0  0  0  0  0  0  0  0  0
    3.1523    4.5887    0.0000 H   0  0  0  0  0  0  0  0  0  0  0  0
    1.2991    4.5887    0.0000 H   0  0  0  0  0  0  0  0  0  0  0  0
    2.2257    5.1237    0.0000 H   0  0  0  0  0  0  0  0  0  0  0  0
    1.6494   -2.2136    0.0000 H   0  0  0  0  0  0  0  0  0  0  0  0
    1.1014   -5.0632    0.0000 H   0  0  0  0  0  0  0  0  0  0  0  0
   -0.8450   -1.7548    0.0000 H   0  0  0  0  0  0  0  0  0  0  0  0
  1  2  2  0  0  0  0
  1  7  1  0  0  0  0
  1 27  1  0  0  0  0
  2  3  1  0  0  0  0
  2 16  1  0  0  0  0
  3  4  2  0  0  0  0
  3 28  1  0  0  0  0
  4  5  1  0  0  0  0
  4  6  1  0  0  0  0
  5  8  2  0  0  0  0
  5 11  1  0  0  0  0
  6  7  2  0  0  0  0
  6 29  1  0  0  0  0
  7 30  1  0  0  0  0
  8  9  1  0  0  0  0
  8 31  1  0  0  0  0
  9 10  2  0  0  0  0
  9 32  1  0  0  0  0
 10 18  1  0  0  0  0
 10 19  1  0  0  0  0
 11 19  2  0  0  0  0
 11 33  1  0  0  0  0
 12 13  1  0  0  0  0
 12 18  1  0  0  0  0
 12 21  2  0  0  0  0
 13 14  1  0  0  0  0
 13 15  2  0  0  0  0
 14 22  2  0  0  0  0
 14 34  1  0  0  0  0
 15 23  1  0  0  0  0
 15 24  1  0  0  0  0
 16 17  1  0  0  0  0
 17 35  1  0  0  0  0
 17 36  1  0  0  0  0
 17 37  1  0  0  0  0
 18 38  1  0  0  0  0
 19 20  1  0  0  0  0
 22 23  1  0  0  0  0
 22 39  1  0  0  0  0
 24 25  2  0  0  0  0
 24 26  1  0  0  0  0
 26 40  1  0  0  0  0
M  END
>  <DRUGBANK_ID>
DB07976

>  <COMMON_NAME>
3-{[(3-FLUORO-3'-METHOXYBIPHENYL-4-YL)AMINO]CARBONYL}THIOPHENE-2-CARBOXYLIC ACID

$$$$
