
 OpenBabel10282417072D

293298  0  0  1  0  0  0  0  0999 V2000
    0.6937   -1.6851    0.0000 C   0  0  0  0  0  0  0  0  0  0  0  0
    1.4075   -2.0816    0.0000 C   0  0  2  0  0  0  0  0  0  0  0  0
    0.6937   -0.8525    0.0000 O   0  0  0  0  0  0  0  0  0  0  0  0
    2.1211   -1.6851    0.0000 C   0  0  0  0  0  0  0  0  0  0  0  0
    1.4075   -2.9142    0.0000 N   0  0  0  0  0  0  0  0  0  0  0  0
    2.1211   -0.8525    0.0000 C   0  0  0  0  0  0  0  0  0  0  0  0
    2.8349   -0.4558    0.0000 C   0  0  0  0  0  0  0  0  0  0  0  0
    1.4075   -0.4558    0.0000 C   0  0  0  0  0  0  0  0  0  0  0  0
   -0.0198   -2.0816    0.0000 O   0  0  0  0  0  0  0  0  0  0  0  0
    0.6937   -3.3305    0.0000 C   0  0  0  0  0  0  0  0  0  0  0  0
   -0.0198   -2.9142    0.0000 O   0  0  0  0  0  0  0  0  0  0  0  0
    0.6937   -4.1432    0.0000 C   0  0  2  0  0  0  0  0  0  0  0  0
   -0.0198   -4.5596    0.0000 C   0  0  0  0  0  0  0  0  0  0  0  0
    1.4075   -4.5596    0.0000 N   0  0  0  0  0  0  0  0  0  0  0  0
   -0.7334   -4.1432    0.0000 C   0  0  0  0  0  0  0  0  0  0  0  0
   -1.4472   -4.5596    0.0000 C   0  0  0  0  0  0  0  0  0  0  0  0
   -0.7334   -3.3305    0.0000 C   0  0  0  0  0  0  0  0  0  0  0  0
   -1.4472   -2.9142    0.0000 C   0  0  0  0  0  0  0  0  0  0  0  0
   -2.1410   -3.3305    0.0000 C   0  0  0  0  0  0  0  0  0  0  0  0
   -2.1410   -4.1432    0.0000 C   0  0  0  0  0  0  0  0  0  0  0  0
   -2.8547   -2.9142    0.0000 O   0  0  0  0  0  0  0  0  0  0  0  0
    3.5485   -6.6015    0.0000 C   0  0  0  0  0  0  0  0  0  0  0  0
    2.1211   -4.1432    0.0000 C   0  0  0  0  0  0  0  0  0  0  0  0
    2.8349   -7.0178    0.0000 O   0  0  0  0  0  0  0  0  0  0  0  0
    3.5485   -5.7886    0.0000 C   0  0  0  0  0  0  0  0  0  0  0  0
    2.1211   -3.3305    0.0000 O   0  0  0  0  0  0  0  0  0  0  0  0
    2.8349   -5.3724    0.0000 C   0  0  0  0  0  0  0  0  0  0  0  0
    2.8349   -4.5596    0.0000 C   0  0  2  0  0  0  0  0  0  0  0  0
    4.2424   -7.0178    0.0000 O   0  0  0  0  0  0  0  0  0  0  0  0
    3.5485   -4.1432    0.0000 N   0  0  0  0  0  0  0  0  0  0  0  0
    7.0970   -4.5596    0.0000 C   0  0  0  0  0  0  0  0  0  0  0  0
    4.2424   -4.5596    0.0000 C   0  0  0  0  0  0  0  0  0  0  0  0
    7.0970   -5.3724    0.0000 O   0  0  0  0  0  0  0  0  0  0  0  0
    6.3834   -4.1432    0.0000 C   0  0  0  0  0  0  0  0  0  0  0  0
    4.2424   -5.3724    0.0000 O   0  0  0  0  0  0  0  0  0  0  0  0
    5.6697   -4.5596    0.0000 C   0  0  0  0  0  0  0  0  0  0  0  0
    4.9560   -4.1432    0.0000 C   0  0  2  0  0  0  0  0  0  0  0  0
    7.8107   -4.1432    0.0000 O   0  0  0  0  0  0  0  0  0  0  0  0
    4.9560   -3.3305    0.0000 N   0  0  0  0  0  0  0  0  0  0  0  0
    4.2424   -2.9142    0.0000 C   0  0  0  0  0  0  0  0  0  0  0  0
    3.5485   -3.3305    0.0000 O   0  0  0  0  0  0  0  0  0  0  0  0
    4.2424   -2.0816    0.0000 C   0  0  1  0  0  0  0  0  0  0  0  0
    4.9164   -1.6058    0.0000 N   0  0  0  0  0  0  0  0  0  0  0  0
    4.6587   -0.8326    0.0000 C   0  0  0  0  0  0  0  0  0  0  0  0
    3.8459   -0.8326    0.0000 C   0  0  0  0  0  0  0  0  0  0  0  0
    3.5882   -1.6058    0.0000 C   0  0  0  0  0  0  0  0  0  0  0  0
    5.6500   -2.0022    0.0000 C   0  0  0  0  0  0  0  0  0  0  0  0
    6.3635   -1.6058    0.0000 C   0  0  1  0  0  0  0  0  0  0  0  0
    5.6500   -2.8349    0.0000 O   0  0  0  0  0  0  0  0  0  0  0  0
    6.3635   -0.7732    0.0000 N   0  0  0  0  0  0  0  0  0  0  0  0
    7.0574   -2.0022    0.0000 C   0  0  2  0  0  0  0  0  0  0  0  0
    7.7710   -1.6058    0.0000 C   0  0  0  0  0  0  0  0  0  0  0  0
    7.0574   -2.8349    0.0000 C   0  0  0  0  0  0  0  0  0  0  0  0
    8.4849   -2.0022    0.0000 C   0  0  0  0  0  0  0  0  0  0  0  0
    3.5089    0.8723    0.0000 C   0  0  0  0  0  0  0  0  0  0  0  0
    5.6500   -0.3568    0.0000 C   0  0  0  0  0  0  0  0  0  0  0  0
    3.5089    1.6851    0.0000 O   0  0  0  0  0  0  0  0  0  0  0  0
    4.2225    0.4559    0.0000 C   0  0  0  0  0  0  0  0  0  0  0  0
    4.9362   -0.7732    0.0000 O   0  0  0  0  0  0  0  0  0  0  0  0
    4.9362    0.8723    0.0000 C   0  0  0  0  0  0  0  0  0  0  0  0
    5.6500    0.4559    0.0000 C   0  0  2  0  0  0  0  0  0  0  0  0
    2.7951    0.4559    0.0000 O   0  0  0  0  0  0  0  0  0  0  0  0
    6.3635    0.8723    0.0000 N   0  0  0  0  0  0  0  0  0  0  0  0
    9.1985    1.6851    0.0000 C   0  0  0  0  0  0  0  0  0  0  0  0
    6.3635    1.6851    0.0000 C   0  0  0  0  0  0  0  0  0  0  0  0
    9.1985    0.8723    0.0000 O   0  0  0  0  0  0  0  0  0  0  0  0
    8.4849    2.1014    0.0000 C   0  0  0  0  0  0  0  0  0  0  0  0
    5.6500    2.1014    0.0000 O   0  0  0  0  0  0  0  0  0  0  0  0
    7.7710    1.6851    0.0000 C   0  0  0  0  0  0  0  0  0  0  0  0
    7.0574    2.1014    0.0000 C   0  0  2  0  0  0  0  0  0  0  0  0
    9.9121    2.1014    0.0000 O   0  0  0  0  0  0  0  0  0  0  0  0
    7.0574    2.9141    0.0000 N   0  0  0  0  0  0  0  0  0  0  0  0
    7.7710    3.3304    0.0000 C   0  0  0  0  0  0  0  0  0  0  0  0
    7.7710    4.1432    0.0000 C   0  0  2  0  0  0  0  0  0  0  0  0
    8.4849    2.9141    0.0000 O   0  0  0  0  0  0  0  0  0  0  0  0
    8.4849    4.5595    0.0000 C   0  0  0  0  0  0  0  0  0  0  0  0
    7.0574    4.5595    0.0000 N   0  0  0  0  0  0  0  0  0  0  0  0
    8.4849    5.3923    0.0000 C   0  0  0  0  0  0  0  0  0  0  0  0
    9.1985    5.7887    0.0000 C   0  0  0  0  0  0  0  0  0  0  0  0
    7.7710    5.7887    0.0000 C   0  0  0  0  0  0  0  0  0  0  0  0
    7.7710    6.6213    0.0000 C   0  0  0  0  0  0  0  0  0  0  0  0
    9.1985    6.6213    0.0000 C   0  0  0  0  0  0  0  0  0  0  0  0
    8.4849    7.0178    0.0000 C   0  0  0  0  0  0  0  0  0  0  0  0
    6.3635    6.6213    0.0000 O   0  0  0  0  0  0  0  0  0  0  0  0
    4.9362    4.1432    0.0000 N   0  0  0  0  0  0  0  0  0  0  0  0
    7.0574    5.3923    0.0000 O   0  0  0  0  0  0  0  0  0  0  0  0
    6.3635    3.3304    0.0000 O   0  0  0  0  0  0  0  0  0  0  0  0
    5.6500    4.5595    0.0000 C   0  0  2  0  0  0  0  0  0  0  0  0
    6.3635    5.7887    0.0000 C   0  0  0  0  0  0  0  0  0  0  0  0
    6.3635    4.1432    0.0000 C   0  0  0  0  0  0  0  0  0  0  0  0
    5.6500    5.3923    0.0000 C   0  0  0  0  0  0  0  0  0  0  0  0
    4.2225    4.5595    0.0000 C   0  0  0  0  0  0  0  0  0  0  0  0
    4.2225    5.3923    0.0000 O   0  0  0  0  0  0  0  0  0  0  0  0
    2.7951    4.5595    0.0000 N   0  0  0  0  0  0  0  0  0  0  0  0
    3.5089    4.1432    0.0000 C   0  0  0  0  0  0  0  0  0  0  0  0
    0.6739    4.1432    0.0000 C   0  0  0  0  0  0  0  0  0  0  0  0
    2.0815    4.1432    0.0000 C   0  0  0  0  0  0  0  0  0  0  0  0
    0.6739    3.3304    0.0000 C   0  0  0  0  0  0  0  0  0  0  0  0
    1.3678    4.5595    0.0000 C   0  0  1  0  0  0  0  0  0  0  0  0
    2.0815    3.3304    0.0000 O   0  0  0  0  0  0  0  0  0  0  0  0
    1.3678    2.9141    0.0000 O   0  0  0  0  0  0  0  0  0  0  0  0
   -0.0397    2.9141    0.0000 N   0  0  0  0  0  0  0  0  0  0  0  0
    1.3678    5.3923    0.0000 N   0  0  0  0  0  0  0  0  0  0  0  0
    0.6739    5.7887    0.0000 C   0  0  0  0  0  0  0  0  0  0  0  0
    0.6739    6.6213    0.0000 O   0  0  0  0  0  0  0  0  0  0  0  0
   -0.7532    5.7887    0.0000 N   0  0  0  0  0  0  0  0  0  0  0  0
   -0.0397    5.3923    0.0000 C   0  0  0  0  0  0  0  0  0  0  0  0
   -1.4669    5.3923    0.0000 C   0  0  0  0  0  0  0  0  0  0  0  0
   -1.4669    4.5595    0.0000 O   0  0  0  0  0  0  0  0  0  0  0  0
   -2.8943    5.3923    0.0000 N   0  0  0  0  0  0  0  0  0  0  0  0
   -2.1807    5.7887    0.0000 C   0  0  0  0  0  0  0  0  0  0  0  0
   -2.8943    4.5595    0.0000 C   0  0  0  0  0  0  0  0  0  0  0  0
   -2.1807    4.1432    0.0000 O   0  0  0  0  0  0  0  0  0  0  0  0
   -3.6080    3.3304    0.0000 N   0  0  0  0  0  0  0  0  0  0  0  0
   -3.6080    4.1432    0.0000 C   0  0  0  0  0  0  0  0  0  0  0  0
   -4.3217    2.9141    0.0000 C   0  0  0  0  0  0  0  0  0  0  0  0
   -5.0155    3.3304    0.0000 O   0  0  0  0  0  0  0  0  0  0  0  0
   -5.0155    1.6851    0.0000 N   0  0  0  0  0  0  0  0  0  0  0  0
   -4.3217    2.1014    0.0000 C   0  0  0  0  0  0  0  0  0  0  0  0
   -5.0155    0.8723    0.0000 C   0  0  0  0  0  0  0  0  0  0  0  0
   -4.3217    0.4559    0.0000 O   0  0  0  0  0  0  0  0  0  0  0  0
   -5.7292    0.4559    0.0000 C   0  0  1  0  0  0  0  0  0  0  0  0
   -5.7292   -0.3766    0.0000 N   0  0  0  0  0  0  0  0  0  0  0  0
   -6.5222   -0.6145    0.0000 C   0  0  0  0  0  0  0  0  0  0  0  0
   -6.9979    0.0397    0.0000 C   0  0  0  0  0  0  0  0  0  0  0  0
   -6.5222    0.7136    0.0000 C   0  0  0  0  0  0  0  0  0  0  0  0
   -2.1410   -0.7334    0.0000 C   0  0  0  0  0  0  0  0  0  0  0  0
   -4.9759   -0.7334    0.0000 C   0  0  0  0  0  0  0  0  0  0  0  0
   -1.4273   -0.3172    0.0000 N   0  0  0  0  0  0  0  0  0  0  0  0
   -4.2821   -0.3172    0.0000 O   0  0  0  0  0  0  0  0  0  0  0  0
   -2.1410   -1.5463    0.0000 N   0  0  0  0  0  0  0  0  0  0  0  0
   -4.9759   -1.5463    0.0000 C   0  0  1  0  0  0  0  0  0  0  0  0
   -2.8547   -0.3172    0.0000 N   0  0  0  0  0  0  0  0  0  0  0  0
   -5.6896   -1.9626    0.0000 N   0  0  0  0  0  0  0  0  0  0  0  0
   -2.8547   -1.9626    0.0000 C   0  0  0  0  0  0  0  0  0  0  0  0
   -4.2821   -1.9626    0.0000 C   0  0  0  0  0  0  0  0  0  0  0  0
   -3.5683   -1.5463    0.0000 C   0  0  0  0  0  0  0  0  0  0  0  0
   -5.6896   -2.7951    0.0000 C   0  0  0  0  0  0  0  0  0  0  0  0
   -4.9759   -3.1917    0.0000 O   0  0  0  0  0  0  0  0  0  0  0  0
   -6.4033   -3.1917    0.0000 C   0  0  1  0  0  0  0  0  0  0  0  0
   -7.0574   -2.7159    0.0000 N   0  0  0  0  0  0  0  0  0  0  0  0
   -7.7315   -3.1917    0.0000 C   0  0  0  0  0  0  0  0  0  0  0  0
   -7.4738   -3.9648    0.0000 C   0  0  0  0  0  0  0  0  0  0  0  0
   -6.6610   -3.9648    0.0000 C   0  0  0  0  0  0  0  0  0  0  0  0
   -7.0574   -1.8833    0.0000 C   0  0  0  0  0  0  0  0  0  0  0  0
   -7.7711   -1.4669    0.0000 C   0  0  1  0  0  0  0  0  0  0  0  0
   -6.3636   -1.4669    0.0000 O   0  0  0  0  0  0  0  0  0  0  0  0
   -7.7711   -0.6542    0.0000 C   0  0  0  0  0  0  0  0  0  0  0  0
   -8.4848   -1.8833    0.0000 N   0  0  0  0  0  0  0  0  0  0  0  0
   -8.4848   -0.2378    0.0000 C   0  0  0  0  0  0  0  0  0  0  0  0
   -8.4848    0.5749    0.0000 C   0  0  0  0  0  0  0  0  0  0  0  0
   -9.1986   -0.6542    0.0000 C   0  0  0  0  0  0  0  0  0  0  0  0
   -9.9121   -0.2378    0.0000 C   0  0  0  0  0  0  0  0  0  0  0  0
   -9.1986    0.9911    0.0000 C   0  0  0  0  0  0  0  0  0  0  0  0
   -9.9121    0.5749    0.0000 C   0  0  0  0  0  0  0  0  0  0  0  0
    0.4853   -2.6243    0.0000 H   0  0  0  0  0  0  0  0  0  0  0  0
    3.0433   -2.2277    0.0000 H   0  0  0  0  0  0  0  0  0  0  0  0
    3.0499   -1.1539    0.0000 H   0  0  0  0  0  0  0  0  0  0  0  0
    2.2612   -3.4046    0.0000 H   0  0  0  0  0  0  0  0  0  0  0  0
    2.1212    0.2175    0.0000 H   0  0  0  0  0  0  0  0  0  0  0  0
    3.7527   -1.0059    0.0000 H   0  0  0  0  0  0  0  0  0  0  0  0
    2.8524    0.6141    0.0000 H   0  0  0  0  0  0  0  0  0  0  0  0
    3.7702    0.0640    0.0000 H   0  0  0  0  0  0  0  0  0  0  0  0
    1.3901    0.6141    0.0000 H   0  0  0  0  0  0  0  0  0  0  0  0
    0.4897   -1.0058    0.0000 H   0  0  0  0  0  0  0  0  0  0  0  0
    0.4723    0.0641    0.0000 H   0  0  0  0  0  0  0  0  0  0  0  0
   -0.8235   -1.5999    0.0000 H   0  0  0  0  0  0  0  0  0  0  0  0
    1.6215   -3.6103    0.0000 H   0  0  0  0  0  0  0  0  0  0  0  0
   -0.0198   -5.6296    0.0000 H   0  0  0  0  0  0  0  0  0  0  0  0
   -0.9477   -5.0925    0.0000 H   0  0  0  0  0  0  0  0  0  0  0  0
    1.4076   -5.5441    0.0000 H   0  0  0  0  0  0  0  0  0  0  0  0
   -1.4536   -5.5916    0.0000 H   0  0  0  0  0  0  0  0  0  0  0  0
    0.1615   -2.8165    0.0000 H   0  0  0  0  0  0  0  0  0  0  0  0
   -1.4536   -1.8822    0.0000 H   0  0  0  0  0  0  0  0  0  0  0  0
   -3.0391   -4.6516    0.0000 H   0  0  0  0  0  0  0  0  0  0  0  0
   -2.8505   -1.9772    0.0000 H   0  0  0  0  0  0  0  0  0  0  0  0
    4.4763   -5.2556    0.0000 H   0  0  0  0  0  0  0  0  0  0  0  0
    3.5520   -4.7186    0.0000 H   0  0  0  0  0  0  0  0  0  0  0  0
    1.9071   -5.9054    0.0000 H   0  0  0  0  0  0  0  0  0  0  0  0
    1.9088   -4.8364    0.0000 H   0  0  0  0  0  0  0  0  0  0  0  0
    2.8348   -3.4896    0.0000 H   0  0  0  0  0  0  0  0  0  0  0  0
    4.2267   -7.9547    0.0000 H   0  0  0  0  0  0  0  0  0  0  0  0
    3.5545   -3.1587    0.0000 H   0  0  0  0  0  0  0  0  0  0  0  0
    6.3834   -3.0732    0.0000 H   0  0  0  0  0  0  0  0  0  0  0  0
    5.4555   -3.6103    0.0000 H   0  0  0  0  0  0  0  0  0  0  0  0
    5.6697   -5.6296    0.0000 H   0  0  0  0  0  0  0  0  0  0  0  0
    4.7418   -5.0925    0.0000 H   0  0  0  0  0  0  0  0  0  0  0  0
    4.0281   -3.6103    0.0000 H   0  0  0  0  0  0  0  0  0  0  0  0
    8.6243   -4.6080    0.0000 H   0  0  0  0  0  0  0  0  0  0  0  0
    5.8097   -2.8402    0.0000 H   0  0  0  0  0  0  0  0  0  0  0  0
    5.1924   -2.5739    0.0000 H   0  0  0  0  0  0  0  0  0  0  0  0
    5.2844    0.0354    0.0000 H   0  0  0  0  0  0  0  0  0  0  0  0
    4.1711    0.1199    0.0000 H   0  0  0  0  0  0  0  0  0  0  0  0
    3.2202    0.0354    0.0000 H   0  0  0  0  0  0  0  0  0  0  0  0
    2.7881   -0.9940    0.0000 H   0  0  0  0  0  0  0  0  0  0  0  0
    2.5692   -1.9324    0.0000 H   0  0  0  0  0  0  0  0  0  0  0  0
    2.8360   -0.8448    0.0000 H   0  0  0  0  0  0  0  0  0  0  0  0
    5.4413   -1.0632    0.0000 H   0  0  0  0  0  0  0  0  0  0  0  0
    7.2173   -0.2829    0.0000 H   0  0  0  0  0  0  0  0  0  0  0  0
    6.1320   -2.5393    0.0000 H   0  0  0  0  0  0  0  0  0  0  0  0
    7.7709   -0.5358    0.0000 H   0  0  0  0  0  0  0  0  0  0  0  0
    8.6931   -1.0630    0.0000 H   0  0  0  0  0  0  0  0  0  0  0  0
    6.1308   -3.3699    0.0000 H   0  0  0  0  0  0  0  0  0  0  0  0
    7.9840   -3.3699    0.0000 H   0  0  0  0  0  0  0  0  0  0  0  0
    7.0574   -3.9049    0.0000 H   0  0  0  0  0  0  0  0  0  0  0  0
    8.5028   -3.0721    0.0000 H   0  0  0  0  0  0  0  0  0  0  0  0
    9.4025   -1.4518    0.0000 H   0  0  0  0  0  0  0  0  0  0  0  0
    9.4204   -2.5216    0.0000 H   0  0  0  0  0  0  0  0  0  0  0  0
    4.2225   -0.6141    0.0000 H   0  0  0  0  0  0  0  0  0  0  0  0
    5.1504   -0.0770    0.0000 H   0  0  0  0  0  0  0  0  0  0  0  0
    4.9362    1.9423    0.0000 H   0  0  0  0  0  0  0  0  0  0  0  0
    5.8640    1.4052    0.0000 H   0  0  0  0  0  0  0  0  0  0  0  0
    6.5779   -0.0769    0.0000 H   0  0  0  0  0  0  0  0  0  0  0  0
    1.9815    0.9207    0.0000 H   0  0  0  0  0  0  0  0  0  0  0  0
    7.2173    0.3820    0.0000 H   0  0  0  0  0  0  0  0  0  0  0  0
    8.4850    3.1714    0.0000 H   0  0  0  0  0  0  0  0  0  0  0  0
    7.5571    2.6344    0.0000 H   0  0  0  0  0  0  0  0  0  0  0  0
    7.7709    0.6151    0.0000 H   0  0  0  0  0  0  0  0  0  0  0  0
    6.8431    1.1522    0.0000 H   0  0  0  0  0  0  0  0  0  0  0  0
    6.1263    2.6286    0.0000 H   0  0  0  0  0  0  0  0  0  0  0  0
   10.7257    1.6366    0.0000 H   0  0  0  0  0  0  0  0  0  0  0  0
    6.2037    3.4044    0.0000 H   0  0  0  0  0  0  0  0  0  0  0  0
    6.8431    3.6103    0.0000 H   0  0  0  0  0  0  0  0  0  0  0  0
    9.4127    4.0265    0.0000 H   0  0  0  0  0  0  0  0  0  0  0  0
    9.4110    5.0955    0.0000 H   0  0  0  0  0  0  0  0  0  0  0  0
    7.0514    5.5440    0.0000 H   0  0  0  0  0  0  0  0  0  0  0  0
   10.0879    5.2653    0.0000 H   0  0  0  0  0  0  0  0  0  0  0  0
    6.8816    5.2652    0.0000 H   0  0  0  0  0  0  0  0  0  0  0  0
    6.8816    7.1447    0.0000 H   0  0  0  0  0  0  0  0  0  0  0  0
   10.0880    7.1446    0.0000 H   0  0  0  0  0  0  0  0  0  0  0  0
    8.4850    8.0498    0.0000 H   0  0  0  0  0  0  0  0  0  0  0  0
    7.1750    7.0898    0.0000 H   0  0  0  0  0  0  0  0  0  0  0  0
    4.9362    3.1587    0.0000 H   0  0  0  0  0  0  0  0  0  0  0  0
    5.6499    3.4895    0.0000 H   0  0  0  0  0  0  0  0  0  0  0  0
    4.7278    5.9349    0.0000 H   0  0  0  0  0  0  0  0  0  0  0  0
    5.6632    6.4622    0.0000 H   0  0  0  0  0  0  0  0  0  0  0  0
    2.7950    5.5440    0.0000 H   0  0  0  0  0  0  0  0  0  0  0  0
    3.5090    3.0732    0.0000 H   0  0  0  0  0  0  0  0  0  0  0  0
    2.5811    3.6102    0.0000 H   0  0  0  0  0  0  0  0  0  0  0  0
   -0.2572    4.6704    0.0000 H   0  0  0  0  0  0  0  0  0  0  0  0
    0.6604    5.2131    0.0000 H   0  0  0  0  0  0  0  0  0  0  0  0
    0.4367    5.0867    0.0000 H   0  0  0  0  0  0  0  0  0  0  0  0
   -0.8945    3.4025    0.0000 H   0  0  0  0  0  0  0  0  0  0  0  0
   -0.0353    1.9296    0.0000 H   0  0  0  0  0  0  0  0  0  0  0  0
    2.2193    5.8865    0.0000 H   0  0  0  0  0  0  0  0  0  0  0  0
   -0.7531    6.7732    0.0000 H   0  0  0  0  0  0  0  0  0  0  0  0
   -0.0397    4.3223    0.0000 H   0  0  0  0  0  0  0  0  0  0  0  0
   -0.9619    4.8497    0.0000 H   0  0  0  0  0  0  0  0  0  0  0  0
   -3.7428    5.8916    0.0000 H   0  0  0  0  0  0  0  0  0  0  0  0
   -2.1808    6.8587    0.0000 H   0  0  0  0  0  0  0  0  0  0  0  0
   -3.1029    6.3313    0.0000 H   0  0  0  0  0  0  0  0  0  0  0  0
   -2.7543    2.8400    0.0000 H   0  0  0  0  0  0  0  0  0  0  0  0
   -4.5358    4.6761    0.0000 H   0  0  0  0  0  0  0  0  0  0  0  0
   -4.5341    3.6072    0.0000 H   0  0  0  0  0  0  0  0  0  0  0  0
   -5.8722    2.1702    0.0000 H   0  0  0  0  0  0  0  0  0  0  0  0
   -3.3906    1.5742    0.0000 H   0  0  0  0  0  0  0  0  0  0  0  0
   -4.3082    1.0315    0.0000 H   0  0  0  0  0  0  0  0  0  0  0  0
   -4.8013   -0.0770    0.0000 H   0  0  0  0  0  0  0  0  0  0  0  0
   -6.8642   -1.6284    0.0000 H   0  0  0  0  0  0  0  0  0  0  0  0
   -7.5799   -0.7762    0.0000 H   0  0  0  0  0  0  0  0  0  0  0  0
   -8.0679    0.0322    0.0000 H   0  0  0  0  0  0  0  0  0  0  0  0
   -7.4935    0.9880    0.0000 H   0  0  0  0  0  0  0  0  0  0  0  0
   -6.8598    1.7290    0.0000 H   0  0  0  0  0  0  0  0  0  0  0  0
   -7.5807    0.8702    0.0000 H   0  0  0  0  0  0  0  0  0  0  0  0
   -0.5726   -0.8057    0.0000 H   0  0  0  0  0  0  0  0  0  0  0  0
   -1.2873   -2.0367    0.0000 H   0  0  0  0  0  0  0  0  0  0  0  0
   -5.9037   -1.0134    0.0000 H   0  0  0  0  0  0  0  0  0  0  0  0
   -2.8504    0.6673    0.0000 H   0  0  0  0  0  0  0  0  0  0  0  0
   -3.7094   -0.8057    0.0000 H   0  0  0  0  0  0  0  0  0  0  0  0
   -6.5433   -1.4722    0.0000 H   0  0  0  0  0  0  0  0  0  0  0  0
   -2.8547   -3.0326    0.0000 H   0  0  0  0  0  0  0  0  0  0  0  0
   -3.7826   -2.4955    0.0000 H   0  0  0  0  0  0  0  0  0  0  0  0
   -4.2888   -3.0326    0.0000 H   0  0  0  0  0  0  0  0  0  0  0  0
   -3.3559   -2.4985    0.0000 H   0  0  0  0  0  0  0  0  0  0  0  0
   -3.5682   -0.4763    0.0000 H   0  0  0  0  0  0  0  0  0  0  0  0
   -4.4961   -1.0133    0.0000 H   0  0  0  0  0  0  0  0  0  0  0  0
   -6.3382   -2.1237    0.0000 H   0  0  0  0  0  0  0  0  0  0  0  0
   -8.7481   -2.8579    0.0000 H   0  0  0  0  0  0  0  0  0  0  0  0
   -8.4864   -3.9500    0.0000 H   0  0  0  0  0  0  0  0  0  0  0  0
   -8.0994   -4.8328    0.0000 H   0  0  0  0  0  0  0  0  0  0  0  0
   -6.9862   -4.9173    0.0000 H   0  0  0  0  0  0  0  0  0  0  0  0
   -6.0354   -4.8328    0.0000 H   0  0  0  0  0  0  0  0  0  0  0  0
   -7.1486   -4.9173    0.0000 H   0  0  0  0  0  0  0  0  0  0  0  0
   -7.7711   -2.5369    0.0000 H   0  0  0  0  0  0  0  0  0  0  0  0
   -6.8432   -0.1213    0.0000 H   0  0  0  0  0  0  0  0  0  0  0  0
   -7.7674    0.4158    0.0000 H   0  0  0  0  0  0  0  0  0  0  0  0
   -9.3705   -1.3773    0.0000 H   0  0  0  0  0  0  0  0  0  0  0  0
   -8.4802   -2.9033    0.0000 H   0  0  0  0  0  0  0  0  0  0  0  0
   -7.5900    1.0890    0.0000 H   0  0  0  0  0  0  0  0  0  0  0  0
   -9.1987   -1.6862    0.0000 H   0  0  0  0  0  0  0  0  0  0  0  0
  -10.8070   -0.7517    0.0000 H   0  0  0  0  0  0  0  0  0  0  0  0
   -9.1987    2.0231    0.0000 H   0  0  0  0  0  0  0  0  0  0  0  0
  -10.8070    1.0889    0.0000 H   0  0  0  0  0  0  0  0  0  0  0  0
  2  1  1  0  0  0  0
  2  5  1  0  0  0  0
  2156  1  1  0  0  0
  3  1  2  0  0  0  0
  4  2  1  0  0  0  0
  4157  1  0  0  0  0
  4158  1  0  0  0  0
  5159  1  0  0  0  0
  6  4  1  0  0  0  0
  6160  1  0  0  0  0
  7  6  1  0  0  0  0
  7161  1  0  0  0  0
  7162  1  0  0  0  0
  7163  1  0  0  0  0
  8  6  1  0  0  0  0
  8164  1  0  0  0  0
  8165  1  0  0  0  0
  8166  1  0  0  0  0
  9  1  1  0  0  0  0
  9167  1  0  0  0  0
 10  5  1  0  0  0  0
 11 10  2  0  0  0  0
 12 10  1  0  0  0  0
 12 14  1  0  0  0  0
 12168  1  6  0  0  0
 13 12  1  0  0  0  0
 13169  1  0  0  0  0
 13170  1  0  0  0  0
 14171  1  0  0  0  0
 15 13  1  0  0  0  0
 16 15  2  0  0  0  0
 16172  1  0  0  0  0
 17 15  1  0  0  0  0
 17173  1  0  0  0  0
 18 17  2  0  0  0  0
 18174  1  0  0  0  0
 19 18  1  0  0  0  0
 20 16  1  0  0  0  0
 20 19  2  0  0  0  0
 20175  1  0  0  0  0
 21 19  1  0  0  0  0
 21176  1  0  0  0  0
 23 14  1  0  0  0  0
 24 22  2  0  0  0  0
 25 22  1  0  0  0  0
 25177  1  0  0  0  0
 25178  1  0  0  0  0
 26 23  2  0  0  0  0
 27 25  1  0  0  0  0
 27179  1  0  0  0  0
 27180  1  0  0  0  0
 28 23  1  0  0  0  0
 28 27  1  0  0  0  0
 28 30  1  0  0  0  0
 28181  1  6  0  0  0
 29 22  1  0  0  0  0
 29182  1  0  0  0  0
 30183  1  0  0  0  0
 32 30  1  0  0  0  0
 33 31  2  0  0  0  0
 34 31  1  0  0  0  0
 34184  1  0  0  0  0
 34185  1  0  0  0  0
 35 32  2  0  0  0  0
 36 34  1  0  0  0  0
 36186  1  0  0  0  0
 36187  1  0  0  0  0
 37 32  1  0  0  0  0
 37 36  1  0  0  0  0
 37 39  1  0  0  0  0
 37188  1  6  0  0  0
 38 31  1  0  0  0  0
 38189  1  0  0  0  0
 39190  1  0  0  0  0
 40 39  1  0  0  0  0
 41 40  2  0  0  0  0
 42 40  1  0  0  0  0
 42 43  1  0  0  0  0
 42191  1  1  0  0  0
 44 43  1  0  0  0  0
 44192  1  0  0  0  0
 44193  1  0  0  0  0
 45 44  1  0  0  0  0
 45194  1  0  0  0  0
 45195  1  0  0  0  0
 46 42  1  0  0  0  0
 46 45  1  0  0  0  0
 46196  1  0  0  0  0
 46197  1  0  0  0  0
 47 43  1  0  0  0  0
 48 47  1  0  0  0  0
 48 50  1  0  0  0  0
 48198  1  6  0  0  0
 49 47  2  0  0  0  0
 50199  1  0  0  0  0
 51 48  1  0  0  0  0
 51 53  1  0  0  0  0
 51200  1  1  0  0  0
 52 51  1  0  0  0  0
 52201  1  0  0  0  0
 52202  1  0  0  0  0
 53203  1  0  0  0  0
 53204  1  0  0  0  0
 53205  1  0  0  0  0
 54 52  1  0  0  0  0
 54206  1  0  0  0  0
 54207  1  0  0  0  0
 54208  1  0  0  0  0
 56 50  1  0  0  0  0
 57 55  2  0  0  0  0
 58 55  1  0  0  0  0
 58209  1  0  0  0  0
 58210  1  0  0  0  0
 59 56  2  0  0  0  0
 60 58  1  0  0  0  0
 60211  1  0  0  0  0
 60212  1  0  0  0  0
 61 56  1  0  0  0  0
 61 60  1  0  0  0  0
 61 63  1  0  0  0  0
 61213  1  1  0  0  0
 62 55  1  0  0  0  0
 62214  1  0  0  0  0
 63215  1  0  0  0  0
 65 63  1  0  0  0  0
 66 64  2  0  0  0  0
 67 64  1  0  0  0  0
 67216  1  0  0  0  0
 67217  1  0  0  0  0
 68 65  2  0  0  0  0
 69 67  1  0  0  0  0
 69218  1  0  0  0  0
 69219  1  0  0  0  0
 70 65  1  0  0  0  0
 70 69  1  0  0  0  0
 70 72  1  0  0  0  0
 70220  1  6  0  0  0
 71 64  1  0  0  0  0
 71221  1  0  0  0  0
 72222  1  0  0  0  0
 73 72  1  0  0  0  0
 74 73  1  0  0  0  0
 74 77  1  0  0  0  0
 74223  1  6  0  0  0
 75 73  2  0  0  0  0
 76 74  1  0  0  0  0
 76224  1  0  0  0  0
 76225  1  0  0  0  0
 77226  1  0  0  0  0
 78 76  1  0  0  0  0
 79 78  2  0  0  0  0
 79227  1  0  0  0  0
 80 78  1  0  0  0  0
 80228  1  0  0  0  0
 81 80  2  0  0  0  0
 81229  1  0  0  0  0
 82 79  1  0  0  0  0
 82230  1  0  0  0  0
 83 81  1  0  0  0  0
 83 82  2  0  0  0  0
 83231  1  0  0  0  0
 84232  1  0  0  0  0
 85233  1  0  0  0  0
 88 85  1  0  0  0  0
 88234  1  6  0  0  0
 89 84  1  0  0  0  0
 89 86  2  0  0  0  0
 90 77  1  0  0  0  0
 90 87  2  0  0  0  0
 90 88  1  0  0  0  0
 91 88  1  0  0  0  0
 91 89  1  0  0  0  0
 91235  1  0  0  0  0
 91236  1  0  0  0  0
 92 85  1  0  0  0  0
 93 92  2  0  0  0  0
 94237  1  0  0  0  0
 95 92  1  0  0  0  0
 95 94  1  0  0  0  0
 95238  1  0  0  0  0
 95239  1  0  0  0  0
 96240  1  0  0  0  0
 96241  1  0  0  0  0
 97 94  1  0  0  0  0
 98 96  1  0  0  0  0
 99 96  1  0  0  0  0
 99 97  1  0  0  0  0
 99103  1  0  0  0  0
 99242  1  1  0  0  0
100 97  2  0  0  0  0
101 98  2  0  0  0  0
102 98  1  0  0  0  0
102243  1  0  0  0  0
102244  1  0  0  0  0
103245  1  0  0  0  0
104103  1  0  0  0  0
105104  2  0  0  0  0
106246  1  0  0  0  0
107104  1  0  0  0  0
107106  1  0  0  0  0
107247  1  0  0  0  0
107248  1  0  0  0  0
108106  1  0  0  0  0
109108  2  0  0  0  0
110249  1  0  0  0  0
111108  1  0  0  0  0
111110  1  0  0  0  0
111250  1  0  0  0  0
111251  1  0  0  0  0
112110  1  0  0  0  0
113112  2  0  0  0  0
114252  1  0  0  0  0
115112  1  0  0  0  0
115114  1  0  0  0  0
115253  1  0  0  0  0
115254  1  0  0  0  0
116114  1  0  0  0  0
117116  2  0  0  0  0
118255  1  0  0  0  0
119116  1  0  0  0  0
119118  1  0  0  0  0
119256  1  0  0  0  0
119257  1  0  0  0  0
120118  1  0  0  0  0
121120  2  0  0  0  0
122120  1  0  0  0  0
122123  1  0  0  0  0
122258  1  6  0  0  0
124123  1  0  0  0  0
124259  1  0  0  0  0
124260  1  0  0  0  0
125124  1  0  0  0  0
125261  1  0  0  0  0
125262  1  0  0  0  0
126122  1  0  0  0  0
126125  1  0  0  0  0
126263  1  0  0  0  0
126264  1  0  0  0  0
128123  1  0  0  0  0
129127  2  0  0  0  0
129265  1  0  0  0  0
130128  2  0  0  0  0
131127  1  0  0  0  0
131266  1  0  0  0  0
132128  1  0  0  0  0
132134  1  0  0  0  0
132267  1  1  0  0  0
133127  1  0  0  0  0
133268  1  0  0  0  0
133269  1  0  0  0  0
134270  1  0  0  0  0
135131  1  0  0  0  0
135271  1  0  0  0  0
135272  1  0  0  0  0
136132  1  0  0  0  0
136273  1  0  0  0  0
136274  1  0  0  0  0
137135  1  0  0  0  0
137136  1  0  0  0  0
137275  1  0  0  0  0
137276  1  0  0  0  0
138134  1  0  0  0  0
139138  2  0  0  0  0
140138  1  0  0  0  0
140141  1  0  0  0  0
140277  1  1  0  0  0
142141  1  0  0  0  0
142278  1  0  0  0  0
142279  1  0  0  0  0
143142  1  0  0  0  0
143280  1  0  0  0  0
143281  1  0  0  0  0
144140  1  0  0  0  0
144143  1  0  0  0  0
144282  1  0  0  0  0
144283  1  0  0  0  0
145141  1  0  0  0  0
146145  1  0  0  0  0
146149  1  0  0  0  0
146284  1  1  0  0  0
147145  2  0  0  0  0
148146  1  0  0  0  0
148285  1  0  0  0  0
148286  1  0  0  0  0
149287  1  0  0  0  0
149288  1  0  0  0  0
150148  1  0  0  0  0
151150  2  0  0  0  0
151289  1  0  0  0  0
152150  1  0  0  0  0
152290  1  0  0  0  0
153152  2  0  0  0  0
153291  1  0  0  0  0
154151  1  0  0  0  0
154292  1  0  0  0  0
155153  1  0  0  0  0
155154  2  0  0  0  0
155293  1  0  0  0  0
M  END
>  <DRUGBANK_ID>
DB00006

>  <SECONDARY_ACCESSION_NUMBERS>
BTD00076; EXPT03302; BIOD00076; DB02351

>  <COMMON_NAME>
Bivalirudin

>  <CAS_NUMBER>
128270-60-0

>  <UNII>
TN9BEX005G

>  <SYNONYMS>
Bivalirudin; Bivalirudina; Bivalirudinum

$$$$
