
 OpenBabel10282417072D

 41 42  0  0  0  0  0  0  0  0999 V2000
    7.2023  -23.5153    0.0000 C   0  0  0  0  0  0  0  0  0  0  0  0
    6.4877  -23.1028    0.0000 C   0  0  0  0  0  0  0  0  0  0  0  0
   12.2036  -20.6279    0.0000 C   0  0  0  0  0  0  0  0  0  0  0  0
    9.3457  -23.1029    0.0000 N   0  0  0  0  0  0  0  0  0  0  0  0
    9.3457  -22.2779    0.0000 N   0  0  0  0  0  0  0  0  0  0  0  0
    7.2023  -24.3404    0.0000 C   0  0  0  0  0  0  0  0  0  0  0  0
   15.0615  -20.6279    0.0000 C   0  0  0  0  0  0  0  0  0  0  0  0
    7.9167  -23.1028    0.0000 C   0  0  0  0  0  0  0  0  0  0  0  0
   11.4891  -21.0404    0.0000 C   0  0  0  0  0  0  0  0  0  0  0  0
   14.3471  -21.0404    0.0000 C   0  0  0  0  0  0  0  0  0  0  0  0
    6.4877  -22.2778    0.0000 O   0  0  0  0  0  0  0  0  0  0  0  0
   12.2036  -19.8028    0.0000 O   0  0  0  0  0  0  0  0  0  0  0  0
    8.6312  -23.5154    0.0000 C   0  0  0  0  0  0  0  0  0  0  0  0
   15.7760  -21.0403    0.0000 O   0  0  0  0  0  0  0  0  0  0  0  0
   12.9181  -21.0404    0.0000 N   0  0  0  0  0  0  0  0  0  0  0  0
    7.9167  -24.7529    0.0000 C   0  0  0  0  0  0  0  0  0  0  0  0
   11.4891  -21.8654    0.0000 C   0  0  0  0  0  0  0  0  0  0  0  0
   10.7747  -20.6279    0.0000 C   0  0  0  0  0  0  0  0  0  0  0  0
   10.0602  -21.8654    0.0000 C   0  0  0  0  0  0  0  0  0  0  0  0
    5.7732  -23.5153    0.0000 O   0  0  0  0  0  0  0  0  0  0  0  0
   13.6325  -20.6279    0.0000 C   0  0  0  0  0  0  0  0  0  0  0  0
   15.0615  -19.8028    0.0000 O   0  0  0  0  0  0  0  0  0  0  0  0
    8.6312  -24.3404    0.0000 C   0  0  0  0  0  0  0  0  0  0  0  0
   10.0602  -21.0404    0.0000 C   0  0  0  0  0  0  0  0  0  0  0  0
   10.7747  -22.2779    0.0000 C   0  0  0  0  0  0  0  0  0  0  0  0
    6.4877  -24.7529    0.0000 O   0  0  0  0  0  0  0  0  0  0  0  0
    7.9167  -22.0708    0.0000 H   0  0  0  0  0  0  0  0  0  0  0  0
   14.3472  -22.1104    0.0000 H   0  0  0  0  0  0  0  0  0  0  0  0
   13.4205  -21.5755    0.0000 H   0  0  0  0  0  0  0  0  0  0  0  0
   15.7761  -21.9773    0.0000 H   0  0  0  0  0  0  0  0  0  0  0  0
   12.9181  -22.0249    0.0000 H   0  0  0  0  0  0  0  0  0  0  0  0
    7.9167  -25.7849    0.0000 H   0  0  0  0  0  0  0  0  0  0  0  0
   12.3828  -22.3814    0.0000 H   0  0  0  0  0  0  0  0  0  0  0  0
   10.7747  -19.5959    0.0000 H   0  0  0  0  0  0  0  0  0  0  0  0
    4.9617  -23.0468    0.0000 H   0  0  0  0  0  0  0  0  0  0  0  0
   13.6324  -19.5579    0.0000 H   0  0  0  0  0  0  0  0  0  0  0  0
   12.7058  -20.0929    0.0000 H   0  0  0  0  0  0  0  0  0  0  0  0
    9.5249  -24.8564    0.0000 H   0  0  0  0  0  0  0  0  0  0  0  0
    9.1665  -20.5244    0.0000 H   0  0  0  0  0  0  0  0  0  0  0  0
   10.7747  -23.3099    0.0000 H   0  0  0  0  0  0  0  0  0  0  0  0
    5.6763  -24.2843    0.0000 H   0  0  0  0  0  0  0  0  0  0  0  0
  2  1  1  0  0  0  0
  3  9  1  0  0  0  0
  4 13  1  0  0  0  0
  5  4  2  0  0  0  0
  6  1  1  0  0  0  0
  7 10  1  0  0  0  0
  8  1  2  0  0  0  0
  8 27  1  0  0  0  0
  9 17  2  0  0  0  0
 10 21  1  0  0  0  0
 10 28  1  0  0  0  0
 10 29  1  0  0  0  0
 11  2  2  0  0  0  0
 12  3  2  0  0  0  0
 13  8  1  0  0  0  0
 14  7  1  0  0  0  0
 14 30  1  0  0  0  0
 15  3  1  0  0  0  0
 15 31  1  0  0  0  0
 16  6  2  0  0  0  0
 16 23  1  0  0  0  0
 16 32  1  0  0  0  0
 17 25  1  0  0  0  0
 17 33  1  0  0  0  0
 18 24  2  0  0  0  0
 18  9  1  0  0  0  0
 18 34  1  0  0  0  0
 19  5  1  0  0  0  0
 20  2  1  0  0  0  0
 20 35  1  0  0  0  0
 21 15  1  0  0  0  0
 21 36  1  0  0  0  0
 21 37  1  0  0  0  0
 22  7  2  0  0  0  0
 23 13  2  0  0  0  0
 23 38  1  0  0  0  0
 24 19  1  0  0  0  0
 24 39  1  0  0  0  0
 25 19  2  0  0  0  0
 25 40  1  0  0  0  0
 26  6  1  0  0  0  0
 26 41  1  0  0  0  0
M  END
>  <DRUGBANK_ID>
DB01014

>  <SECONDARY_ACCESSION_NUMBERS>
APRD00141

>  <COMMON_NAME>
Balsalazide

>  <CAS_NUMBER>
80573-04-2

>  <UNII>
P80AL8J7ZP

>  <SYNONYMS>
(E)-5-((4-(((2-carboxyethyl)amino)carbonyl)phenyl)azo)-2-hydroxybenzoic acid; (E)-5-({p-[(2-carboxyethyl)carbamoyl]phenyl}azo)-2-salicylic acid; 3-(2-{4-[(2-carboxyethyl)carbamoyl]phenyl}hydrazinylidene)-6-oxocyclohexa-1,4-diene-1-carboxylic acid; 5-[4-(2-carboxy-ethylcarbamoyl)-phenylazo]-2-hydroxy-benzoic acid; Balsalazida; Balsalazide; Balsalazidum

$$$$
