S06
 OpenBabel10282417072D

 46 49  0  0  0  0  0  0  0  0999 V2000
   -1.8382    0.0370    0.0000 C   0  0  0  0  0  0  0  0  0  0  0  0
   -2.5057   -0.4479    0.0000 C   0  0  0  0  0  0  0  0  0  0  0  0
   -3.2593   -0.1124    0.0000 C   0  0  0  0  0  0  0  0  0  0  0  0
   -3.9268   -0.5973    0.0000 C   0  0  0  0  0  0  0  0  0  0  0  0
   -3.8405   -1.4178    0.0000 C   0  0  0  0  0  0  0  0  0  0  0  0
   -3.0869   -1.7533    0.0000 C   0  0  0  0  0  0  0  0  0  0  0  0
   -2.4194   -1.2684    0.0000 C   0  0  0  0  0  0  0  0  0  0  0  0
   -1.6658   -1.6040    0.0000 C   0  0  0  0  0  0  0  0  0  0  0  0
   -0.9983   -1.1191    0.0000 C   0  0  0  0  0  0  0  0  0  0  0  0
   -1.0846   -0.2986    0.0000 C   0  0  0  0  0  0  0  0  0  0  0  0
   -0.4171    0.1863    0.0000 C   0  0  2  0  0  0  0  0  0  0  0  0
    0.3675   -0.0686    0.0000 C   0  0  0  0  0  0  0  0  0  0  0  0
   -0.4171    1.0113    0.0000 N   0  0  0  0  0  0  0  0  0  0  0  0
    0.3675    1.2663    0.0000 O   0  0  0  0  0  0  0  0  0  0  0  0
    0.8524    0.5988    0.0000 C   0  0  2  0  0  0  0  0  0  0  0  0
    1.2649    1.3133    0.0000 O   0  0  0  0  0  0  0  0  0  0  0  0
    2.0899    1.3133    0.0000 C   0  0  2  0  0  0  0  0  0  0  0  0
    2.5024    2.0278    0.0000 C   0  0  0  0  0  0  0  0  0  0  0  0
    2.0899    2.7423    0.0000 O   0  0  0  0  0  0  0  0  0  0  0  0
    2.5024    0.5988    0.0000 C   0  0  1  0  0  0  0  0  0  0  0  0
    3.3274    0.5988    0.0000 O   0  0  0  0  0  0  0  0  0  0  0  0
    2.0899   -0.1156    0.0000 C   0  0  2  0  0  0  0  0  0  0  0  0
    2.5024   -0.8301    0.0000 O   0  0  0  0  0  0  0  0  0  0  0  0
    1.2649   -0.1156    0.0000 C   0  0  1  0  0  0  0  0  0  0  0  0
    0.8524   -0.8301    0.0000 O   0  0  0  0  0  0  0  0  0  0  0  0
   -0.3258   -0.3904    0.0000 H   0  0  0  0  0  0  0  0  0  0  0  0
    1.7980    1.8190    0.0000 H   0  0  0  0  0  0  0  0  0  0  0  0
    2.7944    1.1045    0.0000 H   0  0  0  0  0  0  0  0  0  0  0  0
    2.6739   -0.1156    0.0000 H   0  0  0  0  0  0  0  0  0  0  0  0
    1.5569   -0.6213    0.0000 H   0  0  0  0  0  0  0  0  0  0  0  0
   -1.9460    1.0634    0.0000 H   0  0  0  0  0  0  0  0  0  0  0  0
   -3.3672    0.9139    0.0000 H   0  0  0  0  0  0  0  0  0  0  0  0
   -4.8696   -0.1776    0.0000 H   0  0  0  0  0  0  0  0  0  0  0  0
   -4.6754   -2.0244    0.0000 H   0  0  0  0  0  0  0  0  0  0  0  0
   -2.9790   -2.7796    0.0000 H   0  0  0  0  0  0  0  0  0  0  0  0
   -1.5580   -2.6304    0.0000 H   0  0  0  0  0  0  0  0  0  0  0  0
   -0.0555   -1.5388    0.0000 H   0  0  0  0  0  0  0  0  0  0  0  0
    0.6982   -1.0862    0.0000 H   0  0  0  0  0  0  0  0  0  0  0  0
    1.4243   -0.2360    0.0000 H   0  0  0  0  0  0  0  0  0  0  0  0
   -1.2423    1.6108    0.0000 H   0  0  0  0  0  0  0  0  0  0  0  0
    3.5724    2.0278    0.0000 H   0  0  0  0  0  0  0  0  0  0  0  0
    3.0374    2.9544    0.0000 H   0  0  0  0  0  0  0  0  0  0  0  0
    2.5749    3.5823    0.0000 H   0  0  0  0  0  0  0  0  0  0  0  0
    3.8124   -0.2412    0.0000 H   0  0  0  0  0  0  0  0  0  0  0  0
    2.0174   -1.6701    0.0000 H   0  0  0  0  0  0  0  0  0  0  0  0
   -0.1176   -0.8301    0.0000 H   0  0  0  0  0  0  0  0  0  0  0  0
  1 10  2  0  0  0  0
  1  2  1  0  0  0  0
  1 31  1  0  0  0  0
  2  7  1  0  0  0  0
  3  2  2  0  0  0  0
  3  4  1  0  0  0  0
  3 32  1  0  0  0  0
  4  5  2  0  0  0  0
  4 33  1  0  0  0  0
  5  6  1  0  0  0  0
  5 34  1  0  0  0  0
  6 35  1  0  0  0  0
  7  8  1  0  0  0  0
  7  6  2  0  0  0  0
  8 36  1  0  0  0  0
  9  8  2  0  0  0  0
  9 37  1  0  0  0  0
 10  9  1  0  0  0  0
 11 10  1  0  0  0  0
 11 26  1  6  0  0  0
 12 11  1  0  0  0  0
 12 38  1  0  0  0  0
 12 39  1  0  0  0  0
 13 11  1  0  0  0  0
 13 40  1  0  0  0  0
 14 13  1  0  0  0  0
 15 16  1  6  0  0  0
 15 14  1  0  0  0  0
 15 12  1  0  0  0  0
 17 18  1  0  0  0  0
 17 16  1  0  0  0  0
 17 27  1  1  0  0  0
 18 41  1  0  0  0  0
 18 42  1  0  0  0  0
 19 18  1  0  0  0  0
 19 43  1  0  0  0  0
 20 17  1  0  0  0  0
 20 28  1  6  0  0  0
 20 21  1  0  0  0  0
 21 44  1  0  0  0  0
 22 20  1  0  0  0  0
 22 24  1  0  0  0  0
 22 29  1  1  0  0  0
 22 23  1  0  0  0  0
 23 45  1  0  0  0  0
 24 15  1  0  0  0  0
 24 30  1  6  0  0  0
 24 25  1  0  0  0  0
 25 46  1  0  0  0  0
M  END
>  <DRUGBANK_ID>
DB08500

>  <COMMON_NAME>
(3S,5R,7R,8S,9S,10R)-7-(hydroxymethyl)-3-(2-naphthyl)-1,6-dioxa-2-azaspiro[4.5]decane-8,9,10-triol

$$$$
