
 OpenBabel10282417072D

 73 75  0  0  1  0  0  0  0  0999 V2000
   -1.4289   -3.3000    0.0000 H   0  0  0  0  0  0  0  0  0  0  0  0
   -2.1434   -3.7125    0.0000 C   0  0  2  0  0  0  0  0  0  0  0  0
   -2.8579   -4.1250    0.0000 C   0  0  0  0  0  0  0  0  0  0  0  0
   -2.8579   -4.9500    0.0000 C   0  0  0  0  0  0  0  0  0  0  0  0
   -2.1434   -5.3625    0.0000 C   0  0  1  0  0  0  0  0  0  0  0  0
   -2.1434   -6.1875    0.0000 N   0  0  0  0  0  0  0  0  0  0  0  0
   -1.4289   -4.9500    0.0000 C   0  0  1  0  0  0  0  0  0  0  0  0
   -0.7145   -4.5375    0.0000 H   0  0  0  0  0  0  0  0  0  0  0  0
   -0.7145   -5.3625    0.0000 O   0  0  0  0  0  0  0  0  0  0  0  0
    0.0000   -4.9500    0.0000 C   0  0  2  0  0  0  0  0  0  0  0  0
    0.0000   -4.1250    0.0000 C   0  0  1  0  0  0  0  0  0  0  0  0
   -0.7145   -3.7125    0.0000 N   0  0  0  0  0  0  0  0  0  0  0  0
    0.7145   -3.7125    0.0000 C   0  0  0  0  0  0  0  0  0  0  0  0
    1.4289   -4.1250    0.0000 C   0  0  1  0  0  0  0  0  0  0  0  0
    2.1434   -3.7125    0.0000 N   0  0  0  0  0  0  0  0  0  0  0  0
    1.4289   -4.9500    0.0000 C   0  0  2  0  0  0  0  0  0  0  0  0
    2.1434   -5.3625    0.0000 O   0  0  0  0  0  0  0  0  0  0  0  0
    2.8579   -4.9500    0.0000 C   0  0  1  0  0  0  0  0  0  0  0  0
    2.8579   -5.7750    0.0000 H   0  0  0  0  0  0  0  0  0  0  0  0
    2.8579   -4.1250    0.0000 O   0  0  0  0  0  0  0  0  0  0  0  0
    3.5724   -3.7125    0.0000 C   0  0  0  0  0  0  0  0  0  0  0  0
    4.2868   -4.1250    0.0000 C   0  0  2  0  0  0  0  0  0  0  0  0
    4.5690   -3.3498    0.0000 C   0  0  0  0  0  0  0  0  0  0  0  0
    5.0993   -4.2683    0.0000 O   0  0  0  0  0  0  0  0  0  0  0  0
    4.2868   -4.9500    0.0000 C   0  0  2  0  0  0  0  0  0  0  0  0
    5.0013   -5.3625    0.0000 N   0  0  0  0  0  0  0  0  0  0  0  0
    5.0013   -6.1875    0.0000 C   0  0  0  0  0  0  0  0  0  0  0  0
    3.5724   -5.3625    0.0000 C   0  0  1  0  0  0  0  0  0  0  0  0
    3.5724   -6.1875    0.0000 O   0  0  0  0  0  0  0  0  0  0  0  0
    0.7145   -5.3625    0.0000 C   0  0  1  0  0  0  0  0  0  0  0  0
    0.7145   -6.1875    0.0000 O   0  0  0  0  0  0  0  0  0  0  0  0
   -1.4289   -4.1250    0.0000 O   0  0  0  0  0  0  0  0  0  0  0  0
   -2.1434   -2.8875    0.0000 C   0  0  1  0  0  0  0  0  0  0  0  0
   -2.8579   -2.4750    0.0000 C   0  0  0  0  0  0  0  0  0  0  0  0
   -1.4289   -2.4750    0.0000 N   0  0  0  0  0  0  0  0  0  0  0  0
   -3.7845   -3.5900    0.0000 H   0  0  0  0  0  0  0  0  0  0  0  0
   -3.7845   -4.6600    0.0000 H   0  0  0  0  0  0  0  0  0  0  0  0
   -3.7845   -5.4850    0.0000 H   0  0  0  0  0  0  0  0  0  0  0  0
   -2.8579   -6.0200    0.0000 H   0  0  0  0  0  0  0  0  0  0  0  0
   -3.0700   -5.8975    0.0000 H   0  0  0  0  0  0  0  0  0  0  0  0
   -3.0267   -6.6975    0.0000 H   0  0  0  0  0  0  0  0  0  0  0  0
   -1.2601   -6.6975    0.0000 H   0  0  0  0  0  0  0  0  0  0  0  0
   -0.9266   -4.4150    0.0000 H   0  0  0  0  0  0  0  0  0  0  0  0
   -0.9266   -4.6600    0.0000 H   0  0  0  0  0  0  0  0  0  0  0  0
   -0.7145   -2.6925    0.0000 H   0  0  0  0  0  0  0  0  0  0  0  0
   -1.5978   -4.2225    0.0000 H   0  0  0  0  0  0  0  0  0  0  0  0
    0.7145   -2.6425    0.0000 H   0  0  0  0  0  0  0  0  0  0  0  0
    1.6412   -3.1775    0.0000 H   0  0  0  0  0  0  0  0  0  0  0  0
    1.4289   -3.0550    0.0000 H   0  0  0  0  0  0  0  0  0  0  0  0
    3.0267   -4.2225    0.0000 H   0  0  0  0  0  0  0  0  0  0  0  0
    2.1434   -2.6925    0.0000 H   0  0  0  0  0  0  0  0  0  0  0  0
    2.3555   -4.4150    0.0000 H   0  0  0  0  0  0  0  0  0  0  0  0
    3.5724   -2.6425    0.0000 H   0  0  0  0  0  0  0  0  0  0  0  0
    4.4991   -3.1775    0.0000 H   0  0  0  0  0  0  0  0  0  0  0  0
    5.6228   -3.1641    0.0000 H   0  0  0  0  0  0  0  0  0  0  0  0
    3.8813   -2.5301    0.0000 H   0  0  0  0  0  0  0  0  0  0  0  0
    4.9350   -2.3443    0.0000 H   0  0  0  0  0  0  0  0  0  0  0  0
    5.4310   -5.1798    0.0000 H   0  0  0  0  0  0  0  0  0  0  0  0
    5.2134   -4.4150    0.0000 H   0  0  0  0  0  0  0  0  0  0  0  0
    5.8846   -4.8525    0.0000 H   0  0  0  0  0  0  0  0  0  0  0  0
    4.0747   -6.7225    0.0000 H   0  0  0  0  0  0  0  0  0  0  0  0
    5.9279   -6.7225    0.0000 H   0  0  0  0  0  0  0  0  0  0  0  0
    5.0013   -7.2575    0.0000 H   0  0  0  0  0  0  0  0  0  0  0  0
    4.4991   -5.8975    0.0000 H   0  0  0  0  0  0  0  0  0  0  0  0
    2.7324   -6.6725    0.0000 H   0  0  0  0  0  0  0  0  0  0  0  0
    1.6412   -5.8975    0.0000 H   0  0  0  0  0  0  0  0  0  0  0  0
   -0.1255   -6.6725    0.0000 H   0  0  0  0  0  0  0  0  0  0  0  0
   -1.2168   -3.4225    0.0000 H   0  0  0  0  0  0  0  0  0  0  0  0
   -2.8579   -1.4050    0.0000 H   0  0  0  0  0  0  0  0  0  0  0  0
   -3.7845   -3.0100    0.0000 H   0  0  0  0  0  0  0  0  0  0  0  0
   -3.7846   -1.9400    0.0000 H   0  0  0  0  0  0  0  0  0  0  0  0
   -0.5456   -2.9850    0.0000 H   0  0  0  0  0  0  0  0  0  0  0  0
   -1.4289   -1.4550    0.0000 H   0  0  0  0  0  0  0  0  0  0  0  0
  2  1  1  6  0  0  0
  2  3  1  0  0  0  0
  2 32  1  0  0  0  0
  2 33  1  0  0  0  0
  3  4  1  0  0  0  0
  3 36  1  0  0  0  0
  3 37  1  0  0  0  0
  4 38  1  0  0  0  0
  4 39  1  0  0  0  0
  5  4  1  0  0  0  0
  5  6  1  0  0  0  0
  5  7  1  0  0  0  0
  5 40  1  1  0  0  0
  6 41  1  0  0  0  0
  6 42  1  0  0  0  0
  7  8  1  1  0  0  0
  7  9  1  0  0  0  0
  7 32  1  0  0  0  0
 10  9  1  0  0  0  0
 10 11  1  0  0  0  0
 10 30  1  0  0  0  0
 10 43  1  1  0  0  0
 11 12  1  0  0  0  0
 11 13  1  0  0  0  0
 11 44  1  6  0  0  0
 12 45  1  0  0  0  0
 12 46  1  0  0  0  0
 13 47  1  0  0  0  0
 13 48  1  0  0  0  0
 14 13  1  0  0  0  0
 14 15  1  0  0  0  0
 14 49  1  6  0  0  0
 15 50  1  0  0  0  0
 15 51  1  0  0  0  0
 16 14  1  0  0  0  0
 16 17  1  0  0  0  0
 16 52  1  1  0  0  0
 18 17  1  0  0  0  0
 18 19  1  6  0  0  0
 18 20  1  0  0  0  0
 20 21  1  0  0  0  0
 21 53  1  0  0  0  0
 21 54  1  0  0  0  0
 22 21  1  0  0  0  0
 22 23  1  0  0  0  0
 22 24  1  6  0  0  0
 23 55  1  0  0  0  0
 23 56  1  0  0  0  0
 23 57  1  0  0  0  0
 24 58  1  0  0  0  0
 25 22  1  0  0  0  0
 25 26  1  0  0  0  0
 25 28  1  0  0  0  0
 25 59  1  1  0  0  0
 26 27  1  0  0  0  0
 26 60  1  0  0  0  0
 27 61  1  0  0  0  0
 27 62  1  0  0  0  0
 27 63  1  0  0  0  0
 28 18  1  0  0  0  0
 28 29  1  0  0  0  0
 28 64  1  6  0  0  0
 29 65  1  0  0  0  0
 30 16  1  0  0  0  0
 30 31  1  0  0  0  0
 30 66  1  6  0  0  0
 31 67  1  0  0  0  0
 33 34  1  0  0  0  0
 33 35  1  0  0  0  0
 33 68  1  6  0  0  0
 34 69  1  0  0  0  0
 34 70  1  0  0  0  0
 34 71  1  0  0  0  0
 35 72  1  0  0  0  0
 35 73  1  0  0  0  0
M  END
>  <DRUGBANK_ID>
DB17884

>  <COMMON_NAME>
Gentamicin C2

>  <CAS_NUMBER>
25876-11-3

>  <UNII>
3P99H114B8

$$$$
