
 OpenBabel10282417072D

 22 22  0  0  0  0  0  0  0  0999 V2000
   -0.2062    0.0000    0.0000 C   0  0  0  0  0  0  0  0  0  0  0  0
   -0.6187   -0.7144    0.0000 C   0  0  0  0  0  0  0  0  0  0  0  0
   -1.4437   -0.7144    0.0000 C   0  0  0  0  0  0  0  0  0  0  0  0
   -1.8562    0.0000    0.0000 C   0  0  0  0  0  0  0  0  0  0  0  0
   -1.4437    0.7145    0.0000 C   0  0  0  0  0  0  0  0  0  0  0  0
   -0.6187    0.7145    0.0000 C   0  0  0  0  0  0  0  0  0  0  0  0
    0.6187   -0.8250    0.0000 O   0  0  0  0  0  0  0  0  0  0  0  0
    0.6187    0.0000    0.0000 C   0  0  2  0  0  0  0  0  0  0  0  0
    1.4437    0.0000    0.0000 C   0  0  0  0  0  0  0  0  0  0  0  0
    1.8562   -0.7144    0.0000 O   0  0  0  0  0  0  0  0  0  0  0  0
    1.8562    0.7145    0.0000 O   0  0  0  0  0  0  0  0  0  0  0  0
    0.6187    0.8250    0.0000 C   0  0  0  0  0  0  0  0  0  0  0  0
   -0.1027   -1.6081    0.0000 H   0  0  0  0  0  0  0  0  0  0  0  0
   -1.9597   -1.6081    0.0000 H   0  0  0  0  0  0  0  0  0  0  0  0
   -2.8882   -0.0000    0.0000 H   0  0  0  0  0  0  0  0  0  0  0  0
   -1.9597    1.6082    0.0000 H   0  0  0  0  0  0  0  0  0  0  0  0
   -0.1027    1.6082    0.0000 H   0  0  0  0  0  0  0  0  0  0  0  0
   -0.2213   -1.3100    0.0000 H   0  0  0  0  0  0  0  0  0  0  0  0
    1.3877   -1.5259    0.0000 H   0  0  0  0  0  0  0  0  0  0  0  0
    1.5453    1.3600    0.0000 H   0  0  0  0  0  0  0  0  0  0  0  0
   -0.3079    1.3600    0.0000 H   0  0  0  0  0  0  0  0  0  0  0  0
    0.6187    1.8950    0.0000 H   0  0  0  0  0  0  0  0  0  0  0  0
  1  2  1  0  0  0  0
  1  6  2  0  0  0  0
  1  8  1  0  0  0  0
  2  3  2  0  0  0  0
  2 13  1  0  0  0  0
  3  4  1  0  0  0  0
  3 14  1  0  0  0  0
  4  5  2  0  0  0  0
  4 15  1  0  0  0  0
  5  6  1  0  0  0  0
  5 16  1  0  0  0  0
  6 17  1  0  0  0  0
  7 18  1  0  0  0  0
  8  7  1  6  0  0  0
  8  9  1  0  0  0  0
  9 10  1  0  0  0  0
  9 11  2  0  0  0  0
 10 19  1  0  0  0  0
 12  8  1  0  0  0  0
 12 20  1  0  0  0  0
 12 21  1  0  0  0  0
 12 22  1  0  0  0  0
M  END
>  <DRUGBANK_ID>
DB07381

>  <SECONDARY_ACCESSION_NUMBERS>
DB03954

>  <COMMON_NAME>
(S)-atrolactic acid

>  <CAS_NUMBER>
13113-71-8

>  <UNII>
22Y6G519RU

>  <SYNONYMS>
(S)-(+)-Atrolactic acid; (S)-2-Hydroxy-2-phenylpropanoic acid; (S)-2-Phenyllactic acid; (S)-atrolactic acid

$$$$
