
 OpenBabel10282417072D

 63 63  0  0  0  0  0  0  0  0999 V2000
   -3.6233   -1.4461    0.0000 O   0  0  0  0  0  0  0  0  0  0  0  0
   -3.8618    1.3985    0.0000 O   0  0  0  0  0  0  0  0  0  0  0  0
   -1.1680   -1.7084    0.0000 O   0  0  0  0  0  0  0  0  0  0  0  0
    3.2579    0.4688    0.0000 O   0  0  0  0  0  0  0  0  0  0  0  0
    2.5348    1.7084    0.0000 O   0  0  0  0  0  0  0  0  0  0  0  0
   -2.7254   -0.3416    0.0000 C   0  0  2  0  0  0  0  0  0  0  0  0
   -2.7175    0.4688    0.0000 C   0  0  2  0  0  0  0  0  0  0  0  0
   -3.4406   -0.6595    0.0000 C   0  0  1  0  0  0  0  0  0  0  0  0
   -3.5518    0.6515    0.0000 C   0  0  2  0  0  0  0  0  0  0  0  0
   -3.9730   -0.0397    0.0000 C   0  0  0  0  0  0  0  0  0  0  0  0
   -1.9865   -0.9694    0.0000 C   0  0  0  0  0  0  0  0  0  0  0  0
   -2.0103    0.8820    0.0000 C   0  0  0  0  0  0  0  0  0  0  0  0
   -0.5879   -1.0011    0.0000 C   0  0  1  0  0  0  0  0  0  0  0  0
   -1.2792   -0.5800    0.0000 C   0  0  0  0  0  0  0  0  0  0  0  0
   -1.2872    0.4688    0.0000 C   0  0  0  0  0  0  0  0  0  0  0  0
    0.1271   -0.6118    0.0000 C   0  0  0  0  0  0  0  0  0  0  0  0
    0.0000   -1.6290    0.0000 C   0  0  0  0  0  0  0  0  0  0  0  0
   -0.4608    0.4688    0.0000 C   0  0  0  0  0  0  0  0  0  0  0  0
    0.8342   -1.0409    0.0000 C   0  0  0  0  0  0  0  0  0  0  0  0
    0.3655    0.4688    0.0000 C   0  0  0  0  0  0  0  0  0  0  0  0
    1.5494   -0.6435    0.0000 C   0  0  0  0  0  0  0  0  0  0  0  0
    1.1045    0.8820    0.0000 C   0  0  0  0  0  0  0  0  0  0  0  0
    1.8197    0.4688    0.0000 C   0  0  0  0  0  0  0  0  0  0  0  0
    2.5348    0.8820    0.0000 C   0  0  0  0  0  0  0  0  0  0  0  0
    2.2408   -1.0647    0.0000 C   0  0  0  0  0  0  0  0  0  0  0  0
    2.9638   -0.6674    0.0000 C   0  0  0  0  0  0  0  0  0  0  0  0
    3.9730    0.8820    0.0000 C   0  0  0  0  0  0  0  0  0  0  0  0
   -4.5513   -1.7285    0.0000 H   0  0  0  0  0  0  0  0  0  0  0  0
   -3.2718    2.1684    0.0000 H   0  0  0  0  0  0  0  0  0  0  0  0
   -2.1251   -1.5507    0.0000 H   0  0  0  0  0  0  0  0  0  0  0  0
   -1.7521    0.1029    0.0000 H   0  0  0  0  0  0  0  0  0  0  0  0
   -1.7921   -0.0683    0.0000 H   0  0  0  0  0  0  0  0  0  0  0  0
   -2.6156   -1.3409    0.0000 H   0  0  0  0  0  0  0  0  0  0  0  0
   -2.8653    1.4723    0.0000 H   0  0  0  0  0  0  0  0  0  0  0  0
   -5.0395   -0.1265    0.0000 H   0  0  0  0  0  0  0  0  0  0  0  0
   -4.5344    0.8712    0.0000 H   0  0  0  0  0  0  0  0  0  0  0  0
   -2.0901   -1.9962    0.0000 H   0  0  0  0  0  0  0  0  0  0  0  0
   -2.0155    1.9520    0.0000 H   0  0  0  0  0  0  0  0  0  0  0  0
   -1.0861    1.4213    0.0000 H   0  0  0  0  0  0  0  0  0  0  0  0
   -1.2566    0.4518    0.0000 H   0  0  0  0  0  0  0  0  0  0  0  0
   -1.5521   -0.5286    0.0000 H   0  0  0  0  0  0  0  0  0  0  0  0
    0.1522    0.4579    0.0000 H   0  0  0  0  0  0  0  0  0  0  0  0
    1.0656   -0.0979    0.0000 H   0  0  0  0  0  0  0  0  0  0  0  0
   -0.3108   -2.6529    0.0000 H   0  0  0  0  0  0  0  0  0  0  0  0
    1.0421   -1.3862    0.0000 H   0  0  0  0  0  0  0  0  0  0  0  0
    0.7313   -2.4101    0.0000 H   0  0  0  0  0  0  0  0  0  0  0  0
    0.8137   -2.1107    0.0000 H   0  0  0  0  0  0  0  0  0  0  0  0
    1.7512   -1.5923    0.0000 H   0  0  0  0  0  0  0  0  0  0  0  0
    0.6257   -0.5299    0.0000 H   0  0  0  0  0  0  0  0  0  0  0  0
    1.5708    0.4263    0.0000 H   0  0  0  0  0  0  0  0  0  0  0  0
    2.4875   -0.1288    0.0000 H   0  0  0  0  0  0  0  0  0  0  0  0
    1.1120    1.9520    0.0000 H   0  0  0  0  0  0  0  0  0  0  0  0
    2.0331    1.4136    0.0000 H   0  0  0  0  0  0  0  0  0  0  0  0
    1.8197   -0.6012    0.0000 H   0  0  0  0  0  0  0  0  0  0  0  0
    2.7464   -0.0660    0.0000 H   0  0  0  0  0  0  0  0  0  0  0  0
    2.2169   -2.1344    0.0000 H   0  0  0  0  0  0  0  0  0  0  0  0
    3.1556   -1.6197    0.0000 H   0  0  0  0  0  0  0  0  0  0  0  0
    3.8789   -1.2219    0.0000 H   0  0  0  0  0  0  0  0  0  0  0  0
    2.9864    0.4024    0.0000 H   0  0  0  0  0  0  0  0  0  0  0  0
    3.9015   -0.1521    0.0000 H   0  0  0  0  0  0  0  0  0  0  0  0
    4.8998    0.3473    0.0000 H   0  0  0  0  0  0  0  0  0  0  0  0
    3.9726    1.9520    0.0000 H   0  0  0  0  0  0  0  0  0  0  0  0
    4.8995    1.4173    0.0000 H   0  0  0  0  0  0  0  0  0  0  0  0
  1 28  1  0  0  0  0
  2 29  1  0  0  0  0
  3 30  1  0  0  0  0
  4 24  1  0  0  0  0
  4 27  1  0  0  0  0
  5 24  2  0  0  0  0
  6  7  1  0  0  0  0
  6  8  1  0  0  0  0
  6 11  1  0  0  0  0
  6 31  1  6  0  0  0
  7  9  1  0  0  0  0
  7 12  1  0  0  0  0
  7 32  1  1  0  0  0
  8  1  1  0  0  0  0
  8 10  1  0  0  0  0
  8 33  1  1  0  0  0
  9  2  1  0  0  0  0
  9 10  1  0  0  0  0
  9 34  1  1  0  0  0
 10 35  1  0  0  0  0
 10 36  1  0  0  0  0
 11 14  2  0  0  0  0
 11 37  1  0  0  0  0
 12 15  1  0  0  0  0
 12 38  1  0  0  0  0
 12 39  1  0  0  0  0
 13  3  1  1  0  0  0
 13 14  1  0  0  0  0
 13 16  1  0  0  0  0
 13 17  1  0  0  0  0
 14 40  1  0  0  0  0
 15 18  2  0  0  0  0
 15 41  1  0  0  0  0
 16 19  1  0  0  0  0
 16 42  1  0  0  0  0
 16 43  1  0  0  0  0
 17 44  1  0  0  0  0
 17 45  1  0  0  0  0
 17 46  1  0  0  0  0
 18 20  2  0  0  0  0
 19 21  1  0  0  0  0
 19 47  1  0  0  0  0
 19 48  1  0  0  0  0
 20 22  1  0  0  0  0
 20 49  1  0  0  0  0
 21 25  1  0  0  0  0
 21 50  1  0  0  0  0
 21 51  1  0  0  0  0
 22 23  1  0  0  0  0
 22 52  1  0  0  0  0
 22 53  1  0  0  0  0
 23 24  1  0  0  0  0
 23 54  1  0  0  0  0
 23 55  1  0  0  0  0
 25 26  1  0  0  0  0
 25 56  1  0  0  0  0
 25 57  1  0  0  0  0
 26 58  1  0  0  0  0
 26 59  1  0  0  0  0
 26 60  1  0  0  0  0
 27 61  1  0  0  0  0
 27 62  1  0  0  0  0
 27 63  1  0  0  0  0
M  END
>  <DRUGBANK_ID>
DB11454

>  <COMMON_NAME>
Prostalene

>  <CAS_NUMBER>
54120-61-5

>  <UNII>
O02SWY8981

>  <SYNONYMS>
Prostalene; Prostaleno

$$$$
