2GG
 OpenBabel10282417072D

 44 46  0  0  0  0  0  0  0  0999 V2000
    0.4473    2.6307    0.0000 C   0  0  0  0  0  0  0  0  0  0  0  0
    1.1618    2.2182    0.0000 O   0  0  0  0  0  0  0  0  0  0  0  0
    1.1618    1.3932    0.0000 C   0  0  0  0  0  0  0  0  0  0  0  0
    1.8762    0.9807    0.0000 C   0  0  0  0  0  0  0  0  0  0  0  0
    1.8762    0.1557    0.0000 C   0  0  0  0  0  0  0  0  0  0  0  0
    0.4473    0.9807    0.0000 C   0  0  0  0  0  0  0  0  0  0  0  0
    0.4473    0.1557    0.0000 C   0  0  0  0  0  0  0  0  0  0  0  0
    1.1618   -0.2568    0.0000 C   0  0  0  0  0  0  0  0  0  0  0  0
    1.1618   -1.0818    0.0000 C   0  0  0  0  0  0  0  0  0  0  0  0
    0.4943   -1.5667    0.0000 C   0  0  0  0  0  0  0  0  0  0  0  0
   -0.2903   -1.3118    0.0000 C   0  0  0  0  0  0  0  0  0  0  0  0
   -0.4618   -0.5048    0.0000 O   0  0  0  0  0  0  0  0  0  0  0  0
   -0.9034   -1.8638    0.0000 N   0  0  0  0  0  0  0  0  0  0  0  0
   -1.6880   -1.6089    0.0000 C   0  0  0  0  0  0  0  0  0  0  0  0
   -2.3011   -2.1609    0.0000 C   0  0  0  0  0  0  0  0  0  0  0  0
    0.7493   -2.3513    0.0000 N   0  0  0  0  0  0  0  0  0  0  0  0
    1.8292   -1.5667    0.0000 C   0  0  0  0  0  0  0  0  0  0  0  0
    2.6138   -1.3118    0.0000 C   0  0  0  0  0  0  0  0  0  0  0  0
    2.7854   -0.5048    0.0000 C   0  0  0  0  0  0  0  0  0  0  0  0
    3.5700   -0.2499    0.0000 C   0  0  0  0  0  0  0  0  0  0  0  0
    3.7415    0.5571    0.0000 Cl  0  0  0  0  0  0  0  0  0  0  0  0
    4.1831   -0.8019    0.0000 C   0  0  0  0  0  0  0  0  0  0  0  0
    4.9677   -0.5469    0.0000 O   0  0  0  0  0  0  0  0  0  0  0  0
    4.0116   -1.6089    0.0000 C   0  0  0  0  0  0  0  0  0  0  0  0
    3.2269   -1.8638    0.0000 C   0  0  0  0  0  0  0  0  0  0  0  0
    3.0554   -2.6708    0.0000 O   0  0  0  0  0  0  0  0  0  0  0  0
    1.5743   -2.3513    0.0000 O   0  0  0  0  0  0  0  0  0  0  0  0
    0.4473    3.7007    0.0000 H   0  0  0  0  0  0  0  0  0  0  0  0
   -0.4793    2.0957    0.0000 H   0  0  0  0  0  0  0  0  0  0  0  0
   -0.4794    3.1657    0.0000 H   0  0  0  0  0  0  0  0  0  0  0  0
    2.7699    1.4967    0.0000 H   0  0  0  0  0  0  0  0  0  0  0  0
    2.7699   -0.3603    0.0000 H   0  0  0  0  0  0  0  0  0  0  0  0
   -0.4464    1.4967    0.0000 H   0  0  0  0  0  0  0  0  0  0  0  0
   -0.4464   -0.3603    0.0000 H   0  0  0  0  0  0  0  0  0  0  0  0
   -0.6987   -2.8268    0.0000 H   0  0  0  0  0  0  0  0  0  0  0  0
   -1.9105   -0.5623    0.0000 H   0  0  0  0  0  0  0  0  0  0  0  0
   -2.7056   -1.2782    0.0000 H   0  0  0  0  0  0  0  0  0  0  0  0
   -3.3187   -1.8302    0.0000 H   0  0  0  0  0  0  0  0  0  0  0  0
   -2.0787   -3.2075    0.0000 H   0  0  0  0  0  0  0  0  0  0  0  0
   -3.0963   -2.8768    0.0000 H   0  0  0  0  0  0  0  0  0  0  0  0
    2.0185    0.1858    0.0000 H   0  0  0  0  0  0  0  0  0  0  0  0
    5.6641   -1.1738    0.0000 H   0  0  0  0  0  0  0  0  0  0  0  0
    4.7785   -2.2995    0.0000 H   0  0  0  0  0  0  0  0  0  0  0  0
    2.1643   -2.9604    0.0000 H   0  0  0  0  0  0  0  0  0  0  0  0
  1  2  1  0  0  0  0
  1 28  1  0  0  0  0
  1 29  1  0  0  0  0
  1 30  1  0  0  0  0
  2  3  1  0  0  0  0
  3  4  1  0  0  0  0
  3  6  2  0  0  0  0
  4  5  2  0  0  0  0
  4 31  1  0  0  0  0
  5  8  1  0  0  0  0
  5 32  1  0  0  0  0
  6  7  1  0  0  0  0
  6 33  1  0  0  0  0
  7  8  2  0  0  0  0
  7 34  1  0  0  0  0
  8  9  1  0  0  0  0
  9 10  1  0  0  0  0
  9 17  2  0  0  0  0
 10 11  1  0  0  0  0
 10 16  2  0  0  0  0
 11 12  2  0  0  0  0
 11 13  1  0  0  0  0
 13 14  1  0  0  0  0
 13 35  1  0  0  0  0
 14 15  1  0  0  0  0
 14 36  1  0  0  0  0
 14 37  1  0  0  0  0
 15 38  1  0  0  0  0
 15 39  1  0  0  0  0
 15 40  1  0  0  0  0
 16 27  1  0  0  0  0
 17 18  1  0  0  0  0
 17 27  1  0  0  0  0
 18 19  1  0  0  0  0
 18 25  2  0  0  0  0
 19 20  2  0  0  0  0
 19 41  1  0  0  0  0
 20 21  1  0  0  0  0
 20 22  1  0  0  0  0
 22 23  1  0  0  0  0
 22 24  2  0  0  0  0
 23 42  1  0  0  0  0
 24 25  1  0  0  0  0
 24 43  1  0  0  0  0
 25 26  1  0  0  0  0
 26 44  1  0  0  0  0
M  END
>  <DRUGBANK_ID>
DB06964

>  <COMMON_NAME>
5-(5-CHLORO-2,4-DIHYDROXYPHENYL)-N-ETHYL-4-(4-METHOXYPHENYL)ISOXAZOLE-3-CARBOXAMIDE

>  <UNII>
H4E4ND635H

$$$$
