
 OpenBabel10282417072D

 35 37  0  0  0  0  0  0  0  0999 V2000
    0.7181   -0.0336    0.0000 C   0  0  0  0  0  0  0  0  0  0  0  0
   -0.6988   -0.0336    0.0000 N   0  0  0  0  0  0  0  0  0  0  0  0
    1.4362    1.1904    0.0000 N   0  0  0  0  0  0  0  0  0  0  0  0
   -1.4122   -0.4386    0.0000 C   0  0  0  0  0  0  0  0  0  0  0  0
    2.1495   -0.0336    0.0000 C   0  0  0  0  0  0  0  0  0  0  0  0
    0.7181    0.7760    0.0000 C   0  0  0  0  0  0  0  0  0  0  0  0
    2.1495    0.7760    0.0000 N   0  0  0  0  0  0  0  0  0  0  0  0
    1.4362   -0.4386    0.0000 C   0  0  0  0  0  0  0  0  0  0  0  0
    0.0096   -0.4386    0.0000 C   0  0  0  0  0  0  0  0  0  0  0  0
    2.8580   -0.4386    0.0000 N   0  0  0  0  0  0  0  0  0  0  0  0
    0.0096    1.1904    0.0000 C   0  0  0  0  0  0  0  0  0  0  0  0
   -0.6988    0.7760    0.0000 C   0  0  0  0  0  0  0  0  0  0  0  0
   -1.4266   -1.2675    0.0000 O   0  0  0  0  0  0  0  0  0  0  0  0
   -2.1303   -0.0192    0.0000 C   0  0  0  0  0  0  0  0  0  0  0  0
    3.5907   -0.4386    0.0000 N   0  0  0  0  0  0  0  0  0  0  0  0
   -2.1303    0.8338    0.0000 C   0  0  0  0  0  0  0  0  0  0  0  0
   -2.8676   -0.4144    0.0000 C   0  0  0  0  0  0  0  0  0  0  0  0
   -2.8388    1.2675    0.0000 C   0  0  0  0  0  0  0  0  0  0  0  0
   -3.5907    0.0047    0.0000 C   0  0  0  0  0  0  0  0  0  0  0  0
   -3.5907    0.8483    0.0000 C   0  0  0  0  0  0  0  0  0  0  0  0
    3.0028    1.2671    0.0000 H   0  0  0  0  0  0  0  0  0  0  0  0
    1.4377   -1.4706    0.0000 H   0  0  0  0  0  0  0  0  0  0  0  0
    0.0096   -1.5086    0.0000 H   0  0  0  0  0  0  0  0  0  0  0  0
    0.9351   -0.9756    0.0000 H   0  0  0  0  0  0  0  0  0  0  0  0
    0.0096    2.2604    0.0000 H   0  0  0  0  0  0  0  0  0  0  0  0
   -0.9186    1.7227    0.0000 H   0  0  0  0  0  0  0  0  0  0  0  0
   -1.6270    1.3084    0.0000 H   0  0  0  0  0  0  0  0  0  0  0  0
   -0.7034    1.8460    0.0000 H   0  0  0  0  0  0  0  0  0  0  0  0
    4.0830   -1.2912    0.0000 H   0  0  0  0  0  0  0  0  0  0  0  0
    4.0829    0.4140    0.0000 H   0  0  0  0  0  0  0  0  0  0  0  0
   -1.2300    1.3383    0.0000 H   0  0  0  0  0  0  0  0  0  0  0  0
   -2.8847   -1.4463    0.0000 H   0  0  0  0  0  0  0  0  0  0  0  0
   -2.8178    2.2993    0.0000 H   0  0  0  0  0  0  0  0  0  0  0  0
   -4.4849   -0.5106    0.0000 H   0  0  0  0  0  0  0  0  0  0  0  0
   -4.4805    1.3710    0.0000 H   0  0  0  0  0  0  0  0  0  0  0  0
  2  9  1  0  0  0  0
  3  6  2  0  0  0  0
  4  2  1  0  0  0  0
  5  8  1  0  0  0  0
  6  1  1  0  0  0  0
  7  5  1  0  0  0  0
  7  3  1  0  0  0  0
  7 21  1  0  0  0  0
  8  1  2  0  0  0  0
  8 22  1  0  0  0  0
  9  1  1  0  0  0  0
  9 23  1  0  0  0  0
  9 24  1  0  0  0  0
 10  5  2  0  0  0  0
 11  6  1  0  0  0  0
 11 25  1  0  0  0  0
 11 26  1  0  0  0  0
 12  2  1  0  0  0  0
 12 11  1  0  0  0  0
 12 27  1  0  0  0  0
 12 28  1  0  0  0  0
 13  4  2  0  0  0  0
 14  4  1  0  0  0  0
 15 10  1  0  0  0  0
 15 29  1  0  0  0  0
 15 30  1  0  0  0  0
 16 14  2  0  0  0  0
 16 31  1  0  0  0  0
 17 14  1  0  0  0  0
 17 32  1  0  0  0  0
 18 16  1  0  0  0  0
 18 33  1  0  0  0  0
 19 17  2  0  0  0  0
 19 20  1  0  0  0  0
 19 34  1  0  0  0  0
 20 18  2  0  0  0  0
 20 35  1  0  0  0  0
M  END
>  <DRUGBANK_ID>
DB13435

>  <COMMON_NAME>
Endralazine

>  <CAS_NUMBER>
39715-02-1

>  <UNII>
L44741F05P

>  <SYNONYMS>
Endralazina; Endralazine; Endralazinum

$$$$
