
 OpenBabel10282417072D

 10  9  0  0  0  0  0  0  0  0999 V2000
    0.8250    1.4289    0.0000 O   0  0  0  0  0  0  0  0  0  0  0  0
    1.2375    0.7145    0.0000 C   0  0  0  0  0  0  0  0  0  0  0  0
    0.8250    0.0000    0.0000 C   0  0  0  0  0  0  0  0  0  0  0  0
    1.2375   -0.7145    0.0000 Br  0  0  0  0  0  0  0  0  0  0  0  0
    0.0000    0.0000    0.0000 C   0  0  0  0  0  0  0  0  0  0  0  0
    1.3100    2.2690    0.0000 H   0  0  0  0  0  0  0  0  0  0  0  0
    2.3075    0.7145    0.0000 H   0  0  0  0  0  0  0  0  0  0  0  0
    1.7725   -0.2121    0.0000 H   0  0  0  0  0  0  0  0  0  0  0  0
   -0.5160    0.8937    0.0000 H   0  0  0  0  0  0  0  0  0  0  0  0
   -0.5160   -0.8937    0.0000 H   0  0  0  0  0  0  0  0  0  0  0  0
  1  2  1  0  0  0  0
  1  6  1  0  0  0  0
  2  3  1  0  0  0  0
  2  7  1  0  0  0  0
  2  8  1  0  0  0  0
  3  4  1  0  0  0  0
  3  5  2  0  0  0  0
  5  9  1  0  0  0  0
  5 10  1  0  0  0  0
M  END
>  <DRUGBANK_ID>
DB04320

>  <SECONDARY_ACCESSION_NUMBERS>
EXPT00755

>  <COMMON_NAME>
2-Bromo-2-Propene-1-Ol

$$$$
