
 OpenBabel10282417072D

114118  0  0  0  0  0  0  0  0999 V2000
    1.8125   -0.5384    0.0000 C   0  0  2  0  0  0  0  0  0  0  0  0
    1.1042   -0.1155    0.0000 O   0  0  0  0  0  0  0  0  0  0  0  0
   -2.0122    1.0781    0.0000 C   0  0  0  0  0  0  0  0  0  0  0  0
   -0.6131    1.0624    0.0000 C   0  0  0  0  0  0  0  0  0  0  0  0
   -1.2923    1.4841    0.0000 C   0  0  1  0  0  0  0  0  0  0  0  0
   -2.0212    0.2547    0.0000 C   0  0  1  0  0  0  0  0  0  0  0  0
   -0.5987    0.2391    0.0000 C   0  0  2  0  0  0  0  0  0  0  0  0
    0.1384   -1.0008    0.0000 C   0  0  2  0  0  0  0  0  0  0  0  0
    0.1071   -0.1794    0.0000 C   0  0  1  0  0  0  0  0  0  0  0  0
   -2.0357   -1.3918    0.0000 C   0  0  1  0  0  0  0  0  0  0  0  0
   -2.0367   -2.2121    0.0000 O   0  0  0  0  0  0  0  0  0  0  0  0
   -1.3262   -2.6211    0.0000 C   0  0  0  0  0  0  0  0  0  0  0  0
   -0.6187   -2.2139    0.0000 C   0  0  1  0  0  0  0  0  0  0  0  0
   -0.6175   -1.3936    0.0000 C   0  0  0  0  0  0  0  0  0  0  0  0
   -1.3272   -3.4446    0.0000 O   0  0  0  0  0  0  0  0  0  0  0  0
   -2.6664    1.5550    0.0000 O   0  0  0  0  0  0  0  0  0  0  0  0
   -2.8034   -0.9734    0.0000 C   0  0  2  0  0  0  0  0  0  0  0  0
   -2.7933   -0.1499    0.0000 C   0  0  2  0  0  0  0  0  0  0  0  0
   -3.6007    0.1126    0.0000 N   0  0  0  0  0  0  0  0  0  0  0  0
   -4.0945   -0.5484    0.0000 C   0  0  0  0  0  0  0  0  0  0  0  0
   -3.6170   -1.2168    0.0000 O   0  0  0  0  0  0  0  0  0  0  0  0
   -4.9179   -0.5382    0.0000 O   0  0  0  0  0  0  0  0  0  0  0  0
   -1.3223   -0.9714    0.0000 O   0  0  0  0  0  0  0  0  0  0  0  0
   -1.2821    2.3076    0.0000 C   0  0  0  0  0  0  0  0  0  0  0  0
   -2.7843    0.7631    0.0000 C   0  0  0  0  0  0  0  0  0  0  0  0
   -3.1023   -1.7672    0.0000 C   0  0  0  0  0  0  0  0  0  0  0  0
   -2.6034   -1.8807    0.0000 C   0  0  0  0  0  0  0  0  0  0  0  0
   -2.5787   -2.7038    0.0000 C   0  0  0  0  0  0  0  0  0  0  0  0
   -0.1318    0.9377    0.0000 O   0  0  0  0  0  0  0  0  0  0  0  0
   -0.1417    1.7636    0.0000 C   0  0  0  0  0  0  0  0  0  0  0  0
    0.5671    2.1861    0.0000 C   0  0  0  0  0  0  0  0  0  0  0  0
    1.2856    1.7808    0.0000 C   0  0  0  0  0  0  0  0  0  0  0  0
    1.9943    2.2032    0.0000 C   0  0  0  0  0  0  0  0  0  0  0  0
    2.7088    1.7979    0.0000 C   0  0  0  0  0  0  0  0  0  0  0  0
    1.9688    3.0264    0.0000 C   0  0  0  0  0  0  0  0  0  0  0  0
    2.7165    3.4446    0.0000 N   0  0  0  0  0  0  0  0  0  0  0  0
    3.3920    3.0435    0.0000 C   0  0  0  0  0  0  0  0  0  0  0  0
    3.4175    2.2203    0.0000 C   0  0  0  0  0  0  0  0  0  0  0  0
    4.1286    1.7894    0.0000 C   0  0  0  0  0  0  0  0  0  0  0  0
    4.8989    2.1897    0.0000 C   0  0  0  0  0  0  0  0  0  0  0  0
    4.9179    3.0129    0.0000 C   0  0  0  0  0  0  0  0  0  0  0  0
    4.1639    3.4438    0.0000 C   0  0  0  0  0  0  0  0  0  0  0  0
    0.2215    0.3770    0.0000 C   0  0  0  0  0  0  0  0  0  0  0  0
    0.1012   -2.6309    0.0000 C   0  0  0  0  0  0  0  0  0  0  0  0
    0.8065   -1.4276    0.0000 C   0  0  0  0  0  0  0  0  0  0  0  0
    1.8433   -1.3748    0.0000 O   0  0  0  0  0  0  0  0  0  0  0  0
    2.5139   -1.8011    0.0000 C   0  0  1  0  0  0  0  0  0  0  0  0
    3.2817   -1.3961    0.0000 C   0  0  0  0  0  0  0  0  0  0  0  0
    3.2956   -0.5598    0.0000 C   0  0  1  0  0  0  0  0  0  0  0  0
    2.5387   -0.1335    0.0000 C   0  0  1  0  0  0  0  0  0  0  0  0
    2.4924   -2.6217    0.0000 C   0  0  0  0  0  0  0  0  0  0  0  0
    3.9893   -0.1245    0.0000 N   0  0  0  0  0  0  0  0  0  0  0  0
    2.5511    0.7030    0.0000 O   0  0  0  0  0  0  0  0  0  0  0  0
    4.7061   -0.5290    0.0000 C   0  0  0  0  0  0  0  0  0  0  0  0
    3.9811    0.7035    0.0000 C   0  0  0  0  0  0  0  0  0  0  0  0
    0.5573    3.0097    0.0000 H   0  0  0  0  0  0  0  0  0  0  0  0
    1.2955    0.9571    0.0000 H   0  0  0  0  0  0  0  0  0  0  0  0
    0.8918   -1.0836    0.0000 H   0  0  0  0  0  0  0  0  0  0  0  0
    0.3174    1.5906    0.0000 H   0  0  0  0  0  0  0  0  0  0  0  0
   -0.5921    2.1322    0.0000 H   0  0  0  0  0  0  0  0  0  0  0  0
   -2.2129    2.0295    0.0000 H   0  0  0  0  0  0  0  0  0  0  0  0
   -3.0897    0.3109    0.0000 H   0  0  0  0  0  0  0  0  0  0  0  0
    0.0907   -2.0697    0.0000 H   0  0  0  0  0  0  0  0  0  0  0  0
    0.9013   -0.8964    0.0000 H   0  0  0  0  0  0  0  0  0  0  0  0
   -3.0997   -1.5050    0.0000 H   0  0  0  0  0  0  0  0  0  0  0  0
   -0.6202   -3.2839    0.0000 H   0  0  0  0  0  0  0  0  0  0  0  0
   -3.6628   -0.7734    0.0000 H   0  0  0  0  0  0  0  0  0  0  0  0
   -3.8986    1.0509    0.0000 H   0  0  0  0  0  0  0  0  0  0  0  0
   -0.3489    2.8311    0.0000 H   0  0  0  0  0  0  0  0  0  0  0  0
   -2.2021    2.8540    0.0000 H   0  0  0  0  0  0  0  0  0  0  0  0
   -1.2688    3.3775    0.0000 H   0  0  0  0  0  0  0  0  0  0  0  0
   -2.7158    1.8309    0.0000 H   0  0  0  0  0  0  0  0  0  0  0  0
   -3.7433    0.2886    0.0000 H   0  0  0  0  0  0  0  0  0  0  0  0
   -3.6748    1.3564    0.0000 H   0  0  0  0  0  0  0  0  0  0  0  0
   -4.1580   -1.9413    0.0000 H   0  0  0  0  0  0  0  0  0  0  0  0
   -2.4236   -2.5944    0.0000 H   0  0  0  0  0  0  0  0  0  0  0  0
   -3.4794   -2.7686    0.0000 H   0  0  0  0  0  0  0  0  0  0  0  0
   -3.5826   -1.4494    0.0000 H   0  0  0  0  0  0  0  0  0  0  0  0
   -3.4908   -2.4786    0.0000 H   0  0  0  0  0  0  0  0  0  0  0  0
   -3.4889   -3.2664    0.0000 H   0  0  0  0  0  0  0  0  0  0  0  0
   -1.6364   -3.2108    0.0000 H   0  0  0  0  0  0  0  0  0  0  0  0
   -2.5466   -3.7733    0.0000 H   0  0  0  0  0  0  0  0  0  0  0  0
   -1.0752    2.2865    0.0000 H   0  0  0  0  0  0  0  0  0  0  0  0
   -0.1561    2.8335    0.0000 H   0  0  0  0  0  0  0  0  0  0  0  0
    2.7199    0.7660    0.0000 H   0  0  0  0  0  0  0  0  0  0  0  0
    1.0706    3.5346    0.0000 H   0  0  0  0  0  0  0  0  0  0  0  0
    4.0948    0.7580    0.0000 H   0  0  0  0  0  0  0  0  0  0  0  0
    5.7747    1.6439    0.0000 H   0  0  0  0  0  0  0  0  0  0  0  0
    5.8164    3.5205    0.0000 H   0  0  0  0  0  0  0  0  0  0  0  0
    4.1849    4.4756    0.0000 H   0  0  0  0  0  0  0  0  0  0  0  0
    0.9027   -0.4481    0.0000 H   0  0  0  0  0  0  0  0  0  0  0  0
    0.5955    1.3795    0.0000 H   0  0  0  0  0  0  0  0  0  0  0  0
    1.2767    0.5544    0.0000 H   0  0  0  0  0  0  0  0  0  0  0  0
    0.0997   -3.7009    0.0000 H   0  0  0  0  0  0  0  0  0  0  0  0
    1.0286   -2.0972    0.0000 H   0  0  0  0  0  0  0  0  0  0  0  0
    1.0271   -3.1672    0.0000 H   0  0  0  0  0  0  0  0  0  0  0  0
    0.7585   -2.4965    0.0000 H   0  0  0  0  0  0  0  0  0  0  0  0
    1.7562   -0.9347    0.0000 H   0  0  0  0  0  0  0  0  0  0  0  0
    1.7082   -2.0036    0.0000 H   0  0  0  0  0  0  0  0  0  0  0  0
    1.5694   -2.3039    0.0000 H   0  0  0  0  0  0  0  0  0  0  0  0
    4.1933   -1.9563    0.0000 H   0  0  0  0  0  0  0  0  0  0  0  0
    4.2199   -0.8816    0.0000 H   0  0  0  0  0  0  0  0  0  0  0  0
    4.2276   -1.0854    0.0000 H   0  0  0  0  0  0  0  0  0  0  0  0
    3.4665    0.3996    0.0000 H   0  0  0  0  0  0  0  0  0  0  0  0
    1.5521   -3.1322    0.0000 H   0  0  0  0  0  0  0  0  0  0  0  0
    3.4047   -3.1808    0.0000 H   0  0  0  0  0  0  0  0  0  0  0  0
    2.4644   -3.6913    0.0000 H   0  0  0  0  0  0  0  0  0  0  0  0
    3.3982    1.1755    0.0000 H   0  0  0  0  0  0  0  0  0  0  0  0
    4.7166   -1.5989    0.0000 H   0  0  0  0  0  0  0  0  0  0  0  0
    5.6274    0.0151    0.0000 H   0  0  0  0  0  0  0  0  0  0  0  0
    5.6380   -1.0549    0.0000 H   0  0  0  0  0  0  0  0  0  0  0  0
    4.9024    1.2477    0.0000 H   0  0  0  0  0  0  0  0  0  0  0  0
    3.0492    1.2293    0.0000 H   0  0  0  0  0  0  0  0  0  0  0  0
    3.9705    1.7734    0.0000 H   0  0  0  0  0  0  0  0  0  0  0  0
  1  2  1  0  0  0  0
  1 46  1  0  0  0  0
  1 50  1  0  0  0  0
  1 58  1  6  0  0  0
  3 16  2  0  0  0  0
  3  6  1  0  0  0  0
  4  5  1  0  0  0  0
  4 59  1  0  0  0  0
  4 60  1  0  0  0  0
  5  3  1  0  0  0  0
  5 24  1  0  0  0  0
  5 61  1  1  0  0  0
  6 18  1  0  0  0  0
  6 25  1  0  0  0  0
  6 62  1  6  0  0  0
  7  4  1  0  0  0  0
  7 29  1  1  0  0  0
  7 43  1  0  0  0  0
  8  9  1  0  0  0  0
  8 45  1  0  0  0  0
  8 63  1  6  0  0  0
  9  7  1  0  0  0  0
  9  2  1  0  0  0  0
  9 64  1  1  0  0  0
 10 11  1  0  0  0  0
 10 27  1  0  0  0  0
 10 65  1  1  0  0  0
 11 12  1  0  0  0  0
 12 13  1  0  0  0  0
 12 15  2  0  0  0  0
 13 14  1  0  0  0  0
 13 44  1  0  0  0  0
 13 66  1  6  0  0  0
 14  8  1  0  0  0  0
 14 23  2  0  0  0  0
 17 18  1  0  0  0  0
 17 21  1  0  0  0  0
 17 10  1  0  0  0  0
 17 26  1  6  0  0  0
 18 19  1  0  0  0  0
 18 67  1  1  0  0  0
 19 20  1  0  0  0  0
 19 68  1  0  0  0  0
 20 22  2  0  0  0  0
 21 20  1  0  0  0  0
 24 69  1  0  0  0  0
 24 70  1  0  0  0  0
 24 71  1  0  0  0  0
 25 72  1  0  0  0  0
 25 73  1  0  0  0  0
 25 74  1  0  0  0  0
 26 75  1  0  0  0  0
 26 76  1  0  0  0  0
 26 77  1  0  0  0  0
 27 28  1  0  0  0  0
 27 78  1  0  0  0  0
 27 79  1  0  0  0  0
 28 80  1  0  0  0  0
 28 81  1  0  0  0  0
 28 82  1  0  0  0  0
 29 30  1  0  0  0  0
 30 31  1  0  0  0  0
 30 83  1  0  0  0  0
 30 84  1  0  0  0  0
 31 32  2  3  0  0  0
 31 56  1  0  0  0  0
 32 33  1  0  0  0  0
 32 57  1  0  0  0  0
 33 34  2  0  0  0  0
 33 35  1  0  0  0  0
 34 85  1  0  0  0  0
 35 36  2  0  0  0  0
 35 86  1  0  0  0  0
 36 37  1  0  0  0  0
 37 38  2  0  0  0  0
 37 42  1  0  0  0  0
 38 34  1  0  0  0  0
 38 39  1  0  0  0  0
 39 40  2  0  0  0  0
 39 87  1  0  0  0  0
 40 41  1  0  0  0  0
 40 88  1  0  0  0  0
 41 42  2  0  0  0  0
 41 89  1  0  0  0  0
 42 90  1  0  0  0  0
 43 91  1  0  0  0  0
 43 92  1  0  0  0  0
 43 93  1  0  0  0  0
 44 94  1  0  0  0  0
 44 95  1  0  0  0  0
 44 96  1  0  0  0  0
 45 97  1  0  0  0  0
 45 98  1  0  0  0  0
 45 99  1  0  0  0  0
 46 47  1  0  0  0  0
 47 48  1  0  0  0  0
 47 51  1  0  0  0  0
 47100  1  6  0  0  0
 48 49  1  0  0  0  0
 48101  1  0  0  0  0
 48102  1  0  0  0  0
 49 50  1  0  0  0  0
 49 52  1  0  0  0  0
 49103  1  6  0  0  0
 50 53  1  0  0  0  0
 50104  1  1  0  0  0
 51105  1  0  0  0  0
 51106  1  0  0  0  0
 51107  1  0  0  0  0
 52 54  1  0  0  0  0
 52 55  1  0  0  0  0
 53108  1  0  0  0  0
 54109  1  0  0  0  0
 54110  1  0  0  0  0
 54111  1  0  0  0  0
 55112  1  0  0  0  0
 55113  1  0  0  0  0
 55114  1  0  0  0  0
M  END
>  <DRUGBANK_ID>
DB06419

>  <COMMON_NAME>
Cethromycin

>  <CAS_NUMBER>
205110-48-1

>  <UNII>
J0086219X6

>  <SYNONYMS>
Cethromycin; CÃ©thromycine; Cethromycinum; Cetromicina

$$$$
