
 OpenBabel10282417072D

146150  0  0  0  0  0  0  0  0999 V2000
   -2.9099   -0.5199    0.0000 S   0  0  0  0  0  0  0  0  0  0  0  0
   -2.7393    0.2871    0.0000 S   0  0  0  0  0  0  0  0  0  0  0  0
    1.1562   -4.4464    0.0000 O   0  0  0  0  0  0  0  0  0  0  0  0
    3.5462   -2.5065    0.0000 O   0  0  0  0  0  0  0  0  0  0  0  0
   -1.8856   -4.0273    0.0000 O   0  0  0  0  0  0  0  0  0  0  0  0
    3.7636    0.5665    0.0000 O   0  0  0  0  0  0  0  0  0  0  0  0
    1.6529    2.8169    0.0000 O   0  0  0  0  0  0  0  0  0  0  0  0
   -1.4201    2.8169    0.0000 O   0  0  0  0  0  0  0  0  0  0  0  0
   -3.4376    1.3735    0.0000 O   0  0  0  0  0  0  0  0  0  0  0  0
   -3.3600   -3.3289    0.0000 O   0  0  0  0  0  0  0  0  0  0  0  0
   -4.7102    4.0584    0.0000 O   0  0  0  0  0  0  0  0  0  0  0  0
    0.1164   -3.0341    0.0000 N   0  0  0  0  0  0  0  0  0  0  0  0
    1.8080   -2.4754    0.0000 N   0  0  0  0  0  0  0  0  0  0  0  0
    2.6617   -0.5199    0.0000 N   0  0  0  0  0  0  0  0  0  0  0  0
   -1.6994   -2.1960    0.0000 N   0  0  0  0  0  0  0  0  0  0  0  0
    0.8303   -5.6569    0.0000 N   0  0  0  0  0  0  0  0  0  0  0  0
    1.4666    1.2183    0.0000 N   0  0  0  0  0  0  0  0  0  0  0  0
   -0.3802    1.7925    0.0000 N   0  0  0  0  0  0  0  0  0  0  0  0
   -2.3202    2.2736    0.0000 N   0  0  0  0  0  0  0  0  0  0  0  0
    4.2136   -4.6947    0.0000 N   0  0  0  0  0  0  0  0  0  0  0  0
    3.8257    2.8633    0.0000 N   0  0  0  0  0  0  0  0  0  0  0  0
   -4.4774    2.6461    0.0000 N   0  0  0  0  0  0  0  0  0  0  0  0
    2.6772    3.5618    0.0000 N   0  0  0  0  0  0  0  0  0  0  0  0
   -4.0118   -2.0563    0.0000 N   0  0  0  0  0  0  0  0  0  0  0  0
   -4.1204    5.6104    0.0000 N   0  0  0  0  0  0  0  0  0  0  0  0
    4.2446   -6.1381    0.0000 N   0  0  0  0  0  0  0  0  0  0  0  0
    5.4707   -5.3931    0.0000 N   0  0  0  0  0  0  0  0  0  0  0  0
   -4.3377    7.0227    0.0000 N   0  0  0  0  0  0  0  0  0  0  0  0
   -3.0030    6.5105    0.0000 N   0  0  0  0  0  0  0  0  0  0  0  0
    1.6994   -3.3289    0.0000 C   0  0  1  0  0  0  0  0  0  0  0  0
   -0.7061   -3.6549    0.0000 C   0  0  1  0  0  0  0  0  0  0  0  0
    2.1184   -4.0273    0.0000 C   0  0  0  0  0  0  0  0  0  0  0  0
   -0.9233   -4.4464    0.0000 C   0  0  0  0  0  0  0  0  0  0  0  0
    3.0961   -1.3424    0.0000 C   0  0  1  0  0  0  0  0  0  0  0  0
    0.9389   -3.6549    0.0000 C   0  0  0  0  0  0  0  0  0  0  0  0
   -0.3492   -5.0362    0.0000 C   0  0  0  0  0  0  0  0  0  0  0  0
    2.9564   -4.0118    0.0000 C   0  0  0  0  0  0  0  0  0  0  0  0
    2.8168   -2.1184    0.0000 C   0  0  0  0  0  0  0  0  0  0  0  0
    3.9033   -1.5132    0.0000 C   0  0  0  0  0  0  0  0  0  0  0  0
    2.5996    1.0165    0.0000 C   0  0  2  0  0  0  0  0  0  0  0  0
   -0.4889   -5.8432    0.0000 C   0  0  0  0  0  0  0  0  0  0  0  0
   -1.4666   -3.3289    0.0000 C   0  0  0  0  0  0  0  0  0  0  0  0
    0.2406   -6.2313    0.0000 C   0  0  0  0  0  0  0  0  0  0  0  0
    2.9720    0.2871    0.0000 C   0  0  0  0  0  0  0  0  0  0  0  0
    0.4578   -4.9276    0.0000 C   0  0  0  0  0  0  0  0  0  0  0  0
    3.2669    1.4977    0.0000 C   0  0  0  0  0  0  0  0  0  0  0  0
    3.3756   -4.7103    0.0000 C   0  0  0  0  0  0  0  0  0  0  0  0
    4.4464   -0.8923    0.0000 C   0  0  0  0  0  0  0  0  0  0  0  0
   -2.5840   -2.1184    0.0000 C   0  0  1  0  0  0  0  0  0  0  0  0
   -1.1872   -6.2932    0.0000 C   0  0  0  0  0  0  0  0  0  0  0  0
    0.5354    2.2892    0.0000 C   0  0  1  0  0  0  0  0  0  0  0  0
   -1.8080    1.6218    0.0000 C   0  0  2  0  0  0  0  0  0  0  0  0
    1.3269    2.0563    0.0000 C   0  0  0  0  0  0  0  0  0  0  0  0
    0.2871   -7.0538    0.0000 C   0  0  0  0  0  0  0  0  0  0  0  0
    3.2048    2.3202    0.0000 C   0  0  0  0  0  0  0  0  0  0  0  0
   -3.6549    2.7858    0.0000 C   0  0  1  0  0  0  0  0  0  0  0  0
   -2.3667   -1.2182    0.0000 C   0  0  0  0  0  0  0  0  0  0  0  0
   -3.3755    3.5463    0.0000 C   0  0  0  0  0  0  0  0  0  0  0  0
   -1.1562   -7.1158    0.0000 C   0  0  0  0  0  0  0  0  0  0  0  0
   -1.0941    2.0563    0.0000 C   0  0  0  0  0  0  0  0  0  0  0  0
    4.1825   -0.1163    0.0000 C   0  0  0  0  0  0  0  0  0  0  0  0
    5.2534   -1.0631    0.0000 C   0  0  0  0  0  0  0  0  0  0  0  0
   -1.8856    0.7837    0.0000 C   0  0  0  0  0  0  0  0  0  0  0  0
   -0.4112   -7.5038    0.0000 C   0  0  0  0  0  0  0  0  0  0  0  0
   -3.1427    2.1339    0.0000 C   0  0  0  0  0  0  0  0  0  0  0  0
   -3.8877    4.1981    0.0000 C   0  0  0  0  0  0  0  0  0  0  0  0
   -3.3135   -2.5065    0.0000 C   0  0  0  0  0  0  0  0  0  0  0  0
    0.6440    3.0962    0.0000 C   0  0  0  0  0  0  0  0  0  0  0  0
    2.4909    2.7548    0.0000 C   0  0  0  0  0  0  0  0  0  0  0  0
    4.7413    0.5044    0.0000 C   0  0  0  0  0  0  0  0  0  0  0  0
    5.8122   -0.4423    0.0000 C   0  0  0  0  0  0  0  0  0  0  0  0
   -3.5928    4.9742    0.0000 C   0  0  0  0  0  0  0  0  0  0  0  0
    5.5483    0.3337    0.0000 C   0  0  0  0  0  0  0  0  0  0  0  0
    3.4997    3.6239    0.0000 C   0  0  0  0  0  0  0  0  0  0  0  0
    4.6327   -5.4086    0.0000 C   0  0  0  0  0  0  0  0  0  0  0  0
   -5.0052    3.2979    0.0000 C   0  0  0  0  0  0  0  0  0  0  0  0
   -5.8122    3.1582    0.0000 C   0  0  0  0  0  0  0  0  0  0  0  0
   -3.8256    6.3864    0.0000 C   0  0  0  0  0  0  0  0  0  0  0  0
    1.3425   -5.7345    0.0000 H   0  0  0  0  0  0  0  0  0  0  0  0
   -2.1339    2.7548    0.0000 H   0  0  0  0  0  0  0  0  0  0  0  0
    4.3222    2.7548    0.0000 H   0  0  0  0  0  0  0  0  0  0  0  0
   -4.6637    2.1650    0.0000 H   0  0  0  0  0  0  0  0  0  0  0  0
   -3.9963   -1.5442    0.0000 H   0  0  0  0  0  0  0  0  0  0  0  0
   -4.4619   -2.2891    0.0000 H   0  0  0  0  0  0  0  0  0  0  0  0
   -4.1670    7.5038    0.0000 H   0  0  0  0  0  0  0  0  0  0  0  0
   -4.8499    6.9451    0.0000 H   0  0  0  0  0  0  0  0  0  0  0  0
   -2.8168    6.9917    0.0000 H   0  0  0  0  0  0  0  0  0  0  0  0
   -2.6772    6.1226    0.0000 H   0  0  0  0  0  0  0  0  0  0  0  0
    0.1164   -2.0496    0.0000 H   0  0  0  0  0  0  0  0  0  0  0  0
    1.0416   -1.8574    0.0000 H   0  0  0  0  0  0  0  0  0  0  0  0
    1.6789   -0.5784    0.0000 H   0  0  0  0  0  0  0  0  0  0  0  0
   -1.0445   -1.4609    0.0000 H   0  0  0  0  0  0  0  0  0  0  0  0
    0.7666    0.5260    0.0000 H   0  0  0  0  0  0  0  0  0  0  0  0
   -0.3098    0.8105    0.0000 H   0  0  0  0  0  0  0  0  0  0  0  0
    3.2607   -6.1722    0.0000 H   0  0  0  0  0  0  0  0  0  0  0  0
    4.7661   -6.9731    0.0000 H   0  0  0  0  0  0  0  0  0  0  0  0
    5.9786   -6.2365    0.0000 H   0  0  0  0  0  0  0  0  0  0  0  0
    5.9471   -4.5315    0.0000 H   0  0  0  0  0  0  0  0  0  0  0  0
    2.7466   -3.1091    0.0000 H   0  0  0  0  0  0  0  0  0  0  0  0
    0.1794   -4.2556    0.0000 H   0  0  0  0  0  0  0  0  0  0  0  0
    1.5998   -4.9632    0.0000 H   0  0  0  0  0  0  0  0  0  0  0  0
    2.6701   -4.9441    0.0000 H   0  0  0  0  0  0  0  0  0  0  0  0
   -1.9595   -4.7132    0.0000 H   0  0  0  0  0  0  0  0  0  0  0  0
   -1.2122   -5.4767    0.0000 H   0  0  0  0  0  0  0  0  0  0  0  0
    3.7408   -0.4885    0.0000 H   0  0  0  0  0  0  0  0  0  0  0  0
    3.4749   -3.0758    0.0000 H   0  0  0  0  0  0  0  0  0  0  0  0
    4.0262   -3.9933    0.0000 H   0  0  0  0  0  0  0  0  0  0  0  0
    4.2417   -2.5283    0.0000 H   0  0  0  0  0  0  0  0  0  0  0  0
    4.9523   -1.7241    0.0000 H   0  0  0  0  0  0  0  0  0  0  0  0
    2.3617    2.0597    0.0000 H   0  0  0  0  0  0  0  0  0  0  0  0
    0.9366   -4.0134    0.0000 H   0  0  0  0  0  0  0  0  0  0  0  0
    4.2371    1.0465    0.0000 H   0  0  0  0  0  0  0  0  0  0  0  0
    4.1467    2.1066    0.0000 H   0  0  0  0  0  0  0  0  0  0  0  0
    2.8571   -5.6463    0.0000 H   0  0  0  0  0  0  0  0  0  0  0  0
    2.3058   -4.7289    0.0000 H   0  0  0  0  0  0  0  0  0  0  0  0
   -2.3707   -3.1669    0.0000 H   0  0  0  0  0  0  0  0  0  0  0  0
   -2.1024   -5.8163    0.0000 H   0  0  0  0  0  0  0  0  0  0  0  0
   -0.3454    2.8967    0.0000 H   0  0  0  0  0  0  0  0  0  0  0  0
   -1.6175    2.6747    0.0000 H   0  0  0  0  0  0  0  0  0  0  0  0
    1.2068   -7.5220    0.0000 H   0  0  0  0  0  0  0  0  0  0  0  0
   -4.3389    3.6087    0.0000 H   0  0  0  0  0  0  0  0  0  0  0  0
   -1.3207   -0.9929    0.0000 H   0  0  0  0  0  0  0  0  0  0  0  0
   -1.6195   -1.9841    0.0000 H   0  0  0  0  0  0  0  0  0  0  0  0
   -2.3187    3.7136    0.0000 H   0  0  0  0  0  0  0  0  0  0  0  0
   -2.9847    4.5424    0.0000 H   0  0  0  0  0  0  0  0  0  0  0  0
   -2.0283   -7.6676    0.0000 H   0  0  0  0  0  0  0  0  0  0  0  0
    3.1716    0.0913    0.0000 H   0  0  0  0  0  0  0  0  0  0  0  0
    5.5728   -2.0444    0.0000 H   0  0  0  0  0  0  0  0  0  0  0  0
   -0.9837    0.2080    0.0000 H   0  0  0  0  0  0  0  0  0  0  0  0
   -0.9245    1.2541    0.0000 H   0  0  0  0  0  0  0  0  0  0  0  0
   -0.3636   -8.5347    0.0000 H   0  0  0  0  0  0  0  0  0  0  0  0
   -4.9455    4.0367    0.0000 H   0  0  0  0  0  0  0  0  0  0  0  0
   -4.5601    5.0304    0.0000 H   0  0  0  0  0  0  0  0  0  0  0  0
    1.6337    3.5028    0.0000 H   0  0  0  0  0  0  0  0  0  0  0  0
   -0.2030    3.7500    0.0000 H   0  0  0  0  0  0  0  0  0  0  0  0
    0.7867    4.1566    0.0000 H   0  0  0  0  0  0  0  0  0  0  0  0
    1.5398    2.3543    0.0000 H   0  0  0  0  0  0  0  0  0  0  0  0
    4.4219    1.4857    0.0000 H   0  0  0  0  0  0  0  0  0  0  0  0
    6.8231   -0.6499    0.0000 H   0  0  0  0  0  0  0  0  0  0  0  0
   -2.5373    5.1495    0.0000 H   0  0  0  0  0  0  0  0  0  0  0  0
   -2.9149    4.1463    0.0000 H   0  0  0  0  0  0  0  0  0  0  0  0
    6.2332    1.1057    0.0000 H   0  0  0  0  0  0  0  0  0  0  0  0
    4.0349    4.5063    0.0000 H   0  0  0  0  0  0  0  0  0  0  0  0
   -6.4974    3.9800    0.0000 H   0  0  0  0  0  0  0  0  0  0  0  0
   -6.1813    2.1539    0.0000 H   0  0  0  0  0  0  0  0  0  0  0  0
   -6.8665    2.9757    0.0000 H   0  0  0  0  0  0  0  0  0  0  0  0
  1  2  1  0  0  0  0
  1 57  1  0  0  0  0
  2 63  1  0  0  0  0
  3 35  2  0  0  0  0
  4 38  2  0  0  0  0
  5 42  2  0  0  0  0
  6 44  2  0  0  0  0
  7 53  2  0  0  0  0
  8 60  2  0  0  0  0
  9 65  2  0  0  0  0
 10 67  2  0  0  0  0
 11 76  2  0  0  0  0
 12 31  1  0  0  0  0
 12 35  1  0  0  0  0
 12 89  1  0  0  0  0
 13 30  1  0  0  0  0
 13 38  1  0  0  0  0
 13 90  1  0  0  0  0
 14 34  1  0  0  0  0
 14 44  1  0  0  0  0
 14 91  1  0  0  0  0
 15 42  1  0  0  0  0
 15 49  1  0  0  0  0
 15 92  1  0  0  0  0
 16 43  1  0  0  0  0
 16 45  1  0  0  0  0
 16 79  1  0  0  0  0
 17 40  1  0  0  0  0
 17 53  1  0  0  0  0
 17 93  1  0  0  0  0
 18 51  1  0  0  0  0
 18 60  1  0  0  0  0
 18 94  1  0  0  0  0
 19 65  1  0  0  0  0
 19 80  1  0  0  0  0
 20 47  1  0  0  0  0
 20 75  2  0  0  0  0
 21 55  1  0  0  0  0
 21 74  1  0  0  0  0
 21 81  1  0  0  0  0
 22 76  1  0  0  0  0
 22 82  1  0  0  0  0
 23 69  1  0  0  0  0
 23 74  2  0  0  0  0
 24 67  1  0  0  0  0
 24 83  1  0  0  0  0
 24 84  1  0  0  0  0
 25 72  1  0  0  0  0
 25 78  2  0  0  0  0
 26 75  1  0  0  0  0
 26 95  1  0  0  0  0
 26 96  1  0  0  0  0
 27 75  1  0  0  0  0
 27 97  1  0  0  0  0
 27 98  1  0  0  0  0
 28 78  1  0  0  0  0
 28 85  1  0  0  0  0
 28 86  1  0  0  0  0
 29 78  1  0  0  0  0
 29 87  1  0  0  0  0
 29 88  1  0  0  0  0
 30 32  1  0  0  0  0
 30 35  1  0  0  0  0
 30 99  1  6  0  0  0
 31 33  1  0  0  0  0
 31 42  1  0  0  0  0
 31100  1  6  0  0  0
 32 37  1  0  0  0  0
 32101  1  0  0  0  0
 32102  1  0  0  0  0
 33 36  1  0  0  0  0
 33103  1  0  0  0  0
 33104  1  0  0  0  0
 34 38  1  0  0  0  0
 34 39  1  0  0  0  0
 34105  1  1  0  0  0
 36 41  1  0  0  0  0
 36 45  2  0  0  0  0
 37 47  1  0  0  0  0
 37106  1  0  0  0  0
 37107  1  0  0  0  0
 39 48  1  0  0  0  0
 39108  1  0  0  0  0
 39109  1  0  0  0  0
 40 44  1  0  0  0  0
 40 46  1  0  0  0  0
 40110  1  6  0  0  0
 41 43  1  0  0  0  0
 41 50  2  0  0  0  0
 43 54  2  0  0  0  0
 45111  1  0  0  0  0
 46 55  1  0  0  0  0
 46112  1  0  0  0  0
 46113  1  0  0  0  0
 47114  1  0  0  0  0
 47115  1  0  0  0  0
 48 61  2  0  0  0  0
 48 62  1  0  0  0  0
 49 57  1  0  0  0  0
 49 67  1  0  0  0  0
 49116  1  1  0  0  0
 50 59  1  0  0  0  0
 50117  1  0  0  0  0
 51 53  1  0  0  0  0
 51 68  1  0  0  0  0
 51118  1  1  0  0  0
 52 19  1  0  0  0  0
 52 60  1  0  0  0  0
 52 63  1  0  0  0  0
 52119  1  1  0  0  0
 54 64  1  0  0  0  0
 54120  1  0  0  0  0
 55 69  2  0  0  0  0
 56 22  1  0  0  0  0
 56 58  1  0  0  0  0
 56 65  1  0  0  0  0
 56121  1  6  0  0  0
 57122  1  0  0  0  0
 57123  1  0  0  0  0
 58 66  1  0  0  0  0
 58124  1  0  0  0  0
 58125  1  0  0  0  0
 59 64  2  0  0  0  0
 59126  1  0  0  0  0
 61 70  1  0  0  0  0
 61127  1  0  0  0  0
 62 71  2  0  0  0  0
 62128  1  0  0  0  0
 63129  1  0  0  0  0
 63130  1  0  0  0  0
 64131  1  0  0  0  0
 66 72  1  0  0  0  0
 66132  1  0  0  0  0
 66133  1  0  0  0  0
 68134  1  0  0  0  0
 68135  1  0  0  0  0
 68136  1  0  0  0  0
 69137  1  0  0  0  0
 70 73  2  0  0  0  0
 70138  1  0  0  0  0
 71 73  1  0  0  0  0
 71139  1  0  0  0  0
 72140  1  0  0  0  0
 72141  1  0  0  0  0
 73142  1  0  0  0  0
 74143  1  0  0  0  0
 76 77  1  0  0  0  0
 77144  1  0  0  0  0
 77145  1  0  0  0  0
 77146  1  0  0  0  0
M  END
>  <DRUGBANK_ID>
DB11700

>  <COMMON_NAME>
Setmelanotide

>  <CAS_NUMBER>
920014-72-8

>  <UNII>
N7T15V1FUY

>  <SYNONYMS>
Setmelanotida; Setmelanotide; Setmélanotide; Setmelanotidum

$$$$
