
 OpenBabel10282417072D

 27 27  0  0  0  0  0  0  0  0999 V2000
    0.3695   -0.4011    0.0000 C   0  0  0  0  0  0  0  0  0  0  0  0
   -0.3351    0.0114    0.0000 C   0  0  0  0  0  0  0  0  0  0  0  0
   -1.0742   -0.4125    0.0000 C   0  0  0  0  0  0  0  0  0  0  0  0
    0.3695   -1.2375    0.0000 O   0  0  0  0  0  0  0  0  0  0  0  0
    1.0915    0.0114    0.0000 N   0  0  0  0  0  0  0  0  0  0  0  0
   -1.8133   -0.0057    0.0000 C   0  0  0  0  0  0  0  0  0  0  0  0
    3.2400   -0.4011    0.0000 O   0  0  0  0  0  0  0  0  0  0  0  0
    1.8133   -0.4011    0.0000 C   0  0  0  0  0  0  0  0  0  0  0  0
    2.5294    0.0114    0.0000 C   0  0  0  0  0  0  0  0  0  0  0  0
   -2.5238   -0.4125    0.0000 C   0  0  0  0  0  0  0  0  0  0  0  0
   -1.8133    0.8193    0.0000 C   0  0  0  0  0  0  0  0  0  0  0  0
   -2.5181    1.2375    0.0000 C   0  0  0  0  0  0  0  0  0  0  0  0
   -3.2400   -0.0057    0.0000 C   0  0  0  0  0  0  0  0  0  0  0  0
   -3.2400    0.8078    0.0000 C   0  0  0  0  0  0  0  0  0  0  0  0
   -0.3305    1.0434    0.0000 H   0  0  0  0  0  0  0  0  0  0  0  0
   -1.0651   -1.4445    0.0000 H   0  0  0  0  0  0  0  0  0  0  0  0
    1.0916    0.9959    0.0000 H   0  0  0  0  0  0  0  0  0  0  0  0
    3.2377   -1.3711    0.0000 H   0  0  0  0  0  0  0  0  0  0  0  0
    1.8151   -1.4711    0.0000 H   0  0  0  0  0  0  0  0  0  0  0  0
    2.7401   -0.9358    0.0000 H   0  0  0  0  0  0  0  0  0  0  0  0
    2.5312    1.0814    0.0000 H   0  0  0  0  0  0  0  0  0  0  0  0
    1.6035    0.5476    0.0000 H   0  0  0  0  0  0  0  0  0  0  0  0
   -2.5220   -1.4445    0.0000 H   0  0  0  0  0  0  0  0  0  0  0  0
   -0.9165    1.3300    0.0000 H   0  0  0  0  0  0  0  0  0  0  0  0
   -2.5188    2.2695    0.0000 H   0  0  0  0  0  0  0  0  0  0  0  0
   -4.1319   -0.5248    0.0000 H   0  0  0  0  0  0  0  0  0  0  0  0
   -4.1372    1.3178    0.0000 H   0  0  0  0  0  0  0  0  0  0  0  0
  2  1  1  0  0  0  0
  2 15  1  0  0  0  0
  3  2  2  0  0  0  0
  3 16  1  0  0  0  0
  4  1  2  0  0  0  0
  5  1  1  0  0  0  0
  5 17  1  0  0  0  0
  6  3  1  0  0  0  0
  7  9  1  0  0  0  0
  7 18  1  0  0  0  0
  8  5  1  0  0  0  0
  8 19  1  0  0  0  0
  8 20  1  0  0  0  0
  9  8  1  0  0  0  0
  9 21  1  0  0  0  0
  9 22  1  0  0  0  0
 10  6  2  0  0  0  0
 10 23  1  0  0  0  0
 11  6  1  0  0  0  0
 11 24  1  0  0  0  0
 12 11  2  0  0  0  0
 12 25  1  0  0  0  0
 13 10  1  0  0  0  0
 13 26  1  0  0  0  0
 14 12  1  0  0  0  0
 14 13  2  0  0  0  0
 14 27  1  0  0  0  0
M  END
>  <DRUGBANK_ID>
DB13297

>  <COMMON_NAME>
Idrocilamide

>  <CAS_NUMBER>
6961-46-2

>  <UNII>
6C816LUB1O

>  <SYNONYMS>
Idrocilamide; N-(2-hydroxyethyl)cinnamamide

$$$$
