207
 OpenBabel10282417072D

 36 38  0  0  0  0  0  0  0  0999 V2000
    1.3330   -1.4179    0.0000 N   0  0  0  0  0  0  0  0  0  0  0  0
    1.3330   -2.2429    0.0000 C   0  0  0  0  0  0  0  0  0  0  0  0
    0.6186   -2.6554    0.0000 C   0  0  0  0  0  0  0  0  0  0  0  0
   -0.0959   -2.2429    0.0000 C   0  0  0  0  0  0  0  0  0  0  0  0
   -0.0959   -1.4179    0.0000 C   0  0  0  0  0  0  0  0  0  0  0  0
    0.6186   -1.0054    0.0000 C   0  0  0  0  0  0  0  0  0  0  0  0
    0.6186   -0.1804    0.0000 O   0  0  0  0  0  0  0  0  0  0  0  0
   -0.0959    0.2321    0.0000 C   0  0  0  0  0  0  0  0  0  0  0  0
   -0.8805   -1.1630    0.0000 N   0  0  0  0  0  0  0  0  0  0  0  0
   -1.3655   -1.8304    0.0000 C   0  0  0  0  0  0  0  0  0  0  0  0
   -0.8805   -2.4979    0.0000 N   0  0  0  0  0  0  0  0  0  0  0  0
    2.0475   -2.6554    0.0000 N   0  0  0  0  0  0  0  0  0  0  0  0
   -0.0959    1.0571    0.0000 C   0  0  0  0  0  0  0  0  0  0  0  0
   -0.8104    1.4696    0.0000 C   0  0  0  0  0  0  0  0  0  0  0  0
   -0.8104    2.2946    0.0000 C   0  0  0  0  0  0  0  0  0  0  0  0
   -0.0959    2.7071    0.0000 C   0  0  0  0  0  0  0  0  0  0  0  0
    0.6186    2.2946    0.0000 C   0  0  0  0  0  0  0  0  0  0  0  0
    0.6186    1.4696    0.0000 C   0  0  0  0  0  0  0  0  0  0  0  0
    0.6186   -3.6874    0.0000 H   0  0  0  0  0  0  0  0  0  0  0  0
   -1.0225   -0.3029    0.0000 H   0  0  0  0  0  0  0  0  0  0  0  0
   -1.0225    0.7671    0.0000 H   0  0  0  0  0  0  0  0  0  0  0  0
   -2.3975   -1.8304    0.0000 H   0  0  0  0  0  0  0  0  0  0  0  0
   -1.1847   -3.4342    0.0000 H   0  0  0  0  0  0  0  0  0  0  0  0
    2.0475   -3.6399    0.0000 H   0  0  0  0  0  0  0  0  0  0  0  0
    2.9001   -2.1631    0.0000 H   0  0  0  0  0  0  0  0  0  0  0  0
   -0.0959    2.1271    0.0000 H   0  0  0  0  0  0  0  0  0  0  0  0
   -1.7370    0.9346    0.0000 H   0  0  0  0  0  0  0  0  0  0  0  0
   -1.7370    2.0046    0.0000 H   0  0  0  0  0  0  0  0  0  0  0  0
   -1.7370    2.8296    0.0000 H   0  0  0  0  0  0  0  0  0  0  0  0
   -0.8104    3.3646    0.0000 H   0  0  0  0  0  0  0  0  0  0  0  0
   -0.0959    3.7771    0.0000 H   0  0  0  0  0  0  0  0  0  0  0  0
    0.8307    3.2421    0.0000 H   0  0  0  0  0  0  0  0  0  0  0  0
    1.5452    2.8296    0.0000 H   0  0  0  0  0  0  0  0  0  0  0  0
    1.5452    1.7596    0.0000 H   0  0  0  0  0  0  0  0  0  0  0  0
    1.5452    0.9346    0.0000 H   0  0  0  0  0  0  0  0  0  0  0  0
    1.5452    2.0046    0.0000 H   0  0  0  0  0  0  0  0  0  0  0  0
  1  2  2  0  0  0  0
  1  6  1  0  0  0  0
  2  3  1  0  0  0  0
  2 12  1  0  0  0  0
  3  4  2  0  0  0  0
  3 19  1  0  0  0  0
  4  5  1  0  0  0  0
  4 11  1  0  0  0  0
  5  6  2  0  0  0  0
  5  9  1  0  0  0  0
  6  7  1  0  0  0  0
  7  8  1  0  0  0  0
  8 13  1  0  0  0  0
  8 20  1  0  0  0  0
  8 21  1  0  0  0  0
  9 10  2  0  0  0  0
 10 11  1  0  0  0  0
 10 22  1  0  0  0  0
 11 23  1  0  0  0  0
 12 24  1  0  0  0  0
 12 25  1  0  0  0  0
 13 14  1  0  0  0  0
 13 18  1  0  0  0  0
 13 26  1  0  0  0  0
 14 15  1  0  0  0  0
 14 27  1  0  0  0  0
 14 28  1  0  0  0  0
 15 16  1  0  0  0  0
 15 29  1  0  0  0  0
 15 30  1  0  0  0  0
 16 17  1  0  0  0  0
 16 31  1  0  0  0  0
 16 32  1  0  0  0  0
 17 18  1  0  0  0  0
 17 33  1  0  0  0  0
 17 34  1  0  0  0  0
 18 35  1  0  0  0  0
 18 36  1  0  0  0  0
M  END
>  <DRUGBANK_ID>
DB02603

>  <SECONDARY_ACCESSION_NUMBERS>
EXPT00086

>  <COMMON_NAME>
1-Amino-6-Cyclohex-3-Enylmethyloxypurine

$$$$
