
 OpenBabel10282417072D

 39 41  0  0  0  0  0  0  0  0999 V2000
   -0.8873    1.5571    0.0000 C   0  0  0  0  0  0  0  0  0  0  0  0
   -0.8873    0.7321    0.0000 C   0  0  0  0  0  0  0  0  0  0  0  0
   -0.2198    0.2472    0.0000 C   0  0  0  0  0  0  0  0  0  0  0  0
    0.5647    0.5021    0.0000 N   0  0  0  0  0  0  0  0  0  0  0  0
    0.7362    1.3091    0.0000 C   0  0  0  0  0  0  0  0  0  0  0  0
    0.1231    1.8611    0.0000 O   0  0  0  0  0  0  0  0  0  0  0  0
    1.5208    1.5640    0.0000 C   0  0  0  0  0  0  0  0  0  0  0  0
    1.6924    2.3710    0.0000 C   0  0  0  0  0  0  0  0  0  0  0  0
    2.4770    2.6259    0.0000 C   0  0  0  0  0  0  0  0  0  0  0  0
    3.0901    2.0739    0.0000 C   0  0  0  0  0  0  0  0  0  0  0  0
    2.9186    1.2669    0.0000 N   0  0  0  0  0  0  0  0  0  0  0  0
    2.1339    1.0120    0.0000 C   0  0  0  0  0  0  0  0  0  0  0  0
   -0.4748   -0.5374    0.0000 C   0  0  0  0  0  0  0  0  0  0  0  0
    0.0101   -1.2048    0.0000 O   0  0  0  0  0  0  0  0  0  0  0  0
   -1.2998   -0.5374    0.0000 N   0  0  0  0  0  0  0  0  0  0  0  0
   -1.7847   -1.2048    0.0000 C   0  0  0  0  0  0  0  0  0  0  0  0
   -1.4491   -1.9585    0.0000 C   0  0  0  0  0  0  0  0  0  0  0  0
   -1.9341   -2.6259    0.0000 C   0  0  0  0  0  0  0  0  0  0  0  0
   -2.7545   -2.5397    0.0000 C   0  0  0  0  0  0  0  0  0  0  0  0
   -3.0901   -1.7860    0.0000 C   0  0  0  0  0  0  0  0  0  0  0  0
   -2.6052   -1.1186    0.0000 C   0  0  0  0  0  0  0  0  0  0  0  0
   -1.5547    0.2472    0.0000 N   0  0  0  0  0  0  0  0  0  0  0  0
   -2.3393    0.5021    0.0000 C   0  0  0  0  0  0  0  0  0  0  0  0
    0.0393    2.0921    0.0000 H   0  0  0  0  0  0  0  0  0  0  0  0
   -1.8139    2.0921    0.0000 H   0  0  0  0  0  0  0  0  0  0  0  0
   -0.8873    2.6271    0.0000 H   0  0  0  0  0  0  0  0  0  0  0  0
    1.2963   -0.1566    0.0000 H   0  0  0  0  0  0  0  0  0  0  0  0
    0.9255    3.0616    0.0000 H   0  0  0  0  0  0  0  0  0  0  0  0
    2.6916    3.6353    0.0000 H   0  0  0  0  0  0  0  0  0  0  0  0
    4.0716    2.3928    0.0000 H   0  0  0  0  0  0  0  0  0  0  0  0
    1.9193    0.0026    0.0000 H   0  0  0  0  0  0  0  0  0  0  0  0
   -0.4228   -2.0664    0.0000 H   0  0  0  0  0  0  0  0  0  0  0  0
   -1.5144   -3.5687    0.0000 H   0  0  0  0  0  0  0  0  0  0  0  0
   -3.3611   -3.3746    0.0000 H   0  0  0  0  0  0  0  0  0  0  0  0
   -4.1164   -1.6781    0.0000 H   0  0  0  0  0  0  0  0  0  0  0  0
   -3.0250   -0.1758    0.0000 H   0  0  0  0  0  0  0  0  0  0  0  0
   -2.5618    1.5487    0.0000 H   0  0  0  0  0  0  0  0  0  0  0  0
   -3.1344   -0.2139    0.0000 H   0  0  0  0  0  0  0  0  0  0  0  0
   -3.3569    0.8327    0.0000 H   0  0  0  0  0  0  0  0  0  0  0  0
  1  2  1  0  0  0  0
  1 24  1  0  0  0  0
  1 25  1  0  0  0  0
  1 26  1  0  0  0  0
  2  3  2  0  0  0  0
  2 22  1  0  0  0  0
  3  4  1  0  0  0  0
  3 13  1  0  0  0  0
  4  5  1  0  0  0  0
  4 27  1  0  0  0  0
  5  6  2  0  0  0  0
  5  7  1  0  0  0  0
  7  8  2  0  0  0  0
  7 12  1  0  0  0  0
  8  9  1  0  0  0  0
  8 28  1  0  0  0  0
  9 10  2  0  0  0  0
  9 29  1  0  0  0  0
 10 11  1  0  0  0  0
 10 30  1  0  0  0  0
 11 12  2  0  0  0  0
 12 31  1  0  0  0  0
 13 14  2  0  0  0  0
 13 15  1  0  0  0  0
 15 16  1  0  0  0  0
 15 22  1  0  0  0  0
 16 17  2  0  0  0  0
 16 21  1  0  0  0  0
 17 18  1  0  0  0  0
 17 32  1  0  0  0  0
 18 19  2  0  0  0  0
 18 33  1  0  0  0  0
 19 20  1  0  0  0  0
 19 34  1  0  0  0  0
 20 21  2  0  0  0  0
 20 35  1  0  0  0  0
 21 36  1  0  0  0  0
 22 23  1  0  0  0  0
 23 37  1  0  0  0  0
 23 38  1  0  0  0  0
 23 39  1  0  0  0  0
M  END
>  <DRUGBANK_ID>
DB13407

>  <COMMON_NAME>
Nifenazone

>  <CAS_NUMBER>
2139-47-1

>  <UNII>
8780F0K71U

>  <SYNONYMS>
Nifenazone

$$$$
