
 OpenBabel10282417072D

123127  0  0  0  0  0  0  0  0999 V2000
   -0.1733    0.3672    0.0000 C   0  0  2  0  0  0  0  0  0  0  0  0
    0.2372    1.0790    0.0000 C   0  0  2  0  0  0  0  0  0  0  0  0
   -1.0722    1.3528    0.0000 C   0  0  0  0  0  0  0  0  0  0  0  0
   -0.9764    0.5406    0.0000 O   0  0  0  0  0  0  0  0  0  0  0  0
   -0.3194    1.6903    0.0000 N   0  0  0  0  0  0  0  0  0  0  0  0
    4.0880   -0.4448    0.0000 C   0  0  2  0  0  0  0  0  0  0  0  0
    0.8439    1.2934    0.0000 C   0  0  2  0  0  0  0  0  0  0  0  0
    0.5292   -1.6995    0.0000 C   0  0  0  0  0  0  0  0  0  0  0  0
    1.9528   -1.6904    0.0000 C   0  0  0  0  0  0  0  0  0  0  0  0
    1.2409   -2.1147    0.0000 C   0  0  1  0  0  0  0  0  0  0  0  0
    4.7998   -0.8509    0.0000 C   0  0  1  0  0  0  0  0  0  0  0  0
    2.6645   -0.4540    0.0000 C   0  0  1  0  0  0  0  0  0  0  0  0
    1.9528   -0.8691    0.0000 C   0  0  1  0  0  0  0  0  0  0  0  0
   -3.9877    1.4486    0.0000 N   0  0  0  0  0  0  0  0  0  0  0  0
    1.2638    2.0052    0.0000 C   0  0  0  0  0  0  0  0  0  0  0  0
    0.5292   -0.8691    0.0000 O   0  0  0  0  0  0  0  0  0  0  0  0
   -4.4713    2.1284    0.0000 C   0  0  0  0  0  0  0  0  0  0  0  0
    3.3854   -0.8555    0.0000 O   0  0  0  0  0  0  0  0  0  0  0  0
    5.5115   -0.4312    0.0000 C   0  0  2  0  0  0  0  0  0  0  0  0
    2.6599    0.3763    0.0000 C   0  0  1  0  0  0  0  0  0  0  0  0
   -0.1825   -0.4586    0.0000 C   0  0  2  0  0  0  0  0  0  0  0  0
    4.0743    0.3763    0.0000 O   0  0  0  0  0  0  0  0  0  0  0  0
   -3.9877    2.7900    0.0000 C   0  0  0  0  0  0  0  0  0  0  0  0
   -3.1938    2.5299    0.0000 N   0  0  0  0  0  0  0  0  0  0  0  0
   -3.1938    1.7040    0.0000 C   0  0  0  0  0  0  0  0  0  0  0  0
    1.9390    1.6083    0.0000 C   0  0  1  0  0  0  0  0  0  0  0  0
    1.9390    0.7869    0.0000 C   0  0  0  0  0  0  0  0  0  0  0  0
    5.5069    0.3900    0.0000 C   0  0  0  0  0  0  0  0  0  0  0  0
   -5.3018    2.1284    0.0000 C   0  0  0  0  0  0  0  0  0  0  0  0
   -1.7884    1.7589    0.0000 O   0  0  0  0  0  0  0  0  0  0  0  0
    6.2233   -0.8417    0.0000 N   0  0  0  0  0  0  0  0  0  0  0  0
   -0.1871   -2.1102    0.0000 O   0  0  0  0  0  0  0  0  0  0  0  0
    2.6737   -2.1011    0.0000 O   0  0  0  0  0  0  0  0  0  0  0  0
    4.7860    0.7915    0.0000 C   0  0  1  0  0  0  0  0  0  0  0  0
    1.2683    2.8311    0.0000 O   0  0  0  0  0  0  0  0  0  0  0  0
   -6.5336    1.4166    0.0000 N   0  0  0  0  0  0  0  0  0  0  0  0
    4.8089   -1.6767    0.0000 O   0  0  0  0  0  0  0  0  0  0  0  0
   -0.7618   -0.2122    0.0000 C   0  0  0  0  0  0  0  0  0  0  0  0
    3.0706    1.0880    0.0000 O   0  0  0  0  0  0  0  0  0  0  0  0
   -0.3238    2.5163    0.0000 C   0  0  0  0  0  0  0  0  0  0  0  0
    1.2546    0.5817    0.0000 C   0  0  0  0  0  0  0  0  0  0  0  0
    1.2409   -2.9360    0.0000 C   0  0  0  0  0  0  0  0  0  0  0  0
    1.2364   -0.4586    0.0000 C   0  0  0  0  0  0  0  0  0  0  0  0
   -5.7124    1.4166    0.0000 C   0  0  0  0  0  0  0  0  0  0  0  0
    3.4857    0.3763    0.0000 C   0  0  0  0  0  0  0  0  0  0  0  0
   -2.4729    2.9360    0.0000 C   0  0  0  0  0  0  0  0  0  0  0  0
   -0.8942   -0.8691    0.0000 C   0  0  0  0  0  0  0  0  0  0  0  0
    2.6508    2.0234    0.0000 C   0  0  0  0  0  0  0  0  0  0  0  0
   -5.7032    2.8401    0.0000 C   0  0  0  0  0  0  0  0  0  0  0  0
   -6.9443    2.1330    0.0000 C   0  0  0  0  0  0  0  0  0  0  0  0
    6.2324   -1.6721    0.0000 C   0  0  0  0  0  0  0  0  0  0  0  0
    6.9443   -0.4265    0.0000 C   0  0  0  0  0  0  0  0  0  0  0  0
    4.7860    1.6219    0.0000 C   0  0  0  0  0  0  0  0  0  0  0  0
    3.8964    1.0880    0.0000 C   0  0  0  0  0  0  0  0  0  0  0  0
   -1.0449    2.9269    0.0000 C   0  0  0  0  0  0  0  0  0  0  0  0
   -1.7567    2.5253    0.0000 C   0  0  0  0  0  0  0  0  0  0  0  0
   -6.5245    2.8447    0.0000 C   0  0  0  0  0  0  0  0  0  0  0  0
   -1.6106   -0.4586    0.0000 C   0  0  0  0  0  0  0  0  0  0  0  0
    0.4470    1.8821    0.0000 H   0  0  0  0  0  0  0  0  0  0  0  0
    4.0936   -1.5148    0.0000 H   0  0  0  0  0  0  0  0  0  0  0  0
    0.4731    0.2897    0.0000 H   0  0  0  0  0  0  0  0  0  0  0  0
    2.1712   -2.6433    0.0000 H   0  0  0  0  0  0  0  0  0  0  0  0
    3.8775   -1.3934    0.0000 H   0  0  0  0  0  0  0  0  0  0  0  0
    2.6751   -1.5239    0.0000 H   0  0  0  0  0  0  0  0  0  0  0  0
    1.9487    0.2009    0.0000 H   0  0  0  0  0  0  0  0  0  0  0  0
    5.5167   -1.5012    0.0000 H   0  0  0  0  0  0  0  0  0  0  0  0
   -0.1825   -1.5286    0.0000 H   0  0  0  0  0  0  0  0  0  0  0  0
   -4.3040    3.7723    0.0000 H   0  0  0  0  0  0  0  0  0  0  0  0
   -2.3598    1.0962    0.0000 H   0  0  0  0  0  0  0  0  0  0  0  0
    1.9409    2.6783    0.0000 H   0  0  0  0  0  0  0  0  0  0  0  0
    1.0139    0.2492    0.0000 H   0  0  0  0  0  0  0  0  0  0  0  0
    1.0116    1.3205    0.0000 H   0  0  0  0  0  0  0  0  0  0  0  0
    6.4279    0.9347    0.0000 H   0  0  0  0  0  0  0  0  0  0  0  0
    6.4378   -0.1375    0.0000 H   0  0  0  0  0  0  0  0  0  0  0  0
    5.7085    1.3336    0.0000 H   0  0  0  0  0  0  0  0  0  0  0  0
    3.9743   -2.1709    0.0000 H   0  0  0  0  0  0  0  0  0  0  0  0
   -1.7932    0.0728    0.0000 H   0  0  0  0  0  0  0  0  0  0  0  0
   -0.4929   -1.2479    0.0000 H   0  0  0  0  0  0  0  0  0  0  0  0
   -1.5243   -0.9629    0.0000 H   0  0  0  0  0  0  0  0  0  0  0  0
    0.5998    3.0565    0.0000 H   0  0  0  0  0  0  0  0  0  0  0  0
   -0.3300    3.5863    0.0000 H   0  0  0  0  0  0  0  0  0  0  0  0
    0.7194   -0.3448    0.0000 H   0  0  0  0  0  0  0  0  0  0  0  0
    2.3246    0.5815    0.0000 H   0  0  0  0  0  0  0  0  0  0  0  0
    1.7894   -0.3451    0.0000 H   0  0  0  0  0  0  0  0  0  0  0  0
    0.3143   -3.4710    0.0000 H   0  0  0  0  0  0  0  0  0  0  0  0
    2.1675   -3.4710    0.0000 H   0  0  0  0  0  0  0  0  0  0  0  0
    1.2409   -4.0060    0.0000 H   0  0  0  0  0  0  0  0  0  0  0  0
    1.2329    0.6114    0.0000 H   0  0  0  0  0  0  0  0  0  0  0  0
    0.3115   -0.9966    0.0000 H   0  0  0  0  0  0  0  0  0  0  0  0
    0.3080    0.0734    0.0000 H   0  0  0  0  0  0  0  0  0  0  0  0
   -5.1962    0.5230    0.0000 H   0  0  0  0  0  0  0  0  0  0  0  0
    4.0207   -0.5503    0.0000 H   0  0  0  0  0  0  0  0  0  0  0  0
    4.0207    1.3029    0.0000 H   0  0  0  0  0  0  0  0  0  0  0  0
    4.5557    0.3763    0.0000 H   0  0  0  0  0  0  0  0  0  0  0  0
   -2.4688    4.0060    0.0000 H   0  0  0  0  0  0  0  0  0  0  0  0
   -1.5460    3.4706    0.0000 H   0  0  0  0  0  0  0  0  0  0  0  0
   -0.8927   -1.9391    0.0000 H   0  0  0  0  0  0  0  0  0  0  0  0
   -1.8196   -1.4063    0.0000 H   0  0  0  0  0  0  0  0  0  0  0  0
    3.5798    1.4924    0.0000 H   0  0  0  0  0  0  0  0  0  0  0  0
    2.6461    3.0934    0.0000 H   0  0  0  0  0  0  0  0  0  0  0  0
    3.5751    2.5624    0.0000 H   0  0  0  0  0  0  0  0  0  0  0  0
   -5.1802    3.7298    0.0000 H   0  0  0  0  0  0  0  0  0  0  0  0
   -7.9763    2.1394    0.0000 H   0  0  0  0  0  0  0  0  0  0  0  0
    5.3117   -2.2172    0.0000 H   0  0  0  0  0  0  0  0  0  0  0  0
    7.1649   -2.1969    0.0000 H   0  0  0  0  0  0  0  0  0  0  0  0
    6.2441   -2.7420    0.0000 H   0  0  0  0  0  0  0  0  0  0  0  0
    7.8704   -0.9625    0.0000 H   0  0  0  0  0  0  0  0  0  0  0  0
    6.9455    0.6435    0.0000 H   0  0  0  0  0  0  0  0  0  0  0  0
    7.8715    0.1075    0.0000 H   0  0  0  0  0  0  0  0  0  0  0  0
    5.7126    2.1569    0.0000 H   0  0  0  0  0  0  0  0  0  0  0  0
    3.8594    2.1569    0.0000 H   0  0  0  0  0  0  0  0  0  0  0  0
    4.7860    2.6919    0.0000 H   0  0  0  0  0  0  0  0  0  0  0  0
    4.4314    0.1614    0.0000 H   0  0  0  0  0  0  0  0  0  0  0  0
    4.4314    2.0146    0.0000 H   0  0  0  0  0  0  0  0  0  0  0  0
    4.9664    1.0880    0.0000 H   0  0  0  0  0  0  0  0  0  0  0  0
   -1.0428    3.9969    0.0000 H   0  0  0  0  0  0  0  0  0  0  0  0
   -1.9684    3.4674    0.0000 H   0  0  0  0  0  0  0  0  0  0  0  0
   -1.7604    1.4553    0.0000 H   0  0  0  0  0  0  0  0  0  0  0  0
   -0.8337    1.9841    0.0000 H   0  0  0  0  0  0  0  0  0  0  0  0
   -7.0338    3.7423    0.0000 H   0  0  0  0  0  0  0  0  0  0  0  0
   -1.6141    0.6114    0.0000 H   0  0  0  0  0  0  0  0  0  0  0  0
   -2.5355   -0.9966    0.0000 H   0  0  0  0  0  0  0  0  0  0  0  0
   -2.5390    0.0734    0.0000 H   0  0  0  0  0  0  0  0  0  0  0  0
  1 38  1  6  0  0  0
  2  1  1  0  0  0  0
  2 59  1  1  0  0  0
  3  4  1  0  0  0  0
  4  1  1  0  0  0  0
  5  2  1  0  0  0  0
  5  3  1  0  0  0  0
  6 18  1  0  0  0  0
  6 60  1  1  0  0  0
  7  2  1  0  0  0  0
  7 41  1  0  0  0  0
  7 61  1  1  0  0  0
  8 16  1  0  0  0  0
  9 10  1  0  0  0  0
 10  8  1  0  0  0  0
 10 42  1  0  0  0  0
 10 62  1  6  0  0  0
 11  6  1  0  0  0  0
 11 37  1  0  0  0  0
 11 63  1  6  0  0  0
 12 13  1  0  0  0  0
 12 18  1  0  0  0  0
 12 20  1  0  0  0  0
 12 64  1  1  0  0  0
 13  9  1  0  0  0  0
 13 43  1  0  0  0  0
 13 65  1  1  0  0  0
 14 25  2  0  0  0  0
 15  7  1  0  0  0  0
 16 21  1  0  0  0  0
 17 23  2  0  0  0  0
 17 14  1  0  0  0  0
 19 11  1  0  0  0  0
 19 31  1  0  0  0  0
 19 28  1  0  0  0  0
 19 66  1  1  0  0  0
 20 27  1  0  0  0  0
 20 39  1  1  0  0  0
 21  1  1  0  0  0  0
 21 47  1  0  0  0  0
 21 67  1  1  0  0  0
 22  6  1  0  0  0  0
 23 24  1  0  0  0  0
 23 68  1  0  0  0  0
 24 46  1  0  0  0  0
 25 24  1  0  0  0  0
 25 69  1  0  0  0  0
 26 15  1  0  0  0  0
 26 48  1  0  0  0  0
 26 70  1  1  0  0  0
 27 26  1  0  0  0  0
 27 71  1  0  0  0  0
 27 72  1  0  0  0  0
 28 34  1  0  0  0  0
 28 73  1  0  0  0  0
 28 74  1  0  0  0  0
 29 17  1  0  0  0  0
 30  3  2  0  0  0  0
 32  8  2  0  0  0  0
 33  9  2  0  0  0  0
 34 22  1  0  0  0  0
 34 53  1  0  0  0  0
 34 75  1  1  0  0  0
 35 15  2  0  0  0  0
 36 44  2  0  0  0  0
 36 50  1  0  0  0  0
 37 76  1  0  0  0  0
 38 77  1  0  0  0  0
 38 78  1  0  0  0  0
 38 79  1  0  0  0  0
 40  5  1  0  0  0  0
 40 80  1  0  0  0  0
 40 81  1  0  0  0  0
 41 82  1  0  0  0  0
 41 83  1  0  0  0  0
 41 84  1  0  0  0  0
 42 85  1  0  0  0  0
 42 86  1  0  0  0  0
 42 87  1  0  0  0  0
 43 88  1  0  0  0  0
 43 89  1  0  0  0  0
 43 90  1  0  0  0  0
 44 29  1  0  0  0  0
 44 91  1  0  0  0  0
 45 20  1  0  0  0  0
 45 92  1  0  0  0  0
 45 93  1  0  0  0  0
 45 94  1  0  0  0  0
 46 56  1  0  0  0  0
 46 95  1  0  0  0  0
 46 96  1  0  0  0  0
 47 97  1  0  0  0  0
 47 98  1  0  0  0  0
 48 99  1  0  0  0  0
 48100  1  0  0  0  0
 48101  1  0  0  0  0
 49 29  2  0  0  0  0
 49102  1  0  0  0  0
 50 57  2  0  0  0  0
 50103  1  0  0  0  0
 51 31  1  0  0  0  0
 51104  1  0  0  0  0
 51105  1  0  0  0  0
 51106  1  0  0  0  0
 52 31  1  0  0  0  0
 52107  1  0  0  0  0
 52108  1  0  0  0  0
 52109  1  0  0  0  0
 53110  1  0  0  0  0
 53111  1  0  0  0  0
 53112  1  0  0  0  0
 54 39  1  0  0  0  0
 54113  1  0  0  0  0
 54114  1  0  0  0  0
 54115  1  0  0  0  0
 55 40  1  0  0  0  0
 55116  1  0  0  0  0
 55117  1  0  0  0  0
 56 55  1  0  0  0  0
 56118  1  0  0  0  0
 56119  1  0  0  0  0
 57 49  1  0  0  0  0
 57120  1  0  0  0  0
 58 47  1  0  0  0  0
 58121  1  0  0  0  0
 58122  1  0  0  0  0
 58123  1  0  0  0  0
M  END
>  <DRUGBANK_ID>
DB00976

>  <SECONDARY_ACCESSION_NUMBERS>
APRD00483

>  <COMMON_NAME>
Telithromycin

>  <CAS_NUMBER>
191114-48-4

>  <UNII>
KI8H7H19WL

>  <SYNONYMS>
Telithromycin; telitromicina

$$$$
