
 OpenBabel10282417072D

142152  0  0  0  0  0  0  0  0999 V2000
    7.6231    1.7138    0.0000 C   0  0  0  0  0  0  0  0  0  0  0  0
    8.4416    1.5349    0.0000 C   0  0  0  0  0  0  0  0  0  0  0  0
    8.8510    2.2767    0.0000 C   0  0  0  0  0  0  0  0  0  0  0  0
    9.2603    3.9394    0.0000 O   0  0  0  0  0  0  0  0  0  0  0  0
    7.8790    4.2720    0.0000 N   0  0  0  0  0  0  0  0  0  0  0  0
    8.4673    3.6836    0.0000 C   0  0  0  0  0  0  0  0  0  0  0  0
    8.3139    2.8906    0.0000 C   0  0  1  0  0  0  0  0  0  0  0  0
    7.5463    2.5324    0.0000 N   0  0  0  0  0  0  0  0  0  0  0  0
    6.8301    3.7860    0.0000 O   0  0  0  0  0  0  0  0  0  0  0  0
    6.8301    2.9675    0.0000 C   0  0  0  0  0  0  0  0  0  0  0  0
    5.2185    1.5349    0.0000 O   0  0  0  0  0  0  0  0  0  0  0  0
    6.0115    1.7138    0.0000 C   0  0  0  0  0  0  0  0  0  0  0  0
    6.1139    2.5324    0.0000 C   0  0  2  0  0  0  0  0  0  0  0  0
    5.3463    2.8906    0.0000 N   0  0  0  0  0  0  0  0  0  0  0  0
    4.8092    2.2767    0.0000 C   0  0  0  0  0  0  0  0  0  0  0  0
    2.7371    2.8906    0.0000 S   0  0  0  0  0  0  0  0  0  0  0  0
    3.5556    3.0696    0.0000 C   0  0  0  0  0  0  0  0  0  0  0  0
    3.9650    2.3535    0.0000 C   0  0  0  0  0  0  0  0  0  0  0  0
    3.4278    1.7395    0.0000 N   0  0  0  0  0  0  0  0  0  0  0  0
    2.6604    2.0720    0.0000 C   0  0  0  0  0  0  0  0  0  0  0  0
    1.2278    0.4092    0.0000 C   0  0  0  0  0  0  0  0  0  0  0  0
    1.9441    0.8185    0.0000 C   0  0  0  0  0  0  0  0  0  0  0  0
    1.9441    1.6627    0.0000 C   0  0  0  0  0  0  0  0  0  0  0  0
    1.2278    2.0720    0.0000 N   0  0  0  0  0  0  0  0  0  0  0  0
   -3.7860    2.4813    0.0000 H   0  0  0  0  0  0  0  0  0  0  0  0
   -4.5278    0.4092    0.0000 O   0  0  0  0  0  0  0  0  0  0  0  0
   -7.3928   -0.4092    0.0000 O   0  0  0  0  0  0  0  0  0  0  0  0
   -9.2603   -3.0185    0.0000 C   0  0  0  0  0  0  0  0  0  0  0  0
   -8.4417   -3.0185    0.0000 O   0  0  0  0  0  0  0  0  0  0  0  0
   -8.0068   -2.3022    0.0000 C   0  0  0  0  0  0  0  0  0  0  0  0
   -7.1882   -2.3022    0.0000 C   0  0  0  0  0  0  0  0  0  0  0  0
   -6.7789   -3.0185    0.0000 S   0  0  0  0  0  0  0  0  0  0  0  0
   -5.9603   -4.5534    0.0000 C   0  0  0  0  0  0  0  0  0  0  0  0
   -4.5278   -4.5534    0.0000 C   0  0  0  0  0  0  0  0  0  0  0  0
   -5.2441   -4.1441    0.0000 C   0  0  0  0  0  0  0  0  0  0  0  0
   -3.7860   -4.1441    0.0000 O   0  0  0  0  0  0  0  0  0  0  0  0
   -3.1976   -1.4070    0.0000 C   0  0  0  0  0  0  0  0  0  0  0  0
   -2.7883   -2.1231    0.0000 C   0  0  0  0  0  0  0  0  0  0  0  0
   -1.9441   -2.1231    0.0000 S   0  0  0  0  0  0  0  0  0  0  0  0
    0.8441   -3.0185    0.0000 O   0  0  0  0  0  0  0  0  0  0  0  0
    1.6627   -4.4511    0.0000 C   0  0  0  0  0  0  0  0  0  0  0  0
    0.8441   -4.4511    0.0000 N   0  0  0  0  0  0  0  0  0  0  0  0
    0.4348   -3.7348    0.0000 C   0  0  0  0  0  0  0  0  0  0  0  0
   -0.4092   -3.7348    0.0000 C   0  0  0  0  0  0  0  0  0  0  0  0
   -0.4092   -2.3022    0.0000 N   0  0  0  0  0  0  0  0  0  0  0  0
   -0.8186   -3.0185    0.0000 C   0  0  2  0  0  0  0  0  0  0  0  0
   -1.6372   -2.8906    0.0000 C   0  0  0  0  0  0  0  0  0  0  0  0
   -2.3534   -3.2999    0.0000 N   0  0  0  0  0  0  0  0  0  0  0  0
   -3.0697   -2.8906    0.0000 C   0  0  0  0  0  0  0  0  0  0  0  0
   -3.7860   -3.3254    0.0000 C   0  0  0  0  0  0  0  0  0  0  0  0
   -4.5278   -2.8906    0.0000 N   0  0  0  0  0  0  0  0  0  0  0  0
   -5.2441   -3.3254    0.0000 C   0  0  2  0  0  0  0  0  0  0  0  0
   -5.9603   -2.8906    0.0000 C   0  0  0  0  0  0  0  0  0  0  0  0
   -5.9603   -2.0720    0.0000 N   0  0  0  0  0  0  0  0  0  0  0  0
   -6.6767   -1.6627    0.0000 C   0  0  0  0  0  0  0  0  0  0  0  0
   -6.6767   -0.8185    0.0000 C   0  0  0  0  0  0  0  0  0  0  0  0
   -5.9603   -0.4092    0.0000 N   0  0  0  0  0  0  0  0  0  0  0  0
   -5.9603    0.4092    0.0000 C   0  0  0  0  0  0  0  0  0  0  0  0
   -5.2441    0.8185    0.0000 C   0  0  0  0  0  0  0  0  0  0  0  0
   -5.2441    1.6627    0.0000 N   0  0  0  0  0  0  0  0  0  0  0  0
   -5.9603    2.8906    0.0000 C   0  0  0  0  0  0  0  0  0  0  0  0
   -6.6767    3.3255    0.0000 C   0  0  0  0  0  0  0  0  0  0  0  0
   -6.6767    4.1440    0.0000 C   0  0  0  0  0  0  0  0  0  0  0  0
   -5.9603    4.5534    0.0000 C   0  0  0  0  0  0  0  0  0  0  0  0
   -5.2441    4.1440    0.0000 C   0  0  0  0  0  0  0  0  0  0  0  0
   -5.2441    3.3255    0.0000 C   0  0  0  0  0  0  0  0  0  0  0  0
   -3.7860    3.3255    0.0000 O   0  0  0  0  0  0  0  0  0  0  0  0
   -4.5278    2.8906    0.0000 C   0  0  2  0  0  0  0  0  0  0  0  0
   -4.5278    2.0720    0.0000 C   0  0  1  0  0  0  0  0  0  0  0  0
   -2.6604    0.8953    0.0000 C   0  0  0  0  0  0  0  0  0  0  0  0
   -3.5046    0.8953    0.0000 S   0  0  0  0  0  0  0  0  0  0  0  0
   -3.7860    1.6627    0.0000 C   0  0  0  0  0  0  0  0  0  0  0  0
   -3.0697    2.0720    0.0000 N   0  0  0  0  0  0  0  0  0  0  0  0
   -2.3534    1.6627    0.0000 C   0  0  0  0  0  0  0  0  0  0  0  0
   -0.5116    2.8394    0.0000 C   0  0  0  0  0  0  0  0  0  0  0  0
   -1.3302    2.8394    0.0000 S   0  0  0  0  0  0  0  0  0  0  0  0
   -1.6372    2.0720    0.0000 C   0  0  0  0  0  0  0  0  0  0  0  0
   -0.9209    1.6627    0.0000 N   0  0  0  0  0  0  0  0  0  0  0  0
   -0.2046    2.0720    0.0000 C   0  0  0  0  0  0  0  0  0  0  0  0
    0.5116    1.6627    0.0000 C   0  0  0  0  0  0  0  0  0  0  0  0
    0.5116    0.8185    0.0000 C   0  0  0  0  0  0  0  0  0  0  0  0
   -1.4325   -0.1790    0.0000 C   0  0  0  0  0  0  0  0  0  0  0  0
   -1.0232    0.5372    0.0000 S   0  0  0  0  0  0  0  0  0  0  0  0
   -0.2046    0.4092    0.0000 C   0  0  0  0  0  0  0  0  0  0  0  0
   -0.2046   -0.4092    0.0000 N   0  0  0  0  0  0  0  0  0  0  0  0
   -0.9209   -0.8185    0.0000 C   0  0  0  0  0  0  0  0  0  0  0  0
   -0.9209   -1.6627    0.0000 C   0  0  0  0  0  0  0  0  0  0  0  0
   -1.5092   -1.8673    0.0000 O   0  0  0  0  0  0  0  0  0  0  0  0
    6.8219    1.0046    0.0000 H   0  0  0  0  0  0  0  0  0  0  0  0
    7.8927    0.6783    0.0000 H   0  0  0  0  0  0  0  0  0  0  0  0
    8.8834    0.5604    0.0000 H   0  0  0  0  0  0  0  0  0  0  0  0
    9.5108    1.4928    0.0000 H   0  0  0  0  0  0  0  0  0  0  0  0
    9.9149    2.3912    0.0000 H   0  0  0  0  0  0  0  0  0  0  0  0
    9.2403    3.2734    0.0000 H   0  0  0  0  0  0  0  0  0  0  0  0
    8.1339    5.2229    0.0000 H   0  0  0  0  0  0  0  0  0  0  0  0
    6.9280    4.0173    0.0000 H   0  0  0  0  0  0  0  0  0  0  0  0
    9.3469    3.1696    0.0000 H   0  0  0  0  0  0  0  0  0  0  0  0
    6.8041    0.9949    0.0000 H   0  0  0  0  0  0  0  0  0  0  0  0
    7.0148    2.0856    0.0000 H   0  0  0  0  0  0  0  0  0  0  0  0
    7.0120    1.9508    0.0000 H   0  0  0  0  0  0  0  0  0  0  0  0
    3.9746    4.0127    0.0000 H   0  0  0  0  0  0  0  0  0  0  0  0
    1.2278   -0.6228    0.0000 H   0  0  0  0  0  0  0  0  0  0  0  0
    2.8367    0.3005    0.0000 H   0  0  0  0  0  0  0  0  0  0  0  0
   -9.7953   -2.0919    0.0000 H   0  0  0  0  0  0  0  0  0  0  0  0
   -9.7953   -3.9451    0.0000 H   0  0  0  0  0  0  0  0  0  0  0  0
  -10.3303   -3.0185    0.0000 H   0  0  0  0  0  0  0  0  0  0  0  0
   -8.5315   -1.3697    0.0000 H   0  0  0  0  0  0  0  0  0  0  0  0
   -7.4667   -1.3785    0.0000 H   0  0  0  0  0  0  0  0  0  0  0  0
   -6.8846   -4.0143    0.0000 H   0  0  0  0  0  0  0  0  0  0  0  0
   -5.9650   -5.6234    0.0000 H   0  0  0  0  0  0  0  0  0  0  0  0
   -6.8893   -5.0843    0.0000 H   0  0  0  0  0  0  0  0  0  0  0  0
   -4.5230   -5.6234    0.0000 H   0  0  0  0  0  0  0  0  0  0  0  0
   -3.6036   -4.0143    0.0000 H   0  0  0  0  0  0  0  0  0  0  0  0
   -3.5988   -5.0843    0.0000 H   0  0  0  0  0  0  0  0  0  0  0  0
   -4.3187   -3.6070    0.0000 H   0  0  0  0  0  0  0  0  0  0  0  0
   -2.6586   -0.4827    0.0000 H   0  0  0  0  0  0  0  0  0  0  0  0
   -4.2676   -1.4023    0.0000 H   0  0  0  0  0  0  0  0  0  0  0  0
   -3.7286   -0.4780    0.0000 H   0  0  0  0  0  0  0  0  0  0  0  0
    2.1977   -5.3777    0.0000 H   0  0  0  0  0  0  0  0  0  0  0  0
    2.1977   -3.5245    0.0000 H   0  0  0  0  0  0  0  0  0  0  0  0
    2.7327   -4.4511    0.0000 H   0  0  0  0  0  0  0  0  0  0  0  0
    0.3499   -5.3026    0.0000 H   0  0  0  0  0  0  0  0  0  0  0  0
   -0.9462   -4.6603    0.0000 H   0  0  0  0  0  0  0  0  0  0  0  0
   -1.4792   -3.7313    0.0000 H   0  0  0  0  0  0  0  0  0  0  0  0
    0.5723   -2.2257    0.0000 H   0  0  0  0  0  0  0  0  0  0  0  0
    0.2514   -3.0185    0.0000 H   0  0  0  0  0  0  0  0  0  0  0  0
   -4.5354   -1.9061    0.0000 H   0  0  0  0  0  0  0  0  0  0  0  0
   -4.3116   -3.8502    0.0000 H   0  0  0  0  0  0  0  0  0  0  0  0
   -5.1088   -0.9034    0.0000 H   0  0  0  0  0  0  0  0  0  0  0  0
   -6.8858    0.9462    0.0000 H   0  0  0  0  0  0  0  0  0  0  0  0
   -5.9568    1.4792    0.0000 H   0  0  0  0  0  0  0  0  0  0  0  0
   -6.0956    2.1569    0.0000 H   0  0  0  0  0  0  0  0  0  0  0  0
   -5.9602    1.8586    0.0000 H   0  0  0  0  0  0  0  0  0  0  0  0
   -7.5761    2.8194    0.0000 H   0  0  0  0  0  0  0  0  0  0  0  0
   -7.5693    4.6620    0.0000 H   0  0  0  0  0  0  0  0  0  0  0  0
   -5.9602    5.5854    0.0000 H   0  0  0  0  0  0  0  0  0  0  0  0
   -4.3515    4.6619    0.0000 H   0  0  0  0  0  0  0  0  0  0  0  0
   -2.9427    2.8461    0.0000 H   0  0  0  0  0  0  0  0  0  0  0  0
   -4.5196    3.9606    0.0000 H   0  0  0  0  0  0  0  0  0  0  0  0
   -2.0819    0.0407    0.0000 H   0  0  0  0  0  0  0  0  0  0  0  0
    0.0669    3.6940    0.0000 H   0  0  0  0  0  0  0  0  0  0  0  0
   -2.4614   -0.2592    0.0000 H   0  0  0  0  0  0  0  0  0  0  0  0
  1  2  1  0  0  0  0
  1 89  1  0  0  0  0
  1 90  1  0  0  0  0
  2 91  1  0  0  0  0
  2 92  1  0  0  0  0
  3  2  1  0  0  0  0
  3 93  1  0  0  0  0
  3 94  1  0  0  0  0
  5 95  1  0  0  0  0
  5 96  1  0  0  0  0
  6  4  2  0  0  0  0
  6  5  1  0  0  0  0
  7  3  1  0  0  0  0
  7  6  1  0  0  0  0
  7 97  1  1  0  0  0
  8  1  1  0  0  0  0
  8  7  1  0  0  0  0
 10  8  1  0  0  0  0
 10  9  2  0  0  0  0
 11 12  1  0  0  0  0
 12 98  1  0  0  0  0
 12 99  1  0  0  0  0
 13 10  1  0  0  0  0
 13 12  1  0  0  0  0
 13100  1  1  0  0  0
 14 13  1  0  0  0  0
 15 11  1  0  0  0  0
 15 14  2  0  0  0  0
 16 17  1  0  0  0  0
 17101  1  0  0  0  0
 18 15  1  0  0  0  0
 18 17  2  0  0  0  0
 19 18  1  0  0  0  0
 20 16  1  0  0  0  0
 20 19  2  0  0  0  0
 21 22  1  0  0  0  0
 21102  1  0  0  0  0
 22 23  2  0  0  0  0
 22103  1  0  0  0  0
 23 20  1  0  0  0  0
 24 23  1  0  0  0  0
 28104  1  0  0  0  0
 28105  1  0  0  0  0
 28106  1  0  0  0  0
 29 28  1  0  0  0  0
 30 29  1  0  0  0  0
 30107  1  0  0  0  0
 30108  1  0  0  0  0
 31 30  1  0  0  0  0
 32 31  1  0  0  0  0
 33109  1  0  0  0  0
 33110  1  0  0  0  0
 33111  1  0  0  0  0
 34112  1  0  0  0  0
 34113  1  0  0  0  0
 34114  1  0  0  0  0
 35 33  1  0  0  0  0
 35 34  1  0  0  0  0
 35115  1  0  0  0  0
 37116  1  0  0  0  0
 37117  1  0  0  0  0
 37118  1  0  0  0  0
 38 37  1  0  0  0  0
 39 38  1  0  0  0  0
 41119  1  0  0  0  0
 41120  1  0  0  0  0
 41121  1  0  0  0  0
 42 41  1  0  0  0  0
 42122  1  0  0  0  0
 43 40  2  0  0  0  0
 43 42  1  0  0  0  0
 44 43  1  0  0  0  0
 44123  1  0  0  0  0
 44124  1  0  0  0  0
 45 46  1  0  0  0  0
 45125  1  0  0  0  0
 46 44  1  0  0  0  0
 46 47  1  0  0  0  0
 46126  1  6  0  0  0
 47 39  1  0  0  0  0
 47 48  2  0  0  0  0
 48 49  1  0  0  0  0
 49 38  2  0  0  0  0
 49 50  1  0  0  0  0
 50 36  2  0  0  0  0
 50 51  1  0  0  0  0
 51 52  1  0  0  0  0
 51127  1  0  0  0  0
 52 35  1  0  0  0  0
 52 53  1  0  0  0  0
 52128  1  6  0  0  0
 53 32  1  0  0  0  0
 53 54  2  0  0  0  0
 54 55  1  0  0  0  0
 55 31  2  0  0  0  0
 55 56  1  0  0  0  0
 56 27  2  0  0  0  0
 56 57  1  0  0  0  0
 57 58  1  0  0  0  0
 57129  1  0  0  0  0
 58130  1  0  0  0  0
 58131  1  0  0  0  0
 59 26  2  0  0  0  0
 59 58  1  0  0  0  0
 60 59  1  0  0  0  0
 60132  1  0  0  0  0
 61 62  2  0  0  0  0
 61133  1  0  0  0  0
 62 63  1  0  0  0  0
 62134  1  0  0  0  0
 63135  1  0  0  0  0
 64 63  2  0  0  0  0
 64136  1  0  0  0  0
 65 64  1  0  0  0  0
 65137  1  0  0  0  0
 66 61  1  0  0  0  0
 66 65  2  0  0  0  0
 67138  1  0  0  0  0
 68 66  1  0  0  0  0
 68 67  1  0  0  0  0
 68139  1  1  0  0  0
 69 25  1  6  0  0  0
 69 60  1  0  0  0  0
 69 68  1  0  0  0  0
 70 71  1  0  0  0  0
 70140  1  0  0  0  0
 72 69  1  0  0  0  0
 72 71  1  0  0  0  0
 73 72  2  0  0  0  0
 74 70  2  0  0  0  0
 74 73  1  0  0  0  0
 75 76  1  0  0  0  0
 75141  1  0  0  0  0
 77 74  1  0  0  0  0
 77 76  1  0  0  0  0
 78 77  2  0  0  0  0
 79 75  2  0  0  0  0
 79 78  1  0  0  0  0
 80 24  2  0  0  0  0
 80 79  1  0  0  0  0
 81 21  2  0  0  0  0
 81 80  1  0  0  0  0
 82 83  1  0  0  0  0
 82142  1  0  0  0  0
 84 81  1  0  0  0  0
 84 83  1  0  0  0  0
 85 84  2  0  0  0  0
 86 82  2  0  0  0  0
 86 85  1  0  0  0  0
 87 45  1  0  0  0  0
 87 86  1  0  0  0  0
 88 87  2  0  0  0  0
M  END
>  <DRUGBANK_ID>
DB02975

>  <SECONDARY_ACCESSION_NUMBERS>
EXPT01578

>  <COMMON_NAME>
GE-2270A

>  <CAS_NUMBER>
134861-34-0

>  <UNII>
JB4J58L2K1

$$$$
