
 OpenBabel10282417072D

 53 55  0  0  0  0  0  0  0  0999 V2000
   -5.7158    8.2500    0.0000 C   0  0  0  0  0  0  0  0  0  0  0  0
   -5.0013    9.4875    0.0000 C   0  0  0  0  0  0  0  0  0  0  0  0
   -1.4289    3.3000    0.0000 C   0  0  0  0  0  0  0  0  0  0  0  0
   -0.7145    3.7125    0.0000 C   0  0  0  0  0  0  0  0  0  0  0  0
   -2.1434    3.7125    0.0000 C   0  0  0  0  0  0  0  0  0  0  0  0
   -0.7145    4.5375    0.0000 C   0  0  0  0  0  0  0  0  0  0  0  0
   -2.1434    4.5375    0.0000 C   0  0  0  0  0  0  0  0  0  0  0  0
   -0.7145    8.6625    0.0000 C   0  0  0  0  0  0  0  0  0  0  0  0
    0.0000    7.4250    0.0000 C   0  0  0  0  0  0  0  0  0  0  0  0
   -1.4289    8.2500    0.0000 C   0  0  0  0  0  0  0  0  0  0  0  0
   -0.7145    7.0125    0.0000 C   0  0  0  0  0  0  0  0  0  0  0  0
   -2.8579    8.2500    0.0000 C   0  0  0  0  0  0  0  0  0  0  0  0
   -3.5724    7.0125    0.0000 C   0  0  0  0  0  0  0  0  0  0  0  0
   -3.5724    8.6625    0.0000 C   0  0  0  0  0  0  0  0  0  0  0  0
   -4.2868    7.4250    0.0000 C   0  0  0  0  0  0  0  0  0  0  0  0
   -1.4289    5.7750    0.0000 C   0  0  0  0  0  0  0  0  0  0  0  0
   -5.0013    8.6625    0.0000 C   0  0  0  0  0  0  0  0  0  0  0  0
   -1.4289    4.9500    0.0000 C   0  0  0  0  0  0  0  0  0  0  0  0
    0.0000    8.2500    0.0000 C   0  0  0  0  0  0  0  0  0  0  0  0
   -1.4289    7.4250    0.0000 C   0  0  0  0  0  0  0  0  0  0  0  0
   -2.8579    7.4250    0.0000 C   0  0  0  0  0  0  0  0  0  0  0  0
   -2.1434    6.1875    0.0000 C   0  0  0  0  0  0  0  0  0  0  0  0
    0.7145    8.6625    0.0000 Cl  0  0  0  0  0  0  0  0  0  0  0  0
   -4.2868    8.2500    0.0000 N   0  0  0  0  0  0  0  0  0  0  0  0
   -2.1434    7.0125    0.0000 N   0  0  0  0  0  0  0  0  0  0  0  0
   -2.8579    5.7750    0.0000 O   0  0  0  0  0  0  0  0  0  0  0  0
   -6.6424    8.7850    0.0000 H   0  0  0  0  0  0  0  0  0  0  0  0
   -5.7158    7.1800    0.0000 H   0  0  0  0  0  0  0  0  0  0  0  0
   -6.6425    7.7150    0.0000 H   0  0  0  0  0  0  0  0  0  0  0  0
   -4.0747   10.0225    0.0000 H   0  0  0  0  0  0  0  0  0  0  0  0
   -5.9279   10.0225    0.0000 H   0  0  0  0  0  0  0  0  0  0  0  0
   -5.0013   10.5575    0.0000 H   0  0  0  0  0  0  0  0  0  0  0  0
   -1.4289    2.2680    0.0000 H   0  0  0  0  0  0  0  0  0  0  0  0
    0.1792    3.1965    0.0000 H   0  0  0  0  0  0  0  0  0  0  0  0
   -3.0371    3.1965    0.0000 H   0  0  0  0  0  0  0  0  0  0  0  0
    0.1792    5.0535    0.0000 H   0  0  0  0  0  0  0  0  0  0  0  0
   -3.0371    5.0535    0.0000 H   0  0  0  0  0  0  0  0  0  0  0  0
   -0.7145    9.6945    0.0000 H   0  0  0  0  0  0  0  0  0  0  0  0
    0.8937    6.9090    0.0000 H   0  0  0  0  0  0  0  0  0  0  0  0
   -2.3226    8.7660    0.0000 H   0  0  0  0  0  0  0  0  0  0  0  0
   -0.7145    5.9805    0.0000 H   0  0  0  0  0  0  0  0  0  0  0  0
   -1.9313    8.7850    0.0000 H   0  0  0  0  0  0  0  0  0  0  0  0
   -1.9313    7.7150    0.0000 H   0  0  0  0  0  0  0  0  0  0  0  0
   -3.5724    5.9425    0.0000 H   0  0  0  0  0  0  0  0  0  0  0  0
   -2.6458    6.4775    0.0000 H   0  0  0  0  0  0  0  0  0  0  0  0
   -3.5724    9.7325    0.0000 H   0  0  0  0  0  0  0  0  0  0  0  0
   -4.4991    9.1975    0.0000 H   0  0  0  0  0  0  0  0  0  0  0  0
   -5.2135    6.8900    0.0000 H   0  0  0  0  0  0  0  0  0  0  0  0
   -5.2134    7.9600    0.0000 H   0  0  0  0  0  0  0  0  0  0  0  0
   -0.5023    6.3100    0.0000 H   0  0  0  0  0  0  0  0  0  0  0  0
   -1.4289    6.8450    0.0000 H   0  0  0  0  0  0  0  0  0  0  0  0
   -4.0747    9.1975    0.0000 H   0  0  0  0  0  0  0  0  0  0  0  0
   -2.8579    6.3550    0.0000 H   0  0  0  0  0  0  0  0  0  0  0  0
  1 27  1  0  0  0  0
  1 28  1  0  0  0  0
  1 29  1  0  0  0  0
  2 30  1  0  0  0  0
  2 31  1  0  0  0  0
  2 32  1  0  0  0  0
  3 33  1  0  0  0  0
  4  3  2  0  0  0  0
  4 34  1  0  0  0  0
  5  3  1  0  0  0  0
  5 35  1  0  0  0  0
  6  4  1  0  0  0  0
  6 36  1  0  0  0  0
  7  5  2  0  0  0  0
  7 37  1  0  0  0  0
  8 38  1  0  0  0  0
  9 39  1  0  0  0  0
 10  8  1  0  0  0  0
 10 40  1  0  0  0  0
 11  9  2  0  0  0  0
 11 41  1  0  0  0  0
 12 42  1  0  0  0  0
 12 43  1  0  0  0  0
 13 44  1  0  0  0  0
 13 45  1  0  0  0  0
 14 12  1  0  0  0  0
 14 46  1  0  0  0  0
 14 47  1  0  0  0  0
 15 13  1  0  0  0  0
 15 48  1  0  0  0  0
 15 49  1  0  0  0  0
 16 50  1  0  0  0  0
 16 51  1  0  0  0  0
 17  1  1  0  0  0  0
 17  2  1  0  0  0  0
 17 52  1  0  0  0  0
 18  6  2  0  0  0  0
 18  7  1  0  0  0  0
 18 16  1  0  0  0  0
 19  8  2  0  0  0  0
 19  9  1  0  0  0  0
 20 10  2  0  0  0  0
 20 11  1  0  0  0  0
 21 12  1  0  0  0  0
 21 13  1  0  0  0  0
 21 53  1  0  0  0  0
 22 16  1  0  0  0  0
 23 19  1  0  0  0  0
 24 14  1  0  0  0  0
 24 15  1  0  0  0  0
 24 17  1  0  0  0  0
 25 20  1  0  0  0  0
 25 21  1  0  0  0  0
 25 22  1  0  0  0  0
 26 22  2  0  0  0  0
M  END
>  <DRUGBANK_ID>
DB13653

>  <COMMON_NAME>
Lorcainide

>  <CAS_NUMBER>
59729-31-6

>  <UNII>
KGJ2T0N7IQ

>  <SYNONYMS>
Lorcainide

$$$$
