661
 OpenBabel10282417072D

 71 72  0  0  1  0  0  0  0  0999 V2000
    2.3645   -2.0478    0.0000 O   0  0  0  0  0  0  0  0  0  0  0  0
    3.7935   -2.8728    0.0000 O   0  0  0  0  0  0  0  0  0  0  0  0
    9.9812    1.1418    0.0000 O   0  0  0  0  0  0  0  0  0  0  0  0
   10.8062    2.5708    0.0000 O   0  0  0  0  0  0  0  0  0  0  0  0
    6.2686    1.8563    0.0000 N   0  0  0  0  0  0  0  0  0  0  0  0
    2.1435    0.4273    0.0000 N   0  0  0  0  0  0  0  0  0  0  0  0
    3.7935    0.4273    0.0000 C   0  0  3  0  0  0  0  0  0  0  0  0
    3.7935    1.2523    0.0000 C   0  0  0  0  0  0  0  0  0  0  0  0
    4.6185    0.4273    0.0000 C   0  0  0  0  0  0  0  0  0  0  0  0
    5.0310    1.1418    0.0000 C   0  0  0  0  0  0  0  0  0  0  0  0
    3.7935   -0.3977    0.0000 C   0  0  0  0  0  0  0  0  0  0  0  0
    5.8561    1.1418    0.0000 C   0  0  0  0  0  0  0  0  0  0  0  0
    3.0791    1.6648    0.0000 C   0  0  0  0  0  0  0  0  0  0  0  0
    4.5080    1.6648    0.0000 C   0  0  0  0  0  0  0  0  0  0  0  0
    2.9685    0.4273    0.0000 C   0  0  0  0  0  0  0  0  0  0  0  0
    3.0791   -0.8103    0.0000 C   0  0  0  0  0  0  0  0  0  0  0  0
    4.5080   -0.8103    0.0000 C   0  0  0  0  0  0  0  0  0  0  0  0
    7.0936    1.8563    0.0000 C   0  0  0  0  0  0  0  0  0  0  0  0
    3.0791   -1.6353    0.0000 C   0  0  0  0  0  0  0  0  0  0  0  0
    5.8561    2.5708    0.0000 C   0  0  0  0  0  0  0  0  0  0  0  0
    4.5080   -1.6353    0.0000 C   0  0  0  0  0  0  0  0  0  0  0  0
    7.5061    2.5708    0.0000 C   0  0  0  0  0  0  0  0  0  0  0  0
    3.7935   -2.0478    0.0000 C   0  0  0  0  0  0  0  0  0  0  0  0
    8.3311    2.5708    0.0000 C   0  0  0  0  0  0  0  0  0  0  0  0
    8.7436    1.8563    0.0000 C   0  0  0  0  0  0  0  0  0  0  0  0
    8.7436    3.2853    0.0000 C   0  0  0  0  0  0  0  0  0  0  0  0
    9.5686    1.8563    0.0000 C   0  0  0  0  0  0  0  0  0  0  0  0
    1.6500   -1.6353    0.0000 C   0  0  0  0  0  0  0  0  0  0  0  0
    9.5686    3.2853    0.0000 C   0  0  0  0  0  0  0  0  0  0  0  0
    9.9812    2.5708    0.0000 C   0  0  0  0  0  0  0  0  0  0  0  0
    4.5080   -3.2853    0.0000 C   0  0  0  0  0  0  0  0  0  0  0  0
   10.8062    1.1418    0.0000 C   0  0  0  0  0  0  0  0  0  0  0  0
   11.2187    3.2853    0.0000 C   0  0  0  0  0  0  0  0  0  0  0  0
    3.7935    2.3223    0.0000 H   0  0  0  0  0  0  0  0  0  0  0  0
    5.1535   -0.4993    0.0000 H   0  0  0  0  0  0  0  0  0  0  0  0
    5.6885    0.4273    0.0000 H   0  0  0  0  0  0  0  0  0  0  0  0
    4.4960    2.0684    0.0000 H   0  0  0  0  0  0  0  0  0  0  0  0
    5.5660    2.0684    0.0000 H   0  0  0  0  0  0  0  0  0  0  0  0
    6.3911    0.2152    0.0000 H   0  0  0  0  0  0  0  0  0  0  0  0
    5.3211    0.2152    0.0000 H   0  0  0  0  0  0  0  0  0  0  0  0
    3.0791    2.7348    0.0000 H   0  0  0  0  0  0  0  0  0  0  0  0
    2.1524    1.1298    0.0000 H   0  0  0  0  0  0  0  0  0  0  0  0
    2.1525    2.1998    0.0000 H   0  0  0  0  0  0  0  0  0  0  0  0
    5.4346    1.1298    0.0000 H   0  0  0  0  0  0  0  0  0  0  0  0
    4.5080    2.7348    0.0000 H   0  0  0  0  0  0  0  0  0  0  0  0
    5.4347    2.1998    0.0000 H   0  0  0  0  0  0  0  0  0  0  0  0
    2.1853   -0.2944    0.0000 H   0  0  0  0  0  0  0  0  0  0  0  0
    5.4018   -0.2943    0.0000 H   0  0  0  0  0  0  0  0  0  0  0  0
    7.6286    0.9297    0.0000 H   0  0  0  0  0  0  0  0  0  0  0  0
    8.1636    1.8563    0.0000 H   0  0  0  0  0  0  0  0  0  0  0  0
    6.3911    3.4974    0.0000 H   0  0  0  0  0  0  0  0  0  0  0  0
    4.7861    2.5708    0.0000 H   0  0  0  0  0  0  0  0  0  0  0  0
    5.3211    3.4975    0.0000 H   0  0  0  0  0  0  0  0  0  0  0  0
    5.4017   -2.1513    0.0000 H   0  0  0  0  0  0  0  0  0  0  0  0
    6.9711    3.4974    0.0000 H   0  0  0  0  0  0  0  0  0  0  0  0
    8.0411    3.4974    0.0000 H   0  0  0  0  0  0  0  0  0  0  0  0
    8.2276    0.9626    0.0000 H   0  0  0  0  0  0  0  0  0  0  0  0
    8.2276    4.1790    0.0000 H   0  0  0  0  0  0  0  0  0  0  0  0
    1.6500   -0.5653    0.0000 H   0  0  0  0  0  0  0  0  0  0  0  0
    0.7234   -2.1703    0.0000 H   0  0  0  0  0  0  0  0  0  0  0  0
    0.7233   -1.1003    0.0000 H   0  0  0  0  0  0  0  0  0  0  0  0
   10.0846    4.1791    0.0000 H   0  0  0  0  0  0  0  0  0  0  0  0
    4.5080   -4.3553    0.0000 H   0  0  0  0  0  0  0  0  0  0  0  0
    5.4346   -2.7503    0.0000 H   0  0  0  0  0  0  0  0  0  0  0  0
    5.4347   -3.8203    0.0000 H   0  0  0  0  0  0  0  0  0  0  0  0
   11.3412    0.2152    0.0000 H   0  0  0  0  0  0  0  0  0  0  0  0
   11.3412    2.0684    0.0000 H   0  0  0  0  0  0  0  0  0  0  0  0
   11.8762    1.1418    0.0000 H   0  0  0  0  0  0  0  0  0  0  0  0
   12.2887    3.2853    0.0000 H   0  0  0  0  0  0  0  0  0  0  0  0
   10.6837    4.2119    0.0000 H   0  0  0  0  0  0  0  0  0  0  0  0
   11.7537    4.2120    0.0000 H   0  0  0  0  0  0  0  0  0  0  0  0
  1 19  1  0  0  0  0
  1 28  1  0  0  0  0
  2 23  1  0  0  0  0
  2 31  1  0  0  0  0
  3 27  1  0  0  0  0
  3 32  1  0  0  0  0
  4 30  1  0  0  0  0
  4 33  1  0  0  0  0
  5 12  1  0  0  0  0
  5 18  1  0  0  0  0
  5 20  1  0  0  0  0
  6 15  3  0  0  0  0
  7  8  1  0  0  0  0
  7  9  1  0  0  0  0
  7 11  1  0  0  0  0
  7 15  1  0  0  0  0
  8 13  1  0  0  0  0
  8 14  1  0  0  0  0
  8 34  1  0  0  0  0
  9 10  1  0  0  0  0
  9 35  1  0  0  0  0
  9 36  1  0  0  0  0
 10 12  1  0  0  0  0
 10 37  1  0  0  0  0
 10 38  1  0  0  0  0
 11 16  2  0  0  0  0
 11 17  1  0  0  0  0
 12 39  1  0  0  0  0
 12 40  1  0  0  0  0
 13 41  1  0  0  0  0
 13 42  1  0  0  0  0
 13 43  1  0  0  0  0
 14 44  1  0  0  0  0
 14 45  1  0  0  0  0
 14 46  1  0  0  0  0
 16 19  1  0  0  0  0
 16 47  1  0  0  0  0
 17 21  2  0  0  0  0
 17 48  1  0  0  0  0
 18 22  1  0  0  0  0
 18 49  1  0  0  0  0
 18 50  1  0  0  0  0
 19 23  2  0  0  0  0
 20 51  1  0  0  0  0
 20 52  1  0  0  0  0
 20 53  1  0  0  0  0
 21 23  1  0  0  0  0
 21 54  1  0  0  0  0
 22 24  1  0  0  0  0
 22 55  1  0  0  0  0
 22 56  1  0  0  0  0
 24 25  2  0  0  0  0
 24 26  1  0  0  0  0
 25 27  1  0  0  0  0
 25 57  1  0  0  0  0
 26 29  2  0  0  0  0
 26 58  1  0  0  0  0
 27 30  2  0  0  0  0
 28 59  1  0  0  0  0
 28 60  1  0  0  0  0
 28 61  1  0  0  0  0
 29 30  1  0  0  0  0
 29 62  1  0  0  0  0
 31 63  1  0  0  0  0
 31 64  1  0  0  0  0
 31 65  1  0  0  0  0
 32 66  1  0  0  0  0
 32 67  1  0  0  0  0
 32 68  1  0  0  0  0
 33 69  1  0  0  0  0
 33 70  1  0  0  0  0
 33 71  1  0  0  0  0
M  END
>  <DRUGBANK_ID>
DB00661

>  <SECONDARY_ACCESSION_NUMBERS>
APRD00335

>  <COMMON_NAME>
Verapamil

>  <CAS_NUMBER>
52-53-9

>  <UNII>
CJ0O37KU29

>  <SYNONYMS>
Iproveratril; VÃ©rapamil; Verapamil; Verapamilo; Verapamilum

$$$$
