
 OpenBabel10282417072D

 26 26  0  0  0  0  0  0  0  0999 V2000
   -0.3611    0.7543    0.0000 C   0  0  0  0  0  0  0  0  0  0  0  0
   -0.3611   -0.0695    0.0000 C   0  0  0  0  0  0  0  0  0  0  0  0
   -1.0796    1.1584    0.0000 N   0  0  0  0  0  0  0  0  0  0  0  0
    0.3587    1.1753    0.0000 C   0  0  0  0  0  0  0  0  0  0  0  0
   -1.0796   -0.4736    0.0000 N   0  0  0  0  0  0  0  0  0  0  0  0
    0.3587   -0.4857    0.0000 O   0  0  0  0  0  0  0  0  0  0  0  0
   -1.7947    0.7458    0.0000 C   0  0  0  0  0  0  0  0  0  0  0  0
    1.0712    0.7543    0.0000 C   0  0  0  0  0  0  0  0  0  0  0  0
   -1.7947   -0.0598    0.0000 C   0  0  0  0  0  0  0  0  0  0  0  0
    0.3587   -1.1753    0.0000 C   0  0  0  0  0  0  0  0  0  0  0  0
    1.0712    0.0333    0.0000 C   0  0  0  0  0  0  0  0  0  0  0  0
    1.7947    1.1753    0.0000 C   0  0  0  0  0  0  0  0  0  0  0  0
    0.3611    2.2453    0.0000 H   0  0  0  0  0  0  0  0  0  0  0  0
    1.2886    1.7046    0.0000 H   0  0  0  0  0  0  0  0  0  0  0  0
   -2.6884    1.2619    0.0000 H   0  0  0  0  0  0  0  0  0  0  0  0
    1.9988    0.2209    0.0000 H   0  0  0  0  0  0  0  0  0  0  0  0
   -2.6887   -0.5754    0.0000 H   0  0  0  0  0  0  0  0  0  0  0  0
   -0.5679   -1.7103    0.0000 H   0  0  0  0  0  0  0  0  0  0  0  0
    1.2853   -1.7103    0.0000 H   0  0  0  0  0  0  0  0  0  0  0  0
    0.3587   -2.2453    0.0000 H   0  0  0  0  0  0  0  0  0  0  0  0
    0.1446   -0.5017    0.0000 H   0  0  0  0  0  0  0  0  0  0  0  0
    1.9978   -0.5017    0.0000 H   0  0  0  0  0  0  0  0  0  0  0  0
    1.0712   -1.0367    0.0000 H   0  0  0  0  0  0  0  0  0  0  0  0
    2.7232    0.6435    0.0000 H   0  0  0  0  0  0  0  0  0  0  0  0
    1.7911    2.2453    0.0000 H   0  0  0  0  0  0  0  0  0  0  0  0
    2.7195    1.7134    0.0000 H   0  0  0  0  0  0  0  0  0  0  0  0
  1  2  2  0  0  0  0
  1  3  1  0  0  0  0
  1  4  1  0  0  0  0
  2  5  1  0  0  0  0
  2  6  1  0  0  0  0
  3  7  2  0  0  0  0
  4  8  1  0  0  0  0
  4 13  1  0  0  0  0
  4 14  1  0  0  0  0
  5  9  2  0  0  0  0
  6 10  1  0  0  0  0
  7  9  1  0  0  0  0
  7 15  1  0  0  0  0
  8 11  1  0  0  0  0
  8 12  1  0  0  0  0
  8 16  1  0  0  0  0
  9 17  1  0  0  0  0
 10 18  1  0  0  0  0
 10 19  1  0  0  0  0
 10 20  1  0  0  0  0
 11 21  1  0  0  0  0
 11 22  1  0  0  0  0
 11 23  1  0  0  0  0
 12 24  1  0  0  0  0
 12 25  1  0  0  0  0
 12 26  1  0  0  0  0
M  END
>  <DRUGBANK_ID>
DB04512

>  <SECONDARY_ACCESSION_NUMBERS>
EXPT02668

>  <COMMON_NAME>
2-Isobutyl-3-methoxypyrazine

>  <CAS_NUMBER>
24683-00-9

>  <UNII>
S327O0T12O

>  <SYNONYMS>
3-Isobutyl-2-methoxypyrazine

$$$$
