
 OpenBabel10282417072D

 29 30  0  0  0  0  0  0  0  0999 V2000
    0.3573    0.4124    0.0000 C   0  0  0  0  0  0  0  0  0  0  0  0
    0.3573   -0.4124    0.0000 C   0  0  0  0  0  0  0  0  0  0  0  0
   -0.3573    0.8250    0.0000 C   0  0  0  0  0  0  0  0  0  0  0  0
   -0.3573   -0.8250    0.0000 C   0  0  0  0  0  0  0  0  0  0  0  0
   -1.0718    0.4124    0.0000 C   0  0  0  0  0  0  0  0  0  0  0  0
   -1.0718   -0.4124    0.0000 C   0  0  0  0  0  0  0  0  0  0  0  0
    1.0718    0.8250    0.0000 C   0  0  0  0  0  0  0  0  0  0  0  0
    1.0718    1.6501    0.0000 N   0  0  0  0  0  0  0  0  0  0  0  0
    1.7862    0.4124    0.0000 C   0  0  0  0  0  0  0  0  0  0  0  0
    1.7862    2.0627    0.0000 N   0  0  0  0  0  0  0  0  0  0  0  0
    2.5009    0.8250    0.0000 C   0  0  0  0  0  0  0  0  0  0  0  0
    2.5009    1.6501    0.0000 C   0  0  0  0  0  0  0  0  0  0  0  0
    3.2154    2.0627    0.0000 O   0  0  0  0  0  0  0  0  0  0  0  0
   -0.3573   -1.6501    0.0000 O   0  0  0  0  0  0  0  0  0  0  0  0
   -1.7863   -0.8250    0.0000 O   0  0  0  0  0  0  0  0  0  0  0  0
   -1.0719   -2.0626    0.0000 C   0  0  0  0  0  0  0  0  0  0  0  0
   -2.5008   -0.4124    0.0000 C   0  0  0  0  0  0  0  0  0  0  0  0
   -3.2154   -0.8250    0.0000 F   0  0  0  0  0  0  0  0  0  0  0  0
   -2.5008    0.4124    0.0000 F   0  0  0  0  0  0  0  0  0  0  0  0
    1.2510   -0.9284    0.0000 H   0  0  0  0  0  0  0  0  0  0  0  0
   -0.3573    1.8570    0.0000 H   0  0  0  0  0  0  0  0  0  0  0  0
   -1.9656    0.9284    0.0000 H   0  0  0  0  0  0  0  0  0  0  0  0
    1.7861   -0.6196    0.0000 H   0  0  0  0  0  0  0  0  0  0  0  0
    1.7861    3.0472    0.0000 H   0  0  0  0  0  0  0  0  0  0  0  0
    3.3946    0.3090    0.0000 H   0  0  0  0  0  0  0  0  0  0  0  0
   -1.9985   -1.5275    0.0000 H   0  0  0  0  0  0  0  0  0  0  0  0
   -1.0720   -3.1326    0.0000 H   0  0  0  0  0  0  0  0  0  0  0  0
   -1.9986   -2.5975    0.0000 H   0  0  0  0  0  0  0  0  0  0  0  0
   -3.4275    0.1226    0.0000 H   0  0  0  0  0  0  0  0  0  0  0  0
  1  7  1  0  0  0  0
  2  1  1  0  0  0  0
  2 20  1  0  0  0  0
  3  1  2  0  0  0  0
  3 21  1  0  0  0  0
  4  2  2  0  0  0  0
  4 14  1  0  0  0  0
  5  3  1  0  0  0  0
  5 22  1  0  0  0  0
  6  4  1  0  0  0  0
  6  5  2  0  0  0  0
  6 15  1  0  0  0  0
  8  7  2  0  0  0  0
  9  7  1  0  0  0  0
  9 23  1  0  0  0  0
 10  8  1  0  0  0  0
 10 24  1  0  0  0  0
 11  9  2  0  0  0  0
 11 25  1  0  0  0  0
 12 10  1  0  0  0  0
 12 11  1  0  0  0  0
 12 13  2  0  0  0  0
 14 16  1  0  0  0  0
 15 17  1  0  0  0  0
 16 26  1  0  0  0  0
 16 27  1  0  0  0  0
 16 28  1  0  0  0  0
 17 18  1  0  0  0  0
 17 19  1  0  0  0  0
 17 29  1  0  0  0  0
M  END
>  <DRUGBANK_ID>
DB02918

>  <SECONDARY_ACCESSION_NUMBERS>
EXPT03284

>  <COMMON_NAME>
Zardaverine

>  <CAS_NUMBER>
101975-10-4

>  <UNII>
TQ358GWH6Y

>  <SYNONYMS>
6-(4-(Difluoromethoxy)-3-methoxyphenyl)-3(2H)-pyridazinone; zardaverina; Zardaverine

$$$$
