
 OpenBabel10282417072D

 28 29  0  0  0  0  0  0  0  0999 V2000
    0.7221    0.0434    0.0000 N   0  0  0  0  0  0  0  0  0  0  0  0
    0.0118    0.4630    0.0000 C   0  0  3  0  0  0  0  0  0  0  0  0
    0.8163   -0.7761    0.0000 C   0  0  0  0  0  0  0  0  0  0  0  0
    1.4726    0.3862    0.0000 N   0  0  0  0  0  0  0  0  0  0  0  0
   -0.7066    0.0576    0.0000 C   0  0  0  0  0  0  0  0  0  0  0  0
    0.0200    1.2880    0.0000 C   0  0  0  0  0  0  0  0  0  0  0  0
    1.6248   -0.9398    0.0000 C   0  0  0  0  0  0  0  0  0  0  0  0
    0.1693   -1.2879    0.0000 O   0  0  0  0  0  0  0  0  0  0  0  0
    2.0305   -0.2214    0.0000 C   0  0  0  0  0  0  0  0  0  0  0  0
   -1.4180    0.4707    0.0000 C   0  0  0  0  0  0  0  0  0  0  0  0
   -0.7066   -0.7687    0.0000 C   0  0  0  0  0  0  0  0  0  0  0  0
    2.8502   -0.1273    0.0000 N   0  0  0  0  0  0  0  0  0  0  0  0
   -2.1336    0.0600    0.0000 C   0  0  0  0  0  0  0  0  0  0  0  0
   -1.4221   -1.1794    0.0000 C   0  0  0  0  0  0  0  0  0  0  0  0
   -2.1395   -0.7648    0.0000 C   0  0  0  0  0  0  0  0  0  0  0  0
   -2.8460    0.4759    0.0000 Cl  0  0  0  0  0  0  0  0  0  0  0  0
   -2.8502   -1.1837    0.0000 Cl  0  0  0  0  0  0  0  0  0  0  0  0
    0.0012   -0.6069    0.0000 H   0  0  0  0  0  0  0  0  0  0  0  0
    0.9519    1.8138    0.0000 H   0  0  0  0  0  0  0  0  0  0  0  0
   -0.9013    1.8322    0.0000 H   0  0  0  0  0  0  0  0  0  0  0  0
    0.0306    2.3579    0.0000 H   0  0  0  0  0  0  0  0  0  0  0  0
    2.0694   -1.9131    0.0000 H   0  0  0  0  0  0  0  0  0  0  0  0
    2.6938   -0.9856    0.0000 H   0  0  0  0  0  0  0  0  0  0  0  0
   -1.4154    1.5027    0.0000 H   0  0  0  0  0  0  0  0  0  0  0  0
    0.1865   -1.2858    0.0000 H   0  0  0  0  0  0  0  0  0  0  0  0
    3.4365   -0.9182    0.0000 H   0  0  0  0  0  0  0  0  0  0  0  0
    3.2420    0.7759    0.0000 H   0  0  0  0  0  0  0  0  0  0  0  0
   -1.4236   -2.2114    0.0000 H   0  0  0  0  0  0  0  0  0  0  0  0
  1  2  1  0  0  0  0
  1  3  1  0  0  0  0
  1  4  1  0  0  0  0
  2  5  1  0  0  0  0
  2  6  1  0  0  0  0
  2 18  1  0  0  0  0
  3  7  1  0  0  0  0
  3  8  2  0  0  0  0
  4  9  2  0  0  0  0
  5 10  2  0  0  0  0
  5 11  1  0  0  0  0
  6 19  1  0  0  0  0
  6 20  1  0  0  0  0
  6 21  1  0  0  0  0
  7  9  1  0  0  0  0
  7 22  1  0  0  0  0
  7 23  1  0  0  0  0
  9 12  1  0  0  0  0
 10 13  1  0  0  0  0
 10 24  1  0  0  0  0
 11 14  2  0  0  0  0
 11 25  1  0  0  0  0
 12 26  1  0  0  0  0
 12 27  1  0  0  0  0
 13 15  2  0  0  0  0
 13 16  1  0  0  0  0
 14 15  1  0  0  0  0
 14 28  1  0  0  0  0
 15 17  1  0  0  0  0
M  END
>  <DRUGBANK_ID>
DB13801

>  <COMMON_NAME>
Muzolimine

>  <CAS_NUMBER>
55294-15-0

>  <UNII>
07Z36289ZX

>  <SYNONYMS>
Muzolimina; Muzolimine; Muzoliminum

$$$$
