BDB
 OpenBabel10282417072D

 30 31  0  0  0  0  0  0  0  0999 V2000
    0.0137    2.8924    0.0000 B   0  0  0  0  0  0  0  0  0  0  0  0
   -0.7008    3.3049    0.0000 O   0  0  0  0  0  0  0  0  0  0  0  0
    0.7282    3.3049    0.0000 O   0  0  0  0  0  0  0  0  0  0  0  0
    0.0137    2.0674    0.0000 C   0  0  0  0  0  0  0  0  0  0  0  0
    0.7282    1.6549    0.0000 C   0  0  0  0  0  0  0  0  0  0  0  0
    0.7282    0.8299    0.0000 C   0  0  0  0  0  0  0  0  0  0  0  0
    0.0137    0.4174    0.0000 C   0  0  0  0  0  0  0  0  0  0  0  0
   -0.7008    0.8299    0.0000 C   0  0  0  0  0  0  0  0  0  0  0  0
   -0.7008    1.6549    0.0000 C   0  0  0  0  0  0  0  0  0  0  0  0
    0.0137   -0.4076    0.0000 C   0  0  0  0  0  0  0  0  0  0  0  0
    0.7282   -0.8201    0.0000 C   0  0  0  0  0  0  0  0  0  0  0  0
    0.7282   -1.6451    0.0000 C   0  0  0  0  0  0  0  0  0  0  0  0
    0.0137   -2.0576    0.0000 C   0  0  0  0  0  0  0  0  0  0  0  0
   -0.7008   -1.6451    0.0000 C   0  0  0  0  0  0  0  0  0  0  0  0
   -0.7008   -0.8201    0.0000 C   0  0  0  0  0  0  0  0  0  0  0  0
    0.0137   -2.8826    0.0000 B   0  0  0  0  0  0  0  0  0  0  0  0
    0.7282   -3.2951    0.0000 O   0  0  0  0  0  0  0  0  0  0  0  0
   -0.7008   -3.2951    0.0000 O   0  0  0  0  0  0  0  0  0  0  0  0
   -0.7008    4.2749    0.0000 H   0  0  0  0  0  0  0  0  0  0  0  0
    1.5682    2.8199    0.0000 H   0  0  0  0  0  0  0  0  0  0  0  0
    1.6219    2.1709    0.0000 H   0  0  0  0  0  0  0  0  0  0  0  0
    1.6219    0.3139    0.0000 H   0  0  0  0  0  0  0  0  0  0  0  0
   -1.5945    0.3139    0.0000 H   0  0  0  0  0  0  0  0  0  0  0  0
   -1.5945    2.1709    0.0000 H   0  0  0  0  0  0  0  0  0  0  0  0
    1.6219   -0.3041    0.0000 H   0  0  0  0  0  0  0  0  0  0  0  0
    1.6219   -2.1611    0.0000 H   0  0  0  0  0  0  0  0  0  0  0  0
   -1.5945   -2.1611    0.0000 H   0  0  0  0  0  0  0  0  0  0  0  0
   -1.5945   -0.3041    0.0000 H   0  0  0  0  0  0  0  0  0  0  0  0
    0.7282   -4.2651    0.0000 H   0  0  0  0  0  0  0  0  0  0  0  0
   -1.5408   -2.8101    0.0000 H   0  0  0  0  0  0  0  0  0  0  0  0
  1  2  1  0  0  0  0
  1  3  1  0  0  0  0
  1  4  1  0  0  0  0
  2 19  1  0  0  0  0
  3 20  1  0  0  0  0
  4  5  2  0  0  0  0
  4  9  1  0  0  0  0
  5  6  1  0  0  0  0
  5 21  1  0  0  0  0
  6  7  2  0  0  0  0
  6 22  1  0  0  0  0
  7  8  1  0  0  0  0
  7 10  1  0  0  0  0
  8  9  2  0  0  0  0
  8 23  1  0  0  0  0
  9 24  1  0  0  0  0
 10 11  2  0  0  0  0
 10 15  1  0  0  0  0
 11 12  1  0  0  0  0
 11 25  1  0  0  0  0
 12 13  2  0  0  0  0
 12 26  1  0  0  0  0
 13 14  1  0  0  0  0
 13 16  1  0  0  0  0
 14 15  2  0  0  0  0
 14 27  1  0  0  0  0
 15 28  1  0  0  0  0
 16 17  1  0  0  0  0
 16 18  1  0  0  0  0
 17 29  1  0  0  0  0
 18 30  1  0  0  0  0
M  END
>  <DRUGBANK_ID>
DB02627

>  <SECONDARY_ACCESSION_NUMBERS>
EXPT00647

>  <COMMON_NAME>
4,4'-Biphenyldiboronic Acid

>  <UNII>
OS4M710QCG

$$$$
