
 OpenBabel10282417072D

 43 45  0  0  0  0  0  0  0  0999 V2000
   -0.1900   -0.4380    0.0000 C   0  0  0  0  0  0  0  0  0  0  0  0
   -1.0181    1.0111    0.0000 C   0  0  0  0  0  0  0  0  0  0  0  0
   -0.1900    1.0111    0.0000 C   0  0  0  0  0  0  0  0  0  0  0  0
    0.2240    0.3071    0.0000 C   0  0  0  0  0  0  0  0  0  0  0  0
   -1.0181   -0.4380    0.0000 C   0  0  0  0  0  0  0  0  0  0  0  0
   -1.4321    0.3071    0.0000 C   0  0  0  0  0  0  0  0  0  0  0  0
   -1.4321    1.7150    0.0000 S   0  0  0  0  0  0  0  0  0  0  0  0
    0.2240   -1.1419    0.0000 C   0  0  0  0  0  0  0  0  0  0  0  0
    1.0521   -1.1419    0.0000 C   0  0  0  0  0  0  0  0  0  0  0  0
    1.3004   -1.9287    0.0000 C   0  0  0  0  0  0  0  0  0  0  0  0
    0.6380   -2.4255    0.0000 O   0  0  0  0  0  0  0  0  0  0  0  0
   -0.0244   -1.9287    0.0000 C   0  0  0  0  0  0  0  0  0  0  0  0
    1.5489   -0.4794    0.0000 O   0  0  0  0  0  0  0  0  0  0  0  0
    1.5489    0.9493    0.0000 C   0  0  0  0  0  0  0  0  0  0  0  0
    2.0871   -2.1771    0.0000 O   0  0  0  0  0  0  0  0  0  0  0  0
    1.5489    1.7628    0.0000 C   0  0  0  0  0  0  0  0  0  0  0  0
    2.2571    1.3497    0.0000 C   0  0  0  0  0  0  0  0  0  0  0  0
    1.1363    0.2349    0.0000 C   0  0  0  0  0  0  0  0  0  0  0  0
   -2.2571    1.7014    0.0000 C   0  0  0  0  0  0  0  0  0  0  0  0
   -1.4458    2.5397    0.0000 O   0  0  0  0  0  0  0  0  0  0  0  0
   -0.7246    2.1390    0.0000 O   0  0  0  0  0  0  0  0  0  0  0  0
   -0.5785   -2.5397    0.0000 C   0  0  0  0  0  0  0  0  0  0  0  0
   -0.8308   -1.7542    0.0000 C   0  0  0  0  0  0  0  0  0  0  0  0
    0.3224    1.9069    0.0000 H   0  0  0  0  0  0  0  0  0  0  0  0
    1.2559    0.3197    0.0000 H   0  0  0  0  0  0  0  0  0  0  0  0
   -1.5414   -1.3275    0.0000 H   0  0  0  0  0  0  0  0  0  0  0  0
   -2.4640    0.3197    0.0000 H   0  0  0  0  0  0  0  0  0  0  0  0
    2.3020    0.1892    0.0000 H   0  0  0  0  0  0  0  0  0  0  0  0
    1.0160    2.6906    0.0000 H   0  0  0  0  0  0  0  0  0  0  0  0
    2.3080    2.5169    0.0000 H   0  0  0  0  0  0  0  0  0  0  0  0
    3.3271    1.3425    0.0000 H   0  0  0  0  0  0  0  0  0  0  0  0
    2.5398    2.3817    0.0000 H   0  0  0  0  0  0  0  0  0  0  0  0
    0.0663    0.2349    0.0000 H   0  0  0  0  0  0  0  0  0  0  0  0
    0.6014    1.1616    0.0000 H   0  0  0  0  0  0  0  0  0  0  0  0
   -2.8073    2.6191    0.0000 H   0  0  0  0  0  0  0  0  0  0  0  0
   -2.7768    0.7661    0.0000 H   0  0  0  0  0  0  0  0  0  0  0  0
   -3.3270    1.6838    0.0000 H   0  0  0  0  0  0  0  0  0  0  0  0
   -1.6243   -2.3135    0.0000 H   0  0  0  0  0  0  0  0  0  0  0  0
   -0.2515   -3.5585    0.0000 H   0  0  0  0  0  0  0  0  0  0  0  0
   -1.2973   -3.3323    0.0000 H   0  0  0  0  0  0  0  0  0  0  0  0
   -1.1577   -0.7354    0.0000 H   0  0  0  0  0  0  0  0  0  0  0  0
   -1.5497   -2.5467    0.0000 H   0  0  0  0  0  0  0  0  0  0  0  0
   -1.8766   -1.5279    0.0000 H   0  0  0  0  0  0  0  0  0  0  0  0
  1  5  1  0  0  0  0
  1  8  1  0  0  0  0
  2  3  2  0  0  0  0
  2  6  1  0  0  0  0
  2  7  1  0  0  0  0
  3  4  1  0  0  0  0
  3 24  1  0  0  0  0
  4  1  2  0  0  0  0
  4 25  1  0  0  0  0
  5  6  2  0  0  0  0
  5 26  1  0  0  0  0
  6 27  1  0  0  0  0
  7 19  1  0  0  0  0
  7 20  2  0  0  0  0
  7 21  2  0  0  0  0
  8  9  2  0  0  0  0
  8 12  1  0  0  0  0
  9 10  1  0  0  0  0
  9 13  1  0  0  0  0
 10 11  1  0  0  0  0
 10 15  2  0  0  0  0
 11 12  1  0  0  0  0
 13 18  1  0  0  0  0
 14 16  1  0  0  0  0
 14 17  1  0  0  0  0
 14 28  1  0  0  0  0
 16 17  1  0  0  0  0
 16 29  1  0  0  0  0
 16 30  1  0  0  0  0
 17 31  1  0  0  0  0
 17 32  1  0  0  0  0
 18 14  1  0  0  0  0
 18 33  1  0  0  0  0
 18 34  1  0  0  0  0
 19 35  1  0  0  0  0
 19 36  1  0  0  0  0
 19 37  1  0  0  0  0
 22 12  1  0  0  0  0
 22 38  1  0  0  0  0
 22 39  1  0  0  0  0
 22 40  1  0  0  0  0
 23 12  1  0  0  0  0
 23 41  1  0  0  0  0
 23 42  1  0  0  0  0
 23 43  1  0  0  0  0
M  END
>  <DRUGBANK_ID>
DB09217

>  <COMMON_NAME>
Firocoxib

>  <CAS_NUMBER>
189954-96-9

>  <UNII>
Y6V2W4S4WT

>  <SYNONYMS>
Firocoxib

$$$$
