
 OpenBabel10282417072D

 12 11  0  0  0  0  0  0  0  0999 V2000
    1.0717    0.2062    0.0000 C   0  0  0  0  0  0  0  0  0  0  0  0
    0.3572   -0.2062    0.0000 N   0  0  0  0  0  0  0  0  0  0  0  0
    1.7861   -0.2062    0.0000 N   0  0  0  0  0  0  0  0  0  0  0  0
    1.0717    1.0312    0.0000 O   0  0  0  0  0  0  0  0  0  0  0  0
   -0.3572    0.2062    0.0000 N   0  0  0  0  0  0  0  0  0  0  0  0
   -1.0716   -0.2062    0.0000 C   0  0  0  0  0  0  0  0  0  0  0  0
   -1.0716   -1.0312    0.0000 N   0  0  0  0  0  0  0  0  0  0  0  0
   -1.7861    0.2062    0.0000 O   0  0  0  0  0  0  0  0  0  0  0  0
    1.7862   -1.1907    0.0000 H   0  0  0  0  0  0  0  0  0  0  0  0
    2.6387    0.2861    0.0000 H   0  0  0  0  0  0  0  0  0  0  0  0
   -1.9242   -1.5234    0.0000 H   0  0  0  0  0  0  0  0  0  0  0  0
   -0.2190   -1.5234    0.0000 H   0  0  0  0  0  0  0  0  0  0  0  0
  1  2  1  0  0  0  0
  1  3  1  0  0  0  0
  1  4  2  0  0  0  0
  2  5  2  0  0  0  0
  3  9  1  0  0  0  0
  3 10  1  0  0  0  0
  5  6  1  0  0  0  0
  6  7  1  0  0  0  0
  6  8  2  0  0  0  0
  7 11  1  0  0  0  0
  7 12  1  0  0  0  0
M  END
>  <DRUGBANK_ID>
DB16861

>  <COMMON_NAME>
Azodicarbonamide

>  <CAS_NUMBER>
123-77-3

>  <UNII>
56Z28B9C8O

>  <SYNONYMS>
1,1'-Azobis(formamide); 1,1'-Azobisformamide; Azobiscarboxamide; Azodicarboxylic acid diamide

$$$$
