
 OpenBabel10282417072D

 34 36  0  0  0  0  0  0  0  0999 V2000
    0.0003   -2.3878    0.0000 C   0  0  0  0  0  0  0  0  0  0  0  0
    0.1615   -3.1967    0.0000 C   0  0  0  0  0  0  0  0  0  0  0  0
   -0.4041   -3.7640    0.0000 C   0  0  0  0  0  0  0  0  0  0  0  0
   -1.2138   -3.5206    0.0000 C   0  0  0  0  0  0  0  0  0  0  0  0
   -1.3758   -2.7117    0.0000 C   0  0  0  0  0  0  0  0  0  0  0  0
   -0.8086   -2.1444    0.0000 C   0  0  0  0  0  0  0  0  0  0  0  0
   -0.9706   -1.3354    0.0000 S   0  0  0  0  0  0  0  0  0  0  0  0
   -0.3235   -0.7691    0.0000 C   0  0  0  0  0  0  0  0  0  0  0  0
    0.4854   -1.0117    0.0000 C   0  0  0  0  0  0  0  0  0  0  0  0
    1.0519   -0.5257    0.0000 C   0  0  0  0  0  0  0  0  0  0  0  0
    0.8900    0.2832    0.0000 C   0  0  0  0  0  0  0  0  0  0  0  0
    0.0810    0.5257    0.0000 C   0  0  0  0  0  0  0  0  0  0  0  0
    0.0810    1.3354    0.0000 N   0  0  0  0  0  0  0  0  0  0  0  0
    0.8900    1.5780    0.0000 C   0  0  0  0  0  0  0  0  0  0  0  0
    1.1333    2.3878    0.0000 N   0  0  0  0  0  0  0  0  0  0  0  0
    0.5668    2.9543    0.0000 C   0  0  0  0  0  0  0  0  0  0  0  0
   -0.2422    2.7923    0.0000 O   0  0  0  0  0  0  0  0  0  0  0  0
   -0.7281    3.4400    0.0000 C   0  0  0  0  0  0  0  0  0  0  0  0
   -0.4847   -0.0406    0.0000 C   0  0  0  0  0  0  0  0  0  0  0  0
    0.8900    3.7640    0.0000 O   0  0  0  0  0  0  0  0  0  0  0  0
    1.3758    0.9303    0.0000 N   0  0  0  0  0  0  0  0  0  0  0  0
    0.7641   -1.6938    0.0000 H   0  0  0  0  0  0  0  0  0  0  0  0
    1.1493   -3.4954    0.0000 H   0  0  0  0  0  0  0  0  0  0  0  0
   -0.1513   -4.7646    0.0000 H   0  0  0  0  0  0  0  0  0  0  0  0
   -1.9771   -4.2151    0.0000 H   0  0  0  0  0  0  0  0  0  0  0  0
   -2.3636   -2.4128    0.0000 H   0  0  0  0  0  0  0  0  0  0  0  0
    0.6994   -2.0213    0.0000 H   0  0  0  0  0  0  0  0  0  0  0  0
    2.0275   -0.8622    0.0000 H   0  0  0  0  0  0  0  0  0  0  0  0
    2.0880    2.6283    0.0000 H   0  0  0  0  0  0  0  0  0  0  0  0
   -0.3079    4.4240    0.0000 H   0  0  0  0  0  0  0  0  0  0  0  0
   -1.7904    3.3119    0.0000 H   0  0  0  0  0  0  0  0  0  0  0  0
   -1.3702    4.2959    0.0000 H   0  0  0  0  0  0  0  0  0  0  0  0
   -1.4755    0.2481    0.0000 H   0  0  0  0  0  0  0  0  0  0  0  0
    2.3603    0.9301    0.0000 H   0  0  0  0  0  0  0  0  0  0  0  0
  1  2  2  0  0  0  0
  1  6  1  0  0  0  0
  1 22  1  0  0  0  0
  2  3  1  0  0  0  0
  2 23  1  0  0  0  0
  3  4  2  0  0  0  0
  3 24  1  0  0  0  0
  4  5  1  0  0  0  0
  4 25  1  0  0  0  0
  5  6  2  0  0  0  0
  5 26  1  0  0  0  0
  6  7  1  0  0  0  0
  7  8  1  0  0  0  0
  8  9  1  0  0  0  0
  8 19  2  0  0  0  0
  9 10  2  0  0  0  0
  9 27  1  0  0  0  0
 10 11  1  0  0  0  0
 10 28  1  0  0  0  0
 11 12  2  0  0  0  0
 11 21  1  0  0  0  0
 12 13  1  0  0  0  0
 12 19  1  0  0  0  0
 13 14  2  0  0  0  0
 14 15  1  0  0  0  0
 14 21  1  0  0  0  0
 15 16  1  0  0  0  0
 15 29  1  0  0  0  0
 16 17  1  0  0  0  0
 16 20  2  0  0  0  0
 17 18  1  0  0  0  0
 18 30  1  0  0  0  0
 18 31  1  0  0  0  0
 18 32  1  0  0  0  0
 19 33  1  0  0  0  0
 21 34  1  0  0  0  0
M  END
>  <DRUGBANK_ID>
DB11410

>  <COMMON_NAME>
Fenbendazole

>  <CAS_NUMBER>
43210-67-9

>  <UNII>
621BVT9M36

>  <SYNONYMS>
[5-(phenylthio)-1H-benzimidazol-2-yl]carbamic acid methyl ester; 2-(methoxycarbonylamino)-5-(phenylthio)benzimidazole; 5-(phenylthio)-2-benzimidazolecarbamic acid methyl ester; Fenbendazol; Fenbendazole; Fenbendazolum; Methyl [5-(phenylthio)-1H-benzimidazol-2-yl]carbamate; methyl 5-(phenylthio)-2-benzimidazolecarbamate

$$$$
