Crocin
 OpenBabel10282417072D
Mrv0541 05141315032D
132135  0  0  1  0  0  0  0  0999 V2000
    4.2365   -4.5376    0.0000 O   0  0  0  0  0  0  0  0  0  0  0  0
   19.2407    5.7751    0.0000 O   0  0  0  0  0  0  0  0  0  0  0  0
    7.0944   -5.3626    0.0000 O   0  0  0  0  0  0  0  0  0  0  0  0
   15.6682    5.3626    0.0000 O   0  0  0  0  0  0  0  0  0  0  0  0
   17.8117    5.7751    0.0000 O   0  0  0  0  0  0  0  0  0  0  0  0
    5.6655   -4.5376    0.0000 O   0  0  0  0  0  0  0  0  0  0  0  0
   17.0973    7.0127    0.0000 O   0  0  0  0  0  0  0  0  0  0  0  0
    5.6655   -7.0127    0.0000 O   0  0  0  0  0  0  0  0  0  0  0  0
   17.8117    4.1251    0.0000 O   0  0  0  0  0  0  0  0  0  0  0  0
    5.6655   -2.8876    0.0000 O   0  0  0  0  0  0  0  0  0  0  0  0
   19.2407    3.3001    0.0000 O   0  0  0  0  0  0  0  0  0  0  0  0
    4.2365   -2.0625    0.0000 O   0  0  0  0  0  0  0  0  0  0  0  0
   15.6682    7.8377    0.0000 O   0  0  0  0  0  0  0  0  0  0  0  0
    7.0944   -7.8377    0.0000 O   0  0  0  0  0  0  0  0  0  0  0  0
    2.8075   -2.8876    0.0000 O   0  0  0  0  0  0  0  0  0  0  0  0
   20.6697    4.1251    0.0000 O   0  0  0  0  0  0  0  0  0  0  0  0
   14.2393    7.0127    0.0000 O   0  0  0  0  0  0  0  0  0  0  0  0
    8.5234   -7.0127    0.0000 O   0  0  0  0  0  0  0  0  0  0  0  0
   14.2393    5.3626    0.0000 O   0  0  0  0  0  0  0  0  0  0  0  0
    8.5234   -5.3626    0.0000 O   0  0  0  0  0  0  0  0  0  0  0  0
   20.6697    6.6001    0.0000 O   0  0  0  0  0  0  0  0  0  0  0  0
    2.0930   -4.1251    0.0000 O   0  0  0  0  0  0  0  0  0  0  0  0
    7.8089   -4.1251    0.0000 O   0  0  0  0  0  0  0  0  0  0  0  0
   14.9538    4.1251    0.0000 O   0  0  0  0  0  0  0  0  0  0  0  0
    6.3799   -5.7751    0.0000 C   0  0  1  0  0  0  0  0  0  0  0  0
   16.3827    5.7751    0.0000 C   0  0  1  0  0  0  0  0  0  0  0  0
   16.3827    6.6001    0.0000 C   0  0  2  0  0  0  0  0  0  0  0  0
    6.3799   -6.6001    0.0000 C   0  0  2  0  0  0  0  0  0  0  0  0
   18.5262    4.5376    0.0000 C   0  0  2  0  0  0  0  0  0  0  0  0
    4.9509   -3.3001    0.0000 C   0  0  2  0  0  0  0  0  0  0  0  0
    4.2365   -2.8876    0.0000 C   0  0  2  0  0  0  0  0  0  0  0  0
   19.2407    4.1251    0.0000 C   0  0  2  0  0  0  0  0  0  0  0  0
   15.6682    7.0127    0.0000 C   0  0  1  0  0  0  0  0  0  0  0  0
    7.0944   -7.0127    0.0000 C   0  0  1  0  0  0  0  0  0  0  0  0
    4.9509   -4.1251    0.0000 C   0  0  1  0  0  0  0  0  0  0  0  0
   18.5262    5.3626    0.0000 C   0  0  1  0  0  0  0  0  0  0  0  0
    3.5220   -3.3001    0.0000 C   0  0  1  0  0  0  0  0  0  0  0  0
   19.9552    4.5376    0.0000 C   0  0  1  0  0  0  0  0  0  0  0  0
    3.5220   -4.1251    0.0000 C   0  0  1  0  0  0  0  0  0  0  0  0
   19.9552    5.3626    0.0000 C   0  0  1  0  0  0  0  0  0  0  0  0
    7.8089   -6.6001    0.0000 C   0  0  2  0  0  0  0  0  0  0  0  0
   14.9538    6.6001    0.0000 C   0  0  2  0  0  0  0  0  0  0  0  0
   17.0973    5.3626    0.0000 C   0  0  0  0  0  0  0  0  0  0  0  0
    5.6655   -5.3626    0.0000 C   0  0  0  0  0  0  0  0  0  0  0  0
   14.9538    5.7751    0.0000 C   0  0  1  0  0  0  0  0  0  0  0  0
    7.8089   -5.7751    0.0000 C   0  0  1  0  0  0  0  0  0  0  0  0
    2.8075   -4.5376    0.0000 C   0  0  0  0  0  0  0  0  0  0  0  0
   20.6697    5.7751    0.0000 C   0  0  0  0  0  0  0  0  0  0  0  0
    8.5234   -4.5376    0.0000 C   0  0  0  0  0  0  0  0  0  0  0  0
   14.2393    4.5376    0.0000 C   0  0  0  0  0  0  0  0  0  0  0  0
    9.2379   -4.1251    0.0000 C   0  0  0  0  0  0  0  0  0  0  0  0
   13.5248    4.1251    0.0000 C   0  0  0  0  0  0  0  0  0  0  0  0
    9.9524   -4.5376    0.0000 C   0  0  0  0  0  0  0  0  0  0  0  0
   12.8103    4.5376    0.0000 C   0  0  0  0  0  0  0  0  0  0  0  0
   13.5248    3.3001    0.0000 C   0  0  0  0  0  0  0  0  0  0  0  0
    9.2379   -3.3001    0.0000 C   0  0  0  0  0  0  0  0  0  0  0  0
   12.8103    2.8876    0.0000 C   0  0  0  0  0  0  0  0  0  0  0  0
    9.9524   -2.8876    0.0000 C   0  0  0  0  0  0  0  0  0  0  0  0
   12.8103    2.0625    0.0000 C   0  0  0  0  0  0  0  0  0  0  0  0
    9.9524   -2.0625    0.0000 C   0  0  0  0  0  0  0  0  0  0  0  0
   12.0958    1.6500    0.0000 C   0  0  0  0  0  0  0  0  0  0  0  0
   10.6668   -1.6500    0.0000 C   0  0  0  0  0  0  0  0  0  0  0  0
   11.3814    2.0625    0.0000 C   0  0  0  0  0  0  0  0  0  0  0  0
   11.3814   -2.0625    0.0000 C   0  0  0  0  0  0  0  0  0  0  0  0
   12.0958    0.8250    0.0000 C   0  0  0  0  0  0  0  0  0  0  0  0
   10.6668   -0.8250    0.0000 C   0  0  0  0  0  0  0  0  0  0  0  0
   11.3814   -0.4125    0.0000 C   0  0  0  0  0  0  0  0  0  0  0  0
   11.3814    0.4125    0.0000 C   0  0  0  0  0  0  0  0  0  0  0  0
   17.9374    6.5277    0.0000 H   0  0  0  0  0  0  0  0  0  0  0  0
    4.8254   -6.5278    0.0000 H   0  0  0  0  0  0  0  0  0  0  0  0
   16.9717    4.6101    0.0000 H   0  0  0  0  0  0  0  0  0  0  0  0
    6.5055   -3.3727    0.0000 H   0  0  0  0  0  0  0  0  0  0  0  0
   18.4007    2.8151    0.0000 H   0  0  0  0  0  0  0  0  0  0  0  0
    5.0765   -1.5775    0.0000 H   0  0  0  0  0  0  0  0  0  0  0  0
   16.5082    8.3227    0.0000 H   0  0  0  0  0  0  0  0  0  0  0  0
    6.2544   -8.3227    0.0000 H   0  0  0  0  0  0  0  0  0  0  0  0
    2.8075   -1.9176    0.0000 H   0  0  0  0  0  0  0  0  0  0  0  0
   20.6697    3.1551    0.0000 H   0  0  0  0  0  0  0  0  0  0  0  0
   14.2394    7.9827    0.0000 H   0  0  0  0  0  0  0  0  0  0  0  0
    8.5233   -7.9827    0.0000 H   0  0  0  0  0  0  0  0  0  0  0  0
   21.5097    7.0851    0.0000 H   0  0  0  0  0  0  0  0  0  0  0  0
    2.0930   -3.1551    0.0000 H   0  0  0  0  0  0  0  0  0  0  0  0
    6.3799   -4.7051    0.0000 H   0  0  0  0  0  0  0  0  0  0  0  0
   16.3827    4.7051    0.0000 H   0  0  0  0  0  0  0  0  0  0  0  0
   17.3094    6.0651    0.0000 H   0  0  0  0  0  0  0  0  0  0  0  0
    5.4532   -6.0652    0.0000 H   0  0  0  0  0  0  0  0  0  0  0  0
   18.5262    3.4676    0.0000 H   0  0  0  0  0  0  0  0  0  0  0  0
    4.9510   -2.2301    0.0000 H   0  0  0  0  0  0  0  0  0  0  0  0
    5.1632   -2.3526    0.0000 H   0  0  0  0  0  0  0  0  0  0  0  0
   18.3141    3.5901    0.0000 H   0  0  0  0  0  0  0  0  0  0  0  0
   16.5949    7.5477    0.0000 H   0  0  0  0  0  0  0  0  0  0  0  0
    6.1677   -7.5477    0.0000 H   0  0  0  0  0  0  0  0  0  0  0  0
    4.9510   -5.1951    0.0000 H   0  0  0  0  0  0  0  0  0  0  0  0
   18.5262    6.4326    0.0000 H   0  0  0  0  0  0  0  0  0  0  0  0
    3.5220   -2.2301    0.0000 H   0  0  0  0  0  0  0  0  0  0  0  0
   19.9552    3.4676    0.0000 H   0  0  0  0  0  0  0  0  0  0  0  0
    3.5220   -5.1951    0.0000 H   0  0  0  0  0  0  0  0  0  0  0  0
   19.9552    6.4326    0.0000 H   0  0  0  0  0  0  0  0  0  0  0  0
    7.8089   -7.6701    0.0000 H   0  0  0  0  0  0  0  0  0  0  0  0
   14.9538    7.6701    0.0000 H   0  0  0  0  0  0  0  0  0  0  0  0
   17.0974    4.2926    0.0000 H   0  0  0  0  0  0  0  0  0  0  0  0
   16.1707    4.8275    0.0000 H   0  0  0  0  0  0  0  0  0  0  0  0
    4.7388   -5.8976    0.0000 H   0  0  0  0  0  0  0  0  0  0  0  0
    5.6655   -6.4326    0.0000 H   0  0  0  0  0  0  0  0  0  0  0  0
   14.9538    4.7051    0.0000 H   0  0  0  0  0  0  0  0  0  0  0  0
    7.8089   -4.7051    0.0000 H   0  0  0  0  0  0  0  0  0  0  0  0
    2.8075   -5.6076    0.0000 H   0  0  0  0  0  0  0  0  0  0  0  0
    3.7341   -5.0726    0.0000 H   0  0  0  0  0  0  0  0  0  0  0  0
   21.5963    5.2401    0.0000 H   0  0  0  0  0  0  0  0  0  0  0  0
   20.6697    4.7051    0.0000 H   0  0  0  0  0  0  0  0  0  0  0  0
    9.9524   -5.6076    0.0000 H   0  0  0  0  0  0  0  0  0  0  0  0
   10.8790   -4.0026    0.0000 H   0  0  0  0  0  0  0  0  0  0  0  0
   10.8791   -5.0726    0.0000 H   0  0  0  0  0  0  0  0  0  0  0  0
   12.8103    5.6076    0.0000 H   0  0  0  0  0  0  0  0  0  0  0  0
   11.8837    4.0026    0.0000 H   0  0  0  0  0  0  0  0  0  0  0  0
   11.8836    5.0726    0.0000 H   0  0  0  0  0  0  0  0  0  0  0  0
   14.4185    2.7841    0.0000 H   0  0  0  0  0  0  0  0  0  0  0  0
    8.3442   -2.7841    0.0000 H   0  0  0  0  0  0  0  0  0  0  0  0
   11.9166    3.4036    0.0000 H   0  0  0  0  0  0  0  0  0  0  0  0
   10.8461   -3.4036    0.0000 H   0  0  0  0  0  0  0  0  0  0  0  0
   13.7040    1.5465    0.0000 H   0  0  0  0  0  0  0  0  0  0  0  0
    9.0587   -1.5465    0.0000 H   0  0  0  0  0  0  0  0  0  0  0  0
   11.3814    3.1325    0.0000 H   0  0  0  0  0  0  0  0  0  0  0  0
   10.4547    1.5275    0.0000 H   0  0  0  0  0  0  0  0  0  0  0  0
   10.4548    2.5975    0.0000 H   0  0  0  0  0  0  0  0  0  0  0  0
   11.3815   -3.1325    0.0000 H   0  0  0  0  0  0  0  0  0  0  0  0
   12.3080   -1.5274    0.0000 H   0  0  0  0  0  0  0  0  0  0  0  0
   12.3081   -2.5974    0.0000 H   0  0  0  0  0  0  0  0  0  0  0  0
   12.9895    0.3090    0.0000 H   0  0  0  0  0  0  0  0  0  0  0  0
    9.7731   -0.3090    0.0000 H   0  0  0  0  0  0  0  0  0  0  0  0
   12.2751   -0.9285    0.0000 H   0  0  0  0  0  0  0  0  0  0  0  0
   10.4877    0.9285    0.0000 H   0  0  0  0  0  0  0  0  0  0  0  0
  1 35  1  0  0  0  0
  1 39  1  0  0  0  0
  2 36  1  0  0  0  0
  2 40  1  0  0  0  0
  3 25  1  0  0  0  0
  3 46  1  0  0  0  0
  4 26  1  0  0  0  0
  4 45  1  0  0  0  0
  5 43  1  0  0  0  0
  6 44  1  0  0  0  0
  7 69  1  0  0  0  0
  8 70  1  0  0  0  0
  9 71  1  0  0  0  0
 10 72  1  0  0  0  0
 11 73  1  0  0  0  0
 12 74  1  0  0  0  0
 13 75  1  0  0  0  0
 14 76  1  0  0  0  0
 15 77  1  0  0  0  0
 16 78  1  0  0  0  0
 17 79  1  0  0  0  0
 18 80  1  0  0  0  0
 19 50  1  0  0  0  0
 20 49  1  0  0  0  0
 21 48  1  0  0  0  0
 21 81  1  0  0  0  0
 22 47  1  0  0  0  0
 22 82  1  0  0  0  0
 23 49  2  0  0  0  0
 24 50  2  0  0  0  0
 25 28  1  0  0  0  0
 25 44  1  0  0  0  0
 25 83  1  6  0  0  0
 26 27  1  0  0  0  0
 26 43  1  0  0  0  0
 26 84  1  6  0  0  0
 27  7  1  0  0  0  0
 27 33  1  0  0  0  0
 27 85  1  1  0  0  0
 28  8  1  0  0  0  0
 28 34  1  0  0  0  0
 28 86  1  1  0  0  0
 29  9  1  0  0  0  0
 29 32  1  0  0  0  0
 29 36  1  0  0  0  0
 29 87  1  6  0  0  0
 30 10  1  0  0  0  0
 30 31  1  0  0  0  0
 30 35  1  0  0  0  0
 30 88  1  6  0  0  0
 31 12  1  0  0  0  0
 31 37  1  0  0  0  0
 31 89  1  1  0  0  0
 32 11  1  0  0  0  0
 32 38  1  0  0  0  0
 32 90  1  1  0  0  0
 33 13  1  0  0  0  0
 33 42  1  0  0  0  0
 33 91  1  6  0  0  0
 34 14  1  0  0  0  0
 34 41  1  0  0  0  0
 34 92  1  6  0  0  0
 35  6  1  0  0  0  0
 35 93  1  1  0  0  0
 36  5  1  0  0  0  0
 36 94  1  1  0  0  0
 37 15  1  0  0  0  0
 37 39  1  0  0  0  0
 37 95  1  6  0  0  0
 38 16  1  0  0  0  0
 38 40  1  0  0  0  0
 38 96  1  6  0  0  0
 39 47  1  0  0  0  0
 39 97  1  1  0  0  0
 40 48  1  0  0  0  0
 40 98  1  1  0  0  0
 41 18  1  0  0  0  0
 41 46  1  0  0  0  0
 41 99  1  1  0  0  0
 42 17  1  0  0  0  0
 42 45  1  0  0  0  0
 42100  1  1  0  0  0
 43101  1  0  0  0  0
 43102  1  0  0  0  0
 44103  1  0  0  0  0
 44104  1  0  0  0  0
 45 19  1  0  0  0  0
 45105  1  6  0  0  0
 46 20  1  0  0  0  0
 46106  1  6  0  0  0
 47107  1  0  0  0  0
 47108  1  0  0  0  0
 48109  1  0  0  0  0
 48110  1  0  0  0  0
 49 51  1  0  0  0  0
 50 52  1  0  0  0  0
 51 53  1  0  0  0  0
 51 56  2  0  0  0  0
 52 54  1  0  0  0  0
 52 55  2  0  0  0  0
 53111  1  0  0  0  0
 53112  1  0  0  0  0
 53113  1  0  0  0  0
 54114  1  0  0  0  0
 54115  1  0  0  0  0
 54116  1  0  0  0  0
 55 57  1  0  0  0  0
 55117  1  0  0  0  0
 56 58  1  0  0  0  0
 56118  1  0  0  0  0
 57 59  2  0  0  0  0
 57119  1  0  0  0  0
 58 60  2  0  0  0  0
 58120  1  0  0  0  0
 59 61  1  0  0  0  0
 59121  1  0  0  0  0
 60 62  1  0  0  0  0
 60122  1  0  0  0  0
 61 63  1  0  0  0  0
 61 65  2  0  0  0  0
 62 64  1  0  0  0  0
 62 66  2  0  0  0  0
 63123  1  0  0  0  0
 63124  1  0  0  0  0
 63125  1  0  0  0  0
 64126  1  0  0  0  0
 64127  1  0  0  0  0
 64128  1  0  0  0  0
 65 68  1  0  0  0  0
 65129  1  0  0  0  0
 66 67  1  0  0  0  0
 66130  1  0  0  0  0
 67 68  2  0  0  0  0
 67131  1  0  0  0  0
 68132  1  0  0  0  0
M  END
>  <DRUGBANK_ID>
DB11874

>  <COMMON_NAME>
Crocin

>  <CAS_NUMBER>
42553-65-1

>  <UNII>
877GWI46C2

$$$$
