749
 OpenBabel10282417072D

 42 44  0  0  1  0  0  0  0  0999 V2000
    6.2901   -0.5042    0.0000 O   0  0  0  0  0  0  0  0  0  0  0  0
    7.7108    1.0020    0.0000 O   0  0  0  0  0  0  0  0  0  0  0  0
    7.2851   -0.3619    0.0000 O   0  0  0  0  0  0  0  0  0  0  0  0
    4.2053    0.4231    0.0000 N   0  0  0  0  0  0  0  0  0  0  0  0
    5.7102    0.1298    0.0000 C   0  0  3  0  0  0  0  0  0  0  0  0
    4.8726   -0.0618    0.0000 C   0  0  0  0  0  0  0  0  0  0  0  0
    4.6178   -0.8463    0.0000 C   0  0  0  0  0  0  0  0  0  0  0  0
    5.1828   -1.4936    0.0000 C   0  0  0  0  0  0  0  0  0  0  0  0
    5.5294    0.9346    0.0000 C   0  0  0  0  0  0  0  0  0  0  0  0
    6.3168    0.6888    0.0000 C   0  0  0  0  0  0  0  0  0  0  0  0
    3.7929   -0.8463    0.0000 C   0  0  0  0  0  0  0  0  0  0  0  0
    6.0246   -1.3214    0.0000 C   0  0  0  0  0  0  0  0  0  0  0  0
    3.5380   -0.0618    0.0000 C   0  0  0  0  0  0  0  0  0  0  0  0
    2.7004    0.1298    0.0000 C   0  0  0  0  0  0  0  0  0  0  0  0
    6.1360    1.4936    0.0000 C   0  0  0  0  0  0  0  0  0  0  0  0
    3.2278   -1.4936    0.0000 C   0  0  0  0  0  0  0  0  0  0  0  0
    7.1043    0.4429    0.0000 C   0  0  0  0  0  0  0  0  0  0  0  0
    2.4546    0.9172    0.0000 C   0  0  0  0  0  0  0  0  0  0  0  0
    2.1206   -0.5042    0.0000 C   0  0  0  0  0  0  0  0  0  0  0  0
    2.3860   -1.3214    0.0000 C   0  0  0  0  0  0  0  0  0  0  0  0
    1.6497    1.0980    0.0000 C   0  0  0  0  0  0  0  0  0  0  0  0
    8.6053    0.7229    0.0000 H   0  0  0  0  0  0  0  0  0  0  0  0
    4.2053    1.4076    0.0000 H   0  0  0  0  0  0  0  0  0  0  0  0
    4.8404   -2.5073    0.0000 H   0  0  0  0  0  0  0  0  0  0  0  0
    5.8911   -2.2956    0.0000 H   0  0  0  0  0  0  0  0  0  0  0  0
    4.5080    1.2535    0.0000 H   0  0  0  0  0  0  0  0  0  0  0  0
    5.2949    1.9786    0.0000 H   0  0  0  0  0  0  0  0  0  0  0  0
    6.0823    1.7328    0.0000 H   0  0  0  0  0  0  0  0  0  0  0  0
    7.1037    1.4139    0.0000 H   0  0  0  0  0  0  0  0  0  0  0  0
    6.7375   -2.1193    0.0000 H   0  0  0  0  0  0  0  0  0  0  0  0
    5.6881   -2.3371    0.0000 H   0  0  0  0  0  0  0  0  0  0  0  0
    7.1574    1.1747    0.0000 H   0  0  0  0  0  0  0  0  0  0  0  0
    5.9015    2.5376    0.0000 H   0  0  0  0  0  0  0  0  0  0  0  0
    6.9228    2.2187    0.0000 H   0  0  0  0  0  0  0  0  0  0  0  0
    3.5580   -2.4714    0.0000 H   0  0  0  0  0  0  0  0  0  0  0  0
    3.1797    1.7040    0.0000 H   0  0  0  0  0  0  0  0  0  0  0  0
    2.1357    1.9386    0.0000 H   0  0  0  0  0  0  0  0  0  0  0  0
    1.1120   -0.2857    0.0000 H   0  0  0  0  0  0  0  0  0  0  0  0
    1.6983   -2.0909    0.0000 H   0  0  0  0  0  0  0  0  0  0  0  0
    1.3308    2.1194    0.0000 H   0  0  0  0  0  0  0  0  0  0  0  0
    0.9246    0.3111    0.0000 H   0  0  0  0  0  0  0  0  0  0  0  0
    0.6057    1.3325    0.0000 H   0  0  0  0  0  0  0  0  0  0  0  0
  1  5  1  0  0  0  0
  1 12  1  0  0  0  0
  2 17  1  0  0  0  0
  2 22  1  0  0  0  0
  3 17  2  0  0  0  0
  4  6  1  0  0  0  0
  4 13  1  0  0  0  0
  4 23  1  0  0  0  0
  5  6  1  0  0  0  0
  5  9  1  0  0  0  0
  5 10  1  0  0  0  0
  6  7  2  0  0  0  0
  7  8  1  0  0  0  0
  7 11  1  0  0  0  0
  8 12  1  0  0  0  0
  8 24  1  0  0  0  0
  8 25  1  0  0  0  0
  9 15  1  0  0  0  0
  9 26  1  0  0  0  0
  9 27  1  0  0  0  0
 10 17  1  0  0  0  0
 10 28  1  0  0  0  0
 10 29  1  0  0  0  0
 11 13  1  0  0  0  0
 11 16  2  0  0  0  0
 12 30  1  0  0  0  0
 12 31  1  0  0  0  0
 13 14  2  0  0  0  0
 14 18  1  0  0  0  0
 14 19  1  0  0  0  0
 15 32  1  0  0  0  0
 15 33  1  0  0  0  0
 15 34  1  0  0  0  0
 16 20  1  0  0  0  0
 16 35  1  0  0  0  0
 18 21  1  0  0  0  0
 18 36  1  0  0  0  0
 18 37  1  0  0  0  0
 19 20  2  0  0  0  0
 19 38  1  0  0  0  0
 20 39  1  0  0  0  0
 21 40  1  0  0  0  0
 21 41  1  0  0  0  0
 21 42  1  0  0  0  0
M  END
>  <DRUGBANK_ID>
DB00749

>  <SECONDARY_ACCESSION_NUMBERS>
APRD00067

>  <COMMON_NAME>
Etodolac

>  <CAS_NUMBER>
41340-25-4

>  <UNII>
2M36281008

>  <SYNONYMS>
(±)-1,8-diethyl-1,3,4,9-tetrahydropyrano(3,4-b)indole-1-acetic acid; (1,8-Diethyl-1,3,4,9-tetrahydro-pyrano[3,4-b]indol-1-yl)-acetic acid; 1,3,4,9-tetrahydro-1,8-diethylpyrano(3,4-b)indole-1-acetic acid; 1,8-diethyl-1,3,4,9-tetrahydropyrano(3,4-b)indole-1-acetic acid; 1,8-diethyl-1,3,4,9-tetrahydropyrano[3,4-b]indol-1-ylacetic acid; Étodolac; Etodolac; Etodolaco; Etodolacum; Etodolic acid; Etodolsäure

$$$$
