
 OpenBabel10282417072D

 67 71  0  0  1  0  0  0  0  0999 V2000
   -0.4190   -3.1043    0.0000 C   0  0  0  0  0  0  0  0  0  0  0  0
    0.1127   -2.4736    0.0000 C   0  0  0  0  0  0  0  0  0  0  0  0
   -0.1675   -1.6977    0.0000 O   0  0  0  0  0  0  0  0  0  0  0  0
    0.9248   -2.6188    0.0000 C   0  0  1  0  0  0  0  0  0  0  0  0
    0.6955   -3.4113    0.0000 C   0  0  0  0  0  0  0  0  0  0  0  0
    1.3783   -3.8743    0.0000 C   0  0  0  0  0  0  0  0  0  0  0  0
    2.0297   -3.3680    0.0000 C   0  0  2  0  0  0  0  0  0  0  0  0
    1.7494   -2.5920    0.0000 C   0  0  2  0  0  0  0  0  0  0  0  0
    2.2812   -1.9613    0.0000 C   0  0  0  0  0  0  0  0  0  0  0  0
    3.0933   -2.1065    0.0000 C   0  0  1  0  0  0  0  0  0  0  0  0
    3.3736   -2.8825    0.0000 C   0  0  0  0  0  0  0  0  0  0  0  0
    4.1857   -3.0277    0.0000 C   0  0  0  0  0  0  0  0  0  0  0  0
    4.7175   -2.3970    0.0000 C   0  0  0  0  0  0  0  0  0  0  0  0
    5.5297   -2.5422    0.0000 C   0  0  0  0  0  0  0  0  0  0  0  0
    5.8100   -3.3181    0.0000 C   0  0  0  0  0  0  0  0  0  0  0  0
    6.6221   -3.4633    0.0000 O   0  0  0  0  0  0  0  0  0  0  0  0
    5.2781   -3.9488    0.0000 C   0  0  0  0  0  0  0  0  0  0  0  0
    4.4660   -3.8036    0.0000 C   0  0  0  0  0  0  0  0  0  0  0  0
    3.9342   -4.4343    0.0000 C   0  0  0  0  0  0  0  0  0  0  0  0
    3.1221   -4.2891    0.0000 C   0  0  0  0  0  0  0  0  0  0  0  0
    2.8418   -3.5132    0.0000 C   0  0  1  0  0  0  0  0  0  0  0  0
    3.6251   -1.4758    0.0000 C   0  0  0  0  0  0  0  0  0  0  0  0
    3.3448   -0.6999    0.0000 C   0  0  0  0  0  0  0  0  0  0  0  0
    3.8766   -0.0692    0.0000 C   0  0  0  0  0  0  0  0  0  0  0  0
    4.6888   -0.2144    0.0000 C   0  0  0  0  0  0  0  0  0  0  0  0
    4.9691   -0.9903    0.0000 C   0  0  0  0  0  0  0  0  0  0  0  0
    4.4372   -1.6210    0.0000 C   0  0  0  0  0  0  0  0  0  0  0  0
    5.2206    0.4162    0.0000 N   0  0  0  0  0  0  0  0  0  0  0  0
    4.9403    1.1921    0.0000 C   0  0  0  0  0  0  0  0  0  0  0  0
    6.0327    0.2710    0.0000 C   0  0  0  0  0  0  0  0  0  0  0  0
    1.3895   -1.8497    0.0000 C   0  0  0  0  0  0  0  0  0  0  0  0
    0.9843   -1.7960    0.0000 O   0  0  0  0  0  0  0  0  0  0  0  0
   -1.4723   -2.9161    0.0000 H   0  0  0  0  0  0  0  0  0  0  0  0
   -0.0554   -4.1106    0.0000 H   0  0  0  0  0  0  0  0  0  0  0  0
   -1.1087   -3.9224    0.0000 H   0  0  0  0  0  0  0  0  0  0  0  0
   -0.3109   -3.7748    0.0000 H   0  0  0  0  0  0  0  0  0  0  0  0
    0.5625   -4.4730    0.0000 H   0  0  0  0  0  0  0  0  0  0  0  0
    1.4130   -4.9437    0.0000 H   0  0  0  0  0  0  0  0  0  0  0  0
    2.3469   -4.3289    0.0000 H   0  0  0  0  0  0  0  0  0  0  0  0
    1.0019   -3.0705    0.0000 H   0  0  0  0  0  0  0  0  0  0  0  0
    1.9176   -0.9550    0.0000 H   0  0  0  0  0  0  0  0  0  0  0  0
    2.9709   -1.1433    0.0000 H   0  0  0  0  0  0  0  0  0  0  0  0
    2.7297   -1.1002    0.0000 H   0  0  0  0  0  0  0  0  0  0  0  0
    4.3539   -1.3907    0.0000 H   0  0  0  0  0  0  0  0  0  0  0  0
    5.4072   -1.5790    0.0000 H   0  0  0  0  0  0  0  0  0  0  0  0
    6.2194   -1.7242    0.0000 H   0  0  0  0  0  0  0  0  0  0  0  0
    6.5830   -2.7305    0.0000 H   0  0  0  0  0  0  0  0  0  0  0  0
    5.6287   -4.9194    0.0000 H   0  0  0  0  0  0  0  0  0  0  0  0
    4.2978   -5.4406    0.0000 H   0  0  0  0  0  0  0  0  0  0  0  0
    3.2445   -5.2523    0.0000 H   0  0  0  0  0  0  0  0  0  0  0  0
    2.4324   -5.1071    0.0000 H   0  0  0  0  0  0  0  0  0  0  0  0
    2.0688   -4.1008    0.0000 H   0  0  0  0  0  0  0  0  0  0  0  0
    2.1521   -4.3312    0.0000 H   0  0  0  0  0  0  0  0  0  0  0  0
    2.3289   -0.5183    0.0000 H   0  0  0  0  0  0  0  0  0  0  0  0
    3.5259    0.9014    0.0000 H   0  0  0  0  0  0  0  0  0  0  0  0
    5.9850   -1.1720    0.0000 H   0  0  0  0  0  0  0  0  0  0  0  0
    4.7878   -2.5916    0.0000 H   0  0  0  0  0  0  0  0  0  0  0  0
    5.6300    2.0101    0.0000 H   0  0  0  0  0  0  0  0  0  0  0  0
    3.8870    1.3804    0.0000 H   0  0  0  0  0  0  0  0  0  0  0  0
    4.5767    2.1984    0.0000 H   0  0  0  0  0  0  0  0  0  0  0  0
    6.3963   -0.7353    0.0000 H   0  0  0  0  0  0  0  0  0  0  0  0
    6.7224    1.0890    0.0000 H   0  0  0  0  0  0  0  0  0  0  0  0
    7.0860    0.0827    0.0000 H   0  0  0  0  0  0  0  0  0  0  0  0
    1.9899   -0.9640    0.0000 H   0  0  0  0  0  0  0  0  0  0  0  0
    0.3223   -1.7726    0.0000 H   0  0  0  0  0  0  0  0  0  0  0  0
    0.9227   -0.8869    0.0000 H   0  0  0  0  0  0  0  0  0  0  0  0
    1.8571   -1.3729    0.0000 H   0  0  0  0  0  0  0  0  0  0  0  0
  1  2  1  0  0  0  0
  1 33  1  0  0  0  0
  1 34  1  0  0  0  0
  1 35  1  0  0  0  0
  2  3  2  0  0  0  0
  4  2  1  6  0  0  0
  4  5  1  0  0  0  0
  4  8  1  0  0  0  0
  4 32  1  0  0  0  0
  5  6  1  0  0  0  0
  5 36  1  0  0  0  0
  5 37  1  0  0  0  0
  6 38  1  0  0  0  0
  6 39  1  0  0  0  0
  7  6  1  0  0  0  0
  7  8  1  0  0  0  0
  7 21  1  0  0  0  0
  7 40  1  1  0  0  0
  8  9  1  0  0  0  0
  8 31  1  6  0  0  0
  9 10  1  0  0  0  0
  9 41  1  0  0  0  0
  9 42  1  0  0  0  0
 10 11  1  0  0  0  0
 10 22  1  0  0  0  0
 10 43  1  1  0  0  0
 11 12  2  0  0  0  0
 11 21  1  0  0  0  0
 12 13  1  0  0  0  0
 12 18  1  0  0  0  0
 13 14  1  0  0  0  0
 13 44  1  0  0  0  0
 13 45  1  0  0  0  0
 14 15  1  0  0  0  0
 14 46  1  0  0  0  0
 14 47  1  0  0  0  0
 15 16  2  0  0  0  0
 15 17  1  0  0  0  0
 17 18  2  0  0  0  0
 17 48  1  0  0  0  0
 18 19  1  0  0  0  0
 19 20  1  0  0  0  0
 19 49  1  0  0  0  0
 19 50  1  0  0  0  0
 20 51  1  0  0  0  0
 20 52  1  0  0  0  0
 21 20  1  0  0  0  0
 21 53  1  6  0  0  0
 22 23  2  0  0  0  0
 22 27  1  0  0  0  0
 23 24  1  0  0  0  0
 23 54  1  0  0  0  0
 24 25  2  0  0  0  0
 24 55  1  0  0  0  0
 25 26  1  0  0  0  0
 25 28  1  0  0  0  0
 26 27  2  0  0  0  0
 26 56  1  0  0  0  0
 27 57  1  0  0  0  0
 28 29  1  0  0  0  0
 28 30  1  0  0  0  0
 29 58  1  0  0  0  0
 29 59  1  0  0  0  0
 29 60  1  0  0  0  0
 30 61  1  0  0  0  0
 30 62  1  0  0  0  0
 30 63  1  0  0  0  0
 31 64  1  0  0  0  0
 31 65  1  0  0  0  0
 31 66  1  0  0  0  0
 32 67  1  0  0  0  0
M  END
>  <DRUGBANK_ID>
DB08867

>  <SECONDARY_ACCESSION_NUMBERS>
DB05366

>  <COMMON_NAME>
Ulipristal

>  <CAS_NUMBER>
159811-51-5

>  <UNII>
6J5J15Q2X8

>  <SYNONYMS>
Ulipristal

$$$$
