
 OpenBabel10282417072D

 87 86  0  0  0  0  0  0  0  0999 V2000
   -3.2177   -0.8253    0.0000 C   0  0  0  0  0  0  0  0  0  0  0  0
   -3.2177   -0.0002    0.0000 C   0  0  0  0  0  0  0  0  0  0  0  0
   -3.9324   -1.2380    0.0000 C   0  0  0  0  0  0  0  0  0  0  0  0
   -3.9324    0.4123    0.0000 C   0  0  0  0  0  0  0  0  0  0  0  0
   -4.6469   -0.8253    0.0000 C   0  0  0  0  0  0  0  0  0  0  0  0
   -4.6469   -0.0002    0.0000 C   0  0  0  0  0  0  0  0  0  0  0  0
   -2.5033   -1.2379    0.0000 C   0  0  0  0  0  0  0  0  0  0  0  0
   -1.7886   -0.8252    0.0000 C   0  0  0  0  0  0  0  0  0  0  0  0
   -2.5033    0.4123    0.0000 C   0  0  0  0  0  0  0  0  0  0  0  0
   -1.7887   -0.0002    0.0000 C   0  0  0  0  0  0  0  0  0  0  0  0
   -1.0740   -1.2377    0.0000 C   0  0  0  0  0  0  0  0  0  0  0  0
   -0.3597   -0.8250    0.0000 C   0  0  0  0  0  0  0  0  0  0  0  0
   -1.0741    0.4123    0.0000 C   0  0  0  0  0  0  0  0  0  0  0  0
   -0.3597    0.0000    0.0000 C   0  0  0  0  0  0  0  0  0  0  0  0
    0.3548   -1.2375    0.0000 C   0  0  0  0  0  0  0  0  0  0  0  0
    1.0691   -0.8248    0.0000 C   0  0  0  0  0  0  0  0  0  0  0  0
    0.3546    0.4124    0.0000 C   0  0  0  0  0  0  0  0  0  0  0  0
    1.0690    0.0000    0.0000 C   0  0  0  0  0  0  0  0  0  0  0  0
    1.7836   -1.2372    0.0000 C   0  0  0  0  0  0  0  0  0  0  0  0
    2.4980   -0.8245    0.0000 C   0  0  0  0  0  0  0  0  0  0  0  0
    1.7833    0.4126    0.0000 C   0  0  0  0  0  0  0  0  0  0  0  0
    2.4979    0.0003    0.0000 C   0  0  0  0  0  0  0  0  0  0  0  0
    3.2123   -1.2368    0.0000 C   0  0  0  0  0  0  0  0  0  0  0  0
    3.9266   -0.8241    0.0000 C   0  0  0  0  0  0  0  0  0  0  0  0
    3.2119    0.4128    0.0000 C   0  0  0  0  0  0  0  0  0  0  0  0
    4.6469   -1.2280    0.0000 C   0  0  0  0  0  0  0  0  0  0  0  0
    3.9312   -0.0052    0.0000 C   0  0  0  0  0  0  0  0  0  0  0  0
    4.6469    0.4128    0.0000 C   0  0  0  0  0  0  0  0  0  0  0  0
    4.6469    1.2380    0.0000 O   0  0  0  0  0  0  0  0  0  0  0  0
   -3.2177    0.2447    0.0000 H   0  0  0  0  0  0  0  0  0  0  0  0
   -2.2910   -0.2904    0.0000 H   0  0  0  0  0  0  0  0  0  0  0  0
   -3.2176   -1.0702    0.0000 H   0  0  0  0  0  0  0  0  0  0  0  0
   -2.2910   -0.5351    0.0000 H   0  0  0  0  0  0  0  0  0  0  0  0
   -3.9325   -2.3080    0.0000 H   0  0  0  0  0  0  0  0  0  0  0  0
   -4.8591   -1.7729    0.0000 H   0  0  0  0  0  0  0  0  0  0  0  0
   -3.9325    1.4823    0.0000 H   0  0  0  0  0  0  0  0  0  0  0  0
   -4.8591    0.9473    0.0000 H   0  0  0  0  0  0  0  0  0  0  0  0
   -5.5736   -1.3602    0.0000 H   0  0  0  0  0  0  0  0  0  0  0  0
   -5.5735   -0.2903    0.0000 H   0  0  0  0  0  0  0  0  0  0  0  0
   -5.5735    0.5348    0.0000 H   0  0  0  0  0  0  0  0  0  0  0  0
   -5.5735   -0.5352    0.0000 H   0  0  0  0  0  0  0  0  0  0  0  0
   -2.5033   -2.3079    0.0000 H   0  0  0  0  0  0  0  0  0  0  0  0
   -1.5766   -1.7729    0.0000 H   0  0  0  0  0  0  0  0  0  0  0  0
   -1.7887    0.2448    0.0000 H   0  0  0  0  0  0  0  0  0  0  0  0
   -0.8620   -0.2901    0.0000 H   0  0  0  0  0  0  0  0  0  0  0  0
   -2.5034    1.4823    0.0000 H   0  0  0  0  0  0  0  0  0  0  0  0
   -1.5767    0.9474    0.0000 H   0  0  0  0  0  0  0  0  0  0  0  0
   -1.7887   -1.0702    0.0000 H   0  0  0  0  0  0  0  0  0  0  0  0
   -0.8621   -0.5352    0.0000 H   0  0  0  0  0  0  0  0  0  0  0  0
   -1.0738   -2.3077    0.0000 H   0  0  0  0  0  0  0  0  0  0  0  0
   -0.1472   -1.7725    0.0000 H   0  0  0  0  0  0  0  0  0  0  0  0
   -0.3599    0.2450    0.0000 H   0  0  0  0  0  0  0  0  0  0  0  0
    0.5669   -0.2899    0.0000 H   0  0  0  0  0  0  0  0  0  0  0  0
   -1.0741    1.4823    0.0000 H   0  0  0  0  0  0  0  0  0  0  0  0
   -0.1475    0.9474    0.0000 H   0  0  0  0  0  0  0  0  0  0  0  0
   -0.3596   -1.0700    0.0000 H   0  0  0  0  0  0  0  0  0  0  0  0
    0.5670   -0.5350    0.0000 H   0  0  0  0  0  0  0  0  0  0  0  0
    0.3550   -2.3075    0.0000 H   0  0  0  0  0  0  0  0  0  0  0  0
    1.2816   -1.7723    0.0000 H   0  0  0  0  0  0  0  0  0  0  0  0
    1.0689    0.2452    0.0000 H   0  0  0  0  0  0  0  0  0  0  0  0
    1.9957   -0.2896    0.0000 H   0  0  0  0  0  0  0  0  0  0  0  0
    0.3546    1.4824    0.0000 H   0  0  0  0  0  0  0  0  0  0  0  0
    1.2812    0.9474    0.0000 H   0  0  0  0  0  0  0  0  0  0  0  0
    1.0691   -1.0700    0.0000 H   0  0  0  0  0  0  0  0  0  0  0  0
    1.9957   -0.5348    0.0000 H   0  0  0  0  0  0  0  0  0  0  0  0
    1.7838   -2.3072    0.0000 H   0  0  0  0  0  0  0  0  0  0  0  0
    2.7104   -1.7720    0.0000 H   0  0  0  0  0  0  0  0  0  0  0  0
    2.4978    0.2455    0.0000 H   0  0  0  0  0  0  0  0  0  0  0  0
    3.4246   -0.2894    0.0000 H   0  0  0  0  0  0  0  0  0  0  0  0
    1.7830    1.4826    0.0000 H   0  0  0  0  0  0  0  0  0  0  0  0
    2.7098    0.9478    0.0000 H   0  0  0  0  0  0  0  0  0  0  0  0
    2.4982   -1.0697    0.0000 H   0  0  0  0  0  0  0  0  0  0  0  0
    3.4247   -0.5344    0.0000 H   0  0  0  0  0  0  0  0  0  0  0  0
    3.2125   -2.3068    0.0000 H   0  0  0  0  0  0  0  0  0  0  0  0
    4.1391   -1.7716    0.0000 H   0  0  0  0  0  0  0  0  0  0  0  0
    3.9197    0.2459    0.0000 H   0  0  0  0  0  0  0  0  0  0  0  0
    4.8481   -0.2803    0.0000 H   0  0  0  0  0  0  0  0  0  0  0  0
    3.2133    1.4828    0.0000 H   0  0  0  0  0  0  0  0  0  0  0  0
    4.1396    0.9459    0.0000 H   0  0  0  0  0  0  0  0  0  0  0  0
    4.6603   -2.2979    0.0000 H   0  0  0  0  0  0  0  0  0  0  0  0
    5.5668   -0.6814    0.0000 H   0  0  0  0  0  0  0  0  0  0  0  0
    5.5802   -1.7513    0.0000 H   0  0  0  0  0  0  0  0  0  0  0  0
    3.9324   -1.0752    0.0000 H   0  0  0  0  0  0  0  0  0  0  0  0
    4.8595   -0.5374    0.0000 H   0  0  0  0  0  0  0  0  0  0  0  0
    5.5749   -0.1199    0.0000 H   0  0  0  0  0  0  0  0  0  0  0  0
    5.5729    0.9490    0.0000 H   0  0  0  0  0  0  0  0  0  0  0  0
    5.4869    1.7230    0.0000 H   0  0  0  0  0  0  0  0  0  0  0  0
  1 30  1  0  0  0  0
  1 31  1  0  0  0  0
  2 32  1  0  0  0  0
  2 33  1  0  0  0  0
  3  1  1  0  0  0  0
  3 34  1  0  0  0  0
  3 35  1  0  0  0  0
  4  2  1  0  0  0  0
  4 36  1  0  0  0  0
  4 37  1  0  0  0  0
  5  3  1  0  0  0  0
  5 38  1  0  0  0  0
  5 39  1  0  0  0  0
  6  4  1  0  0  0  0
  6  5  1  0  0  0  0
  6 40  1  0  0  0  0
  6 41  1  0  0  0  0
  7  1  1  0  0  0  0
  7 42  1  0  0  0  0
  7 43  1  0  0  0  0
  8  7  1  0  0  0  0
  8 44  1  0  0  0  0
  8 45  1  0  0  0  0
  9  2  1  0  0  0  0
  9 46  1  0  0  0  0
  9 47  1  0  0  0  0
 10  9  1  0  0  0  0
 10 48  1  0  0  0  0
 10 49  1  0  0  0  0
 11  8  1  0  0  0  0
 11 50  1  0  0  0  0
 11 51  1  0  0  0  0
 12 11  1  0  0  0  0
 12 52  1  0  0  0  0
 12 53  1  0  0  0  0
 13 10  1  0  0  0  0
 13 54  1  0  0  0  0
 13 55  1  0  0  0  0
 14 13  1  0  0  0  0
 14 56  1  0  0  0  0
 14 57  1  0  0  0  0
 15 12  1  0  0  0  0
 15 58  1  0  0  0  0
 15 59  1  0  0  0  0
 16 15  1  0  0  0  0
 16 60  1  0  0  0  0
 16 61  1  0  0  0  0
 17 14  1  0  0  0  0
 17 62  1  0  0  0  0
 17 63  1  0  0  0  0
 18 17  1  0  0  0  0
 18 64  1  0  0  0  0
 18 65  1  0  0  0  0
 19 16  1  0  0  0  0
 19 66  1  0  0  0  0
 19 67  1  0  0  0  0
 20 19  1  0  0  0  0
 20 68  1  0  0  0  0
 20 69  1  0  0  0  0
 21 18  1  0  0  0  0
 21 70  1  0  0  0  0
 21 71  1  0  0  0  0
 22 21  1  0  0  0  0
 22 72  1  0  0  0  0
 22 73  1  0  0  0  0
 23 20  1  0  0  0  0
 23 74  1  0  0  0  0
 23 75  1  0  0  0  0
 24 23  1  0  0  0  0
 24 26  1  0  0  0  0
 24 76  1  0  0  0  0
 24 77  1  0  0  0  0
 25 22  1  0  0  0  0
 25 27  1  0  0  0  0
 25 78  1  0  0  0  0
 25 79  1  0  0  0  0
 26 80  1  0  0  0  0
 26 81  1  0  0  0  0
 26 82  1  0  0  0  0
 27 28  1  0  0  0  0
 27 83  1  0  0  0  0
 27 84  1  0  0  0  0
 28 29  1  0  0  0  0
 28 85  1  0  0  0  0
 28 86  1  0  0  0  0
 29 87  1  0  0  0  0
M  END
>  <DRUGBANK_ID>
DB11220

>  <COMMON_NAME>
Octacosanol

>  <CAS_NUMBER>
557-61-9

>  <UNII>
81I2215OVK

>  <SYNONYMS>
1-Octacosanol; cluytyl alcohol; montanyl alcohol; n-octacosanol; Octacosanol; Octacosyl alcohol

$$$$
