
 OpenBabel10282417072D

 45 47  0  0  0  0  0  0  0  0999 V2000
   -5.7158   -1.6500    0.0000 C   0  0  0  0  0  0  0  0  0  0  0  0
   -5.0013   -1.2375    0.0000 N   0  3  0  0  0  0  0  0  0  0  0  0
   -5.0013   -0.4125    0.0000 C   0  0  0  0  0  0  0  0  0  0  0  0
   -4.2868   -1.6500    0.0000 C   0  0  0  0  0  0  0  0  0  0  0  0
   -3.5724   -1.2375    0.0000 C   0  0  0  0  0  0  0  0  0  0  0  0
   -2.8579   -1.6500    0.0000 N   0  0  0  0  0  0  0  0  0  0  0  0
   -2.1434   -1.2375    0.0000 C   0  0  0  0  0  0  0  0  0  0  0  0
   -2.1434   -0.4125    0.0000 O   0  0  0  0  0  0  0  0  0  0  0  0
   -1.4289   -1.6500    0.0000 C   0  0  0  0  0  0  0  0  0  0  0  0
   -1.4289   -2.4750    0.0000 C   0  0  0  0  0  0  0  0  0  0  0  0
   -0.7145   -2.8875    0.0000 C   0  0  0  0  0  0  0  0  0  0  0  0
    0.0000   -2.4750    0.0000 C   0  0  0  0  0  0  0  0  0  0  0  0
    0.0000   -1.6500    0.0000 C   0  0  0  0  0  0  0  0  0  0  0  0
    0.7145   -1.2375    0.0000 C   0  0  0  0  0  0  0  0  0  0  0  0
    1.4289   -1.6500    0.0000 N   0  0  0  0  0  0  0  0  0  0  0  0
    0.7145   -0.4125    0.0000 C   0  0  0  0  0  0  0  0  0  0  0  0
    0.0000    0.0000    0.0000 C   0  0  0  0  0  0  0  0  0  0  0  0
   -0.7145   -0.4125    0.0000 N   0  3  0  0  0  0  0  0  0  0  0  0
   -0.7145   -1.2375    0.0000 C   0  0  0  0  0  0  0  0  0  0  0  0
    0.0000    0.8250    0.0000 C   0  0  0  0  0  0  0  0  0  0  0  0
   -0.7145    1.2375    0.0000 Br  0  0  0  0  0  0  0  0  0  0  0  0
    0.7145    1.2375    0.0000 C   0  0  0  0  0  0  0  0  0  0  0  0
    1.4289    0.8250    0.0000 C   0  0  0  0  0  0  0  0  0  0  0  0
    1.4289    0.0000    0.0000 C   0  0  0  0  0  0  0  0  0  0  0  0
   -6.6424   -1.1150    0.0000 H   0  0  0  0  0  0  0  0  0  0  0  0
   -5.7158   -2.7200    0.0000 H   0  0  0  0  0  0  0  0  0  0  0  0
   -6.6425   -2.1850    0.0000 H   0  0  0  0  0  0  0  0  0  0  0  0
   -4.1180   -0.7275    0.0000 H   0  0  0  0  0  0  0  0  0  0  0  0
   -4.0747    0.1225    0.0000 H   0  0  0  0  0  0  0  0  0  0  0  0
   -5.9279    0.1225    0.0000 H   0  0  0  0  0  0  0  0  0  0  0  0
   -5.0013    0.6575    0.0000 H   0  0  0  0  0  0  0  0  0  0  0  0
   -4.2868   -2.7200    0.0000 H   0  0  0  0  0  0  0  0  0  0  0  0
   -3.3601   -2.1850    0.0000 H   0  0  0  0  0  0  0  0  0  0  0  0
   -3.5724   -0.1675    0.0000 H   0  0  0  0  0  0  0  0  0  0  0  0
   -2.6458   -0.7025    0.0000 H   0  0  0  0  0  0  0  0  0  0  0  0
   -2.8579   -2.6345    0.0000 H   0  0  0  0  0  0  0  0  0  0  0  0
   -2.3226   -2.9910    0.0000 H   0  0  0  0  0  0  0  0  0  0  0  0
   -0.7145   -3.9195    0.0000 H   0  0  0  0  0  0  0  0  0  0  0  0
    0.8937   -2.9910    0.0000 H   0  0  0  0  0  0  0  0  0  0  0  0
    1.4289   -2.6345    0.0000 H   0  0  0  0  0  0  0  0  0  0  0  0
    2.2815   -1.1578    0.0000 H   0  0  0  0  0  0  0  0  0  0  0  0
   -1.5671    0.0798    0.0000 H   0  0  0  0  0  0  0  0  0  0  0  0
    0.7145    2.2695    0.0000 H   0  0  0  0  0  0  0  0  0  0  0  0
    2.3226    1.3410    0.0000 H   0  0  0  0  0  0  0  0  0  0  0  0
    2.3226   -0.5160    0.0000 H   0  0  0  0  0  0  0  0  0  0  0  0
  1  2  1  0  0  0  0
  1 25  1  0  0  0  0
  1 26  1  0  0  0  0
  1 27  1  0  0  0  0
  2  3  1  0  0  0  0
  2  4  1  0  0  0  0
  2 28  1  0  0  0  0
  3 29  1  0  0  0  0
  3 30  1  0  0  0  0
  3 31  1  0  0  0  0
  4  5  1  0  0  0  0
  4 32  1  0  0  0  0
  4 33  1  0  0  0  0
  5  6  1  0  0  0  0
  5 34  1  0  0  0  0
  5 35  1  0  0  0  0
  6  7  1  0  0  0  0
  6 36  1  0  0  0  0
  7  8  2  0  0  0  0
  7  9  1  0  0  0  0
  9 10  2  0  0  0  0
  9 19  1  0  0  0  0
 10 11  1  0  0  0  0
 10 37  1  0  0  0  0
 11 12  2  0  0  0  0
 11 38  1  0  0  0  0
 12 13  1  0  0  0  0
 12 39  1  0  0  0  0
 13 14  2  0  0  0  0
 13 19  1  0  0  0  0
 14 15  1  0  0  0  0
 14 16  1  0  0  0  0
 15 40  1  0  0  0  0
 15 41  1  0  0  0  0
 16 17  2  0  0  0  0
 16 24  1  0  0  0  0
 17 18  1  0  0  0  0
 17 20  1  0  0  0  0
 18 19  2  0  0  0  0
 18 42  1  0  0  0  0
 20 21  1  0  0  0  0
 20 22  2  0  0  0  0
 22 23  1  0  0  0  0
 22 43  1  0  0  0  0
 23 24  2  0  0  0  0
 23 44  1  0  0  0  0
 24 45  1  0  0  0  0
M  CHG  2   2   1  18   1
M  END
>  <DRUGBANK_ID>
DB02390

>  <SECONDARY_ACCESSION_NUMBERS>
EXPT01117

>  <COMMON_NAME>
5-Bromo-N[2-(Dimethylamino)Ethyl]-9-Aminoacridine-4-Carboxamide

$$$$
