22530
 OpenBabel10282417072D

 41 44  0  0  1  0  0  0  0  0999 V2000
    3.7934   -0.0575    0.0000 N   0  0  0  0  0  0  0  0  0  0  0  0
    5.6129   -1.8022    0.0000 N   0  0  0  0  0  0  0  0  0  0  0  0
    4.4608   -0.5424    0.0000 C   0  0  0  0  0  0  0  0  0  0  0  0
    4.2059   -1.3270    0.0000 C   0  0  0  0  0  0  0  0  0  0  0  0
    5.2985   -0.3507    0.0000 C   0  0  0  0  0  0  0  0  0  0  0  0
    4.7709   -1.9744    0.0000 C   0  0  0  0  0  0  0  0  0  0  0  0
    5.8784   -0.9849    0.0000 C   0  0  0  0  0  0  0  0  0  0  0  0
    3.3809   -1.3270    0.0000 C   0  0  0  0  0  0  0  0  0  0  0  0
    3.1260   -0.5424    0.0000 C   0  0  0  0  0  0  0  0  0  0  0  0
    3.7934    0.7674    0.0000 C   0  0  0  0  0  0  0  0  0  0  0  0
    2.8158   -1.9744    0.0000 C   0  0  0  0  0  0  0  0  0  0  0  0
    2.2882   -0.3507    0.0000 C   0  0  0  0  0  0  0  0  0  0  0  0
    6.1625   -2.4174    0.0000 C   0  0  0  0  0  0  0  0  0  0  0  0
    3.0789    1.1799    0.0000 C   0  0  0  0  0  0  0  0  0  0  0  0
    1.9738   -1.8022    0.0000 C   0  0  0  0  0  0  0  0  0  0  0  0
    1.7083   -0.9849    0.0000 C   0  0  0  0  0  0  0  0  0  0  0  0
    3.0789    2.0049    0.0000 C   0  0  0  0  0  0  0  0  0  0  0  0
    2.3644    0.7674    0.0000 C   0  0  0  0  0  0  0  0  0  0  0  0
    2.3644    2.4174    0.0000 C   0  0  0  0  0  0  0  0  0  0  0  0
    1.6500    1.1799    0.0000 C   0  0  0  0  0  0  0  0  0  0  0  0
    1.6500    2.0049    0.0000 C   0  0  0  0  0  0  0  0  0  0  0  0
    5.6173    0.6707    0.0000 H   0  0  0  0  0  0  0  0  0  0  0  0
    6.3429   -0.1182    0.0000 H   0  0  0  0  0  0  0  0  0  0  0  0
    4.4285   -2.9881    0.0000 H   0  0  0  0  0  0  0  0  0  0  0  0
    3.7214   -2.1827    0.0000 H   0  0  0  0  0  0  0  0  0  0  0  0
    6.9242   -0.7584    0.0000 H   0  0  0  0  0  0  0  0  0  0  0  0
    6.2032    0.0346    0.0000 H   0  0  0  0  0  0  0  0  0  0  0  0
    4.7200    1.3024    0.0000 H   0  0  0  0  0  0  0  0  0  0  0  0
    3.7934    1.8374    0.0000 H   0  0  0  0  0  0  0  0  0  0  0  0
    3.1460   -2.9521    0.0000 H   0  0  0  0  0  0  0  0  0  0  0  0
    1.9807    0.6344    0.0000 H   0  0  0  0  0  0  0  0  0  0  0  0
    5.8279   -3.4337    0.0000 H   0  0  0  0  0  0  0  0  0  0  0  0
    7.2100   -2.1990    0.0000 H   0  0  0  0  0  0  0  0  0  0  0  0
    6.8754   -3.2154    0.0000 H   0  0  0  0  0  0  0  0  0  0  0  0
    1.2862   -2.5718    0.0000 H   0  0  0  0  0  0  0  0  0  0  0  0
    0.6997   -0.7664    0.0000 H   0  0  0  0  0  0  0  0  0  0  0  0
    3.9726    2.5209    0.0000 H   0  0  0  0  0  0  0  0  0  0  0  0
    2.3644   -0.2646    0.0000 H   0  0  0  0  0  0  0  0  0  0  0  0
    2.3644    3.4494    0.0000 H   0  0  0  0  0  0  0  0  0  0  0  0
    0.7563    0.6639    0.0000 H   0  0  0  0  0  0  0  0  0  0  0  0
    0.7563    2.5209    0.0000 H   0  0  0  0  0  0  0  0  0  0  0  0
  1  3  1  0  0  0  0
  1  9  1  0  0  0  0
  1 10  1  0  0  0  0
  2  6  1  0  0  0  0
  2  7  1  0  0  0  0
  2 13  1  0  0  0  0
  3  4  2  0  0  0  0
  3  5  1  0  0  0  0
  4  6  1  0  0  0  0
  4  8  1  0  0  0  0
  5  7  1  0  0  0  0
  5 22  1  0  0  0  0
  5 23  1  0  0  0  0
  6 24  1  0  0  0  0
  6 25  1  0  0  0  0
  7 26  1  0  0  0  0
  7 27  1  0  0  0  0
  8  9  1  0  0  0  0
  8 11  2  0  0  0  0
  9 12  2  0  0  0  0
 10 14  1  0  0  0  0
 10 28  1  0  0  0  0
 10 29  1  0  0  0  0
 11 15  1  0  0  0  0
 11 30  1  0  0  0  0
 12 16  1  0  0  0  0
 12 31  1  0  0  0  0
 13 32  1  0  0  0  0
 13 33  1  0  0  0  0
 13 34  1  0  0  0  0
 14 17  2  0  0  0  0
 14 18  1  0  0  0  0
 15 16  2  0  0  0  0
 15 35  1  0  0  0  0
 16 36  1  0  0  0  0
 17 19  1  0  0  0  0
 17 37  1  0  0  0  0
 18 20  2  0  0  0  0
 18 38  1  0  0  0  0
 19 21  2  0  0  0  0
 19 39  1  0  0  0  0
 20 21  1  0  0  0  0
 20 40  1  0  0  0  0
 21 41  1  0  0  0  0
M  END
>  <DRUGBANK_ID>
DB13808

>  <COMMON_NAME>
Mebhydrolin

>  <CAS_NUMBER>
524-81-2

>  <UNII>
9SUK9B7XVY

>  <SYNONYMS>
Mebhydrolin

$$$$
