TAQ
 OpenBabel10282417072D

 22 23  0  0  0  0  0  0  0  0999 V2000
   -1.4143   -0.1951    0.0000 C   0  0  0  0  0  0  0  0  0  0  0  0
   -2.1288   -0.6076    0.0000 N   0  0  0  0  0  0  0  0  0  0  0  0
   -1.4143    0.6299    0.0000 C   0  0  0  0  0  0  0  0  0  0  0  0
   -0.6999    1.0424    0.0000 C   0  0  0  0  0  0  0  0  0  0  0  0
    0.0146    0.6299    0.0000 C   0  0  0  0  0  0  0  0  0  0  0  0
    0.7291    1.0424    0.0000 N   0  0  0  0  0  0  0  0  0  0  0  0
    1.4435    0.6299    0.0000 C   0  0  0  0  0  0  0  0  0  0  0  0
    2.1580    1.0424    0.0000 N   0  0  0  0  0  0  0  0  0  0  0  0
    1.4435   -0.1951    0.0000 N   0  0  0  0  0  0  0  0  0  0  0  0
    0.7291   -0.6076    0.0000 C   0  0  0  0  0  0  0  0  0  0  0  0
    0.0146   -0.1951    0.0000 C   0  0  0  0  0  0  0  0  0  0  0  0
   -0.6999   -0.6076    0.0000 C   0  0  0  0  0  0  0  0  0  0  0  0
    0.7291   -1.4326    0.0000 N   0  0  0  0  0  0  0  0  0  0  0  0
   -2.9814   -0.1153    0.0000 H   0  0  0  0  0  0  0  0  0  0  0  0
   -2.1288   -1.5921    0.0000 H   0  0  0  0  0  0  0  0  0  0  0  0
   -2.3080    1.1459    0.0000 H   0  0  0  0  0  0  0  0  0  0  0  0
   -0.6999    2.0744    0.0000 H   0  0  0  0  0  0  0  0  0  0  0  0
    3.0106    0.5501    0.0000 H   0  0  0  0  0  0  0  0  0  0  0  0
    2.1580    2.0269    0.0000 H   0  0  0  0  0  0  0  0  0  0  0  0
   -0.6999   -1.6396    0.0000 H   0  0  0  0  0  0  0  0  0  0  0  0
   -0.1235   -1.9249    0.0000 H   0  0  0  0  0  0  0  0  0  0  0  0
    1.5817   -1.9249    0.0000 H   0  0  0  0  0  0  0  0  0  0  0  0
  1  2  1  0  0  0  0
  1  3  2  0  0  0  0
  1 12  1  0  0  0  0
  2 14  1  0  0  0  0
  2 15  1  0  0  0  0
  3  4  1  0  0  0  0
  3 16  1  0  0  0  0
  4  5  2  0  0  0  0
  4 17  1  0  0  0  0
  5  6  1  0  0  0  0
  5 11  1  0  0  0  0
  6  7  2  0  0  0  0
  7  8  1  0  0  0  0
  7  9  1  0  0  0  0
  8 18  1  0  0  0  0
  8 19  1  0  0  0  0
  9 10  2  0  0  0  0
 10 11  1  0  0  0  0
 10 13  1  0  0  0  0
 11 12  2  0  0  0  0
 12 20  1  0  0  0  0
 13 21  1  0  0  0  0
 13 22  1  0  0  0  0
M  END
>  <DRUGBANK_ID>
DB02532

>  <SECONDARY_ACCESSION_NUMBERS>
EXPT03006

>  <COMMON_NAME>
2,4,6-Triaminoquinazoline

>  <UNII>
WZD2M6Q8CC

$$$$
