
 OpenBabel10282417072D

 21 20  0  0  1  0  0  0  0  0999 V2000
    0.1105    1.2375    0.0000 C   0  0  0  0  0  0  0  0  0  0  0  0
    1.6500    0.0000    0.0000 C   0  0  0  0  0  0  0  0  0  0  0  0
    0.8250   -0.8250    0.0000 C   0  0  0  0  0  0  0  0  0  0  0  0
    0.8250    0.8250    0.0000 C   0  0  2  0  0  0  0  0  0  0  0  0
    0.8250    0.0000    0.0000 C   0  0  2  0  0  0  0  0  0  0  0  0
    1.5395   -1.2375    0.0000 N   0  0  0  0  0  0  0  0  0  0  0  0
    1.5395    1.2375    0.0000 O   0  0  0  0  0  0  0  0  0  0  0  0
    0.0000    0.0000    0.0000 O   0  0  0  0  0  0  0  0  0  0  0  0
    0.1105    0.4125    0.0000 H   0  0  0  0  0  0  0  0  0  0  0  0
    0.1105    2.3075    0.0000 H   0  0  0  0  0  0  0  0  0  0  0  0
   -0.8161    0.7025    0.0000 H   0  0  0  0  0  0  0  0  0  0  0  0
   -0.8162    1.7725    0.0000 H   0  0  0  0  0  0  0  0  0  0  0  0
    2.1850   -0.9266    0.0000 H   0  0  0  0  0  0  0  0  0  0  0  0
    2.1850    0.9266    0.0000 H   0  0  0  0  0  0  0  0  0  0  0  0
    2.7200    0.0000    0.0000 H   0  0  0  0  0  0  0  0  0  0  0  0
   -0.1016   -1.3600    0.0000 H   0  0  0  0  0  0  0  0  0  0  0  0
    0.8250   -1.8950    0.0000 H   0  0  0  0  0  0  0  0  0  0  0  0
    1.5395   -2.2575    0.0000 H   0  0  0  0  0  0  0  0  0  0  0  0
    2.4228   -0.7275    0.0000 H   0  0  0  0  0  0  0  0  0  0  0  0
    2.3795    0.7525    0.0000 H   0  0  0  0  0  0  0  0  0  0  0  0
   -0.4850    0.8400    0.0000 H   0  0  0  0  0  0  0  0  0  0  0  0
  1 10  1  0  0  0  0
  1 11  1  0  0  0  0
  1 12  1  0  0  0  0
  2 13  1  0  0  0  0
  2 14  1  0  0  0  0
  2 15  1  0  0  0  0
  3 16  1  0  0  0  0
  3 17  1  0  0  0  0
  4  1  1  0  0  0  0
  4  7  1  0  0  0  0
  4  9  1  6  0  0  0
  5  2  1  0  0  0  0
  5  3  1  0  0  0  0
  5  4  1  0  0  0  0
  5  8  1  1  0  0  0
  6  3  1  0  0  0  0
  6 18  1  0  0  0  0
  6 19  1  0  0  0  0
  7 20  1  0  0  0  0
  8 21  1  0  0  0  0
M  END
>  <DRUGBANK_ID>
DB02847

>  <SECONDARY_ACCESSION_NUMBERS>
EXPT03122

>  <COMMON_NAME>
(2s,3r)-1-Amino-2-Methylbutane-2,3-Diol

$$$$
