
 OpenBabel10282417072D

 46 48  0  0  1  0  0  0  0  0999 V2000
    0.7145   -0.4125    0.0000 N   0  0  0  0  0  0  0  0  0  0  0  0
    0.7145   -1.2375    0.0000 C   0  0  0  0  0  0  0  0  0  0  0  0
    0.0000   -1.6500    0.0000 O   0  0  0  0  0  0  0  0  0  0  0  0
    1.4289   -1.6500    0.0000 N   0  0  0  0  0  0  0  0  0  0  0  0
    1.4289   -2.4750    0.0000 C   0  0  0  0  0  0  0  0  0  0  0  0
    2.0964   -2.9599    0.0000 C   0  0  0  0  0  0  0  0  0  0  0  0
    1.8414   -3.7445    0.0000 S   0  0  0  0  0  0  0  0  0  0  0  0
    1.0164   -3.7445    0.0000 C   0  0  0  0  0  0  0  0  0  0  0  0
    0.7615   -2.9599    0.0000 C   0  0  0  0  0  0  0  0  0  0  0  0
    0.5315   -4.4120    0.0000 C   0  0  0  0  0  0  0  0  0  0  0  0
    0.0466   -5.0794    0.0000 C   0  0  0  0  0  0  0  0  0  0  0  0
   -0.4383   -5.7469    0.0000 C   0  0  0  0  0  0  0  0  0  0  0  0
   -0.1028   -6.5005    0.0000 C   0  0  0  0  0  0  0  0  0  0  0  0
   -0.5877   -7.1680    0.0000 C   0  0  0  0  0  0  0  0  0  0  0  0
   -1.4082   -7.0817    0.0000 C   0  0  0  0  0  0  0  0  0  0  0  0
   -1.7437   -6.3281    0.0000 C   0  0  0  0  0  0  0  0  0  0  0  0
   -2.5642   -6.2418    0.0000 F   0  0  0  0  0  0  0  0  0  0  0  0
   -1.2588   -5.6606    0.0000 C   0  0  0  0  0  0  0  0  0  0  0  0
    2.8810   -2.7050    0.0000 C   0  0  0  0  0  0  0  0  0  0  0  0
    3.4941   -3.2570    0.0000 O   0  0  0  0  0  0  0  0  0  0  0  0
    3.0525   -1.8980    0.0000 N   0  0  0  0  0  0  0  0  0  0  0  0
    3.8372   -1.6431    0.0000 C   0  0  1  0  0  0  0  0  0  0  0  0
    4.0087   -0.8361    0.0000 C   0  0  0  0  0  0  0  0  0  0  0  0
    4.7933   -0.5812    0.0000 C   0  0  0  0  0  0  0  0  0  0  0  0
    5.4064   -1.1332    0.0000 C   0  0  0  0  0  0  0  0  0  0  0  0
    5.2349   -1.9402    0.0000 N   0  0  0  0  0  0  0  0  0  0  0  0
    4.4502   -2.1951    0.0000 C   0  0  0  0  0  0  0  0  0  0  0  0
    1.5671    0.0798    0.0000 H   0  0  0  0  0  0  0  0  0  0  0  0
   -0.1381    0.0797    0.0000 H   0  0  0  0  0  0  0  0  0  0  0  0
    2.2815   -1.1578    0.0000 H   0  0  0  0  0  0  0  0  0  0  0  0
   -0.2200   -2.6410    0.0000 H   0  0  0  0  0  0  0  0  0  0  0  0
    0.9235   -6.6084    0.0000 H   0  0  0  0  0  0  0  0  0  0  0  0
   -0.1680   -8.1108    0.0000 H   0  0  0  0  0  0  0  0  0  0  0  0
   -2.0148   -7.9166    0.0000 H   0  0  0  0  0  0  0  0  0  0  0  0
   -1.6785   -4.7178    0.0000 H   0  0  0  0  0  0  0  0  0  0  0  0
    2.3209   -1.2392    0.0000 H   0  0  0  0  0  0  0  0  0  0  0  0
    3.0420   -0.9271    0.0000 H   0  0  0  0  0  0  0  0  0  0  0  0
    3.2135   -0.1201    0.0000 H   0  0  0  0  0  0  0  0  0  0  0  0
    4.2312    0.2105    0.0000 H   0  0  0  0  0  0  0  0  0  0  0  0
    5.0158    0.4654    0.0000 H   0  0  0  0  0  0  0  0  0  0  0  0
    5.8109   -0.2505    0.0000 H   0  0  0  0  0  0  0  0  0  0  0  0
    6.4240   -0.8025    0.0000 H   0  0  0  0  0  0  0  0  0  0  0  0
    6.2016   -1.8491    0.0000 H   0  0  0  0  0  0  0  0  0  0  0  0
    5.9929   -2.6227    0.0000 H   0  0  0  0  0  0  0  0  0  0  0  0
    4.2277   -3.2417    0.0000 H   0  0  0  0  0  0  0  0  0  0  0  0
    3.4326   -2.5257    0.0000 H   0  0  0  0  0  0  0  0  0  0  0  0
  1  2  1  0  0  0  0
  1 28  1  0  0  0  0
  1 29  1  0  0  0  0
  2  3  2  0  0  0  0
  2  4  1  0  0  0  0
  4  5  1  0  0  0  0
  4 30  1  0  0  0  0
  5  6  2  0  0  0  0
  5  9  1  0  0  0  0
  6  7  1  0  0  0  0
  6 19  1  0  0  0  0
  7  8  1  0  0  0  0
  8  9  2  0  0  0  0
  8 10  1  0  0  0  0
  9 31  1  0  0  0  0
 10 11  3  0  0  0  0
 11 12  1  0  0  0  0
 12 13  2  0  0  0  0
 12 18  1  0  0  0  0
 13 14  1  0  0  0  0
 13 32  1  0  0  0  0
 14 15  2  0  0  0  0
 14 33  1  0  0  0  0
 15 16  1  0  0  0  0
 15 34  1  0  0  0  0
 16 17  1  0  0  0  0
 16 18  2  0  0  0  0
 18 35  1  0  0  0  0
 19 20  2  0  0  0  0
 19 21  1  0  0  0  0
 21 36  1  0  0  0  0
 22 21  1  0  0  0  0
 22 23  1  0  0  0  0
 22 27  1  0  0  0  0
 22 37  1  6  0  0  0
 23 24  1  0  0  0  0
 23 38  1  0  0  0  0
 23 39  1  0  0  0  0
 24 25  1  0  0  0  0
 24 40  1  0  0  0  0
 24 41  1  0  0  0  0
 25 26  1  0  0  0  0
 25 42  1  0  0  0  0
 25 43  1  0  0  0  0
 26 27  1  0  0  0  0
 26 44  1  0  0  0  0
 27 45  1  0  0  0  0
 27 46  1  0  0  0  0
M  END
>  <DRUGBANK_ID>
DB17237

>  <COMMON_NAME>
PHI-101

>  <CAS_NUMBER>
2127107-15-5

>  <UNII>
U2UY9TBQ8Z

>  <SYNONYMS>
2-thiophenecarboxamide, 3-((aminocarbonyl)amino)-5-(2-(3-fluorophenyl)ethynyl)-n-(3s)-3-piperidinyl-; N-(2-(n-((3s)(3-piperidyl))carbamoyl)-5-(2-(3-fluorophenyl)ethynyl)(3-thienyl))aminamide; PHI101

$$$$
