DF1
 OpenBabel10282417072D

 46 49  0  0  0  0  0  0  0  0999 V2000
   -1.1269    0.3444    0.0000 C   0  0  0  0  0  0  0  0  0  0  0  0
   -1.3819    1.1290    0.0000 C   0  0  0  0  0  0  0  0  0  0  0  0
   -0.8298    1.7421    0.0000 C   0  0  0  0  0  0  0  0  0  0  0  0
   -0.0229    1.5706    0.0000 C   0  0  0  0  0  0  0  0  0  0  0  0
    0.2321    0.7859    0.0000 C   0  0  0  0  0  0  0  0  0  0  0  0
   -0.3200    0.1728    0.0000 C   0  0  0  0  0  0  0  0  0  0  0  0
   -0.0650   -0.6118    0.0000 C   0  0  0  0  0  0  0  0  0  0  0  0
    0.7196   -0.8667    0.0000 C   0  0  0  0  0  0  0  0  0  0  0  0
    1.4341   -0.4542    0.0000 C   0  0  0  0  0  0  0  0  0  0  0  0
    1.4341    0.3708    0.0000 N   0  0  0  0  0  0  0  0  0  0  0  0
    2.1485    0.7833    0.0000 C   0  0  0  0  0  0  0  0  0  0  0  0
    2.1485    1.6083    0.0000 C   0  0  1  0  0  0  0  0  0  0  0  0
    2.8630    2.0208    0.0000 C   0  0  0  0  0  0  0  0  0  0  0  0
    1.4341    2.0208    0.0000 O   0  0  0  0  0  0  0  0  0  0  0  0
    2.1485   -0.8667    0.0000 N   0  0  0  0  0  0  0  0  0  0  0  0
    2.1485   -1.6917    0.0000 C   0  0  0  0  0  0  0  0  0  0  0  0
    1.4341   -2.1042    0.0000 N   0  0  0  0  0  0  0  0  0  0  0  0
    0.7196   -1.6917    0.0000 C   0  0  0  0  0  0  0  0  0  0  0  0
   -0.0650   -1.9467    0.0000 N   0  0  0  0  0  0  0  0  0  0  0  0
   -0.5499   -1.2792    0.0000 C   0  0  0  0  0  0  0  0  0  0  0  0
   -1.3749   -1.2792    0.0000 C   0  0  0  0  0  0  0  0  0  0  0  0
   -1.7874   -1.9937    0.0000 C   0  0  0  0  0  0  0  0  0  0  0  0
   -2.6124   -1.9937    0.0000 C   0  0  0  0  0  0  0  0  0  0  0  0
   -3.0249   -1.2792    0.0000 C   0  0  0  0  0  0  0  0  0  0  0  0
   -2.6124   -0.5647    0.0000 C   0  0  0  0  0  0  0  0  0  0  0  0
   -1.7874   -0.5647    0.0000 C   0  0  0  0  0  0  0  0  0  0  0  0
    2.6542    1.3163    0.0000 H   0  0  0  0  0  0  0  0  0  0  0  0
   -1.8175   -0.4225    0.0000 H   0  0  0  0  0  0  0  0  0  0  0  0
   -2.3914    1.3436    0.0000 H   0  0  0  0  0  0  0  0  0  0  0  0
   -1.1487    2.7236    0.0000 H   0  0  0  0  0  0  0  0  0  0  0  0
    0.6676    2.3375    0.0000 H   0  0  0  0  0  0  0  0  0  0  0  0
    1.2415    0.5713    0.0000 H   0  0  0  0  0  0  0  0  0  0  0  0
    0.5815    0.8630    0.0000 H   0  0  0  0  0  0  0  0  0  0  0  0
    3.0752    0.2483    0.0000 H   0  0  0  0  0  0  0  0  0  0  0  0
    3.0751    1.3183    0.0000 H   0  0  0  0  0  0  0  0  0  0  0  0
    3.7896    1.4858    0.0000 H   0  0  0  0  0  0  0  0  0  0  0  0
    2.8630    3.0908    0.0000 H   0  0  0  0  0  0  0  0  0  0  0  0
    3.7897    2.5558    0.0000 H   0  0  0  0  0  0  0  0  0  0  0  0
    1.4341    2.9908    0.0000 H   0  0  0  0  0  0  0  0  0  0  0  0
    3.0422   -2.2077    0.0000 H   0  0  0  0  0  0  0  0  0  0  0  0
   -0.3692   -2.8830    0.0000 H   0  0  0  0  0  0  0  0  0  0  0  0
   -1.2714   -2.8874    0.0000 H   0  0  0  0  0  0  0  0  0  0  0  0
   -3.1284   -2.8874    0.0000 H   0  0  0  0  0  0  0  0  0  0  0  0
   -4.0569   -1.2792    0.0000 H   0  0  0  0  0  0  0  0  0  0  0  0
   -3.1284    0.3290    0.0000 H   0  0  0  0  0  0  0  0  0  0  0  0
   -1.2714    0.3290    0.0000 H   0  0  0  0  0  0  0  0  0  0  0  0
  1  2  2  0  0  0  0
  1  6  1  0  0  0  0
  1 28  1  0  0  0  0
  2  3  1  0  0  0  0
  2 29  1  0  0  0  0
  3  4  2  0  0  0  0
  3 30  1  0  0  0  0
  4  5  1  0  0  0  0
  4 31  1  0  0  0  0
  5  6  2  0  0  0  0
  5 32  1  0  0  0  0
  6  7  1  0  0  0  0
  7  8  1  0  0  0  0
  7 20  2  0  0  0  0
  8  9  2  0  0  0  0
  8 18  1  0  0  0  0
  9 10  1  0  0  0  0
  9 15  1  0  0  0  0
 10 11  1  0  0  0  0
 10 33  1  0  0  0  0
 11 12  1  0  0  0  0
 11 34  1  0  0  0  0
 11 35  1  0  0  0  0
 12 13  1  0  0  0  0
 12 14  1  0  0  0  0
 12 27  1  1  0  0  0
 13 36  1  0  0  0  0
 13 37  1  0  0  0  0
 13 38  1  0  0  0  0
 14 39  1  0  0  0  0
 15 16  2  0  0  0  0
 16 17  1  0  0  0  0
 16 40  1  0  0  0  0
 17 18  2  0  0  0  0
 18 19  1  0  0  0  0
 19 20  1  0  0  0  0
 19 41  1  0  0  0  0
 20 21  1  0  0  0  0
 21 22  2  0  0  0  0
 21 26  1  0  0  0  0
 22 23  1  0  0  0  0
 22 42  1  0  0  0  0
 23 24  2  0  0  0  0
 23 43  1  0  0  0  0
 24 25  1  0  0  0  0
 24 44  1  0  0  0  0
 25 26  2  0  0  0  0
 25 45  1  0  0  0  0
 26 46  1  0  0  0  0
M  END
>  <DRUGBANK_ID>
DB07647

>  <COMMON_NAME>
(2R)-1-[(5,6-DIPHENYL-7H-PYRROLO[2,3-D]PYRIMIDIN-4-YL)AMINO]PROPAN-2-OL

$$$$
