
 OpenBabel10282417072D

 65 68  0  0  0  0  0  0  0  0999 V2000
    3.7125   -4.3974    0.0000 C   0  0  0  0  0  0  0  0  0  0  0  0
    4.4270   -4.8099    0.0000 C   0  0  0  0  0  0  0  0  0  0  0  0
    4.4270   -5.6349    0.0000 C   0  0  0  0  0  0  0  0  0  0  0  0
    5.1414   -4.3974    0.0000 O   0  0  0  0  0  0  0  0  0  0  0  0
    5.8559   -4.8099    0.0000 C   0  0  0  0  0  0  0  0  0  0  0  0
    5.8559   -5.6349    0.0000 O   0  0  0  0  0  0  0  0  0  0  0  0
    6.5704   -4.3974    0.0000 C   0  0  0  0  0  0  0  0  0  0  0  0
    7.2849   -4.8099    0.0000 N   0  0  0  0  0  0  0  0  0  0  0  0
    7.9993   -4.3974    0.0000 C   0  0  0  0  0  0  0  0  0  0  0  0
    8.7138   -4.8099    0.0000 C   0  0  0  0  0  0  0  0  0  0  0  0
    9.4283   -4.3974    0.0000 C   0  0  0  0  0  0  0  0  0  0  0  0
    9.4283   -3.5724    0.0000 C   0  0  0  0  0  0  0  0  0  0  0  0
    8.7138   -3.1599    0.0000 C   0  0  0  0  0  0  0  0  0  0  0  0
    8.7138   -2.3349    0.0000 C   0  0  0  0  0  0  0  0  0  0  0  0
    7.9993   -1.9224    0.0000 N   0  0  0  0  0  0  0  0  0  0  0  0
    7.2849   -2.3349    0.0000 C   0  0  0  0  0  0  0  0  0  0  0  0
    6.5704   -1.9224    0.0000 C   0  0  0  0  0  0  0  0  0  0  0  0
    5.8559   -2.3349    0.0000 C   0  0  0  0  0  0  0  0  0  0  0  0
    5.1414   -1.9224    0.0000 C   0  0  0  0  0  0  0  0  0  0  0  0
    5.1414   -1.0974    0.0000 C   0  0  0  0  0  0  0  0  0  0  0  0
    5.8559   -0.6849    0.0000 C   0  0  0  0  0  0  0  0  0  0  0  0
    6.5704   -1.0974    0.0000 C   0  0  0  0  0  0  0  0  0  0  0  0
    4.4270   -0.6849    0.0000 N   0  0  0  0  0  0  0  0  0  0  0  0
    3.6733   -1.0204    0.0000 C   0  0  0  0  0  0  0  0  0  0  0  0
    3.1213   -0.4073    0.0000 C   0  0  0  0  0  0  0  0  0  0  0  0
    3.5338    0.3072    0.0000 C   0  0  0  0  0  0  0  0  0  0  0  0
    4.3407    0.1356    0.0000 N   0  0  0  0  0  0  0  0  0  0  0  0
    7.9993   -1.0974    0.0000 S   0  0  0  0  0  0  0  0  0  0  0  0
    7.9993   -0.2724    0.0000 O   0  0  0  0  0  0  0  0  0  0  0  0
    7.1743   -1.0974    0.0000 O   0  0  0  0  0  0  0  0  0  0  0  0
    8.8243   -1.0974    0.0000 C   0  0  0  0  0  0  0  0  0  0  0  0
    9.2368   -0.3829    0.0000 C   0  0  0  0  0  0  0  0  0  0  0  0
   10.0618   -0.3829    0.0000 C   0  0  0  0  0  0  0  0  0  0  0  0
   10.4743   -1.0974    0.0000 C   0  0  0  0  0  0  0  0  0  0  0  0
   10.0618   -1.8118    0.0000 N   0  0  0  0  0  0  0  0  0  0  0  0
    9.2368   -1.8118    0.0000 C   0  0  0  0  0  0  0  0  0  0  0  0
    7.9993   -3.5724    0.0000 N   0  0  0  0  0  0  0  0  0  0  0  0
    3.7125   -3.3274    0.0000 H   0  0  0  0  0  0  0  0  0  0  0  0
    2.7859   -4.9324    0.0000 H   0  0  0  0  0  0  0  0  0  0  0  0
    2.7858   -3.8624    0.0000 H   0  0  0  0  0  0  0  0  0  0  0  0
    5.3537   -5.3449    0.0000 H   0  0  0  0  0  0  0  0  0  0  0  0
    3.5004   -6.1699    0.0000 H   0  0  0  0  0  0  0  0  0  0  0  0
    5.3536   -6.1699    0.0000 H   0  0  0  0  0  0  0  0  0  0  0  0
    4.4270   -6.7049    0.0000 H   0  0  0  0  0  0  0  0  0  0  0  0
    6.5704   -3.3274    0.0000 H   0  0  0  0  0  0  0  0  0  0  0  0
    7.4970   -3.8624    0.0000 H   0  0  0  0  0  0  0  0  0  0  0  0
    7.2849   -5.7944    0.0000 H   0  0  0  0  0  0  0  0  0  0  0  0
    8.7138   -5.8419    0.0000 H   0  0  0  0  0  0  0  0  0  0  0  0
   10.3220   -4.9134    0.0000 H   0  0  0  0  0  0  0  0  0  0  0  0
   10.3220   -3.0564    0.0000 H   0  0  0  0  0  0  0  0  0  0  0  0
    9.6404   -1.7999    0.0000 H   0  0  0  0  0  0  0  0  0  0  0  0
    8.7138   -1.2649    0.0000 H   0  0  0  0  0  0  0  0  0  0  0  0
    7.2849   -3.4049    0.0000 H   0  0  0  0  0  0  0  0  0  0  0  0
    6.3583   -2.8699    0.0000 H   0  0  0  0  0  0  0  0  0  0  0  0
    5.8559   -3.3669    0.0000 H   0  0  0  0  0  0  0  0  0  0  0  0
    4.2477   -2.4384    0.0000 H   0  0  0  0  0  0  0  0  0  0  0  0
    5.8559    0.3471    0.0000 H   0  0  0  0  0  0  0  0  0  0  0  0
    7.4641   -0.5814    0.0000 H   0  0  0  0  0  0  0  0  0  0  0  0
    3.4587   -2.0298    0.0000 H   0  0  0  0  0  0  0  0  0  0  0  0
    2.0950   -0.5152    0.0000 H   0  0  0  0  0  0  0  0  0  0  0  0
    3.1141    1.2500    0.0000 H   0  0  0  0  0  0  0  0  0  0  0  0
    8.7208    0.5108    0.0000 H   0  0  0  0  0  0  0  0  0  0  0  0
   10.5778    0.5108    0.0000 H   0  0  0  0  0  0  0  0  0  0  0  0
   11.5063   -1.0974    0.0000 H   0  0  0  0  0  0  0  0  0  0  0  0
    8.7208   -2.7055    0.0000 H   0  0  0  0  0  0  0  0  0  0  0  0
  1  2  1  0  0  0  0
  1 38  1  0  0  0  0
  1 39  1  0  0  0  0
  1 40  1  0  0  0  0
  2  3  1  0  0  0  0
  2  4  1  0  0  0  0
  2 41  1  0  0  0  0
  3 42  1  0  0  0  0
  3 43  1  0  0  0  0
  3 44  1  0  0  0  0
  4  5  1  0  0  0  0
  5  6  2  0  0  0  0
  5  7  1  0  0  0  0
  7  8  1  0  0  0  0
  7 45  1  0  0  0  0
  7 46  1  0  0  0  0
  8  9  1  0  0  0  0
  8 47  1  0  0  0  0
  9 10  2  0  0  0  0
  9 37  1  0  0  0  0
 10 11  1  0  0  0  0
 10 48  1  0  0  0  0
 11 12  2  0  0  0  0
 11 49  1  0  0  0  0
 12 13  1  0  0  0  0
 12 50  1  0  0  0  0
 13 14  1  0  0  0  0
 13 37  2  0  0  0  0
 14 15  1  0  0  0  0
 14 51  1  0  0  0  0
 14 52  1  0  0  0  0
 15 16  1  0  0  0  0
 15 28  1  0  0  0  0
 16 17  1  0  0  0  0
 16 53  1  0  0  0  0
 16 54  1  0  0  0  0
 17 18  2  0  0  0  0
 17 22  1  0  0  0  0
 18 19  1  0  0  0  0
 18 55  1  0  0  0  0
 19 20  2  0  0  0  0
 19 56  1  0  0  0  0
 20 21  1  0  0  0  0
 20 23  1  0  0  0  0
 21 22  2  0  0  0  0
 21 57  1  0  0  0  0
 22 58  1  0  0  0  0
 23 24  1  0  0  0  0
 23 27  1  0  0  0  0
 24 25  2  0  0  0  0
 24 59  1  0  0  0  0
 25 26  1  0  0  0  0
 25 60  1  0  0  0  0
 26 27  2  0  0  0  0
 26 61  1  0  0  0  0
 28 29  2  0  0  0  0
 28 30  2  0  0  0  0
 28 31  1  0  0  0  0
 31 32  2  0  0  0  0
 31 36  1  0  0  0  0
 32 33  1  0  0  0  0
 32 62  1  0  0  0  0
 33 34  2  0  0  0  0
 33 63  1  0  0  0  0
 34 35  1  0  0  0  0
 34 64  1  0  0  0  0
 35 36  2  0  0  0  0
 36 65  1  0  0  0  0
M  END
>  <DRUGBANK_ID>
DB15071

>  <COMMON_NAME>
Omidenepag isopropyl

>  <CAS_NUMBER>
1187451-19-9

>  <UNII>
G0G0H52U6K

>  <SYNONYMS>
isopropyl N-(6-(((4-(1H-pyrazol-1-yl)benzyl)(3-pyridinylsulfonyl)amino)methyl)-2-pyridinyl)glycinate; Omidenepag isopropyl

$$$$
