
 OpenBabel10282417072D

 12 12  0  0  0  0  0  0  0  0999 V2000
    0.2773    1.3811    0.0000 C   0  0  0  0  0  0  0  0  0  0  0  0
    0.2773    0.5560    0.0000 N   0  0  0  0  0  0  0  0  0  0  0  0
    0.9448    0.0710    0.0000 S   0  0  0  0  0  0  0  0  0  0  0  0
    0.6899   -0.7136    0.0000 C   0  0  0  0  0  0  0  0  0  0  0  0
   -0.1351   -0.7136    0.0000 C   0  0  0  0  0  0  0  0  0  0  0  0
   -0.3901    0.0710    0.0000 C   0  0  0  0  0  0  0  0  0  0  0  0
   -1.1748    0.3260    0.0000 O   0  0  0  0  0  0  0  0  0  0  0  0
    1.1748   -1.3811    0.0000 Cl  0  0  0  0  0  0  0  0  0  0  0  0
    1.2039    1.9161    0.0000 H   0  0  0  0  0  0  0  0  0  0  0  0
   -0.6493    1.9161    0.0000 H   0  0  0  0  0  0  0  0  0  0  0  0
    0.2773    2.4511    0.0000 H   0  0  0  0  0  0  0  0  0  0  0  0
   -0.7417   -1.5485    0.0000 H   0  0  0  0  0  0  0  0  0  0  0  0
  1  2  1  0  0  0  0
  1  9  1  0  0  0  0
  1 10  1  0  0  0  0
  1 11  1  0  0  0  0
  2  3  1  0  0  0  0
  2  6  1  0  0  0  0
  3  4  1  0  0  0  0
  4  5  2  0  0  0  0
  4  8  1  0  0  0  0
  5  6  1  0  0  0  0
  5 12  1  0  0  0  0
  6  7  2  0  0  0  0
M  END
>  <DRUGBANK_ID>
DB14197

>  <COMMON_NAME>
Methylchloroisothiazolinone

>  <CAS_NUMBER>
26172-55-4

>  <UNII>
DEL7T5QRPN

>  <SYNONYMS>
4-Isothiazolin-3-one, 5-chloro-2-methyl-; 5-Chloro-2-methyl-3(2H)-isothiazolone; 5-Chloro-N-methylisothiazolin-3-one

$$$$
