
 OpenBabel10282417072D

 34 34  0  0  0  0  0  0  0  0999 V2000
   -3.5724    2.0625    0.0000 C   0  0  0  0  0  0  0  0  0  0  0  0
   -2.8579    2.4750    0.0000 C   0  0  0  0  0  0  0  0  0  0  0  0
   -2.1434    2.0625    0.0000 C   0  0  0  0  0  0  0  0  0  0  0  0
   -2.1434    1.2375    0.0000 C   0  0  0  0  0  0  0  0  0  0  0  0
   -2.8579    0.8250    0.0000 C   0  0  0  0  0  0  0  0  0  0  0  0
   -3.5724    1.2375    0.0000 C   0  0  0  0  0  0  0  0  0  0  0  0
   -2.8579    0.0000    0.0000 C   0  0  0  0  0  0  0  0  0  0  0  0
   -2.1434   -0.4125    0.0000 O   0  0  0  0  0  0  0  0  0  0  0  0
   -3.5724   -0.4125    0.0000 N   0  0  0  0  0  0  0  0  0  0  0  0
   -3.5724   -1.2375    0.0000 C   0  0  0  0  0  0  0  0  0  0  0  0
   -4.2868   -1.6500    0.0000 C   0  0  0  0  0  0  0  0  0  0  0  0
   -4.2868   -2.4750    0.0000 S   0  0  0  0  0  0  0  0  0  0  0  0
   -1.4289    2.4750    0.0000 C   0  0  0  0  0  0  0  0  0  0  0  0
   -1.4289    3.3000    0.0000 O   0  0  0  0  0  0  0  0  0  0  0  0
   -0.7145    2.0625    0.0000 N   0  0  0  0  0  0  0  0  0  0  0  0
    0.0000    2.4750    0.0000 C   0  0  0  0  0  0  0  0  0  0  0  0
    0.7145    2.0625    0.0000 C   0  0  0  0  0  0  0  0  0  0  0  0
    1.4289    2.4750    0.0000 S   0  0  0  0  0  0  0  0  0  0  0  0
   -4.4661    2.5785    0.0000 H   0  0  0  0  0  0  0  0  0  0  0  0
   -2.8579    3.5070    0.0000 H   0  0  0  0  0  0  0  0  0  0  0  0
   -1.2497    0.7215    0.0000 H   0  0  0  0  0  0  0  0  0  0  0  0
   -4.4661    0.7215    0.0000 H   0  0  0  0  0  0  0  0  0  0  0  0
   -4.4250    0.0798    0.0000 H   0  0  0  0  0  0  0  0  0  0  0  0
   -2.6457   -1.7725    0.0000 H   0  0  0  0  0  0  0  0  0  0  0  0
   -3.5724   -2.3075    0.0000 H   0  0  0  0  0  0  0  0  0  0  0  0
   -5.2135   -1.1150    0.0000 H   0  0  0  0  0  0  0  0  0  0  0  0
   -5.2134   -2.1850    0.0000 H   0  0  0  0  0  0  0  0  0  0  0  0
   -5.4646   -3.1550    0.0000 H   0  0  0  0  0  0  0  0  0  0  0  0
   -0.7145    1.0780    0.0000 H   0  0  0  0  0  0  0  0  0  0  0  0
    0.0000    3.5450    0.0000 H   0  0  0  0  0  0  0  0  0  0  0  0
    0.9266    3.0100    0.0000 H   0  0  0  0  0  0  0  0  0  0  0  0
    0.7145    0.9925    0.0000 H   0  0  0  0  0  0  0  0  0  0  0  0
    1.6412    1.5275    0.0000 H   0  0  0  0  0  0  0  0  0  0  0  0
    2.6067    1.7951    0.0000 H   0  0  0  0  0  0  0  0  0  0  0  0
  1  2  2  0  0  0  0
  1  6  1  0  0  0  0
  1 19  1  0  0  0  0
  2  3  1  0  0  0  0
  2 20  1  0  0  0  0
  3  4  2  0  0  0  0
  3 13  1  0  0  0  0
  4  5  1  0  0  0  0
  4 21  1  0  0  0  0
  5  6  2  0  0  0  0
  5  7  1  0  0  0  0
  6 22  1  0  0  0  0
  7  8  2  0  0  0  0
  7  9  1  0  0  0  0
  9 10  1  0  0  0  0
  9 23  1  0  0  0  0
 10 11  1  0  0  0  0
 10 24  1  0  0  0  0
 10 25  1  0  0  0  0
 11 12  1  0  0  0  0
 11 26  1  0  0  0  0
 11 27  1  0  0  0  0
 12 28  1  0  0  0  0
 13 14  2  0  0  0  0
 13 15  1  0  0  0  0
 15 16  1  0  0  0  0
 15 29  1  0  0  0  0
 16 17  1  0  0  0  0
 16 30  1  0  0  0  0
 16 31  1  0  0  0  0
 17 18  1  0  0  0  0
 17 32  1  0  0  0  0
 17 33  1  0  0  0  0
 18 34  1  0  0  0  0
M  END
>  <DRUGBANK_ID>
DB12192

>  <COMMON_NAME>
Emeramide

>  <CAS_NUMBER>
351994-94-0

>  <UNII>
4U7K5X4ANS

>  <SYNONYMS>
Emeramide

$$$$
