
 OpenBabel10282417072D

 46 47  0  0  0  0  0  0  0  0999 V2000
   -2.6871    0.0825    0.0000 C   0  0  0  0  0  0  0  0  0  0  0  0
   -3.5076    0.1687    0.0000 C   0  0  0  0  0  0  0  0  0  0  0  0
   -3.9925   -0.4987    0.0000 C   0  0  3  0  0  0  0  0  0  0  0  0
   -4.8130   -0.4125    0.0000 C   0  0  0  0  0  0  0  0  0  0  0  0
   -5.2979   -1.0799    0.0000 C   0  0  0  0  0  0  0  0  0  0  0  0
   -6.1184   -0.9937    0.0000 C   0  0  0  0  0  0  0  0  0  0  0  0
   -6.4539   -0.2400    0.0000 C   0  0  0  0  0  0  0  0  0  0  0  0
   -5.9690    0.4274    0.0000 C   0  0  0  0  0  0  0  0  0  0  0  0
   -5.1485    0.3412    0.0000 C   0  0  0  0  0  0  0  0  0  0  0  0
   -3.6569   -1.2524    0.0000 C   0  0  0  0  0  0  0  0  0  0  0  0
   -2.8500   -1.4239    0.0000 N   0  0  0  0  0  0  0  0  0  0  0  0
   -2.7637   -2.2444    0.0000 C   0  0  0  0  0  0  0  0  0  0  0  0
   -3.5174   -2.5800    0.0000 O   0  0  0  0  0  0  0  0  0  0  0  0
   -4.0694   -1.9669    0.0000 N   0  0  0  0  0  0  0  0  0  0  0  0
   -2.0492   -2.6569    0.0000 C   0  0  0  0  0  0  0  0  0  0  0  0
   -2.0492   -3.4819    0.0000 C   0  0  0  0  0  0  0  0  0  0  0  0
   -1.3348   -3.8944    0.0000 N   0  0  0  0  0  0  0  0  0  0  0  0
   -1.3348   -4.7194    0.0000 C   0  0  0  0  0  0  0  0  0  0  0  0
   -0.6203   -5.1319    0.0000 C   0  0  0  0  0  0  0  0  0  0  0  0
   -0.6203   -3.4819    0.0000 C   0  0  0  0  0  0  0  0  0  0  0  0
    0.0942   -3.8944    0.0000 C   0  0  0  0  0  0  0  0  0  0  0  0
   -2.2518   -0.8950    0.0000 H   0  0  0  0  0  0  0  0  0  0  0  0
   -2.0582    0.9482    0.0000 H   0  0  0  0  0  0  0  0  0  0  0  0
   -1.6230   -0.0293    0.0000 H   0  0  0  0  0  0  0  0  0  0  0  0
   -3.9428    1.1462    0.0000 H   0  0  0  0  0  0  0  0  0  0  0  0
   -4.5717    0.2805    0.0000 H   0  0  0  0  0  0  0  0  0  0  0  0
   -4.4277    0.4788    0.0000 H   0  0  0  0  0  0  0  0  0  0  0  0
   -4.8781   -2.0227    0.0000 H   0  0  0  0  0  0  0  0  0  0  0  0
   -6.7250   -1.8286    0.0000 H   0  0  0  0  0  0  0  0  0  0  0  0
   -7.4802   -0.1321    0.0000 H   0  0  0  0  0  0  0  0  0  0  0  0
   -6.3888    1.3702    0.0000 H   0  0  0  0  0  0  0  0  0  0  0  0
   -4.5419    1.1761    0.0000 H   0  0  0  0  0  0  0  0  0  0  0  0
   -1.1226   -2.1219    0.0000 H   0  0  0  0  0  0  0  0  0  0  0  0
   -1.1226   -3.1919    0.0000 H   0  0  0  0  0  0  0  0  0  0  0  0
   -2.9759   -4.0169    0.0000 H   0  0  0  0  0  0  0  0  0  0  0  0
   -2.0492   -4.5519    0.0000 H   0  0  0  0  0  0  0  0  0  0  0  0
   -2.2614   -5.2544    0.0000 H   0  0  0  0  0  0  0  0  0  0  0  0
   -1.3348   -5.7894    0.0000 H   0  0  0  0  0  0  0  0  0  0  0  0
   -0.6203   -6.2019    0.0000 H   0  0  0  0  0  0  0  0  0  0  0  0
    0.3063   -4.5969    0.0000 H   0  0  0  0  0  0  0  0  0  0  0  0
    0.3064   -5.6669    0.0000 H   0  0  0  0  0  0  0  0  0  0  0  0
   -0.6203   -2.4119    0.0000 H   0  0  0  0  0  0  0  0  0  0  0  0
    0.3063   -2.9469    0.0000 H   0  0  0  0  0  0  0  0  0  0  0  0
    0.0942   -4.9644    0.0000 H   0  0  0  0  0  0  0  0  0  0  0  0
    1.0208   -3.3594    0.0000 H   0  0  0  0  0  0  0  0  0  0  0  0
    1.0209   -4.4294    0.0000 H   0  0  0  0  0  0  0  0  0  0  0  0
  1  2  1  0  0  0  0
  1 22  1  0  0  0  0
  1 23  1  0  0  0  0
  1 24  1  0  0  0  0
  2  3  1  0  0  0  0
  2 25  1  0  0  0  0
  2 26  1  0  0  0  0
  3  4  1  0  0  0  0
  3 10  1  0  0  0  0
  3 27  1  0  0  0  0
  4  5  2  0  0  0  0
  4  9  1  0  0  0  0
  5  6  1  0  0  0  0
  5 28  1  0  0  0  0
  6  7  2  0  0  0  0
  6 29  1  0  0  0  0
  7  8  1  0  0  0  0
  7 30  1  0  0  0  0
  8  9  2  0  0  0  0
  8 31  1  0  0  0  0
  9 32  1  0  0  0  0
 10 11  1  0  0  0  0
 10 14  2  0  0  0  0
 11 12  2  0  0  0  0
 12 13  1  0  0  0  0
 12 15  1  0  0  0  0
 13 14  1  0  0  0  0
 15 16  1  0  0  0  0
 15 33  1  0  0  0  0
 15 34  1  0  0  0  0
 16 17  1  0  0  0  0
 16 35  1  0  0  0  0
 16 36  1  0  0  0  0
 17 18  1  0  0  0  0
 17 20  1  0  0  0  0
 18 19  1  0  0  0  0
 18 37  1  0  0  0  0
 18 38  1  0  0  0  0
 19 39  1  0  0  0  0
 19 40  1  0  0  0  0
 19 41  1  0  0  0  0
 20 21  1  0  0  0  0
 20 42  1  0  0  0  0
 20 43  1  0  0  0  0
 21 44  1  0  0  0  0
 21 45  1  0  0  0  0
 21 46  1  0  0  0  0
M  END
>  <DRUGBANK_ID>
DB13819

>  <COMMON_NAME>
Proxazole

>  <CAS_NUMBER>
5696-09-3

>  <UNII>
FD72T13M0K

>  <SYNONYMS>
Proxazole

$$$$
