
 OpenBabel10282417072D

 57 54  0  0  0  0  0  0  0  0999 V2000
   -0.8415   -2.0744    0.0000 C   0  0  2  0  0  0  0  0  0  0  0  0
   -0.1130   -1.6558    0.0000 C   0  0  2  0  0  0  0  0  0  0  0  0
   -1.5406   -1.6264    0.0000 C   0  0  1  0  0  0  0  0  0  0  0  0
   -0.8707   -2.8991    0.0000 O   0  0  0  0  0  0  0  0  0  0  0  0
    0.5945   -2.0744    0.0000 C   0  0  3  0  0  0  0  0  0  0  0  0
   -0.1130   -0.8352    0.0000 O   0  0  0  0  0  0  0  0  0  0  0  0
   -2.2817   -2.0368    0.0000 C   0  0  1  0  0  0  0  0  0  0  0  0
   -1.5406   -0.8018    0.0000 O   0  0  0  0  0  0  0  0  0  0  0  0
    1.3229   -1.6977    0.0000 C   0  0  0  0  0  0  0  0  0  0  0  0
    0.5945   -2.8991    0.0000 O   0  0  0  0  0  0  0  0  0  0  0  0
   -2.9850   -1.6264    0.0000 C   0  0  0  0  0  0  0  0  0  0  0  0
   -2.3025   -2.8700    0.0000 O   0  0  0  0  0  0  0  0  0  0  0  0
    1.3229   -0.8687    0.0000 O   0  0  0  0  0  0  0  0  0  0  0  0
    2.0430   -2.1120    0.0000 O   0  5  0  0  0  0  0  0  0  0  0  0
   -3.7135   -1.9990    0.0000 O   0  0  0  0  0  0  0  0  0  0  0  0
   -0.8331    1.6265    0.0000 C   0  0  2  0  0  0  0  0  0  0  0  0
   -0.1046    2.0451    0.0000 C   0  0  2  0  0  0  0  0  0  0  0  0
   -1.5322    2.0743    0.0000 C   0  0  1  0  0  0  0  0  0  0  0  0
   -0.8624    0.8017    0.0000 O   0  0  0  0  0  0  0  0  0  0  0  0
    0.6028    1.6265    0.0000 C   0  0  3  0  0  0  0  0  0  0  0  0
   -0.1046    2.8658    0.0000 O   0  0  0  0  0  0  0  0  0  0  0  0
   -2.2733    1.6641    0.0000 C   0  0  1  0  0  0  0  0  0  0  0  0
   -1.5322    2.8991    0.0000 O   0  0  0  0  0  0  0  0  0  0  0  0
    1.3313    2.0032    0.0000 C   0  0  0  0  0  0  0  0  0  0  0  0
    0.6028    0.8017    0.0000 O   0  0  0  0  0  0  0  0  0  0  0  0
   -2.9766    2.0743    0.0000 C   0  0  0  0  0  0  0  0  0  0  0  0
   -2.2942    0.8310    0.0000 O   0  0  0  0  0  0  0  0  0  0  0  0
    1.3313    2.8322    0.0000 O   0  0  0  0  0  0  0  0  0  0  0  0
    2.0514    1.5888    0.0000 O   0  5  0  0  0  0  0  0  0  0  0  0
   -3.7051    1.7017    0.0000 O   0  0  0  0  0  0  0  0  0  0  0  0
    3.7135    0.0774    0.0000 Ca  0  2  0  0  0  0  0  0  0  0  0  0
    0.0750   -2.6267    0.0000 H   0  0  0  0  0  0  0  0  0  0  0  0
   -1.0391   -1.1198    0.0000 H   0  0  0  0  0  0  0  0  0  0  0  0
   -0.6018   -1.1130    0.0000 H   0  0  0  0  0  0  0  0  0  0  0  0
   -1.7274   -3.3541    0.0000 H   0  0  0  0  0  0  0  0  0  0  0  0
    0.6250   -1.0048    0.0000 H   0  0  0  0  0  0  0  0  0  0  0  0
    0.7270   -0.3502    0.0000 H   0  0  0  0  0  0  0  0  0  0  0  0
   -1.3667   -2.5915    0.0000 H   0  0  0  0  0  0  0  0  0  0  0  0
   -0.7006   -0.3168    0.0000 H   0  0  0  0  0  0  0  0  0  0  0  0
   -0.2455   -3.3841    0.0000 H   0  0  0  0  0  0  0  0  0  0  0  0
   -2.9553   -0.5568    0.0000 H   0  0  0  0  0  0  0  0  0  0  0  0
   -2.0498   -1.1065    0.0000 H   0  0  0  0  0  0  0  0  0  0  0  0
   -3.1544   -3.3339    0.0000 H   0  0  0  0  0  0  0  0  0  0  0  0
   -4.5278   -1.4720    0.0000 H   0  0  0  0  0  0  0  0  0  0  0  0
    0.0833    1.0742    0.0000 H   0  0  0  0  0  0  0  0  0  0  0  0
   -1.0307    2.5811    0.0000 H   0  0  0  0  0  0  0  0  0  0  0  0
   -0.5935    2.5878    0.0000 H   0  0  0  0  0  0  0  0  0  0  0  0
   -1.7191    0.3468    0.0000 H   0  0  0  0  0  0  0  0  0  0  0  0
    0.6333    2.6961    0.0000 H   0  0  0  0  0  0  0  0  0  0  0  0
    0.7354    3.3508    0.0000 H   0  0  0  0  0  0  0  0  0  0  0  0
   -1.3584    1.1092    0.0000 H   0  0  0  0  0  0  0  0  0  0  0  0
   -0.6922    3.3841    0.0000 H   0  0  0  0  0  0  0  0  0  0  0  0
   -0.2372    0.3167    0.0000 H   0  0  0  0  0  0  0  0  0  0  0  0
   -2.9471    3.1439    0.0000 H   0  0  0  0  0  0  0  0  0  0  0  0
   -3.8816    2.6452    0.0000 H   0  0  0  0  0  0  0  0  0  0  0  0
   -3.1461    0.3672    0.0000 H   0  0  0  0  0  0  0  0  0  0  0  0
   -4.5194    2.2287    0.0000 H   0  0  0  0  0  0  0  0  0  0  0  0
  1  2  1  0  0  0  0
  1  3  1  0  0  0  0
  1  4  1  0  0  0  0
  1 32  1  6  0  0  0
  2  5  1  0  0  0  0
  2  6  1  0  0  0  0
  2 33  1  6  0  0  0
  3  7  1  0  0  0  0
  3  8  1  0  0  0  0
  3 34  1  6  0  0  0
  4 35  1  0  0  0  0
  5  9  1  0  0  0  0
  5 10  1  0  0  0  0
  5 36  1  0  0  0  0
  6 37  1  0  0  0  0
  7 11  1  0  0  0  0
  7 12  1  0  0  0  0
  7 38  1  1  0  0  0
  8 39  1  0  0  0  0
  9 14  1  0  0  0  0
  9 13  2  0  0  0  0
 10 40  1  0  0  0  0
 11 15  1  0  0  0  0
 11 41  1  0  0  0  0
 11 42  1  0  0  0  0
 12 43  1  0  0  0  0
 15 44  1  0  0  0  0
 16 17  1  0  0  0  0
 16 18  1  0  0  0  0
 16 19  1  0  0  0  0
 16 45  1  6  0  0  0
 17 20  1  0  0  0  0
 17 21  1  0  0  0  0
 17 46  1  6  0  0  0
 18 22  1  0  0  0  0
 18 23  1  0  0  0  0
 18 47  1  6  0  0  0
 19 48  1  0  0  0  0
 20 24  1  0  0  0  0
 20 25  1  0  0  0  0
 20 49  1  0  0  0  0
 21 50  1  0  0  0  0
 22 26  1  0  0  0  0
 22 27  1  0  0  0  0
 22 51  1  1  0  0  0
 23 52  1  0  0  0  0
 24 28  2  0  0  0  0
 24 29  1  0  0  0  0
 25 53  1  0  0  0  0
 26 30  1  0  0  0  0
 26 54  1  0  0  0  0
 26 55  1  0  0  0  0
 27 56  1  0  0  0  0
 30 57  1  0  0  0  0
M  CHG  3  14  -1  29  -1  31   2
M  END
>  <DRUGBANK_ID>
DB00326

>  <SECONDARY_ACCESSION_NUMBERS>
APRD00841

>  <COMMON_NAME>
Calcium glucoheptonate

>  <CAS_NUMBER>
29039-00-7

>  <UNII>
L11651398J

>  <SYNONYMS>
Calcii glucoheptonas; calcium (2ξ)-D-gluco-heptonate; calcium bis[(2ξ)-D-glycero-D-gulo-heptonate]; calcium bis[(2ξ)-D-glycero-D-ido-heptonate]; calcium bis[(3R,4S,5R,6R)-2,3,4,5,6,7-hexahydroxyheptanoate]; Calcium gluceptate; Calcium glucoheptonat; Calcium glucoheptonate; Calcium glucoheptonate (1:2); Glucoheptonate de calcium; Glucoheptonato calcico

$$$$
