
 OpenBabel10282417072D

 43 44  0  0  1  0  0  0  0  0999 V2000
    2.8579   -0.0000    0.0000 N   0  0  0  0  0  0  0  0  0  0  0  0
    2.8579   -0.8250    0.0000 C   0  0  1  0  0  0  0  0  0  0  0  0
    2.1434   -1.2375    0.0000 C   0  0  0  0  0  0  0  0  0  0  0  0
    1.4289   -0.8250    0.0000 C   0  0  0  0  0  0  0  0  0  0  0  0
    1.4289   -0.0000    0.0000 O   0  0  0  0  0  0  0  0  0  0  0  0
    0.7145   -1.2375    0.0000 N   0  0  0  0  0  0  0  0  0  0  0  0
    0.0000   -0.8250    0.0000 C   0  0  0  0  0  0  0  0  0  0  0  0
   -0.7145   -1.2375    0.0000 N   0  0  0  0  0  0  0  0  0  0  0  0
   -1.4289   -0.8250    0.0000 C   0  0  0  0  0  0  0  0  0  0  0  0
   -2.1434   -1.2375    0.0000 O   0  0  0  0  0  0  0  0  0  0  0  0
   -1.4289   -0.0000    0.0000 N   0  0  0  0  0  0  0  0  0  0  0  0
   -0.7145    0.4125    0.0000 C   0  0  0  0  0  0  0  0  0  0  0  0
    0.0000   -0.0000    0.0000 C   0  0  0  0  0  0  0  0  0  0  0  0
   -2.1434    0.4125    0.0000 C   0  0  2  0  0  0  0  0  0  0  0  0
   -2.8971    0.0769    0.0000 O   0  0  0  0  0  0  0  0  0  0  0  0
   -3.4491    0.6900    0.0000 C   0  0  2  0  0  0  0  0  0  0  0  0
   -4.2696    0.6038    0.0000 C   0  0  0  0  0  0  0  0  0  0  0  0
   -4.7545    1.2712    0.0000 O   0  0  0  0  0  0  0  0  0  0  0  0
   -3.0366    1.4045    0.0000 C   0  0  1  0  0  0  0  0  0  0  0  0
   -3.3722    2.1582    0.0000 O   0  0  0  0  0  0  0  0  0  0  0  0
   -2.2296    1.2330    0.0000 C   0  0  2  0  0  0  0  0  0  0  0  0
   -1.6166    1.7850    0.0000 O   0  0  0  0  0  0  0  0  0  0  0  0
    3.5724   -1.2375    0.0000 C   0  0  0  0  0  0  0  0  0  0  0  0
    4.2868   -0.8250    0.0000 O   0  0  0  0  0  0  0  0  0  0  0  0
    3.5724   -2.0625    0.0000 O   0  0  0  0  0  0  0  0  0  0  0  0
    3.7412    0.5100    0.0000 H   0  0  0  0  0  0  0  0  0  0  0  0
    1.9746    0.5100    0.0000 H   0  0  0  0  0  0  0  0  0  0  0  0
    1.9313   -0.2900    0.0000 H   0  0  0  0  0  0  0  0  0  0  0  0
    2.1434   -2.3075    0.0000 H   0  0  0  0  0  0  0  0  0  0  0  0
    1.2168   -1.7725    0.0000 H   0  0  0  0  0  0  0  0  0  0  0  0
    0.7145   -2.2220    0.0000 H   0  0  0  0  0  0  0  0  0  0  0  0
   -0.7145    1.4445    0.0000 H   0  0  0  0  0  0  0  0  0  0  0  0
    0.8937    0.5160    0.0000 H   0  0  0  0  0  0  0  0  0  0  0  0
   -2.1994   -0.6560    0.0000 H   0  0  0  0  0  0  0  0  0  0  0  0
   -3.8326   -0.3089    0.0000 H   0  0  0  0  0  0  0  0  0  0  0  0
   -4.7048   -0.3737    0.0000 H   0  0  0  0  0  0  0  0  0  0  0  0
   -5.3337    0.4920    0.0000 H   0  0  0  0  0  0  0  0  0  0  0  0
   -4.3600    2.1573    0.0000 H   0  0  0  0  0  0  0  0  0  0  0  0
   -4.1051    1.4605    0.0000 H   0  0  0  0  0  0  0  0  0  0  0  0
   -2.8021    2.9430    0.0000 H   0  0  0  0  0  0  0  0  0  0  0  0
   -2.5066    2.2665    0.0000 H   0  0  0  0  0  0  0  0  0  0  0  0
   -0.6941    1.4853    0.0000 H   0  0  0  0  0  0  0  0  0  0  0  0
    5.0983   -1.2935    0.0000 H   0  0  0  0  0  0  0  0  0  0  0  0
  1 26  1  0  0  0  0
  1 27  1  0  0  0  0
  2  1  1  0  0  0  0
  2  3  1  0  0  0  0
  2 23  1  0  0  0  0
  2 28  1  1  0  0  0
  3  4  1  0  0  0  0
  3 29  1  0  0  0  0
  3 30  1  0  0  0  0
  4  5  2  0  0  0  0
  4  6  1  0  0  0  0
  6  7  1  0  0  0  0
  6 31  1  0  0  0  0
  7  8  2  0  0  0  0
  7 13  1  0  0  0  0
  8  9  1  0  0  0  0
  9 10  2  0  0  0  0
  9 11  1  0  0  0  0
 11 12  1  0  0  0  0
 12 13  2  0  0  0  0
 12 32  1  0  0  0  0
 13 33  1  0  0  0  0
 14 11  1  0  0  0  0
 14 15  1  0  0  0  0
 14 34  1  1  0  0  0
 16 15  1  0  0  0  0
 16 17  1  0  0  0  0
 16 35  1  1  0  0  0
 17 18  1  0  0  0  0
 17 36  1  0  0  0  0
 17 37  1  0  0  0  0
 18 38  1  0  0  0  0
 19 16  1  0  0  0  0
 19 20  1  0  0  0  0
 19 21  1  0  0  0  0
 19 39  1  6  0  0  0
 20 40  1  0  0  0  0
 21 14  1  0  0  0  0
 21 22  1  0  0  0  0
 21 41  1  1  0  0  0
 22 42  1  0  0  0  0
 23 24  1  0  0  0  0
 23 25  2  0  0  0  0
 24 43  1  0  0  0  0
M  END
>  <DRUGBANK_ID>
DB17226

>  <COMMON_NAME>
Aspacytarabine

>  <CAS_NUMBER>
2098942-53-9

>  <UNII>
JL7V54Z2BR

>  <SYNONYMS>
Astarabine; L-asparagine, n-(1-.beta.-d-arabinofuranosyl-1,2-dihydro-2-oxo-4-pyrimidinyl)-; N4-(1-.beta.-d-arabinofuranosyl-2-oxo-1,2-dihydropyrimidin-4-yl)-l-asparagine

$$$$
