C18
 OpenBabel10282417072D

 39 41  0  0  0  0  0  0  0  0999 V2000
   -3.0129    1.3120    0.0000 O   0  0  0  0  0  0  0  0  0  0  0  0
   -2.2984    0.8995    0.0000 C   0  0  0  0  0  0  0  0  0  0  0  0
   -1.5840    1.3120    0.0000 O   0  0  0  0  0  0  0  0  0  0  0  0
   -0.8695    0.8995    0.0000 C   0  0  0  0  0  0  0  0  0  0  0  0
   -0.8695    0.0745    0.0000 C   0  0  0  0  0  0  0  0  0  0  0  0
   -1.5840   -0.3380    0.0000 C   0  0  0  0  0  0  0  0  0  0  0  0
   -2.2984   -1.5755    0.0000 N   0  0  0  0  0  0  0  0  0  0  0  0
   -1.5840   -1.1630    0.0000 C   0  0  0  0  0  0  0  0  0  0  0  0
   -2.2984   -2.4005    0.0000 C   0  0  0  0  0  0  0  0  0  0  0  0
   -2.2984    0.0745    0.0000 C   0  0  0  0  0  0  0  0  0  0  0  0
   -0.1550    1.3120    0.0000 C   0  0  0  0  0  0  0  0  0  0  0  0
    0.5594    0.8995    0.0000 C   0  0  0  0  0  0  0  0  0  0  0  0
    0.5594    0.0745    0.0000 C   0  0  0  0  0  0  0  0  0  0  0  0
   -0.1550   -0.3380    0.0000 C   0  0  0  0  0  0  0  0  0  0  0  0
    1.2739    1.3120    0.0000 O   0  0  0  0  0  0  0  0  0  0  0  0
    1.9884    0.8995    0.0000 C   0  0  0  0  0  0  0  0  0  0  0  0
    2.7028    1.3120    0.0000 C   0  0  0  0  0  0  0  0  0  0  0  0
    3.4173    0.8995    0.0000 C   0  0  0  0  0  0  0  0  0  0  0  0
    4.1318    1.3120    0.0000 C   0  0  0  0  0  0  0  0  0  0  0  0
    4.1318    2.1370    0.0000 C   0  0  0  0  0  0  0  0  0  0  0  0
    3.4173    2.5495    0.0000 C   0  0  0  0  0  0  0  0  0  0  0  0
    3.4173    3.3745    0.0000 Cl  0  0  0  0  0  0  0  0  0  0  0  0
    2.7028    2.1370    0.0000 C   0  0  0  0  0  0  0  0  0  0  0  0
   -3.1818   -1.0655    0.0000 H   0  0  0  0  0  0  0  0  0  0  0  0
   -0.6573   -1.6980    0.0000 H   0  0  0  0  0  0  0  0  0  0  0  0
   -1.5840   -2.2330    0.0000 H   0  0  0  0  0  0  0  0  0  0  0  0
   -3.2250   -2.9355    0.0000 H   0  0  0  0  0  0  0  0  0  0  0  0
   -1.3718   -2.9355    0.0000 H   0  0  0  0  0  0  0  0  0  0  0  0
   -2.2984   -3.4705    0.0000 H   0  0  0  0  0  0  0  0  0  0  0  0
   -3.1921   -0.4415    0.0000 H   0  0  0  0  0  0  0  0  0  0  0  0
   -0.1550    2.3440    0.0000 H   0  0  0  0  0  0  0  0  0  0  0  0
    1.4531   -0.4415    0.0000 H   0  0  0  0  0  0  0  0  0  0  0  0
   -0.1550   -1.3700    0.0000 H   0  0  0  0  0  0  0  0  0  0  0  0
    1.9884   -0.1705    0.0000 H   0  0  0  0  0  0  0  0  0  0  0  0
    2.9151    0.3645    0.0000 H   0  0  0  0  0  0  0  0  0  0  0  0
    3.4173   -0.1325    0.0000 H   0  0  0  0  0  0  0  0  0  0  0  0
    5.0255    0.7960    0.0000 H   0  0  0  0  0  0  0  0  0  0  0  0
    5.0255    2.6530    0.0000 H   0  0  0  0  0  0  0  0  0  0  0  0
    1.8091    2.6530    0.0000 H   0  0  0  0  0  0  0  0  0  0  0  0
  1  2  2  0  0  0  0
  2 10  1  0  0  0  0
  2  3  1  0  0  0  0
  3  4  1  0  0  0  0
  4 11  1  0  0  0  0
  4  5  2  0  0  0  0
  5 14  1  0  0  0  0
  5  6  1  0  0  0  0
  6  8  1  0  0  0  0
  6 10  2  0  0  0  0
  7  9  1  0  0  0  0
  7  8  1  0  0  0  0
  7 24  1  0  0  0  0
  8 25  1  0  0  0  0
  8 26  1  0  0  0  0
  9 27  1  0  0  0  0
  9 28  1  0  0  0  0
  9 29  1  0  0  0  0
 10 30  1  0  0  0  0
 11 12  2  0  0  0  0
 11 31  1  0  0  0  0
 12 15  1  0  0  0  0
 12 13  1  0  0  0  0
 13 14  2  0  0  0  0
 13 32  1  0  0  0  0
 14 33  1  0  0  0  0
 15 16  1  0  0  0  0
 16 17  1  0  0  0  0
 16 34  1  0  0  0  0
 16 35  1  0  0  0  0
 17 23  1  0  0  0  0
 17 18  2  0  0  0  0
 18 19  1  0  0  0  0
 18 36  1  0  0  0  0
 19 20  2  0  0  0  0
 19 37  1  0  0  0  0
 20 21  1  0  0  0  0
 20 38  1  0  0  0  0
 21 22  1  0  0  0  0
 21 23  2  0  0  0  0
 23 39  1  0  0  0  0
M  END
>  <DRUGBANK_ID>
DB07513

>  <COMMON_NAME>
7-[(3-CHLOROBENZYL)OXY]-4-[(METHYLAMINO)METHYL]-2H-CHROMEN-2-ONE

>  <UNII>
XT4DJB88UB

$$$$
