
 OpenBabel10282417072D

 48 52  0  0  1  0  0  0  0  0999 V2000
   -2.2557    2.1469    0.0000 C   0  0  3  0  0  0  0  0  0  0  0  0
   -1.5409    1.7344    0.0000 C   0  0  1  0  0  0  0  0  0  0  0  0
   -1.5409    0.9099    0.0000 C   0  0  2  0  0  0  0  0  0  0  0  0
   -2.2557    0.4976    0.0000 C   0  0  3  0  0  0  0  0  0  0  0  0
   -2.5959    1.0112    0.0000 C   0  0  0  0  0  0  0  0  0  0  0  0
   -2.5959    1.6320    0.0000 C   0  0  0  0  0  0  0  0  0  0  0  0
   -2.9704    0.9099    0.0000 C   0  0  0  0  0  0  0  0  0  0  0  0
   -2.9704    1.7344    0.0000 C   0  0  0  0  0  0  0  0  0  0  0  0
   -0.8263    0.4976    0.0000 N   0  0  0  0  0  0  0  0  0  0  0  0
   -0.8263   -0.3314    0.0000 C   0  0  0  0  0  0  0  0  0  0  0  0
   -0.1115   -0.7437    0.0000 N   0  0  0  0  0  0  0  0  0  0  0  0
   -0.1115   -1.5684    0.0000 C   0  0  0  0  0  0  0  0  0  0  0  0
   -0.8263   -1.9806    0.0000 N   0  0  0  0  0  0  0  0  0  0  0  0
   -1.5409   -1.5684    0.0000 C   0  0  0  0  0  0  0  0  0  0  0  0
   -1.5409   -0.7437    0.0000 C   0  0  0  0  0  0  0  0  0  0  0  0
   -2.2557   -0.3314    0.0000 F   0  0  0  0  0  0  0  0  0  0  0  0
    0.6031   -1.9806    0.0000 C   0  0  0  0  0  0  0  0  0  0  0  0
    0.6869   -2.8005    0.0000 C   0  0  0  0  0  0  0  0  0  0  0  0
    1.4966   -2.9715    0.0000 N   0  0  0  0  0  0  0  0  0  0  0  0
    1.9090   -2.2568    0.0000 C   0  0  0  0  0  0  0  0  0  0  0  0
    1.3555   -1.6421    0.0000 C   0  0  0  0  0  0  0  0  0  0  0  0
    1.6118   -0.8610    0.0000 C   0  0  0  0  0  0  0  0  0  0  0  0
    2.4172   -0.6899    0.0000 C   0  0  0  0  0  0  0  0  0  0  0  0
    2.9704   -1.3001    0.0000 C   0  0  0  0  0  0  0  0  0  0  0  0
    2.7141   -2.0858    0.0000 N   0  0  0  0  0  0  0  0  0  0  0  0
    2.6733    0.0956    0.0000 F   0  0  0  0  0  0  0  0  0  0  0  0
   -0.8263    2.1469    0.0000 C   0  0  0  0  0  0  0  0  0  0  0  0
   -0.8263    2.9715    0.0000 O   0  0  0  0  0  0  0  0  0  0  0  0
   -0.1115    1.7344    0.0000 O   0  0  0  0  0  0  0  0  0  0  0  0
   -2.0099    1.1055    0.0000 H   0  0  0  0  0  0  0  0  0  0  0  0
   -1.5410    2.8044    0.0000 H   0  0  0  0  0  0  0  0  0  0  0  0
   -0.6143    1.4450    0.0000 H   0  0  0  0  0  0  0  0  0  0  0  0
   -2.0104    1.5391    0.0000 H   0  0  0  0  0  0  0  0  0  0  0  0
   -3.6204    0.7027    0.0000 H   0  0  0  0  0  0  0  0  0  0  0  0
   -3.4547    1.6495    0.0000 H   0  0  0  0  0  0  0  0  0  0  0  0
   -3.6206    1.9400    0.0000 H   0  0  0  0  0  0  0  0  0  0  0  0
   -2.9603    2.6380    0.0000 H   0  0  0  0  0  0  0  0  0  0  0  0
   -3.8970    0.3747    0.0000 H   0  0  0  0  0  0  0  0  0  0  0  0
   -3.8971    1.4448    0.0000 H   0  0  0  0  0  0  0  0  0  0  0  0
   -3.8970    2.2695    0.0000 H   0  0  0  0  0  0  0  0  0  0  0  0
   -2.9703    2.8044    0.0000 H   0  0  0  0  0  0  0  0  0  0  0  0
    0.0262    0.9900    0.0000 H   0  0  0  0  0  0  0  0  0  0  0  0
   -2.4345   -2.0846    0.0000 H   0  0  0  0  0  0  0  0  0  0  0  0
   -0.0806   -3.4904    0.0000 H   0  0  0  0  0  0  0  0  0  0  0  0
    1.8977   -3.8706    0.0000 H   0  0  0  0  0  0  0  0  0  0  0  0
    0.9224   -0.0930    0.0000 H   0  0  0  0  0  0  0  0  0  0  0  0
    3.9796   -1.0844    0.0000 H   0  0  0  0  0  0  0  0  0  0  0  0
   -0.1113    0.7974    0.0000 H   0  0  0  0  0  0  0  0  0  0  0  0
  1  2  1  0  0  0  0
  1  6  1  0  0  0  0
  1  8  1  0  0  0  0
  1 30  1  0  0  0  0
  2  3  1  0  0  0  0
  2 27  1  0  0  0  0
  2 31  1  1  0  0  0
  3  4  1  0  0  0  0
  3  9  1  0  0  0  0
  3 32  1  6  0  0  0
  4  5  1  0  0  0  0
  4  7  1  0  0  0  0
  4 33  1  0  0  0  0
  5  6  1  0  0  0  0
  5 34  1  0  0  0  0
  5 35  1  0  0  0  0
  6 36  1  0  0  0  0
  6 37  1  0  0  0  0
  7 38  1  0  0  0  0
  7 39  1  0  0  0  0
  8  7  1  0  0  0  0
  8 40  1  0  0  0  0
  8 41  1  0  0  0  0
  9 10  1  0  0  0  0
  9 42  1  0  0  0  0
 10 15  1  0  0  0  0
 11 10  2  0  0  0  0
 12 11  1  0  0  0  0
 12 13  2  0  0  0  0
 12 17  1  0  0  0  0
 14 13  1  0  0  0  0
 14 43  1  0  0  0  0
 15 14  2  0  0  0  0
 15 16  1  0  0  0  0
 17 18  2  0  0  0  0
 18 44  1  0  0  0  0
 19 18  1  0  0  0  0
 19 45  1  0  0  0  0
 20 19  1  0  0  0  0
 20 21  1  0  0  0  0
 20 25  2  0  0  0  0
 21 22  2  0  0  0  0
 21 17  1  0  0  0  0
 22 23  1  0  0  0  0
 22 46  1  0  0  0  0
 23 24  2  0  0  0  0
 23 26  1  0  0  0  0
 24 25  1  0  0  0  0
 24 47  1  0  0  0  0
 27 28  2  0  0  0  0
 27 29  1  0  0  0  0
 29 48  1  0  0  0  0
M  END
>  <DRUGBANK_ID>
DB14974

>  <COMMON_NAME>
Pimodivir

>  <CAS_NUMBER>
1629869-44-8

>  <UNII>
DFC121MXC3

>  <SYNONYMS>
JNJ-63623872; Pimodivir

$$$$
