
 OpenBabel10282417072D

 44 47  0  0  0  0  0  0  0  0999 V2000
   -1.6491    3.2577    0.0000 C   0  0  0  0  0  0  0  0  0  0  0  0
    3.9934    0.8250    0.0000 C   0  0  0  0  0  0  0  0  0  0  0  0
   -1.6491    2.4327    0.0000 C   0  0  0  0  0  0  0  0  0  0  0  0
    3.2789    1.2375    0.0000 C   0  0  0  0  0  0  0  0  0  0  0  0
   -0.2201    3.2577    0.0000 C   0  0  0  0  0  0  0  0  0  0  0  0
    3.2789   -0.4125    0.0000 C   0  0  0  0  0  0  0  0  0  0  0  0
    0.4699    0.4125    0.0000 C   0  0  0  0  0  0  0  0  0  0  0  0
   -0.9346    3.6702    0.0000 C   0  0  0  0  0  0  0  0  0  0  0  0
    3.9934    0.0000    0.0000 C   0  0  0  0  0  0  0  0  0  0  0  0
   -0.9346    2.0202    0.0000 C   0  0  0  0  0  0  0  0  0  0  0  0
    2.5645    0.8250    0.0000 C   0  0  0  0  0  0  0  0  0  0  0  0
   -0.2201    2.4327    0.0000 C   0  0  0  0  0  0  0  0  0  0  0  0
    2.5645    0.0000    0.0000 C   0  0  0  0  0  0  0  0  0  0  0  0
    0.0574    1.1270    0.0000 C   0  0  0  0  0  0  0  0  0  0  0  0
    1.2949    0.4125    0.0000 C   0  0  0  0  0  0  0  0  0  0  0  0
   -0.9346    4.4952    0.0000 C   0  0  0  0  0  0  0  0  0  0  0  0
    4.7079   -0.4125    0.0000 C   0  0  0  0  0  0  0  0  0  0  0  0
   -1.6491    4.9077    0.0000 N   0  3  0  0  0  0  0  0  0  0  0  0
   -0.2201    4.9077    0.0000 N   0  3  0  0  0  0  0  0  0  0  0  0
    5.4223   -0.0000    0.0000 N   0  3  0  0  0  0  0  0  0  0  0  0
    4.7079   -1.2375    0.0000 N   0  0  0  0  0  0  0  0  0  0  0  0
   -0.7631    1.2132    0.0000 N   0  0  0  0  0  0  0  0  0  0  0  0
    1.7798    1.0799    0.0000 N   0  0  0  0  0  0  0  0  0  0  0  0
    0.3930    1.8806    0.0000 N   0  0  0  0  0  0  0  0  0  0  0  0
    1.7798   -0.2549    0.0000 N   0  0  0  0  0  0  0  0  0  0  0  0
   -2.5428    3.7737    0.0000 H   0  0  0  0  0  0  0  0  0  0  0  0
    4.8871    1.3410    0.0000 H   0  0  0  0  0  0  0  0  0  0  0  0
   -2.5428    1.9167    0.0000 H   0  0  0  0  0  0  0  0  0  0  0  0
    3.2789    2.2695    0.0000 H   0  0  0  0  0  0  0  0  0  0  0  0
    0.6736    3.7737    0.0000 H   0  0  0  0  0  0  0  0  0  0  0  0
    3.2789   -1.4445    0.0000 H   0  0  0  0  0  0  0  0  0  0  0  0
   -0.0651   -0.5141    0.0000 H   0  0  0  0  0  0  0  0  0  0  0  0
    1.0049   -0.5141    0.0000 H   0  0  0  0  0  0  0  0  0  0  0  0
   -1.6491    5.8922    0.0000 H   0  0  0  0  0  0  0  0  0  0  0  0
   -2.5017    4.4154    0.0000 H   0  0  0  0  0  0  0  0  0  0  0  0
    0.6325    4.4154    0.0000 H   0  0  0  0  0  0  0  0  0  0  0  0
   -0.2201    5.8922    0.0000 H   0  0  0  0  0  0  0  0  0  0  0  0
    0.6325    5.3999    0.0000 H   0  0  0  0  0  0  0  0  0  0  0  0
    6.2749   -0.4922    0.0000 H   0  0  0  0  0  0  0  0  0  0  0  0
    5.4223    0.9845    0.0000 H   0  0  0  0  0  0  0  0  0  0  0  0
    3.8553   -1.7298    0.0000 H   0  0  0  0  0  0  0  0  0  0  0  0
    5.5605   -1.7297    0.0000 H   0  0  0  0  0  0  0  0  0  0  0  0
    1.3560    2.0852    0.0000 H   0  0  0  0  0  0  0  0  0  0  0  0
    1.4755   -1.1912    0.0000 H   0  0  0  0  0  0  0  0  0  0  0  0
  1 26  1  0  0  0  0
  2 27  1  0  0  0  0
  3  1  2  0  0  0  0
  3 28  1  0  0  0  0
  4  2  2  0  0  0  0
  4 29  1  0  0  0  0
  5 30  1  0  0  0  0
  6 31  1  0  0  0  0
  7 32  1  0  0  0  0
  7 33  1  0  0  0  0
  8  1  1  0  0  0  0
  8  5  2  0  0  0  0
  9  2  1  0  0  0  0
  9  6  2  0  0  0  0
 10  3  1  0  0  0  0
 11  4  1  0  0  0  0
 12  5  1  0  0  0  0
 12 10  2  0  0  0  0
 13  6  1  0  0  0  0
 13 11  2  0  0  0  0
 14  7  1  0  0  0  0
 15  7  1  0  0  0  0
 16  8  1  0  0  0  0
 17  9  1  0  0  0  0
 18 16  2  0  0  0  0
 18 34  1  0  0  0  0
 18 35  1  0  0  0  0
 19 16  1  0  0  0  0
 19 36  1  0  0  0  0
 19 37  1  0  0  0  0
 19 38  1  0  0  0  0
 20 17  2  0  0  0  0
 20 39  1  0  0  0  0
 20 40  1  0  0  0  0
 21 17  1  0  0  0  0
 21 41  1  0  0  0  0
 21 42  1  0  0  0  0
 22 10  1  0  0  0  0
 22 14  2  0  0  0  0
 23 11  1  0  0  0  0
 23 15  2  0  0  0  0
 24 12  1  0  0  0  0
 24 14  1  0  0  0  0
 24 43  1  0  0  0  0
 25 13  1  0  0  0  0
 25 15  1  0  0  0  0
 25 44  1  0  0  0  0
M  CHG  3  18   1  19   1  20   1
M  END
>  <DRUGBANK_ID>
DB01705

>  <SECONDARY_ACCESSION_NUMBERS>
EXPT00620

>  <COMMON_NAME>
Bis(5-Amidino-Benzimidazolyl)Methane

$$$$
