
 OpenBabel10282417072D

 69 69  0  0  0  0  0  0  0  0999 V2000
   -1.7871   -0.4114    0.0000 C   0  0  1  0  0  0  0  0  0  0  0  0
   -1.0727    0.0000    0.0000 C   0  0  1  0  0  0  0  0  0  0  0  0
   -0.3562   -0.4114    0.0000 C   0  0  0  0  0  0  0  0  0  0  0  0
    0.3581    0.0000    0.0000 O   0  0  0  0  0  0  0  0  0  0  0  0
   -1.0727    0.8250    0.0000 O   0  0  0  0  0  0  0  0  0  0  0  0
   -1.7871   -1.2364    0.0000 O   0  0  0  0  0  0  0  0  0  0  0  0
   -1.0727   -1.6499    0.0000 C   0  0  0  0  0  0  0  0  0  0  0  0
   -2.5015    0.0000    0.0000 C   0  0  1  0  0  0  0  0  0  0  0  0
   -3.2139   -0.4114    0.0000 C   0  0  2  0  0  0  0  0  0  0  0  0
   -3.2139   -1.2364    0.0000 N   0  0  0  0  0  0  0  0  0  0  0  0
   -3.9285   -1.6499    0.0000 C   0  0  0  0  0  0  0  0  0  0  0  0
   -4.6430   -1.2364    0.0000 C   0  0  0  0  0  0  0  0  0  0  0  0
   -3.9285   -2.4749    0.0000 O   0  0  0  0  0  0  0  0  0  0  0  0
   -3.9306    0.0000    0.0000 C   0  0  1  0  0  0  0  0  0  0  0  0
   -4.6450   -0.4114    0.0000 N   0  0  0  0  0  0  0  0  0  0  0  0
   -5.3594    0.0000    0.0000 C   0  0  0  0  0  0  0  0  0  0  0  0
   -5.3594    0.8250    0.0000 N   0  0  0  0  0  0  0  0  0  0  0  0
   -6.0738   -0.4114    0.0000 N   0  0  0  0  0  0  0  0  0  0  0  0
   -3.9306    0.8250    0.0000 C   0  0  0  0  0  0  0  0  0  0  0  0
   -3.2139    1.2385    0.0000 C   0  0  0  0  0  0  0  0  0  0  0  0
   -2.5015    0.8250    0.0000 O   0  0  0  0  0  0  0  0  0  0  0  0
   -3.2139    2.0635    0.0000 C   0  0  0  0  0  0  0  0  0  0  0  0
   -3.9285    2.4749    0.0000 O   0  0  0  0  0  0  0  0  0  0  0  0
   -2.4995    2.4749    0.0000 O   0  0  0  0  0  0  0  0  0  0  0  0
   -2.5015   -0.8249    0.0000 H   0  0  0  0  0  0  0  0  0  0  0  0
    1.0722   -0.4132    0.0000 C   0  0  0  0  0  0  0  0  0  0  0  0
    1.7870   -0.0015    0.0000 C   0  0  0  0  0  0  0  0  0  0  0  0
    1.0713   -1.2382    0.0000 O   0  0  0  0  0  0  0  0  0  0  0  0
    2.5010   -0.4147    0.0000 C   0  0  0  0  0  0  0  0  0  0  0  0
    3.2160   -0.0030    0.0000 C   0  0  0  0  0  0  0  0  0  0  0  0
    3.9300   -0.4163    0.0000 C   0  0  0  0  0  0  0  0  0  0  0  0
    4.6450   -0.0045    0.0000 C   0  0  0  0  0  0  0  0  0  0  0  0
    5.3589   -0.4178    0.0000 C   0  0  0  0  0  0  0  0  0  0  0  0
    6.0738   -0.0061    0.0000 C   0  0  0  0  0  0  0  0  0  0  0  0
   -0.8608   -0.9469    0.0000 H   0  0  0  0  0  0  0  0  0  0  0  0
   -1.9990    0.5355    0.0000 H   0  0  0  0  0  0  0  0  0  0  0  0
   -0.3555   -1.4814    0.0000 H   0  0  0  0  0  0  0  0  0  0  0  0
    0.5703   -0.9466    0.0000 H   0  0  0  0  0  0  0  0  0  0  0  0
   -0.2327    1.3100    0.0000 H   0  0  0  0  0  0  0  0  0  0  0  0
   -1.0739   -2.7199    0.0000 H   0  0  0  0  0  0  0  0  0  0  0  0
   -0.1455   -1.1159    0.0000 H   0  0  0  0  0  0  0  0  0  0  0  0
   -0.1466   -2.1859    0.0000 H   0  0  0  0  0  0  0  0  0  0  0  0
   -2.2872   -0.9464    0.0000 H   0  0  0  0  0  0  0  0  0  0  0  0
   -2.3611   -1.7282    0.0000 H   0  0  0  0  0  0  0  0  0  0  0  0
   -4.6419   -0.1664    0.0000 H   0  0  0  0  0  0  0  0  0  0  0  0
   -5.5702   -1.7704    0.0000 H   0  0  0  0  0  0  0  0  0  0  0  0
   -5.5691   -0.7004    0.0000 H   0  0  0  0  0  0  0  0  0  0  0  0
   -3.9299   -1.0700    0.0000 H   0  0  0  0  0  0  0  0  0  0  0  0
   -4.6450   -1.3959    0.0000 H   0  0  0  0  0  0  0  0  0  0  0  0
   -4.5068    1.3173    0.0000 H   0  0  0  0  0  0  0  0  0  0  0  0
   -6.9259    0.0818    0.0000 H   0  0  0  0  0  0  0  0  0  0  0  0
   -6.0749   -1.3959    0.0000 H   0  0  0  0  0  0  0  0  0  0  0  0
   -4.8243    1.3411    0.0000 H   0  0  0  0  0  0  0  0  0  0  0  0
   -3.9297    3.4119    0.0000 H   0  0  0  0  0  0  0  0  0  0  0  0
    1.7881    1.0685    0.0000 H   0  0  0  0  0  0  0  0  0  0  0  0
    2.7142    0.5325    0.0000 H   0  0  0  0  0  0  0  0  0  0  0  0
    2.4998   -1.4847    0.0000 H   0  0  0  0  0  0  0  0  0  0  0  0
    3.4270   -0.9507    0.0000 H   0  0  0  0  0  0  0  0  0  0  0  0
    3.2172    1.0670    0.0000 H   0  0  0  0  0  0  0  0  0  0  0  0
    4.1433    0.5309    0.0000 H   0  0  0  0  0  0  0  0  0  0  0  0
    3.9288   -1.4863    0.0000 H   0  0  0  0  0  0  0  0  0  0  0  0
    4.8561   -0.9523    0.0000 H   0  0  0  0  0  0  0  0  0  0  0  0
    4.6462    1.0655    0.0000 H   0  0  0  0  0  0  0  0  0  0  0  0
    5.5723    0.5294    0.0000 H   0  0  0  0  0  0  0  0  0  0  0  0
    5.3577   -1.4878    0.0000 H   0  0  0  0  0  0  0  0  0  0  0  0
    6.2849   -0.9538    0.0000 H   0  0  0  0  0  0  0  0  0  0  0  0
    6.9999   -0.5421    0.0000 H   0  0  0  0  0  0  0  0  0  0  0  0
    6.0750    1.0639    0.0000 H   0  0  0  0  0  0  0  0  0  0  0  0
    7.0010    0.5279    0.0000 H   0  0  0  0  0  0  0  0  0  0  0  0
  1  2  1  0  0  0  0
  1  6  1  0  0  0  0
  1 35  1  6  0  0  0
  2  3  1  0  0  0  0
  2  5  1  0  0  0  0
  2 36  1  1  0  0  0
  3  4  1  0  0  0  0
  3 37  1  0  0  0  0
  3 38  1  0  0  0  0
  4 26  1  0  0  0  0
  5 39  1  0  0  0  0
  6  7  1  0  0  0  0
  7 40  1  0  0  0  0
  7 41  1  0  0  0  0
  7 42  1  0  0  0  0
  8  1  1  0  0  0  0
  8 21  1  0  0  0  0
  8 25  1  6  0  0  0
  9  8  1  0  0  0  0
  9 10  1  0  0  0  0
  9 43  1  1  0  0  0
 10 11  1  0  0  0  0
 10 44  1  0  0  0  0
 11 12  1  0  0  0  0
 11 13  2  0  0  0  0
 12 45  1  0  0  0  0
 12 46  1  0  0  0  0
 12 47  1  0  0  0  0
 14  9  1  0  0  0  0
 14 15  1  0  0  0  0
 14 19  1  0  0  0  0
 14 48  1  6  0  0  0
 15 16  1  0  0  0  0
 15 49  1  0  0  0  0
 16 17  2  0  0  0  0
 16 18  1  0  0  0  0
 17 50  1  0  0  0  0
 18 51  1  0  0  0  0
 18 52  1  0  0  0  0
 19 53  1  0  0  0  0
 20 19  2  0  0  0  0
 20 22  1  0  0  0  0
 21 20  1  0  0  0  0
 22 23  1  0  0  0  0
 22 24  2  0  0  0  0
 23 54  1  0  0  0  0
 26 27  1  0  0  0  0
 26 28  2  0  0  0  0
 27 29  1  0  0  0  0
 27 55  1  0  0  0  0
 27 56  1  0  0  0  0
 29 30  1  0  0  0  0
 29 57  1  0  0  0  0
 29 58  1  0  0  0  0
 30 31  1  0  0  0  0
 30 59  1  0  0  0  0
 30 60  1  0  0  0  0
 31 32  1  0  0  0  0
 31 61  1  0  0  0  0
 31 62  1  0  0  0  0
 32 33  1  0  0  0  0
 32 63  1  0  0  0  0
 32 64  1  0  0  0  0
 33 34  1  0  0  0  0
 33 65  1  0  0  0  0
 33 66  1  0  0  0  0
 34 67  1  0  0  0  0
 34 68  1  0  0  0  0
 34 69  1  0  0  0  0
M  END
>  <DRUGBANK_ID>
DB11888

>  <COMMON_NAME>
Laninamivir octanoate

>  <CAS_NUMBER>
203120-46-1

>  <UNII>
E026V904RL

$$$$
