D2G
 OpenBabel10282417072D

 26 27  0  0  0  0  0  0  0  0999 V2000
    0.8523    1.1018    0.0000 C   0  0  0  0  0  0  0  0  0  0  0  0
    0.1378    1.5143    0.0000 C   0  0  0  0  0  0  0  0  0  0  0  0
    0.1378    2.3393    0.0000 C   0  0  0  0  0  0  0  0  0  0  0  0
    0.8523    2.7518    0.0000 C   0  0  0  0  0  0  0  0  0  0  0  0
    1.5667    2.3393    0.0000 N   0  0  0  0  0  0  0  0  0  0  0  0
    1.5667    1.5143    0.0000 C   0  0  0  0  0  0  0  0  0  0  0  0
    0.8523    0.2768    0.0000 C   0  0  0  0  0  0  0  0  0  0  0  0
    1.5197   -0.2081    0.0000 C   0  0  0  0  0  0  0  0  0  0  0  0
    1.2648   -0.9927    0.0000 C   0  0  0  0  0  0  0  0  0  0  0  0
    0.4398   -0.9927    0.0000 C   0  0  0  0  0  0  0  0  0  0  0  0
    0.1848   -0.2081    0.0000 O   0  0  0  0  0  0  0  0  0  0  0  0
   -0.0452   -1.6602    0.0000 C   0  0  0  0  0  0  0  0  0  0  0  0
   -0.8656   -1.5739    0.0000 N   0  0  0  0  0  0  0  0  0  0  0  0
   -1.3506   -2.2414    0.0000 C   0  0  0  0  0  0  0  0  0  0  0  0
   -0.7559    0.9983    0.0000 H   0  0  0  0  0  0  0  0  0  0  0  0
   -0.7559    2.8553    0.0000 H   0  0  0  0  0  0  0  0  0  0  0  0
    0.8523    3.7838    0.0000 H   0  0  0  0  0  0  0  0  0  0  0  0
    2.4604    0.9983    0.0000 H   0  0  0  0  0  0  0  0  0  0  0  0
    2.5012    0.1108    0.0000 H   0  0  0  0  0  0  0  0  0  0  0  0
    1.8714   -1.8276    0.0000 H   0  0  0  0  0  0  0  0  0  0  0  0
    0.3899   -2.6377    0.0000 H   0  0  0  0  0  0  0  0  0  0  0  0
   -0.6742   -2.5258    0.0000 H   0  0  0  0  0  0  0  0  0  0  0  0
   -1.2804   -0.6421    0.0000 H   0  0  0  0  0  0  0  0  0  0  0  0
   -2.4147   -2.1295    0.0000 H   0  0  0  0  0  0  0  0  0  0  0  0
   -0.9154   -3.2189    0.0000 H   0  0  0  0  0  0  0  0  0  0  0  0
   -1.9796   -3.1070    0.0000 H   0  0  0  0  0  0  0  0  0  0  0  0
  1  2  2  0  0  0  0
  1  6  1  0  0  0  0
  1  7  1  0  0  0  0
  2  3  1  0  0  0  0
  2 15  1  0  0  0  0
  3  4  2  0  0  0  0
  3 16  1  0  0  0  0
  4  5  1  0  0  0  0
  4 17  1  0  0  0  0
  5  6  2  0  0  0  0
  6 18  1  0  0  0  0
  7  8  2  0  0  0  0
  7 11  1  0  0  0  0
  8  9  1  0  0  0  0
  8 19  1  0  0  0  0
  9 10  2  0  0  0  0
  9 20  1  0  0  0  0
 10 11  1  0  0  0  0
 10 12  1  0  0  0  0
 12 13  1  0  0  0  0
 12 21  1  0  0  0  0
 12 22  1  0  0  0  0
 13 14  1  0  0  0  0
 13 23  1  0  0  0  0
 14 24  1  0  0  0  0
 14 25  1  0  0  0  0
 14 26  1  0  0  0  0
M  END
>  <DRUGBANK_ID>
DB07617

>  <COMMON_NAME>
N-METHYL(5-(PYRIDIN-3-YL)FURAN-2-YL)METHANAMINE

>  <UNII>
9H3XGZ5L94

$$$$
