541
 OpenBabel10282417072D

 59 62  0  0  0  0  0  0  0  0999 V2000
   -2.2627    4.1978    0.0000 C   0  0  0  0  0  0  0  0  0  0  0  0
   -2.9772    3.7853    0.0000 C   0  0  0  0  0  0  0  0  0  0  0  0
   -2.9772    2.9603    0.0000 C   0  0  0  0  0  0  0  0  0  0  0  0
   -2.2627    2.5478    0.0000 C   0  0  0  0  0  0  0  0  0  0  0  0
   -1.5483    2.9603    0.0000 C   0  0  0  0  0  0  0  0  0  0  0  0
   -1.5483    3.7853    0.0000 C   0  0  0  0  0  0  0  0  0  0  0  0
   -0.8338    4.1978    0.0000 N   0  0  0  0  0  0  0  0  0  0  0  0
    0.5951    4.1978    0.0000 C   0  0  0  0  0  0  0  0  0  0  0  0
   -0.1193    3.7853    0.0000 C   0  0  0  0  0  0  0  0  0  0  0  0
   -0.1193    2.9603    0.0000 C   0  0  0  0  0  0  0  0  0  0  0  0
   -0.8338    2.5478    0.0000 C   0  0  0  0  0  0  0  0  0  0  0  0
   -0.8338    1.7228    0.0000 C   0  0  0  0  0  0  0  0  0  0  0  0
   -0.1193    0.4853    0.0000 C   0  0  0  0  0  0  0  0  0  0  0  0
   -0.1193    1.3103    0.0000 O   0  0  0  0  0  0  0  0  0  0  0  0
    0.5951    0.0728    0.0000 C   0  0  0  0  0  0  0  0  0  0  0  0
    0.5951   -0.7522    0.0000 C   0  0  0  0  0  0  0  0  0  0  0  0
   -0.1193   -1.1647    0.0000 C   0  0  0  0  0  0  0  0  0  0  0  0
   -0.8338   -0.7522    0.0000 C   0  0  0  0  0  0  0  0  0  0  0  0
   -0.8338    0.0728    0.0000 C   0  0  0  0  0  0  0  0  0  0  0  0
   -0.2909   -2.7967    0.0000 C   0  0  0  0  0  0  0  0  0  0  0  0
   -0.1193   -1.9897    0.0000 C   0  0  1  0  0  0  0  0  0  0  0  0
   -0.9398   -1.9035    0.0000 C   0  0  0  0  0  0  0  0  0  0  0  0
    0.7011   -1.9035    0.0000 C   0  0  0  0  0  0  0  0  0  0  0  0
    1.1136   -1.1890    0.0000 O   0  0  0  0  0  0  0  0  0  0  0  0
    0.4236   -3.2092    0.0000 C   0  0  0  0  0  0  0  0  0  0  0  0
    1.8437   -2.8287    0.0000 C   0  0  1  0  0  0  0  0  0  0  0  0
    2.3957   -2.2156    0.0000 C   0  0  0  0  0  0  0  0  0  0  0  0
    3.2027   -2.3871    0.0000 N   0  0  0  0  0  0  0  0  0  0  0  0
    3.4576   -3.1717    0.0000 O   0  0  0  0  0  0  0  0  0  0  0  0
    2.1408   -1.4310    0.0000 O   0  0  0  0  0  0  0  0  0  0  0  0
    2.0986   -3.6133    0.0000 C   0  0  0  0  0  0  0  0  0  0  0  0
    1.0367   -2.6571    0.0000 N   0  0  0  0  0  0  0  0  0  0  0  0
    2.4148   -2.9501    0.0000 H   0  0  0  0  0  0  0  0  0  0  0  0
   -2.2627    5.2298    0.0000 H   0  0  0  0  0  0  0  0  0  0  0  0
   -3.8709    4.3013    0.0000 H   0  0  0  0  0  0  0  0  0  0  0  0
   -3.8709    2.4443    0.0000 H   0  0  0  0  0  0  0  0  0  0  0  0
   -2.2627    1.5158    0.0000 H   0  0  0  0  0  0  0  0  0  0  0  0
    1.5218    3.6628    0.0000 H   0  0  0  0  0  0  0  0  0  0  0  0
    0.5951    5.2678    0.0000 H   0  0  0  0  0  0  0  0  0  0  0  0
    1.5217    4.7328    0.0000 H   0  0  0  0  0  0  0  0  0  0  0  0
    0.7744    2.4443    0.0000 H   0  0  0  0  0  0  0  0  0  0  0  0
   -1.7604    1.1878    0.0000 H   0  0  0  0  0  0  0  0  0  0  0  0
   -0.8338    0.6528    0.0000 H   0  0  0  0  0  0  0  0  0  0  0  0
    1.4888    0.5888    0.0000 H   0  0  0  0  0  0  0  0  0  0  0  0
    1.4888   -1.2682    0.0000 H   0  0  0  0  0  0  0  0  0  0  0  0
   -1.7275   -1.2682    0.0000 H   0  0  0  0  0  0  0  0  0  0  0  0
   -1.7275    0.5888    0.0000 H   0  0  0  0  0  0  0  0  0  0  0  0
   -1.2684   -3.2319    0.0000 H   0  0  0  0  0  0  0  0  0  0  0  0
   -0.3469   -3.8652    0.0000 H   0  0  0  0  0  0  0  0  0  0  0  0
   -1.3751   -0.9260    0.0000 H   0  0  0  0  0  0  0  0  0  0  0  0
   -1.5687   -2.7692    0.0000 H   0  0  0  0  0  0  0  0  0  0  0  0
   -2.0039   -1.7917    0.0000 H   0  0  0  0  0  0  0  0  0  0  0  0
    0.5355   -4.2733    0.0000 H   0  0  0  0  0  0  0  0  0  0  0  0
    1.4225   -3.5926    0.0000 H   0  0  0  0  0  0  0  0  0  0  0  0
    3.8615   -1.6555    0.0000 H   0  0  0  0  0  0  0  0  0  0  0  0
    2.8085   -3.8925    0.0000 H   0  0  0  0  0  0  0  0  0  0  0  0
    1.3826   -4.4084    0.0000 H   0  0  0  0  0  0  0  0  0  0  0  0
    3.1452   -3.8358    0.0000 H   0  0  0  0  0  0  0  0  0  0  0  0
    2.4292   -4.6309    0.0000 H   0  0  0  0  0  0  0  0  0  0  0  0
  1  2  1  0  0  0  0
  1  6  2  0  0  0  0
  1 34  1  0  0  0  0
  2  3  2  0  0  0  0
  2 35  1  0  0  0  0
  3  4  1  0  0  0  0
  3 36  1  0  0  0  0
  4  5  2  0  0  0  0
  4 37  1  0  0  0  0
  5  6  1  0  0  0  0
  5 11  1  0  0  0  0
  6  7  1  0  0  0  0
  7  9  2  0  0  0  0
  8  9  1  0  0  0  0
  8 38  1  0  0  0  0
  8 39  1  0  0  0  0
  8 40  1  0  0  0  0
  9 10  1  0  0  0  0
 10 11  2  0  0  0  0
 10 41  1  0  0  0  0
 11 12  1  0  0  0  0
 12 14  1  0  0  0  0
 12 42  1  0  0  0  0
 12 43  1  0  0  0  0
 13 14  1  0  0  0  0
 13 15  1  0  0  0  0
 13 19  2  0  0  0  0
 15 16  2  0  0  0  0
 15 44  1  0  0  0  0
 16 17  1  0  0  0  0
 16 45  1  0  0  0  0
 17 18  2  0  0  0  0
 18 19  1  0  0  0  0
 18 46  1  0  0  0  0
 19 47  1  0  0  0  0
 20 21  1  0  0  0  0
 20 25  1  0  0  0  0
 20 48  1  0  0  0  0
 20 49  1  0  0  0  0
 21 17  1  0  0  0  0
 21 22  1  6  0  0  0
 21 23  1  0  0  0  0
 22 50  1  0  0  0  0
 22 51  1  0  0  0  0
 22 52  1  0  0  0  0
 23 24  2  0  0  0  0
 23 32  1  0  0  0  0
 25 32  1  0  0  0  0
 25 53  1  0  0  0  0
 25 54  1  0  0  0  0
 26 27  1  0  0  0  0
 26 31  1  0  0  0  0
 26 32  1  0  0  0  0
 26 33  1  6  0  0  0
 27 28  1  0  0  0  0
 27 30  2  0  0  0  0
 28 29  1  0  0  0  0
 28 55  1  0  0  0  0
 29 56  1  0  0  0  0
 31 57  1  0  0  0  0
 31 58  1  0  0  0  0
 31 59  1  0  0  0  0
M  END
>  <DRUGBANK_ID>
DB07145

>  <COMMON_NAME>
(2R)-N-HYDROXY-2-[(3S)-3-METHYL-3-{4-[(2-METHYLQUINOLIN-4-YL)METHOXY]PHENYL}-2-OXOPYRROLIDIN-1-YL]PROPANAMIDE

$$$$
