N41
 OpenBabel10282417072D

 49 52  0  0  0  0  0  0  0  0999 V2000
    1.0930    0.8481    0.0000 C   0  0  0  0  0  0  0  0  0  0  0  0
   -0.3360   -1.6269    0.0000 C   0  0  0  0  0  0  0  0  0  0  0  0
   -0.3360   -2.4519    0.0000 C   0  0  0  0  0  0  0  0  0  0  0  0
    0.3785   -2.8644    0.0000 C   0  0  0  0  0  0  0  0  0  0  0  0
    0.3785   -3.6894    0.0000 C   0  0  0  0  0  0  0  0  0  0  0  0
   -0.3360   -4.1019    0.0000 C   0  0  0  0  0  0  0  0  0  0  0  0
   -1.0504   -3.6894    0.0000 C   0  0  0  0  0  0  0  0  0  0  0  0
   -1.0504   -2.8644    0.0000 C   0  0  0  0  0  0  0  0  0  0  0  0
    1.0930    3.3231    0.0000 C   0  0  0  0  0  0  0  0  0  0  0  0
    1.8074    3.7356    0.0000 C   0  0  0  0  0  0  0  0  0  0  0  0
    2.5219    3.3231    0.0000 C   0  0  0  0  0  0  0  0  0  0  0  0
    2.5219    2.4981    0.0000 C   0  0  0  0  0  0  0  0  0  0  0  0
    1.0930    4.9731    0.0000 N   0  0  0  0  0  0  0  0  0  0  0  0
    1.0930    0.0231    0.0000 N   0  0  0  0  0  0  0  0  0  0  0  0
    0.3785   -0.3894    0.0000 C   0  0  0  0  0  0  0  0  0  0  0  0
    0.3785   -1.2144    0.0000 O   0  0  0  0  0  0  0  0  0  0  0  0
   -0.3360    0.0231    0.0000 C   0  0  0  0  0  0  0  0  0  0  0  0
   -1.1206   -0.2319    0.0000 N   0  0  0  0  0  0  0  0  0  0  0  0
   -1.1206    1.1030    0.0000 N   0  0  0  0  0  0  0  0  0  0  0  0
   -0.3360    0.8481    0.0000 C   0  0  0  0  0  0  0  0  0  0  0  0
    0.3785    1.2606    0.0000 N   0  0  0  0  0  0  0  0  0  0  0  0
    1.8074    1.2606    0.0000 N   0  0  0  0  0  0  0  0  0  0  0  0
    1.8074    2.0856    0.0000 C   0  0  0  0  0  0  0  0  0  0  0  0
    1.0930    2.4981    0.0000 C   0  0  0  0  0  0  0  0  0  0  0  0
    1.8074    4.5606    0.0000 C   0  0  0  0  0  0  0  0  0  0  0  0
   -1.6055    0.4356    0.0000 C   0  0  0  0  0  0  0  0  0  0  0  0
    2.5219    4.9731    0.0000 O   0  0  0  0  0  0  0  0  0  0  0  0
   -1.2626   -1.0919    0.0000 H   0  0  0  0  0  0  0  0  0  0  0  0
   -0.3360   -0.5569    0.0000 H   0  0  0  0  0  0  0  0  0  0  0  0
   -0.3360   -3.5219    0.0000 H   0  0  0  0  0  0  0  0  0  0  0  0
    1.3051   -2.3294    0.0000 H   0  0  0  0  0  0  0  0  0  0  0  0
    1.3051   -3.3994    0.0000 H   0  0  0  0  0  0  0  0  0  0  0  0
    1.3051   -4.2244    0.0000 H   0  0  0  0  0  0  0  0  0  0  0  0
    0.3785   -4.7594    0.0000 H   0  0  0  0  0  0  0  0  0  0  0  0
   -0.3360   -5.1719    0.0000 H   0  0  0  0  0  0  0  0  0  0  0  0
   -1.2627   -4.6369    0.0000 H   0  0  0  0  0  0  0  0  0  0  0  0
   -1.9771   -4.2244    0.0000 H   0  0  0  0  0  0  0  0  0  0  0  0
   -1.9770   -3.1544    0.0000 H   0  0  0  0  0  0  0  0  0  0  0  0
   -1.9771   -2.3294    0.0000 H   0  0  0  0  0  0  0  0  0  0  0  0
   -1.9770   -3.3994    0.0000 H   0  0  0  0  0  0  0  0  0  0  0  0
    0.1993    3.8391    0.0000 H   0  0  0  0  0  0  0  0  0  0  0  0
    3.4156    3.8391    0.0000 H   0  0  0  0  0  0  0  0  0  0  0  0
    3.4156    1.9821    0.0000 H   0  0  0  0  0  0  0  0  0  0  0  0
    1.0930    5.9576    0.0000 H   0  0  0  0  0  0  0  0  0  0  0  0
    0.2404    4.4809    0.0000 H   0  0  0  0  0  0  0  0  0  0  0  0
   -1.4248    2.0393    0.0000 H   0  0  0  0  0  0  0  0  0  0  0  0
    2.6600    0.7684    0.0000 H   0  0  0  0  0  0  0  0  0  0  0  0
    0.1993    1.9821    0.0000 H   0  0  0  0  0  0  0  0  0  0  0  0
   -2.6375    0.4356    0.0000 H   0  0  0  0  0  0  0  0  0  0  0  0
  1 14  2  0  0  0  0
  1 21  1  0  0  0  0
  1 22  1  0  0  0  0
  2  3  1  0  0  0  0
  2 16  1  0  0  0  0
  2 28  1  0  0  0  0
  2 29  1  0  0  0  0
  3  4  1  0  0  0  0
  3  8  1  0  0  0  0
  3 30  1  0  0  0  0
  4  5  1  0  0  0  0
  4 31  1  0  0  0  0
  4 32  1  0  0  0  0
  5  6  1  0  0  0  0
  5 33  1  0  0  0  0
  5 34  1  0  0  0  0
  6  7  1  0  0  0  0
  6 35  1  0  0  0  0
  6 36  1  0  0  0  0
  7  8  1  0  0  0  0
  7 37  1  0  0  0  0
  7 38  1  0  0  0  0
  8 39  1  0  0  0  0
  8 40  1  0  0  0  0
  9 10  2  0  0  0  0
  9 24  1  0  0  0  0
  9 41  1  0  0  0  0
 10 11  1  0  0  0  0
 10 25  1  0  0  0  0
 11 12  2  0  0  0  0
 11 42  1  0  0  0  0
 12 23  1  0  0  0  0
 12 43  1  0  0  0  0
 13 25  1  0  0  0  0
 13 44  1  0  0  0  0
 13 45  1  0  0  0  0
 14 15  1  0  0  0  0
 15 16  1  0  0  0  0
 15 17  2  0  0  0  0
 17 18  1  0  0  0  0
 17 20  1  0  0  0  0
 18 26  2  0  0  0  0
 19 20  1  0  0  0  0
 19 26  1  0  0  0  0
 19 46  1  0  0  0  0
 20 21  2  0  0  0  0
 22 23  1  0  0  0  0
 22 47  1  0  0  0  0
 23 24  2  0  0  0  0
 24 48  1  0  0  0  0
 25 27  2  0  0  0  0
 26 49  1  0  0  0  0
M  END
>  <DRUGBANK_ID>
DB08241

>  <COMMON_NAME>
4-(6-CYCLOHEXYLMETHOXY-9H-PURIN-2-YLAMINO)--BENZAMIDE

$$$$
