C15
 OpenBabel10282417072D

 60 59  0  0  0  0  0  0  0  0999 V2000
    4.6732    0.9492    0.0000 C   0  0  0  0  0  0  0  0  0  0  0  0
    3.8763    0.7357    0.0000 C   0  0  0  0  0  0  0  0  0  0  0  0
    3.6628   -0.0612    0.0000 C   0  0  0  0  0  0  0  0  0  0  0  0
   -3.1971   -6.3378    0.0000 C   0  0  0  0  0  0  0  0  0  0  0  0
   -2.9835   -5.5408    0.0000 C   0  0  0  0  0  0  0  0  0  0  0  0
   -2.1866   -5.3273    0.0000 C   0  0  0  0  0  0  0  0  0  0  0  0
   -1.9730   -4.5303    0.0000 C   0  0  0  0  0  0  0  0  0  0  0  0
    2.8658   -0.2749    0.0000 N   0  3  0  0  0  0  0  0  0  0  0  0
    3.0794   -1.0718    0.0000 C   0  0  0  0  0  0  0  0  0  0  0  0
    2.6523    0.5221    0.0000 C   0  0  0  0  0  0  0  0  0  0  0  0
   -1.1762   -4.3168    0.0000 C   0  0  0  0  0  0  0  0  0  0  0  0
   -0.9625   -3.5198    0.0000 C   0  0  0  0  0  0  0  0  0  0  0  0
   -0.1656   -3.3063    0.0000 C   0  0  0  0  0  0  0  0  0  0  0  0
    0.0479   -2.5094    0.0000 C   0  0  0  0  0  0  0  0  0  0  0  0
    0.8448   -2.2958    0.0000 C   0  0  0  0  0  0  0  0  0  0  0  0
    1.0584   -1.4989    0.0000 C   0  0  0  0  0  0  0  0  0  0  0  0
    1.8553   -1.2853    0.0000 C   0  0  0  0  0  0  0  0  0  0  0  0
    2.0689   -0.4884    0.0000 C   0  0  0  0  0  0  0  0  0  0  0  0
    4.8869    1.7462    0.0000 S   0  0  0  0  0  0  0  0  0  0  0  0
    5.1004    2.5431    0.0000 O   0  0  0  0  0  0  0  0  0  0  0  0
    5.6838    1.5326    0.0000 O   0  0  0  0  0  0  0  0  0  0  0  0
    4.0899    1.9597    0.0000 O   0  0  0  0  0  0  0  0  0  0  0  0
    5.4297    0.1925    0.0000 H   0  0  0  0  0  0  0  0  0  0  0  0
    5.7068    1.2260    0.0000 H   0  0  0  0  0  0  0  0  0  0  0  0
    3.1197    1.4923    0.0000 H   0  0  0  0  0  0  0  0  0  0  0  0
    2.8428    0.4587    0.0000 H   0  0  0  0  0  0  0  0  0  0  0  0
    4.4195   -0.8177    0.0000 H   0  0  0  0  0  0  0  0  0  0  0  0
    3.3860   -1.0948    0.0000 H   0  0  0  0  0  0  0  0  0  0  0  0
   -4.2307   -6.6147    0.0000 H   0  0  0  0  0  0  0  0  0  0  0  0
   -2.4405   -7.0944    0.0000 H   0  0  0  0  0  0  0  0  0  0  0  0
   -3.4741   -7.3713    0.0000 H   0  0  0  0  0  0  0  0  0  0  0  0
   -3.7401   -4.7842    0.0000 H   0  0  0  0  0  0  0  0  0  0  0  0
   -2.7065   -4.5073    0.0000 H   0  0  0  0  0  0  0  0  0  0  0  0
   -1.4300   -6.0839    0.0000 H   0  0  0  0  0  0  0  0  0  0  0  0
   -1.1530   -5.0504    0.0000 H   0  0  0  0  0  0  0  0  0  0  0  0
   -2.7296   -3.7737    0.0000 H   0  0  0  0  0  0  0  0  0  0  0  0
   -1.6960   -3.4968    0.0000 H   0  0  0  0  0  0  0  0  0  0  0  0
    2.3229   -1.8285    0.0000 H   0  0  0  0  0  0  0  0  0  0  0  0
    4.1130   -1.3487    0.0000 H   0  0  0  0  0  0  0  0  0  0  0  0
    3.3564   -2.1053    0.0000 H   0  0  0  0  0  0  0  0  0  0  0  0
    3.4090    1.2787    0.0000 H   0  0  0  0  0  0  0  0  0  0  0  0
    1.6188    0.7991    0.0000 H   0  0  0  0  0  0  0  0  0  0  0  0
    2.3754    1.5557    0.0000 H   0  0  0  0  0  0  0  0  0  0  0  0
   -0.4197   -5.0735    0.0000 H   0  0  0  0  0  0  0  0  0  0  0  0
   -0.1426   -4.0400    0.0000 H   0  0  0  0  0  0  0  0  0  0  0  0
   -1.7190   -2.7631    0.0000 H   0  0  0  0  0  0  0  0  0  0  0  0
   -0.6855   -2.4863    0.0000 H   0  0  0  0  0  0  0  0  0  0  0  0
    0.5910   -4.0629    0.0000 H   0  0  0  0  0  0  0  0  0  0  0  0
    0.8679   -3.0293    0.0000 H   0  0  0  0  0  0  0  0  0  0  0  0
   -0.7087   -1.7528    0.0000 H   0  0  0  0  0  0  0  0  0  0  0  0
    0.3248   -1.4758    0.0000 H   0  0  0  0  0  0  0  0  0  0  0  0
    1.6014   -3.0524    0.0000 H   0  0  0  0  0  0  0  0  0  0  0  0
    1.8784   -2.0189    0.0000 H   0  0  0  0  0  0  0  0  0  0  0  0
    0.3018   -0.7423    0.0000 H   0  0  0  0  0  0  0  0  0  0  0  0
    1.3353   -0.4653    0.0000 H   0  0  0  0  0  0  0  0  0  0  0  0
    2.6119   -2.0419    0.0000 H   0  0  0  0  0  0  0  0  0  0  0  0
    2.8889   -1.0084    0.0000 H   0  0  0  0  0  0  0  0  0  0  0  0
    1.3123    0.2682    0.0000 H   0  0  0  0  0  0  0  0  0  0  0  0
    1.0353   -0.7653    0.0000 H   0  0  0  0  0  0  0  0  0  0  0  0
    3.8388    2.8966    0.0000 H   0  0  0  0  0  0  0  0  0  0  0  0
  1  2  1  0  0  0  0
  1 19  1  0  0  0  0
  1 23  1  0  0  0  0
  1 24  1  0  0  0  0
  2  3  1  0  0  0  0
  2 25  1  0  0  0  0
  2 26  1  0  0  0  0
  3  8  1  0  0  0  0
  3 27  1  0  0  0  0
  3 28  1  0  0  0  0
  4  5  1  0  0  0  0
  4 29  1  0  0  0  0
  4 30  1  0  0  0  0
  4 31  1  0  0  0  0
  5  6  1  0  0  0  0
  5 32  1  0  0  0  0
  5 33  1  0  0  0  0
  6  7  1  0  0  0  0
  6 34  1  0  0  0  0
  6 35  1  0  0  0  0
  7 11  1  0  0  0  0
  7 36  1  0  0  0  0
  7 37  1  0  0  0  0
  8  9  1  0  0  0  0
  8 10  1  0  0  0  0
  8 18  1  0  0  0  0
  9 38  1  0  0  0  0
  9 39  1  0  0  0  0
  9 40  1  0  0  0  0
 10 41  1  0  0  0  0
 10 42  1  0  0  0  0
 10 43  1  0  0  0  0
 11 12  1  0  0  0  0
 11 44  1  0  0  0  0
 11 45  1  0  0  0  0
 12 13  1  0  0  0  0
 12 46  1  0  0  0  0
 12 47  1  0  0  0  0
 13 14  1  0  0  0  0
 13 48  1  0  0  0  0
 13 49  1  0  0  0  0
 14 15  1  0  0  0  0
 14 50  1  0  0  0  0
 14 51  1  0  0  0  0
 15 16  1  0  0  0  0
 15 52  1  0  0  0  0
 15 53  1  0  0  0  0
 16 17  1  0  0  0  0
 16 54  1  0  0  0  0
 16 55  1  0  0  0  0
 17 18  1  0  0  0  0
 17 56  1  0  0  0  0
 17 57  1  0  0  0  0
 18 58  1  0  0  0  0
 18 59  1  0  0  0  0
 19 20  2  0  0  0  0
 19 21  2  0  0  0  0
 19 22  1  0  0  0  0
 22 60  1  0  0  0  0
M  CHG  1   8   1
M  END
>  <DRUGBANK_ID>
DB02643

>  <SECONDARY_ACCESSION_NUMBERS>
EXPT00799

>  <COMMON_NAME>
N-Dodecyl-N,N-Dimethyl-3-Ammonio-1-Propanesulfonate

>  <UNII>
R6P3KW3E8U

$$$$
