
 OpenBabel10282417072D

 72 76  0  0  0  0  0  0  0  0999 V2000
    1.5442    0.8571    0.0000 P   0  0  2  0  0  0  0  0  0  0  0  0
    0.1152    0.8516    0.0000 P   0  0  2  0  0  0  0  0  0  0  0  0
   -1.3137    0.8461    0.0000 P   0  0  2  0  0  0  0  0  0  0  0  0
   -2.7426    0.8406    0.0000 P   0  0  1  0  0  0  0  0  0  0  0  0
    4.4415    0.7913    0.0000 O   0  0  0  0  0  0  0  0  0  0  0  0
    4.9247   -1.2880    0.0000 O   0  0  0  0  0  0  0  0  0  0  0  0
    3.1676   -0.9216    0.0000 O   0  0  0  0  0  0  0  0  0  0  0  0
    2.2602    0.4474    0.0000 O   0  0  0  0  0  0  0  0  0  0  0  0
    0.8281    1.2668    0.0000 O   0  0  0  0  0  0  0  0  0  0  0  0
    1.9539    1.5732    0.0000 O   0  0  0  0  0  0  0  0  0  0  0  0
    1.1344    0.1410    0.0000 O   0  0  0  0  0  0  0  0  0  0  0  0
   -0.5976    0.4363    0.0000 O   0  0  0  0  0  0  0  0  0  0  0  0
    0.5305    0.1387    0.0000 O   0  0  0  0  0  0  0  0  0  0  0  0
   -0.3000    1.5645    0.0000 O   0  0  0  0  0  0  0  0  0  0  0  0
   -3.4555    0.4253    0.0000 O   0  0  0  0  0  0  0  0  0  0  0  0
   -2.0298    1.2559    0.0000 O   0  0  0  0  0  0  0  0  0  0  0  0
   -0.9040    1.5622    0.0000 O   0  0  0  0  0  0  0  0  0  0  0  0
   -1.7234    0.1301    0.0000 O   0  0  0  0  0  0  0  0  0  0  0  0
   -2.3274    0.1277    0.0000 O   0  0  0  0  0  0  0  0  0  0  0  0
   -3.1579    1.5535    0.0000 O   0  0  0  0  0  0  0  0  0  0  0  0
   -7.0840    1.6402    0.0000 O   0  0  0  0  0  0  0  0  0  0  0  0
    5.8161    0.2697    0.0000 N   0  0  0  0  0  0  0  0  0  0  0  0
    7.0262    0.8166    0.0000 N   0  0  0  0  0  0  0  0  0  0  0  0
    6.2850   -1.1589    0.0000 N   0  0  0  0  0  0  0  0  0  0  0  0
    7.7070   -1.3003    0.0000 N   0  0  0  0  0  0  0  0  0  0  0  0
    8.5405   -0.1396    0.0000 N   0  0  0  0  0  0  0  0  0  0  0  0
   -5.6320   -0.8634    0.0000 N   0  0  0  0  0  0  0  0  0  0  0  0
   -5.6320    0.8438    0.0000 N   0  0  0  0  0  0  0  0  0  0  0  0
   -7.0840   -0.8348    0.0000 N   0  0  0  0  0  0  0  0  0  0  0  0
   -7.7985    0.4026    0.0000 N   0  0  0  0  0  0  0  0  0  0  0  0
   -8.5130   -0.8348    0.0000 N   0  0  0  0  0  0  0  0  0  0  0  0
    4.5863   -0.5356    0.0000 C   0  0  2  0  0  0  0  0  0  0  0  0
    3.7786   -0.3672    0.0000 C   0  0  1  0  0  0  0  0  0  0  0  0
    4.9960    0.1804    0.0000 C   0  0  1  0  0  0  0  0  0  0  0  0
    3.6891    0.4529    0.0000 C   0  0  1  0  0  0  0  0  0  0  0  0
    2.9731    0.8626    0.0000 C   0  0  0  0  0  0  0  0  0  0  0  0
    6.3667   -0.3380    0.0000 C   0  0  0  0  0  0  0  0  0  0  0  0
    6.2228    0.9820    0.0000 C   0  0  0  0  0  0  0  0  0  0  0  0
    7.1186    0.0017    0.0000 C   0  0  0  0  0  0  0  0  0  0  0  0
    7.7886   -0.4794    0.0000 C   0  0  0  0  0  0  0  0  0  0  0  0
    6.9552   -1.6402    0.0000 C   0  0  0  0  0  0  0  0  0  0  0  0
   -4.8845   -0.4394    0.0000 C   0  0  0  0  0  0  0  0  0  0  0  0
   -4.8845    0.4198    0.0000 C   0  0  0  0  0  0  0  0  0  0  0  0
   -6.3695   -0.4223    0.0000 C   0  0  0  0  0  0  0  0  0  0  0  0
   -6.3695    0.4026    0.0000 C   0  0  0  0  0  0  0  0  0  0  0  0
   -4.1716    0.8351    0.0000 C   0  0  0  0  0  0  0  0  0  0  0  0
   -7.0840    0.8151    0.0000 C   0  0  0  0  0  0  0  0  0  0  0  0
   -7.7985   -0.4223    0.0000 C   0  0  0  0  0  0  0  0  0  0  0  0
    8.9560   -0.4380    0.0000 H   0  0  0  0  0  0  0  0  0  0  0  0
    8.5911    0.3692    0.0000 H   0  0  0  0  0  0  0  0  0  0  0  0
   -5.6379   -1.3748    0.0000 H   0  0  0  0  0  0  0  0  0  0  0  0
   -7.0840   -1.3463    0.0000 H   0  0  0  0  0  0  0  0  0  0  0  0
   -8.9560   -0.5790    0.0000 H   0  0  0  0  0  0  0  0  0  0  0  0
   -8.5130   -1.3463    0.0000 H   0  0  0  0  0  0  0  0  0  0  0  0
    4.3575   -2.0749    0.0000 H   0  0  0  0  0  0  0  0  0  0  0  0
    2.2439   -0.6254    0.0000 H   0  0  0  0  0  0  0  0  0  0  0  0
    2.9239    1.5770    0.0000 H   0  0  0  0  0  0  0  0  0  0  0  0
    0.0488   -0.7032    0.0000 H   0  0  0  0  0  0  0  0  0  0  0  0
    0.0660    1.5660    0.0000 H   0  0  0  0  0  0  0  0  0  0  0  0
   -2.8092   -0.7142    0.0000 H   0  0  0  0  0  0  0  0  0  0  0  0
    3.9161   -1.3697    0.0000 H   0  0  0  0  0  0  0  0  0  0  0  0
    4.0595   -1.3997    0.0000 H   0  0  0  0  0  0  0  0  0  0  0  0
    5.3756    1.1808    0.0000 H   0  0  0  0  0  0  0  0  0  0  0  0
    3.7410    1.5216    0.0000 H   0  0  0  0  0  0  0  0  0  0  0  0
    2.9690    1.9326    0.0000 H   0  0  0  0  0  0  0  0  0  0  0  0
    3.8977    1.4012    0.0000 H   0  0  0  0  0  0  0  0  0  0  0  0
    5.7978    1.9224    0.0000 H   0  0  0  0  0  0  0  0  0  0  0  0
    6.8531   -2.6671    0.0000 H   0  0  0  0  0  0  0  0  0  0  0  0
   -3.9599   -0.9779    0.0000 H   0  0  0  0  0  0  0  0  0  0  0  0
   -3.9568    0.0938    0.0000 H   0  0  0  0  0  0  0  0  0  0  0  0
   -4.1757    1.9051    0.0000 H   0  0  0  0  0  0  0  0  0  0  0  0
   -5.1003    1.3665    0.0000 H   0  0  0  0  0  0  0  0  0  0  0  0
  1  8  1  0  0  0  0
  1  9  1  0  0  0  0
  1 10  1  0  0  0  0
  1 11  2  1  0  0  0
  2  9  1  0  0  0  0
  2 12  1  0  0  0  0
  2 13  1  0  0  0  0
  2 14  2  6  0  0  0
  3 12  1  0  0  0  0
  3 16  1  0  0  0  0
  3 17  1  0  0  0  0
  3 18  2  1  0  0  0
  4 15  1  0  0  0  0
  4 16  1  0  0  0  0
  4 19  1  0  0  0  0
  4 20  2  6  0  0  0
  5 34  1  0  0  0  0
  5 35  1  0  0  0  0
  6 55  1  0  0  0  0
  7 56  1  0  0  0  0
  8 36  1  0  0  0  0
 10 57  1  0  0  0  0
 13 58  1  0  0  0  0
 15 46  1  0  0  0  0
 17 59  1  0  0  0  0
 19 60  1  0  0  0  0
 21 47  2  0  0  0  0
 22 37  1  0  0  0  0
 22 38  1  0  0  0  0
 23 38  2  0  0  0  0
 23 39  1  0  0  0  0
 24 37  2  0  0  0  0
 24 41  1  0  0  0  0
 25 40  1  0  0  0  0
 25 41  2  0  0  0  0
 26 40  1  0  0  0  0
 26 49  1  0  0  0  0
 26 50  1  0  0  0  0
 27 42  1  0  0  0  0
 27 44  1  0  0  0  0
 27 51  1  0  0  0  0
 28 43  2  0  0  0  0
 28 45  1  0  0  0  0
 29 44  1  0  0  0  0
 29 48  1  0  0  0  0
 29 52  1  0  0  0  0
 30 47  1  0  0  0  0
 30 48  2  0  0  0  0
 31 48  1  0  0  0  0
 31 53  1  0  0  0  0
 31 54  1  0  0  0  0
 32  6  1  0  0  0  0
 32 33  1  0  0  0  0
 32 34  1  0  0  0  0
 32 61  1  1  0  0  0
 33  7  1  0  0  0  0
 33 35  1  0  0  0  0
 33 62  1  1  0  0  0
 34 22  1  0  0  0  0
 34 63  1  6  0  0  0
 35 36  1  0  0  0  0
 35 64  1  6  0  0  0
 36 65  1  0  0  0  0
 36 66  1  0  0  0  0
 37 39  1  0  0  0  0
 38 67  1  0  0  0  0
 39 40  2  0  0  0  0
 41 68  1  0  0  0  0
 42 43  1  0  0  0  0
 42 69  1  0  0  0  0
 42 70  1  0  0  0  0
 43 46  1  0  0  0  0
 44 45  2  0  0  0  0
 45 47  1  0  0  0  0
 46 71  1  0  0  0  0
 46 72  1  0  0  0  0
M  END
>  <DRUGBANK_ID>
DB04158

>  <SECONDARY_ACCESSION_NUMBERS>
EXPT00373

>  <COMMON_NAME>
6-(adenosine tetraphosphate-methyl)-7,8-dihydropterin

$$$$
