
 OpenBabel10282417072D

139140  0  0  1  0  0  0  0  0999 V2000
   21.6871   -9.7903    0.0000 N   0  0  0  0  0  0  0  0  0  0  0  0
   20.8721   -9.9187    0.0000 C   0  0  1  0  0  0  0  0  0  0  0  0
   20.3535   -9.2771    0.0000 C   0  0  0  0  0  0  0  0  0  0  0  0
   20.6499   -8.5071    0.0000 N   0  0  0  0  0  0  0  0  0  0  0  0
   20.1313   -7.8655    0.0000 C   0  0  0  0  0  0  0  0  0  0  0  0
   19.3163   -7.9938    0.0000 O   0  0  0  0  0  0  0  0  0  0  0  0
   20.4276   -7.0956    0.0000 C   0  0  2  0  0  0  0  0  0  0  0  0
   21.2426   -6.9672    0.0000 C   0  0  0  0  0  0  0  0  0  0  0  0
   21.7612   -7.6089    0.0000 C   0  0  0  0  0  0  0  0  0  0  0  0
   22.5761   -7.4805    0.0000 C   0  0  0  0  0  0  0  0  0  0  0  0
   23.0947   -8.1222    0.0000 C   0  0  0  0  0  0  0  0  0  0  0  0
   22.7984   -8.8921    0.0000 C   0  0  0  0  0  0  0  0  0  0  0  0
   21.9834   -9.0204    0.0000 C   0  0  0  0  0  0  0  0  0  0  0  0
   21.4648   -8.3788    0.0000 C   0  0  0  0  0  0  0  0  0  0  0  0
   19.9090   -6.4540    0.0000 N   0  0  0  0  0  0  0  0  0  0  0  0
   20.2053   -5.6840    0.0000 C   0  0  0  0  0  0  0  0  0  0  0  0
   21.0203   -5.5557    0.0000 O   0  0  0  0  0  0  0  0  0  0  0  0
   19.6867   -5.0424    0.0000 C   0  0  2  0  0  0  0  0  0  0  0  0
   19.9831   -4.2725    0.0000 C   0  0  0  0  0  0  0  0  0  0  0  0
   20.7980   -4.1441    0.0000 C   0  0  0  0  0  0  0  0  0  0  0  0
   21.0944   -3.3742    0.0000 C   0  0  0  0  0  0  0  0  0  0  0  0
   21.9093   -3.2459    0.0000 C   0  0  0  0  0  0  0  0  0  0  0  0
   22.4280   -3.8875    0.0000 C   0  0  0  0  0  0  0  0  0  0  0  0
   22.1316   -4.6574    0.0000 C   0  0  0  0  0  0  0  0  0  0  0  0
   21.3166   -4.7858    0.0000 C   0  0  0  0  0  0  0  0  0  0  0  0
   18.8718   -5.1707    0.0000 N   0  0  0  0  0  0  0  0  0  0  0  0
   18.5754   -5.9407    0.0000 C   0  0  0  0  0  0  0  0  0  0  0  0
   19.0940   -6.5823    0.0000 O   0  0  0  0  0  0  0  0  0  0  0  0
   17.7605   -6.0690    0.0000 C   0  0  0  0  0  0  0  0  0  0  0  0
   17.4641   -6.8389    0.0000 C   0  0  0  0  0  0  0  0  0  0  0  0
   16.6492   -6.9672    0.0000 C   0  0  0  0  0  0  0  0  0  0  0  0
   16.3528   -7.7372    0.0000 C   0  0  0  0  0  0  0  0  0  0  0  0
   15.5378   -7.8655    0.0000 C   0  0  0  0  0  0  0  0  0  0  0  0
   15.2415   -8.6354    0.0000 C   0  0  0  0  0  0  0  0  0  0  0  0
   14.4265   -8.7638    0.0000 C   0  0  0  0  0  0  0  0  0  0  0  0
   14.1302   -9.5337    0.0000 N   0  0  0  0  0  0  0  0  0  0  0  0
   13.3152   -9.6620    0.0000 C   0  0  0  0  0  0  0  0  0  0  0  0
   12.7966   -9.0204    0.0000 O   0  0  0  0  0  0  0  0  0  0  0  0
   13.0189  -10.4320    0.0000 C   0  0  0  0  0  0  0  0  0  0  0  0
   12.2039  -10.5603    0.0000 C   0  0  0  0  0  0  0  0  0  0  0  0
   11.9076  -11.3302    0.0000 C   0  0  2  0  0  0  0  0  0  0  0  0
   11.0926  -11.4585    0.0000 N   0  0  0  0  0  0  0  0  0  0  0  0
   10.7963  -12.2285    0.0000 C   0  0  0  0  0  0  0  0  0  0  0  0
   11.3149  -12.8701    0.0000 O   0  0  0  0  0  0  0  0  0  0  0  0
    9.9813  -12.3568    0.0000 N   0  0  0  0  0  0  0  0  0  0  0  0
    9.6850  -13.1267    0.0000 C   0  0  1  0  0  0  0  0  0  0  0  0
    8.8700  -13.2551    0.0000 C   0  0  0  0  0  0  0  0  0  0  0  0
    8.5737  -14.0250    0.0000 C   0  0  0  0  0  0  0  0  0  0  0  0
    7.7587  -14.1533    0.0000 C   0  0  0  0  0  0  0  0  0  0  0  0
    7.4623  -14.9233    0.0000 O   0  0  0  0  0  0  0  0  0  0  0  0
    7.2401  -13.5117    0.0000 O   0  0  0  0  0  0  0  0  0  0  0  0
   10.2036  -13.7684    0.0000 C   0  0  0  0  0  0  0  0  0  0  0  0
    9.9072  -14.5383    0.0000 O   0  0  0  0  0  0  0  0  0  0  0  0
   11.0185  -13.6400    0.0000 O   0  0  0  0  0  0  0  0  0  0  0  0
   12.4262  -11.9718    0.0000 C   0  0  0  0  0  0  0  0  0  0  0  0
   12.1298  -12.7418    0.0000 O   0  0  0  0  0  0  0  0  0  0  0  0
   13.2411  -11.8435    0.0000 O   0  0  0  0  0  0  0  0  0  0  0  0
   20.5758  -10.6886    0.0000 C   0  0  0  0  0  0  0  0  0  0  0  0
   19.7608  -10.8169    0.0000 O   0  0  0  0  0  0  0  0  0  0  0  0
   21.0944  -11.3302    0.0000 N   0  0  0  0  0  0  0  0  0  0  0  0
   20.7980  -12.1002    0.0000 C   0  0  1  0  0  0  0  0  0  0  0  0
   19.9831  -12.2285    0.0000 C   0  0  0  0  0  0  0  0  0  0  0  0
   19.6867  -12.9984    0.0000 C   0  0  0  0  0  0  0  0  0  0  0  0
   18.8718  -13.1267    0.0000 O   0  0  0  0  0  0  0  0  0  0  0  0
   20.2053  -13.6400    0.0000 O   0  0  0  0  0  0  0  0  0  0  0  0
   21.3166  -12.7418    0.0000 C   0  0  0  0  0  0  0  0  0  0  0  0
   22.1316  -12.6134    0.0000 O   0  0  0  0  0  0  0  0  0  0  0  0
   21.0203  -13.5117    0.0000 N   0  0  0  0  0  0  0  0  0  0  0  0
   21.5389  -14.1533    0.0000 C   0  0  1  0  0  0  0  0  0  0  0  0
   21.2426  -14.9233    0.0000 C   0  0  0  0  0  0  0  0  0  0  0  0
   21.7612  -15.5649    0.0000 S   0  0  0  0  0  0  0  0  0  0  0  0
   22.3539  -14.0250    0.0000 C   0  0  0  0  0  0  0  0  0  0  0  0
   22.8725  -14.6666    0.0000 O   0  0  0  0  0  0  0  0  0  0  0  0
   22.6502  -13.2551    0.0000 O   0  0  0  0  0  0  0  0  0  0  0  0
   22.3284  -10.5835    0.0000 H   0  0  0  0  0  0  0  0  0  0  0  0
   22.0534   -8.8383    0.0000 H   0  0  0  0  0  0  0  0  0  0  0  0
   21.2564   -8.9201    0.0000 H   0  0  0  0  0  0  0  0  0  0  0  0
   19.2965   -9.4435    0.0000 H   0  0  0  0  0  0  0  0  0  0  0  0
   19.6809   -8.4449    0.0000 H   0  0  0  0  0  0  0  0  0  0  0  0
   21.6224   -8.3540    0.0000 H   0  0  0  0  0  0  0  0  0  0  0  0
   19.3706   -7.2621    0.0000 H   0  0  0  0  0  0  0  0  0  0  0  0
   21.6270   -5.9686    0.0000 H   0  0  0  0  0  0  0  0  0  0  0  0
   22.2996   -6.8008    0.0000 H   0  0  0  0  0  0  0  0  0  0  0  0
   22.9468   -6.5174    0.0000 H   0  0  0  0  0  0  0  0  0  0  0  0
   24.1141   -7.9617    0.0000 H   0  0  0  0  0  0  0  0  0  0  0  0
   23.4471   -9.6947    0.0000 H   0  0  0  0  0  0  0  0  0  0  0  0
   21.6127   -9.9835    0.0000 H   0  0  0  0  0  0  0  0  0  0  0  0
   20.4454   -8.5393    0.0000 H   0  0  0  0  0  0  0  0  0  0  0  0
   18.9365   -6.6072    0.0000 H   0  0  0  0  0  0  0  0  0  0  0  0
   19.3023   -6.0410    0.0000 H   0  0  0  0  0  0  0  0  0  0  0  0
   19.3105   -3.4404    0.0000 H   0  0  0  0  0  0  0  0  0  0  0  0
   20.3674   -3.2739    0.0000 H   0  0  0  0  0  0  0  0  0  0  0  0
   20.4457   -2.5716    0.0000 H   0  0  0  0  0  0  0  0  0  0  0  0
   22.2800   -2.2828    0.0000 H   0  0  0  0  0  0  0  0  0  0  0  0
   23.4474   -3.7270    0.0000 H   0  0  0  0  0  0  0  0  0  0  0  0
   22.7803   -5.4600    0.0000 H   0  0  0  0  0  0  0  0  0  0  0  0
   20.9459   -5.7489    0.0000 H   0  0  0  0  0  0  0  0  0  0  0  0
   18.2529   -4.4050    0.0000 H   0  0  0  0  0  0  0  0  0  0  0  0
   17.0879   -5.2368    0.0000 H   0  0  0  0  0  0  0  0  0  0  0  0
   16.7035   -6.2354    0.0000 H   0  0  0  0  0  0  0  0  0  0  0  0
   18.1367   -7.6711    0.0000 H   0  0  0  0  0  0  0  0  0  0  0  0
   17.0797   -7.8375    0.0000 H   0  0  0  0  0  0  0  0  0  0  0  0
   15.9766   -6.1350    0.0000 H   0  0  0  0  0  0  0  0  0  0  0  0
   15.5922   -7.1336    0.0000 H   0  0  0  0  0  0  0  0  0  0  0  0
   17.0254   -8.5694    0.0000 H   0  0  0  0  0  0  0  0  0  0  0  0
   15.9684   -8.7358    0.0000 H   0  0  0  0  0  0  0  0  0  0  0  0
   14.8652   -7.0333    0.0000 H   0  0  0  0  0  0  0  0  0  0  0  0
   14.4808   -8.0320    0.0000 H   0  0  0  0  0  0  0  0  0  0  0  0
   15.9142   -9.4675    0.0000 H   0  0  0  0  0  0  0  0  0  0  0  0
   14.8572   -9.6340    0.0000 H   0  0  0  0  0  0  0  0  0  0  0  0
   13.7538   -7.9317    0.0000 H   0  0  0  0  0  0  0  0  0  0  0  0
   13.3695   -8.9303    0.0000 H   0  0  0  0  0  0  0  0  0  0  0  0
   14.7491  -10.2994    0.0000 H   0  0  0  0  0  0  0  0  0  0  0  0
   13.6915  -11.2641    0.0000 H   0  0  0  0  0  0  0  0  0  0  0  0
   12.6345  -11.4306    0.0000 H   0  0  0  0  0  0  0  0  0  0  0  0
   11.5313   -9.7281    0.0000 H   0  0  0  0  0  0  0  0  0  0  0  0
   11.1469  -10.7268    0.0000 H   0  0  0  0  0  0  0  0  0  0  0  0
   11.2350  -10.4980    0.0000 H   0  0  0  0  0  0  0  0  0  0  0  0
   10.4737  -10.6929    0.0000 H   0  0  0  0  0  0  0  0  0  0  0  0
    9.3624  -11.5911    0.0000 H   0  0  0  0  0  0  0  0  0  0  0  0
    9.0123  -12.2946    0.0000 H   0  0  0  0  0  0  0  0  0  0  0  0
    8.1973  -12.4230    0.0000 H   0  0  0  0  0  0  0  0  0  0  0  0
    7.8130  -13.4216    0.0000 H   0  0  0  0  0  0  0  0  0  0  0  0
    9.2463  -14.8572    0.0000 H   0  0  0  0  0  0  0  0  0  0  0  0
    8.1893  -15.0236    0.0000 H   0  0  0  0  0  0  0  0  0  0  0  0
    6.5367  -15.0690    0.0000 H   0  0  0  0  0  0  0  0  0  0  0  0
    8.9816  -14.6840    0.0000 H   0  0  0  0  0  0  0  0  0  0  0  0
   11.2042  -12.8875    0.0000 H   0  0  0  0  0  0  0  0  0  0  0  0
   22.0669  -11.1771    0.0000 H   0  0  0  0  0  0  0  0  0  0  0  0
   20.1254  -11.2680    0.0000 H   0  0  0  0  0  0  0  0  0  0  0  0
   19.3105  -11.3963    0.0000 H   0  0  0  0  0  0  0  0  0  0  0  0
   18.9261  -12.3949    0.0000 H   0  0  0  0  0  0  0  0  0  0  0  0
   18.2828  -12.3980    0.0000 H   0  0  0  0  0  0  0  0  0  0  0  0
   20.0478  -13.6649    0.0000 H   0  0  0  0  0  0  0  0  0  0  0  0
   20.4819  -14.3198    0.0000 H   0  0  0  0  0  0  0  0  0  0  0  0
   20.1856  -15.0898    0.0000 H   0  0  0  0  0  0  0  0  0  0  0  0
   20.8583  -15.9219    0.0000 H   0  0  0  0  0  0  0  0  0  0  0  0
   21.2727  -16.8341    0.0000 H   0  0  0  0  0  0  0  0  0  0  0  0
   22.5359  -15.5411    0.0000 H   0  0  0  0  0  0  0  0  0  0  0  0
  1 75  1  0  0  0  0
  1 76  1  0  0  0  0
  2  1  1  0  0  0  0
  2  3  1  0  0  0  0
  2 58  1  0  0  0  0
  2 77  1  1  0  0  0
  3  4  1  0  0  0  0
  3 78  1  0  0  0  0
  3 79  1  0  0  0  0
  4  5  1  0  0  0  0
  4 80  1  0  0  0  0
  5  6  2  0  0  0  0
  7  5  1  0  0  0  0
  7  8  1  0  0  0  0
  7 15  1  0  0  0  0
  7 81  1  6  0  0  0
  8  9  1  0  0  0  0
  8 82  1  0  0  0  0
  8 83  1  0  0  0  0
  9 10  2  0  0  0  0
  9 14  1  0  0  0  0
 10 11  1  0  0  0  0
 10 84  1  0  0  0  0
 11 12  2  0  0  0  0
 11 85  1  0  0  0  0
 12 13  1  0  0  0  0
 12 86  1  0  0  0  0
 13 14  2  0  0  0  0
 13 87  1  0  0  0  0
 14 88  1  0  0  0  0
 15 16  1  0  0  0  0
 15 89  1  0  0  0  0
 16 17  2  0  0  0  0
 18 16  1  0  0  0  0
 18 19  1  0  0  0  0
 18 26  1  0  0  0  0
 18 90  1  6  0  0  0
 19 20  1  0  0  0  0
 19 91  1  0  0  0  0
 19 92  1  0  0  0  0
 20 21  2  0  0  0  0
 20 25  1  0  0  0  0
 21 22  1  0  0  0  0
 21 93  1  0  0  0  0
 22 23  2  0  0  0  0
 22 94  1  0  0  0  0
 23 24  1  0  0  0  0
 23 95  1  0  0  0  0
 24 25  2  0  0  0  0
 24 96  1  0  0  0  0
 25 97  1  0  0  0  0
 26 27  1  0  0  0  0
 26 98  1  0  0  0  0
 27 28  2  0  0  0  0
 27 29  1  0  0  0  0
 29 30  1  0  0  0  0
 29 99  1  0  0  0  0
 29100  1  0  0  0  0
 30 31  1  0  0  0  0
 30101  1  0  0  0  0
 30102  1  0  0  0  0
 31 32  1  0  0  0  0
 31103  1  0  0  0  0
 31104  1  0  0  0  0
 32 33  1  0  0  0  0
 32105  1  0  0  0  0
 32106  1  0  0  0  0
 33 34  1  0  0  0  0
 33107  1  0  0  0  0
 33108  1  0  0  0  0
 34 35  1  0  0  0  0
 34109  1  0  0  0  0
 34110  1  0  0  0  0
 35 36  1  0  0  0  0
 35111  1  0  0  0  0
 35112  1  0  0  0  0
 36 37  1  0  0  0  0
 36113  1  0  0  0  0
 37 38  2  0  0  0  0
 37 39  1  0  0  0  0
 39 40  1  0  0  0  0
 39114  1  0  0  0  0
 39115  1  0  0  0  0
 40116  1  0  0  0  0
 40117  1  0  0  0  0
 41 40  1  0  0  0  0
 41 42  1  0  0  0  0
 41 55  1  0  0  0  0
 41118  1  6  0  0  0
 42 43  1  0  0  0  0
 42119  1  0  0  0  0
 43 44  2  0  0  0  0
 43 45  1  0  0  0  0
 45120  1  0  0  0  0
 46 45  1  0  0  0  0
 46 47  1  0  0  0  0
 46 52  1  0  0  0  0
 46121  1  1  0  0  0
 47 48  1  0  0  0  0
 47122  1  0  0  0  0
 47123  1  0  0  0  0
 48 49  1  0  0  0  0
 48124  1  0  0  0  0
 48125  1  0  0  0  0
 49 50  1  0  0  0  0
 49 51  2  0  0  0  0
 50126  1  0  0  0  0
 52 53  1  0  0  0  0
 52 54  2  0  0  0  0
 53127  1  0  0  0  0
 55 56  1  0  0  0  0
 55 57  2  0  0  0  0
 56128  1  0  0  0  0
 58 59  2  0  0  0  0
 58 60  1  0  0  0  0
 60129  1  0  0  0  0
 61 60  1  0  0  0  0
 61 62  1  0  0  0  0
 61 66  1  0  0  0  0
 61130  1  1  0  0  0
 62 63  1  0  0  0  0
 62131  1  0  0  0  0
 62132  1  0  0  0  0
 63 64  1  0  0  0  0
 63 65  2  0  0  0  0
 64133  1  0  0  0  0
 66 67  2  0  0  0  0
 66 68  1  0  0  0  0
 68134  1  0  0  0  0
 69 68  1  0  0  0  0
 69 70  1  0  0  0  0
 69 72  1  0  0  0  0
 69135  1  1  0  0  0
 70 71  1  0  0  0  0
 70136  1  0  0  0  0
 70137  1  0  0  0  0
 71138  1  0  0  0  0
 72 73  1  0  0  0  0
 72 74  2  0  0  0  0
 73139  1  0  0  0  0
M  END
>  <DRUGBANK_ID>
DB15340

>  <COMMON_NAME>
EC-0652

>  <CAS_NUMBER>
1025066-50-5

>  <UNII>
RWY5U5KZV3

$$$$
