457
 OpenBabel10282417072D

 49 52  0  0  0  0  0  0  0  0999 V2000
    3.6702    2.3966    0.0000 O   0  0  0  0  0  0  0  0  0  0  0  0
    2.8695    0.3387    0.0000 O   0  0  0  0  0  0  0  0  0  0  0  0
   10.1550    0.3540    0.0000 O   0  0  0  0  0  0  0  0  0  0  0  0
   10.1550   -1.3358    0.0000 O   0  0  0  0  0  0  0  0  0  0  0  0
    5.8137    0.3341    0.0000 N   0  0  0  0  0  0  0  0  0  0  0  0
    4.3847    1.1591    0.0000 N   0  0  0  0  0  0  0  0  0  0  0  0
    7.2426    0.3341    0.0000 N   0  0  0  0  0  0  0  0  0  0  0  0
    6.5281   -0.9034    0.0000 N   0  0  0  0  0  0  0  0  0  0  0  0
    7.2426   -2.1409    0.0000 N   0  0  0  0  0  0  0  0  0  0  0  0
    5.0992   -0.0784    0.0000 C   0  0  0  0  0  0  0  0  0  0  0  0
    5.8137    1.1591    0.0000 C   0  0  0  0  0  0  0  0  0  0  0  0
    4.3847    0.3341    0.0000 C   0  0  0  0  0  0  0  0  0  0  0  0
    5.0992    1.5716    0.0000 C   0  0  0  0  0  0  0  0  0  0  0  0
    6.5281   -0.0784    0.0000 C   0  0  0  0  0  0  0  0  0  0  0  0
    3.6702    1.5716    0.0000 C   0  0  0  0  0  0  0  0  0  0  0  0
    7.9571   -0.0784    0.0000 C   0  0  0  0  0  0  0  0  0  0  0  0
    2.9558    1.1591    0.0000 C   0  0  0  0  0  0  0  0  0  0  0  0
    7.9571   -0.9034    0.0000 C   0  0  0  0  0  0  0  0  0  0  0  0
    7.2426   -1.3159    0.0000 C   0  0  0  0  0  0  0  0  0  0  0  0
    8.6946    0.3628    0.0000 C   0  0  0  0  0  0  0  0  0  0  0  0
    8.6946   -1.3445    0.0000 C   0  0  0  0  0  0  0  0  0  0  0  0
    2.2020    1.4947    0.0000 C   0  0  0  0  0  0  0  0  0  0  0  0
    9.4421   -0.0612    0.0000 C   0  0  0  0  0  0  0  0  0  0  0  0
    9.4421   -0.9205    0.0000 C   0  0  0  0  0  0  0  0  0  0  0  0
    1.6500    0.8816    0.0000 C   0  0  0  0  0  0  0  0  0  0  0  0
    2.0625    0.1671    0.0000 C   0  0  0  0  0  0  0  0  0  0  0  0
   10.1518    1.1790    0.0000 C   0  0  0  0  0  0  0  0  0  0  0  0
   10.8711   -0.9261    0.0000 C   0  0  0  0  0  0  0  0  0  0  0  0
    6.3900   -2.6331    0.0000 H   0  0  0  0  0  0  0  0  0  0  0  0
    8.0952   -2.6331    0.0000 H   0  0  0  0  0  0  0  0  0  0  0  0
    5.0992   -1.1484    0.0000 H   0  0  0  0  0  0  0  0  0  0  0  0
    4.1726   -0.6134    0.0000 H   0  0  0  0  0  0  0  0  0  0  0  0
    6.7403    1.6941    0.0000 H   0  0  0  0  0  0  0  0  0  0  0  0
    5.8137    2.2291    0.0000 H   0  0  0  0  0  0  0  0  0  0  0  0
    3.4581   -0.2009    0.0000 H   0  0  0  0  0  0  0  0  0  0  0  0
    4.3847   -0.7359    0.0000 H   0  0  0  0  0  0  0  0  0  0  0  0
    5.0992    2.6416    0.0000 H   0  0  0  0  0  0  0  0  0  0  0  0
    6.0258    2.1066    0.0000 H   0  0  0  0  0  0  0  0  0  0  0  0
    8.6827    1.3947    0.0000 H   0  0  0  0  0  0  0  0  0  0  0  0
    8.6827   -2.3764    0.0000 H   0  0  0  0  0  0  0  0  0  0  0  0
    1.9874    2.5041    0.0000 H   0  0  0  0  0  0  0  0  0  0  0  0
    0.6237    0.9895    0.0000 H   0  0  0  0  0  0  0  0  0  0  0  0
    1.6428   -0.7757    0.0000 H   0  0  0  0  0  0  0  0  0  0  0  0
   11.0764    1.7176    0.0000 H   0  0  0  0  0  0  0  0  0  0  0  0
    9.2231    1.7104    0.0000 H   0  0  0  0  0  0  0  0  0  0  0  0
   10.1476    2.2490    0.0000 H   0  0  0  0  0  0  0  0  0  0  0  0
   11.7956   -1.4647    0.0000 H   0  0  0  0  0  0  0  0  0  0  0  0
   10.8753    0.1439    0.0000 H   0  0  0  0  0  0  0  0  0  0  0  0
   11.7998   -0.3947    0.0000 H   0  0  0  0  0  0  0  0  0  0  0  0
  1 15  2  0  0  0  0
  2 17  1  0  0  0  0
  2 26  1  0  0  0  0
  3 23  1  0  0  0  0
  3 27  1  0  0  0  0
  4 24  1  0  0  0  0
  4 28  1  0  0  0  0
  5 10  1  0  0  0  0
  5 11  1  0  0  0  0
  5 14  1  0  0  0  0
  6 12  1  0  0  0  0
  6 13  1  0  0  0  0
  6 15  1  0  0  0  0
  7 14  2  0  0  0  0
  7 16  1  0  0  0  0
  8 14  1  0  0  0  0
  8 19  2  0  0  0  0
  9 19  1  0  0  0  0
  9 29  1  0  0  0  0
  9 30  1  0  0  0  0
 10 12  1  0  0  0  0
 10 31  1  0  0  0  0
 10 32  1  0  0  0  0
 11 13  1  0  0  0  0
 11 33  1  0  0  0  0
 11 34  1  0  0  0  0
 12 35  1  0  0  0  0
 12 36  1  0  0  0  0
 13 37  1  0  0  0  0
 13 38  1  0  0  0  0
 15 17  1  0  0  0  0
 16 18  1  0  0  0  0
 16 20  2  0  0  0  0
 17 22  2  0  0  0  0
 18 19  1  0  0  0  0
 18 21  2  0  0  0  0
 20 23  1  0  0  0  0
 20 39  1  0  0  0  0
 21 24  1  0  0  0  0
 21 40  1  0  0  0  0
 22 25  1  0  0  0  0
 22 41  1  0  0  0  0
 23 24  2  0  0  0  0
 25 26  2  0  0  0  0
 25 42  1  0  0  0  0
 26 43  1  0  0  0  0
 27 44  1  0  0  0  0
 27 45  1  0  0  0  0
 27 46  1  0  0  0  0
 28 47  1  0  0  0  0
 28 48  1  0  0  0  0
 28 49  1  0  0  0  0
M  END
>  <DRUGBANK_ID>
DB00457

>  <SECONDARY_ACCESSION_NUMBERS>
APRD00020

>  <COMMON_NAME>
Prazosin

>  <CAS_NUMBER>
19216-56-9

>  <UNII>
XM03YJ541D

>  <SYNONYMS>
1-(4-Amino-6,7-dimethoxy-2-quinazolinyl)-4-(2-furanylcarbonyl)piperazine; 2-(4-(2-Furoyl)piperazin-1-yl)-4-amino-6,7-dimethoxyquinazoline; Prazosin; Prazosina; Prazosine; Prazosinum

$$$$
