GGO
 OpenBabel10282417072D

 47 50  0  0  0  0  0  0  0  0999 V2000
    0.6165    1.5179    0.0000 C   0  0  0  0  0  0  0  0  0  0  0  0
   -0.0980    1.1054    0.0000 C   0  0  0  0  0  0  0  0  0  0  0  0
   -0.8124    1.5179    0.0000 C   0  0  0  0  0  0  0  0  0  0  0  0
   -0.8124    2.3429    0.0000 C   0  0  0  0  0  0  0  0  0  0  0  0
   -2.2414    2.3429    0.0000 C   0  0  0  0  0  0  0  0  0  0  0  0
   -1.5269    1.1054    0.0000 C   0  0  0  0  0  0  0  0  0  0  0  0
    3.4744   -0.1321    0.0000 C   0  0  0  0  0  0  0  0  0  0  0  0
    3.4744   -0.9571    0.0000 C   0  0  0  0  0  0  0  0  0  0  0  0
    4.1889   -1.3696    0.0000 C   0  0  0  0  0  0  0  0  0  0  0  0
    4.9033   -0.9571    0.0000 C   0  0  0  0  0  0  0  0  0  0  0  0
    4.9033   -0.1321    0.0000 C   0  0  0  0  0  0  0  0  0  0  0  0
    3.4744    1.5179    0.0000 N   0  0  0  0  0  0  0  0  0  0  0  0
    2.7599    1.1054    0.0000 C   0  0  1  0  0  0  0  0  0  0  0  0
    2.0454    1.5179    0.0000 C   0  0  0  0  0  0  0  0  0  0  0  0
    1.3310    1.1054    0.0000 N   0  0  0  0  0  0  0  0  0  0  0  0
   -1.5269    2.7554    0.0000 C   0  0  0  0  0  0  0  0  0  0  0  0
   -3.0260    2.5979    0.0000 O   0  0  0  0  0  0  0  0  0  0  0  0
   -3.5109    1.9304    0.0000 C   0  0  0  0  0  0  0  0  0  0  0  0
   -3.0260    1.2630    0.0000 O   0  0  0  0  0  0  0  0  0  0  0  0
   -2.2414    1.5179    0.0000 C   0  0  0  0  0  0  0  0  0  0  0  0
    1.3310    0.2804    0.0000 C   0  0  0  0  0  0  0  0  0  0  0  0
    0.6165   -0.1321    0.0000 O   0  0  0  0  0  0  0  0  0  0  0  0
    2.0454   -0.1321    0.0000 C   0  0  0  0  0  0  0  0  0  0  0  0
    2.7599    0.2804    0.0000 C   0  0  2  0  0  0  0  0  0  0  0  0
    4.1889   -2.1946    0.0000 F   0  0  0  0  0  0  0  0  0  0  0  0
    5.6178   -1.3696    0.0000 F   0  0  0  0  0  0  0  0  0  0  0  0
    4.1889    0.2804    0.0000 C   0  0  0  0  0  0  0  0  0  0  0  0
    4.1889    1.1054    0.0000 F   0  0  0  0  0  0  0  0  0  0  0  0
    3.3350    1.0040    0.0000 H   0  0  0  0  0  0  0  0  0  0  0  0
    3.3350    0.3818    0.0000 H   0  0  0  0  0  0  0  0  0  0  0  0
    0.6165    2.5879    0.0000 H   0  0  0  0  0  0  0  0  0  0  0  0
    1.5431    2.0529    0.0000 H   0  0  0  0  0  0  0  0  0  0  0  0
   -0.0980    0.0354    0.0000 H   0  0  0  0  0  0  0  0  0  0  0  0
   -1.0247    0.5704    0.0000 H   0  0  0  0  0  0  0  0  0  0  0  0
    0.0813    2.8589    0.0000 H   0  0  0  0  0  0  0  0  0  0  0  0
   -1.5269    0.0734    0.0000 H   0  0  0  0  0  0  0  0  0  0  0  0
    2.5807   -1.4731    0.0000 H   0  0  0  0  0  0  0  0  0  0  0  0
    5.7970    0.3839    0.0000 H   0  0  0  0  0  0  0  0  0  0  0  0
    4.3577    1.0079    0.0000 H   0  0  0  0  0  0  0  0  0  0  0  0
    3.4744    2.5379    0.0000 H   0  0  0  0  0  0  0  0  0  0  0  0
    2.0454    2.5879    0.0000 H   0  0  0  0  0  0  0  0  0  0  0  0
    1.1187    2.0529    0.0000 H   0  0  0  0  0  0  0  0  0  0  0  0
   -1.5269    3.7874    0.0000 H   0  0  0  0  0  0  0  0  0  0  0  0
   -4.5809    1.9304    0.0000 H   0  0  0  0  0  0  0  0  0  0  0  0
   -3.9967    0.9770    0.0000 H   0  0  0  0  0  0  0  0  0  0  0  0
    2.0454   -1.2021    0.0000 H   0  0  0  0  0  0  0  0  0  0  0  0
    2.9720   -0.6671    0.0000 H   0  0  0  0  0  0  0  0  0  0  0  0
  1  2  1  0  0  0  0
  1 15  1  0  0  0  0
  1 31  1  0  0  0  0
  1 32  1  0  0  0  0
  2  3  1  0  0  0  0
  2 33  1  0  0  0  0
  2 34  1  0  0  0  0
  3  6  1  0  0  0  0
  3  4  2  0  0  0  0
  4 16  1  0  0  0  0
  4 35  1  0  0  0  0
  5 20  1  0  0  0  0
  5 17  1  0  0  0  0
  5 16  2  0  0  0  0
  6 20  2  0  0  0  0
  6 36  1  0  0  0  0
  7 27  1  0  0  0  0
  7  8  2  0  0  0  0
  8  9  1  0  0  0  0
  8 37  1  0  0  0  0
  9 10  2  0  0  0  0
  9 25  1  0  0  0  0
 10 11  1  0  0  0  0
 10 26  1  0  0  0  0
 11 27  2  0  0  0  0
 11 38  1  0  0  0  0
 12 39  1  0  0  0  0
 12 40  1  0  0  0  0
 13 12  1  0  0  0  0
 13 24  1  0  0  0  0
 13 14  1  0  0  0  0
 13 29  1  1  0  0  0
 14 15  1  0  0  0  0
 14 41  1  0  0  0  0
 14 42  1  0  0  0  0
 15 21  1  0  0  0  0
 16 43  1  0  0  0  0
 17 18  1  0  0  0  0
 18 19  1  0  0  0  0
 18 44  1  0  0  0  0
 18 45  1  0  0  0  0
 19 20  1  0  0  0  0
 21 22  2  0  0  0  0
 21 23  1  0  0  0  0
 23 24  1  0  0  0  0
 23 46  1  0  0  0  0
 23 47  1  0  0  0  0
 24  7  1  0  0  0  0
 24 30  1  6  0  0  0
 27 28  1  0  0  0  0
M  END
>  <DRUGBANK_ID>
DB07830

>  <COMMON_NAME>
(4R,5R)-5-AMINO-1-[2-(1,3-BENZODIOXOL-5-YL)ETHYL]-4-(2,4,5-TRIFLUOROPHENYL)PIPERIDIN-2-ONE

$$$$
