NNI
 OpenBabel10282417072D

 37 39  0  0  0  0  0  0  0  0999 V2000
    2.6046   33.2656    0.0000 C   0  0  0  0  0  0  0  0  0  0  0  0
    1.8901   33.6781    0.0000 C   0  0  0  0  0  0  0  0  0  0  0  0
    1.8901   34.5031    0.0000 C   0  0  0  0  0  0  0  0  0  0  0  0
    1.1757   34.9156    0.0000 I   0  0  0  0  0  0  0  0  0  0  0  0
    2.6046   34.9156    0.0000 C   0  0  0  0  0  0  0  0  0  0  0  0
    3.3191   34.5031    0.0000 C   0  0  0  0  0  0  0  0  0  0  0  0
    3.3191   33.6781    0.0000 C   0  0  0  0  0  0  0  0  0  0  0  0
    4.0335   33.2656    0.0000 N   0  0  0  0  0  0  0  0  0  0  0  0
    4.7480   33.6781    0.0000 C   0  0  0  0  0  0  0  0  0  0  0  0
    4.7480   34.5031    0.0000 S   0  0  0  0  0  0  0  0  0  0  0  0
    5.4625   33.2656    0.0000 O   0  0  0  0  0  0  0  0  0  0  0  0
    6.1770   33.6781    0.0000 C   0  0  0  0  0  0  0  0  0  0  0  0
    6.8914   33.2656    0.0000 C   0  0  0  0  0  0  0  0  0  0  0  0
    7.6059   33.6781    0.0000 N   0  0  0  0  0  0  0  0  0  0  0  0
    8.3596   33.3425    0.0000 C   0  0  0  0  0  0  0  0  0  0  0  0
    8.5311   32.5355    0.0000 O   0  0  0  0  0  0  0  0  0  0  0  0
    8.9116   33.9556    0.0000 C   0  0  0  0  0  0  0  0  0  0  0  0
    9.7366   33.9556    0.0000 C   0  0  0  0  0  0  0  0  0  0  0  0
   10.1491   34.6701    0.0000 C   0  0  0  0  0  0  0  0  0  0  0  0
    9.7366   35.3845    0.0000 C   0  0  0  0  0  0  0  0  0  0  0  0
    8.9116   35.3845    0.0000 C   0  0  0  0  0  0  0  0  0  0  0  0
    8.4991   34.6701    0.0000 C   0  0  0  0  0  0  0  0  0  0  0  0
    7.6921   34.4985    0.0000 C   0  0  0  0  0  0  0  0  0  0  0  0
    7.0790   35.0506    0.0000 O   0  0  0  0  0  0  0  0  0  0  0  0
    2.6046   32.2336    0.0000 H   0  0  0  0  0  0  0  0  0  0  0  0
    0.9964   33.1621    0.0000 H   0  0  0  0  0  0  0  0  0  0  0  0
    2.6046   35.9476    0.0000 H   0  0  0  0  0  0  0  0  0  0  0  0
    4.2128   35.0191    0.0000 H   0  0  0  0  0  0  0  0  0  0  0  0
    4.0335   32.2811    0.0000 H   0  0  0  0  0  0  0  0  0  0  0  0
    6.1770   34.7481    0.0000 H   0  0  0  0  0  0  0  0  0  0  0  0
    7.1037   34.2131    0.0000 H   0  0  0  0  0  0  0  0  0  0  0  0
    6.8914   32.1956    0.0000 H   0  0  0  0  0  0  0  0  0  0  0  0
    7.8180   32.7306    0.0000 H   0  0  0  0  0  0  0  0  0  0  0  0
   10.2526   33.0619    0.0000 H   0  0  0  0  0  0  0  0  0  0  0  0
   11.1811   34.6701    0.0000 H   0  0  0  0  0  0  0  0  0  0  0  0
   10.2526   36.2782    0.0000 H   0  0  0  0  0  0  0  0  0  0  0  0
    8.3956   36.2782    0.0000 H   0  0  0  0  0  0  0  0  0  0  0  0
  1  2  1  0  0  0  0
  1  7  2  0  0  0  0
  1 25  1  0  0  0  0
  2  3  2  0  0  0  0
  2 26  1  0  0  0  0
  3  4  1  0  0  0  0
  3  5  1  0  0  0  0
  5  6  2  0  0  0  0
  5 27  1  0  0  0  0
  6  7  1  0  0  0  0
  6 28  1  0  0  0  0
  7  8  1  0  0  0  0
  8  9  1  0  0  0  0
  8 29  1  0  0  0  0
  9 10  2  0  0  0  0
  9 11  1  0  0  0  0
 11 12  1  0  0  0  0
 12 13  1  0  0  0  0
 12 30  1  0  0  0  0
 12 31  1  0  0  0  0
 13 14  1  0  0  0  0
 13 32  1  0  0  0  0
 13 33  1  0  0  0  0
 14 23  1  0  0  0  0
 14 15  1  0  0  0  0
 15 16  2  0  0  0  0
 17 15  1  0  0  0  0
 18 17  1  0  0  0  0
 18 34  1  0  0  0  0
 19 18  2  0  0  0  0
 19 35  1  0  0  0  0
 20 19  1  0  0  0  0
 20 36  1  0  0  0  0
 21 20  2  0  0  0  0
 21 37  1  0  0  0  0
 22 21  1  0  0  0  0
 22 17  2  0  0  0  0
 23 24  2  0  0  0  0
 23 22  1  0  0  0  0
M  END
>  <DRUGBANK_ID>
DB08284

>  <COMMON_NAME>
O-[2-(1,3-dioxo-1,3-dihydro-2H-isoindol-2-yl)ethyl] (4-iodophenyl)thiocarbamate

$$$$
