TPB
 OpenBabel10282417072D

 44 46  0  0  0  0  0  0  0  0999 V2000
    1.5811   -0.5099    0.0000 C   0  0  0  0  0  0  0  0  0  0  0  0
    1.5811    0.3151    0.0000 N   0  0  0  0  0  0  0  0  0  0  0  0
    2.2956   -0.9224    0.0000 C   0  0  0  0  0  0  0  0  0  0  0  0
    3.0100   -0.5099    0.0000 C   0  0  0  0  0  0  0  0  0  0  0  0
    2.2956   -1.7474    0.0000 C   0  0  0  0  0  0  0  0  0  0  0  0
    1.5811   -2.1599    0.0000 C   0  0  0  0  0  0  0  0  0  0  0  0
    0.8666   -1.7474    0.0000 C   0  0  0  0  0  0  0  0  0  0  0  0
    0.8666   -0.9224    0.0000 C   0  0  0  0  0  0  0  0  0  0  0  0
    0.1522   -0.5099    0.0000 C   0  0  0  0  0  0  0  0  0  0  0  0
    0.8666    0.7276    0.0000 C   0  0  0  0  0  0  0  0  0  0  0  0
    0.1522    0.3151    0.0000 N   0  0  0  0  0  0  0  0  0  0  0  0
   -0.5623    0.7276    0.0000 C   0  0  0  0  0  0  0  0  0  0  0  0
   -1.2768    0.3151    0.0000 N   0  0  0  0  0  0  0  0  0  0  0  0
   -0.5623    1.5526    0.0000 N   0  0  0  0  0  0  0  0  0  0  0  0
    0.1522    1.9651    0.0000 C   0  0  0  0  0  0  0  0  0  0  0  0
    0.8666    1.5526    0.0000 C   0  0  0  0  0  0  0  0  0  0  0  0
   -1.9913    0.7276    0.0000 C   0  0  0  0  0  0  0  0  0  0  0  0
   -2.7057    0.3151    0.0000 C   0  0  0  0  0  0  0  0  0  0  0  0
   -3.4202    0.7276    0.0000 C   0  0  0  0  0  0  0  0  0  0  0  0
   -3.4202    1.5526    0.0000 C   0  0  0  0  0  0  0  0  0  0  0  0
   -2.7057    1.9651    0.0000 C   0  0  0  0  0  0  0  0  0  0  0  0
   -1.9913    1.5526    0.0000 C   0  0  0  0  0  0  0  0  0  0  0  0
   -4.1347    1.9651    0.0000 C   0  0  0  0  0  0  0  0  0  0  0  0
   -4.8491    2.3776    0.0000 N   0  0  0  0  0  0  0  0  0  0  0  0
    1.5811   -2.9849    0.0000 C   0  0  0  0  0  0  0  0  0  0  0  0
    2.4337    0.8074    0.0000 H   0  0  0  0  0  0  0  0  0  0  0  0
    3.9367   -1.0449    0.0000 H   0  0  0  0  0  0  0  0  0  0  0  0
    3.0100    0.5601    0.0000 H   0  0  0  0  0  0  0  0  0  0  0  0
    3.9366    0.0251    0.0000 H   0  0  0  0  0  0  0  0  0  0  0  0
    3.1893   -2.2634    0.0000 H   0  0  0  0  0  0  0  0  0  0  0  0
   -0.0271   -2.2634    0.0000 H   0  0  0  0  0  0  0  0  0  0  0  0
    0.1522    0.5601    0.0000 H   0  0  0  0  0  0  0  0  0  0  0  0
   -0.7745   -1.0449    0.0000 H   0  0  0  0  0  0  0  0  0  0  0  0
   -0.7744    0.0251    0.0000 H   0  0  0  0  0  0  0  0  0  0  0  0
   -1.2768   -0.6694    0.0000 H   0  0  0  0  0  0  0  0  0  0  0  0
    0.1522    2.9971    0.0000 H   0  0  0  0  0  0  0  0  0  0  0  0
    1.7603    2.0686    0.0000 H   0  0  0  0  0  0  0  0  0  0  0  0
   -2.7057   -0.7169    0.0000 H   0  0  0  0  0  0  0  0  0  0  0  0
   -4.3139    0.2116    0.0000 H   0  0  0  0  0  0  0  0  0  0  0  0
   -2.7057    2.9971    0.0000 H   0  0  0  0  0  0  0  0  0  0  0  0
   -1.0976    2.0686    0.0000 H   0  0  0  0  0  0  0  0  0  0  0  0
    0.6545   -3.5199    0.0000 H   0  0  0  0  0  0  0  0  0  0  0  0
    2.5077   -3.5199    0.0000 H   0  0  0  0  0  0  0  0  0  0  0  0
    1.5811   -4.0549    0.0000 H   0  0  0  0  0  0  0  0  0  0  0  0
  1  2  1  0  0  0  0
  1  3  2  0  0  0  0
  1  8  1  0  0  0  0
  2 10  1  0  0  0  0
  2 26  1  0  0  0  0
  3  4  1  0  0  0  0
  3  5  1  0  0  0  0
  4 27  1  0  0  0  0
  4 28  1  0  0  0  0
  4 29  1  0  0  0  0
  5  6  2  0  0  0  0
  5 30  1  0  0  0  0
  6  7  1  0  0  0  0
  6 25  1  0  0  0  0
  7  8  2  0  0  0  0
  7 31  1  0  0  0  0
  8  9  1  0  0  0  0
  9 32  1  0  0  0  0
  9 33  1  0  0  0  0
  9 34  1  0  0  0  0
 10 11  2  0  0  0  0
 10 16  1  0  0  0  0
 11 12  1  0  0  0  0
 12 13  1  0  0  0  0
 12 14  2  0  0  0  0
 13 17  1  0  0  0  0
 13 35  1  0  0  0  0
 14 15  1  0  0  0  0
 15 16  2  0  0  0  0
 15 36  1  0  0  0  0
 16 37  1  0  0  0  0
 17 18  2  0  0  0  0
 17 22  1  0  0  0  0
 18 19  1  0  0  0  0
 18 38  1  0  0  0  0
 19 20  2  0  0  0  0
 19 39  1  0  0  0  0
 20 21  1  0  0  0  0
 20 23  1  0  0  0  0
 21 22  2  0  0  0  0
 21 40  1  0  0  0  0
 22 41  1  0  0  0  0
 23 24  3  0  0  0  0
 25 42  1  0  0  0  0
 25 43  1  0  0  0  0
 25 44  1  0  0  0  0
M  END
>  <DRUGBANK_ID>
DB08639

>  <SECONDARY_ACCESSION_NUMBERS>
DB11908

>  <COMMON_NAME>
Dapivirine

>  <CAS_NUMBER>
244767-67-7

>  <UNII>
TCN4MG2VXS

>  <SYNONYMS>
Dapivirine

$$$$
