
 OpenBabel10282417072D

 34 34  0  0  1  0  0  0  0  0999 V2000
    2.0051   -0.4304    0.0000 O   0  0  0  0  0  0  0  0  0  0  0  0
    1.5203    0.2371    0.0000 C   0  0  1  0  0  0  0  0  0  0  0  0
    0.6952    0.2371    0.0000 C   0  0  2  0  0  0  0  0  0  0  0  0
    0.2103   -0.4303    0.0000 O   0  0  0  0  0  0  0  0  0  0  0  0
    0.4403    1.0217    0.0000 C   0  0  1  0  0  0  0  0  0  0  0  0
   -0.3443    1.2768    0.0000 C   0  0  0  0  0  0  0  0  0  0  0  0
   -0.9574    0.7247    0.0000 O   0  0  0  0  0  0  0  0  0  0  0  0
   -1.7420    0.9797    0.0000 P   0  0  0  0  0  0  0  0  0  0  0  0
   -2.5265    1.2348    0.0000 O   0  0  0  0  0  0  0  0  0  0  0  0
   -1.9969    0.1952    0.0000 O   0  0  0  0  0  0  0  0  0  0  0  0
   -1.4870    1.7644    0.0000 O   0  0  0  0  0  0  0  0  0  0  0  0
    1.1079    1.5066    0.0000 O   0  0  0  0  0  0  0  0  0  0  0  0
    1.7753    1.0216    0.0000 C   0  0  2  0  0  0  0  0  0  0  0  0
    2.5599    1.2765    0.0000 C   0  0  0  0  0  0  0  0  0  0  0  0
    3.1729    0.7245    0.0000 O   0  0  0  0  0  0  0  0  0  0  0  0
    3.9576    0.9794    0.0000 P   0  0  0  0  0  0  0  0  0  0  0  0
    4.7422    1.2342    0.0000 O   0  0  0  0  0  0  0  0  0  0  0  0
    4.2125    0.1947    0.0000 O   0  0  0  0  0  0  0  0  0  0  0  0
    3.7027    1.7640    0.0000 O   0  0  0  0  0  0  0  0  0  0  0  0
    2.3586    0.4382    0.0000 O   0  0  0  0  0  0  0  0  0  0  0  0
    1.6104   -1.3165    0.0000 H   0  0  0  0  0  0  0  0  0  0  0  0
    1.0345   -0.7162    0.0000 H   0  0  0  0  0  0  0  0  0  0  0  0
    1.1810   -0.7163    0.0000 H   0  0  0  0  0  0  0  0  0  0  0  0
   -0.7544   -0.3289    0.0000 H   0  0  0  0  0  0  0  0  0  0  0  0
   -0.3164    0.2652    0.0000 H   0  0  0  0  0  0  0  0  0  0  0  0
   -0.5667    2.3234    0.0000 H   0  0  0  0  0  0  0  0  0  0  0  0
   -1.3619    1.6075    0.0000 H   0  0  0  0  0  0  0  0  0  0  0  0
   -2.7280    2.1836    0.0000 H   0  0  0  0  0  0  0  0  0  0  0  0
   -2.9457   -0.0065    0.0000 H   0  0  0  0  0  0  0  0  0  0  0  0
    2.7824    2.3231    0.0000 H   0  0  0  0  0  0  0  0  0  0  0  0
    3.5775    1.6071    0.0000 H   0  0  0  0  0  0  0  0  0  0  0  0
    5.4630    0.5850    0.0000 H   0  0  0  0  0  0  0  0  0  0  0  0
    3.5634   -0.5261    0.0000 H   0  0  0  0  0  0  0  0  0  0  0  0
    2.1075   -0.4987    0.0000 H   0  0  0  0  0  0  0  0  0  0  0  0
  1 21  1  0  0  0  0
  2  1  1  0  0  0  0
  2  3  1  0  0  0  0
  2 13  1  0  0  0  0
  2 22  1  6  0  0  0
  3  4  1  0  0  0  0
  3  5  1  0  0  0  0
  3 23  1  1  0  0  0
  4 24  1  0  0  0  0
  5  6  1  0  0  0  0
  5 12  1  0  0  0  0
  5 25  1  6  0  0  0
  6  7  1  0  0  0  0
  6 26  1  0  0  0  0
  6 27  1  0  0  0  0
  7  8  1  0  0  0  0
  8  9  1  0  0  0  0
  8 10  1  0  0  0  0
  8 11  2  0  0  0  0
  9 28  1  0  0  0  0
 10 29  1  0  0  0  0
 12 13  1  0  0  0  0
 13 14  1  0  0  0  0
 13 20  1  1  0  0  0
 14 15  1  0  0  0  0
 14 30  1  0  0  0  0
 14 31  1  0  0  0  0
 15 16  1  0  0  0  0
 16 17  1  0  0  0  0
 16 18  1  0  0  0  0
 16 19  2  0  0  0  0
 17 32  1  0  0  0  0
 18 33  1  0  0  0  0
 20 34  1  0  0  0  0
M  END
>  <DRUGBANK_ID>
DB04551

>  <SECONDARY_ACCESSION_NUMBERS>
EXPT01395

>  <COMMON_NAME>
beta-D-fructofuranose 1,6-bisphosphate

>  <UNII>
WCH874XLB1

>  <SYNONYMS>
1,6-di-O-phosphono-β-D-fructofuranose; beta-D-Fructose 1,6-bisphosphate; β-D-fructofuranose 1,6-bisphosphate

$$$$
