1085
 OpenBabel10282417072D

 31 32  0  0  1  0  0  0  0  0999 V2000
    4.1277   -1.4158    0.0000 O   0  0  0  0  0  0  0  0  0  0  0  0
    2.8178   -2.0833    0.0000 O   0  0  0  0  0  0  0  0  0  0  0  0
    5.1834    0.7557    0.0000 N   0  0  0  0  0  0  0  0  0  0  0  0
    5.3229    2.0833    0.0000 N   0  0  0  0  0  0  0  0  0  0  0  0
    3.7152   -0.1463    0.0000 C   0  0  1  0  0  0  0  0  0  0  0  0
    3.0478   -0.6312    0.0000 C   0  0  2  0  0  0  0  0  0  0  0  0
    3.7152    0.6787    0.0000 C   0  0  0  0  0  0  0  0  0  0  0  0
    4.3827   -0.6312    0.0000 C   0  0  0  0  0  0  0  0  0  0  0  0
    2.2631   -0.3763    0.0000 C   0  0  0  0  0  0  0  0  0  0  0  0
    3.3027   -1.4158    0.0000 C   0  0  0  0  0  0  0  0  0  0  0  0
    4.4297    1.0913    0.0000 C   0  0  0  0  0  0  0  0  0  0  0  0
    1.6500   -0.9283    0.0000 C   0  0  0  0  0  0  0  0  0  0  0  0
    4.5160    1.9117    0.0000 C   0  0  0  0  0  0  0  0  0  0  0  0
    5.7354    1.3688    0.0000 C   0  0  0  0  0  0  0  0  0  0  0  0
    5.3549   -0.0513    0.0000 C   0  0  0  0  0  0  0  0  0  0  0  0
    2.7618    0.3395    0.0000 H   0  0  0  0  0  0  0  0  0  0  0  0
    2.8804    0.4256    0.0000 H   0  0  0  0  0  0  0  0  0  0  0  0
    2.7885    1.2137    0.0000 H   0  0  0  0  0  0  0  0  0  0  0  0
    3.7151    1.7487    0.0000 H   0  0  0  0  0  0  0  0  0  0  0  0
    5.4003   -0.3006    0.0000 H   0  0  0  0  0  0  0  0  0  0  0  0
    4.5501    0.4256    0.0000 H   0  0  0  0  0  0  0  0  0  0  0  0
    2.0406    0.6703    0.0000 H   0  0  0  0  0  0  0  0  0  0  0  0
    1.2455   -0.0456    0.0000 H   0  0  0  0  0  0  0  0  0  0  0  0
    0.6324   -0.5976    0.0000 H   0  0  0  0  0  0  0  0  0  0  0  0
    1.8724   -1.9749    0.0000 H   0  0  0  0  0  0  0  0  0  0  0  0
    0.8548   -1.6442    0.0000 H   0  0  0  0  0  0  0  0  0  0  0  0
    3.7491    2.6022    0.0000 H   0  0  0  0  0  0  0  0  0  0  0  0
    6.7617    1.2609    0.0000 H   0  0  0  0  0  0  0  0  0  0  0  0
    4.5597   -0.7672    0.0000 H   0  0  0  0  0  0  0  0  0  0  0  0
    6.3725   -0.3820    0.0000 H   0  0  0  0  0  0  0  0  0  0  0  0
    5.5773   -1.0979    0.0000 H   0  0  0  0  0  0  0  0  0  0  0  0
  1  8  1  0  0  0  0
  1 10  1  0  0  0  0
  2 10  2  0  0  0  0
  3 11  1  0  0  0  0
  3 14  1  0  0  0  0
  3 15  1  0  0  0  0
  4 13  1  0  0  0  0
  4 14  2  0  0  0  0
  5  6  1  0  0  0  0
  5  7  1  0  0  0  0
  5  8  1  0  0  0  0
  5 16  1  6  0  0  0
  6  9  1  0  0  0  0
  6 10  1  0  0  0  0
  6 17  1  6  0  0  0
  7 11  1  0  0  0  0
  7 18  1  0  0  0  0
  7 19  1  0  0  0  0
  8 20  1  0  0  0  0
  8 21  1  0  0  0  0
  9 12  1  0  0  0  0
  9 22  1  0  0  0  0
  9 23  1  0  0  0  0
 11 13  2  0  0  0  0
 12 24  1  0  0  0  0
 12 25  1  0  0  0  0
 12 26  1  0  0  0  0
 13 27  1  0  0  0  0
 14 28  1  0  0  0  0
 15 29  1  0  0  0  0
 15 30  1  0  0  0  0
 15 31  1  0  0  0  0
M  END
>  <DRUGBANK_ID>
DB01085

>  <SECONDARY_ACCESSION_NUMBERS>
APRD00382

>  <COMMON_NAME>
Pilocarpine

>  <CAS_NUMBER>
92-13-7

>  <UNII>
01MI4Q9DI3

>  <SYNONYMS>
2(3H)-FURANONE, 3-ETHYLDIHYDRO-4-((1-METHYL-1H-IMIDAZOL-5-YL)METHYL)-, (3S-CIS)-; OCUCARPINE; Pilocarpina; Pilocarpine; PILOKARPIN; SPERSACARPINE; SYNCARPINE

$$$$
