A42
 OpenBabel10282417072D

 35 36  0  0  0  0  0  0  0  0999 V2000
    1.8493    2.7955    0.0000 C   0  0  0  0  0  0  0  0  0  0  0  0
    1.1348    2.3830    0.0000 N   0  0  0  0  0  0  0  0  0  0  0  0
    1.1348    1.5580    0.0000 C   0  0  0  0  0  0  0  0  0  0  0  0
    1.8493    1.1455    0.0000 C   0  0  0  0  0  0  0  0  0  0  0  0
    2.5637    1.5580    0.0000 N   0  0  0  0  0  0  0  0  0  0  0  0
    2.5637    2.3830    0.0000 C   0  0  0  0  0  0  0  0  0  0  0  0
    1.8493    3.6205    0.0000 C   0  0  0  0  0  0  0  0  0  0  0  0
    1.8493    4.4455    0.0000 N   0  0  0  0  0  0  0  0  0  0  0  0
    1.8493    0.3205    0.0000 N   0  0  0  0  0  0  0  0  0  0  0  0
    1.1348   -0.0920    0.0000 C   0  0  0  0  0  0  0  0  0  0  0  0
    0.4203    0.3205    0.0000 O   0  0  0  0  0  0  0  0  0  0  0  0
    1.1348   -0.9170    0.0000 N   0  0  0  0  0  0  0  0  0  0  0  0
    0.4203   -1.3295    0.0000 C   0  0  0  0  0  0  0  0  0  0  0  0
    0.4203   -2.1545    0.0000 C   0  0  0  0  0  0  0  0  0  0  0  0
   -0.2941   -2.5670    0.0000 C   0  0  0  0  0  0  0  0  0  0  0  0
   -1.0086   -2.1545    0.0000 C   0  0  0  0  0  0  0  0  0  0  0  0
   -1.0086   -1.3295    0.0000 C   0  0  0  0  0  0  0  0  0  0  0  0
   -0.2941   -0.9170    0.0000 C   0  0  0  0  0  0  0  0  0  0  0  0
   -0.2941   -0.0920    0.0000 O   0  0  0  0  0  0  0  0  0  0  0  0
   -1.0086    0.3205    0.0000 C   0  0  0  0  0  0  0  0  0  0  0  0
   -1.7231   -2.5670    0.0000 O   0  0  0  0  0  0  0  0  0  0  0  0
   -1.7231   -3.3920    0.0000 C   0  0  0  0  0  0  0  0  0  0  0  0
   -0.2941   -3.3920    0.0000 Cl  0  0  0  0  0  0  0  0  0  0  0  0
    0.2411    1.0420    0.0000 H   0  0  0  0  0  0  0  0  0  0  0  0
    3.4574    2.8990    0.0000 H   0  0  0  0  0  0  0  0  0  0  0  0
    2.7019   -0.1718    0.0000 H   0  0  0  0  0  0  0  0  0  0  0  0
    1.9874   -1.4093    0.0000 H   0  0  0  0  0  0  0  0  0  0  0  0
    1.3140   -2.6705    0.0000 H   0  0  0  0  0  0  0  0  0  0  0  0
   -1.9023   -0.8135    0.0000 H   0  0  0  0  0  0  0  0  0  0  0  0
   -1.0086    1.3905    0.0000 H   0  0  0  0  0  0  0  0  0  0  0  0
   -1.9352   -0.2145    0.0000 H   0  0  0  0  0  0  0  0  0  0  0  0
   -1.9353    0.8555    0.0000 H   0  0  0  0  0  0  0  0  0  0  0  0
   -2.6497   -3.9270    0.0000 H   0  0  0  0  0  0  0  0  0  0  0  0
   -0.7965   -3.9270    0.0000 H   0  0  0  0  0  0  0  0  0  0  0  0
   -1.7231   -4.4620    0.0000 H   0  0  0  0  0  0  0  0  0  0  0  0
  1  6  2  0  0  0  0
  1  2  1  0  0  0  0
  1  7  1  0  0  0  0
  2  3  2  0  0  0  0
  3  4  1  0  0  0  0
  3 24  1  0  0  0  0
  4  9  1  0  0  0  0
  4  5  2  0  0  0  0
  5  6  1  0  0  0  0
  6 25  1  0  0  0  0
  7  8  3  0  0  0  0
  9 10  1  0  0  0  0
  9 26  1  0  0  0  0
 10 11  2  0  0  0  0
 10 12  1  0  0  0  0
 12 13  1  0  0  0  0
 12 27  1  0  0  0  0
 13 14  1  0  0  0  0
 13 18  2  0  0  0  0
 14 15  2  0  0  0  0
 14 28  1  0  0  0  0
 15 23  1  0  0  0  0
 15 16  1  0  0  0  0
 16 21  1  0  0  0  0
 16 17  2  0  0  0  0
 17 18  1  0  0  0  0
 17 29  1  0  0  0  0
 18 19  1  0  0  0  0
 19 20  1  0  0  0  0
 20 30  1  0  0  0  0
 20 31  1  0  0  0  0
 20 32  1  0  0  0  0
 21 22  1  0  0  0  0
 22 33  1  0  0  0  0
 22 34  1  0  0  0  0
 22 35  1  0  0  0  0
M  END
>  <DRUGBANK_ID>
DB07314

>  <COMMON_NAME>
1-(5-CHLORO-2,4-DIMETHOXYPHENYL)-3-(5-CYANOPYRAZIN-2-YL)UREA

$$$$
