
 OpenBabel10282417072D

 84 88  0  0  0  0  0  0  0  0999 V2000
   -0.0384   -0.9971    0.0000 C   0  0  0  0  0  0  0  0  0  0  0  0
   -0.0384   -0.1720    0.0000 C   0  0  0  0  0  0  0  0  0  0  0  0
    0.6760    0.2404    0.0000 C   0  0  0  0  0  0  0  0  0  0  0  0
    1.3905   -0.1720    0.0000 C   0  0  0  0  0  0  0  0  0  0  0  0
    2.1049    0.2404    0.0000 N   0  3  0  0  0  0  0  0  0  0  0  0
    2.8896    0.4952    0.0000 C   0  0  0  0  0  0  0  0  0  0  0  0
    2.8896    1.3202    0.0000 C   0  0  0  0  0  0  0  0  0  0  0  0
    2.1049    1.5752    0.0000 C   0  0  0  0  0  0  0  0  0  0  0  0
    1.6201    0.9077    0.0000 C   0  0  0  0  0  0  0  0  0  0  0  0
    2.4404   -0.5133    0.0000 C   0  0  0  0  0  0  0  0  0  0  0  0
    3.2610   -0.5995    0.0000 C   0  0  0  0  0  0  0  0  0  0  0  0
    3.5966   -1.3532    0.0000 N   0  0  0  0  0  0  0  0  0  0  0  0
    4.4171   -1.4395    0.0000 C   0  0  0  0  0  0  0  0  0  0  0  0
    4.7526   -2.1930    0.0000 C   0  0  0  0  0  0  0  0  0  0  0  0
    4.2677   -2.8606    0.0000 C   0  0  0  0  0  0  0  0  0  0  0  0
    4.6033   -3.6142    0.0000 C   0  0  0  0  0  0  0  0  0  0  0  0
    5.4236   -3.7005    0.0000 C   0  0  0  0  0  0  0  0  0  0  0  0
    5.7593   -4.4542    0.0000 O   0  0  0  0  0  0  0  0  0  0  0  0
    5.9087   -3.0330    0.0000 C   0  0  0  0  0  0  0  0  0  0  0  0
    6.7290   -3.1192    0.0000 O   0  0  0  0  0  0  0  0  0  0  0  0
    5.5731   -2.2794    0.0000 C   0  0  0  0  0  0  0  0  0  0  0  0
    6.0580   -1.6118    0.0000 Cl  0  0  0  0  0  0  0  0  0  0  0  0
    4.9020   -0.7719    0.0000 O   0  0  0  0  0  0  0  0  0  0  0  0
    0.6760    1.0654    0.0000 C   0  0  0  0  0  0  0  0  0  0  0  0
   -0.0384    1.4778    0.0000 S   0  0  0  0  0  0  0  0  0  0  0  0
   -0.7528    1.0654    0.0000 C   0  0  2  0  0  0  0  0  0  0  0  0
   -0.9664    1.8622    0.0000 H   0  0  0  0  0  0  0  0  0  0  0  0
   -1.5779    1.0654    0.0000 C   0  0  2  0  0  0  0  0  0  0  0  0
   -2.1612    1.6487    0.0000 N   0  0  0  0  0  0  0  0  0  0  0  0
   -2.9582    1.4351    0.0000 C   0  0  0  0  0  0  0  0  0  0  0  0
   -3.1716    0.6383    0.0000 O   0  0  0  0  0  0  0  0  0  0  0  0
   -3.5414    2.0186    0.0000 C   0  0  0  0  0  0  0  0  0  0  0  0
   -3.3280    2.8154    0.0000 C   0  0  0  0  0  0  0  0  0  0  0  0
   -2.5577    3.1111    0.0000 N   0  0  0  0  0  0  0  0  0  0  0  0
   -2.6009    3.9350    0.0000 C   0  0  0  0  0  0  0  0  0  0  0  0
   -1.9597    4.4542    0.0000 N   0  0  0  0  0  0  0  0  0  0  0  0
   -3.3978    4.1485    0.0000 S   0  0  0  0  0  0  0  0  0  0  0  0
   -3.8471    3.4566    0.0000 C   0  0  0  0  0  0  0  0  0  0  0  0
   -4.3384    1.8050    0.0000 N   0  0  0  0  0  0  0  0  0  0  0  0
   -4.5518    1.0080    0.0000 O   0  0  0  0  0  0  0  0  0  0  0  0
   -5.3487    0.7945    0.0000 C   0  0  0  0  0  0  0  0  0  0  0  0
   -5.1352   -0.0023    0.0000 C   0  0  0  0  0  0  0  0  0  0  0  0
   -5.5622    1.5915    0.0000 C   0  0  0  0  0  0  0  0  0  0  0  0
   -6.1457    0.5811    0.0000 C   0  0  0  0  0  0  0  0  0  0  0  0
   -6.7291    1.1645    0.0000 O   0  0  0  0  0  0  0  0  0  0  0  0
   -6.3591   -0.2157    0.0000 O   0  0  0  0  0  0  0  0  0  0  0  0
   -1.5779    0.2404    0.0000 C   0  0  0  0  0  0  0  0  0  0  0  0
   -2.1612   -0.3430    0.0000 O   0  0  0  0  0  0  0  0  0  0  0  0
   -0.7528    0.2404    0.0000 N   0  0  0  0  0  0  0  0  0  0  0  0
    0.6760   -1.4096    0.0000 O   0  0  0  0  0  0  0  0  0  0  0  0
   -0.7528   -1.4096    0.0000 O   0  5  0  0  0  0  0  0  0  0  0  0
    1.3905   -1.2420    0.0000 H   0  0  0  0  0  0  0  0  0  0  0  0
    2.3171   -0.7070    0.0000 H   0  0  0  0  0  0  0  0  0  0  0  0
    3.7552   -0.1338    0.0000 H   0  0  0  0  0  0  0  0  0  0  0  0
    3.8430    0.9809    0.0000 H   0  0  0  0  0  0  0  0  0  0  0  0
    3.7553    1.9491    0.0000 H   0  0  0  0  0  0  0  0  0  0  0  0
    2.7222    2.3770    0.0000 H   0  0  0  0  0  0  0  0  0  0  0  0
    1.7742    2.5928    0.0000 H   0  0  0  0  0  0  0  0  0  0  0  0
    1.0481    1.7425    0.0000 H   0  0  0  0  0  0  0  0  0  0  0  0
    0.5501    0.9076    0.0000 H   0  0  0  0  0  0  0  0  0  0  0  0
    1.1344   -0.0457    0.0000 H   0  0  0  0  0  0  0  0  0  0  0  0
    1.8115   -1.3789    0.0000 H   0  0  0  0  0  0  0  0  0  0  0  0
    2.8756   -1.4908    0.0000 H   0  0  0  0  0  0  0  0  0  0  0  0
    3.8899    0.2662    0.0000 H   0  0  0  0  0  0  0  0  0  0  0  0
    4.3251   -0.7113    0.0000 H   0  0  0  0  0  0  0  0  0  0  0  0
    3.0179   -2.1497    0.0000 H   0  0  0  0  0  0  0  0  0  0  0  0
    3.2413   -2.7528    0.0000 H   0  0  0  0  0  0  0  0  0  0  0  0
    3.9967   -4.4491    0.0000 H   0  0  0  0  0  0  0  0  0  0  0  0
    5.2087   -5.2123    0.0000 H   0  0  0  0  0  0  0  0  0  0  0  0
    7.1101   -3.9752    0.0000 H   0  0  0  0  0  0  0  0  0  0  0  0
    1.6026    1.6004    0.0000 H   0  0  0  0  0  0  0  0  0  0  0  0
    0.6760    2.1354    0.0000 H   0  0  0  0  0  0  0  0  0  0  0  0
   -1.1684    2.0540    0.0000 H   0  0  0  0  0  0  0  0  0  0  0  0
   -1.9064    2.5997    0.0000 H   0  0  0  0  0  0  0  0  0  0  0  0
   -1.0406    4.1014    0.0000 H   0  0  0  0  0  0  0  0  0  0  0  0
   -2.1137    5.4266    0.0000 H   0  0  0  0  0  0  0  0  0  0  0  0
   -4.8777    3.4026    0.0000 H   0  0  0  0  0  0  0  0  0  0  0  0
   -5.8918   -0.7589    0.0000 H   0  0  0  0  0  0  0  0  0  0  0  0
   -4.1017   -0.2792    0.0000 H   0  0  0  0  0  0  0  0  0  0  0  0
   -4.8583   -1.0358    0.0000 H   0  0  0  0  0  0  0  0  0  0  0  0
   -4.8055    2.3481    0.0000 H   0  0  0  0  0  0  0  0  0  0  0  0
   -6.5957    1.8685    0.0000 H   0  0  0  0  0  0  0  0  0  0  0  0
   -5.8391    2.6251    0.0000 H   0  0  0  0  0  0  0  0  0  0  0  0
   -7.2641   -0.4583    0.0000 H   0  0  0  0  0  0  0  0  0  0  0  0
  1  2  1  0  0  0  0
  1 50  2  0  0  0  0
  1 51  1  0  0  0  0
  2  3  2  0  0  0  0
  2 49  1  0  0  0  0
  3  4  1  0  0  0  0
  3 24  1  0  0  0  0
  4  5  1  0  0  0  0
  4 52  1  0  0  0  0
  4 53  1  0  0  0  0
  5  6  1  0  0  0  0
  5  9  1  0  0  0  0
  5 10  1  0  0  0  0
  6  7  1  0  0  0  0
  6 54  1  0  0  0  0
  6 55  1  0  0  0  0
  7 56  1  0  0  0  0
  7 57  1  0  0  0  0
  8  7  1  0  0  0  0
  8 58  1  0  0  0  0
  8 59  1  0  0  0  0
  9  8  1  0  0  0  0
  9 60  1  0  0  0  0
  9 61  1  0  0  0  0
 10 11  1  0  0  0  0
 10 62  1  0  0  0  0
 10 63  1  0  0  0  0
 11 12  1  0  0  0  0
 11 64  1  0  0  0  0
 11 65  1  0  0  0  0
 12 13  1  0  0  0  0
 12 66  1  0  0  0  0
 13 14  1  0  0  0  0
 13 23  2  0  0  0  0
 14 15  1  0  0  0  0
 14 21  2  0  0  0  0
 15 16  2  0  0  0  0
 15 67  1  0  0  0  0
 16 17  1  0  0  0  0
 16 68  1  0  0  0  0
 17 18  1  0  0  0  0
 18 69  1  0  0  0  0
 19 17  2  0  0  0  0
 19 20  1  0  0  0  0
 20 70  1  0  0  0  0
 21 19  1  0  0  0  0
 21 22  1  0  0  0  0
 24 25  1  0  0  0  0
 24 71  1  0  0  0  0
 24 72  1  0  0  0  0
 26 25  1  0  0  0  0
 26 27  1  6  0  0  0
 26 28  1  0  0  0  0
 28 29  1  0  0  0  0
 28 73  1  6  0  0  0
 29 30  1  0  0  0  0
 29 74  1  0  0  0  0
 30 31  2  0  0  0  0
 30 32  1  0  0  0  0
 32 33  1  0  0  0  0
 32 39  2  0  0  0  0
 33 34  1  0  0  0  0
 33 38  2  0  0  0  0
 34 35  2  0  0  0  0
 35 36  1  0  0  0  0
 36 75  1  0  0  0  0
 36 76  1  0  0  0  0
 37 35  1  0  0  0  0
 38 37  1  0  0  0  0
 38 77  1  0  0  0  0
 39 40  1  0  0  0  0
 40 41  1  0  0  0  0
 41 42  1  0  0  0  0
 41 43  1  0  0  0  0
 41 44  1  0  0  0  0
 42 78  1  0  0  0  0
 42 79  1  0  0  0  0
 42 80  1  0  0  0  0
 43 81  1  0  0  0  0
 43 82  1  0  0  0  0
 43 83  1  0  0  0  0
 44 45  2  0  0  0  0
 44 46  1  0  0  0  0
 46 84  1  0  0  0  0
 47 28  1  0  0  0  0
 47 48  2  0  0  0  0
 49 47  1  0  0  0  0
 49 26  1  0  0  0  0
M  CHG  2   5   1  51  -1
M  END
>  <DRUGBANK_ID>
DB14879

>  <COMMON_NAME>
Cefiderocol

>  <CAS_NUMBER>
1225208-94-5

>  <UNII>
SZ34OMG6E8

>  <SYNONYMS>
Cefiderocol

$$$$
