481
 OpenBabel10282417072D

 61 65  0  0  0  0  0  0  0  0999 V2000
    4.5741   -3.8233    0.0000 S   0  0  0  0  0  0  0  0  0  0  0  0
    2.6265    0.7450    0.0000 O   0  0  0  0  0  0  0  0  0  0  0  0
    5.6378   -1.5411    0.0000 O   0  0  0  0  0  0  0  0  0  0  0  0
    1.6500   -3.9843    0.0000 O   0  0  0  0  0  0  0  0  0  0  0  0
    8.3557   -3.1593    0.0000 O   0  0  0  0  0  0  0  0  0  0  0  0
    2.5882    2.9275    0.0000 N   0  0  0  0  0  0  0  0  0  0  0  0
    3.3954    3.0976    0.0000 C   0  0  0  0  0  0  0  0  0  0  0  0
    2.0371    3.5416    0.0000 C   0  0  0  0  0  0  0  0  0  0  0  0
    3.6517    3.8818    0.0000 C   0  0  0  0  0  0  0  0  0  0  0  0
    2.2935    4.3257    0.0000 C   0  0  0  0  0  0  0  0  0  0  0  0
    3.1007    4.4959    0.0000 C   0  0  0  0  0  0  0  0  0  0  0  0
    2.3318    2.1433    0.0000 C   0  0  0  0  0  0  0  0  0  0  0  0
    2.8828    1.5293    0.0000 C   0  0  0  0  0  0  0  0  0  0  0  0
    3.1775    0.1309    0.0000 C   0  0  0  0  0  0  0  0  0  0  0  0
    4.5741   -2.4954    0.0000 C   0  0  0  0  0  0  0  0  0  0  0  0
    3.7935   -2.7468    0.0000 C   0  0  0  0  0  0  0  0  0  0  0  0
    5.0556   -3.1593    0.0000 C   0  0  0  0  0  0  0  0  0  0  0  0
    3.7935   -3.5718    0.0000 C   0  0  0  0  0  0  0  0  0  0  0  0
    4.2795   -1.0972    0.0000 C   0  0  0  0  0  0  0  0  0  0  0  0
    4.8305   -1.7113    0.0000 C   0  0  0  0  0  0  0  0  0  0  0  0
    2.9212   -0.6532    0.0000 C   0  0  0  0  0  0  0  0  0  0  0  0
    3.9848    0.3011    0.0000 C   0  0  0  0  0  0  0  0  0  0  0  0
    3.4722   -1.2673    0.0000 C   0  0  0  0  0  0  0  0  0  0  0  0
    4.5358   -0.3129    0.0000 C   0  0  0  0  0  0  0  0  0  0  0  0
    5.8806   -3.1593    0.0000 C   0  0  0  0  0  0  0  0  0  0  0  0
    3.0791   -2.3343    0.0000 C   0  0  0  0  0  0  0  0  0  0  0  0
    3.0791   -3.9843    0.0000 C   0  0  0  0  0  0  0  0  0  0  0  0
    2.3645   -2.7468    0.0000 C   0  0  0  0  0  0  0  0  0  0  0  0
    2.3645   -3.5718    0.0000 C   0  0  0  0  0  0  0  0  0  0  0  0
    6.2932   -2.4449    0.0000 C   0  0  0  0  0  0  0  0  0  0  0  0
    6.2932   -3.8738    0.0000 C   0  0  0  0  0  0  0  0  0  0  0  0
    7.1182   -2.4449    0.0000 C   0  0  0  0  0  0  0  0  0  0  0  0
    7.1182   -3.8738    0.0000 C   0  0  0  0  0  0  0  0  0  0  0  0
    7.5307   -3.1593    0.0000 C   0  0  0  0  0  0  0  0  0  0  0  0
    0.8385   -3.5158    0.0000 H   0  0  0  0  0  0  0  0  0  0  0  0
    8.8242   -3.9708    0.0000 H   0  0  0  0  0  0  0  0  0  0  0  0
    4.1100    2.3012    0.0000 H   0  0  0  0  0  0  0  0  0  0  0  0
    4.4424    3.3183    0.0000 H   0  0  0  0  0  0  0  0  0  0  0  0
    0.9901    3.3210    0.0000 H   0  0  0  0  0  0  0  0  0  0  0  0
    1.3226    4.3381    0.0000 H   0  0  0  0  0  0  0  0  0  0  0  0
    4.6987    4.1024    0.0000 H   0  0  0  0  0  0  0  0  0  0  0  0
    3.9841    4.8989    0.0000 H   0  0  0  0  0  0  0  0  0  0  0  0
    1.5789    5.1221    0.0000 H   0  0  0  0  0  0  0  0  0  0  0  0
    2.6259    5.3428    0.0000 H   0  0  0  0  0  0  0  0  0  0  0  0
    3.4331    5.5130    0.0000 H   0  0  0  0  0  0  0  0  0  0  0  0
    2.3861    5.2923    0.0000 H   0  0  0  0  0  0  0  0  0  0  0  0
    1.2848    1.9227    0.0000 H   0  0  0  0  0  0  0  0  0  0  0  0
    1.9994    1.1262    0.0000 H   0  0  0  0  0  0  0  0  0  0  0  0
    3.9298    1.7500    0.0000 H   0  0  0  0  0  0  0  0  0  0  0  0
    3.2151    2.5464    0.0000 H   0  0  0  0  0  0  0  0  0  0  0  0
    1.9114   -0.8660    0.0000 H   0  0  0  0  0  0  0  0  0  0  0  0
    4.3053    1.2821    0.0000 H   0  0  0  0  0  0  0  0  0  0  0  0
    3.1516   -2.2482    0.0000 H   0  0  0  0  0  0  0  0  0  0  0  0
    5.5456   -0.1000    0.0000 H   0  0  0  0  0  0  0  0  0  0  0  0
    3.0792   -1.3023    0.0000 H   0  0  0  0  0  0  0  0  0  0  0  0
    3.0792   -5.0163    0.0000 H   0  0  0  0  0  0  0  0  0  0  0  0
    1.4708   -2.2308    0.0000 H   0  0  0  0  0  0  0  0  0  0  0  0
    5.7773   -1.5511    0.0000 H   0  0  0  0  0  0  0  0  0  0  0  0
    5.7772   -4.7676    0.0000 H   0  0  0  0  0  0  0  0  0  0  0  0
    7.6342   -1.5512    0.0000 H   0  0  0  0  0  0  0  0  0  0  0  0
    7.6342   -4.7675    0.0000 H   0  0  0  0  0  0  0  0  0  0  0  0
  1 17  1  0  0  0  0
  1 18  1  0  0  0  0
  2 13  1  0  0  0  0
  2 14  1  0  0  0  0
  3 20  2  0  0  0  0
  4 29  1  0  0  0  0
  4 35  1  0  0  0  0
  5 34  1  0  0  0  0
  5 36  1  0  0  0  0
  6  7  1  0  0  0  0
  6  8  1  0  0  0  0
  6 12  1  0  0  0  0
  7  9  1  0  0  0  0
  7 37  1  0  0  0  0
  7 38  1  0  0  0  0
  8 10  1  0  0  0  0
  8 39  1  0  0  0  0
  8 40  1  0  0  0  0
  9 11  1  0  0  0  0
  9 41  1  0  0  0  0
  9 42  1  0  0  0  0
 10 11  1  0  0  0  0
 10 43  1  0  0  0  0
 10 44  1  0  0  0  0
 11 45  1  0  0  0  0
 11 46  1  0  0  0  0
 12 13  1  0  0  0  0
 12 47  1  0  0  0  0
 12 48  1  0  0  0  0
 13 49  1  0  0  0  0
 13 50  1  0  0  0  0
 14 21  2  0  0  0  0
 14 22  1  0  0  0  0
 15 16  1  0  0  0  0
 15 17  2  0  0  0  0
 15 20  1  0  0  0  0
 16 18  2  0  0  0  0
 16 26  1  0  0  0  0
 17 25  1  0  0  0  0
 18 27  1  0  0  0  0
 19 20  1  0  0  0  0
 19 23  2  0  0  0  0
 19 24  1  0  0  0  0
 21 23  1  0  0  0  0
 21 51  1  0  0  0  0
 22 24  2  0  0  0  0
 22 52  1  0  0  0  0
 23 53  1  0  0  0  0
 24 54  1  0  0  0  0
 25 30  2  0  0  0  0
 25 31  1  0  0  0  0
 26 28  2  0  0  0  0
 26 55  1  0  0  0  0
 27 29  2  0  0  0  0
 27 56  1  0  0  0  0
 28 29  1  0  0  0  0
 28 57  1  0  0  0  0
 30 32  1  0  0  0  0
 30 58  1  0  0  0  0
 31 33  2  0  0  0  0
 31 59  1  0  0  0  0
 32 34  2  0  0  0  0
 32 60  1  0  0  0  0
 33 34  1  0  0  0  0
 33 61  1  0  0  0  0
M  END
>  <DRUGBANK_ID>
DB00481

>  <SECONDARY_ACCESSION_NUMBERS>
APRD00400

>  <COMMON_NAME>
Raloxifene

>  <CAS_NUMBER>
84449-90-1

>  <UNII>
YX9162EO3I

>  <SYNONYMS>
(2-(4-Hydroxyphenyl)-6-hydroxybenzo(b)thien-3-yl)(4-(2-(1-piperidinyl)ethoxy)phenyl)methanone; Raloxif√®ne; Raloxifene; Raloxifeno; Raloxifenum

$$$$
