
 OpenBabel10282417072D

 69 71  0  0  0  0  0  0  0  0999 V2000
   -0.7423    1.7257    0.0000 C   0  0  1  0  0  0  0  0  0  0  0  0
   -0.7423    0.9079    0.0000 C   0  0  1  0  0  0  0  0  0  0  0  0
    0.0413    1.9836    0.0000 C   0  0  2  0  0  0  0  0  0  0  0  0
   -1.4579    0.4941    0.0000 C   0  0  0  0  0  0  0  0  0  0  0  0
    1.4628    2.8210    0.0000 C   0  0  0  0  0  0  0  0  0  0  0  0
   -1.4579   -0.3383    0.0000 C   0  0  0  0  0  0  0  0  0  0  0  0
    2.1784    2.4072    0.0000 C   0  0  0  0  0  0  0  0  0  0  0  0
   -2.1784   -1.5797    0.0000 C   0  0  0  0  0  0  0  0  0  0  0  0
    0.0413    0.6547    0.0000 C   0  0  0  0  0  0  0  0  0  0  0  0
    0.5136    1.3168    0.0000 C   0  0  0  0  0  0  0  0  0  0  0  0
   -2.1784   -0.7473    0.0000 C   0  0  0  0  0  0  0  0  0  0  0  0
    2.8941    1.9983    0.0000 C   0  0  0  0  0  0  0  0  0  0  0  0
   -2.1784   -3.2299    0.0000 C   0  0  0  0  0  0  0  0  0  0  0  0
   -2.8891   -2.8210    0.0000 C   0  0  1  0  0  0  0  0  0  0  0  0
   -1.4628   -2.8210    0.0000 C   0  0  1  0  0  0  0  0  0  0  0  0
   -2.8891   -1.9886    0.0000 C   0  0  0  0  0  0  0  0  0  0  0  0
   -1.4628   -1.9886    0.0000 C   0  0  0  0  0  0  0  0  0  0  0  0
    0.0316    2.8064    0.0000 C   0  0  1  0  0  0  0  0  0  0  0  0
   -1.4579    2.1443    0.0000 C   0  0  0  0  0  0  0  0  0  0  0  0
   -0.7423    2.5532    0.0000 C   0  0  0  0  0  0  0  0  0  0  0  0
    0.7473    3.2299    0.0000 C   0  0  0  0  0  0  0  0  0  0  0  0
    3.6097    2.4072    0.0000 O   0  0  0  0  0  0  0  0  0  0  0  0
   -3.6097   -3.2299    0.0000 O   0  0  0  0  0  0  0  0  0  0  0  0
   -0.7423   -3.2299    0.0000 O   0  0  0  0  0  0  0  0  0  0  0  0
   -2.1784    0.9030    0.0000 C   0  0  0  0  0  0  0  0  0  0  0  0
   -2.1736    1.7354    0.0000 C   0  0  0  0  0  0  0  0  0  0  0  0
    3.3030    1.2827    0.0000 C   0  0  0  0  0  0  0  0  0  0  0  0
    2.4802    1.2827    0.0000 C   0  0  0  0  0  0  0  0  0  0  0  0
   -0.6839    3.2154    0.0000 C   0  0  0  0  0  0  0  0  0  0  0  0
    0.7569    2.3975    0.0000 H   0  0  0  0  0  0  0  0  0  0  0  0
   -0.7423    0.0852    0.0000 H   0  0  0  0  0  0  0  0  0  0  0  0
   -0.5661   -0.8576    0.0000 H   0  0  0  0  0  0  0  0  0  0  0  0
    0.3772   -0.3612    0.0000 H   0  0  0  0  0  0  0  0  0  0  0  0
    1.0993    0.4946    0.0000 H   0  0  0  0  0  0  0  0  0  0  0  0
    1.5836    1.3150    0.0000 H   0  0  0  0  0  0  0  0  0  0  0  0
    1.0027    0.3651    0.0000 H   0  0  0  0  0  0  0  0  0  0  0  0
   -3.0702   -0.2280    0.0000 H   0  0  0  0  0  0  0  0  0  0  0  0
   -2.1800   -4.2999    0.0000 H   0  0  0  0  0  0  0  0  0  0  0  0
   -3.1050   -3.7649    0.0000 H   0  0  0  0  0  0  0  0  0  0  0  0
   -3.8137   -2.2825    0.0000 H   0  0  0  0  0  0  0  0  0  0  0  0
   -1.4612   -3.8910    0.0000 H   0  0  0  0  0  0  0  0  0  0  0  0
   -3.8153   -1.4529    0.0000 H   0  0  0  0  0  0  0  0  0  0  0  0
   -2.8879   -0.9186    0.0000 H   0  0  0  0  0  0  0  0  0  0  0  0
   -0.5374   -1.4515    0.0000 H   0  0  0  0  0  0  0  0  0  0  0  0
   -1.4664   -0.9186    0.0000 H   0  0  0  0  0  0  0  0  0  0  0  0
   -0.8907    2.2640    0.0000 H   0  0  0  0  0  0  0  0  0  0  0  0
   -1.4524    3.2143    0.0000 H   0  0  0  0  0  0  0  0  0  0  0  0
   -2.3820    2.6838    0.0000 H   0  0  0  0  0  0  0  0  0  0  0  0
    0.1843    3.0882    0.0000 H   0  0  0  0  0  0  0  0  0  0  0  0
   -1.6689    3.0882    0.0000 H   0  0  0  0  0  0  0  0  0  0  0  0
   -0.7423    3.6232    0.0000 H   0  0  0  0  0  0  0  0  0  0  0  0
    0.7392    4.2999    0.0000 H   0  0  0  0  0  0  0  0  0  0  0  0
   -0.1842    3.7564    0.0000 H   0  0  0  0  0  0  0  0  0  0  0  0
    4.4476    1.9185    0.0000 H   0  0  0  0  0  0  0  0  0  0  0  0
   -4.4461   -2.7386    0.0000 H   0  0  0  0  0  0  0  0  0  0  0  0
   -0.7351   -4.1999    0.0000 H   0  0  0  0  0  0  0  0  0  0  0  0
   -3.1046    0.3672    0.0000 H   0  0  0  0  0  0  0  0  0  0  0  0
   -2.1740   -0.1670    0.0000 H   0  0  0  0  0  0  0  0  0  0  0  0
   -3.0975    2.2752    0.0000 H   0  0  0  0  0  0  0  0  0  0  0  0
   -2.1684    2.8054    0.0000 H   0  0  0  0  0  0  0  0  0  0  0  0
    2.7639    0.3585    0.0000 H   0  0  0  0  0  0  0  0  0  0  0  0
    4.3730    1.2779    0.0000 H   0  0  0  0  0  0  0  0  0  0  0  0
    3.8339    0.3537    0.0000 H   0  0  0  0  0  0  0  0  0  0  0  0
    1.4102    1.2835    0.0000 H   0  0  0  0  0  0  0  0  0  0  0  0
    3.0145    0.3556    0.0000 H   0  0  0  0  0  0  0  0  0  0  0  0
    1.9445    0.3565    0.0000 H   0  0  0  0  0  0  0  0  0  0  0  0
   -0.6885    4.2854    0.0000 H   0  0  0  0  0  0  0  0  0  0  0  0
   -1.6082    2.6764    0.0000 H   0  0  0  0  0  0  0  0  0  0  0  0
   -1.6128    3.7464    0.0000 H   0  0  0  0  0  0  0  0  0  0  0  0
  1 20  1  1  0  0  0
  2  1  1  0  0  0  0
  2 31  1  1  0  0  0
  3  1  1  0  0  0  0
  3 30  1  6  0  0  0
  4  2  1  0  0  0  0
  5 21  1  0  0  0  0
  6  4  2  0  0  0  0
  6 32  1  0  0  0  0
  7  5  3  0  0  0  0
  8 11  2  0  0  0  0
  9  2  1  0  0  0  0
  9 33  1  0  0  0  0
  9 34  1  0  0  0  0
 10  3  1  0  0  0  0
 10  9  1  0  0  0  0
 10 35  1  0  0  0  0
 10 36  1  0  0  0  0
 11  6  1  0  0  0  0
 11 37  1  0  0  0  0
 12  7  1  0  0  0  0
 13 15  1  0  0  0  0
 13 14  1  0  0  0  0
 13 38  1  0  0  0  0
 13 39  1  0  0  0  0
 14 16  1  0  0  0  0
 14 23  1  0  0  0  0
 14 40  1  1  0  0  0
 15 17  1  0  0  0  0
 15 24  1  0  0  0  0
 15 41  1  6  0  0  0
 16  8  1  0  0  0  0
 16 42  1  0  0  0  0
 16 43  1  0  0  0  0
 17  8  1  0  0  0  0
 17 44  1  0  0  0  0
 17 45  1  0  0  0  0
 18  3  1  0  0  0  0
 18 29  1  0  0  0  0
 18 46  1  1  0  0  0
 19  1  1  0  0  0  0
 19 47  1  0  0  0  0
 19 48  1  0  0  0  0
 20 49  1  0  0  0  0
 20 50  1  0  0  0  0
 20 51  1  0  0  0  0
 21 18  1  0  0  0  0
 21 52  1  0  0  0  0
 21 53  1  0  0  0  0
 22 12  1  0  0  0  0
 22 54  1  0  0  0  0
 23 55  1  0  0  0  0
 24 56  1  0  0  0  0
 25 26  1  0  0  0  0
 25  4  1  0  0  0  0
 25 57  1  0  0  0  0
 25 58  1  0  0  0  0
 26 19  1  0  0  0  0
 26 59  1  0  0  0  0
 26 60  1  0  0  0  0
 27 12  1  0  0  0  0
 27 61  1  0  0  0  0
 27 62  1  0  0  0  0
 27 63  1  0  0  0  0
 28 12  1  0  0  0  0
 28 64  1  0  0  0  0
 28 65  1  0  0  0  0
 28 66  1  0  0  0  0
 29 67  1  0  0  0  0
 29 68  1  0  0  0  0
 29 69  1  0  0  0  0
M  END
>  <DRUGBANK_ID>
DB04796

>  <COMMON_NAME>
Inecalcitol

>  <CAS_NUMBER>
163217-09-2

>  <UNII>
05FZV98342

>  <SYNONYMS>
(7E)-19-Nor-9,10-seco-14beta-cholesta-5,7-dien-23-yne-1alpha,3beta,25-triol; Inecalcitol

$$$$
