
 OpenBabel10282417072D

 54 57  0  0  0  0  0  0  0  0999 V2000
    0.7145    1.2375    0.0000 O   0  5  0  0  0  0  0  0  0  0  0  0
    1.4289    0.8250    0.0000 N   0  3  0  0  0  0  0  0  0  0  0  0
    2.1434    1.2375    0.0000 O   0  0  0  0  0  0  0  0  0  0  0  0
    1.4289    0.0000    0.0000 C   0  0  0  0  0  0  0  0  0  0  0  0
    2.1434   -0.4125    0.0000 C   0  0  0  0  0  0  0  0  0  0  0  0
    2.8579    0.0000    0.0000 S   0  0  0  0  0  0  0  0  0  0  0  0
    3.5724   -0.4125    0.0000 C   0  0  0  0  0  0  0  0  0  0  0  0
    3.5724   -1.2375    0.0000 N   0  0  0  0  0  0  0  0  0  0  0  0
    2.8579   -1.6500    0.0000 C   0  0  0  0  0  0  0  0  0  0  0  0
    2.8579   -2.4750    0.0000 O   0  0  0  0  0  0  0  0  0  0  0  0
    2.1434   -1.2375    0.0000 C   0  0  0  0  0  0  0  0  0  0  0  0
    1.4289   -1.6500    0.0000 C   0  0  0  0  0  0  0  0  0  0  0  0
    0.7145   -1.2375    0.0000 C   0  0  0  0  0  0  0  0  0  0  0  0
    0.7145   -0.4125    0.0000 C   0  0  0  0  0  0  0  0  0  0  0  0
    0.0000   -1.6500    0.0000 C   0  0  0  0  0  0  0  0  0  0  0  0
   -0.7145   -2.0625    0.0000 F   0  0  0  0  0  0  0  0  0  0  0  0
    0.4125   -2.3645    0.0000 F   0  0  0  0  0  0  0  0  0  0  0  0
   -0.4125   -0.9355    0.0000 F   0  0  0  0  0  0  0  0  0  0  0  0
    4.2868   -0.0000    0.0000 N   0  0  0  0  0  0  0  0  0  0  0  0
    4.2868    0.8250    0.0000 C   0  0  0  0  0  0  0  0  0  0  0  0
    5.0013    1.2375    0.0000 C   0  0  0  0  0  0  0  0  0  0  0  0
    5.7158    0.8250    0.0000 N   0  0  0  0  0  0  0  0  0  0  0  0
    6.4302    1.2375    0.0000 C   0  0  0  0  0  0  0  0  0  0  0  0
    7.1447    0.8250    0.0000 C   0  0  0  0  0  0  0  0  0  0  0  0
    7.8592    1.2375    0.0000 C   0  0  0  0  0  0  0  0  0  0  0  0
    8.5737    0.8250    0.0000 C   0  0  0  0  0  0  0  0  0  0  0  0
    8.5737   -0.0000    0.0000 C   0  0  0  0  0  0  0  0  0  0  0  0
    7.8592   -0.4125    0.0000 C   0  0  0  0  0  0  0  0  0  0  0  0
    7.1447   -0.0000    0.0000 C   0  0  0  0  0  0  0  0  0  0  0  0
    5.7158   -0.0000    0.0000 C   0  0  0  0  0  0  0  0  0  0  0  0
    5.0013   -0.4125    0.0000 C   0  0  0  0  0  0  0  0  0  0  0  0
    1.4289   -2.6820    0.0000 H   0  0  0  0  0  0  0  0  0  0  0  0
   -0.1792    0.1035    0.0000 H   0  0  0  0  0  0  0  0  0  0  0  0
    3.3602    1.3600    0.0000 H   0  0  0  0  0  0  0  0  0  0  0  0
    4.2868    1.8950    0.0000 H   0  0  0  0  0  0  0  0  0  0  0  0
    5.0013    2.3075    0.0000 H   0  0  0  0  0  0  0  0  0  0  0  0
    5.9279    1.7725    0.0000 H   0  0  0  0  0  0  0  0  0  0  0  0
    6.4302    2.3075    0.0000 H   0  0  0  0  0  0  0  0  0  0  0  0
    7.3568    1.7725    0.0000 H   0  0  0  0  0  0  0  0  0  0  0  0
    8.0713    0.2900    0.0000 H   0  0  0  0  0  0  0  0  0  0  0  0
    7.8592    2.3075    0.0000 H   0  0  0  0  0  0  0  0  0  0  0  0
    8.7858    1.7725    0.0000 H   0  0  0  0  0  0  0  0  0  0  0  0
    9.5003    1.3600    0.0000 H   0  0  0  0  0  0  0  0  0  0  0  0
    9.5003    0.2900    0.0000 H   0  0  0  0  0  0  0  0  0  0  0  0
    9.5003   -0.5350    0.0000 H   0  0  0  0  0  0  0  0  0  0  0  0
    8.5737   -1.0700    0.0000 H   0  0  0  0  0  0  0  0  0  0  0  0
    7.8592   -1.4825    0.0000 H   0  0  0  0  0  0  0  0  0  0  0  0
    6.9326   -0.9475    0.0000 H   0  0  0  0  0  0  0  0  0  0  0  0
    6.2181   -0.5350    0.0000 H   0  0  0  0  0  0  0  0  0  0  0  0
    6.2181    0.5350    0.0000 H   0  0  0  0  0  0  0  0  0  0  0  0
    6.6424   -0.5350    0.0000 H   0  0  0  0  0  0  0  0  0  0  0  0
    5.7158   -1.0700    0.0000 H   0  0  0  0  0  0  0  0  0  0  0  0
    5.0013   -1.4825    0.0000 H   0  0  0  0  0  0  0  0  0  0  0  0
    4.0747   -0.9475    0.0000 H   0  0  0  0  0  0  0  0  0  0  0  0
  1  2  1  0  0  0  0
  2  3  2  0  0  0  0
  2  4  1  0  0  0  0
  4  5  2  0  0  0  0
  4 14  1  0  0  0  0
  5  6  1  0  0  0  0
  5 11  1  0  0  0  0
  6  7  1  0  0  0  0
  7  8  2  0  0  0  0
  7 19  1  0  0  0  0
  8  9  1  0  0  0  0
  9 10  2  0  0  0  0
  9 11  1  0  0  0  0
 11 12  2  0  0  0  0
 12 13  1  0  0  0  0
 12 32  1  0  0  0  0
 13 14  2  0  0  0  0
 13 15  1  0  0  0  0
 14 33  1  0  0  0  0
 15 16  1  0  0  0  0
 15 17  1  0  0  0  0
 15 18  1  0  0  0  0
 19 20  1  0  0  0  0
 19 31  1  0  0  0  0
 20 21  1  0  0  0  0
 20 34  1  0  0  0  0
 20 35  1  0  0  0  0
 21 22  1  0  0  0  0
 21 36  1  0  0  0  0
 21 37  1  0  0  0  0
 22 23  1  0  0  0  0
 22 30  1  0  0  0  0
 23 24  1  0  0  0  0
 23 38  1  0  0  0  0
 23 39  1  0  0  0  0
 24 25  1  0  0  0  0
 24 29  1  0  0  0  0
 24 40  1  0  0  0  0
 25 26  1  0  0  0  0
 25 41  1  0  0  0  0
 25 42  1  0  0  0  0
 26 27  1  0  0  0  0
 26 43  1  0  0  0  0
 26 44  1  0  0  0  0
 27 28  1  0  0  0  0
 27 45  1  0  0  0  0
 27 46  1  0  0  0  0
 28 29  1  0  0  0  0
 28 47  1  0  0  0  0
 28 48  1  0  0  0  0
 29 49  1  0  0  0  0
 29 50  1  0  0  0  0
 30 31  1  0  0  0  0
 30 51  1  0  0  0  0
 30 52  1  0  0  0  0
 31 53  1  0  0  0  0
 31 54  1  0  0  0  0
M  CHG  2   1  -1   2   1
M  END
>  <DRUGBANK_ID>
DB14821

>  <COMMON_NAME>
Macozinone

>  <CAS_NUMBER>
1377239-83-2

>  <UNII>
A3M1353L40

>  <SYNONYMS>
Macozinone

$$$$
