3162
 OpenBabel10282417072D

 42 43  0  0  1  0  0  0  0  0999 V2000
    3.3001    0.0000    0.0000 O   0  0  0  0  0  0  0  0  0  0  0  0
    4.9501   -1.4289    0.0000 N   0  0  0  0  0  0  0  0  0  0  0  0
    3.1895   -1.2375    0.0000 N   0  0  0  0  0  0  0  0  0  0  0  0
    2.4751    0.0000    0.0000 C   0  0  3  0  0  0  0  0  0  0  0  0
    2.4751    0.8250    0.0000 C   0  0  0  0  0  0  0  0  0  0  0  0
    2.4751   -0.8250    0.0000 C   0  0  0  0  0  0  0  0  0  0  0  0
    1.6500    0.0000    0.0000 C   0  0  0  0  0  0  0  0  0  0  0  0
    3.7126   -0.7145    0.0000 C   0  0  0  0  0  0  0  0  0  0  0  0
    4.5376   -0.7145    0.0000 C   0  0  0  0  0  0  0  0  0  0  0  0
    1.7606    1.2375    0.0000 C   0  0  0  0  0  0  0  0  0  0  0  0
    3.1895    1.2375    0.0000 C   0  0  0  0  0  0  0  0  0  0  0  0
    1.7606   -1.2375    0.0000 C   0  0  0  0  0  0  0  0  0  0  0  0
    1.7606    2.0625    0.0000 C   0  0  0  0  0  0  0  0  0  0  0  0
    3.1895    2.0625    0.0000 C   0  0  0  0  0  0  0  0  0  0  0  0
    1.7606   -2.0625    0.0000 C   0  0  0  0  0  0  0  0  0  0  0  0
    2.4751    2.4751    0.0000 C   0  0  0  0  0  0  0  0  0  0  0  0
    5.7751   -1.4289    0.0000 C   0  0  0  0  0  0  0  0  0  0  0  0
    4.5376   -2.1435    0.0000 C   0  0  0  0  0  0  0  0  0  0  0  0
    3.1895   -2.0625    0.0000 C   0  0  0  0  0  0  0  0  0  0  0  0
    2.4751   -2.4751    0.0000 C   0  0  0  0  0  0  0  0  0  0  0  0
    1.1150    0.9266    0.0000 H   0  0  0  0  0  0  0  0  0  0  0  0
    1.1150   -0.9266    0.0000 H   0  0  0  0  0  0  0  0  0  0  0  0
    0.5800    0.0000    0.0000 H   0  0  0  0  0  0  0  0  0  0  0  0
    3.1776   -1.6411    0.0000 H   0  0  0  0  0  0  0  0  0  0  0  0
    4.2476   -1.6411    0.0000 H   0  0  0  0  0  0  0  0  0  0  0  0
    5.0726    0.2122    0.0000 H   0  0  0  0  0  0  0  0  0  0  0  0
    4.0026    0.2121    0.0000 H   0  0  0  0  0  0  0  0  0  0  0  0
    0.8669    0.7215    0.0000 H   0  0  0  0  0  0  0  0  0  0  0  0
    4.0832    0.7215    0.0000 H   0  0  0  0  0  0  0  0  0  0  0  0
    0.8669   -0.7215    0.0000 H   0  0  0  0  0  0  0  0  0  0  0  0
    0.8668    2.5785    0.0000 H   0  0  0  0  0  0  0  0  0  0  0  0
    4.0833    2.5784    0.0000 H   0  0  0  0  0  0  0  0  0  0  0  0
    0.8668   -2.5785    0.0000 H   0  0  0  0  0  0  0  0  0  0  0  0
    2.4751    3.5071    0.0000 H   0  0  0  0  0  0  0  0  0  0  0  0
    6.3101   -2.3555    0.0000 H   0  0  0  0  0  0  0  0  0  0  0  0
    6.3101   -0.5023    0.0000 H   0  0  0  0  0  0  0  0  0  0  0  0
    6.8451   -1.4289    0.0000 H   0  0  0  0  0  0  0  0  0  0  0  0
    3.4676   -2.1436    0.0000 H   0  0  0  0  0  0  0  0  0  0  0  0
    5.0727   -3.0701    0.0000 H   0  0  0  0  0  0  0  0  0  0  0  0
    4.0027   -3.0702    0.0000 H   0  0  0  0  0  0  0  0  0  0  0  0
    4.0833   -2.5784    0.0000 H   0  0  0  0  0  0  0  0  0  0  0  0
    2.4751   -3.5071    0.0000 H   0  0  0  0  0  0  0  0  0  0  0  0
  1  4  1  0  0  0  0
  1  8  1  0  0  0  0
  2  9  1  0  0  0  0
  2 17  1  0  0  0  0
  2 18  1  0  0  0  0
  3  6  1  0  0  0  0
  3 19  2  0  0  0  0
  4  5  1  0  0  0  0
  4  6  1  0  0  0  0
  4  7  1  0  0  0  0
  5 10  2  0  0  0  0
  5 11  1  0  0  0  0
  6 12  2  0  0  0  0
  7 21  1  0  0  0  0
  7 22  1  0  0  0  0
  7 23  1  0  0  0  0
  8  9  1  0  0  0  0
  8 24  1  0  0  0  0
  8 25  1  0  0  0  0
  9 26  1  0  0  0  0
  9 27  1  0  0  0  0
 10 13  1  0  0  0  0
 10 28  1  0  0  0  0
 11 14  2  0  0  0  0
 11 29  1  0  0  0  0
 12 15  1  0  0  0  0
 12 30  1  0  0  0  0
 13 16  2  0  0  0  0
 13 31  1  0  0  0  0
 14 16  1  0  0  0  0
 14 32  1  0  0  0  0
 15 20  2  0  0  0  0
 15 33  1  0  0  0  0
 16 34  1  0  0  0  0
 17 35  1  0  0  0  0
 17 36  1  0  0  0  0
 17 37  1  0  0  0  0
 18 38  1  0  0  0  0
 18 39  1  0  0  0  0
 18 40  1  0  0  0  0
 19 20  1  0  0  0  0
 19 41  1  0  0  0  0
 20 42  1  0  0  0  0
M  END
>  <DRUGBANK_ID>
DB00366

>  <SECONDARY_ACCESSION_NUMBERS>
APRD00937

>  <COMMON_NAME>
Doxylamine

>  <CAS_NUMBER>
469-21-6

>  <UNII>
95QB77JKPL

>  <SYNONYMS>
2-(alpha-(2-(Dimethylamino)ethoxy)-alpha-methylbenzyl)pyridine; 2-Dimethylaminoethoxyphenylmethyl-2-picoline; Dossilamina; Doxilamina; Doxilminio; Doxylamine; Doxylaminum; N,N-Dimethyl-2-(1-phenyl-1-(2-pyridinyl)ethoxy)ethanamine; Phenyl-2-pyridylmethyl-beta-N,N-dimethylaminoethyl ether

$$$$
