
 OpenBabel10282417072D

 30 32  0  0  0  0  0  0  0  0999 V2000
    5.0013    1.2375    0.0000 C   0  0  0  0  0  0  0  0  0  0  0  0
    0.7145    1.2375    0.0000 C   0  0  0  0  0  0  0  0  0  0  0  0
    5.0013    2.0625    0.0000 C   0  0  0  0  0  0  0  0  0  0  0  0
    0.7145    2.0625    0.0000 C   0  0  0  0  0  0  0  0  0  0  0  0
    4.2868    0.8250    0.0000 C   0  0  0  0  0  0  0  0  0  0  0  0
    1.4289    0.8250    0.0000 C   0  0  0  0  0  0  0  0  0  0  0  0
    4.2868    2.4750    0.0000 C   0  0  0  0  0  0  0  0  0  0  0  0
    1.4289    2.4750    0.0000 C   0  0  0  0  0  0  0  0  0  0  0  0
    2.8579    3.3000    0.0000 C   0  0  0  0  0  0  0  0  0  0  0  0
    3.5724    1.2375    0.0000 C   0  0  0  0  0  0  0  0  0  0  0  0
    2.1434    1.2375    0.0000 C   0  0  0  0  0  0  0  0  0  0  0  0
    3.5724    2.0625    0.0000 C   0  0  0  0  0  0  0  0  0  0  0  0
    2.1434    2.0625    0.0000 C   0  0  0  0  0  0  0  0  0  0  0  0
    2.1434    3.7125    0.0000 C   0  0  0  0  0  0  0  0  0  0  0  0
    2.8579    0.8250    0.0000 C   0  0  0  0  0  0  0  0  0  0  0  0
    2.8579    2.4750    0.0000 N   0  0  0  0  0  0  0  0  0  0  0  0
    1.4289    3.3000    0.0000 O   0  0  0  0  0  0  0  0  0  0  0  0
    2.1434    4.5375    0.0000 O   0  0  0  0  0  0  0  0  0  0  0  0
    2.8579    0.0000    0.0000 O   0  0  0  0  0  0  0  0  0  0  0  0
    5.8950    0.7215    0.0000 H   0  0  0  0  0  0  0  0  0  0  0  0
   -0.1792    0.7215    0.0000 H   0  0  0  0  0  0  0  0  0  0  0  0
    5.8950    2.5785    0.0000 H   0  0  0  0  0  0  0  0  0  0  0  0
   -0.1792    2.5785    0.0000 H   0  0  0  0  0  0  0  0  0  0  0  0
    4.2868   -0.2070    0.0000 H   0  0  0  0  0  0  0  0  0  0  0  0
    1.4289   -0.2070    0.0000 H   0  0  0  0  0  0  0  0  0  0  0  0
    4.2868    3.5070    0.0000 H   0  0  0  0  0  0  0  0  0  0  0  0
    1.4289    3.5070    0.0000 H   0  0  0  0  0  0  0  0  0  0  0  0
    3.7845    3.8350    0.0000 H   0  0  0  0  0  0  0  0  0  0  0  0
    3.7845    2.7650    0.0000 H   0  0  0  0  0  0  0  0  0  0  0  0
    2.9549    5.0060    0.0000 H   0  0  0  0  0  0  0  0  0  0  0  0
  1 20  1  0  0  0  0
  2 21  1  0  0  0  0
  3  1  2  0  0  0  0
  3 22  1  0  0  0  0
  4  2  2  0  0  0  0
  4 23  1  0  0  0  0
  5  1  1  0  0  0  0
  5 24  1  0  0  0  0
  6  2  1  0  0  0  0
  6 25  1  0  0  0  0
  7  3  1  0  0  0  0
  7 26  1  0  0  0  0
  8  4  1  0  0  0  0
  8 27  1  0  0  0  0
  9 28  1  0  0  0  0
  9 29  1  0  0  0  0
 10  5  2  0  0  0  0
 11  6  2  0  0  0  0
 12  7  2  0  0  0  0
 12 10  1  0  0  0  0
 13  8  2  0  0  0  0
 13 11  1  0  0  0  0
 14  9  1  0  0  0  0
 15 10  1  0  0  0  0
 15 11  1  0  0  0  0
 16  9  1  0  0  0  0
 16 12  1  0  0  0  0
 16 13  1  0  0  0  0
 17 14  2  0  0  0  0
 18 14  1  0  0  0  0
 18 30  1  0  0  0  0
 19 15  2  0  0  0  0
M  END
>  <DRUGBANK_ID>
DB13674

>  <COMMON_NAME>
Cridanimod

>  <CAS_NUMBER>
38609-97-1

>  <UNII>
X91E9EME19

>  <SYNONYMS>
Cridanimod

$$$$
