
 OpenBabel10282417072D

183184  0  0  0  0  0  0  0  0999 V2000
    6.8044   -2.0573    0.0000 N   0  0  0  0  0  0  0  0  0  0  0  0
    6.0896   -2.4673    0.0000 C   0  0  2  0  0  0  0  0  0  0  0  0
   -2.4898    0.0075    0.0000 C   0  0  1  0  0  0  0  0  0  0  0  0
   -1.7699    0.4125    0.0000 C   0  0  0  0  0  0  0  0  0  0  0  0
    6.7945    1.2274    0.0000 N   0  0  0  0  0  0  0  0  0  0  0  0
    4.6646    1.6424    0.0000 N   0  0  0  0  0  0  0  0  0  0  0  0
   -3.1998    0.4125    0.0000 N   0  0  0  0  0  0  0  0  0  0  0  0
    8.2143    0.4125    0.0000 N   0  0  0  0  0  0  0  0  0  0  0  0
    7.5094   -2.4673    0.0000 C   0  0  0  0  0  0  0  0  0  0  0  0
    8.2194   -1.2323    0.0000 N   0  0  0  0  0  0  0  0  0  0  0  0
    2.5298    1.1975    0.0000 N   0  0  0  0  0  0  0  0  0  0  0  0
    6.0896    1.6424    0.0000 C   0  0  0  0  0  0  0  0  0  0  0  0
    8.2194    1.2374    0.0000 C   0  0  0  0  0  0  0  0  0  0  0  0
    3.9447    1.2223    0.0000 C   0  0  0  0  0  0  0  0  0  0  0  0
    8.9243   -0.8173    0.0000 C   0  0  0  0  0  0  0  0  0  0  0  0
    2.5198    0.3824    0.0000 C   0  0  0  0  0  0  0  0  0  0  0  0
   -3.9147    0.0075    0.0000 C   0  0  0  0  0  0  0  0  0  0  0  0
    5.2745   -2.4622    0.0000 C   0  0  0  0  0  0  0  0  0  0  0  0
    5.3796    1.2223    0.0000 C   0  0  1  0  0  0  0  0  0  0  0  0
    7.5094    1.6424    0.0000 C   0  0  2  0  0  0  0  0  0  0  0  0
    0.3749    0.0075    0.0000 C   0  0  0  0  0  0  0  0  0  0  0  0
   -1.0499    0.0075    0.0000 N   0  0  0  0  0  0  0  0  0  0  0  0
    1.0949    0.3974    0.0000 N   0  0  0  0  0  0  0  0  0  0  0  0
    8.2194   -2.0473    0.0000 C   0  0  1  0  0  0  0  0  0  0  0  0
    3.2397    1.6273    0.0000 C   0  0  1  0  0  0  0  0  0  0  0  0
    8.9243    0.0075    0.0000 C   0  0  2  0  0  0  0  0  0  0  0  0
    1.7998   -0.0225    0.0000 C   0  0  1  0  0  0  0  0  0  0  0  0
   -5.3546    0.0075    0.0000 N   0  0  0  0  0  0  0  0  0  0  0  0
   -0.3449    0.4125    0.0000 C   0  0  1  0  0  0  0  0  0  0  0  0
    4.8545   -3.1722    0.0000 N   0  0  0  0  0  0  0  0  0  0  0  0
   -4.6347    0.4175    0.0000 C   0  0  1  0  0  0  0  0  0  0  0  0
   -6.0646    0.4125    0.0000 C   0  0  0  0  0  0  0  0  0  0  0  0
   -1.7699    1.2374    0.0000 O   0  0  0  0  0  0  0  0  0  0  0  0
    7.5094   -3.2923    0.0000 O   0  0  0  0  0  0  0  0  0  0  0  0
    8.9343    1.6424    0.0000 O   0  0  0  0  0  0  0  0  0  0  0  0
    6.0896    2.4673    0.0000 O   0  0  0  0  0  0  0  0  0  0  0  0
    3.9597    0.3974    0.0000 O   0  0  0  0  0  0  0  0  0  0  0  0
    9.6443   -1.2323    0.0000 O   0  0  0  0  0  0  0  0  0  0  0  0
    3.2347   -0.0375    0.0000 O   0  0  0  0  0  0  0  0  0  0  0  0
    5.3796    0.3974    0.0000 C   0  0  0  0  0  0  0  0  0  0  0  0
   -3.9147   -0.8173    0.0000 O   0  0  0  0  0  0  0  0  0  0  0  0
    0.3749   -0.8273    0.0000 O   0  0  0  0  0  0  0  0  0  0  0  0
    4.8596   -1.7423    0.0000 O   0  0  0  0  0  0  0  0  0  0  0  0
    7.4995    2.4673    0.0000 C   0  0  0  0  0  0  0  0  0  0  0  0
    6.0896   -3.2923    0.0000 C   0  0  2  0  0  0  0  0  0  0  0  0
   -2.4898   -0.8273    0.0000 C   0  0  2  0  0  0  0  0  0  0  0  0
   -6.0646    1.2374    0.0000 O   0  0  0  0  0  0  0  0  0  0  0  0
    1.7848   -0.8474    0.0000 C   0  0  0  0  0  0  0  0  0  0  0  0
    4.0296   -3.1722    0.0000 C   0  0  0  0  0  0  0  0  0  0  0  0
    8.9394   -2.4673    0.0000 C   0  0  0  0  0  0  0  0  0  0  0  0
    9.6443    0.4125    0.0000 C   0  0  0  0  0  0  0  0  0  0  0  0
    3.2247    2.4522    0.0000 C   0  0  0  0  0  0  0  0  0  0  0  0
   -0.3449    1.2374    0.0000 C   0  0  0  0  0  0  0  0  0  0  0  0
   -4.6347    1.2424    0.0000 C   0  0  0  0  0  0  0  0  0  0  0  0
    6.0896   -0.0075    0.0000 C   0  0  0  0  0  0  0  0  0  0  0  0
   11.0692    0.4125    0.0000 N   0  0  0  0  0  0  0  0  0  0  0  0
   -3.9147    2.4823    0.0000 N   0  0  0  0  0  0  0  0  0  0  0  0
    0.3749    2.4823    0.0000 N   0  0  0  0  0  0  0  0  0  0  0  0
    9.6593   -3.6972    0.0000 N   0  0  0  0  0  0  0  0  0  0  0  0
    2.4898    3.6822    0.0000 N   0  0  0  0  0  0  0  0  0  0  0  0
    5.3846   -3.7122    0.0000 O   0  0  0  0  0  0  0  0  0  0  0  0
   -1.7699   -1.2374    0.0000 O   0  0  0  0  0  0  0  0  0  0  0  0
    8.2194    2.8873    0.0000 C   0  0  0  0  0  0  0  0  0  0  0  0
   -6.7795    0.0075    0.0000 C   0  0  0  0  0  0  0  0  0  0  0  0
   10.3592    0.0075    0.0000 C   0  0  0  0  0  0  0  0  0  0  0  0
    2.5048    2.8572    0.0000 C   0  0  0  0  0  0  0  0  0  0  0  0
    8.9394   -3.2923    0.0000 C   0  0  0  0  0  0  0  0  0  0  0  0
   -3.9147    1.6574    0.0000 C   0  0  0  0  0  0  0  0  0  0  0  0
    0.3749    1.6574    0.0000 C   0  0  0  0  0  0  0  0  0  0  0  0
    6.8095   -3.7122    0.0000 C   0  0  0  0  0  0  0  0  0  0  0  0
   -3.1998   -1.2374    0.0000 C   0  0  0  0  0  0  0  0  0  0  0  0
    6.0896   -0.8423    0.0000 C   0  0  0  0  0  0  0  0  0  0  0  0
    6.8044    0.4025    0.0000 C   0  0  0  0  0  0  0  0  0  0  0  0
   -9.6443    0.0075    0.0000 C   0  0  3  0  0  0  0  0  0  0  0  0
   -7.4895    0.4125    0.0000 C   0  0  0  0  0  0  0  0  0  0  0  0
  -10.3543    0.4125    0.0000 C   0  0  0  0  0  0  0  0  0  0  0  0
   -8.9243    0.4125    0.0000 C   0  0  0  0  0  0  0  0  0  0  0  0
    8.9394    2.4723    0.0000 C   0  0  0  0  0  0  0  0  0  0  0  0
    8.2194    3.7122    0.0000 C   0  0  0  0  0  0  0  0  0  0  0  0
   -8.2044    0.0075    0.0000 C   0  0  0  0  0  0  0  0  0  0  0  0
   -9.6443   -0.8273    0.0000 C   0  0  0  0  0  0  0  0  0  0  0  0
  -11.0692   -0.0024    0.0000 C   0  0  0  0  0  0  0  0  0  0  0  0
    6.8044   -1.2473    0.0000 C   0  0  0  0  0  0  0  0  0  0  0  0
    7.5145   -0.0024    0.0000 C   0  0  0  0  0  0  0  0  0  0  0  0
    7.5244   -0.8324    0.0000 C   0  0  0  0  0  0  0  0  0  0  0  0
    7.1279   -3.0687    0.0000 H   0  0  0  0  0  0  0  0  0  0  0  0
    6.8073   -1.0728    0.0000 H   0  0  0  0  0  0  0  0  0  0  0  0
   -2.4866    1.0775    0.0000 H   0  0  0  0  0  0  0  0  0  0  0  0
    6.7915    0.2429    0.0000 H   0  0  0  0  0  0  0  0  0  0  0  0
    4.6661    2.6269    0.0000 H   0  0  0  0  0  0  0  0  0  0  0  0
   -3.1983    1.3970    0.0000 H   0  0  0  0  0  0  0  0  0  0  0  0
    7.3615   -0.0793    0.0000 H   0  0  0  0  0  0  0  0  0  0  0  0
    7.3647   -0.7437    0.0000 H   0  0  0  0  0  0  0  0  0  0  0  0
    1.6751    1.6861    0.0000 H   0  0  0  0  0  0  0  0  0  0  0  0
    6.3091    0.6923    0.0000 H   0  0  0  0  0  0  0  0  0  0  0  0
    6.5789    2.1707    0.0000 H   0  0  0  0  0  0  0  0  0  0  0  0
   -1.0454   -0.9770    0.0000 H   0  0  0  0  0  0  0  0  0  0  0  0
    1.1150    1.3817    0.0000 H   0  0  0  0  0  0  0  0  0  0  0  0
    9.1472   -1.5144    0.0000 H   0  0  0  0  0  0  0  0  0  0  0  0
    4.1609    2.1717    0.0000 H   0  0  0  0  0  0  0  0  0  0  0  0
    8.9275    1.0775    0.0000 H   0  0  0  0  0  0  0  0  0  0  0  0
    1.8132    1.0474    0.0000 H   0  0  0  0  0  0  0  0  0  0  0  0
   -5.3549   -0.9770    0.0000 H   0  0  0  0  0  0  0  0  0  0  0  0
   -0.3401   -0.6575    0.0000 H   0  0  0  0  0  0  0  0  0  0  0  0
    5.3422   -4.0274    0.0000 H   0  0  0  0  0  0  0  0  0  0  0  0
   -4.6347   -0.6525    0.0000 H   0  0  0  0  0  0  0  0  0  0  0  0
    4.4544   -0.1401    0.0000 H   0  0  0  0  0  0  0  0  0  0  0  0
    5.3839   -0.6726    0.0000 H   0  0  0  0  0  0  0  0  0  0  0  0
    6.5685    2.9946    0.0000 H   0  0  0  0  0  0  0  0  0  0  0  0
    7.4926    3.5373    0.0000 H   0  0  0  0  0  0  0  0  0  0  0  0
    5.1593   -2.7636    0.0000 H   0  0  0  0  0  0  0  0  0  0  0  0
   -1.5647   -0.2896    0.0000 H   0  0  0  0  0  0  0  0  0  0  0  0
    0.7891   -1.2392    0.0000 H   0  0  0  0  0  0  0  0  0  0  0  0
    1.5575   -1.8930    0.0000 H   0  0  0  0  0  0  0  0  0  0  0  0
    3.6115   -4.1571    0.0000 H   0  0  0  0  0  0  0  0  0  0  0  0
    4.6202   -4.0645    0.0000 H   0  0  0  0  0  0  0  0  0  0  0  0
    9.8672   -1.9344    0.0000 H   0  0  0  0  0  0  0  0  0  0  0  0
    9.8654   -3.0033    0.0000 H   0  0  0  0  0  0  0  0  0  0  0  0
    9.6459    1.4825    0.0000 H   0  0  0  0  0  0  0  0  0  0  0  0
   10.5692    0.9506    0.0000 H   0  0  0  0  0  0  0  0  0  0  0  0
    4.1434    3.0007    0.0000 H   0  0  0  0  0  0  0  0  0  0  0  0
    3.2109    3.5221    0.0000 H   0  0  0  0  0  0  0  0  0  0  0  0
   -1.2728    1.7703    0.0000 H   0  0  0  0  0  0  0  0  0  0  0  0
   -0.3486    2.3074    0.0000 H   0  0  0  0  0  0  0  0  0  0  0  0
   -5.5612    1.7777    0.0000 H   0  0  0  0  0  0  0  0  0  0  0  0
   -4.6341    2.3124    0.0000 H   0  0  0  0  0  0  0  0  0  0  0  0
   11.9499   -0.1021    0.0000 H   0  0  0  0  0  0  0  0  0  0  0  0
   11.0745    1.4325    0.0000 H   0  0  0  0  0  0  0  0  0  0  0  0
   -3.0314    2.9923    0.0000 H   0  0  0  0  0  0  0  0  0  0  0  0
   -4.7980    2.9923    0.0000 H   0  0  0  0  0  0  0  0  0  0  0  0
    1.2582    2.9923    0.0000 H   0  0  0  0  0  0  0  0  0  0  0  0
   -0.5084    2.9923    0.0000 H   0  0  0  0  0  0  0  0  0  0  0  0
    9.6708   -4.7171    0.0000 H   0  0  0  0  0  0  0  0  0  0  0  0
   10.5368   -3.1773    0.0000 H   0  0  0  0  0  0  0  0  0  0  0  0
    3.3637    4.2082    0.0000 H   0  0  0  0  0  0  0  0  0  0  0  0
    1.5973    4.1761    0.0000 H   0  0  0  0  0  0  0  0  0  0  0  0
    4.5380   -3.2387    0.0000 H   0  0  0  0  0  0  0  0  0  0  0  0
   -1.7643   -2.2074    0.0000 H   0  0  0  0  0  0  0  0  0  0  0  0
    9.1459    3.4226    0.0000 H   0  0  0  0  0  0  0  0  0  0  0  0
   -6.7811   -1.0625    0.0000 H   0  0  0  0  0  0  0  0  0  0  0  0
   -7.7051   -0.5292    0.0000 H   0  0  0  0  0  0  0  0  0  0  0  0
   10.3608   -1.0625    0.0000 H   0  0  0  0  0  0  0  0  0  0  0  0
    9.4351   -0.5320    0.0000 H   0  0  0  0  0  0  0  0  0  0  0  0
    1.5861    2.3087    0.0000 H   0  0  0  0  0  0  0  0  0  0  0  0
    2.5186    1.7873    0.0000 H   0  0  0  0  0  0  0  0  0  0  0  0
    8.0158   -3.8325    0.0000 H   0  0  0  0  0  0  0  0  0  0  0  0
    8.0113   -2.7599    0.0000 H   0  0  0  0  0  0  0  0  0  0  0  0
   -2.9882    1.1221    0.0000 H   0  0  0  0  0  0  0  0  0  0  0  0
   -3.9153    0.5874    0.0000 H   0  0  0  0  0  0  0  0  0  0  0  0
    1.3028    1.1245    0.0000 H   0  0  0  0  0  0  0  0  0  0  0  0
    0.3786    0.5874    0.0000 H   0  0  0  0  0  0  0  0  0  0  0  0
    6.8048   -4.7822    0.0000 H   0  0  0  0  0  0  0  0  0  0  0  0
    7.7385   -3.1813    0.0000 H   0  0  0  0  0  0  0  0  0  0  0  0
    7.7338   -4.2513    0.0000 H   0  0  0  0  0  0  0  0  0  0  0  0
   -4.1265   -0.7026    0.0000 H   0  0  0  0  0  0  0  0  0  0  0  0
   -3.1996   -2.3074    0.0000 H   0  0  0  0  0  0  0  0  0  0  0  0
   -4.1263   -1.7726    0.0000 H   0  0  0  0  0  0  0  0  0  0  0  0
    5.1980   -1.3619    0.0000 H   0  0  0  0  0  0  0  0  0  0  0  0
    6.8031    1.4345    0.0000 H   0  0  0  0  0  0  0  0  0  0  0  0
   -9.6411    1.0775    0.0000 H   0  0  0  0  0  0  0  0  0  0  0  0
   -7.4879    1.4825    0.0000 H   0  0  0  0  0  0  0  0  0  0  0  0
   -8.4136    0.9520    0.0000 H   0  0  0  0  0  0  0  0  0  0  0  0
  -10.3583    1.4825    0.0000 H   0  0  0  0  0  0  0  0  0  0  0  0
  -11.2825    0.9447    0.0000 H   0  0  0  0  0  0  0  0  0  0  0  0
   -8.9243    1.4825    0.0000 H   0  0  0  0  0  0  0  0  0  0  0  0
   -8.0006    0.9526    0.0000 H   0  0  0  0  0  0  0  0  0  0  0  0
    8.9402    1.4023    0.0000 H   0  0  0  0  0  0  0  0  0  0  0  0
    9.8657    3.0080    0.0000 H   0  0  0  0  0  0  0  0  0  0  0  0
    9.8664    1.9380    0.0000 H   0  0  0  0  0  0  0  0  0  0  0  0
    9.1460    4.2472    0.0000 H   0  0  0  0  0  0  0  0  0  0  0  0
    7.2928    4.2472    0.0000 H   0  0  0  0  0  0  0  0  0  0  0  0
    8.2194    4.7822    0.0000 H   0  0  0  0  0  0  0  0  0  0  0  0
   -8.2028   -1.0625    0.0000 H   0  0  0  0  0  0  0  0  0  0  0  0
   -7.2795   -0.5306    0.0000 H   0  0  0  0  0  0  0  0  0  0  0  0
  -10.5709   -1.3623    0.0000 H   0  0  0  0  0  0  0  0  0  0  0  0
   -8.7177   -1.3623    0.0000 H   0  0  0  0  0  0  0  0  0  0  0  0
   -9.6443   -1.8973    0.0000 H   0  0  0  0  0  0  0  0  0  0  0  0
  -11.9971    0.5305    0.0000 H   0  0  0  0  0  0  0  0  0  0  0  0
  -11.0668   -1.0724    0.0000 H   0  0  0  0  0  0  0  0  0  0  0  0
  -11.9946   -0.5395    0.0000 H   0  0  0  0  0  0  0  0  0  0  0  0
    6.8082   -2.2793    0.0000 H   0  0  0  0  0  0  0  0  0  0  0  0
    8.4037    0.5213    0.0000 H   0  0  0  0  0  0  0  0  0  0  0  0
    8.4210   -1.3434    0.0000 H   0  0  0  0  0  0  0  0  0  0  0  0
  1 87  1  0  0  0  0
  2  1  1  0  0  0  0
  2 86  1  6  0  0  0
  3  4  1  0  0  0  0
  3  7  1  0  0  0  0
  3 88  1  1  0  0  0
  4 22  1  0  0  0  0
  5 20  1  0  0  0  0
  5 89  1  0  0  0  0
  6 14  1  0  0  0  0
  6 19  1  0  0  0  0
  6 90  1  0  0  0  0
  7 91  1  0  0  0  0
  8 26  1  0  0  0  0
  8 92  1  0  0  0  0
  9  1  1  0  0  0  0
 10 24  1  0  0  0  0
 10 93  1  0  0  0  0
 11 16  1  0  0  0  0
 11 94  1  0  0  0  0
 12  5  1  0  0  0  0
 13  8  1  0  0  0  0
 14 25  1  0  0  0  0
 15 10  1  0  0  0  0
 16 27  1  0  0  0  0
 17  7  1  0  0  0  0
 18  2  1  0  0  0  0
 19 12  1  0  0  0  0
 19 40  1  0  0  0  0
 19 95  1  6  0  0  0
 20 13  1  0  0  0  0
 20 44  1  0  0  0  0
 20 96  1  6  0  0  0
 21 23  1  0  0  0  0
 22 97  1  0  0  0  0
 23 98  1  0  0  0  0
 24  9  1  0  0  0  0
 24 50  1  0  0  0  0
 24 99  1  6  0  0  0
 25 11  1  0  0  0  0
 25 52  1  0  0  0  0
 25100  1  1  0  0  0
 26 15  1  0  0  0  0
 26 51  1  0  0  0  0
 26101  1  6  0  0  0
 27 23  1  0  0  0  0
 27 48  1  0  0  0  0
 27102  1  1  0  0  0
 28103  1  0  0  0  0
 29 22  1  0  0  0  0
 29 21  1  0  0  0  0
 29 53  1  0  0  0  0
 29104  1  6  0  0  0
 30 18  1  0  0  0  0
 30105  1  0  0  0  0
 31 28  1  0  0  0  0
 31 17  1  0  0  0  0
 31 54  1  0  0  0  0
 31106  1  6  0  0  0
 32 28  1  0  0  0  0
 33  4  2  0  0  0  0
 34  9  2  0  0  0  0
 35 13  2  0  0  0  0
 36 12  2  0  0  0  0
 37 14  2  0  0  0  0
 38 15  2  0  0  0  0
 39 16  2  0  0  0  0
 40107  1  0  0  0  0
 40108  1  0  0  0  0
 41 17  2  0  0  0  0
 42 21  2  0  0  0  0
 43 18  2  0  0  0  0
 44109  1  0  0  0  0
 44110  1  0  0  0  0
 45  2  1  0  0  0  0
 45 61  1  0  0  0  0
 45111  1  6  0  0  0
 46  3  1  0  0  0  0
 46 62  1  0  0  0  0
 46112  1  1  0  0  0
 47 32  2  0  0  0  0
 48 49  1  0  0  0  0
 48113  1  0  0  0  0
 48114  1  0  0  0  0
 49 30  1  0  0  0  0
 49115  1  0  0  0  0
 49116  1  0  0  0  0
 50117  1  0  0  0  0
 50118  1  0  0  0  0
 51119  1  0  0  0  0
 51120  1  0  0  0  0
 52121  1  0  0  0  0
 52122  1  0  0  0  0
 53123  1  0  0  0  0
 53124  1  0  0  0  0
 54125  1  0  0  0  0
 54126  1  0  0  0  0
 55 40  1  0  0  0  0
 56 65  1  0  0  0  0
 56127  1  0  0  0  0
 56128  1  0  0  0  0
 57 68  1  0  0  0  0
 57129  1  0  0  0  0
 57130  1  0  0  0  0
 58 69  1  0  0  0  0
 58131  1  0  0  0  0
 58132  1  0  0  0  0
 59 67  1  0  0  0  0
 59133  1  0  0  0  0
 59134  1  0  0  0  0
 60 66  1  0  0  0  0
 60135  1  0  0  0  0
 60136  1  0  0  0  0
 61137  1  0  0  0  0
 62138  1  0  0  0  0
 63 44  1  0  0  0  0
 63139  1  0  0  0  0
 64 32  1  0  0  0  0
 64140  1  0  0  0  0
 64141  1  0  0  0  0
 65 51  1  0  0  0  0
 65142  1  0  0  0  0
 65143  1  0  0  0  0
 66 52  1  0  0  0  0
 66144  1  0  0  0  0
 66145  1  0  0  0  0
 67 50  1  0  0  0  0
 67146  1  0  0  0  0
 67147  1  0  0  0  0
 68 54  1  0  0  0  0
 68148  1  0  0  0  0
 68149  1  0  0  0  0
 69 53  1  0  0  0  0
 69150  1  0  0  0  0
 69151  1  0  0  0  0
 70 45  1  0  0  0  0
 70152  1  0  0  0  0
 70153  1  0  0  0  0
 70154  1  0  0  0  0
 71 46  1  0  0  0  0
 71155  1  0  0  0  0
 71156  1  0  0  0  0
 71157  1  0  0  0  0
 72 55  2  0  0  0  0
 72158  1  0  0  0  0
 73 55  1  0  0  0  0
 73159  1  0  0  0  0
 74 77  1  0  0  0  0
 74160  1  0  0  0  0
 75 64  1  0  0  0  0
 75161  1  0  0  0  0
 75162  1  0  0  0  0
 76 74  1  0  0  0  0
 76163  1  0  0  0  0
 76164  1  0  0  0  0
 77 80  1  0  0  0  0
 77165  1  0  0  0  0
 77166  1  0  0  0  0
 78 63  1  0  0  0  0
 78167  1  0  0  0  0
 78168  1  0  0  0  0
 78169  1  0  0  0  0
 79 63  1  0  0  0  0
 79170  1  0  0  0  0
 79171  1  0  0  0  0
 79172  1  0  0  0  0
 80 75  1  0  0  0  0
 80173  1  0  0  0  0
 80174  1  0  0  0  0
 81 74  1  0  0  0  0
 81175  1  0  0  0  0
 81176  1  0  0  0  0
 81177  1  0  0  0  0
 82 76  1  0  0  0  0
 82178  1  0  0  0  0
 82179  1  0  0  0  0
 82180  1  0  0  0  0
 83 72  1  0  0  0  0
 83181  1  0  0  0  0
 84 73  2  0  0  0  0
 84182  1  0  0  0  0
 85 83  2  0  0  0  0
 85 84  1  0  0  0  0
 85183  1  0  0  0  0
M  END
>  <DRUGBANK_ID>
DB00781

>  <SECONDARY_ACCESSION_NUMBERS>
APRD01190

>  <COMMON_NAME>
Polymyxin B

>  <CAS_NUMBER>
1404-26-8

>  <UNII>
J2VZ07J96K

>  <SYNONYMS>
Polimixina B; Polymyxin B; Polymyxine B; Polymyxinum B

$$$$
