
 OpenBabel10282417072D

 62 64  0  0  1  0  0  0  0  0999 V2000
    2.4377   -7.2041    0.0000 C   0  0  0  0  0  0  0  0  0  0  0  0
    3.1521   -6.7916    0.0000 O   0  0  0  0  0  0  0  0  0  0  0  0
    3.8666   -7.2041    0.0000 C   0  0  0  0  0  0  0  0  0  0  0  0
    4.5811   -6.7916    0.0000 C   0  0  1  0  0  0  0  0  0  0  0  0
    5.2955   -7.2041    0.0000 C   0  0  0  0  0  0  0  0  0  0  0  0
    6.0100   -6.7916    0.0000 N   0  0  0  0  0  0  0  0  0  0  0  0
    6.0100   -5.9666    0.0000 C   0  0  0  0  0  0  0  0  0  0  0  0
    5.2955   -5.5541    0.0000 O   0  0  0  0  0  0  0  0  0  0  0  0
    6.7245   -5.5541    0.0000 C   0  0  0  0  0  0  0  0  0  0  0  0
    7.4390   -5.9666    0.0000 N   0  0  0  0  0  0  0  0  0  0  0  0
    7.4390   -6.7916    0.0000 N   0  0  0  0  0  0  0  0  0  0  0  0
    6.7245   -7.2041    0.0000 C   0  0  0  0  0  0  0  0  0  0  0  0
    6.7245   -8.0291    0.0000 O   0  0  0  0  0  0  0  0  0  0  0  0
    8.1534   -7.2041    0.0000 C   0  0  0  0  0  0  0  0  0  0  0  0
    8.8679   -6.7916    0.0000 C   0  0  0  0  0  0  0  0  0  0  0  0
    9.5824   -7.2041    0.0000 C   0  0  0  0  0  0  0  0  0  0  0  0
    9.5824   -8.0291    0.0000 C   0  0  0  0  0  0  0  0  0  0  0  0
    8.8679   -8.4416    0.0000 C   0  0  0  0  0  0  0  0  0  0  0  0
    8.1534   -8.0291    0.0000 C   0  0  0  0  0  0  0  0  0  0  0  0
    8.8679   -9.2666    0.0000 C   0  0  0  0  0  0  0  0  0  0  0  0
    8.1534   -9.6791    0.0000 O   0  0  0  0  0  0  0  0  0  0  0  0
    9.5824   -9.6791    0.0000 N   0  0  0  0  0  0  0  0  0  0  0  0
    9.5824  -10.5041    0.0000 C   0  0  0  0  0  0  0  0  0  0  0  0
   10.2968  -10.9166    0.0000 C   0  0  0  0  0  0  0  0  0  0  0  0
   11.1195  -10.9782    0.0000 C   0  0  0  0  0  0  0  0  0  0  0  0
   11.5843  -11.6599    0.0000 C   0  0  0  0  0  0  0  0  0  0  0  0
   11.3411  -12.4482    0.0000 C   0  0  0  0  0  0  0  0  0  0  0  0
   10.5731  -12.7496    0.0000 C   0  0  0  0  0  0  0  0  0  0  0  0
    9.8587  -12.3371    0.0000 C   0  0  0  0  0  0  0  0  0  0  0  0
    9.7357  -11.5213    0.0000 C   0  0  0  0  0  0  0  0  0  0  0  0
   10.5400  -10.1282    0.0000 O   0  0  0  0  0  0  0  0  0  0  0  0
   10.2968   -8.4416    0.0000 Cl  0  0  0  0  0  0  0  0  0  0  0  0
    4.5811   -5.9666    0.0000 O   0  0  0  0  0  0  0  0  0  0  0  0
    1.5110   -6.6691    0.0000 H   0  0  0  0  0  0  0  0  0  0  0  0
    2.4377   -8.2741    0.0000 H   0  0  0  0  0  0  0  0  0  0  0  0
    1.5111   -7.7391    0.0000 H   0  0  0  0  0  0  0  0  0  0  0  0
    3.8666   -8.2741    0.0000 H   0  0  0  0  0  0  0  0  0  0  0  0
    4.7932   -7.7391    0.0000 H   0  0  0  0  0  0  0  0  0  0  0  0
    3.6545   -6.2566    0.0000 H   0  0  0  0  0  0  0  0  0  0  0  0
    5.2955   -8.2741    0.0000 H   0  0  0  0  0  0  0  0  0  0  0  0
    6.2221   -7.7391    0.0000 H   0  0  0  0  0  0  0  0  0  0  0  0
    6.7245   -4.5221    0.0000 H   0  0  0  0  0  0  0  0  0  0  0  0
    8.8679   -5.7596    0.0000 H   0  0  0  0  0  0  0  0  0  0  0  0
   10.4761   -6.6881    0.0000 H   0  0  0  0  0  0  0  0  0  0  0  0
    7.2597   -8.5451    0.0000 H   0  0  0  0  0  0  0  0  0  0  0  0
   10.4350   -9.1868    0.0000 H   0  0  0  0  0  0  0  0  0  0  0  0
    8.6557  -11.0391    0.0000 H   0  0  0  0  0  0  0  0  0  0  0  0
    9.5824  -11.5741    0.0000 H   0  0  0  0  0  0  0  0  0  0  0  0
   11.6545  -10.0515    0.0000 H   0  0  0  0  0  0  0  0  0  0  0  0
   12.1888  -10.9382    0.0000 H   0  0  0  0  0  0  0  0  0  0  0  0
   12.6424  -11.5004    0.0000 H   0  0  0  0  0  0  0  0  0  0  0  0
   12.2822  -12.4710    0.0000 H   0  0  0  0  0  0  0  0  0  0  0  0
   12.1254  -13.1760    0.0000 H   0  0  0  0  0  0  0  0  0  0  0  0
   11.1421  -13.4995    0.0000 H   0  0  0  0  0  0  0  0  0  0  0  0
   10.4931  -13.8166    0.0000 H   0  0  0  0  0  0  0  0  0  0  0  0
    9.6271  -13.2495    0.0000 H   0  0  0  0  0  0  0  0  0  0  0  0
    8.9746  -12.9399    0.0000 H   0  0  0  0  0  0  0  0  0  0  0  0
    8.8780  -11.9092    0.0000 H   0  0  0  0  0  0  0  0  0  0  0  0
    8.7132  -11.2059    0.0000 H   0  0  0  0  0  0  0  0  0  0  0  0
    9.4588  -10.4878    0.0000 H   0  0  0  0  0  0  0  0  0  0  0  0
   11.4857   -9.9124    0.0000 H   0  0  0  0  0  0  0  0  0  0  0  0
    5.4211   -5.4816    0.0000 H   0  0  0  0  0  0  0  0  0  0  0  0
  1  2  1  0  0  0  0
  1 34  1  0  0  0  0
  1 35  1  0  0  0  0
  1 36  1  0  0  0  0
  2  3  1  0  0  0  0
  3  4  1  0  0  0  0
  3 37  1  0  0  0  0
  3 38  1  0  0  0  0
  4  5  1  0  0  0  0
  4 33  1  0  0  0  0
  4 39  1  1  0  0  0
  5  6  1  0  0  0  0
  5 40  1  0  0  0  0
  5 41  1  0  0  0  0
  6  7  1  0  0  0  0
  6 12  1  0  0  0  0
  7  8  2  0  0  0  0
  7  9  1  0  0  0  0
  9 10  2  0  0  0  0
  9 42  1  0  0  0  0
 10 11  1  0  0  0  0
 11 12  1  0  0  0  0
 11 14  1  0  0  0  0
 12 13  2  0  0  0  0
 14 15  2  0  0  0  0
 14 19  1  0  0  0  0
 15 16  1  0  0  0  0
 15 43  1  0  0  0  0
 16 17  2  0  0  0  0
 16 44  1  0  0  0  0
 17 18  1  0  0  0  0
 17 32  1  0  0  0  0
 18 19  2  0  0  0  0
 18 20  1  0  0  0  0
 19 45  1  0  0  0  0
 20 21  2  0  0  0  0
 20 22  1  0  0  0  0
 22 23  1  0  0  0  0
 22 46  1  0  0  0  0
 23 24  1  0  0  0  0
 23 47  1  0  0  0  0
 23 48  1  0  0  0  0
 24 25  1  0  0  0  0
 24 30  1  0  0  0  0
 24 31  1  0  0  0  0
 25 26  1  0  0  0  0
 25 49  1  0  0  0  0
 25 50  1  0  0  0  0
 26 27  1  0  0  0  0
 26 51  1  0  0  0  0
 26 52  1  0  0  0  0
 27 28  1  0  0  0  0
 27 53  1  0  0  0  0
 27 54  1  0  0  0  0
 28 29  1  0  0  0  0
 28 55  1  0  0  0  0
 28 56  1  0  0  0  0
 29 30  1  0  0  0  0
 29 57  1  0  0  0  0
 29 58  1  0  0  0  0
 30 59  1  0  0  0  0
 30 60  1  0  0  0  0
 31 61  1  0  0  0  0
 33 62  1  0  0  0  0
M  END
>  <DRUGBANK_ID>
DB12113

>  <COMMON_NAME>
CE-224535

>  <CAS_NUMBER>
724424-43-5

>  <UNII>
T8B02RAU3C

$$$$
