
 OpenBabel10282417072D

 38 39  0  0  0  0  0  0  0  0999 V2000
    3.1261    1.6146    0.0000 S   0  0  0  0  0  0  0  0  0  0  0  0
    3.7935   -2.1704    0.0000 O   0  0  0  0  0  0  0  0  0  0  0  0
    2.0756    2.9805    0.0000 O   0  0  0  0  0  0  0  0  0  0  0  0
    3.2316    3.8204    0.0000 O   0  0  0  0  0  0  0  0  0  0  0  0
    4.4610    1.6146    0.0000 N   0  0  0  0  0  0  0  0  0  0  0  0
    1.6500   -1.7579    0.0000 N   0  0  0  0  0  0  0  0  0  0  0  0
    4.5080   -3.4079    0.0000 C   0  0  0  0  0  0  0  0  0  0  0  0
    4.5080   -2.5829    0.0000 C   0  0  0  0  0  0  0  0  0  0  0  0
    5.2224   -3.8204    0.0000 C   0  0  0  0  0  0  0  0  0  0  0  0
    3.7935   -3.8204    0.0000 C   0  0  0  0  0  0  0  0  0  0  0  0
    3.7935   -1.3454    0.0000 C   0  0  0  0  0  0  0  0  0  0  0  0
    3.7935    0.3047    0.0000 C   0  0  0  0  0  0  0  0  0  0  0  0
    3.0791   -0.9328    0.0000 C   0  0  0  0  0  0  0  0  0  0  0  0
    4.5080   -0.9328    0.0000 C   0  0  0  0  0  0  0  0  0  0  0  0
    3.0791   -0.1078    0.0000 C   0  0  0  0  0  0  0  0  0  0  0  0
    4.5080   -0.1078    0.0000 C   0  0  0  0  0  0  0  0  0  0  0  0
    3.7935    1.1297    0.0000 C   0  0  0  0  0  0  0  0  0  0  0  0
    4.2060    2.3992    0.0000 C   0  0  0  0  0  0  0  0  0  0  0  0
    3.3810    2.3992    0.0000 C   0  0  0  0  0  0  0  0  0  0  0  0
    4.6910    3.0668    0.0000 C   0  0  0  0  0  0  0  0  0  0  0  0
    2.3645   -1.3454    0.0000 C   0  0  0  0  0  0  0  0  0  0  0  0
    2.8961    3.0668    0.0000 C   0  0  0  0  0  0  0  0  0  0  0  0
    1.5248    3.7385    0.0000 H   0  0  0  0  0  0  0  0  0  0  0  0
    4.5080   -4.4779    0.0000 H   0  0  0  0  0  0  0  0  0  0  0  0
    5.4346   -2.0479    0.0000 H   0  0  0  0  0  0  0  0  0  0  0  0
    5.4346   -3.1179    0.0000 H   0  0  0  0  0  0  0  0  0  0  0  0
    5.2224   -4.8904    0.0000 H   0  0  0  0  0  0  0  0  0  0  0  0
    6.1491   -3.2854    0.0000 H   0  0  0  0  0  0  0  0  0  0  0  0
    6.1490   -4.3554    0.0000 H   0  0  0  0  0  0  0  0  0  0  0  0
    2.8669   -3.2854    0.0000 H   0  0  0  0  0  0  0  0  0  0  0  0
    3.7935   -4.8904    0.0000 H   0  0  0  0  0  0  0  0  0  0  0  0
    2.8668   -4.3554    0.0000 H   0  0  0  0  0  0  0  0  0  0  0  0
    5.4018   -1.4488    0.0000 H   0  0  0  0  0  0  0  0  0  0  0  0
    2.1854    0.4082    0.0000 H   0  0  0  0  0  0  0  0  0  0  0  0
    5.4017    0.4082    0.0000 H   0  0  0  0  0  0  0  0  0  0  0  0
    5.7551    2.9550    0.0000 H   0  0  0  0  0  0  0  0  0  0  0  0
    4.2558    4.0443    0.0000 H   0  0  0  0  0  0  0  0  0  0  0  0
    5.3199    3.9325    0.0000 H   0  0  0  0  0  0  0  0  0  0  0  0
  1 17  1  0  0  0  0
  1 19  1  0  0  0  0
  2  8  1  0  0  0  0
  2 11  1  0  0  0  0
  3 22  1  0  0  0  0
  3 23  1  0  0  0  0
  4 22  2  0  0  0  0
  5 17  2  0  0  0  0
  5 18  1  0  0  0  0
  6 21  3  0  0  0  0
  7  8  1  0  0  0  0
  7  9  1  0  0  0  0
  7 10  1  0  0  0  0
  7 24  1  0  0  0  0
  8 25  1  0  0  0  0
  8 26  1  0  0  0  0
  9 27  1  0  0  0  0
  9 28  1  0  0  0  0
  9 29  1  0  0  0  0
 10 30  1  0  0  0  0
 10 31  1  0  0  0  0
 10 32  1  0  0  0  0
 11 13  2  0  0  0  0
 11 14  1  0  0  0  0
 12 15  2  0  0  0  0
 12 16  1  0  0  0  0
 12 17  1  0  0  0  0
 13 15  1  0  0  0  0
 13 21  1  0  0  0  0
 14 16  2  0  0  0  0
 14 33  1  0  0  0  0
 15 34  1  0  0  0  0
 16 35  1  0  0  0  0
 18 19  2  0  0  0  0
 18 20  1  0  0  0  0
 19 22  1  0  0  0  0
 20 36  1  0  0  0  0
 20 37  1  0  0  0  0
 20 38  1  0  0  0  0
M  END
>  <DRUGBANK_ID>
DB04854

>  <SECONDARY_ACCESSION_NUMBERS>
DB03786

>  <COMMON_NAME>
Febuxostat

>  <CAS_NUMBER>
144060-53-7

>  <UNII>
101V0R1N2E

>  <SYNONYMS>
2-(3-cyano-4-isobutoxyphenyl)-4-methyl- 1,3-thiazole-5-carboxylic acid; FÃ©buxostat; Febuxostat; Febuxostatum

$$$$
