RDE
 OpenBabel10282417072D

 47 48  0  0  0  0  0  0  0  0999 V2000
   -0.6436   -1.4623    0.0000 C   0  0  0  0  0  0  0  0  0  0  0  0
   -1.3581   -1.0498    0.0000 O   0  0  0  0  0  0  0  0  0  0  0  0
   -1.3581   -0.2248    0.0000 C   0  0  0  0  0  0  0  0  0  0  0  0
   -2.0726    0.1877    0.0000 C   0  0  0  0  0  0  0  0  0  0  0  0
   -2.7871   -0.2248    0.0000 O   0  0  0  0  0  0  0  0  0  0  0  0
   -3.5015    0.1877    0.0000 C   0  0  0  0  0  0  0  0  0  0  0  0
   -2.0726    1.0127    0.0000 C   0  0  0  0  0  0  0  0  0  0  0  0
   -1.3581    1.4252    0.0000 C   0  0  0  0  0  0  0  0  0  0  0  0
   -1.3581    2.2502    0.0000 N   0  0  0  0  0  0  0  0  0  0  0  0
   -0.6436    1.0127    0.0000 C   0  0  0  0  0  0  0  0  0  0  0  0
    0.0708    1.4252    0.0000 O   0  0  0  0  0  0  0  0  0  0  0  0
    0.7853    1.0127    0.0000 C   0  0  0  0  0  0  0  0  0  0  0  0
   -0.6436    0.1877    0.0000 C   0  0  0  0  0  0  0  0  0  0  0  0
    0.0708   -0.2248    0.0000 C   0  0  0  0  0  0  0  0  0  0  0  0
    0.7853    0.1877    0.0000 C   0  0  0  0  0  0  0  0  0  0  0  0
    1.4998   -0.2248    0.0000 O   0  0  0  0  0  0  0  0  0  0  0  0
    2.2142    0.1877    0.0000 C   0  0  0  0  0  0  0  0  0  0  0  0
    2.2142    1.0127    0.0000 O   0  0  0  0  0  0  0  0  0  0  0  0
    2.9287   -0.2248    0.0000 C   0  0  0  0  0  0  0  0  0  0  0  0
    3.6432    0.1877    0.0000 C   0  0  0  0  0  0  0  0  0  0  0  0
    4.3577   -0.2248    0.0000 C   0  0  0  0  0  0  0  0  0  0  0  0
    5.0721    0.1877    0.0000 Cl  0  0  0  0  0  0  0  0  0  0  0  0
    4.3577   -1.0498    0.0000 C   0  0  0  0  0  0  0  0  0  0  0  0
    5.0721   -1.4623    0.0000 O   0  0  0  0  0  0  0  0  0  0  0  0
    3.6432   -1.4623    0.0000 C   0  0  0  0  0  0  0  0  0  0  0  0
    2.9287   -1.0498    0.0000 C   0  0  0  0  0  0  0  0  0  0  0  0
    2.2142   -1.4623    0.0000 O   0  0  0  0  0  0  0  0  0  0  0  0
   -0.6436   -2.5323    0.0000 H   0  0  0  0  0  0  0  0  0  0  0  0
    0.2830   -0.9273    0.0000 H   0  0  0  0  0  0  0  0  0  0  0  0
    0.2831   -1.9973    0.0000 H   0  0  0  0  0  0  0  0  0  0  0  0
   -3.5015    1.2577    0.0000 H   0  0  0  0  0  0  0  0  0  0  0  0
   -4.4282   -0.3473    0.0000 H   0  0  0  0  0  0  0  0  0  0  0  0
   -4.4281    0.7227    0.0000 H   0  0  0  0  0  0  0  0  0  0  0  0
   -2.9663    1.5287    0.0000 H   0  0  0  0  0  0  0  0  0  0  0  0
   -0.5055    2.7425    0.0000 H   0  0  0  0  0  0  0  0  0  0  0  0
   -2.2107    2.7424    0.0000 H   0  0  0  0  0  0  0  0  0  0  0  0
    0.7853   -0.0573    0.0000 H   0  0  0  0  0  0  0  0  0  0  0  0
    1.7119    1.5477    0.0000 H   0  0  0  0  0  0  0  0  0  0  0  0
    1.7120    0.4777    0.0000 H   0  0  0  0  0  0  0  0  0  0  0  0
    0.0708   -1.2948    0.0000 H   0  0  0  0  0  0  0  0  0  0  0  0
    0.9974   -0.7598    0.0000 H   0  0  0  0  0  0  0  0  0  0  0  0
    0.7853    1.2577    0.0000 H   0  0  0  0  0  0  0  0  0  0  0  0
    1.7119    0.7227    0.0000 H   0  0  0  0  0  0  0  0  0  0  0  0
    3.6432    1.2197    0.0000 H   0  0  0  0  0  0  0  0  0  0  0  0
    5.0721   -2.3993    0.0000 H   0  0  0  0  0  0  0  0  0  0  0  0
    3.6432   -2.4943    0.0000 H   0  0  0  0  0  0  0  0  0  0  0  0
    1.4027   -0.9938    0.0000 H   0  0  0  0  0  0  0  0  0  0  0  0
  1  2  1  0  0  0  0
  1 28  1  0  0  0  0
  1 29  1  0  0  0  0
  1 30  1  0  0  0  0
  2  3  1  0  0  0  0
  3  4  1  0  0  0  0
  3 13  2  0  0  0  0
  4  5  1  0  0  0  0
  4  7  2  0  0  0  0
  5  6  1  0  0  0  0
  6 31  1  0  0  0  0
  6 32  1  0  0  0  0
  6 33  1  0  0  0  0
  7  8  1  0  0  0  0
  7 34  1  0  0  0  0
  8  9  1  0  0  0  0
  8 10  2  0  0  0  0
  9 35  1  0  0  0  0
  9 36  1  0  0  0  0
 10 11  1  0  0  0  0
 10 13  1  0  0  0  0
 11 12  1  0  0  0  0
 12 37  1  0  0  0  0
 12 38  1  0  0  0  0
 12 39  1  0  0  0  0
 13 14  1  0  0  0  0
 14 15  1  0  0  0  0
 14 40  1  0  0  0  0
 14 41  1  0  0  0  0
 15 16  1  0  0  0  0
 15 42  1  0  0  0  0
 15 43  1  0  0  0  0
 16 17  1  0  0  0  0
 17 18  2  0  0  0  0
 17 19  1  0  0  0  0
 19 20  1  0  0  0  0
 19 26  2  0  0  0  0
 20 21  2  0  0  0  0
 20 44  1  0  0  0  0
 21 22  1  0  0  0  0
 21 23  1  0  0  0  0
 23 24  1  0  0  0  0
 23 25  2  0  0  0  0
 24 45  1  0  0  0  0
 25 26  1  0  0  0  0
 25 46  1  0  0  0  0
 26 27  1  0  0  0  0
 27 47  1  0  0  0  0
M  END
>  <DRUGBANK_ID>
DB08465

>  <COMMON_NAME>
2-(3-AMINO-2,5,6-TRIMETHOXYPHENYL)ETHYL 5-CHLORO-2,4-DIHYDROXYBENZOATE

$$$$
