
 OpenBabel10282417072D

 53 56  0  0  0  0  0  0  0  0999 V2000
    1.8097    3.2065    0.0000 C   0  0  0  0  0  0  0  0  0  0  0  0
    1.2577    2.5934    0.0000 N   0  0  0  0  0  0  0  0  0  0  0  0
    1.5126    1.8088    0.0000 C   0  0  0  0  0  0  0  0  0  0  0  0
    0.9606    1.1957    0.0000 C   0  0  0  0  0  0  0  0  0  0  0  0
    0.1536    1.3672    0.0000 N   0  0  0  0  0  0  0  0  0  0  0  0
   -0.1014    2.1518    0.0000 C   0  0  0  0  0  0  0  0  0  0  0  0
    0.4507    2.7649    0.0000 C   0  0  0  0  0  0  0  0  0  0  0  0
   -0.3984    0.7541    0.0000 C   0  0  0  0  0  0  0  0  0  0  0  0
   -0.1435   -0.0305    0.0000 C   0  0  0  0  0  0  0  0  0  0  0  0
   -0.6284   -0.6979    0.0000 C   0  0  0  0  0  0  0  0  0  0  0  0
   -0.1435   -1.3654    0.0000 N   0  0  0  0  0  0  0  0  0  0  0  0
    0.6411   -1.1104    0.0000 C   0  0  0  0  0  0  0  0  0  0  0  0
    0.6411   -0.2854    0.0000 C   0  0  0  0  0  0  0  0  0  0  0  0
    1.3556    0.1271    0.0000 C   0  0  0  0  0  0  0  0  0  0  0  0
    2.0701   -0.2854    0.0000 C   0  0  0  0  0  0  0  0  0  0  0  0
    2.0701   -1.1104    0.0000 C   0  0  0  0  0  0  0  0  0  0  0  0
    1.3556   -1.5229    0.0000 C   0  0  0  0  0  0  0  0  0  0  0  0
    2.7845    0.1271    0.0000 O   0  0  0  0  0  0  0  0  0  0  0  0
    3.4990   -0.2854    0.0000 C   0  0  0  0  0  0  0  0  0  0  0  0
   -0.3984   -2.1500    0.0000 S   0  0  0  0  0  0  0  0  0  0  0  0
   -1.1831   -1.8951    0.0000 O   0  0  0  0  0  0  0  0  0  0  0  0
    0.3862   -2.4049    0.0000 O   0  0  0  0  0  0  0  0  0  0  0  0
   -0.6534   -2.9346    0.0000 C   0  0  0  0  0  0  0  0  0  0  0  0
   -0.1014   -3.5477    0.0000 C   0  0  0  0  0  0  0  0  0  0  0  0
   -0.3563   -4.3323    0.0000 C   0  0  0  0  0  0  0  0  0  0  0  0
   -1.1633   -4.5039    0.0000 C   0  0  0  0  0  0  0  0  0  0  0  0
   -1.7153   -3.8908    0.0000 C   0  0  0  0  0  0  0  0  0  0  0  0
   -1.4604   -3.1062    0.0000 C   0  0  0  0  0  0  0  0  0  0  0  0
   -2.0124   -2.4931    0.0000 Br  0  0  0  0  0  0  0  0  0  0  0  0
    2.8563    2.9841    0.0000 H   0  0  0  0  0  0  0  0  0  0  0  0
    1.4790    4.2241    0.0000 H   0  0  0  0  0  0  0  0  0  0  0  0
    2.5256    4.0017    0.0000 H   0  0  0  0  0  0  0  0  0  0  0  0
    2.5592    1.5863    0.0000 H   0  0  0  0  0  0  0  0  0  0  0  0
    1.8433    0.7912    0.0000 H   0  0  0  0  0  0  0  0  0  0  0  0
    1.2913    0.1781    0.0000 H   0  0  0  0  0  0  0  0  0  0  0  0
    0.2447    0.4005    0.0000 H   0  0  0  0  0  0  0  0  0  0  0  0
   -1.1480    2.3743    0.0000 H   0  0  0  0  0  0  0  0  0  0  0  0
   -0.4320    3.1694    0.0000 H   0  0  0  0  0  0  0  0  0  0  0  0
    0.1201    3.7825    0.0000 H   0  0  0  0  0  0  0  0  0  0  0  0
    1.1667    3.5601    0.0000 H   0  0  0  0  0  0  0  0  0  0  0  0
   -1.4450    0.9766    0.0000 H   0  0  0  0  0  0  0  0  0  0  0  0
   -1.1144   -0.0411    0.0000 H   0  0  0  0  0  0  0  0  0  0  0  0
   -1.6604   -0.6979    0.0000 H   0  0  0  0  0  0  0  0  0  0  0  0
    1.3556    1.1591    0.0000 H   0  0  0  0  0  0  0  0  0  0  0  0
    2.9638   -1.6264    0.0000 H   0  0  0  0  0  0  0  0  0  0  0  0
    1.3556   -2.5549    0.0000 H   0  0  0  0  0  0  0  0  0  0  0  0
    3.4990   -1.3554    0.0000 H   0  0  0  0  0  0  0  0  0  0  0  0
    4.4256    0.2496    0.0000 H   0  0  0  0  0  0  0  0  0  0  0  0
    4.4257   -0.8204    0.0000 H   0  0  0  0  0  0  0  0  0  0  0  0
    0.9080   -3.3331    0.0000 H   0  0  0  0  0  0  0  0  0  0  0  0
    0.3343   -5.0992    0.0000 H   0  0  0  0  0  0  0  0  0  0  0  0
   -1.4822   -5.4854    0.0000 H   0  0  0  0  0  0  0  0  0  0  0  0
   -2.7247   -4.1054    0.0000 H   0  0  0  0  0  0  0  0  0  0  0  0
  1  2  1  0  0  0  0
  1 30  1  0  0  0  0
  1 31  1  0  0  0  0
  1 32  1  0  0  0  0
  2  3  1  0  0  0  0
  2  7  1  0  0  0  0
  3  4  1  0  0  0  0
  3 33  1  0  0  0  0
  3 34  1  0  0  0  0
  4  5  1  0  0  0  0
  4 35  1  0  0  0  0
  4 36  1  0  0  0  0
  5  6  1  0  0  0  0
  5  8  1  0  0  0  0
  6  7  1  0  0  0  0
  6 37  1  0  0  0  0
  6 38  1  0  0  0  0
  7 39  1  0  0  0  0
  7 40  1  0  0  0  0
  8  9  1  0  0  0  0
  8 41  1  0  0  0  0
  8 42  1  0  0  0  0
  9 10  2  0  0  0  0
  9 13  1  0  0  0  0
 10 11  1  0  0  0  0
 10 43  1  0  0  0  0
 11 12  1  0  0  0  0
 11 20  1  0  0  0  0
 12 13  1  0  0  0  0
 12 17  2  0  0  0  0
 13 14  2  0  0  0  0
 14 15  1  0  0  0  0
 14 44  1  0  0  0  0
 15 16  2  0  0  0  0
 15 18  1  0  0  0  0
 16 17  1  0  0  0  0
 16 45  1  0  0  0  0
 17 46  1  0  0  0  0
 18 19  1  0  0  0  0
 19 47  1  0  0  0  0
 19 48  1  0  0  0  0
 19 49  1  0  0  0  0
 20 21  2  0  0  0  0
 20 22  2  0  0  0  0
 20 23  1  0  0  0  0
 23 24  2  0  0  0  0
 23 28  1  0  0  0  0
 24 25  1  0  0  0  0
 24 50  1  0  0  0  0
 25 26  2  0  0  0  0
 25 51  1  0  0  0  0
 26 27  1  0  0  0  0
 26 52  1  0  0  0  0
 27 28  2  0  0  0  0
 27 53  1  0  0  0  0
 28 29  1  0  0  0  0
M  END
>  <DRUGBANK_ID>
DB06140

>  <COMMON_NAME>
SUVN-502

>  <CAS_NUMBER>
701205-60-9

>  <UNII>
8XZ281AO3G

$$$$
