
 OpenBabel10282417072D

194199  0  0  0  0  0  0  0  0999 V2000
   -9.9053    2.0518    0.0000 C   0  0  0  0  0  0  0  0  0  0  0  0
   -9.1977    2.4763    0.0000 C   0  0  0  0  0  0  0  0  0  0  0  0
  -10.6126    2.4763    0.0000 C   0  0  0  0  0  0  0  0  0  0  0  0
   -9.1977    3.3252    0.0000 C   0  0  0  0  0  0  0  0  0  0  0  0
  -10.6126    3.3252    0.0000 C   0  0  0  0  0  0  0  0  0  0  0  0
   -9.9053    3.7498    0.0000 C   0  0  0  0  0  0  0  0  0  0  0  0
   -9.9053    1.2735    0.0000 C   0  0  0  0  0  0  0  0  0  0  0  0
   -9.1977    0.8489    0.0000 C   0  0  0  0  0  0  0  0  0  0  0  0
   -8.4901    2.0518    0.0000 C   0  0  0  0  0  0  0  0  0  0  0  0
   -8.4901    1.2735    0.0000 C   0  0  0  0  0  0  0  0  0  0  0  0
   -8.4901   -0.3537    0.0000 C   0  0  2  0  0  0  0  0  0  0  0  0
   -8.4901   -1.2028    0.0000 N   0  0  0  0  0  0  0  0  0  0  0  0
   -9.1977    0.0708    0.0000 C   0  0  0  0  0  0  0  0  0  0  0  0
   -7.0751   -0.3537    0.0000 N   0  0  0  0  0  0  0  0  0  0  0  0
   -7.7826    0.0708    0.0000 C   0  0  0  0  0  0  0  0  0  0  0  0
   -6.2969    0.0708    0.0000 C   0  0  1  0  0  0  0  0  0  0  0  0
   -5.6601   -0.3537    0.0000 C   0  0  0  0  0  0  0  0  0  0  0  0
   -5.6601   -1.2028    0.0000 O   0  0  0  0  0  0  0  0  0  0  0  0
   -6.2969    0.8489    0.0000 C   0  0  0  0  0  0  0  0  0  0  0  0
   -5.6601    1.2735    0.0000 C   0  0  0  0  0  0  0  0  0  0  0  0
   -4.9526    0.0708    0.0000 N   0  0  0  0  0  0  0  0  0  0  0  0
   -4.9526    0.8489    0.0000 C   0  0  0  0  0  0  0  0  0  0  0  0
   -5.6601    2.0518    0.0000 C   0  0  0  0  0  0  0  0  0  0  0  0
   -4.9526    2.4763    0.0000 C   0  0  0  0  0  0  0  0  0  0  0  0
   -4.1743    1.2735    0.0000 C   0  0  0  0  0  0  0  0  0  0  0  0
   -4.1743    2.0518    0.0000 C   0  0  0  0  0  0  0  0  0  0  0  0
   -4.1743   -0.3537    0.0000 C   0  0  2  0  0  0  0  0  0  0  0  0
   -4.1743   -1.2028    0.0000 C   0  0  0  0  0  0  0  0  0  0  0  0
   -3.5375    0.0708    0.0000 C   0  0  0  0  0  0  0  0  0  0  0  0
   -2.8300   -0.3537    0.0000 N   0  0  0  0  0  0  0  0  0  0  0  0
   -3.5375   -1.6272    0.0000 C   0  0  0  0  0  0  0  0  0  0  0  0
   -2.8300   -1.2028    0.0000 C   0  0  0  0  0  0  0  0  0  0  0  0
   -3.5375   -2.4055    0.0000 C   0  0  0  0  0  0  0  0  0  0  0  0
   -2.8300   -2.8300    0.0000 N   0  0  0  0  0  0  0  0  0  0  0  0
   -2.0518   -1.6272    0.0000 C   0  0  0  0  0  0  0  0  0  0  0  0
   -2.0518   -2.4055    0.0000 C   0  0  0  0  0  0  0  0  0  0  0  0
   -2.0518    0.0708    0.0000 C   0  0  2  0  0  0  0  0  0  0  0  0
   -1.4150   -0.3537    0.0000 C   0  0  0  0  0  0  0  0  0  0  0  0
   -1.4150   -1.2028    0.0000 O   0  0  0  0  0  0  0  0  0  0  0  0
   -0.7074    0.0708    0.0000 N   0  0  0  0  0  0  0  0  0  0  0  0
    0.0000   -0.3537    0.0000 C   0  0  1  0  0  0  0  0  0  0  0  0
    0.0000   -1.2028    0.0000 C   0  0  0  0  0  0  0  0  0  0  0  0
    0.7782    0.0708    0.0000 C   0  0  0  0  0  0  0  0  0  0  0  0
    1.4150   -0.3537    0.0000 N   0  0  0  0  0  0  0  0  0  0  0  0
    0.7782   -1.6272    0.0000 C   0  0  0  0  0  0  0  0  0  0  0  0
   -7.7826    0.8489    0.0000 O   0  0  0  0  0  0  0  0  0  0  0  0
   -3.5375    2.4763    0.0000 Cl  0  0  0  0  0  0  0  0  0  0  0  0
   -3.5375    0.8489    0.0000 O   0  0  0  0  0  0  0  0  0  0  0  0
   -2.0518    0.8489    0.0000 C   0  0  0  0  0  0  0  0  0  0  0  0
   -1.4150    1.2735    0.0000 O   0  0  0  0  0  0  0  0  0  0  0  0
    0.7782    0.8489    0.0000 O   0  0  0  0  0  0  0  0  0  0  0  0
    2.1933   -1.6272    0.0000 C   0  0  0  0  0  0  0  0  0  0  0  0
    2.1933   -2.4055    0.0000 C   0  0  0  0  0  0  0  0  0  0  0  0
    1.4150   -1.2028    0.0000 C   0  0  0  0  0  0  0  0  0  0  0  0
    1.4150   -2.8300    0.0000 C   0  0  0  0  0  0  0  0  0  0  0  0
    0.7782   -2.4055    0.0000 C   0  0  0  0  0  0  0  0  0  0  0  0
    2.9008   -2.8300    0.0000 O   0  0  0  0  0  0  0  0  0  0  0  0
    2.1933    0.0708    0.0000 C   0  0  1  0  0  0  0  0  0  0  0  0
    2.9008   -0.3537    0.0000 C   0  0  0  0  0  0  0  0  0  0  0  0
    2.9008   -1.2028    0.0000 O   0  0  0  0  0  0  0  0  0  0  0  0
    3.6083    0.0708    0.0000 N   0  0  0  0  0  0  0  0  0  0  0  0
    4.3158   -0.3537    0.0000 C   0  0  1  0  0  0  0  0  0  0  0  0
    4.3158   -1.2028    0.0000 C   0  0  0  0  0  0  0  0  0  0  0  0
    5.0233    0.0708    0.0000 C   0  0  0  0  0  0  0  0  0  0  0  0
    5.7308   -0.3537    0.0000 N   0  0  0  0  0  0  0  0  0  0  0  0
    6.4384    0.0708    0.0000 C   0  0  2  0  0  0  0  0  0  0  0  0
    7.1458   -0.3537    0.0000 C   0  0  0  0  0  0  0  0  0  0  0  0
    7.1458   -1.2028    0.0000 O   0  0  0  0  0  0  0  0  0  0  0  0
    7.8533    0.0708    0.0000 N   0  0  0  0  0  0  0  0  0  0  0  0
    7.7826   -1.6980    0.0000 O   0  0  0  0  0  0  0  0  0  0  0  0
    8.4901   -1.2735    0.0000 C   0  0  0  0  0  0  0  0  0  0  0  0
    5.0233   -1.6272    0.0000 C   0  0  0  0  0  0  0  0  0  0  0  0
    2.1933    0.8489    0.0000 C   0  0  0  0  0  0  0  0  0  0  0  0
    2.9008    1.2735    0.0000 C   0  0  0  0  0  0  0  0  0  0  0  0
    2.9008    2.0518    0.0000 C   0  0  0  0  0  0  0  0  0  0  0  0
    3.6083    2.4763    0.0000 N   0  0  0  0  0  0  0  0  0  0  0  0
    3.6083    3.3252    0.0000 C   0  0  0  0  0  0  0  0  0  0  0  0
    2.9008    3.7498    0.0000 O   0  0  0  0  0  0  0  0  0  0  0  0
    4.3158    3.7498    0.0000 N   0  0  0  0  0  0  0  0  0  0  0  0
    5.0233    0.8489    0.0000 O   0  0  0  0  0  0  0  0  0  0  0  0
    6.4384    0.8489    0.0000 C   0  0  0  0  0  0  0  0  0  0  0  0
    7.1458    1.2735    0.0000 C   0  0  0  0  0  0  0  0  0  0  0  0
    7.1458    2.0518    0.0000 C   0  0  0  0  0  0  0  0  0  0  0  0
    7.8533    2.4763    0.0000 N   0  0  0  0  0  0  0  0  0  0  0  0
    7.8533    3.3252    0.0000 C   0  0  0  0  0  0  0  0  0  0  0  0
    7.1458    3.7498    0.0000 N   0  0  0  0  0  0  0  0  0  0  0  0
    8.5609    3.7498    0.0000 N   0  0  0  0  0  0  0  0  0  0  0  0
    8.4901   -0.4244    0.0000 C   0  0  2  0  0  0  0  0  0  0  0  0
    8.0656    0.8489    0.0000 C   0  0  0  0  0  0  0  0  0  0  0  0
    9.1270    0.0708    0.0000 C   0  0  0  0  0  0  0  0  0  0  0  0
    8.9146    0.8489    0.0000 C   0  0  0  0  0  0  0  0  0  0  0  0
    9.1977   -1.6980    0.0000 N   0  0  0  0  0  0  0  0  0  0  0  0
    9.1977   -2.4762    0.0000 C   0  0  1  0  0  0  0  0  0  0  0  0
    9.9052   -2.9008    0.0000 C   0  0  0  0  0  0  0  0  0  0  0  0
    8.4901   -2.9008    0.0000 C   0  0  0  0  0  0  0  0  0  0  0  0
   10.6126   -2.4762    0.0000 O   0  0  0  0  0  0  0  0  0  0  0  0
    9.9052   -3.7498    0.0000 N   0  0  0  0  0  0  0  0  0  0  0  0
    5.0233   -2.4055    0.0000 C   0  0  0  0  0  0  0  0  0  0  0  0
    5.7308   -1.2028    0.0000 C   0  0  0  0  0  0  0  0  0  0  0  0
   -7.7826   -1.6272    0.0000 C   0  0  0  0  0  0  0  0  0  0  0  0
   -7.7826   -2.4055    0.0000 O   0  0  0  0  0  0  0  0  0  0  0  0
   -7.0751   -1.2028    0.0000 C   0  0  0  0  0  0  0  0  0  0  0  0
  -11.5107    1.9679    0.0000 H   0  0  0  0  0  0  0  0  0  0  0  0
   -8.2996    3.8336    0.0000 H   0  0  0  0  0  0  0  0  0  0  0  0
  -11.5107    3.8336    0.0000 H   0  0  0  0  0  0  0  0  0  0  0  0
   -9.9054    4.7818    0.0000 H   0  0  0  0  0  0  0  0  0  0  0  0
  -10.8034    0.7651    0.0000 H   0  0  0  0  0  0  0  0  0  0  0  0
   -7.5921    2.5603    0.0000 H   0  0  0  0  0  0  0  0  0  0  0  0
   -7.5920    0.7651    0.0000 H   0  0  0  0  0  0  0  0  0  0  0  0
   -9.4212   -0.8809    0.0000 H   0  0  0  0  0  0  0  0  0  0  0  0
   -9.3468   -1.6879    0.0000 H   0  0  0  0  0  0  0  0  0  0  0  0
  -10.1288   -0.4564    0.0000 H   0  0  0  0  0  0  0  0  0  0  0  0
   -9.2111   -0.9991    0.0000 H   0  0  0  0  0  0  0  0  0  0  0  0
   -7.0953   -1.3380    0.0000 H   0  0  0  0  0  0  0  0  0  0  0  0
   -7.2170    0.6170    0.0000 H   0  0  0  0  0  0  0  0  0  0  0  0
   -7.2403    1.3538    0.0000 H   0  0  0  0  0  0  0  0  0  0  0  0
   -6.3486    1.9176    0.0000 H   0  0  0  0  0  0  0  0  0  0  0  0
   -4.9728    1.0551    0.0000 H   0  0  0  0  0  0  0  0  0  0  0  0
   -4.9738   -0.1829    0.0000 H   0  0  0  0  0  0  0  0  0  0  0  0
   -6.5581    2.5603    0.0000 H   0  0  0  0  0  0  0  0  0  0  0  0
   -4.9738    3.5081    0.0000 H   0  0  0  0  0  0  0  0  0  0  0  0
   -3.2869    0.7467    0.0000 H   0  0  0  0  0  0  0  0  0  0  0  0
   -5.0944   -0.8999    0.0000 H   0  0  0  0  0  0  0  0  0  0  0  0
   -5.1177   -1.7078    0.0000 H   0  0  0  0  0  0  0  0  0  0  0  0
   -4.2258   -2.2716    0.0000 H   0  0  0  0  0  0  0  0  0  0  0  0
   -2.8502   -1.3380    0.0000 H   0  0  0  0  0  0  0  0  0  0  0  0
   -2.8512   -0.1710    0.0000 H   0  0  0  0  0  0  0  0  0  0  0  0
   -4.4355   -2.9140    0.0000 H   0  0  0  0  0  0  0  0  0  0  0  0
   -1.1644   -1.1004    0.0000 H   0  0  0  0  0  0  0  0  0  0  0  0
   -1.1644   -2.9323    0.0000 H   0  0  0  0  0  0  0  0  0  0  0  0
   -2.9719    0.6170    0.0000 H   0  0  0  0  0  0  0  0  0  0  0  0
   -0.7073    1.0553    0.0000 H   0  0  0  0  0  0  0  0  0  0  0  0
   -0.9311   -0.8809    0.0000 H   0  0  0  0  0  0  0  0  0  0  0  0
   -0.9201   -1.7490    0.0000 H   0  0  0  0  0  0  0  0  0  0  0  0
    0.0195   -2.2726    0.0000 H   0  0  0  0  0  0  0  0  0  0  0  0
    1.3714   -1.3372    0.0000 H   0  0  0  0  0  0  0  0  0  0  0  0
   -2.9952    1.3538    0.0000 H   0  0  0  0  0  0  0  0  0  0  0  0
   -2.1035    1.9176    0.0000 H   0  0  0  0  0  0  0  0  0  0  0  0
   -0.5455    0.8436    0.0000 H   0  0  0  0  0  0  0  0  0  0  0  0
    3.0807   -1.1003    0.0000 H   0  0  0  0  0  0  0  0  0  0  0  0
    1.3693   -0.1718    0.0000 H   0  0  0  0  0  0  0  0  0  0  0  0
    1.3693   -3.8610    0.0000 H   0  0  0  0  0  0  0  0  0  0  0  0
   -0.1317   -2.8925    0.0000 H   0  0  0  0  0  0  0  0  0  0  0  0
    2.8850   -3.7669    0.0000 H   0  0  0  0  0  0  0  0  0  0  0  0
    1.2732    0.6170    0.0000 H   0  0  0  0  0  0  0  0  0  0  0  0
    3.6083    1.0553    0.0000 H   0  0  0  0  0  0  0  0  0  0  0  0
    3.3847   -0.8809    0.0000 H   0  0  0  0  0  0  0  0  0  0  0  0
    3.3847   -1.7300    0.0000 H   0  0  0  0  0  0  0  0  0  0  0  0
    4.3024   -2.2727    0.0000 H   0  0  0  0  0  0  0  0  0  0  0  0
    5.7308   -1.3382    0.0000 H   0  0  0  0  0  0  0  0  0  0  0  0
    5.5073    0.5980    0.0000 H   0  0  0  0  0  0  0  0  0  0  0  0
    5.9544   -2.1544    0.0000 H   0  0  0  0  0  0  0  0  0  0  0  0
    1.2622    1.3760    0.0000 H   0  0  0  0  0  0  0  0  0  0  0  0
    2.1797    1.9188    0.0000 H   0  0  0  0  0  0  0  0  0  0  0  0
    3.8319    0.7464    0.0000 H   0  0  0  0  0  0  0  0  0  0  0  0
    3.8252    1.8124    0.0000 H   0  0  0  0  0  0  0  0  0  0  0  0
    1.9697    2.5790    0.0000 H   0  0  0  0  0  0  0  0  0  0  0  0
    2.8873    3.1217    0.0000 H   0  0  0  0  0  0  0  0  0  0  0  0
    4.4650    1.9912    0.0000 H   0  0  0  0  0  0  0  0  0  0  0  0
    5.1766    3.2720    0.0000 H   0  0  0  0  0  0  0  0  0  0  0  0
    4.2991    4.7342    0.0000 H   0  0  0  0  0  0  0  0  0  0  0  0
    5.5072    1.3760    0.0000 H   0  0  0  0  0  0  0  0  0  0  0  0
    6.4248    1.9188    0.0000 H   0  0  0  0  0  0  0  0  0  0  0  0
    8.0770    0.7464    0.0000 H   0  0  0  0  0  0  0  0  0  0  0  0
    8.0702    1.8124    0.0000 H   0  0  0  0  0  0  0  0  0  0  0  0
    6.2147    2.5790    0.0000 H   0  0  0  0  0  0  0  0  0  0  0  0
    7.1323    3.1217    0.0000 H   0  0  0  0  0  0  0  0  0  0  0  0
    8.7100    1.9912    0.0000 H   0  0  0  0  0  0  0  0  0  0  0  0
    7.1625    4.7342    0.0000 H   0  0  0  0  0  0  0  0  0  0  0  0
    9.4217    3.2720    0.0000 H   0  0  0  0  0  0  0  0  0  0  0  0
    8.5443    4.7342    0.0000 H   0  0  0  0  0  0  0  0  0  0  0  0
    7.5289   -0.8945    0.0000 H   0  0  0  0  0  0  0  0  0  0  0  0
    7.4162    1.6993    0.0000 H   0  0  0  0  0  0  0  0  0  0  0  0
    8.5399    1.8080    0.0000 H   0  0  0  0  0  0  0  0  0  0  0  0
   10.1421   -0.2675    0.0000 H   0  0  0  0  0  0  0  0  0  0  0  0
    9.9042    0.8062    0.0000 H   0  0  0  0  0  0  0  0  0  0  0  0
    9.5640    1.6993    0.0000 H   0  0  0  0  0  0  0  0  0  0  0  0
    9.9648    0.6438    0.0000 H   0  0  0  0  0  0  0  0  0  0  0  0
   10.0544   -1.2129    0.0000 H   0  0  0  0  0  0  0  0  0  0  0  0
    8.2666   -1.9490    0.0000 H   0  0  0  0  0  0  0  0  0  0  0  0
    7.5546   -2.3815    0.0000 H   0  0  0  0  0  0  0  0  0  0  0  0
    8.5081   -3.9706    0.0000 H   0  0  0  0  0  0  0  0  0  0  0  0
    7.5726   -3.4513    0.0000 H   0  0  0  0  0  0  0  0  0  0  0  0
    9.0526   -4.2420    0.0000 H   0  0  0  0  0  0  0  0  0  0  0  0
   10.7578   -4.2420    0.0000 H   0  0  0  0  0  0  0  0  0  0  0  0
    4.0967   -2.9405    0.0000 H   0  0  0  0  0  0  0  0  0  0  0  0
    5.9499   -2.9405    0.0000 H   0  0  0  0  0  0  0  0  0  0  0  0
    5.0233   -3.4755    0.0000 H   0  0  0  0  0  0  0  0  0  0  0  0
    6.6663   -1.7222    0.0000 H   0  0  0  0  0  0  0  0  0  0  0  0
    5.7129   -0.1329    0.0000 H   0  0  0  0  0  0  0  0  0  0  0  0
    6.6484   -0.6524    0.0000 H   0  0  0  0  0  0  0  0  0  0  0  0
   -6.1396   -1.7222    0.0000 H   0  0  0  0  0  0  0  0  0  0  0  0
   -7.0930   -0.1329    0.0000 H   0  0  0  0  0  0  0  0  0  0  0  0
   -6.1575   -0.6524    0.0000 H   0  0  0  0  0  0  0  0  0  0  0  0
  2  1  1  0  0  0  0
  3  1  2  0  0  0  0
  3103  1  0  0  0  0
  4  2  2  0  0  0  0
  4104  1  0  0  0  0
  5  3  1  0  0  0  0
  5105  1  0  0  0  0
  6  4  1  0  0  0  0
  6  5  2  0  0  0  0
  6106  1  0  0  0  0
  7  1  1  0  0  0  0
  7107  1  0  0  0  0
  8  7  2  0  0  0  0
  9  2  1  0  0  0  0
  9108  1  0  0  0  0
 10  8  1  0  0  0  0
 10  9  2  0  0  0  0
 10109  1  0  0  0  0
 11 12  1  0  0  0  0
 11110  1  1  0  0  0
 12111  1  0  0  0  0
 13  8  1  0  0  0  0
 13 11  1  0  0  0  0
 13112  1  0  0  0  0
 13113  1  0  0  0  0
 14114  1  0  0  0  0
 15 11  1  0  0  0  0
 15 14  1  0  0  0  0
 16 14  1  0  0  0  0
 16 19  1  0  0  0  0
 16115  1  1  0  0  0
 17 16  1  0  0  0  0
 18 17  2  0  0  0  0
 19116  1  0  0  0  0
 19117  1  0  0  0  0
 20 19  1  0  0  0  0
 21 17  1  0  0  0  0
 21118  1  0  0  0  0
 22 20  1  0  0  0  0
 22119  1  0  0  0  0
 23 20  2  0  0  0  0
 23120  1  0  0  0  0
 24 23  1  0  0  0  0
 24121  1  0  0  0  0
 25 22  2  0  0  0  0
 25122  1  0  0  0  0
 26 24  2  0  0  0  0
 26 25  1  0  0  0  0
 27 21  1  0  0  0  0
 27 28  1  0  0  0  0
 27123  1  6  0  0  0
 28124  1  0  0  0  0
 28125  1  0  0  0  0
 29 27  1  0  0  0  0
 30 29  1  0  0  0  0
 30126  1  0  0  0  0
 31 28  1  0  0  0  0
 32 31  1  0  0  0  0
 32127  1  0  0  0  0
 33 31  2  0  0  0  0
 33128  1  0  0  0  0
 34 33  1  0  0  0  0
 35 32  2  0  0  0  0
 35129  1  0  0  0  0
 36 34  2  0  0  0  0
 36 35  1  0  0  0  0
 36130  1  0  0  0  0
 37 30  1  0  0  0  0
 37 49  1  0  0  0  0
 37131  1  6  0  0  0
 38 37  1  0  0  0  0
 39 38  2  0  0  0  0
 40 38  1  0  0  0  0
 40132  1  0  0  0  0
 41 40  1  0  0  0  0
 41 42  1  0  0  0  0
 41133  1  1  0  0  0
 42134  1  0  0  0  0
 42135  1  0  0  0  0
 43 41  1  0  0  0  0
 44 43  1  0  0  0  0
 44136  1  0  0  0  0
 45 42  1  0  0  0  0
 46 15  2  0  0  0  0
 47 26  1  0  0  0  0
 48 29  2  0  0  0  0
 49137  1  0  0  0  0
 49138  1  0  0  0  0
 50 49  1  0  0  0  0
 50139  1  0  0  0  0
 51 43  2  0  0  0  0
 52140  1  0  0  0  0
 53 52  1  0  0  0  0
 54 45  1  0  0  0  0
 54 52  2  0  0  0  0
 54141  1  0  0  0  0
 55 53  2  0  0  0  0
 55142  1  0  0  0  0
 56 45  2  0  0  0  0
 56 55  1  0  0  0  0
 56143  1  0  0  0  0
 57 53  1  0  0  0  0
 57144  1  0  0  0  0
 58 44  1  0  0  0  0
 58 73  1  0  0  0  0
 58145  1  1  0  0  0
 59 58  1  0  0  0  0
 60 59  2  0  0  0  0
 61 59  1  0  0  0  0
 61146  1  0  0  0  0
 62 61  1  0  0  0  0
 62 63  1  0  0  0  0
 62147  1  1  0  0  0
 63148  1  0  0  0  0
 63149  1  0  0  0  0
 64 62  1  0  0  0  0
 65 64  1  0  0  0  0
 65150  1  0  0  0  0
 66 65  1  0  0  0  0
 66 81  1  0  0  0  0
 66151  1  6  0  0  0
 67 66  1  0  0  0  0
 68 67  2  0  0  0  0
 69 67  1  0  0  0  0
 71 70  2  0  0  0  0
 72 63  1  0  0  0  0
 72 99  1  0  0  0  0
 72152  1  0  0  0  0
 73153  1  0  0  0  0
 73154  1  0  0  0  0
 74 73  1  0  0  0  0
 74155  1  0  0  0  0
 74156  1  0  0  0  0
 75 74  1  0  0  0  0
 75157  1  0  0  0  0
 75158  1  0  0  0  0
 76 75  1  0  0  0  0
 76159  1  0  0  0  0
 77 76  1  0  0  0  0
 78 77  2  0  0  0  0
 79 77  1  0  0  0  0
 79160  1  0  0  0  0
 79161  1  0  0  0  0
 80 64  2  0  0  0  0
 81162  1  0  0  0  0
 81163  1  0  0  0  0
 82 81  1  0  0  0  0
 82164  1  0  0  0  0
 82165  1  0  0  0  0
 83 82  1  0  0  0  0
 83166  1  0  0  0  0
 83167  1  0  0  0  0
 84 83  1  0  0  0  0
 84168  1  0  0  0  0
 85 84  1  0  0  0  0
 86 85  2  0  0  0  0
 86169  1  0  0  0  0
 87 85  1  0  0  0  0
 87170  1  0  0  0  0
 87171  1  0  0  0  0
 88 69  1  0  0  0  0
 88 71  1  0  0  0  0
 88172  1  6  0  0  0
 89 69  1  0  0  0  0
 89173  1  0  0  0  0
 89174  1  0  0  0  0
 90 88  1  0  0  0  0
 90175  1  0  0  0  0
 90176  1  0  0  0  0
 91 89  1  0  0  0  0
 91 90  1  0  0  0  0
 91177  1  0  0  0  0
 91178  1  0  0  0  0
 92 71  1  0  0  0  0
 92179  1  0  0  0  0
 93 92  1  0  0  0  0
 93 95  1  0  0  0  0
 93180  1  6  0  0  0
 94 93  1  0  0  0  0
 95181  1  0  0  0  0
 95182  1  0  0  0  0
 95183  1  0  0  0  0
 96 94  2  0  0  0  0
 97 94  1  0  0  0  0
 97184  1  0  0  0  0
 97185  1  0  0  0  0
 98 72  1  0  0  0  0
 98186  1  0  0  0  0
 98187  1  0  0  0  0
 98188  1  0  0  0  0
 99189  1  0  0  0  0
 99190  1  0  0  0  0
 99191  1  0  0  0  0
100 12  1  0  0  0  0
101100  2  0  0  0  0
102100  1  0  0  0  0
102192  1  0  0  0  0
102193  1  0  0  0  0
102194  1  0  0  0  0
M  END
>  <DRUGBANK_ID>
DB00050

>  <SECONDARY_ACCESSION_NUMBERS>
BTD00115; APRD00686; BIOD00115

>  <COMMON_NAME>
Cetrorelix

>  <CAS_NUMBER>
120287-85-6

>  <UNII>
OON1HFZ4BA

>  <SYNONYMS>
Cetrorelix; Cetrorelixum

$$$$
