262
 OpenBabel10282417072D

 20 20  0  0  0  0  0  0  0  0999 V2000
    1.5657    0.0672    0.0000 C   0  0  0  0  0  0  0  0  0  0  0  0
    1.5657   -0.7578    0.0000 C   0  0  0  0  0  0  0  0  0  0  0  0
    0.8512   -1.1703    0.0000 C   0  0  0  0  0  0  0  0  0  0  0  0
    0.1367   -0.7578    0.0000 C   0  0  0  0  0  0  0  0  0  0  0  0
    0.1367    0.0672    0.0000 C   0  0  0  0  0  0  0  0  0  0  0  0
    0.8512    0.4797    0.0000 C   0  0  0  0  0  0  0  0  0  0  0  0
    0.8512    1.3047    0.0000 C   0  0  0  0  0  0  0  0  0  0  0  0
   -0.5778    0.4797    0.0000 O   0  0  0  0  0  0  0  0  0  0  0  0
   -1.2922    0.0672    0.0000 P   0  0  0  0  0  0  0  0  0  0  0  0
   -2.0067   -0.3453    0.0000 O   0  0  0  0  0  0  0  0  0  0  0  0
   -1.7047    0.7817    0.0000 O   0  0  0  0  0  0  0  0  0  0  0  0
   -0.8797   -0.6472    0.0000 O   0  0  0  0  0  0  0  0  0  0  0  0
    0.1367    1.7172    0.0000 O   0  0  0  0  0  0  0  0  0  0  0  0
    2.4594    0.5832    0.0000 H   0  0  0  0  0  0  0  0  0  0  0  0
    2.4594   -1.2738    0.0000 H   0  0  0  0  0  0  0  0  0  0  0  0
    0.8512   -2.2023    0.0000 H   0  0  0  0  0  0  0  0  0  0  0  0
   -0.7570   -1.2738    0.0000 H   0  0  0  0  0  0  0  0  0  0  0  0
    1.7449    1.8207    0.0000 H   0  0  0  0  0  0  0  0  0  0  0  0
   -2.8467    0.1397    0.0000 H   0  0  0  0  0  0  0  0  0  0  0  0
   -1.2197    1.6217    0.0000 H   0  0  0  0  0  0  0  0  0  0  0  0
  1  2  2  0  0  0  0
  1  6  1  0  0  0  0
  1 14  1  0  0  0  0
  2  3  1  0  0  0  0
  2 15  1  0  0  0  0
  3  4  2  0  0  0  0
  3 16  1  0  0  0  0
  4  5  1  0  0  0  0
  4 17  1  0  0  0  0
  5  6  2  0  0  0  0
  5  8  1  0  0  0  0
  6  7  1  0  0  0  0
  7 13  2  0  0  0  0
  7 18  1  0  0  0  0
  8  9  1  0  0  0  0
  9 10  1  0  0  0  0
  9 11  1  0  0  0  0
  9 12  2  0  0  0  0
 10 19  1  0  0  0  0
 11 20  1  0  0  0  0
M  END
>  <DRUGBANK_ID>
DB01947

>  <SECONDARY_ACCESSION_NUMBERS>
EXPT00096

>  <COMMON_NAME>
RU78262

>  <UNII>
UP67646C7V

$$$$
