
 OpenBabel10282417072D

 61 62  0  0  0  0  0  0  0  0999 V2000
    0.2887   -1.6572    0.0000 C   0  0  0  0  0  0  0  0  0  0  0  0
    0.2887   -2.4822    0.0000 C   0  0  0  0  0  0  0  0  0  0  0  0
    1.0031   -2.8947    0.0000 C   0  0  0  0  0  0  0  0  0  0  0  0
    1.7176   -2.4822    0.0000 C   0  0  0  0  0  0  0  0  0  0  0  0
    1.7176   -1.6573    0.0000 C   0  0  0  0  0  0  0  0  0  0  0  0
    1.0032   -1.2448    0.0000 C   0  0  0  0  0  0  0  0  0  0  0  0
    2.4321   -1.2448    0.0000 C   0  0  0  0  0  0  0  0  0  0  0  0
    2.4322   -0.4198    0.0000 C   0  0  2  0  0  0  0  0  0  0  0  0
    1.7177   -0.0073    0.0000 C   0  0  0  0  0  0  0  0  0  0  0  0
    3.1467   -0.0074    0.0000 N   0  0  0  0  0  0  0  0  0  0  0  0
    3.1467    0.8175    0.0000 C   0  0  0  0  0  0  0  0  0  0  0  0
   -2.4322   -0.2558    0.0000 C   0  0  0  0  0  0  0  0  0  0  0  0
   -2.4322    0.5691    0.0000 N   0  0  0  0  0  0  0  0  0  0  0  0
   -1.7177    0.9816    0.0000 C   0  0  0  0  0  0  0  0  0  0  0  0
   -1.0033    0.5691    0.0000 C   0  0  0  0  0  0  0  0  0  0  0  0
   -1.0033   -0.2558    0.0000 C   0  0  0  0  0  0  0  0  0  0  0  0
   -1.7178   -0.6682    0.0000 N   0  0  0  0  0  0  0  0  0  0  0  0
   -3.1467   -0.6682    0.0000 O   0  0  0  0  0  0  0  0  0  0  0  0
   -0.2889   -0.6684    0.0000 O   0  0  0  0  0  0  0  0  0  0  0  0
   -1.7177    1.8066    0.0000 O   0  0  0  0  0  0  0  0  0  0  0  0
   -0.7211    1.3443    0.0000 C   0  0  0  0  0  0  0  0  0  0  0  0
   -0.1908    0.4258    0.0000 C   0  0  0  0  0  0  0  0  0  0  0  0
    0.0912   -0.3494    0.0000 C   0  0  0  0  0  0  0  0  0  0  0  0
    0.0913    1.4875    0.0000 C   0  0  0  0  0  0  0  0  0  0  0  0
    0.3735    2.2627    0.0000 C   0  0  0  0  0  0  0  0  0  0  0  0
   -0.1566    2.8947    0.0000 C   0  0  0  0  0  0  0  0  0  0  0  0
   -0.9691    2.7515    0.0000 C   0  0  0  0  0  0  0  0  0  0  0  0
   -1.2513    1.9763    0.0000 C   0  0  0  0  0  0  0  0  0  0  0  0
   -0.6379   -1.1221    0.0000 H   0  0  0  0  0  0  0  0  0  0  0  0
    0.2888   -0.5872    0.0000 H   0  0  0  0  0  0  0  0  0  0  0  0
   -0.6380   -3.0172    0.0000 H   0  0  0  0  0  0  0  0  0  0  0  0
   -0.6379   -1.9472    0.0000 H   0  0  0  0  0  0  0  0  0  0  0  0
    1.0031   -3.9647    0.0000 H   0  0  0  0  0  0  0  0  0  0  0  0
    1.9297   -3.4297    0.0000 H   0  0  0  0  0  0  0  0  0  0  0  0
    2.6442   -3.0172    0.0000 H   0  0  0  0  0  0  0  0  0  0  0  0
    2.6442   -1.9472    0.0000 H   0  0  0  0  0  0  0  0  0  0  0  0
    1.7176   -0.5873    0.0000 H   0  0  0  0  0  0  0  0  0  0  0  0
    1.0033   -0.1748    0.0000 H   0  0  0  0  0  0  0  0  0  0  0  0
    0.0766   -0.7097    0.0000 H   0  0  0  0  0  0  0  0  0  0  0  0
    3.3587   -1.7799    0.0000 H   0  0  0  0  0  0  0  0  0  0  0  0
    3.3588   -0.7099    0.0000 H   0  0  0  0  0  0  0  0  0  0  0  0
    3.3588   -0.9549    0.0000 H   0  0  0  0  0  0  0  0  0  0  0  0
    1.7177    1.0627    0.0000 H   0  0  0  0  0  0  0  0  0  0  0  0
    0.7911   -0.5423    0.0000 H   0  0  0  0  0  0  0  0  0  0  0  0
    0.7910    0.5277    0.0000 H   0  0  0  0  0  0  0  0  0  0  0  0
    4.0300   -0.5175    0.0000 H   0  0  0  0  0  0  0  0  0  0  0  0
    4.0733    1.3525    0.0000 H   0  0  0  0  0  0  0  0  0  0  0  0
    2.2201    1.3525    0.0000 H   0  0  0  0  0  0  0  0  0  0  0  0
    3.1467    1.8875    0.0000 H   0  0  0  0  0  0  0  0  0  0  0  0
   -3.2848    1.0614    0.0000 H   0  0  0  0  0  0  0  0  0  0  0  0
   -1.7178   -1.6527    0.0000 H   0  0  0  0  0  0  0  0  0  0  0  0
    0.4971    1.2454    0.0000 H   0  0  0  0  0  0  0  0  0  0  0  0
    0.8629    0.2399    0.0000 H   0  0  0  0  0  0  0  0  0  0  0  0
   -0.5967   -1.1690    0.0000 H   0  0  0  0  0  0  0  0  0  0  0  0
    1.1449   -0.5354    0.0000 H   0  0  0  0  0  0  0  0  0  0  0  0
    0.4570   -1.3549    0.0000 H   0  0  0  0  0  0  0  0  0  0  0  0
    0.7546    0.6969    0.0000 H   0  0  0  0  0  0  0  0  0  0  0  0
    1.3898    2.4418    0.0000 H   0  0  0  0  0  0  0  0  0  0  0  0
    0.1965    3.8644    0.0000 H   0  0  0  0  0  0  0  0  0  0  0  0
   -1.6324    3.5421    0.0000 H   0  0  0  0  0  0  0  0  0  0  0  0
   -2.2676    1.7972    0.0000 H   0  0  0  0  0  0  0  0  0  0  0  0
  1  2  1  0  0  0  0
  1  6  1  0  0  0  0
  1 29  1  0  0  0  0
  1 30  1  0  0  0  0
  2  3  1  0  0  0  0
  2 31  1  0  0  0  0
  2 32  1  0  0  0  0
  3  4  1  0  0  0  0
  3 33  1  0  0  0  0
  3 34  1  0  0  0  0
  4  5  1  0  0  0  0
  4 35  1  0  0  0  0
  4 36  1  0  0  0  0
  5  6  1  0  0  0  0
  5  7  1  0  0  0  0
  5 37  1  0  0  0  0
  6 38  1  0  0  0  0
  6 39  1  0  0  0  0
  7  8  1  0  0  0  0
  7 40  1  0  0  0  0
  7 41  1  0  0  0  0
  8  9  1  0  0  0  0
  8 10  1  0  0  0  0
  8 42  1  1  0  0  0
  9 43  1  0  0  0  0
  9 44  1  0  0  0  0
  9 45  1  0  0  0  0
 10 11  1  0  0  0  0
 10 46  1  0  0  0  0
 11 47  1  0  0  0  0
 11 48  1  0  0  0  0
 11 49  1  0  0  0  0
 12 17  1  0  0  0  0
 12 18  2  0  0  0  0
 12 13  1  0  0  0  0
 13 14  1  0  0  0  0
 13 50  1  0  0  0  0
 14 15  1  0  0  0  0
 14 20  2  0  0  0  0
 15 16  1  0  0  0  0
 15 21  1  0  0  0  0
 15 22  1  0  0  0  0
 16 17  1  0  0  0  0
 16 19  2  0  0  0  0
 17 51  1  0  0  0  0
 21 24  2  0  0  0  0
 22 23  1  0  0  0  0
 22 52  1  0  0  0  0
 22 53  1  0  0  0  0
 23 54  1  0  0  0  0
 23 55  1  0  0  0  0
 23 56  1  0  0  0  0
 24 25  1  0  0  0  0
 24 57  1  0  0  0  0
 25 26  2  0  0  0  0
 25 58  1  0  0  0  0
 26 27  1  0  0  0  0
 26 59  1  0  0  0  0
 27 28  2  0  0  0  0
 27 60  1  0  0  0  0
 28 21  1  0  0  0  0
 28 61  1  0  0  0  0
M  END
>  <DRUGBANK_ID>
DB09001

>  <COMMON_NAME>
Barbexaclone

>  <CAS_NUMBER>
4388-82-3

>  <UNII>
291GX1YB65

>  <SYNONYMS>
Barbexaclon; Barbexaclona; Barbexaclone; Barbexaclonum

$$$$
