655
 OpenBabel10282417072D

 45 48  0  0  0  0  0  0  0  0999 V2000
    2.3484   -0.5924    0.0000 C   0  0  0  0  0  0  0  0  0  0  0  0
    2.3484   -1.4174    0.0000 C   0  0  0  0  0  0  0  0  0  0  0  0
    1.6340   -1.8299    0.0000 C   0  0  0  0  0  0  0  0  0  0  0  0
    0.9195   -1.4174    0.0000 C   0  0  0  0  0  0  0  0  0  0  0  0
    0.9195   -0.5924    0.0000 C   0  0  0  0  0  0  0  0  0  0  0  0
    1.6340   -0.1799    0.0000 C   0  0  0  0  0  0  0  0  0  0  0  0
    3.0629   -0.1799    0.0000 C   0  0  0  0  0  0  0  0  0  0  0  0
    3.7774   -0.5924    0.0000 N   0  0  0  0  0  0  0  0  0  0  0  0
    3.0629    0.6451    0.0000 N   0  3  0  0  0  0  0  0  0  0  0  0
    0.1349   -1.6724    0.0000 N   0  0  0  0  0  0  0  0  0  0  0  0
    0.1349   -0.3375    0.0000 N   0  0  0  0  0  0  0  0  0  0  0  0
   -0.3500   -1.0049    0.0000 C   0  0  0  0  0  0  0  0  0  0  0  0
   -1.1750   -1.0049    0.0000 C   0  0  0  0  0  0  0  0  0  0  0  0
   -1.5875   -1.7194    0.0000 C   0  0  0  0  0  0  0  0  0  0  0  0
   -2.4125   -1.7194    0.0000 C   0  0  0  0  0  0  0  0  0  0  0  0
   -2.8250   -1.0049    0.0000 C   0  0  0  0  0  0  0  0  0  0  0  0
   -2.4125   -0.2905    0.0000 C   0  0  0  0  0  0  0  0  0  0  0  0
   -2.8250    0.4240    0.0000 O   0  0  0  0  0  0  0  0  0  0  0  0
   -1.5875   -0.2905    0.0000 C   0  0  0  0  0  0  0  0  0  0  0  0
   -1.1750    0.4240    0.0000 O   0  5  0  0  0  0  0  0  0  0  0  0
   -1.5921    1.2247    0.0000 C   0  0  0  0  0  0  0  0  0  0  0  0
   -2.4125    1.1385    0.0000 C   0  0  0  0  0  0  0  0  0  0  0  0
   -2.7481    1.8922    0.0000 C   0  0  0  0  0  0  0  0  0  0  0  0
   -2.1350    2.4442    0.0000 C   0  0  0  0  0  0  0  0  0  0  0  0
   -1.4205    2.0317    0.0000 C   0  0  0  0  0  0  0  0  0  0  0  0
    3.2421   -1.9334    0.0000 H   0  0  0  0  0  0  0  0  0  0  0  0
    1.6340   -2.8619    0.0000 H   0  0  0  0  0  0  0  0  0  0  0  0
    1.6340    0.8521    0.0000 H   0  0  0  0  0  0  0  0  0  0  0  0
    3.7774   -1.5769    0.0000 H   0  0  0  0  0  0  0  0  0  0  0  0
    4.6300   -0.1001    0.0000 H   0  0  0  0  0  0  0  0  0  0  0  0
    3.9155    1.1374    0.0000 H   0  0  0  0  0  0  0  0  0  0  0  0
    2.2103    1.1374    0.0000 H   0  0  0  0  0  0  0  0  0  0  0  0
   -0.1693   -2.6087    0.0000 H   0  0  0  0  0  0  0  0  0  0  0  0
   -1.0715   -2.6131    0.0000 H   0  0  0  0  0  0  0  0  0  0  0  0
   -2.9285   -2.6131    0.0000 H   0  0  0  0  0  0  0  0  0  0  0  0
   -3.8570   -1.0049    0.0000 H   0  0  0  0  0  0  0  0  0  0  0  0
   -0.8762    0.4295    0.0000 H   0  0  0  0  0  0  0  0  0  0  0  0
   -0.5585    1.5016    0.0000 H   0  0  0  0  0  0  0  0  0  0  0  0
   -1.8775    2.0651    0.0000 H   0  0  0  0  0  0  0  0  0  0  0  0
   -3.7947    2.1147    0.0000 H   0  0  0  0  0  0  0  0  0  0  0  0
   -3.0250    2.9257    0.0000 H   0  0  0  0  0  0  0  0  0  0  0  0
   -2.2468    3.5083    0.0000 H   0  0  0  0  0  0  0  0  0  0  0  0
   -1.2376    3.0270    0.0000 H   0  0  0  0  0  0  0  0  0  0  0  0
   -0.4430    2.4669    0.0000 H   0  0  0  0  0  0  0  0  0  0  0  0
   -1.3645    3.1002    0.0000 H   0  0  0  0  0  0  0  0  0  0  0  0
  1  2  2  0  0  0  0
  1  6  1  0  0  0  0
  1  7  1  0  0  0  0
  2  3  1  0  0  0  0
  2 26  1  0  0  0  0
  3  4  2  0  0  0  0
  3 27  1  0  0  0  0
  4  5  1  0  0  0  0
  4 10  1  0  0  0  0
  5  6  2  0  0  0  0
  5 11  1  0  0  0  0
  6 28  1  0  0  0  0
  7  8  1  0  0  0  0
  7  9  2  0  0  0  0
  8 29  1  0  0  0  0
  8 30  1  0  0  0  0
  9 31  1  0  0  0  0
  9 32  1  0  0  0  0
 10 12  1  0  0  0  0
 10 33  1  0  0  0  0
 11 12  2  0  0  0  0
 12 13  1  0  0  0  0
 13 14  2  0  0  0  0
 13 19  1  0  0  0  0
 14 15  1  0  0  0  0
 14 34  1  0  0  0  0
 15 16  2  0  0  0  0
 15 35  1  0  0  0  0
 16 17  1  0  0  0  0
 16 36  1  0  0  0  0
 17 18  1  0  0  0  0
 17 19  2  0  0  0  0
 18 22  1  0  0  0  0
 19 20  1  0  0  0  0
 21 22  1  0  0  0  0
 21 25  1  0  0  0  0
 21 37  1  0  0  0  0
 21 38  1  0  0  0  0
 22 23  1  0  0  0  0
 22 39  1  0  0  0  0
 23 24  1  0  0  0  0
 23 40  1  0  0  0  0
 23 41  1  0  0  0  0
 24 25  1  0  0  0  0
 24 42  1  0  0  0  0
 24 43  1  0  0  0  0
 25 44  1  0  0  0  0
 25 45  1  0  0  0  0
M  CHG  2   9   1  20  -1
M  END
>  <DRUGBANK_ID>
DB02526

>  <SECONDARY_ACCESSION_NUMBERS>
EXPT00270

>  <COMMON_NAME>
CRA_10655

$$$$
