
 OpenBabel10282417072D

 31 34  0  0  1  0  0  0  0  0999 V2000
    0.3356   -2.4037    0.0000 C   0  0  0  0  0  0  0  0  0  0  0  0
   -0.4849   -2.3174    0.0000 C   0  0  2  0  0  0  0  0  0  0  0  0
   -1.2695   -2.0625    0.0000 C   0  0  0  0  0  0  0  0  0  0  0  0
   -1.2695   -1.2375    0.0000 N   0  0  0  0  0  0  0  0  0  0  0  0
   -0.4849   -0.9826    0.0000 C   0  0  0  0  0  0  0  0  0  0  0  0
    0.0000   -1.6500    0.0000 C   0  0  2  0  0  0  0  0  0  0  0  0
    0.7145   -1.2375    0.0000 C   0  0  0  0  0  0  0  0  0  0  0  0
    0.7145   -0.4125    0.0000 C   0  0  0  0  0  0  0  0  0  0  0  0
    1.4289    0.0000    0.0000 C   0  0  0  0  0  0  0  0  0  0  0  0
    2.1434   -0.4125    0.0000 C   0  0  0  0  0  0  0  0  0  0  0  0
    2.8579    0.0000    0.0000 C   0  0  0  0  0  0  0  0  0  0  0  0
    3.5724   -0.4125    0.0000 C   0  0  0  0  0  0  0  0  0  0  0  0
    3.5724   -1.2375    0.0000 C   0  0  0  0  0  0  0  0  0  0  0  0
    2.8579   -1.6500    0.0000 C   0  0  0  0  0  0  0  0  0  0  0  0
    2.1434   -1.2375    0.0000 C   0  0  0  0  0  0  0  0  0  0  0  0
    1.4289   -1.6500    0.0000 C   0  0  0  0  0  0  0  0  0  0  0  0
    1.2012   -3.0326    0.0000 H   0  0  0  0  0  0  0  0  0  0  0  0
    1.1671   -1.7303    0.0000 H   0  0  0  0  0  0  0  0  0  0  0  0
   -0.2624   -1.2708    0.0000 H   0  0  0  0  0  0  0  0  0  0  0  0
   -2.1351   -2.6914    0.0000 H   0  0  0  0  0  0  0  0  0  0  0  0
   -2.2229   -1.5767    0.0000 H   0  0  0  0  0  0  0  0  0  0  0  0
   -2.0947   -0.6379    0.0000 H   0  0  0  0  0  0  0  0  0  0  0  0
   -0.1542    0.0350    0.0000 H   0  0  0  0  0  0  0  0  0  0  0  0
    0.5719   -0.8152    0.0000 H   0  0  0  0  0  0  0  0  0  0  0  0
   -0.1792    0.1035    0.0000 H   0  0  0  0  0  0  0  0  0  0  0  0
    1.4289    1.0320    0.0000 H   0  0  0  0  0  0  0  0  0  0  0  0
    2.8579    1.0320    0.0000 H   0  0  0  0  0  0  0  0  0  0  0  0
    4.4661    0.1035    0.0000 H   0  0  0  0  0  0  0  0  0  0  0  0
    4.4661   -1.7535    0.0000 H   0  0  0  0  0  0  0  0  0  0  0  0
    2.8579   -2.6820    0.0000 H   0  0  0  0  0  0  0  0  0  0  0  0
    1.4289   -2.6820    0.0000 H   0  0  0  0  0  0  0  0  0  0  0  0
  1 17  1  0  0  0  0
  1 18  1  0  0  0  0
  2  1  1  0  0  0  0
  2  3  1  0  0  0  0
  2  6  1  0  0  0  0
  2 19  1  1  0  0  0
  3  4  1  0  0  0  0
  3 20  1  0  0  0  0
  3 21  1  0  0  0  0
  4  5  1  0  0  0  0
  4 22  1  0  0  0  0
  5 23  1  0  0  0  0
  5 24  1  0  0  0  0
  6  5  1  0  0  0  0
  6  1  1  0  0  0  0
  6  7  1  1  0  0  0
  7  8  2  0  0  0  0
  7 16  1  0  0  0  0
  8  9  1  0  0  0  0
  8 25  1  0  0  0  0
  9 10  2  0  0  0  0
  9 26  1  0  0  0  0
 10 11  1  0  0  0  0
 10 15  1  0  0  0  0
 11 12  2  0  0  0  0
 11 27  1  0  0  0  0
 12 13  1  0  0  0  0
 12 28  1  0  0  0  0
 13 14  2  0  0  0  0
 13 29  1  0  0  0  0
 14 15  1  0  0  0  0
 14 30  1  0  0  0  0
 15 16  2  0  0  0  0
 16 31  1  0  0  0  0
M  END
>  <DRUGBANK_ID>
DB14841

>  <COMMON_NAME>
Centanafadine

>  <CAS_NUMBER>
924012-43-1

>  <UNII>
D2A6T4UH9C

>  <SYNONYMS>
Centanafadine

$$$$
