
 OpenBabel10282417072D

  6  5  0  0  0  0  0  0  0  0999 V2000
    0.6185    0.7142    0.0000 O   0  0  0  0  0  0  0  0  0  0  0  0
    0.2056    0.0000    0.0000 Mo  0  0  0  0  0  0  0  0  0  0  0  0
    0.6185   -0.7142    0.0000 O   0  0  0  0  0  0  0  0  0  0  0  0
   -0.6185    0.0000    0.0000 O   0  0  0  0  0  0  0  0  0  0  0  0
    1.5885    0.7136    0.0000 H   0  0  0  0  0  0  0  0  0  0  0  0
    0.1340   -1.5545    0.0000 H   0  0  0  0  0  0  0  0  0  0  0  0
  1  2  1  0  0  0  0
  1  5  1  0  0  0  0
  2  3  1  0  0  0  0
  2  4  2  0  0  0  0
  3  6  1  0  0  0  0
M  CHG  1   2   6
M  END
>  <DRUGBANK_ID>
DB04494

>  <SECONDARY_ACCESSION_NUMBERS>
EXPT02435

>  <COMMON_NAME>
Dihydroxy(oxo)molybdenum(6+)

$$$$
