PSN
 OpenBabel10282417072D

 33 34  0  0  0  0  0  0  0  0999 V2000
   -2.2326   -0.9196    0.0000 C   0  0  0  0  0  0  0  0  0  0  0  0
   -2.9471   -0.5071    0.0000 C   0  0  0  0  0  0  0  0  0  0  0  0
   -2.9471    0.3179    0.0000 C   0  0  0  0  0  0  0  0  0  0  0  0
   -2.2326    0.7304    0.0000 C   0  0  0  0  0  0  0  0  0  0  0  0
   -1.5181    0.3179    0.0000 C   0  0  0  0  0  0  0  0  0  0  0  0
   -1.5181   -0.5071    0.0000 C   0  0  0  0  0  0  0  0  0  0  0  0
   -2.2326    1.5554    0.0000 C   0  0  0  0  0  0  0  0  0  0  0  0
   -0.8037    0.7304    0.0000 O   0  0  0  0  0  0  0  0  0  0  0  0
   -0.0892    0.3179    0.0000 P   0  0  1  0  0  0  0  0  0  0  0  0
    0.6253   -0.0946    0.0000 O   0  0  0  0  0  0  0  0  0  0  0  0
   -0.5017   -0.3966    0.0000 O   0  0  0  0  0  0  0  0  0  0  0  0
    1.3397    0.3179    0.0000 C   0  0  0  0  0  0  0  0  0  0  0  0
    2.0542   -0.0946    0.0000 C   0  0  0  0  0  0  0  0  0  0  0  0
    2.7687    0.3179    0.0000 C   0  0  0  0  0  0  0  0  0  0  0  0
    3.4831   -0.0946    0.0000 C   0  0  0  0  0  0  0  0  0  0  0  0
    3.4831   -0.9196    0.0000 C   0  0  0  0  0  0  0  0  0  0  0  0
    2.7687   -1.3321    0.0000 C   0  0  0  0  0  0  0  0  0  0  0  0
    2.0542   -0.9196    0.0000 C   0  0  0  0  0  0  0  0  0  0  0  0
    0.3233    1.0324    0.0000 O   0  0  0  0  0  0  0  0  0  0  0  0
   -1.5181    1.9679    0.0000 O   0  0  0  0  0  0  0  0  0  0  0  0
   -2.2326   -1.9516    0.0000 H   0  0  0  0  0  0  0  0  0  0  0  0
   -3.8408   -1.0231    0.0000 H   0  0  0  0  0  0  0  0  0  0  0  0
   -3.8408    0.8339    0.0000 H   0  0  0  0  0  0  0  0  0  0  0  0
   -0.6244   -1.0231    0.0000 H   0  0  0  0  0  0  0  0  0  0  0  0
   -3.1263    2.0714    0.0000 H   0  0  0  0  0  0  0  0  0  0  0  0
    1.3397    1.3879    0.0000 H   0  0  0  0  0  0  0  0  0  0  0  0
    2.2663    0.8529    0.0000 H   0  0  0  0  0  0  0  0  0  0  0  0
    2.7687    1.3499    0.0000 H   0  0  0  0  0  0  0  0  0  0  0  0
    4.3768    0.4214    0.0000 H   0  0  0  0  0  0  0  0  0  0  0  0
    4.3768   -1.4356    0.0000 H   0  0  0  0  0  0  0  0  0  0  0  0
    2.7687   -2.3641    0.0000 H   0  0  0  0  0  0  0  0  0  0  0  0
    1.1605   -1.4356    0.0000 H   0  0  0  0  0  0  0  0  0  0  0  0
    1.2933    1.0324    0.0000 H   0  0  0  0  0  0  0  0  0  0  0  0
  1  2  1  0  0  0  0
  1  6  2  0  0  0  0
  1 21  1  0  0  0  0
  2  3  2  0  0  0  0
  2 22  1  0  0  0  0
  3  4  1  0  0  0  0
  3 23  1  0  0  0  0
  4  5  2  0  0  0  0
  4  7  1  0  0  0  0
  5  6  1  0  0  0  0
  5  8  1  0  0  0  0
  6 24  1  0  0  0  0
  7 20  2  0  0  0  0
  7 25  1  0  0  0  0
  9  8  1  0  0  0  0
  9 10  1  0  0  0  0
  9 11  2  6  0  0  0
  9 19  1  0  0  0  0
 10 12  1  0  0  0  0
 12 13  1  0  0  0  0
 12 26  1  0  0  0  0
 12 27  1  0  0  0  0
 13 14  2  0  0  0  0
 13 18  1  0  0  0  0
 14 15  1  0  0  0  0
 14 28  1  0  0  0  0
 15 16  2  0  0  0  0
 15 29  1  0  0  0  0
 16 17  1  0  0  0  0
 16 30  1  0  0  0  0
 17 18  2  0  0  0  0
 17 31  1  0  0  0  0
 18 32  1  0  0  0  0
 19 33  1  0  0  0  0
M  END
>  <DRUGBANK_ID>
DB03078

>  <SECONDARY_ACCESSION_NUMBERS>
EXPT02673

>  <COMMON_NAME>
PASBN

$$$$
