
 OpenBabel10282417072D

114115  0  0  0  0  0  0  0  0999 V2000
   -3.5866   -1.6557    0.0000 C   0  0  0  0  0  0  0  0  0  0  0  0
   -4.2971   -2.0683    0.0000 C   0  0  0  0  0  0  0  0  0  0  0  0
   -2.8646   -2.0683    0.0000 C   0  0  0  0  0  0  0  0  0  0  0  0
   -2.8646   -0.4067    0.0000 C   0  0  0  0  0  0  0  0  0  0  0  0
   -2.1427   -0.8192    0.0000 O   0  0  0  0  0  0  0  0  0  0  0  0
   -2.8646    0.4182    0.0000 N   0  0  0  0  0  0  0  0  0  0  0  0
   -2.1427    0.8308    0.0000 C   0  0  1  0  0  0  0  0  0  0  0  0
   -2.1427    1.6558    0.0000 C   0  0  0  0  0  0  0  0  0  0  0  0
   -1.4323    0.4182    0.0000 C   0  0  0  0  0  0  0  0  0  0  0  0
   -1.4323   -0.4067    0.0000 O   0  0  0  0  0  0  0  0  0  0  0  0
   -0.7219    0.8308    0.0000 N   0  0  0  0  0  0  0  0  0  0  0  0
    0.0000    0.4182    0.0000 C   0  0  1  0  0  0  0  0  0  0  0  0
    0.0000   -0.4067    0.0000 C   0  0  0  0  0  0  0  0  0  0  0  0
   -0.7219   -1.6557    0.0000 C   0  0  0  0  0  0  0  0  0  0  0  0
   -0.7219   -0.8192    0.0000 C   0  0  0  0  0  0  0  0  0  0  0  0
    0.0000   -1.2432    0.0000 C   0  0  0  0  0  0  0  0  0  0  0  0
    0.7219    0.8308    0.0000 C   0  0  1  0  0  0  0  0  0  0  0  0
    0.7219    1.6558    0.0000 O   0  0  0  0  0  0  0  0  0  0  0  0
    1.4323    0.4182    0.0000 C   0  0  0  0  0  0  0  0  0  0  0  0
    2.1427    0.8308    0.0000 C   0  0  1  0  0  0  0  0  0  0  0  0
    2.1427    1.6558    0.0000 C   0  0  0  0  0  0  0  0  0  0  0  0
    2.8646    0.4182    0.0000 C   0  0  0  0  0  0  0  0  0  0  0  0
    2.8646   -0.4067    0.0000 O   0  0  0  0  0  0  0  0  0  0  0  0
    3.5751    0.8308    0.0000 N   0  0  0  0  0  0  0  0  0  0  0  0
    4.2971    0.4182    0.0000 C   0  0  2  0  0  0  0  0  0  0  0  0
    4.2971   -0.4067    0.0000 C   0  0  0  0  0  0  0  0  0  0  0  0
    5.0075   -0.8192    0.0000 O   0  0  0  0  0  0  0  0  0  0  0  0
    3.5751   -0.8192    0.0000 N   0  0  0  0  0  0  0  0  0  0  0  0
    3.5751   -1.6557    0.0000 C   0  0  0  0  0  0  0  0  0  0  0  0
    2.8646   -2.0683    0.0000 C   0  0  0  0  0  0  0  0  0  0  0  0
    2.1427   -1.6557    0.0000 C   0  0  0  0  0  0  0  0  0  0  0  0
    1.4323   -2.0683    0.0000 C   0  0  0  0  0  0  0  0  0  0  0  0
    1.4323   -2.8932    0.0000 C   0  0  0  0  0  0  0  0  0  0  0  0
    2.1427   -3.3059    0.0000 C   0  0  0  0  0  0  0  0  0  0  0  0
    2.8646   -2.8932    0.0000 C   0  0  0  0  0  0  0  0  0  0  0  0
    5.0075    0.8308    0.0000 C   0  0  0  0  0  0  0  0  0  0  0  0
    5.7294    0.4182    0.0000 C   0  0  0  0  0  0  0  0  0  0  0  0
    5.0075    1.6558    0.0000 C   0  0  0  0  0  0  0  0  0  0  0  0
   -3.5866   -0.8192    0.0000 C   0  0  1  0  0  0  0  0  0  0  0  0
   -4.3773   -0.6130    0.0000 N   0  0  0  0  0  0  0  0  0  0  0  0
   -2.8646    2.0683    0.0000 C   0  0  0  0  0  0  0  0  0  0  0  0
   -3.5866    1.6558    0.0000 O   0  0  0  0  0  0  0  0  0  0  0  0
   -2.8646    2.8933    0.0000 N   0  0  0  0  0  0  0  0  0  0  0  0
   -3.5866    3.3059    0.0000 C   0  0  0  0  0  0  0  0  0  0  0  0
   -4.2971    2.8933    0.0000 C   0  0  0  0  0  0  0  0  0  0  0  0
   -4.2971    2.0683    0.0000 C   0  0  0  0  0  0  0  0  0  0  0  0
   -5.0075    1.6558    0.0000 C   0  0  0  0  0  0  0  0  0  0  0  0
   -5.0075    0.8308    0.0000 C   0  0  0  0  0  0  0  0  0  0  0  0
   -5.7294    0.4182    0.0000 C   0  0  0  0  0  0  0  0  0  0  0  0
   -5.7294   -0.4067    0.0000 O   0  0  0  0  0  0  0  0  0  0  0  0
   -5.0075   -0.8192    0.0000 C   0  0  0  0  0  0  0  0  0  0  0  0
   -5.0075   -1.6557    0.0000 O   0  0  0  0  0  0  0  0  0  0  0  0
   -3.5829   -2.7257    0.0000 H   0  0  0  0  0  0  0  0  0  0  0  0
   -5.2251   -1.5356    0.0000 H   0  0  0  0  0  0  0  0  0  0  0  0
   -4.2944   -3.1383    0.0000 H   0  0  0  0  0  0  0  0  0  0  0  0
   -5.2224   -2.6056    0.0000 H   0  0  0  0  0  0  0  0  0  0  0  0
   -2.8599   -3.1383    0.0000 H   0  0  0  0  0  0  0  0  0  0  0  0
   -1.9403   -1.5292    0.0000 H   0  0  0  0  0  0  0  0  0  0  0  0
   -1.9356   -2.5992    0.0000 H   0  0  0  0  0  0  0  0  0  0  0  0
   -3.7161    0.9123    0.0000 H   0  0  0  0  0  0  0  0  0  0  0  0
   -3.0682    1.3678    0.0000 H   0  0  0  0  0  0  0  0  0  0  0  0
   -1.2173    2.1929    0.0000 H   0  0  0  0  0  0  0  0  0  0  0  0
   -2.1463    2.7258    0.0000 H   0  0  0  0  0  0  0  0  0  0  0  0
   -0.7253    1.8153    0.0000 H   0  0  0  0  0  0  0  0  0  0  0  0
   -0.9255   -0.1188    0.0000 H   0  0  0  0  0  0  0  0  0  0  0  0
    0.9254   -0.9438    0.0000 H   0  0  0  0  0  0  0  0  0  0  0  0
   -0.0036   -1.4767    0.0000 H   0  0  0  0  0  0  0  0  0  0  0  0
   -1.6485   -2.1907    0.0000 H   0  0  0  0  0  0  0  0  0  0  0  0
    0.2047   -2.1907    0.0000 H   0  0  0  0  0  0  0  0  0  0  0  0
   -0.7219   -2.7257    0.0000 H   0  0  0  0  0  0  0  0  0  0  0  0
   -0.1904   -1.7478    0.0000 H   0  0  0  0  0  0  0  0  0  0  0  0
   -0.0080   -2.3132    0.0000 H   0  0  0  0  0  0  0  0  0  0  0  0
    0.9306   -0.7151    0.0000 H   0  0  0  0  0  0  0  0  0  0  0  0
    0.9226   -1.7851    0.0000 H   0  0  0  0  0  0  0  0  0  0  0  0
   -0.2036    1.3678    0.0000 H   0  0  0  0  0  0  0  0  0  0  0  0
    1.5619    2.1408    0.0000 H   0  0  0  0  0  0  0  0  0  0  0  0
    1.4323   -0.6518    0.0000 H   0  0  0  0  0  0  0  0  0  0  0  0
    2.3596   -0.1156    0.0000 H   0  0  0  0  0  0  0  0  0  0  0  0
    1.2154    1.3646    0.0000 H   0  0  0  0  0  0  0  0  0  0  0  0
    3.0693    2.1908    0.0000 H   0  0  0  0  0  0  0  0  0  0  0  0
    1.2161    2.1908    0.0000 H   0  0  0  0  0  0  0  0  0  0  0  0
    2.1427    2.7258    0.0000 H   0  0  0  0  0  0  0  0  0  0  0  0
    3.5717    1.8153    0.0000 H   0  0  0  0  0  0  0  0  0  0  0  0
    4.2934    1.4882    0.0000 H   0  0  0  0  0  0  0  0  0  0  0  0
    2.7236   -0.3250    0.0000 H   0  0  0  0  0  0  0  0  0  0  0  0
    4.5024   -2.1895    0.0000 H   0  0  0  0  0  0  0  0  0  0  0  0
    3.5771   -2.7257    0.0000 H   0  0  0  0  0  0  0  0  0  0  0  0
    2.1391   -0.6237    0.0000 H   0  0  0  0  0  0  0  0  0  0  0  0
    0.5379   -1.5535    0.0000 H   0  0  0  0  0  0  0  0  0  0  0  0
    0.5379   -3.4080    0.0000 H   0  0  0  0  0  0  0  0  0  0  0  0
    2.1391   -4.3379    0.0000 H   0  0  0  0  0  0  0  0  0  0  0  0
    3.7572   -3.4111    0.0000 H   0  0  0  0  0  0  0  0  0  0  0  0
    5.9330    1.3678    0.0000 H   0  0  0  0  0  0  0  0  0  0  0  0
    5.7341   -0.6518    0.0000 H   0  0  0  0  0  0  0  0  0  0  0  0
    6.6537    0.9572    0.0000 H   0  0  0  0  0  0  0  0  0  0  0  0
    6.6584   -0.1128    0.0000 H   0  0  0  0  0  0  0  0  0  0  0  0
    5.9341    2.1908    0.0000 H   0  0  0  0  0  0  0  0  0  0  0  0
    4.0809    2.1908    0.0000 H   0  0  0  0  0  0  0  0  0  0  0  0
    5.0075    2.7258    0.0000 H   0  0  0  0  0  0  0  0  0  0  0  0
   -2.6612   -1.3563    0.0000 H   0  0  0  0  0  0  0  0  0  0  0  0
   -4.4074    0.3710    0.0000 H   0  0  0  0  0  0  0  0  0  0  0  0
   -2.0131    3.3874    0.0000 H   0  0  0  0  0  0  0  0  0  0  0  0
   -3.5903    4.3759    0.0000 H   0  0  0  0  0  0  0  0  0  0  0  0
   -4.5148    3.8381    0.0000 H   0  0  0  0  0  0  0  0  0  0  0  0
   -5.2244    3.4271    0.0000 H   0  0  0  0  0  0  0  0  0  0  0  0
   -5.2234    2.3577    0.0000 H   0  0  0  0  0  0  0  0  0  0  0  0
   -3.3698    1.5344    0.0000 H   0  0  0  0  0  0  0  0  0  0  0  0
   -4.2951    0.9983    0.0000 H   0  0  0  0  0  0  0  0  0  0  0  0
   -5.9348    2.1897    0.0000 H   0  0  0  0  0  0  0  0  0  0  0  0
   -5.9338    1.1202    0.0000 H   0  0  0  0  0  0  0  0  0  0  0  0
   -4.0820    0.2938    0.0000 H   0  0  0  0  0  0  0  0  0  0  0  0
   -5.0110   -0.2392    0.0000 H   0  0  0  0  0  0  0  0  0  0  0  0
   -6.6549    0.9552    0.0000 H   0  0  0  0  0  0  0  0  0  0  0  0
   -6.6566   -0.1158    0.0000 H   0  0  0  0  0  0  0  0  0  0  0  0
  1  2  1  0  0  0  0
  1  3  1  0  0  0  0
  1 53  1  0  0  0  0
  2 54  1  0  0  0  0
  2 55  1  0  0  0  0
  2 56  1  0  0  0  0
  3 57  1  0  0  0  0
  3 58  1  0  0  0  0
  3 59  1  0  0  0  0
  4 39  1  0  0  0  0
  4  6  1  0  0  0  0
  4  5  2  0  0  0  0
  6  7  1  0  0  0  0
  6 60  1  0  0  0  0
  7  9  1  0  0  0  0
  7  8  1  0  0  0  0
  7 61  1  6  0  0  0
  8 41  1  0  0  0  0
  8 62  1  0  0  0  0
  8 63  1  0  0  0  0
  9 11  1  0  0  0  0
  9 10  2  0  0  0  0
 11 12  1  0  0  0  0
 11 64  1  0  0  0  0
 12 17  1  0  0  0  0
 12 13  1  0  0  0  0
 12 65  1  1  0  0  0
 13 15  1  0  0  0  0
 13 66  1  0  0  0  0
 13 67  1  0  0  0  0
 14 15  1  0  0  0  0
 14 68  1  0  0  0  0
 14 69  1  0  0  0  0
 14 70  1  0  0  0  0
 15 16  1  0  0  0  0
 15 71  1  0  0  0  0
 16 72  1  0  0  0  0
 16 73  1  0  0  0  0
 16 74  1  0  0  0  0
 17 19  1  0  0  0  0
 17 18  1  0  0  0  0
 17 75  1  6  0  0  0
 18 76  1  0  0  0  0
 19 20  1  0  0  0  0
 19 77  1  0  0  0  0
 19 78  1  0  0  0  0
 20 22  1  0  0  0  0
 20 21  1  0  0  0  0
 20 79  1  6  0  0  0
 21 80  1  0  0  0  0
 21 81  1  0  0  0  0
 21 82  1  0  0  0  0
 22 24  1  0  0  0  0
 22 23  2  0  0  0  0
 24 25  1  0  0  0  0
 24 83  1  0  0  0  0
 25 36  1  0  0  0  0
 25 26  1  0  0  0  0
 25 84  1  6  0  0  0
 26 28  1  0  0  0  0
 26 27  2  0  0  0  0
 28 29  1  0  0  0  0
 28 85  1  0  0  0  0
 29 30  1  0  0  0  0
 29 86  1  0  0  0  0
 29 87  1  0  0  0  0
 30 35  1  0  0  0  0
 30 31  2  0  0  0  0
 31 32  1  0  0  0  0
 31 88  1  0  0  0  0
 32 33  2  0  0  0  0
 32 89  1  0  0  0  0
 33 34  1  0  0  0  0
 33 90  1  0  0  0  0
 34 35  2  0  0  0  0
 34 91  1  0  0  0  0
 35 92  1  0  0  0  0
 36 37  1  0  0  0  0
 36 38  1  0  0  0  0
 36 93  1  0  0  0  0
 37 94  1  0  0  0  0
 37 95  1  0  0  0  0
 37 96  1  0  0  0  0
 38 97  1  0  0  0  0
 38 98  1  0  0  0  0
 38 99  1  0  0  0  0
 39  1  1  0  0  0  0
 39 40  1  0  0  0  0
 39100  1  1  0  0  0
 40 51  1  0  0  0  0
 40101  1  0  0  0  0
 41 43  1  0  0  0  0
 41 42  2  0  0  0  0
 43 44  1  0  0  0  0
 43102  1  0  0  0  0
 44 45  1  0  0  0  0
 44103  1  0  0  0  0
 44104  1  0  0  0  0
 45 46  1  0  0  0  0
 45105  1  0  0  0  0
 45106  1  0  0  0  0
 46 47  1  0  0  0  0
 46107  1  0  0  0  0
 46108  1  0  0  0  0
 47 48  1  0  0  0  0
 47109  1  0  0  0  0
 47110  1  0  0  0  0
 48 49  1  0  0  0  0
 48111  1  0  0  0  0
 48112  1  0  0  0  0
 49 50  1  0  0  0  0
 49113  1  0  0  0  0
 49114  1  0  0  0  0
 50 51  1  0  0  0  0
 51 52  2  0  0  0  0
M  END
>  <DRUGBANK_ID>
DB02378

>  <SECONDARY_ACCESSION_NUMBERS>
EXPT02196

>  <COMMON_NAME>
MMI-175

$$$$
