
 OpenBabel10282417072D

 28 29  0  0  0  0  0  0  0  0999 V2000
    1.8985    0.2626    0.0000 C   0  0  0  0  0  0  0  0  0  0  0  0
    1.8985    1.0877    0.0000 O   0  0  0  0  0  0  0  0  0  0  0  0
    1.1839   -0.1498    0.0000 C   0  0  2  0  0  0  0  0  0  0  0  0
    0.4693    0.2626    0.0000 C   0  0  0  0  0  0  0  0  0  0  0  0
    1.1839   -0.9749    0.0000 N   0  0  0  0  0  0  0  0  0  0  0  0
   -0.2451   -0.1498    0.0000 C   0  0  0  0  0  0  0  0  0  0  0  0
   -0.3313   -0.9704    0.0000 C   0  0  0  0  0  0  0  0  0  0  0  0
   -1.1384   -1.1419    0.0000 N   0  0  0  0  0  0  0  0  0  0  0  0
   -1.5509   -0.4273    0.0000 C   0  0  0  0  0  0  0  0  0  0  0  0
   -0.9988    0.1856    0.0000 C   0  0  0  0  0  0  0  0  0  0  0  0
   -1.2538    0.9704    0.0000 C   0  0  0  0  0  0  0  0  0  0  0  0
   -2.3579   -0.2558    0.0000 C   0  0  0  0  0  0  0  0  0  0  0  0
   -2.6129    0.5287    0.0000 C   0  0  0  0  0  0  0  0  0  0  0  0
   -2.0608    1.1419    0.0000 C   0  0  0  0  0  0  0  0  0  0  0  0
    2.6129   -0.1498    0.0000 N   0  0  0  0  0  0  0  0  0  0  0  0
    2.1105   -0.6849    0.0000 H   0  0  0  0  0  0  0  0  0  0  0  0
    0.4692    1.3326    0.0000 H   0  0  0  0  0  0  0  0  0  0  0  0
   -0.4573    0.7976    0.0000 H   0  0  0  0  0  0  0  0  0  0  0  0
    0.3006   -1.4849    0.0000 H   0  0  0  0  0  0  0  0  0  0  0  0
    2.0672   -1.4849    0.0000 H   0  0  0  0  0  0  0  0  0  0  0  0
    0.4356   -1.6609    0.0000 H   0  0  0  0  0  0  0  0  0  0  0  0
   -1.5389   -2.0413    0.0000 H   0  0  0  0  0  0  0  0  0  0  0  0
   -0.5633    1.7373    0.0000 H   0  0  0  0  0  0  0  0  0  0  0  0
   -3.0484   -1.0228    0.0000 H   0  0  0  0  0  0  0  0  0  0  0  0
   -3.6224    0.7432    0.0000 H   0  0  0  0  0  0  0  0  0  0  0  0
   -2.3797    2.1234    0.0000 H   0  0  0  0  0  0  0  0  0  0  0  0
    2.6130   -1.1343    0.0000 H   0  0  0  0  0  0  0  0  0  0  0  0
    3.4655    0.3425    0.0000 H   0  0  0  0  0  0  0  0  0  0  0  0
  1  2  2  0  0  0  0
  1  3  1  0  0  0  0
  3  4  1  0  0  0  0
  3  5  1  0  0  0  0
  3 16  1  6  0  0  0
  4  6  1  0  0  0  0
  4 17  1  0  0  0  0
  4 18  1  0  0  0  0
  5 19  1  0  0  0  0
  5 20  1  0  0  0  0
  6  7  2  0  0  0  0
  6 10  1  0  0  0  0
  7  8  1  0  0  0  0
  7 21  1  0  0  0  0
  8  9  1  0  0  0  0
  8 22  1  0  0  0  0
  9 10  2  0  0  0  0
  9 12  1  0  0  0  0
 10 11  1  0  0  0  0
 11 14  2  0  0  0  0
 11 23  1  0  0  0  0
 12 13  2  0  0  0  0
 12 24  1  0  0  0  0
 13 14  1  0  0  0  0
 13 25  1  0  0  0  0
 14 26  1  0  0  0  0
 15  1  1  0  0  0  0
 15 27  1  0  0  0  0
 15 28  1  0  0  0  0
M  END
>  <DRUGBANK_ID>
DB04537

>  <SECONDARY_ACCESSION_NUMBERS>
EXPT02063

>  <COMMON_NAME>
Tryptophanamide

>  <CAS_NUMBER>
20696-57-5

>  <UNII>
0K2B9SB26H

>  <SYNONYMS>
(S)-alpha-Amino-1H-indole-3-propionamide; L-tryptophan amide; L-tryptophanamide

$$$$
