
 OpenBabel10282417072D

 55 58  0  0  0  0  0  0  0  0999 V2000
    0.7970   -2.0661    0.0000 N   0  0  0  0  0  0  0  0  0  0  0  0
    0.7970   -2.8911    0.0000 C   0  0  0  0  0  0  0  0  0  0  0  0
    1.5102   -3.3036    0.0000 N   0  0  0  0  0  0  0  0  0  0  0  0
    2.2234   -2.8911    0.0000 C   0  0  0  0  0  0  0  0  0  0  0  0
    2.2234   -2.0661    0.0000 C   0  0  0  0  0  0  0  0  0  0  0  0
    1.5102   -1.6536    0.0000 C   0  0  0  0  0  0  0  0  0  0  0  0
    3.0135   -3.1428    0.0000 N   0  0  0  0  0  0  0  0  0  0  0  0
    3.4959   -2.4786    0.0000 C   0  0  0  0  0  0  0  0  0  0  0  0
    3.0135   -1.8074    0.0000 C   0  0  0  0  0  0  0  0  0  0  0  0
    1.5102   -0.8285    0.0000 N   0  0  0  0  0  0  0  0  0  0  0  0
    2.2234   -0.4160    0.0000 C   0  0  0  0  0  0  0  0  0  0  0  0
    2.2234    0.4089    0.0000 C   0  0  0  0  0  0  0  0  0  0  0  0
    1.5102    0.8285    0.0000 C   0  0  0  0  0  0  0  0  0  0  0  0
    0.7970    0.4089    0.0000 C   0  0  0  0  0  0  0  0  0  0  0  0
    0.7970   -0.4160    0.0000 C   0  0  0  0  0  0  0  0  0  0  0  0
    2.2234    1.2410    0.0000 N   0  0  0  0  0  0  0  0  0  0  0  0
    0.7970    1.2410    0.0000 C   0  0  0  0  0  0  0  0  0  0  0  0
    0.7970    2.0660    0.0000 O   0  0  0  0  0  0  0  0  0  0  0  0
    0.0769    0.8285    0.0000 N   0  0  0  0  0  0  0  0  0  0  0  0
   -0.6362    1.2410    0.0000 C   0  0  2  0  0  0  0  0  0  0  0  0
   -1.3494    0.8285    0.0000 C   0  0  0  0  0  0  0  0  0  0  0  0
   -2.0625    1.2410    0.0000 C   0  0  0  0  0  0  0  0  0  0  0  0
   -2.7827    0.8285    0.0000 C   0  0  0  0  0  0  0  0  0  0  0  0
   -2.7827   -0.0034    0.0000 C   0  0  0  0  0  0  0  0  0  0  0  0
   -2.0625   -0.4160    0.0000 C   0  0  0  0  0  0  0  0  0  0  0  0
   -1.3494   -0.0034    0.0000 C   0  0  0  0  0  0  0  0  0  0  0  0
   -3.4959   -0.4160    0.0000 Cl  0  0  0  0  0  0  0  0  0  0  0  0
   -0.6362    2.0660    0.0000 C   0  0  0  0  0  0  0  0  0  0  0  0
   -1.3494    2.4786    0.0000 C   0  0  0  0  0  0  0  0  0  0  0  0
   -1.3494    3.3036    0.0000 O   0  0  0  0  0  0  0  0  0  0  0  0
   -0.0969   -3.4068    0.0000 H   0  0  0  0  0  0  0  0  0  0  0  0
    3.3205   -4.0782    0.0000 H   0  0  0  0  0  0  0  0  0  0  0  0
    4.5279   -2.4812    0.0000 H   0  0  0  0  0  0  0  0  0  0  0  0
    3.3338   -0.8264    0.0000 H   0  0  0  0  0  0  0  0  0  0  0  0
    3.1503   -0.9506    0.0000 H   0  0  0  0  0  0  0  0  0  0  0  0
    3.1499    0.1192    0.0000 H   0  0  0  0  0  0  0  0  0  0  0  0
    3.1522    0.9401    0.0000 H   0  0  0  0  0  0  0  0  0  0  0  0
    2.2300    1.4789    0.0000 H   0  0  0  0  0  0  0  0  0  0  0  0
   -0.1318    0.9401    0.0000 H   0  0  0  0  0  0  0  0  0  0  0  0
   -0.1285   -0.1280    0.0000 H   0  0  0  0  0  0  0  0  0  0  0  0
   -0.1299   -0.9506    0.0000 H   0  0  0  0  0  0  0  0  0  0  0  0
   -0.1295    0.1192    0.0000 H   0  0  0  0  0  0  0  0  0  0  0  0
    3.1071    0.7317    0.0000 H   0  0  0  0  0  0  0  0  0  0  0  0
    2.2226    2.2610    0.0000 H   0  0  0  0  0  0  0  0  0  0  0  0
    0.0748   -0.1560    0.0000 H   0  0  0  0  0  0  0  0  0  0  0  0
    0.2907    1.7756    0.0000 H   0  0  0  0  0  0  0  0  0  0  0  0
   -2.0603    2.2730    0.0000 H   0  0  0  0  0  0  0  0  0  0  0  0
   -3.6755    1.3460    0.0000 H   0  0  0  0  0  0  0  0  0  0  0  0
   -2.0603   -1.4480    0.0000 H   0  0  0  0  0  0  0  0  0  0  0  0
   -0.4554   -0.5190    0.0000 H   0  0  0  0  0  0  0  0  0  0  0  0
    0.2907    2.6006    0.0000 H   0  0  0  0  0  0  0  0  0  0  0  0
   -0.6355    3.1360    0.0000 H   0  0  0  0  0  0  0  0  0  0  0  0
   -2.2763    1.9440    0.0000 H   0  0  0  0  0  0  0  0  0  0  0  0
   -2.2759    3.0138    0.0000 H   0  0  0  0  0  0  0  0  0  0  0  0
   -0.5094    3.7886    0.0000 H   0  0  0  0  0  0  0  0  0  0  0  0
  1  2  2  0  0  0  0
  1  6  1  0  0  0  0
  2  3  1  0  0  0  0
  2 31  1  0  0  0  0
  3  4  2  0  0  0  0
  4  5  1  0  0  0  0
  4  7  1  0  0  0  0
  5  6  2  0  0  0  0
  5  9  1  0  0  0  0
  6 10  1  0  0  0  0
  7  8  1  0  0  0  0
  7 32  1  0  0  0  0
  8  9  2  0  0  0  0
  8 33  1  0  0  0  0
  9 34  1  0  0  0  0
 10 11  1  0  0  0  0
 10 15  1  0  0  0  0
 11 12  1  0  0  0  0
 11 35  1  0  0  0  0
 11 36  1  0  0  0  0
 12 13  1  0  0  0  0
 12 37  1  0  0  0  0
 12 38  1  0  0  0  0
 13 14  1  0  0  0  0
 13 16  1  0  0  0  0
 13 17  1  0  0  0  0
 14 15  1  0  0  0  0
 14 39  1  0  0  0  0
 14 40  1  0  0  0  0
 15 41  1  0  0  0  0
 15 42  1  0  0  0  0
 16 43  1  0  0  0  0
 16 44  1  0  0  0  0
 17 18  2  0  0  0  0
 17 19  1  0  0  0  0
 19 20  1  0  0  0  0
 19 45  1  0  0  0  0
 20 21  1  0  0  0  0
 20 28  1  0  0  0  0
 20 46  1  1  0  0  0
 21 22  2  0  0  0  0
 21 26  1  0  0  0  0
 22 23  1  0  0  0  0
 22 47  1  0  0  0  0
 23 24  2  0  0  0  0
 23 48  1  0  0  0  0
 24 25  1  0  0  0  0
 24 27  1  0  0  0  0
 25 26  2  0  0  0  0
 25 49  1  0  0  0  0
 26 50  1  0  0  0  0
 28 29  1  0  0  0  0
 28 51  1  0  0  0  0
 28 52  1  0  0  0  0
 29 30  1  0  0  0  0
 29 53  1  0  0  0  0
 29 54  1  0  0  0  0
 30 55  1  0  0  0  0
M  END
>  <DRUGBANK_ID>
DB12218

>  <COMMON_NAME>
Capivasertib

>  <CAS_NUMBER>
1143532-39-1

>  <UNII>
WFR23M21IE

>  <SYNONYMS>
Capivasertib; Capivasertibum

$$$$
