
 OpenBabel10282417072D

 85 87  0  0  0  0  0  0  0  0999 V2000
   -1.4641    2.7601    0.0000 C   0  0  0  0  0  0  0  0  0  0  0  0
   -1.4641    1.1101    0.0000 C   0  0  0  0  0  0  0  0  0  0  0  0
    0.0350    1.2677    0.0000 C   0  0  0  0  0  0  0  0  0  0  0  0
    0.5199    1.9352    0.0000 C   0  0  0  0  0  0  0  0  0  0  0  0
   -2.1786    2.3475    0.0000 C   0  0  0  0  0  0  0  0  0  0  0  0
   -1.4641    0.2851    0.0000 C   0  0  0  0  0  0  0  0  0  0  0  0
   -2.1786    1.5226    0.0000 C   0  0  0  0  0  0  0  0  0  0  0  0
   -2.1786   -0.1274    0.0000 C   0  0  0  0  0  0  0  0  0  0  0  0
   -2.1786   -0.9524    0.0000 C   0  0  0  0  0  0  0  0  0  0  0  0
   -1.4641   -1.3649    0.0000 C   0  0  0  0  0  0  0  0  0  0  0  0
   -2.8931   -1.3649    0.0000 C   0  0  0  0  0  0  0  0  0  0  0  0
   -0.7495   -0.9524    0.0000 C   0  0  0  0  0  0  0  0  0  0  0  0
   -2.8931   -2.1899    0.0000 C   0  0  2  0  0  0  0  0  0  0  0  0
   -2.1786   -2.6024    0.0000 C   0  0  2  0  0  0  0  0  0  0  0  0
   -3.6075   -2.6024    0.0000 O   0  0  0  0  0  0  0  0  0  0  0  0
   -0.6795    3.8401    0.0000 C   0  0  0  0  0  0  0  0  0  0  0  0
    0.0350    3.4277    0.0000 C   0  0  2  0  0  0  0  0  0  0  0  0
    0.7495    3.8401    0.0000 C   0  0  0  0  0  0  0  0  0  0  0  0
    1.4639    3.4277    0.0000 C   0  0  0  0  0  0  0  0  0  0  0  0
    3.6075    3.8401    0.0000 C   0  0  0  0  0  0  0  0  0  0  0  0
    2.8930    2.6026    0.0000 C   0  0  0  0  0  0  0  0  0  0  0  0
    2.1786    3.8401    0.0000 C   0  0  0  0  0  0  0  0  0  0  0  0
    0.0350    2.6026    0.0000 C   0  0  2  0  0  0  0  0  0  0  0  0
    0.7495    3.0151    0.0000 H   0  0  0  0  0  0  0  0  0  0  0  0
   -0.7495    1.5226    0.0000 C   0  0  2  0  0  0  0  0  0  0  0  0
   -0.7495    0.6976    0.0000 H   0  0  0  0  0  0  0  0  0  0  0  0
   -0.7495    2.3475    0.0000 C   0  0  2  0  0  0  0  0  0  0  0  0
   -0.7495    3.1726    0.0000 C   0  0  0  0  0  0  0  0  0  0  0  0
    2.8930    3.4277    0.0000 C   0  0  0  0  0  0  0  0  0  0  0  0
    3.6075    3.0151    0.0000 O   0  0  0  0  0  0  0  0  0  0  0  0
   -1.4641   -2.1899    0.0000 C   0  0  2  0  0  0  0  0  0  0  0  0
   -0.7495   -2.6024    0.0000 O   0  0  0  0  0  0  0  0  0  0  0  0
   -2.1787   -3.4275    0.0000 O   0  0  0  0  0  0  0  0  0  0  0  0
   -1.4641   -3.8400    0.0000 C   0  0  0  0  0  0  0  0  0  0  0  0
   -0.7496   -3.4276    0.0000 C   0  0  0  0  0  0  0  0  0  0  0  0
   -0.0351   -3.8401    0.0000 C   0  0  0  0  0  0  0  0  0  0  0  0
    0.6794   -3.4277    0.0000 O   0  0  0  0  0  0  0  0  0  0  0  0
   -1.4641    3.8301    0.0000 H   0  0  0  0  0  0  0  0  0  0  0  0
   -2.3908    3.2950    0.0000 H   0  0  0  0  0  0  0  0  0  0  0  0
    0.3657    0.2501    0.0000 H   0  0  0  0  0  0  0  0  0  0  0  0
    1.0918    1.1004    0.0000 H   0  0  0  0  0  0  0  0  0  0  0  0
    1.5899    1.9352    0.0000 H   0  0  0  0  0  0  0  0  0  0  0  0
    1.0057    0.9818    0.0000 H   0  0  0  0  0  0  0  0  0  0  0  0
   -3.1053    2.8825    0.0000 H   0  0  0  0  0  0  0  0  0  0  0  0
   -3.1052    1.8125    0.0000 H   0  0  0  0  0  0  0  0  0  0  0  0
   -0.5704   -0.2309    0.0000 H   0  0  0  0  0  0  0  0  0  0  0  0
   -3.1052    0.9876    0.0000 H   0  0  0  0  0  0  0  0  0  0  0  0
   -3.1052    2.0576    0.0000 H   0  0  0  0  0  0  0  0  0  0  0  0
   -3.0723    0.3886    0.0000 H   0  0  0  0  0  0  0  0  0  0  0  0
   -3.8197   -0.8299    0.0000 H   0  0  0  0  0  0  0  0  0  0  0  0
   -3.8197   -1.8999    0.0000 H   0  0  0  0  0  0  0  0  0  0  0  0
    0.1442   -1.4685    0.0000 H   0  0  0  0  0  0  0  0  0  0  0  0
   -0.7494    0.0796    0.0000 H   0  0  0  0  0  0  0  0  0  0  0  0
   -3.8198   -1.6549    0.0000 H   0  0  0  0  0  0  0  0  0  0  0  0
   -1.2520   -3.1375    0.0000 H   0  0  0  0  0  0  0  0  0  0  0  0
   -4.4476   -2.1174    0.0000 H   0  0  0  0  0  0  0  0  0  0  0  0
   -0.6796    4.9101    0.0000 H   0  0  0  0  0  0  0  0  0  0  0  0
   -1.6061    3.3050    0.0000 H   0  0  0  0  0  0  0  0  0  0  0  0
   -1.6062    4.3750    0.0000 H   0  0  0  0  0  0  0  0  0  0  0  0
   -0.8916    2.8926    0.0000 H   0  0  0  0  0  0  0  0  0  0  0  0
    0.7495    4.9101    0.0000 H   0  0  0  0  0  0  0  0  0  0  0  0
    1.6761    4.3751    0.0000 H   0  0  0  0  0  0  0  0  0  0  0  0
    1.4638    2.3577    0.0000 H   0  0  0  0  0  0  0  0  0  0  0  0
    2.3905    2.8925    0.0000 H   0  0  0  0  0  0  0  0  0  0  0  0
    4.5341    3.3050    0.0000 H   0  0  0  0  0  0  0  0  0  0  0  0
    3.6076    4.9101    0.0000 H   0  0  0  0  0  0  0  0  0  0  0  0
    4.5342    4.3750    0.0000 H   0  0  0  0  0  0  0  0  0  0  0  0
    1.9664    2.0676    0.0000 H   0  0  0  0  0  0  0  0  0  0  0  0
    3.8196    2.0676    0.0000 H   0  0  0  0  0  0  0  0  0  0  0  0
    2.8930    1.5326    0.0000 H   0  0  0  0  0  0  0  0  0  0  0  0
    2.1787    4.9101    0.0000 H   0  0  0  0  0  0  0  0  0  0  0  0
    3.1053    4.3751    0.0000 H   0  0  0  0  0  0  0  0  0  0  0  0
    0.1771    3.7076    0.0000 H   0  0  0  0  0  0  0  0  0  0  0  0
   -1.6761    3.7076    0.0000 H   0  0  0  0  0  0  0  0  0  0  0  0
   -0.7495    4.2426    0.0000 H   0  0  0  0  0  0  0  0  0  0  0  0
    3.6074    2.0451    0.0000 H   0  0  0  0  0  0  0  0  0  0  0  0
   -0.5375   -1.6549    0.0000 H   0  0  0  0  0  0  0  0  0  0  0  0
   -0.7494   -3.5724    0.0000 H   0  0  0  0  0  0  0  0  0  0  0  0
   -1.4641   -4.9100    0.0000 H   0  0  0  0  0  0  0  0  0  0  0  0
   -0.5375   -4.3751    0.0000 H   0  0  0  0  0  0  0  0  0  0  0  0
   -0.7495   -2.3576    0.0000 H   0  0  0  0  0  0  0  0  0  0  0  0
    0.1771   -2.8926    0.0000 H   0  0  0  0  0  0  0  0  0  0  0  0
   -0.0352   -4.9101    0.0000 H   0  0  0  0  0  0  0  0  0  0  0  0
    0.8915   -4.3752    0.0000 H   0  0  0  0  0  0  0  0  0  0  0  0
    1.5194   -3.9128    0.0000 H   0  0  0  0  0  0  0  0  0  0  0  0
  1  5  1  0  0  0  0
  1 38  1  0  0  0  0
  1 39  1  0  0  0  0
  2  6  2  0  0  0  0
  2  7  1  0  0  0  0
  3  4  1  0  0  0  0
  3 40  1  0  0  0  0
  3 41  1  0  0  0  0
  4 42  1  0  0  0  0
  4 43  1  0  0  0  0
  5  7  1  0  0  0  0
  5 44  1  0  0  0  0
  5 45  1  0  0  0  0
  6  8  1  0  0  0  0
  6 46  1  0  0  0  0
  7 47  1  0  0  0  0
  7 48  1  0  0  0  0
  8  9  2  0  0  0  0
  8 49  1  0  0  0  0
  9 10  1  0  0  0  0
  9 11  1  0  0  0  0
 10 31  1  0  0  0  0
 10 12  2  0  0  0  0
 11 13  1  0  0  0  0
 11 50  1  0  0  0  0
 11 51  1  0  0  0  0
 12 52  1  0  0  0  0
 12 53  1  0  0  0  0
 13 15  1  0  0  0  0
 13 14  1  0  0  0  0
 13 54  1  1  0  0  0
 14 33  1  0  0  0  0
 14 55  1  1  0  0  0
 15 56  1  0  0  0  0
 16 57  1  0  0  0  0
 16 58  1  0  0  0  0
 16 59  1  0  0  0  0
 17 16  1  0  0  0  0
 17 18  1  0  0  0  0
 17 60  1  1  0  0  0
 18 19  1  0  0  0  0
 18 61  1  0  0  0  0
 18 62  1  0  0  0  0
 19 22  1  0  0  0  0
 19 63  1  0  0  0  0
 19 64  1  0  0  0  0
 20 65  1  0  0  0  0
 20 66  1  0  0  0  0
 20 67  1  0  0  0  0
 21 68  1  0  0  0  0
 21 69  1  0  0  0  0
 21 70  1  0  0  0  0
 22 29  1  0  0  0  0
 22 71  1  0  0  0  0
 22 72  1  0  0  0  0
 23  4  1  0  0  0  0
 23 17  1  0  0  0  0
 23 24  1  6  0  0  0
 25 27  1  0  0  0  0
 25  2  1  0  0  0  0
 25  3  1  0  0  0  0
 25 26  1  6  0  0  0
 27 23  1  0  0  0  0
 27  1  1  0  0  0  0
 27 28  1  1  0  0  0
 28 73  1  0  0  0  0
 28 74  1  0  0  0  0
 28 75  1  0  0  0  0
 29 20  1  0  0  0  0
 29 21  1  0  0  0  0
 29 30  1  0  0  0  0
 30 76  1  0  0  0  0
 31 14  1  0  0  0  0
 31 32  1  0  0  0  0
 31 77  1  6  0  0  0
 32 78  1  0  0  0  0
 33 34  1  0  0  0  0
 34 35  1  0  0  0  0
 34 79  1  0  0  0  0
 34 80  1  0  0  0  0
 35 36  1  0  0  0  0
 35 81  1  0  0  0  0
 35 82  1  0  0  0  0
 36 37  1  0  0  0  0
 36 83  1  0  0  0  0
 36 84  1  0  0  0  0
 37 85  1  0  0  0  0
M  END
>  <DRUGBANK_ID>
DB05295

>  <COMMON_NAME>
Eldecalcitol

>  <CAS_NUMBER>
104121-92-8

>  <UNII>
I2JP8UE90H

>  <SYNONYMS>
1α,25-dihydroxy-2β-(3-hydroxypropoxy)cholecalciferol; Eldecalcitol

$$$$
