
 OpenBabel10282417072D

 28 28  0  0  0  0  0  0  0  0999 V2000
   -0.7109   -0.8210    0.0000 C   0  0  0  0  0  0  0  0  0  0  0  0
    0.0017   -1.2308    0.0000 N   0  0  0  0  0  0  0  0  0  0  0  0
   -0.7109    0.0156    0.0000 N   0  0  0  0  0  0  0  0  0  0  0  0
   -1.4402   -1.2299    0.0000 N   0  0  0  0  0  0  0  0  0  0  0  0
    0.7205   -0.8213    0.0000 C   0  0  0  0  0  0  0  0  0  0  0  0
   -0.0060    0.4223    0.0000 C   0  0  0  0  0  0  0  0  0  0  0  0
   -2.1489   -0.8134    0.0000 C   0  0  0  0  0  0  0  0  0  0  0  0
    0.7165    0.0052    0.0000 N   0  0  0  0  0  0  0  0  0  0  0  0
    1.4292   -1.2413    0.0000 N   0  0  0  0  0  0  0  0  0  0  0  0
    0.0037    1.2413    0.0000 Cl  0  0  0  0  0  0  0  0  0  0  0  0
   -2.8679   -1.2262    0.0000 C   0  0  0  0  0  0  0  0  0  0  0  0
   -2.1528    0.0097    0.0000 C   0  0  0  0  0  0  0  0  0  0  0  0
    2.1480   -0.8320    0.0000 C   0  0  0  0  0  0  0  0  0  0  0  0
    2.8679   -1.2351    0.0000 C   0  0  0  0  0  0  0  0  0  0  0  0
   -1.4502   -2.2143    0.0000 H   0  0  0  0  0  0  0  0  0  0  0  0
   -3.0762   -0.2795    0.0000 H   0  0  0  0  0  0  0  0  0  0  0  0
    1.4207   -2.2258    0.0000 H   0  0  0  0  0  0  0  0  0  0  0  0
   -3.7933   -0.6890    0.0000 H   0  0  0  0  0  0  0  0  0  0  0  0
   -2.8705   -2.2962    0.0000 H   0  0  0  0  0  0  0  0  0  0  0  0
   -3.7958   -1.7590    0.0000 H   0  0  0  0  0  0  0  0  0  0  0  0
   -1.2287    0.5491    0.0000 H   0  0  0  0  0  0  0  0  0  0  0  0
   -3.0820    0.5403    0.0000 H   0  0  0  0  0  0  0  0  0  0  0  0
   -2.1579    1.0797    0.0000 H   0  0  0  0  0  0  0  0  0  0  0  0
    2.1442    0.2380    0.0000 H   0  0  0  0  0  0  0  0  0  0  0  0
    3.0701   -0.2893    0.0000 H   0  0  0  0  0  0  0  0  0  0  0  0
    2.8820   -2.3050    0.0000 H   0  0  0  0  0  0  0  0  0  0  0  0
    3.7874   -0.6880    0.0000 H   0  0  0  0  0  0  0  0  0  0  0  0
    3.8015   -1.7579    0.0000 H   0  0  0  0  0  0  0  0  0  0  0  0
  1  2  1  0  0  0  0
  1  3  2  0  0  0  0
  1  4  1  0  0  0  0
  2  5  2  0  0  0  0
  3  6  1  0  0  0  0
  4  7  1  0  0  0  0
  4 15  1  0  0  0  0
  5  8  1  0  0  0  0
  5  9  1  0  0  0  0
  6 10  1  0  0  0  0
  6  8  2  0  0  0  0
  7 11  1  0  0  0  0
  7 12  1  0  0  0  0
  7 16  1  0  0  0  0
  9 13  1  0  0  0  0
  9 17  1  0  0  0  0
 11 18  1  0  0  0  0
 11 19  1  0  0  0  0
 11 20  1  0  0  0  0
 12 21  1  0  0  0  0
 12 22  1  0  0  0  0
 12 23  1  0  0  0  0
 13 14  1  0  0  0  0
 13 24  1  0  0  0  0
 13 25  1  0  0  0  0
 14 26  1  0  0  0  0
 14 27  1  0  0  0  0
 14 28  1  0  0  0  0
M  END
>  <DRUGBANK_ID>
DB07392

>  <COMMON_NAME>
Atrazine

>  <CAS_NUMBER>
1912-24-9

>  <UNII>
QJA9M5H4IM

$$$$
