
 OpenBabel10282417072D

 42 44  0  0  0  0  0  0  0  0999 V2000
    0.7576    0.3618    0.0000 N   0  0  0  0  0  0  0  0  0  0  0  0
    0.0433   -0.0331    0.0000 C   0  0  3  0  0  0  0  0  0  0  0  0
    2.1891    1.1903    0.0000 N   0  0  0  0  0  0  0  0  0  0  0  0
   -0.6649    0.3618    0.0000 C   0  0  0  0  0  0  0  0  0  0  0  0
    0.7576    1.1903    0.0000 C   0  0  0  0  0  0  0  0  0  0  0  0
    1.4748   -0.0331    0.0000 C   0  0  0  0  0  0  0  0  0  0  0  0
    0.0433   -0.8587    0.0000 C   0  0  0  0  0  0  0  0  0  0  0  0
   -1.3852   -0.0331    0.0000 C   0  0  0  0  0  0  0  0  0  0  0  0
   -0.6649    1.1903    0.0000 C   0  0  0  0  0  0  0  0  0  0  0  0
    1.4748    1.6031    0.0000 C   0  0  0  0  0  0  0  0  0  0  0  0
    2.1891    0.3618    0.0000 C   0  0  0  0  0  0  0  0  0  0  0  0
   -2.0964    1.1903    0.0000 C   0  0  0  0  0  0  0  0  0  0  0  0
   -1.3852    1.6031    0.0000 C   0  0  0  0  0  0  0  0  0  0  0  0
   -2.0964    0.3618    0.0000 C   0  0  0  0  0  0  0  0  0  0  0  0
   -2.8107    1.6031    0.0000 Cl  0  0  0  0  0  0  0  0  0  0  0  0
    2.9092    1.6031    0.0000 C   0  0  0  0  0  0  0  0  0  0  0  0
   -0.6649   -1.2803    0.0000 C   0  0  0  0  0  0  0  0  0  0  0  0
    0.7576   -1.2803    0.0000 C   0  0  0  0  0  0  0  0  0  0  0  0
   -0.6649   -2.1057    0.0000 C   0  0  0  0  0  0  0  0  0  0  0  0
    0.7576   -2.1057    0.0000 C   0  0  0  0  0  0  0  0  0  0  0  0
    0.0433   -2.5185    0.0000 C   0  0  0  0  0  0  0  0  0  0  0  0
    0.0452    1.0369    0.0000 H   0  0  0  0  0  0  0  0  0  0  0  0
   -0.1687    1.7259    0.0000 H   0  0  0  0  0  0  0  0  0  0  0  0
    0.7587    2.2603    0.0000 H   0  0  0  0  0  0  0  0  0  0  0  0
    1.4757   -1.1031    0.0000 H   0  0  0  0  0  0  0  0  0  0  0  0
    2.3967   -0.5763    0.0000 H   0  0  0  0  0  0  0  0  0  0  0  0
   -1.3880   -1.0651    0.0000 H   0  0  0  0  0  0  0  0  0  0  0  0
    0.2280    1.7077    0.0000 H   0  0  0  0  0  0  0  0  0  0  0  0
    1.4757    2.6731    0.0000 H   0  0  0  0  0  0  0  0  0  0  0  0
    2.4018    2.1375    0.0000 H   0  0  0  0  0  0  0  0  0  0  0  0
    3.1107   -0.1818    0.0000 H   0  0  0  0  0  0  0  0  0  0  0  0
    2.1742   -0.7081    0.0000 H   0  0  0  0  0  0  0  0  0  0  0  0
   -1.3880    2.6351    0.0000 H   0  0  0  0  0  0  0  0  0  0  0  0
   -2.9858   -0.1617    0.0000 H   0  0  0  0  0  0  0  0  0  0  0  0
    3.8342    1.0653    0.0000 H   0  0  0  0  0  0  0  0  0  0  0  0
    2.9125    2.6731    0.0000 H   0  0  0  0  0  0  0  0  0  0  0  0
    3.8375    2.1352    0.0000 H   0  0  0  0  0  0  0  0  0  0  0  0
   -1.5621   -0.7703    0.0000 H   0  0  0  0  0  0  0  0  0  0  0  0
    1.6538   -0.7686    0.0000 H   0  0  0  0  0  0  0  0  0  0  0  0
   -1.5597   -2.6198    0.0000 H   0  0  0  0  0  0  0  0  0  0  0  0
    1.6514   -2.6215    0.0000 H   0  0  0  0  0  0  0  0  0  0  0  0
    0.0414   -3.5505    0.0000 H   0  0  0  0  0  0  0  0  0  0  0  0
  2  1  1  0  0  0  0
  2 22  1  0  0  0  0
  3 11  1  0  0  0  0
  4  2  1  0  0  0  0
  5  1  1  0  0  0  0
  5 23  1  0  0  0  0
  5 24  1  0  0  0  0
  6  1  1  0  0  0  0
  6 25  1  0  0  0  0
  6 26  1  0  0  0  0
  7  2  1  0  0  0  0
  8  4  1  0  0  0  0
  8 27  1  0  0  0  0
  9  4  2  0  0  0  0
  9 28  1  0  0  0  0
 10  5  1  0  0  0  0
 10  3  1  0  0  0  0
 10 29  1  0  0  0  0
 10 30  1  0  0  0  0
 11  6  1  0  0  0  0
 11 31  1  0  0  0  0
 11 32  1  0  0  0  0
 12 13  2  0  0  0  0
 13  9  1  0  0  0  0
 13 33  1  0  0  0  0
 14  8  2  0  0  0  0
 14 12  1  0  0  0  0
 14 34  1  0  0  0  0
 15 12  1  0  0  0  0
 16  3  1  0  0  0  0
 16 35  1  0  0  0  0
 16 36  1  0  0  0  0
 16 37  1  0  0  0  0
 17  7  2  0  0  0  0
 17 38  1  0  0  0  0
 18  7  1  0  0  0  0
 18 39  1  0  0  0  0
 19 17  1  0  0  0  0
 19 40  1  0  0  0  0
 20 18  2  0  0  0  0
 20 21  1  0  0  0  0
 20 41  1  0  0  0  0
 21 19  2  0  0  0  0
 21 42  1  0  0  0  0
M  END
>  <DRUGBANK_ID>
DB08936

>  <COMMON_NAME>
Chlorcyclizine

>  <CAS_NUMBER>
82-93-9

>  <UNII>
M26C4IP44P

>  <SYNONYMS>
Chlorcyclizin; Chlorcyclizine; Chlorcyclizinum; Clorciclicina; Clorciclizina; Clorciclizinio

$$$$
