459
 OpenBabel10282417072D

 44 46  0  0  0  0  0  0  0  0999 V2000
    1.4814    1.4357    0.0000 C   0  0  0  0  0  0  0  0  0  0  0  0
    1.1382    0.6536    0.0000 C   0  0  2  0  0  0  0  0  0  0  0  0
    0.5884    0.2176    0.0000 C   0  0  1  0  0  0  0  0  0  0  0  0
   -0.1656    0.0519    0.0000 C   0  0  1  0  0  0  0  0  0  0  0  0
   -0.0726    0.9872    0.0000 C   0  0  0  0  0  0  0  0  0  0  0  0
   -0.4575   -0.5850    0.0000 C   0  0  0  0  0  0  0  0  0  0  0  0
    0.0470   -0.1607    0.0000 C   0  0  0  0  0  0  0  0  0  0  0  0
    1.0070   -0.1500    0.0000 C   0  0  1  0  0  0  0  0  0  0  0  0
    1.9026   -0.1363    0.0000 C   0  0  0  0  0  0  0  0  0  0  0  0
    2.7087    0.1444    0.0000 O   0  0  0  0  0  0  0  0  0  0  0  0
    1.0540   -1.1369    0.0000 C   0  0  0  0  0  0  0  0  0  0  0  0
    0.2377   -1.3164    0.0000 O   0  0  0  0  0  0  0  0  0  0  0  0
    0.6498   -0.7355    0.0000 C   0  0  2  0  0  0  0  0  0  0  0  0
   -0.1439   -0.5104    0.0000 C   0  0  0  0  0  0  0  0  0  0  0  0
   -0.7357   -1.0852    0.0000 C   0  0  0  0  0  0  0  0  0  0  0  0
   -1.5294   -0.8601    0.0000 C   0  0  0  0  0  0  0  0  0  0  0  0
   -1.7313   -0.0602    0.0000 C   0  0  0  0  0  0  0  0  0  0  0  0
   -2.5250    0.1649    0.0000 O   0  0  0  0  0  0  0  0  0  0  0  0
   -1.1396    0.5146    0.0000 C   0  0  0  0  0  0  0  0  0  0  0  0
   -0.3459    0.2895    0.0000 C   0  0  0  0  0  0  0  0  0  0  0  0
    1.0132    1.2240    0.0000 H   0  0  0  0  0  0  0  0  0  0  0  0
    0.5574    0.8007    0.0000 H   0  0  0  0  0  0  0  0  0  0  0  0
    0.2224    0.4883    0.0000 H   0  0  0  0  0  0  0  0  0  0  0  0
    0.1496   -0.4341    0.0000 H   0  0  0  0  0  0  0  0  0  0  0  0
    2.5449    1.5533    0.0000 H   0  0  0  0  0  0  0  0  0  0  0  0
    0.8478    2.2980    0.0000 H   0  0  0  0  0  0  0  0  0  0  0  0
    1.9114    2.4155    0.0000 H   0  0  0  0  0  0  0  0  0  0  0  0
    0.9024    1.4279    0.0000 H   0  0  0  0  0  0  0  0  0  0  0  0
   -0.9418    1.6113    0.0000 H   0  0  0  0  0  0  0  0  0  0  0  0
    0.0333    2.0519    0.0000 H   0  0  0  0  0  0  0  0  0  0  0  0
   -1.1056   -1.4364    0.0000 H   0  0  0  0  0  0  0  0  0  0  0  0
    0.3173   -1.3230    0.0000 H   0  0  0  0  0  0  0  0  0  0  0  0
   -0.3251    0.8425    0.0000 H   0  0  0  0  0  0  0  0  0  0  0  0
    0.6531    0.7211    0.0000 H   0  0  0  0  0  0  0  0  0  0  0  0
    2.0891   -1.1899    0.0000 H   0  0  0  0  0  0  0  0  0  0  0  0
    2.8257   -0.6775    0.0000 H   0  0  0  0  0  0  0  0  0  0  0  0
    3.4430   -0.4894    0.0000 H   0  0  0  0  0  0  0  0  0  0  0  0
    1.9036   -1.7873    0.0000 H   0  0  0  0  0  0  0  0  0  0  0  0
    0.8221   -2.1815    0.0000 H   0  0  0  0  0  0  0  0  0  0  0  0
   -0.4831   -2.0858    0.0000 H   0  0  0  0  0  0  0  0  0  0  0  0
   -2.2697   -1.5791    0.0000 H   0  0  0  0  0  0  0  0  0  0  0  0
   -2.7543    1.0734    0.0000 H   0  0  0  0  0  0  0  0  0  0  0  0
   -1.3922    1.5152    0.0000 H   0  0  0  0  0  0  0  0  0  0  0  0
    0.3943    1.0086    0.0000 H   0  0  0  0  0  0  0  0  0  0  0  0
  1 25  1  0  0  0  0
  1 26  1  0  0  0  0
  1 27  1  0  0  0  0
  2  1  1  0  0  0  0
  2  3  1  0  0  0  0
  2  8  1  0  0  0  0
  2 21  1  6  0  0  0
  3  4  1  0  0  0  0
  3 13  1  0  0  0  0
  3 22  1  1  0  0  0
  4  5  1  0  0  0  0
  4  6  1  0  0  0  0
  4 23  1  1  0  0  0
  5 28  1  0  0  0  0
  5 29  1  0  0  0  0
  5 30  1  0  0  0  0
  6  7  1  0  0  0  0
  6 31  1  0  0  0  0
  6 32  1  0  0  0  0
  7  8  1  0  0  0  0
  7 33  1  0  0  0  0
  7 34  1  0  0  0  0
  8  9  1  6  0  0  0
  8 11  1  0  0  0  0
  9 10  1  0  0  0  0
  9 35  1  0  0  0  0
  9 36  1  0  0  0  0
 10 37  1  0  0  0  0
 11 12  1  0  0  0  0
 11 38  1  0  0  0  0
 11 39  1  0  0  0  0
 12 13  1  0  0  0  0
 13 14  1  0  0  0  0
 13 24  1  1  0  0  0
 14 15  1  0  0  0  0
 14 20  2  0  0  0  0
 15 16  2  0  0  0  0
 15 40  1  0  0  0  0
 16 17  1  0  0  0  0
 16 41  1  0  0  0  0
 17 18  1  0  0  0  0
 17 19  2  0  0  0  0
 18 42  1  0  0  0  0
 19 20  1  0  0  0  0
 19 43  1  0  0  0  0
 20 44  1  0  0  0  0
M  END
>  <DRUGBANK_ID>
DB07087

>  <COMMON_NAME>
4-[(1S,2S,5S,9R)-5-(HYDROXYMETHYL)-8,9-DIMETHYL-3-OXABICYCLO[3.3.1]NON-7-EN-2-YL]PHENOL

$$$$
