
 OpenBabel10282417072D

 70 73  0  0  0  0  0  0  0  0999 V2000
   -1.1067   -1.9837    0.0000 C   0  0  0  0  0  0  0  0  0  0  0  0
   -1.8213   -2.3961    0.0000 C   0  0  0  0  0  0  0  0  0  0  0  0
   -2.5357   -1.9837    0.0000 C   0  0  0  0  0  0  0  0  0  0  0  0
   -3.2502   -2.3961    0.0000 C   0  0  0  0  0  0  0  0  0  0  0  0
   -3.9647   -1.1587    0.0000 C   0  0  0  0  0  0  0  0  0  0  0  0
   -3.2502   -0.7462    0.0000 C   0  0  0  0  0  0  0  0  0  0  0  0
   -1.1067    0.4912    0.0000 C   0  0  0  0  0  0  0  0  0  0  0  0
    0.8772   -0.3337    0.0000 C   0  0  0  0  0  0  0  0  0  0  0  0
    0.3923   -1.0011    0.0000 C   0  0  0  0  0  0  0  0  0  0  0  0
   -1.8213   -0.7462    0.0000 C   0  0  2  0  0  0  0  0  0  0  0  0
   -1.8213   -1.5712    0.0000 H   0  0  0  0  0  0  0  0  0  0  0  0
   -0.3923   -0.7462    0.0000 C   0  0  1  0  0  0  0  0  0  0  0  0
   -0.3923   -1.5712    0.0000 H   0  0  0  0  0  0  0  0  0  0  0  0
   -1.1067   -1.1587    0.0000 C   0  0  2  0  0  0  0  0  0  0  0  0
   -1.1067   -0.3337    0.0000 H   0  0  0  0  0  0  0  0  0  0  0  0
   -0.3923    0.0787    0.0000 C   0  0  1  0  0  0  0  0  0  0  0  0
    0.3923    0.3337    0.0000 C   0  0  1  0  0  0  0  0  0  0  0  0
   -3.9647   -1.9837    0.0000 C   0  0  0  0  0  0  0  0  0  0  0  0
   -4.6792   -2.3962    0.0000 O   0  0  0  0  0  0  0  0  0  0  0  0
   -1.8213    0.0787    0.0000 C   0  0  1  0  0  0  0  0  0  0  0  0
   -2.5358    0.4912    0.0000 O   0  0  0  0  0  0  0  0  0  0  0  0
    0.3923    1.1587    0.0000 C   0  0  0  0  0  0  0  0  0  0  0  0
   -0.3221    1.5712    0.0000 O   0  0  0  0  0  0  0  0  0  0  0  0
    1.1068    1.5712    0.0000 C   0  0  0  0  0  0  0  0  0  0  0  0
    1.1068    0.7462    0.0000 O   0  0  0  0  0  0  0  0  0  0  0  0
   -0.3923    0.9037    0.0000 C   0  0  0  0  0  0  0  0  0  0  0  0
   -2.5357   -1.1587    0.0000 C   0  0  2  0  0  0  0  0  0  0  0  0
   -2.5357   -0.3337    0.0000 C   0  0  0  0  0  0  0  0  0  0  0  0
    1.8213    0.3337    0.0000 C   0  0  0  0  0  0  0  0  0  0  0  0
    1.8213   -0.4912    0.0000 O   0  0  0  0  0  0  0  0  0  0  0  0
    2.5357    0.7462    0.0000 C   0  0  0  0  0  0  0  0  0  0  0  0
    3.2502    0.3337    0.0000 C   0  0  0  0  0  0  0  0  0  0  0  0
    3.9647    0.7462    0.0000 C   0  0  0  0  0  0  0  0  0  0  0  0
    1.1068    2.3962    0.0000 O   0  0  0  0  0  0  0  0  0  0  0  0
    4.6792    0.3337    0.0000 C   0  0  0  0  0  0  0  0  0  0  0  0
   -0.1801   -2.5188    0.0000 H   0  0  0  0  0  0  0  0  0  0  0  0
   -1.1068   -3.0537    0.0000 H   0  0  0  0  0  0  0  0  0  0  0  0
   -1.8214   -3.4661    0.0000 H   0  0  0  0  0  0  0  0  0  0  0  0
   -2.7479   -2.9311    0.0000 H   0  0  0  0  0  0  0  0  0  0  0  0
   -3.2502   -3.4281    0.0000 H   0  0  0  0  0  0  0  0  0  0  0  0
   -4.8913   -0.6237    0.0000 H   0  0  0  0  0  0  0  0  0  0  0  0
   -3.9647   -0.0887    0.0000 H   0  0  0  0  0  0  0  0  0  0  0  0
   -3.2502    0.3238    0.0000 H   0  0  0  0  0  0  0  0  0  0  0  0
   -2.3236   -0.2112    0.0000 H   0  0  0  0  0  0  0  0  0  0  0  0
   -1.1066    1.5612    0.0000 H   0  0  0  0  0  0  0  0  0  0  0  0
   -0.1800    1.0262    0.0000 H   0  0  0  0  0  0  0  0  0  0  0  0
    1.9472   -0.3337    0.0000 H   0  0  0  0  0  0  0  0  0  0  0  0
    1.3630   -1.2871    0.0000 H   0  0  0  0  0  0  0  0  0  0  0  0
    0.7230   -2.0187    0.0000 H   0  0  0  0  0  0  0  0  0  0  0  0
   -0.3643   -1.7577    0.0000 H   0  0  0  0  0  0  0  0  0  0  0  0
   -2.7479   -0.4563    0.0000 H   0  0  0  0  0  0  0  0  0  0  0  0
   -2.5358    1.4612    0.0000 H   0  0  0  0  0  0  0  0  0  0  0  0
    2.0334    1.0362    0.0000 H   0  0  0  0  0  0  0  0  0  0  0  0
    2.0334    2.1062    0.0000 H   0  0  0  0  0  0  0  0  0  0  0  0
    0.5343    1.4387    0.0000 H   0  0  0  0  0  0  0  0  0  0  0  0
   -1.3189    1.4387    0.0000 H   0  0  0  0  0  0  0  0  0  0  0  0
   -0.3923    1.9737    0.0000 H   0  0  0  0  0  0  0  0  0  0  0  0
   -1.6091    0.2013    0.0000 H   0  0  0  0  0  0  0  0  0  0  0  0
   -3.4623    0.2013    0.0000 H   0  0  0  0  0  0  0  0  0  0  0  0
   -2.5357    0.7363    0.0000 H   0  0  0  0  0  0  0  0  0  0  0  0
    2.5357    1.8162    0.0000 H   0  0  0  0  0  0  0  0  0  0  0  0
    3.4623    1.2812    0.0000 H   0  0  0  0  0  0  0  0  0  0  0  0
    3.2502   -0.7363    0.0000 H   0  0  0  0  0  0  0  0  0  0  0  0
    4.1768   -0.2013    0.0000 H   0  0  0  0  0  0  0  0  0  0  0  0
    3.9647    1.8162    0.0000 H   0  0  0  0  0  0  0  0  0  0  0  0
    4.8913    1.2812    0.0000 H   0  0  0  0  0  0  0  0  0  0  0  0
    1.9468    2.8812    0.0000 H   0  0  0  0  0  0  0  0  0  0  0  0
    4.6792   -0.7363    0.0000 H   0  0  0  0  0  0  0  0  0  0  0  0
    5.6058    0.8687    0.0000 H   0  0  0  0  0  0  0  0  0  0  0  0
    5.6059   -0.2013    0.0000 H   0  0  0  0  0  0  0  0  0  0  0  0
  1  2  1  0  0  0  0
  1 36  1  0  0  0  0
  1 37  1  0  0  0  0
  2  3  1  0  0  0  0
  2 38  1  0  0  0  0
  2 39  1  0  0  0  0
  3  4  2  0  0  0  0
  3 27  1  0  0  0  0
  4 18  1  0  0  0  0
  4 40  1  0  0  0  0
  5  6  1  0  0  0  0
  5 41  1  0  0  0  0
  5 42  1  0  0  0  0
  6 27  1  0  0  0  0
  6 43  1  0  0  0  0
  6 44  1  0  0  0  0
  7 16  1  0  0  0  0
  7 45  1  0  0  0  0
  7 46  1  0  0  0  0
  8  9  1  0  0  0  0
  8 47  1  0  0  0  0
  8 48  1  0  0  0  0
  9 12  1  0  0  0  0
  9 49  1  0  0  0  0
  9 50  1  0  0  0  0
 10 20  1  0  0  0  0
 10 11  1  6  0  0  0
 12 13  1  6  0  0  0
 14  1  1  0  0  0  0
 14 10  1  0  0  0  0
 14 12  1  0  0  0  0
 14 15  1  1  0  0  0
 16 17  1  0  0  0  0
 16 12  1  0  0  0  0
 16 26  1  1  0  0  0
 17  8  1  0  0  0  0
 17 25  1  6  0  0  0
 17 22  1  0  0  0  0
 18  5  1  0  0  0  0
 18 19  2  0  0  0  0
 20  7  1  0  0  0  0
 20 21  1  0  0  0  0
 20 51  1  6  0  0  0
 21 52  1  0  0  0  0
 22 24  1  0  0  0  0
 22 23  2  0  0  0  0
 24 34  1  0  0  0  0
 24 53  1  0  0  0  0
 24 54  1  0  0  0  0
 25 29  1  0  0  0  0
 26 55  1  0  0  0  0
 26 56  1  0  0  0  0
 26 57  1  0  0  0  0
 27 10  1  0  0  0  0
 27 28  1  1  0  0  0
 28 58  1  0  0  0  0
 28 59  1  0  0  0  0
 28 60  1  0  0  0  0
 29 30  2  0  0  0  0
 29 31  1  0  0  0  0
 31 32  1  0  0  0  0
 31 61  1  0  0  0  0
 31 62  1  0  0  0  0
 32 33  1  0  0  0  0
 32 63  1  0  0  0  0
 32 64  1  0  0  0  0
 33 35  1  0  0  0  0
 33 65  1  0  0  0  0
 33 66  1  0  0  0  0
 34 67  1  0  0  0  0
 35 68  1  0  0  0  0
 35 69  1  0  0  0  0
 35 70  1  0  0  0  0
M  END
>  <DRUGBANK_ID>
DB14544

>  <SECONDARY_ACCESSION_NUMBERS>
DBSALT000782

>  <COMMON_NAME>
Hydrocortisone valerate

>  <CAS_NUMBER>
57524-89-7

>  <UNII>
68717P8FUZ

>  <SYNONYMS>
Cortisol 17-valerate; Hydrocortisone 17-valerate; Hydrocortisone valerate

$$$$
