EPL
 OpenBabel10282417072D

 34 34  0  0  0  0  0  0  0  0999 V2000
   -0.7561    0.4628    0.0000 O   0  0  0  0  0  0  0  0  0  0  0  0
   -0.5425   -0.3341    0.0000 P   0  0  0  0  0  0  0  0  0  0  0  0
   -1.3394   -0.5476    0.0000 O   0  0  0  0  0  0  0  0  0  0  0  0
   -1.5530   -1.3445    0.0000 C   0  0  0  0  0  0  0  0  0  0  0  0
   -2.3498   -1.5580    0.0000 C   0  0  0  0  0  0  0  0  0  0  0  0
   -0.3290   -1.1309    0.0000 O   0  0  0  0  0  0  0  0  0  0  0  0
    0.4679   -1.3445    0.0000 C   0  0  0  0  0  0  0  0  0  0  0  0
    0.6814   -2.1414    0.0000 C   0  0  0  0  0  0  0  0  0  0  0  0
    0.2543   -0.1205    0.0000 O   0  0  0  0  0  0  0  0  0  0  0  0
    0.4679    0.6764    0.0000 C   0  0  0  0  0  0  0  0  0  0  0  0
    1.2648    0.8899    0.0000 C   0  0  0  0  0  0  0  0  0  0  0  0
    1.4783    1.6868    0.0000 C   0  0  0  0  0  0  0  0  0  0  0  0
    0.8949    2.2701    0.0000 C   0  0  0  0  0  0  0  0  0  0  0  0
    1.1085    3.0670    0.0000 O   0  0  0  0  0  0  0  0  0  0  0  0
    0.5251    3.6504    0.0000 C   0  0  0  0  0  0  0  0  0  0  0  0
    0.0980    2.0566    0.0000 C   0  0  0  0  0  0  0  0  0  0  0  0
   -0.1155    1.2597    0.0000 C   0  0  0  0  0  0  0  0  0  0  0  0
   -0.7964   -2.1011    0.0000 H   0  0  0  0  0  0  0  0  0  0  0  0
   -1.8300   -2.3780    0.0000 H   0  0  0  0  0  0  0  0  0  0  0  0
   -3.1064   -0.8014    0.0000 H   0  0  0  0  0  0  0  0  0  0  0  0
   -2.6267   -2.5915    0.0000 H   0  0  0  0  0  0  0  0  0  0  0  0
   -3.3833   -1.8349    0.0000 H   0  0  0  0  0  0  0  0  0  0  0  0
    1.2245   -0.5879    0.0000 H   0  0  0  0  0  0  0  0  0  0  0  0
    1.5014   -1.6215    0.0000 H   0  0  0  0  0  0  0  0  0  0  0  0
   -0.0752   -2.8980    0.0000 H   0  0  0  0  0  0  0  0  0  0  0  0
    1.7149   -2.4184    0.0000 H   0  0  0  0  0  0  0  0  0  0  0  0
    0.9583   -3.1749    0.0000 H   0  0  0  0  0  0  0  0  0  0  0  0
    1.9945    0.1602    0.0000 H   0  0  0  0  0  0  0  0  0  0  0  0
    2.4751    1.9540    0.0000 H   0  0  0  0  0  0  0  0  0  0  0  0
    0.8020    4.6839    0.0000 H   0  0  0  0  0  0  0  0  0  0  0  0
   -0.5084    3.3735    0.0000 H   0  0  0  0  0  0  0  0  0  0  0  0
   -0.2315    4.4070    0.0000 H   0  0  0  0  0  0  0  0  0  0  0  0
   -0.6317    2.7863    0.0000 H   0  0  0  0  0  0  0  0  0  0  0  0
   -1.1123    0.9925    0.0000 H   0  0  0  0  0  0  0  0  0  0  0  0
  1  2  2  0  0  0  0
  2  3  1  0  0  0  0
  2  6  1  0  0  0  0
  2  9  1  0  0  0  0
  3  4  1  0  0  0  0
  4  5  1  0  0  0  0
  4 18  1  0  0  0  0
  4 19  1  0  0  0  0
  5 20  1  0  0  0  0
  5 21  1  0  0  0  0
  5 22  1  0  0  0  0
  6  7  1  0  0  0  0
  7  8  1  0  0  0  0
  7 23  1  0  0  0  0
  7 24  1  0  0  0  0
  8 25  1  0  0  0  0
  8 26  1  0  0  0  0
  8 27  1  0  0  0  0
  9 10  1  0  0  0  0
 10 17  2  0  0  0  0
 10 11  1  0  0  0  0
 11 12  2  0  0  0  0
 11 28  1  0  0  0  0
 12 13  1  0  0  0  0
 12 29  1  0  0  0  0
 13 16  2  0  0  0  0
 13 14  1  0  0  0  0
 14 15  1  0  0  0  0
 15 30  1  0  0  0  0
 15 31  1  0  0  0  0
 15 32  1  0  0  0  0
 16 17  1  0  0  0  0
 16 33  1  0  0  0  0
 17 34  1  0  0  0  0
M  END
>  <DRUGBANK_ID>
DB07721

>  <COMMON_NAME>
DIETHYL 4-METHOXYPHENYL PHOSPHATE

$$$$
