
 OpenBabel10282417072D

 38 40  0  0  0  0  0  0  0  0999 V2000
    2.0644    0.3822    0.0000 O   0  0  0  0  0  0  0  0  0  0  0  0
    3.0537   -2.0405    0.0000 O   0  0  0  0  0  0  0  0  0  0  0  0
   -1.8961    2.0405    0.0000 O   0  0  0  0  0  0  0  0  0  0  0  0
    0.6626   -1.2279    0.0000 N   0  3  3  0  0  0  0  0  0  0  0  0
   -0.4009    1.0543    0.0000 N   0  0  0  0  0  0  0  0  0  0  0  0
   -1.8961   -0.4346    0.0000 N   0  0  0  0  0  0  0  0  0  0  0  0
   -2.6107    0.8029    0.0000 N   0  0  0  0  0  0  0  0  0  0  0  0
    1.9900   -1.0861    0.0000 C   0  0  1  0  0  0  0  0  0  0  0  0
    1.3779   -1.6392    0.0000 C   0  0  0  0  0  0  0  0  0  0  0  0
    0.8328   -0.4206    0.0000 C   0  0  0  0  0  0  0  0  0  0  0  0
    1.6531   -0.3329    0.0000 C   0  0  2  0  0  0  0  0  0  0  0  0
   -0.1446   -1.0578    0.0000 C   0  0  0  0  0  0  0  0  0  0  0  0
   -0.4009   -0.2736    0.0000 C   0  0  0  0  0  0  0  0  0  0  0  0
   -1.1816   -0.0221    0.0000 C   0  0  3  0  0  0  0  0  0  0  0  0
    2.7974   -1.2562    0.0000 C   0  0  0  0  0  0  0  0  0  0  0  0
   -1.1816    0.8029    0.0000 C   0  0  3  0  0  0  0  0  0  0  0  0
    0.0805    0.3903    0.0000 C   0  0  0  0  0  0  0  0  0  0  0  0
   -1.8961    1.2154    0.0000 C   0  0  0  0  0  0  0  0  0  0  0  0
   -2.6107   -0.0221    0.0000 C   0  0  0  0  0  0  0  0  0  0  0  0
    0.2513   -1.9432    0.0000 H   0  0  0  0  0  0  0  0  0  0  0  0
   -0.2420    1.5405    0.0000 H   0  0  0  0  0  0  0  0  0  0  0  0
   -3.0537    1.0586    0.0000 H   0  0  0  0  0  0  0  0  0  0  0  0
    3.0344    0.3838    0.0000 H   0  0  0  0  0  0  0  0  0  0  0  0
    2.4059   -2.7624    0.0000 H   0  0  0  0  0  0  0  0  0  0  0  0
    2.2688   -2.1191    0.0000 H   0  0  0  0  0  0  0  0  0  0  0  0
    1.4916   -2.7031    0.0000 H   0  0  0  0  0  0  0  0  0  0  0  0
    2.3775   -2.0209    0.0000 H   0  0  0  0  0  0  0  0  0  0  0  0
    0.1155    0.3733    0.0000 H   0  0  0  0  0  0  0  0  0  0  0  0
    1.2145    0.5790    0.0000 H   0  0  0  0  0  0  0  0  0  0  0  0
    2.7217   -0.3871    0.0000 H   0  0  0  0  0  0  0  0  0  0  0  0
   -0.8592   -1.8542    0.0000 H   0  0  0  0  0  0  0  0  0  0  0  0
   -1.1916   -0.8371    0.0000 H   0  0  0  0  0  0  0  0  0  0  0  0
   -1.0684   -1.0861    0.0000 H   0  0  0  0  0  0  0  0  0  0  0  0
    3.5120   -0.4598    0.0000 H   0  0  0  0  0  0  0  0  0  0  0  0
    2.4649   -0.2392    0.0000 H   0  0  0  0  0  0  0  0  0  0  0  0
   -0.3168    0.1728    0.0000 H   0  0  0  0  0  0  0  0  0  0  0  0
    1.1125    0.3903    0.0000 H   0  0  0  0  0  0  0  0  0  0  0  0
   -3.5044   -0.5381    0.0000 H   0  0  0  0  0  0  0  0  0  0  0  0
  1 23  1  0  0  0  0
  2 15  1  0  0  0  0
  2 24  1  0  0  0  0
  3 18  2  0  0  0  0
  4  9  1  0  0  0  0
  4 10  1  0  0  0  0
  4 12  1  0  0  0  0
  4 20  1  0  0  0  0
  5 16  1  0  0  0  0
  5 17  1  0  0  0  0
  5 21  1  0  0  0  0
  6 14  1  0  0  0  0
  6 19  2  0  0  0  0
  7 18  1  0  0  0  0
  7 19  1  0  0  0  0
  7 22  1  0  0  0  0
  8  9  1  0  0  0  0
  8 11  1  0  0  0  0
  8 15  1  0  0  0  0
  8 25  1  6  0  0  0
  9 26  1  0  0  0  0
  9 27  1  0  0  0  0
 10 11  1  0  0  0  0
 10 28  1  0  0  0  0
 10 29  1  0  0  0  0
 11  1  1  0  0  0  0
 11 30  1  1  0  0  0
 12 13  1  0  0  0  0
 12 31  1  0  0  0  0
 12 32  1  0  0  0  0
 13 14  1  0  0  0  0
 13 17  2  0  0  0  0
 14 16  1  0  0  0  0
 14 33  1  0  0  0  0
 15 34  1  0  0  0  0
 15 35  1  0  0  0  0
 16 18  1  0  0  0  0
 16 36  1  0  0  0  0
 17 37  1  0  0  0  0
 19 38  1  0  0  0  0
M  CHG  1   4   1
M  END
>  <DRUGBANK_ID>
DB03551

>  <SECONDARY_ACCESSION_NUMBERS>
EXPT01206

>  <COMMON_NAME>
(3R,4R)-3-Hydroxy-4-(hydroxymethyl)-1-[(4-oxo-4,4a,5,7a-tetrahydro-3H-pyrrolo[3,2-d]pyrimidin-7-yl)methyl]pyrrolidinium

$$$$
