
 OpenBabel10282417072D

 47 49  0  0  0  0  0  0  0  0999 V2000
    0.9608   -0.6475    0.0000 S   0  0  0  0  0  0  0  0  0  0  0  0
   -1.0817    0.2610    0.0000 N   0  0  0  0  0  0  0  0  0  0  0  0
    2.3529    0.8283    0.0000 N   0  0  0  0  0  0  0  0  0  0  0  0
    0.3928   -0.0262    0.0000 C   0  0  3  0  0  0  0  0  0  0  0  0
   -0.4279   -0.2139    0.0000 C   0  0  0  0  0  0  0  0  0  0  0  0
   -0.6776   -0.9826    0.0000 C   0  0  0  0  0  0  0  0  0  0  0  0
    0.9871    0.5214    0.0000 C   0  0  0  0  0  0  0  0  0  0  0  0
   -0.1240   -1.6168    0.0000 C   0  0  0  0  0  0  0  0  0  0  0  0
   -1.4858   -0.9826    0.0000 C   0  0  0  0  0  0  0  0  0  0  0  0
   -1.7356   -0.2139    0.0000 C   0  0  0  0  0  0  0  0  0  0  0  0
    0.7006   -1.4481    0.0000 C   0  0  0  0  0  0  0  0  0  0  0  0
    0.2156    0.7623    0.0000 C   0  0  0  0  0  0  0  0  0  0  0  0
    1.7585    0.2805    0.0000 C   0  0  0  0  0  0  0  0  0  0  0  0
   -1.0817    1.0692    0.0000 C   0  0  0  0  0  0  0  0  0  0  0  0
   -2.0394   -1.6168    0.0000 C   0  0  0  0  0  0  0  0  0  0  0  0
   -2.5563   -0.0262    0.0000 C   0  0  0  0  0  0  0  0  0  0  0  0
   -1.7817    1.4733    0.0000 C   0  0  0  0  0  0  0  0  0  0  0  0
   -2.8642   -1.4481    0.0000 C   0  0  0  0  0  0  0  0  0  0  0  0
   -3.1244   -0.6475    0.0000 C   0  0  0  0  0  0  0  0  0  0  0  0
    3.1244    0.5875    0.0000 C   0  0  0  0  0  0  0  0  0  0  0  0
    2.1758    1.6168    0.0000 C   0  0  0  0  0  0  0  0  0  0  0  0
    0.7526    1.5654    0.0000 H   0  0  0  0  0  0  0  0  0  0  0  0
    1.7740    1.2464    0.0000 H   0  0  0  0  0  0  0  0  0  0  0  0
   -0.4663   -2.6306    0.0000 H   0  0  0  0  0  0  0  0  0  0  0  0
    0.5843   -2.4188    0.0000 H   0  0  0  0  0  0  0  0  0  0  0  0
    1.4135   -2.2460    0.0000 H   0  0  0  0  0  0  0  0  0  0  0  0
    0.3641   -2.4638    0.0000 H   0  0  0  0  0  0  0  0  0  0  0  0
    1.0024    1.4875    0.0000 H   0  0  0  0  0  0  0  0  0  0  0  0
   -0.8058    1.0811    0.0000 H   0  0  0  0  0  0  0  0  0  0  0  0
   -0.0190    1.8063    0.0000 H   0  0  0  0  0  0  0  0  0  0  0  0
    1.9930   -0.7635    0.0000 H   0  0  0  0  0  0  0  0  0  0  0  0
    0.9716   -0.4446    0.0000 H   0  0  0  0  0  0  0  0  0  0  0  0
   -0.1551    1.6042    0.0000 H   0  0  0  0  0  0  0  0  0  0  0  0
   -1.0817    2.1392    0.0000 H   0  0  0  0  0  0  0  0  0  0  0  0
   -1.7092   -2.5945    0.0000 H   0  0  0  0  0  0  0  0  0  0  0  0
   -2.8639    0.9589    0.0000 H   0  0  0  0  0  0  0  0  0  0  0  0
   -1.7818    2.5433    0.0000 H   0  0  0  0  0  0  0  0  0  0  0  0
   -2.7083    0.9383    0.0000 H   0  0  0  0  0  0  0  0  0  0  0  0
   -2.7084    2.0083    0.0000 H   0  0  0  0  0  0  0  0  0  0  0  0
   -3.5518   -2.2177    0.0000 H   0  0  0  0  0  0  0  0  0  0  0  0
   -4.1330   -0.4291    0.0000 H   0  0  0  0  0  0  0  0  0  0  0  0
    3.3590   -0.4565    0.0000 H   0  0  0  0  0  0  0  0  0  0  0  0
    3.9112    1.3127    0.0000 H   0  0  0  0  0  0  0  0  0  0  0  0
    4.1458    0.2687    0.0000 H   0  0  0  0  0  0  0  0  0  0  0  0
    2.9627    2.3419    0.0000 H   0  0  0  0  0  0  0  0  0  0  0  0
    1.1544    1.9357    0.0000 H   0  0  0  0  0  0  0  0  0  0  0  0
    1.9413    2.6608    0.0000 H   0  0  0  0  0  0  0  0  0  0  0  0
  1  4  1  0  0  0  0
  1 11  1  0  0  0  0
  2  5  1  0  0  0  0
  2 10  1  0  0  0  0
  2 14  1  0  0  0  0
  3 13  1  0  0  0  0
  3 20  1  0  0  0  0
  3 21  1  0  0  0  0
  4  5  1  0  0  0  0
  4  7  1  0  0  0  0
  4 12  1  0  0  0  0
  5  6  2  0  0  0  0
  6  8  1  0  0  0  0
  6  9  1  0  0  0  0
  7 13  1  0  0  0  0
  7 22  1  0  0  0  0
  7 23  1  0  0  0  0
  8 11  1  0  0  0  0
  8 24  1  0  0  0  0
  8 25  1  0  0  0  0
  9 10  1  0  0  0  0
  9 15  2  0  0  0  0
 10 16  2  0  0  0  0
 11 26  1  0  0  0  0
 11 27  1  0  0  0  0
 12 28  1  0  0  0  0
 12 29  1  0  0  0  0
 12 30  1  0  0  0  0
 13 31  1  0  0  0  0
 13 32  1  0  0  0  0
 14 17  1  0  0  0  0
 14 33  1  0  0  0  0
 14 34  1  0  0  0  0
 15 18  1  0  0  0  0
 15 35  1  0  0  0  0
 16 19  1  0  0  0  0
 16 36  1  0  0  0  0
 17 37  1  0  0  0  0
 17 38  1  0  0  0  0
 17 39  1  0  0  0  0
 18 19  2  0  0  0  0
 18 40  1  0  0  0  0
 19 41  1  0  0  0  0
 20 42  1  0  0  0  0
 20 43  1  0  0  0  0
 20 44  1  0  0  0  0
 21 45  1  0  0  0  0
 21 46  1  0  0  0  0
 21 47  1  0  0  0  0
M  END
>  <DRUGBANK_ID>
DB09192

>  <COMMON_NAME>
Tandamine

>  <CAS_NUMBER>
42408-80-0

>  <UNII>
6L5FH5A43E

>  <SYNONYMS>
Tandamine

$$$$
