
 OpenBabel10282417072D

 66 68  0  0  1  0  0  0  0  0999 V2000
   17.8945  -11.3659    0.0000 C   0  0  2  0  0  0  0  0  0  0  0  0
   18.5384  -10.0323    0.0000 N   0  0  0  0  0  0  0  0  0  0  0  0
   17.2225  -10.8768    0.0000 O   0  0  0  0  0  0  0  0  0  0  0  0
   17.6552  -12.1364    0.0000 C   0  0  1  0  0  0  0  0  0  0  0  0
   17.8312   -9.6030    0.0000 C   0  0  0  0  0  0  0  0  0  0  0  0
   19.2634   -9.6030    0.0000 C   0  0  0  0  0  0  0  0  0  0  0  0
   16.5609  -11.3518    0.0000 C   0  0  1  0  0  0  0  0  0  0  0  0
   16.8318  -12.1364    0.0000 C   0  0  1  0  0  0  0  0  0  0  0  0
   18.1408  -12.8050    0.0000 O   0  0  0  0  0  0  0  0  0  0  0  0
   17.8312   -8.7690    0.0000 N   0  0  0  0  0  0  0  0  0  0  0  0
   17.1134  -10.0111    0.0000 O   0  0  0  0  0  0  0  0  0  0  0  0
   19.2634   -8.7690    0.0000 C   0  0  0  0  0  0  0  0  0  0  0  0
   15.7797  -11.1055    0.0000 C   0  0  0  0  0  0  0  0  0  0  0  0
   16.3463  -12.8050    0.0000 O   0  0  0  0  0  0  0  0  0  0  0  0
   18.5420   -8.3608    0.0000 C   0  0  0  0  0  0  0  0  0  0  0  0
   15.6038  -10.2997    0.0000 O   0  0  0  0  0  0  0  0  0  0  0  0
   18.5420   -7.5340    0.0000 O   0  0  0  0  0  0  0  0  0  0  0  0
   14.7769  -10.2997    0.0000 P   0  0  3  0  0  0  0  0  0  0  0  0
   13.9535  -10.2997    0.0000 O   0  0  0  0  0  0  0  0  0  0  0  0
   14.7769   -9.4728    0.0000 O   0  0  0  0  0  0  0  0  0  0  0  0
   14.7734  -11.1195    0.0000 O   0  0  0  0  0  0  0  0  0  0  0  0
   13.1337  -10.2997    0.0000 P   0  0  3  0  0  0  0  0  0  0  0  0
   12.3032  -10.2961    0.0000 O   0  0  0  0  0  0  0  0  0  0  0  0
   13.1337   -9.4728    0.0000 O   0  0  0  0  0  0  0  0  0  0  0  0
   13.1337  -11.1195    0.0000 O   0  0  0  0  0  0  0  0  0  0  0  0
   11.5889  -10.7008    0.0000 C   0  0  2  0  0  0  0  0  0  0  0  0
   11.5889  -11.5312    0.0000 C   0  0  1  0  0  0  0  0  0  0  0  0
   10.8711  -10.2961    0.0000 O   0  0  0  0  0  0  0  0  0  0  0  0
   10.8711  -11.9394    0.0000 C   0  0  2  0  0  0  0  0  0  0  0  0
   12.4580  -12.2209    0.0000 N   0  0  0  0  0  0  0  0  0  0  0  0
   10.1568  -10.7008    0.0000 C   0  0  1  0  0  0  0  0  0  0  0  0
   10.1568  -11.5312    0.0000 C   0  0  1  0  0  0  0  0  0  0  0  0
   10.8711  -12.7628    0.0000 O   0  0  0  0  0  0  0  0  0  0  0  0
   12.7079  -12.9598    0.0000 C   0  0  0  0  0  0  0  0  0  0  0  0
    9.4565  -10.2961    0.0000 C   0  0  0  0  0  0  0  0  0  0  0  0
    9.4565  -11.9394    0.0000 O   0  0  0  0  0  0  0  0  0  0  0  0
   13.5207  -13.0618    0.0000 C   0  0  0  0  0  0  0  0  0  0  0  0
   12.2012  -13.6108    0.0000 O   0  0  0  0  0  0  0  0  0  0  0  0
    8.8267  -10.8239    0.0000 O   0  0  0  0  0  0  0  0  0  0  0  0
   17.6340  -10.3281    0.0000 H   0  0  0  0  0  0  0  0  0  0  0  0
   18.7109  -11.9622    0.0000 H   0  0  0  0  0  0  0  0  0  0  0  0
   20.1600  -10.1141    0.0000 H   0  0  0  0  0  0  0  0  0  0  0  0
   16.3919  -10.2952    0.0000 H   0  0  0  0  0  0  0  0  0  0  0  0
   17.3177  -13.0897    0.0000 H   0  0  0  0  0  0  0  0  0  0  0  0
   17.7461  -13.6911    0.0000 H   0  0  0  0  0  0  0  0  0  0  0  0
   16.9792   -8.2758    0.0000 H   0  0  0  0  0  0  0  0  0  0  0  0
   20.1549   -8.2491    0.0000 H   0  0  0  0  0  0  0  0  0  0  0  0
   14.9896  -11.8271    0.0000 H   0  0  0  0  0  0  0  0  0  0  0  0
   14.7600  -10.7813    0.0000 H   0  0  0  0  0  0  0  0  0  0  0  0
   15.3816  -12.7039    0.0000 H   0  0  0  0  0  0  0  0  0  0  0  0
   15.6169   -8.9878    0.0000 H   0  0  0  0  0  0  0  0  0  0  0  0
   13.9737   -8.9878    0.0000 H   0  0  0  0  0  0  0  0  0  0  0  0
   12.5134  -11.2396    0.0000 H   0  0  0  0  0  0  0  0  0  0  0  0
   12.5524  -11.0658    0.0000 H   0  0  0  0  0  0  0  0  0  0  0  0
   11.7960  -12.4774    0.0000 H   0  0  0  0  0  0  0  0  0  0  0  0
   13.2632  -11.6544    0.0000 H   0  0  0  0  0  0  0  0  0  0  0  0
   10.1614   -9.6308    0.0000 H   0  0  0  0  0  0  0  0  0  0  0  0
   10.1614  -12.6012    0.0000 H   0  0  0  0  0  0  0  0  0  0  0  0
   10.0311  -13.2478    0.0000 H   0  0  0  0  0  0  0  0  0  0  0  0
    9.3638   -9.2301    0.0000 H   0  0  0  0  0  0  0  0  0  0  0  0
    8.4682   -9.8861    0.0000 H   0  0  0  0  0  0  0  0  0  0  0  0
    8.6145  -11.4579    0.0000 H   0  0  0  0  0  0  0  0  0  0  0  0
   13.9362  -14.0479    0.0000 H   0  0  0  0  0  0  0  0  0  0  0  0
   14.1669  -12.2090    0.0000 H   0  0  0  0  0  0  0  0  0  0  0  0
   14.5824  -13.1950    0.0000 H   0  0  0  0  0  0  0  0  0  0  0  0
    7.9154  -10.4916    0.0000 H   0  0  0  0  0  0  0  0  0  0  0  0
  1  2  1  0  0  0  0
  1  3  1  0  0  0  0
  1  4  1  0  0  0  0
  1 40  1  6  0  0  0
  2  5  1  0  0  0  0
  2  6  1  0  0  0  0
  3  7  1  0  0  0  0
  4  8  1  0  0  0  0
  4  9  1  0  0  0  0
  4 41  1  1  0  0  0
  5 10  1  0  0  0  0
  5 11  2  0  0  0  0
  6 12  2  0  0  0  0
  6 42  1  0  0  0  0
  7 13  1  0  0  0  0
  7  8  1  0  0  0  0
  7 43  1  6  0  0  0
  8 14  1  0  0  0  0
  8 44  1  1  0  0  0
  9 45  1  0  0  0  0
 10 15  1  0  0  0  0
 10 46  1  0  0  0  0
 12 15  1  0  0  0  0
 12 47  1  0  0  0  0
 13 16  1  0  0  0  0
 13 48  1  0  0  0  0
 13 49  1  0  0  0  0
 14 50  1  0  0  0  0
 15 17  2  0  0  0  0
 16 18  1  0  0  0  0
 18 19  1  0  0  0  0
 18 20  1  0  0  0  0
 18 21  2  0  0  0  0
 19 22  1  0  0  0  0
 20 51  1  0  0  0  0
 22 23  1  0  0  0  0
 22 24  1  0  0  0  0
 22 25  2  0  0  0  0
 24 52  1  0  0  0  0
 26 23  1  0  0  0  0
 26 27  1  0  0  0  0
 26 28  1  0  0  0  0
 26 53  1  1  0  0  0
 27 29  1  0  0  0  0
 27 30  1  0  0  0  0
 27 54  1  1  0  0  0
 28 31  1  0  0  0  0
 29 32  1  0  0  0  0
 29 33  1  0  0  0  0
 29 55  1  6  0  0  0
 30 34  1  0  0  0  0
 30 56  1  0  0  0  0
 31 35  1  0  0  0  0
 31 32  1  0  0  0  0
 31 57  1  6  0  0  0
 32 36  1  0  0  0  0
 32 58  1  1  0  0  0
 33 59  1  0  0  0  0
 34 37  1  0  0  0  0
 34 38  2  0  0  0  0
 35 39  1  0  0  0  0
 35 60  1  0  0  0  0
 35 61  1  0  0  0  0
 36 62  1  0  0  0  0
 37 63  1  0  0  0  0
 37 64  1  0  0  0  0
 37 65  1  0  0  0  0
 39 66  1  0  0  0  0
M  END
>  <DRUGBANK_ID>
DB03397

>  <SECONDARY_ACCESSION_NUMBERS>
EXPT03168

>  <COMMON_NAME>
Uridine-Diphosphate-N-Acetylglucosamine

$$$$
