
 OpenBabel10282417072D

 50 52  0  0  1  0  0  0  0  0999 V2000
    9.9159   -1.7944    0.0000 C   0  0  0  0  0  0  0  0  0  0  0  0
    9.9159   -0.9694    0.0000 N   0  0  0  0  0  0  0  0  0  0  0  0
    9.2014   -0.5569    0.0000 C   0  0  0  0  0  0  0  0  0  0  0  0
    8.4869   -0.9694    0.0000 C   0  0  0  0  0  0  0  0  0  0  0  0
    7.7725   -0.5569    0.0000 C   0  0  2  0  0  0  0  0  0  0  0  0
    7.7725    0.2681    0.0000 N   0  0  0  0  0  0  0  0  0  0  0  0
    7.0580   -0.9694    0.0000 C   0  0  0  0  0  0  0  0  0  0  0  0
    6.3435   -0.5569    0.0000 O   0  0  0  0  0  0  0  0  0  0  0  0
    7.0580   -1.7944    0.0000 O   0  0  0  0  0  0  0  0  0  0  0  0
   10.6304   -0.5569    0.0000 C   0  0  0  0  0  0  0  0  0  0  0  0
   11.3448   -0.9694    0.0000 C   0  0  1  0  0  0  0  0  0  0  0  0
   12.0985   -0.6338    0.0000 O   0  0  0  0  0  0  0  0  0  0  0  0
   12.6505   -1.2469    0.0000 C   0  0  2  0  0  0  0  0  0  0  0  0
   12.2380   -1.9614    0.0000 C   0  0  2  0  0  0  0  0  0  0  0  0
   12.5736   -2.7150    0.0000 O   0  0  0  0  0  0  0  0  0  0  0  0
   11.4311   -1.7898    0.0000 C   0  0  2  0  0  0  0  0  0  0  0  0
   10.8180   -2.3419    0.0000 O   0  0  0  0  0  0  0  0  0  0  0  0
   13.4710   -1.1607    0.0000 N   0  0  0  0  0  0  0  0  0  0  0  0
   13.8835   -0.4462    0.0000 C   0  0  0  0  0  0  0  0  0  0  0  0
   14.6905   -0.6177    0.0000 N   0  0  0  0  0  0  0  0  0  0  0  0
   14.7767   -1.4382    0.0000 C   0  0  0  0  0  0  0  0  0  0  0  0
   15.4442   -1.9231    0.0000 C   0  0  0  0  0  0  0  0  0  0  0  0
   16.1978   -1.5876    0.0000 N   0  0  0  0  0  0  0  0  0  0  0  0
   15.3579   -2.7436    0.0000 N   0  0  0  0  0  0  0  0  0  0  0  0
   14.6043   -3.0792    0.0000 C   0  0  0  0  0  0  0  0  0  0  0  0
   13.9368   -2.5942    0.0000 N   0  0  0  0  0  0  0  0  0  0  0  0
   14.0231   -1.7738    0.0000 C   0  0  0  0  0  0  0  0  0  0  0  0
    8.9893   -2.3294    0.0000 H   0  0  0  0  0  0  0  0  0  0  0  0
   10.8425   -2.3294    0.0000 H   0  0  0  0  0  0  0  0  0  0  0  0
    9.9159   -2.8644    0.0000 H   0  0  0  0  0  0  0  0  0  0  0  0
    9.2014    0.5131    0.0000 H   0  0  0  0  0  0  0  0  0  0  0  0
    8.2748   -0.0219    0.0000 H   0  0  0  0  0  0  0  0  0  0  0  0
    8.4869   -2.0394    0.0000 H   0  0  0  0  0  0  0  0  0  0  0  0
    7.5602   -1.5044    0.0000 H   0  0  0  0  0  0  0  0  0  0  0  0
    8.6992   -0.0219    0.0000 H   0  0  0  0  0  0  0  0  0  0  0  0
    8.6558    0.7781    0.0000 H   0  0  0  0  0  0  0  0  0  0  0  0
    6.8892    0.7781    0.0000 H   0  0  0  0  0  0  0  0  0  0  0  0
    6.3435    0.3801    0.0000 H   0  0  0  0  0  0  0  0  0  0  0  0
   10.6304    0.5131    0.0000 H   0  0  0  0  0  0  0  0  0  0  0  0
   11.5571   -0.0219    0.0000 H   0  0  0  0  0  0  0  0  0  0  0  0
   11.4008    0.0991    0.0000 H   0  0  0  0  0  0  0  0  0  0  0  0
   13.0340   -0.2480    0.0000 H   0  0  0  0  0  0  0  0  0  0  0  0
   13.3065   -2.0173    0.0000 H   0  0  0  0  0  0  0  0  0  0  0  0
   12.0035   -3.4998    0.0000 H   0  0  0  0  0  0  0  0  0  0  0  0
   11.7080   -2.8233    0.0000 H   0  0  0  0  0  0  0  0  0  0  0  0
    9.8955   -2.0422    0.0000 H   0  0  0  0  0  0  0  0  0  0  0  0
   13.4637    0.4966    0.0000 H   0  0  0  0  0  0  0  0  0  0  0  0
   16.9943   -2.1663    0.0000 H   0  0  0  0  0  0  0  0  0  0  0  0
   16.3007   -0.6085    0.0000 H   0  0  0  0  0  0  0  0  0  0  0  0
   14.4965   -4.1055    0.0000 H   0  0  0  0  0  0  0  0  0  0  0  0
  1  2  1  0  0  0  0
  1 28  1  0  0  0  0
  1 29  1  0  0  0  0
  1 30  1  0  0  0  0
  2  3  1  0  0  0  0
  2 10  1  0  0  0  0
  3  4  1  0  0  0  0
  3 31  1  0  0  0  0
  3 32  1  0  0  0  0
  4  5  1  0  0  0  0
  4 33  1  0  0  0  0
  4 34  1  0  0  0  0
  5  6  1  0  0  0  0
  5  7  1  0  0  0  0
  5 35  1  6  0  0  0
  6 36  1  0  0  0  0
  6 37  1  0  0  0  0
  7  8  1  0  0  0  0
  7  9  2  0  0  0  0
  8 38  1  0  0  0  0
 10 39  1  0  0  0  0
 10 40  1  0  0  0  0
 11 10  1  0  0  0  0
 11 12  1  0  0  0  0
 11 16  1  0  0  0  0
 11 41  1  6  0  0  0
 12 13  1  0  0  0  0
 13 14  1  0  0  0  0
 13 18  1  0  0  0  0
 13 42  1  6  0  0  0
 14 15  1  0  0  0  0
 14 16  1  0  0  0  0
 14 43  1  1  0  0  0
 15 44  1  0  0  0  0
 16 17  1  0  0  0  0
 16 45  1  1  0  0  0
 17 46  1  0  0  0  0
 18 19  1  0  0  0  0
 18 27  1  0  0  0  0
 19 20  2  0  0  0  0
 19 47  1  0  0  0  0
 20 21  1  0  0  0  0
 21 22  2  0  0  0  0
 21 27  1  0  0  0  0
 22 23  1  0  0  0  0
 22 24  1  0  0  0  0
 23 48  1  0  0  0  0
 23 49  1  0  0  0  0
 24 25  2  0  0  0  0
 25 26  1  0  0  0  0
 25 50  1  0  0  0  0
 26 27  2  0  0  0  0
M  END
>  <DRUGBANK_ID>
DB03458

>  <SECONDARY_ACCESSION_NUMBERS>
EXPT02836

>  <COMMON_NAME>
N(4)-Adenosyl-N(4)-methyl-2,4-diaminobutanoic acid

>  <CAS_NUMBER>
111770-79-7

>  <UNII>
AC4E80KX81

>  <SYNONYMS>
5'-{[(3S)-3-Amino-3-carboxypropyl](methyl)amino}-5'-deoxyadenosine

$$$$
