
 OpenBabel10282417072D

 80 79  0  0  0  0  0  0  0  0999 V2000
   -8.1076    0.2162    0.0000 C   0  0  0  0  0  0  0  0  0  0  0  0
   -7.4048   -0.2161    0.0000 C   0  0  0  0  0  0  0  0  0  0  0  0
   -6.7023    0.2162    0.0000 C   0  0  0  0  0  0  0  0  0  0  0  0
   -5.9995   -0.2161    0.0000 C   0  0  0  0  0  0  0  0  0  0  0  0
   -5.2969    0.2162    0.0000 C   0  0  0  0  0  0  0  0  0  0  0  0
   -4.5942   -0.2161    0.0000 C   0  0  0  0  0  0  0  0  0  0  0  0
   -3.8916    0.2162    0.0000 C   0  0  0  0  0  0  0  0  0  0  0  0
   -3.1889   -0.2161    0.0000 C   0  0  0  0  0  0  0  0  0  0  0  0
   -2.4863    0.2162    0.0000 C   0  0  0  0  0  0  0  0  0  0  0  0
   -1.7836   -0.2161    0.0000 C   0  0  0  0  0  0  0  0  0  0  0  0
   -1.0810    0.2162    0.0000 C   0  0  0  0  0  0  0  0  0  0  0  0
   -0.3242   -0.2161    0.0000 C   0  0  0  0  0  0  0  0  0  0  0  0
    0.3783    0.2162    0.0000 C   0  0  0  0  0  0  0  0  0  0  0  0
    1.0810   -0.2161    0.0000 C   0  0  0  0  0  0  0  0  0  0  0  0
    1.7836    0.2162    0.0000 C   0  0  0  0  0  0  0  0  0  0  0  0
    2.4863   -0.2161    0.0000 C   0  0  0  0  0  0  0  0  0  0  0  0
    3.1889    0.2162    0.0000 C   0  0  0  0  0  0  0  0  0  0  0  0
    3.8916   -0.2161    0.0000 C   0  0  0  0  0  0  0  0  0  0  0  0
    4.5942    0.2162    0.0000 C   0  0  0  0  0  0  0  0  0  0  0  0
    5.2969   -0.2161    0.0000 C   0  0  0  0  0  0  0  0  0  0  0  0
    5.9994    0.2162    0.0000 C   0  0  0  0  0  0  0  0  0  0  0  0
    6.7022   -0.2161    0.0000 C   0  0  0  0  0  0  0  0  0  0  0  0
    7.4047    0.2162    0.0000 C   0  0  0  0  0  0  0  0  0  0  0  0
    8.1076   -0.2161    0.0000 C   0  0  0  0  0  0  0  0  0  0  0  0
   -7.4048   -1.0269    0.0000 C   0  0  0  0  0  0  0  0  0  0  0  0
   -4.5942   -1.0269    0.0000 C   0  0  0  0  0  0  0  0  0  0  0  0
   -1.7836   -1.0269    0.0000 C   0  0  0  0  0  0  0  0  0  0  0  0
    1.7836    1.0269    0.0000 C   0  0  0  0  0  0  0  0  0  0  0  0
    4.5942    1.0269    0.0000 C   0  0  0  0  0  0  0  0  0  0  0  0
    7.4047    1.0269    0.0000 C   0  0  0  0  0  0  0  0  0  0  0  0
   -8.0778    1.2858    0.0000 H   0  0  0  0  0  0  0  0  0  0  0  0
   -9.0488   -0.2928    0.0000 H   0  0  0  0  0  0  0  0  0  0  0  0
   -9.0190    0.7768    0.0000 H   0  0  0  0  0  0  0  0  0  0  0  0
   -6.7024    1.2482    0.0000 H   0  0  0  0  0  0  0  0  0  0  0  0
   -5.9994   -1.2861    0.0000 H   0  0  0  0  0  0  0  0  0  0  0  0
   -5.0654   -0.7381    0.0000 H   0  0  0  0  0  0  0  0  0  0  0  0
   -5.2969    1.2862    0.0000 H   0  0  0  0  0  0  0  0  0  0  0  0
   -4.3629    0.7382    0.0000 H   0  0  0  0  0  0  0  0  0  0  0  0
   -3.8916    1.2482    0.0000 H   0  0  0  0  0  0  0  0  0  0  0  0
   -3.1889   -1.2861    0.0000 H   0  0  0  0  0  0  0  0  0  0  0  0
   -2.2548   -0.7381    0.0000 H   0  0  0  0  0  0  0  0  0  0  0  0
   -2.4863    1.2862    0.0000 H   0  0  0  0  0  0  0  0  0  0  0  0
   -1.5523    0.7382    0.0000 H   0  0  0  0  0  0  0  0  0  0  0  0
   -1.0978    1.2481    0.0000 H   0  0  0  0  0  0  0  0  0  0  0  0
   -0.3067   -1.2860    0.0000 H   0  0  0  0  0  0  0  0  0  0  0  0
    0.6141   -0.7304    0.0000 H   0  0  0  0  0  0  0  0  0  0  0  0
    0.3782    1.2862    0.0000 H   0  0  0  0  0  0  0  0  0  0  0  0
    1.3123    0.7382    0.0000 H   0  0  0  0  0  0  0  0  0  0  0  0
    1.0810   -1.2481    0.0000 H   0  0  0  0  0  0  0  0  0  0  0  0
    2.4863   -1.2861    0.0000 H   0  0  0  0  0  0  0  0  0  0  0  0
    3.4204   -0.7381    0.0000 H   0  0  0  0  0  0  0  0  0  0  0  0
    3.1889    1.2862    0.0000 H   0  0  0  0  0  0  0  0  0  0  0  0
    4.1229    0.7382    0.0000 H   0  0  0  0  0  0  0  0  0  0  0  0
    3.8916   -1.2481    0.0000 H   0  0  0  0  0  0  0  0  0  0  0  0
    5.2970   -1.2861    0.0000 H   0  0  0  0  0  0  0  0  0  0  0  0
    6.2310   -0.7380    0.0000 H   0  0  0  0  0  0  0  0  0  0  0  0
    5.9993    1.2862    0.0000 H   0  0  0  0  0  0  0  0  0  0  0  0
    6.9334    0.7383    0.0000 H   0  0  0  0  0  0  0  0  0  0  0  0
    6.7023   -1.2481    0.0000 H   0  0  0  0  0  0  0  0  0  0  0  0
    8.0779   -1.2857    0.0000 H   0  0  0  0  0  0  0  0  0  0  0  0
    9.0488    0.2929    0.0000 H   0  0  0  0  0  0  0  0  0  0  0  0
    9.0190   -0.7766    0.0000 H   0  0  0  0  0  0  0  0  0  0  0  0
   -8.3314   -1.5619    0.0000 H   0  0  0  0  0  0  0  0  0  0  0  0
   -6.4782   -1.5619    0.0000 H   0  0  0  0  0  0  0  0  0  0  0  0
   -7.4048   -2.0969    0.0000 H   0  0  0  0  0  0  0  0  0  0  0  0
   -5.5208   -1.5619    0.0000 H   0  0  0  0  0  0  0  0  0  0  0  0
   -3.6676   -1.5619    0.0000 H   0  0  0  0  0  0  0  0  0  0  0  0
   -4.5942   -2.0969    0.0000 H   0  0  0  0  0  0  0  0  0  0  0  0
   -2.7102   -1.5619    0.0000 H   0  0  0  0  0  0  0  0  0  0  0  0
   -0.8570   -1.5619    0.0000 H   0  0  0  0  0  0  0  0  0  0  0  0
   -1.7836   -2.0969    0.0000 H   0  0  0  0  0  0  0  0  0  0  0  0
    2.7102    1.5619    0.0000 H   0  0  0  0  0  0  0  0  0  0  0  0
    0.8570    1.5619    0.0000 H   0  0  0  0  0  0  0  0  0  0  0  0
    1.7836    2.0969    0.0000 H   0  0  0  0  0  0  0  0  0  0  0  0
    5.5208    1.5619    0.0000 H   0  0  0  0  0  0  0  0  0  0  0  0
    3.6676    1.5619    0.0000 H   0  0  0  0  0  0  0  0  0  0  0  0
    4.5942    2.0969    0.0000 H   0  0  0  0  0  0  0  0  0  0  0  0
    8.3313    1.5619    0.0000 H   0  0  0  0  0  0  0  0  0  0  0  0
    6.4781    1.5619    0.0000 H   0  0  0  0  0  0  0  0  0  0  0  0
    7.4047    2.0969    0.0000 H   0  0  0  0  0  0  0  0  0  0  0  0
  1 31  1  0  0  0  0
  1 32  1  0  0  0  0
  1 33  1  0  0  0  0
  2  1  1  0  0  0  0
  3  2  2  0  0  0  0
  3 34  1  0  0  0  0
  4  3  1  0  0  0  0
  4 35  1  0  0  0  0
  4 36  1  0  0  0  0
  5  4  1  0  0  0  0
  5 37  1  0  0  0  0
  5 38  1  0  0  0  0
  6  5  1  0  0  0  0
  7  6  2  0  0  0  0
  7 39  1  0  0  0  0
  8  7  1  0  0  0  0
  8 40  1  0  0  0  0
  8 41  1  0  0  0  0
  9  8  1  0  0  0  0
  9 42  1  0  0  0  0
  9 43  1  0  0  0  0
 10  9  1  0  0  0  0
 11 10  2  0  0  0  0
 11 44  1  0  0  0  0
 12 11  1  0  0  0  0
 12 45  1  0  0  0  0
 12 46  1  0  0  0  0
 13 12  1  0  0  0  0
 13 47  1  0  0  0  0
 13 48  1  0  0  0  0
 14 13  1  0  0  0  0
 14 49  1  0  0  0  0
 15 14  2  0  0  0  0
 16 15  1  0  0  0  0
 16 50  1  0  0  0  0
 16 51  1  0  0  0  0
 17 16  1  0  0  0  0
 17 52  1  0  0  0  0
 17 53  1  0  0  0  0
 18 17  1  0  0  0  0
 18 54  1  0  0  0  0
 19 18  2  0  0  0  0
 20 19  1  0  0  0  0
 20 55  1  0  0  0  0
 20 56  1  0  0  0  0
 21 20  1  0  0  0  0
 21 57  1  0  0  0  0
 21 58  1  0  0  0  0
 22 21  1  0  0  0  0
 22 59  1  0  0  0  0
 23 22  2  0  0  0  0
 24 23  1  0  0  0  0
 24 60  1  0  0  0  0
 24 61  1  0  0  0  0
 24 62  1  0  0  0  0
 25  2  1  0  0  0  0
 25 63  1  0  0  0  0
 25 64  1  0  0  0  0
 25 65  1  0  0  0  0
 26  6  1  0  0  0  0
 26 66  1  0  0  0  0
 26 67  1  0  0  0  0
 26 68  1  0  0  0  0
 27 10  1  0  0  0  0
 27 69  1  0  0  0  0
 27 70  1  0  0  0  0
 27 71  1  0  0  0  0
 28 15  1  0  0  0  0
 28 72  1  0  0  0  0
 28 73  1  0  0  0  0
 28 74  1  0  0  0  0
 29 19  1  0  0  0  0
 29 75  1  0  0  0  0
 29 76  1  0  0  0  0
 29 77  1  0  0  0  0
 30 23  1  0  0  0  0
 30 78  1  0  0  0  0
 30 79  1  0  0  0  0
 30 80  1  0  0  0  0
M  END
>  <DRUGBANK_ID>
DB11460

>  <COMMON_NAME>
Squalene

>  <CAS_NUMBER>
111-02-4

>  <UNII>
7QWM220FJH

>  <SYNONYMS>
(all-E)-2,6,10,15,19,23-hexamethyl-2,6,10,14,18,22-tetracosahexaene; (E,E,E,E)-Squalene; Spinacene; Squalene; Supraene

$$$$
