792
 OpenBabel10282417072D

 40 41  0  0  1  0  0  0  0  0999 V2000
    4.5080    0.4125    0.0000 N   0  0  0  0  0  0  0  0  0  0  0  0
    5.2224   -1.6500    0.0000 N   0  0  0  0  0  0  0  0  0  0  0  0
    5.9370    0.4125    0.0000 N   0  0  0  0  0  0  0  0  0  0  0  0
    4.5080   -0.4125    0.0000 C   0  0  0  0  0  0  0  0  0  0  0  0
    5.2224   -0.8250    0.0000 C   0  0  0  0  0  0  0  0  0  0  0  0
    3.7935    0.8250    0.0000 C   0  0  0  0  0  0  0  0  0  0  0  0
    5.2224    0.8250    0.0000 C   0  0  0  0  0  0  0  0  0  0  0  0
    3.0791    0.4125    0.0000 C   0  0  0  0  0  0  0  0  0  0  0  0
    5.9370   -2.0625    0.0000 C   0  0  0  0  0  0  0  0  0  0  0  0
    4.5080   -2.0625    0.0000 C   0  0  0  0  0  0  0  0  0  0  0  0
    3.0791   -0.4125    0.0000 C   0  0  0  0  0  0  0  0  0  0  0  0
    2.3645    0.8250    0.0000 C   0  0  0  0  0  0  0  0  0  0  0  0
    5.2224    1.6500    0.0000 C   0  0  0  0  0  0  0  0  0  0  0  0
    2.3645   -0.8250    0.0000 C   0  0  0  0  0  0  0  0  0  0  0  0
    1.6500    0.4125    0.0000 C   0  0  0  0  0  0  0  0  0  0  0  0
    5.9370    2.0625    0.0000 C   0  0  0  0  0  0  0  0  0  0  0  0
    1.6500   -0.4125    0.0000 C   0  0  0  0  0  0  0  0  0  0  0  0
    6.6515    0.8250    0.0000 C   0  0  0  0  0  0  0  0  0  0  0  0
    6.6515    1.6500    0.0000 C   0  0  0  0  0  0  0  0  0  0  0  0
    3.5813   -0.9475    0.0000 H   0  0  0  0  0  0  0  0  0  0  0  0
    4.5080   -1.4825    0.0000 H   0  0  0  0  0  0  0  0  0  0  0  0
    6.1491   -0.2900    0.0000 H   0  0  0  0  0  0  0  0  0  0  0  0
    5.2224    0.2450    0.0000 H   0  0  0  0  0  0  0  0  0  0  0  0
    3.7935    1.8950    0.0000 H   0  0  0  0  0  0  0  0  0  0  0  0
    2.8668    1.3600    0.0000 H   0  0  0  0  0  0  0  0  0  0  0  0
    5.9371   -3.1325    0.0000 H   0  0  0  0  0  0  0  0  0  0  0  0
    6.8636   -1.5274    0.0000 H   0  0  0  0  0  0  0  0  0  0  0  0
    6.8637   -2.5974    0.0000 H   0  0  0  0  0  0  0  0  0  0  0  0
    3.5813   -1.5275    0.0000 H   0  0  0  0  0  0  0  0  0  0  0  0
    4.5080   -3.1325    0.0000 H   0  0  0  0  0  0  0  0  0  0  0  0
    3.5814   -2.5975    0.0000 H   0  0  0  0  0  0  0  0  0  0  0  0
    3.9728   -0.9285    0.0000 H   0  0  0  0  0  0  0  0  0  0  0  0
    2.3645    1.8570    0.0000 H   0  0  0  0  0  0  0  0  0  0  0  0
    4.3287    2.1660    0.0000 H   0  0  0  0  0  0  0  0  0  0  0  0
    2.3645   -1.8570    0.0000 H   0  0  0  0  0  0  0  0  0  0  0  0
    0.7563    0.9285    0.0000 H   0  0  0  0  0  0  0  0  0  0  0  0
    5.9370    3.0945    0.0000 H   0  0  0  0  0  0  0  0  0  0  0  0
    0.7563   -0.9285    0.0000 H   0  0  0  0  0  0  0  0  0  0  0  0
    7.5452    0.3090    0.0000 H   0  0  0  0  0  0  0  0  0  0  0  0
    7.5452    2.1660    0.0000 H   0  0  0  0  0  0  0  0  0  0  0  0
  1  4  1  0  0  0  0
  1  6  1  0  0  0  0
  1  7  1  0  0  0  0
  2  5  1  0  0  0  0
  2  9  1  0  0  0  0
  2 10  1  0  0  0  0
  3  7  1  0  0  0  0
  3 18  2  0  0  0  0
  4  5  1  0  0  0  0
  4 20  1  0  0  0  0
  4 21  1  0  0  0  0
  5 22  1  0  0  0  0
  5 23  1  0  0  0  0
  6  8  1  0  0  0  0
  6 24  1  0  0  0  0
  6 25  1  0  0  0  0
  7 13  2  0  0  0  0
  8 11  2  0  0  0  0
  8 12  1  0  0  0  0
  9 26  1  0  0  0  0
  9 27  1  0  0  0  0
  9 28  1  0  0  0  0
 10 29  1  0  0  0  0
 10 30  1  0  0  0  0
 10 31  1  0  0  0  0
 11 14  1  0  0  0  0
 11 32  1  0  0  0  0
 12 15  2  0  0  0  0
 12 33  1  0  0  0  0
 13 16  1  0  0  0  0
 13 34  1  0  0  0  0
 14 17  2  0  0  0  0
 14 35  1  0  0  0  0
 15 17  1  0  0  0  0
 15 36  1  0  0  0  0
 16 19  2  0  0  0  0
 16 37  1  0  0  0  0
 17 38  1  0  0  0  0
 18 19  1  0  0  0  0
 18 39  1  0  0  0  0
 19 40  1  0  0  0  0
M  END
>  <DRUGBANK_ID>
DB00792

>  <SECONDARY_ACCESSION_NUMBERS>
APRD00689

>  <COMMON_NAME>
Tripelennamine

>  <CAS_NUMBER>
91-81-6

>  <UNII>
3C5ORO99TY

>  <SYNONYMS>
Tripelennamin; Tripelennamina; Tripelennamine; TripÃ©lennamine; Tripelennaminum

$$$$
