
 OpenBabel10282417072D

 41 43  0  0  0  0  0  0  0  0999 V2000
   -1.8000    0.9070    0.0000 C   0  0  1  0  0  0  0  0  0  0  0  0
   -0.7221    0.0936    0.0000 C   0  0  2  0  0  0  0  0  0  0  0  0
   -1.2416    0.5303    0.0000 C   0  0  0  0  0  0  0  0  0  0  0  0
   -2.2291    0.5303    0.0000 C   0  0  1  0  0  0  0  0  0  0  0  0
   -2.3731    1.3549    0.0000 N   0  0  0  0  0  0  0  0  0  0  0  0
   -0.8600    0.9225    0.0000 C   0  0  0  0  0  0  0  0  0  0  0  0
   -2.7567   -0.1937    0.0000 C   0  0  0  0  0  0  0  0  0  0  0  0
   -2.1289    0.1866    0.0000 C   0  0  0  0  0  0  0  0  0  0  0  0
   -2.4604    2.3474    0.0000 C   0  0  0  0  0  0  0  0  0  0  0  0
   -3.0577    0.5303    0.0000 H   0  0  0  0  0  0  0  0  0  0  0  0
   -1.3979    1.6246    0.0000 H   0  0  0  0  0  0  0  0  0  0  0  0
   -0.5134   -0.6963    0.0000 O   0  0  0  0  0  0  0  0  0  0  0  0
    0.1979   -1.1066    0.0000 C   0  0  0  0  0  0  0  0  0  0  0  0
    0.9143   -0.6980    0.0000 C   0  0  3  0  0  0  0  0  0  0  0  0
    0.1960   -1.9318    0.0000 O   0  0  0  0  0  0  0  0  0  0  0  0
    1.6286   -1.1101    0.0000 C   0  0  0  0  0  0  0  0  0  0  0  0
    0.9163    0.1273    0.0000 O   0  0  0  0  0  0  0  0  0  0  0  0
    1.6288   -1.9351    0.0000 C   0  0  0  0  0  0  0  0  0  0  0  0
    2.3434   -2.3474    0.0000 C   0  0  0  0  0  0  0  0  0  0  0  0
    3.0577   -1.9347    0.0000 C   0  0  0  0  0  0  0  0  0  0  0  0
    3.0575   -1.1096    0.0000 C   0  0  0  0  0  0  0  0  0  0  0  0
    2.3430   -0.6974    0.0000 C   0  0  0  0  0  0  0  0  0  0  0  0
   -1.6258   -0.4793    0.0000 H   0  0  0  0  0  0  0  0  0  0  0  0
   -0.8752    1.5356    0.0000 H   0  0  0  0  0  0  0  0  0  0  0  0
   -1.8551    1.4069    0.0000 H   0  0  0  0  0  0  0  0  0  0  0  0
   -0.1750    1.7445    0.0000 H   0  0  0  0  0  0  0  0  0  0  0  0
    0.1727    0.6423    0.0000 H   0  0  0  0  0  0  0  0  0  0  0  0
   -3.5448   -0.9174    0.0000 H   0  0  0  0  0  0  0  0  0  0  0  0
   -2.1145   -1.0495    0.0000 H   0  0  0  0  0  0  0  0  0  0  0  0
   -1.3296   -0.5247    0.0000 H   0  0  0  0  0  0  0  0  0  0  0  0
   -2.2264   -0.8789    0.0000 H   0  0  0  0  0  0  0  0  0  0  0  0
   -1.5842    2.9615    0.0000 H   0  0  0  0  0  0  0  0  0  0  0  0
   -3.4304    2.7991    0.0000 H   0  0  0  0  0  0  0  0  0  0  0  0
   -2.5542    3.4133    0.0000 H   0  0  0  0  0  0  0  0  0  0  0  0
    0.9117   -1.7680    0.0000 H   0  0  0  0  0  0  0  0  0  0  0  0
    1.7575    0.6103    0.0000 H   0  0  0  0  0  0  0  0  0  0  0  0
    0.7352   -2.4513    0.0000 H   0  0  0  0  0  0  0  0  0  0  0  0
    2.3437   -3.3794    0.0000 H   0  0  0  0  0  0  0  0  0  0  0  0
    3.9516   -2.4505    0.0000 H   0  0  0  0  0  0  0  0  0  0  0  0
    3.9511   -0.5933    0.0000 H   0  0  0  0  0  0  0  0  0  0  0  0
    2.3427    0.3346    0.0000 H   0  0  0  0  0  0  0  0  0  0  0  0
  1 11  1  6  0  0  0
  1  6  1  0  0  0  0
  1  8  1  0  0  0  0
  2  3  1  0  0  0  0
  2 12  1  0  0  0  0
  2 23  1  1  0  0  0
  3  4  1  0  0  0  0
  3 24  1  0  0  0  0
  3 25  1  0  0  0  0
  4 10  1  1  0  0  0
  4  5  1  0  0  0  0
  4  7  1  0  0  0  0
  5  1  1  0  0  0  0
  5  9  1  0  0  0  0
  6  2  1  0  0  0  0
  6 26  1  0  0  0  0
  6 27  1  0  0  0  0
  7  8  1  0  0  0  0
  7 28  1  0  0  0  0
  7 29  1  0  0  0  0
  8 30  1  0  0  0  0
  8 31  1  0  0  0  0
  9 32  1  0  0  0  0
  9 33  1  0  0  0  0
  9 34  1  0  0  0  0
 12 13  1  0  0  0  0
 13 14  1  0  0  0  0
 13 15  2  0  0  0  0
 14 16  1  0  0  0  0
 14 17  1  0  0  0  0
 14 35  1  0  0  0  0
 16 18  1  0  0  0  0
 16 22  2  0  0  0  0
 17 36  1  0  0  0  0
 18 19  2  0  0  0  0
 18 37  1  0  0  0  0
 19 20  1  0  0  0  0
 19 38  1  0  0  0  0
 20 21  2  0  0  0  0
 20 39  1  0  0  0  0
 21 22  1  0  0  0  0
 21 40  1  0  0  0  0
 22 41  1  0  0  0  0
M  END
>  <DRUGBANK_ID>
DB11181

>  <COMMON_NAME>
Homatropine

>  <CAS_NUMBER>
87-00-3

>  <UNII>
8QS6WCL55Z

>  <SYNONYMS>
Homatropina; Omatropina

$$$$
