
 OpenBabel10282417072D

 52 55  0  0  0  0  0  0  0  0999 V2000
    1.8128    1.2487    0.0000 O   0  0  0  0  0  0  0  0  0  0  0  0
    1.0983    0.8373    0.0000 C   0  0  1  0  0  0  0  0  0  0  0  0
    1.0983    1.6623    0.0000 C   0  0  0  0  0  0  0  0  0  0  0  0
    0.3860    0.4216    0.0000 C   0  0  2  0  0  0  0  0  0  0  0  0
    1.8108    0.4216    0.0000 C   0  0  0  0  0  0  0  0  0  0  0  0
    1.8128    2.0739    0.0000 C   0  0  0  0  0  0  0  0  0  0  0  0
    0.3839    2.0739    0.0000 O   0  0  0  0  0  0  0  0  0  0  0  0
    0.3860    1.2466    0.0000 C   0  0  0  0  0  0  0  0  0  0  0  0
    0.3860   -0.4114    0.0000 C   0  0  1  0  0  0  0  0  0  0  0  0
   -0.3263    0.8373    0.0000 C   0  0  0  0  0  0  0  0  0  0  0  0
    2.5275    0.8332    0.0000 C   0  0  0  0  0  0  0  0  0  0  0  0
    1.8108   -0.4114    0.0000 C   0  0  0  0  0  0  0  0  0  0  0  0
   -0.3263   -0.8271    0.0000 C   0  0  1  0  0  0  0  0  0  0  0  0
   -1.0389    0.4216    0.0000 C   0  0  0  0  0  0  0  0  0  0  0  0
   -1.0389   -0.4114    0.0000 C   0  0  2  0  0  0  0  0  0  0  0  0
   -0.3263   -1.6583    0.0000 C   0  0  0  0  0  0  0  0  0  0  0  0
   -1.7516   -0.8271    0.0000 C   0  0  2  0  0  0  0  0  0  0  0  0
   -1.0389   -2.0739    0.0000 C   0  0  0  0  0  0  0  0  0  0  0  0
   -1.7516   -1.6583    0.0000 C   0  0  0  0  0  0  0  0  0  0  0  0
   -2.4639   -0.4114    0.0000 C   0  0  0  0  0  0  0  0  0  0  0  0
   -2.4639   -2.0739    0.0000 C   0  0  0  0  0  0  0  0  0  0  0  0
   -3.1766   -0.8271    0.0000 C   0  0  0  0  0  0  0  0  0  0  0  0
   -3.1766   -1.6583    0.0000 C   0  0  0  0  0  0  0  0  0  0  0  0
   -3.8931   -2.0698    0.0000 O   0  0  0  0  0  0  0  0  0  0  0  0
   -0.3263   -0.0019    0.0000 H   0  0  0  0  0  0  0  0  0  0  0  0
   -1.0389   -1.2365    0.0000 H   0  0  0  0  0  0  0  0  0  0  0  0
    0.3860   -1.2365    0.0000 H   0  0  0  0  0  0  0  0  0  0  0  0
   -1.7516   -0.0019    0.0000 H   0  0  0  0  0  0  0  0  0  0  0  0
    2.6523    0.7627    0.0000 H   0  0  0  0  0  0  0  0  0  0  0  0
    2.7389    1.5380    0.0000 H   0  0  0  0  0  0  0  0  0  0  0  0
    1.8138    3.1439    0.0000 H   0  0  0  0  0  0  0  0  0  0  0  0
    2.7400    2.6080    0.0000 H   0  0  0  0  0  0  0  0  0  0  0  0
    1.3126    1.7816    0.0000 H   0  0  0  0  0  0  0  0  0  0  0  0
   -0.5406    1.7816    0.0000 H   0  0  0  0  0  0  0  0  0  0  0  0
    0.3860    2.3166    0.0000 H   0  0  0  0  0  0  0  0  0  0  0  0
   -0.3262    1.9073    0.0000 H   0  0  0  0  0  0  0  0  0  0  0  0
   -1.2541    1.3703    0.0000 H   0  0  0  0  0  0  0  0  0  0  0  0
    3.4201    0.3152    0.0000 H   0  0  0  0  0  0  0  0  0  0  0  0
    2.5299    1.8652    0.0000 H   0  0  0  0  0  0  0  0  0  0  0  0
    2.5674   -1.1680    0.0000 H   0  0  0  0  0  0  0  0  0  0  0  0
    1.4013   -1.4000    0.0000 H   0  0  0  0  0  0  0  0  0  0  0  0
   -1.9667    0.9545    0.0000 H   0  0  0  0  0  0  0  0  0  0  0  0
   -1.9649   -0.1144    0.0000 H   0  0  0  0  0  0  0  0  0  0  0  0
    0.6015   -2.1913    0.0000 H   0  0  0  0  0  0  0  0  0  0  0  0
   -0.3228   -2.7283    0.0000 H   0  0  0  0  0  0  0  0  0  0  0  0
   -1.0389   -3.1439    0.0000 H   0  0  0  0  0  0  0  0  0  0  0  0
   -1.9667   -2.6069    0.0000 H   0  0  0  0  0  0  0  0  0  0  0  0
   -2.4638    0.6586    0.0000 H   0  0  0  0  0  0  0  0  0  0  0  0
   -3.3917    0.1216    0.0000 H   0  0  0  0  0  0  0  0  0  0  0  0
   -2.4638   -3.1059    0.0000 H   0  0  0  0  0  0  0  0  0  0  0  0
   -4.1044   -0.2942    0.0000 H   0  0  0  0  0  0  0  0  0  0  0  0
   -4.1027   -1.3631    0.0000 H   0  0  0  0  0  0  0  0  0  0  0  0
  1 29  1  0  0  0  0
  2  1  1  6  0  0  0
  2  3  1  0  0  0  0
  2  5  1  0  0  0  0
  3  6  1  0  0  0  0
  3  7  2  0  0  0  0
  4  2  1  0  0  0  0
  4  8  1  1  0  0  0
  4 10  1  0  0  0  0
  5 11  2  0  0  0  0
  5 12  1  0  0  0  0
  6 30  1  0  0  0  0
  6 31  1  0  0  0  0
  6 32  1  0  0  0  0
  8 33  1  0  0  0  0
  8 34  1  0  0  0  0
  8 35  1  0  0  0  0
  9  4  1  0  0  0  0
  9 12  1  0  0  0  0
  9 13  1  0  0  0  0
  9 27  1  6  0  0  0
 10 14  1  0  0  0  0
 10 36  1  0  0  0  0
 10 37  1  0  0  0  0
 11 38  1  0  0  0  0
 11 39  1  0  0  0  0
 12 40  1  0  0  0  0
 12 41  1  0  0  0  0
 13 15  1  0  0  0  0
 13 16  1  0  0  0  0
 13 25  1  1  0  0  0
 14 42  1  0  0  0  0
 14 43  1  0  0  0  0
 15 14  1  0  0  0  0
 15 17  1  0  0  0  0
 15 26  1  6  0  0  0
 16 18  1  0  0  0  0
 16 44  1  0  0  0  0
 16 45  1  0  0  0  0
 17 19  1  0  0  0  0
 17 20  1  0  0  0  0
 17 28  1  1  0  0  0
 18 19  1  0  0  0  0
 18 46  1  0  0  0  0
 18 47  1  0  0  0  0
 19 21  2  0  0  0  0
 20 22  1  0  0  0  0
 20 48  1  0  0  0  0
 20 49  1  0  0  0  0
 21 23  1  0  0  0  0
 21 50  1  0  0  0  0
 22 23  1  0  0  0  0
 22 51  1  0  0  0  0
 22 52  1  0  0  0  0
 23 24  2  0  0  0  0
M  END
>  <DRUGBANK_ID>
DB14584

>  <COMMON_NAME>
Segesterone

>  <CAS_NUMBER>
7690-08-6

>  <UNII>
09Q5UV3747

>  <SYNONYMS>
17-Hydroxy-16-methylene-19-norpregn-4-ene-3,20-dione; 17alpha-Deacetyl-Nestorone; Nestorone alcohol; Segesterone

$$$$
