8CA
 OpenBabel10282417072D

 42 45  0  0  0  0  0  0  0  0999 V2000
   -1.4057   -1.3891    0.0000 O   0  0  0  0  0  0  0  0  0  0  0  0
   -1.9577   -0.7760    0.0000 C   0  0  0  0  0  0  0  0  0  0  0  0
   -2.7647   -0.9476    0.0000 O   0  0  0  0  0  0  0  0  0  0  0  0
   -1.7027    0.0086    0.0000 C   0  0  0  0  0  0  0  0  0  0  0  0
   -2.2548    0.6217    0.0000 C   0  0  0  0  0  0  0  0  0  0  0  0
   -1.9998    1.4063    0.0000 C   0  0  0  0  0  0  0  0  0  0  0  0
   -1.1929    1.5778    0.0000 C   0  0  0  0  0  0  0  0  0  0  0  0
   -0.6408    0.9647    0.0000 C   0  0  0  0  0  0  0  0  0  0  0  0
    0.1842    0.9647    0.0000 C   0  0  0  0  0  0  0  0  0  0  0  0
    0.7362    1.5778    0.0000 C   0  0  0  0  0  0  0  0  0  0  0  0
    1.5432    1.4063    0.0000 C   0  0  0  0  0  0  0  0  0  0  0  0
    1.7981    0.6217    0.0000 C   0  0  0  0  0  0  0  0  0  0  0  0
    1.2461    0.0086    0.0000 C   0  0  0  0  0  0  0  0  0  0  0  0
    0.4391    0.1801    0.0000 C   0  0  0  0  0  0  0  0  0  0  0  0
   -0.2283   -0.3048    0.0000 N   0  0  0  0  0  0  0  0  0  0  0  0
   -0.8958    0.1801    0.0000 C   0  0  0  0  0  0  0  0  0  0  0  0
   -0.2283   -1.1298    0.0000 C   0  0  0  0  0  0  0  0  0  0  0  0
    0.4861   -1.5423    0.0000 C   0  0  0  0  0  0  0  0  0  0  0  0
    1.2006   -1.1298    0.0000 C   0  0  0  0  0  0  0  0  0  0  0  0
    1.9151   -1.5423    0.0000 C   0  0  0  0  0  0  0  0  0  0  0  0
    1.9151   -2.3673    0.0000 C   0  0  0  0  0  0  0  0  0  0  0  0
    1.2006   -2.7798    0.0000 C   0  0  0  0  0  0  0  0  0  0  0  0
    0.4861   -2.3673    0.0000 C   0  0  0  0  0  0  0  0  0  0  0  0
   -3.3917   -0.2513    0.0000 H   0  0  0  0  0  0  0  0  0  0  0  0
   -3.2643    0.4071    0.0000 H   0  0  0  0  0  0  0  0  0  0  0  0
   -2.6903    2.1733    0.0000 H   0  0  0  0  0  0  0  0  0  0  0  0
   -0.8740    2.5593    0.0000 H   0  0  0  0  0  0  0  0  0  0  0  0
    0.4055    2.5954    0.0000 H   0  0  0  0  0  0  0  0  0  0  0  0
    1.4521    2.3730    0.0000 H   0  0  0  0  0  0  0  0  0  0  0  0
    2.2592    2.2015    0.0000 H   0  0  0  0  0  0  0  0  0  0  0  0
    2.5898    1.1838    0.0000 H   0  0  0  0  0  0  0  0  0  0  0  0
    2.8447    0.3992    0.0000 H   0  0  0  0  0  0  0  0  0  0  0  0
    2.1288   -0.3959    0.0000 H   0  0  0  0  0  0  0  0  0  0  0  0
    1.5768   -1.0090    0.0000 H   0  0  0  0  0  0  0  0  0  0  0  0
    0.5302   -0.7866    0.0000 H   0  0  0  0  0  0  0  0  0  0  0  0
   -1.1550   -1.6648    0.0000 H   0  0  0  0  0  0  0  0  0  0  0  0
   -0.2283   -2.1998    0.0000 H   0  0  0  0  0  0  0  0  0  0  0  0
    1.2006   -0.0978    0.0000 H   0  0  0  0  0  0  0  0  0  0  0  0
    2.8088   -1.0263    0.0000 H   0  0  0  0  0  0  0  0  0  0  0  0
    2.8088   -2.8833    0.0000 H   0  0  0  0  0  0  0  0  0  0  0  0
    1.2006   -3.8118    0.0000 H   0  0  0  0  0  0  0  0  0  0  0  0
   -0.4076   -2.8833    0.0000 H   0  0  0  0  0  0  0  0  0  0  0  0
  1  2  2  0  0  0  0
  2  4  1  0  0  0  0
  3  2  1  0  0  0  0
  3 24  1  0  0  0  0
  4  5  1  0  0  0  0
  5  6  2  0  0  0  0
  5 25  1  0  0  0  0
  6 26  1  0  0  0  0
  7  6  1  0  0  0  0
  7 27  1  0  0  0  0
  8  7  2  0  0  0  0
  9  8  1  0  0  0  0
  9 10  1  0  0  0  0
 10 28  1  0  0  0  0
 10 29  1  0  0  0  0
 11 10  1  0  0  0  0
 11 30  1  0  0  0  0
 11 31  1  0  0  0  0
 12 11  1  0  0  0  0
 12 32  1  0  0  0  0
 12 33  1  0  0  0  0
 13 12  1  0  0  0  0
 13 14  1  0  0  0  0
 13 34  1  0  0  0  0
 13 35  1  0  0  0  0
 14  9  2  0  0  0  0
 15 14  1  0  0  0  0
 15 16  1  0  0  0  0
 16  4  2  0  0  0  0
 16  8  1  0  0  0  0
 17 15  1  0  0  0  0
 17 36  1  0  0  0  0
 17 37  1  0  0  0  0
 18 17  1  0  0  0  0
 18 19  1  0  0  0  0
 19 38  1  0  0  0  0
 20 19  2  0  0  0  0
 20 39  1  0  0  0  0
 21 20  1  0  0  0  0
 21 40  1  0  0  0  0
 22 21  2  0  0  0  0
 22 23  1  0  0  0  0
 22 41  1  0  0  0  0
 23 18  2  0  0  0  0
 23 42  1  0  0  0  0
M  END
>  <DRUGBANK_ID>
DB07283

>  <COMMON_NAME>
9-benzyl-2,3,4,9-tetrahydro-1H-carbazole-8-carboxylic acid

$$$$
