
 OpenBabel10282417072D

 54 57  0  0  1  0  0  0  0  0999 V2000
   -2.3119   -5.4102    0.0000 C   0  0  0  0  0  0  0  0  0  0  0  0
   -2.9793   -6.7201    0.0000 C   0  0  0  0  0  0  0  0  0  0  0  0
   -0.5683   -1.4940    0.0000 C   0  0  0  0  0  0  0  0  0  0  0  0
   -4.2489   -6.3076    0.0000 C   0  0  0  0  0  0  0  0  0  0  0  0
    3.3523    1.1104    0.0000 C   0  0  0  0  0  0  0  0  0  0  0  0
    0.6538    1.5229    0.0000 C   0  0  0  0  0  0  0  0  0  0  0  0
   -2.9793   -5.8951    0.0000 C   0  0  0  0  0  0  0  0  0  0  0  0
   -2.3981   -4.5897    0.0000 C   0  0  1  0  0  0  0  0  0  0  0  0
    0.0992   -1.0091    0.0000 C   0  0  2  0  0  0  0  0  0  0  0  0
    1.9233    1.9354    0.0000 C   0  0  0  0  0  0  0  0  0  0  0  0
    0.8838   -1.2640    0.0000 C   0  0  2  0  0  0  0  0  0  0  0  0
    1.3687   -0.5966    0.0000 C   0  0  2  0  0  0  0  0  0  0  0  0
    2.6378    2.3479    0.0000 C   0  0  0  0  0  0  0  0  0  0  0  0
    1.9233    1.1104    0.0000 C   0  0  0  0  0  0  0  0  0  0  0  0
    0.8838    0.0709    0.0000 C   0  0  2  0  0  0  0  0  0  0  0  0
   -1.7307   -4.1048    0.0000 C   0  0  0  0  0  0  0  0  0  0  0  0
   -3.1518   -4.2542    0.0000 N   0  0  0  0  0  0  0  0  0  0  0  0
    2.6378    3.1729    0.0000 N   0  0  0  0  0  0  0  0  0  0  0  0
   -3.7639   -6.9751    0.0000 N   0  0  0  0  0  0  0  0  0  0  0  0
   -3.7639   -5.6402    0.0000 N   0  0  0  0  0  0  0  0  0  0  0  0
    3.3523    1.9354    0.0000 N   0  0  0  0  0  0  0  0  0  0  0  0
    2.6378    0.6979    0.0000 N   0  0  0  0  0  0  0  0  0  0  0  0
    1.1387    2.1904    0.0000 N   0  0  0  0  0  0  0  0  0  0  0  0
    1.1387    0.8555    0.0000 N   0  0  0  0  0  0  0  0  0  0  0  0
    1.1387   -2.0486    0.0000 O   0  0  0  0  0  0  0  0  0  0  0  0
    2.1937   -0.5966    0.0000 O   0  0  0  0  0  0  0  0  0  0  0  0
   -0.9770   -4.4403    0.0000 O   0  0  0  0  0  0  0  0  0  0  0  0
   -0.6646   -3.4668    0.0000 O   0  0  0  0  0  0  0  0  0  0  0  0
   -1.6344   -2.1319    0.0000 O   0  0  0  0  0  0  0  0  0  0  0  0
   -0.4820   -2.3145    0.0000 O   0  0  0  0  0  0  0  0  0  0  0  0
    0.0992   -0.1841    0.0000 O   0  0  0  0  0  0  0  0  0  0  0  0
   -1.8169   -3.2843    0.0000 O   0  0  0  0  0  0  0  0  0  0  0  0
   -1.1495   -2.7994    0.0000 P   0  0  3  0  0  0  0  0  0  0  0  0
   -1.6444   -4.9253    0.0000 H   0  0  0  0  0  0  0  0  0  0  0  0
    0.4991   -1.7306    0.0000 H   0  0  0  0  0  0  0  0  0  0  0  0
    0.5351   -2.0117    0.0000 H   0  0  0  0  0  0  0  0  0  0  0  0
    1.7432   -1.3316    0.0000 H   0  0  0  0  0  0  0  0  0  0  0  0
    1.6986    0.1999    0.0000 H   0  0  0  0  0  0  0  0  0  0  0  0
   -1.3344   -5.8454    0.0000 H   0  0  0  0  0  0  0  0  0  0  0  0
   -1.4462   -4.7813    0.0000 H   0  0  0  0  0  0  0  0  0  0  0  0
   -2.1444   -7.3267    0.0000 H   0  0  0  0  0  0  0  0  0  0  0  0
   -1.5458   -1.0588    0.0000 H   0  0  0  0  0  0  0  0  0  0  0  0
   -1.4339   -2.1230    0.0000 H   0  0  0  0  0  0  0  0  0  0  0  0
   -5.2809   -6.3076    0.0000 H   0  0  0  0  0  0  0  0  0  0  0  0
    4.2460    0.5944    0.0000 H   0  0  0  0  0  0  0  0  0  0  0  0
   -0.3782    1.5229    0.0000 H   0  0  0  0  0  0  0  0  0  0  0  0
   -3.2585   -3.2398    0.0000 H   0  0  0  0  0  0  0  0  0  0  0  0
   -3.9770   -4.8538    0.0000 H   0  0  0  0  0  0  0  0  0  0  0  0
    3.4904    3.6651    0.0000 H   0  0  0  0  0  0  0  0  0  0  0  0
    1.7852    3.6651    0.0000 H   0  0  0  0  0  0  0  0  0  0  0  0
   -4.0681   -4.7039    0.0000 H   0  0  0  0  0  0  0  0  0  0  0  0
    0.4896   -2.7694    0.0000 H   0  0  0  0  0  0  0  0  0  0  0  0
    2.6787   -1.4366    0.0000 H   0  0  0  0  0  0  0  0  0  0  0  0
   -1.0591   -4.3529    0.0000 H   0  0  0  0  0  0  0  0  0  0  0  0
  1 39  1  0  0  0  0
  1 40  1  0  0  0  0
  2 41  1  0  0  0  0
  3 42  1  0  0  0  0
  3 43  1  0  0  0  0
  4 44  1  0  0  0  0
  5 45  1  0  0  0  0
  6 46  1  0  0  0  0
  7  1  1  0  0  0  0
  7  2  2  0  0  0  0
  8  1  1  0  0  0  0
  8 17  1  0  0  0  0
  8 34  1  1  0  0  0
  9  3  1  0  0  0  0
  9 35  1  6  0  0  0
 11  9  1  0  0  0  0
 11 25  1  0  0  0  0
 11 36  1  1  0  0  0
 12 11  1  0  0  0  0
 12 26  1  0  0  0  0
 12 37  1  1  0  0  0
 13 10  2  0  0  0  0
 14 10  1  0  0  0  0
 15 12  1  0  0  0  0
 15 24  1  0  0  0  0
 15 38  1  6  0  0  0
 16  8  1  0  0  0  0
 17 47  1  0  0  0  0
 17 48  1  0  0  0  0
 18 13  1  0  0  0  0
 18 49  1  0  0  0  0
 18 50  1  0  0  0  0
 19  2  1  0  0  0  0
 19  4  2  0  0  0  0
 20  4  1  0  0  0  0
 20  7  1  0  0  0  0
 20 51  1  0  0  0  0
 21  5  2  0  0  0  0
 21 13  1  0  0  0  0
 22  5  1  0  0  0  0
 22 14  2  0  0  0  0
 23  6  2  0  0  0  0
 23 10  1  0  0  0  0
 24  6  1  0  0  0  0
 24 14  1  0  0  0  0
 25 52  1  0  0  0  0
 26 53  1  0  0  0  0
 27 16  2  0  0  0  0
 28 54  1  0  0  0  0
 30  3  1  0  0  0  0
 31  9  1  0  0  0  0
 31 15  1  0  0  0  0
 32 16  1  0  0  0  0
 33 28  1  0  0  0  0
 33 29  2  0  0  0  0
 33 30  1  0  0  0  0
 33 32  1  0  0  0  0
M  END
>  <DRUGBANK_ID>
DB04201

>  <SECONDARY_ACCESSION_NUMBERS>
EXPT01691

>  <COMMON_NAME>
Histidyl-Adenosine Monophosphate

$$$$
