
 OpenBabel10282417072D

 31 32  0  0  0  0  0  0  0  0999 V2000
    0.9427    1.3294    0.0000 O   0  0  0  0  0  0  0  0  0  0  0  0
   -0.3922    1.3294    0.0000 O   0  0  0  0  0  0  0  0  0  0  0  0
    0.8370    3.5352    0.0000 O   0  0  0  0  0  0  0  0  0  0  0  0
    0.2752   -2.4557    0.0000 N   0  0  0  0  0  0  0  0  0  0  0  0
   -0.4392   -3.6933    0.0000 N   0  0  0  0  0  0  0  0  0  0  0  0
   -1.1538   -2.4557    0.0000 N   0  0  0  0  0  0  0  0  0  0  0  0
    0.6877    2.1140    0.0000 C   0  0  1  0  0  0  0  0  0  0  0  0
   -0.1372    2.1140    0.0000 C   0  0  0  0  0  0  0  0  0  0  0  0
    1.1727    2.7815    0.0000 C   0  0  0  0  0  0  0  0  0  0  0  0
    0.2752    0.0193    0.0000 C   0  0  0  0  0  0  0  0  0  0  0  0
    0.9897   -0.3931    0.0000 C   0  0  0  0  0  0  0  0  0  0  0  0
   -0.4392   -0.3931    0.0000 C   0  0  0  0  0  0  0  0  0  0  0  0
    0.9897   -1.2181    0.0000 C   0  0  0  0  0  0  0  0  0  0  0  0
   -0.4392   -1.2181    0.0000 C   0  0  0  0  0  0  0  0  0  0  0  0
    0.2752   -1.6307    0.0000 C   0  0  0  0  0  0  0  0  0  0  0  0
   -0.4392   -2.8682    0.0000 C   0  0  0  0  0  0  0  0  0  0  0  0
    0.2752    0.8444    0.0000 B   0  0  0  0  0  0  0  0  0  0  0  0
    1.4070    4.3200    0.0000 H   0  0  0  0  0  0  0  0  0  0  0  0
   -1.2918   -4.1856    0.0000 H   0  0  0  0  0  0  0  0  0  0  0  0
    0.4134   -4.1855    0.0000 H   0  0  0  0  0  0  0  0  0  0  0  0
   -1.1539   -1.4712    0.0000 H   0  0  0  0  0  0  0  0  0  0  0  0
   -2.0064   -2.9480    0.0000 H   0  0  0  0  0  0  0  0  0  0  0  0
    1.7445    1.9466    0.0000 H   0  0  0  0  0  0  0  0  0  0  0  0
   -0.7661    2.9797    0.0000 H   0  0  0  0  0  0  0  0  0  0  0  0
    0.3486    3.0674    0.0000 H   0  0  0  0  0  0  0  0  0  0  0  0
    2.2368    2.6697    0.0000 H   0  0  0  0  0  0  0  0  0  0  0  0
    1.6079    1.8040    0.0000 H   0  0  0  0  0  0  0  0  0  0  0  0
    1.8834    0.1230    0.0000 H   0  0  0  0  0  0  0  0  0  0  0  0
   -1.3329    0.1229    0.0000 H   0  0  0  0  0  0  0  0  0  0  0  0
    1.8835   -1.7341    0.0000 H   0  0  0  0  0  0  0  0  0  0  0  0
   -1.3330   -1.7340    0.0000 H   0  0  0  0  0  0  0  0  0  0  0  0
  1  7  1  0  0  0  0
  1 17  1  0  0  0  0
  2  8  1  0  0  0  0
  2 17  1  0  0  0  0
  3  9  1  0  0  0  0
  3 18  1  0  0  0  0
  4 15  1  0  0  0  0
  4 16  2  0  0  0  0
  5 16  1  0  0  0  0
  5 19  1  0  0  0  0
  5 20  1  0  0  0  0
  6 16  1  0  0  0  0
  6 21  1  0  0  0  0
  6 22  1  0  0  0  0
  7  8  1  0  0  0  0
  7  9  1  0  0  0  0
  7 23  1  6  0  0  0
  8 24  1  0  0  0  0
  8 25  1  0  0  0  0
  9 26  1  0  0  0  0
  9 27  1  0  0  0  0
 10 11  2  0  0  0  0
 10 12  1  0  0  0  0
 10 17  1  0  0  0  0
 11 13  1  0  0  0  0
 11 28  1  0  0  0  0
 12 14  2  0  0  0  0
 12 29  1  0  0  0  0
 13 15  2  0  0  0  0
 13 30  1  0  0  0  0
 14 15  1  0  0  0  0
 14 31  1  0  0  0  0
M  END
>  <DRUGBANK_ID>
DB07077

>  <COMMON_NAME>
(R)-1-(4-(4-(Hydroxymethyl)-1,3,2-dioxaborolan-2-YL)phenyl)guanidine

$$$$
