
 OpenBabel10282417072D

 77 81  0  0  0  0  0  0  0  0999 V2000
   -4.7534    3.5889    0.0000 C   0  0  0  0  0  0  0  0  0  0  0  0
   -4.3409    2.8744    0.0000 N   0  3  0  0  0  0  0  0  0  0  0  0
   -5.0554    2.4619    0.0000 C   0  0  0  0  0  0  0  0  0  0  0  0
   -3.6265    3.2869    0.0000 C   0  0  0  0  0  0  0  0  0  0  0  0
   -3.9284    2.1599    0.0000 C   0  0  0  0  0  0  0  0  0  0  0  0
   -3.1034    2.1599    0.0000 C   0  0  0  0  0  0  0  0  0  0  0  0
   -2.6909    1.4455    0.0000 C   0  0  0  0  0  0  0  0  0  0  0  0
   -3.1034    0.7310    0.0000 C   0  0  0  0  0  0  0  0  0  0  0  0
   -2.6909    0.0165    0.0000 C   0  0  0  0  0  0  0  0  0  0  0  0
   -1.8659    0.0165    0.0000 N   0  0  0  0  0  0  0  0  0  0  0  0
   -1.4534   -0.6979    0.0000 C   0  0  0  0  0  0  0  0  0  0  0  0
   -1.8659   -1.4124    0.0000 O   0  0  0  0  0  0  0  0  0  0  0  0
   -0.6284   -0.6979    0.0000 C   0  0  0  0  0  0  0  0  0  0  0  0
   -0.1435   -1.3654    0.0000 C   0  0  0  0  0  0  0  0  0  0  0  0
    0.6411   -1.1104    0.0000 C   0  0  0  0  0  0  0  0  0  0  0  0
    0.6411   -0.2854    0.0000 C   0  0  0  0  0  0  0  0  0  0  0  0
    1.3556    0.1271    0.0000 C   0  0  0  0  0  0  0  0  0  0  0  0
    2.0701   -0.2854    0.0000 C   0  0  0  0  0  0  0  0  0  0  0  0
    2.0701   -1.1104    0.0000 C   0  0  0  0  0  0  0  0  0  0  0  0
    2.7845   -1.5229    0.0000 O   0  0  0  0  0  0  0  0  0  0  0  0
    2.7845   -2.3479    0.0000 C   0  0  0  0  0  0  0  0  0  0  0  0
    2.0701   -2.7604    0.0000 C   0  0  0  0  0  0  0  0  0  0  0  0
    2.0701   -3.5854    0.0000 C   0  0  0  0  0  0  0  0  0  0  0  0
    1.3556   -3.9979    0.0000 C   0  0  0  0  0  0  0  0  0  0  0  0
    0.6411   -3.5854    0.0000 C   0  0  0  0  0  0  0  0  0  0  0  0
    0.6411   -2.7604    0.0000 C   0  0  0  0  0  0  0  0  0  0  0  0
    1.3556   -2.3479    0.0000 C   0  0  0  0  0  0  0  0  0  0  0  0
    1.3556   -1.5229    0.0000 C   0  0  0  0  0  0  0  0  0  0  0  0
   -0.1435   -0.0305    0.0000 N   0  0  0  0  0  0  0  0  0  0  0  0
   -0.3984    0.7541    0.0000 C   0  0  0  0  0  0  0  0  0  0  0  0
    0.1536    1.3672    0.0000 C   0  0  0  0  0  0  0  0  0  0  0  0
   -0.1014    2.1518    0.0000 C   0  0  0  0  0  0  0  0  0  0  0  0
    0.4507    2.7649    0.0000 C   0  0  0  0  0  0  0  0  0  0  0  0
    1.2577    2.5934    0.0000 C   0  0  0  0  0  0  0  0  0  0  0  0
    1.5126    1.8088    0.0000 C   0  0  0  0  0  0  0  0  0  0  0  0
    0.9606    1.1957    0.0000 C   0  0  0  0  0  0  0  0  0  0  0  0
    2.3196    1.6373    0.0000 C   0  0  0  0  0  0  0  0  0  0  0  0
    2.5745    0.8526    0.0000 N   0  0  0  0  0  0  0  0  0  0  0  0
    2.8716    2.2503    0.0000 N   0  0  0  0  0  0  0  0  0  0  0  0
   -3.9284    0.7310    0.0000 C   0  0  0  0  0  0  0  0  0  0  0  0
   -4.3409    1.4455    0.0000 C   0  0  0  0  0  0  0  0  0  0  0  0
   -4.2184    4.5155    0.0000 H   0  0  0  0  0  0  0  0  0  0  0  0
   -5.8234    3.5889    0.0000 H   0  0  0  0  0  0  0  0  0  0  0  0
   -5.2884    4.5156    0.0000 H   0  0  0  0  0  0  0  0  0  0  0  0
   -5.9820    2.9969    0.0000 H   0  0  0  0  0  0  0  0  0  0  0  0
   -5.0554    1.3919    0.0000 H   0  0  0  0  0  0  0  0  0  0  0  0
   -5.9821    1.9269    0.0000 H   0  0  0  0  0  0  0  0  0  0  0  0
   -2.6998    2.7519    0.0000 H   0  0  0  0  0  0  0  0  0  0  0  0
   -3.6265    4.3569    0.0000 H   0  0  0  0  0  0  0  0  0  0  0  0
   -2.6999    3.8219    0.0000 H   0  0  0  0  0  0  0  0  0  0  0  0
   -2.5874    3.0536    0.0000 H   0  0  0  0  0  0  0  0  0  0  0  0
   -1.6589    1.4455    0.0000 H   0  0  0  0  0  0  0  0  0  0  0  0
   -3.2259   -0.9101    0.0000 H   0  0  0  0  0  0  0  0  0  0  0  0
   -2.1559   -0.9101    0.0000 H   0  0  0  0  0  0  0  0  0  0  0  0
   -1.3737    0.8691    0.0000 H   0  0  0  0  0  0  0  0  0  0  0  0
   -0.4624   -2.3469    0.0000 H   0  0  0  0  0  0  0  0  0  0  0  0
    1.3556    1.1591    0.0000 H   0  0  0  0  0  0  0  0  0  0  0  0
    2.9638    0.2306    0.0000 H   0  0  0  0  0  0  0  0  0  0  0  0
    3.7112   -2.8829    0.0000 H   0  0  0  0  0  0  0  0  0  0  0  0
    2.7845   -3.4179    0.0000 H   0  0  0  0  0  0  0  0  0  0  0  0
    2.9638   -4.1014    0.0000 H   0  0  0  0  0  0  0  0  0  0  0  0
    1.3556   -5.0299    0.0000 H   0  0  0  0  0  0  0  0  0  0  0  0
   -0.2526   -4.1014    0.0000 H   0  0  0  0  0  0  0  0  0  0  0  0
   -0.2526   -2.2444    0.0000 H   0  0  0  0  0  0  0  0  0  0  0  0
    1.3556   -1.3159    0.0000 H   0  0  0  0  0  0  0  0  0  0  0  0
    1.3556   -2.5549    0.0000 H   0  0  0  0  0  0  0  0  0  0  0  0
   -1.4450    0.9766    0.0000 H   0  0  0  0  0  0  0  0  0  0  0  0
   -0.7291    1.7717    0.0000 H   0  0  0  0  0  0  0  0  0  0  0  0
   -1.1109    2.3664    0.0000 H   0  0  0  0  0  0  0  0  0  0  0  0
    0.1318    3.7464    0.0000 H   0  0  0  0  0  0  0  0  0  0  0  0
    1.9482    3.3603    0.0000 H   0  0  0  0  0  0  0  0  0  0  0  0
    1.2795    0.2142    0.0000 H   0  0  0  0  0  0  0  0  0  0  0  0
    1.9157    0.1210    0.0000 H   0  0  0  0  0  0  0  0  0  0  0  0
    3.5375    0.6478    0.0000 H   0  0  0  0  0  0  0  0  0  0  0  0
    3.8346    2.0456    0.0000 H   0  0  0  0  0  0  0  0  0  0  0  0
   -4.4444   -0.1627    0.0000 H   0  0  0  0  0  0  0  0  0  0  0  0
   -5.3729    1.4455    0.0000 H   0  0  0  0  0  0  0  0  0  0  0  0
  1  2  1  0  0  0  0
  1 42  1  0  0  0  0
  1 43  1  0  0  0  0
  1 44  1  0  0  0  0
  2  3  1  0  0  0  0
  2  4  1  0  0  0  0
  2  5  1  0  0  0  0
  3 45  1  0  0  0  0
  3 46  1  0  0  0  0
  3 47  1  0  0  0  0
  4 48  1  0  0  0  0
  4 49  1  0  0  0  0
  4 50  1  0  0  0  0
  5  6  2  0  0  0  0
  5 41  1  0  0  0  0
  6  7  1  0  0  0  0
  6 51  1  0  0  0  0
  7  8  2  0  0  0  0
  7 52  1  0  0  0  0
  8  9  1  0  0  0  0
  8 40  1  0  0  0  0
  9 10  1  0  0  0  0
  9 53  1  0  0  0  0
  9 54  1  0  0  0  0
 10 11  1  0  0  0  0
 10 55  1  0  0  0  0
 11 12  2  0  0  0  0
 11 13  1  0  0  0  0
 13 14  2  0  0  0  0
 13 29  1  0  0  0  0
 14 15  1  0  0  0  0
 14 56  1  0  0  0  0
 15 16  2  0  0  0  0
 15 28  1  0  0  0  0
 16 17  1  0  0  0  0
 16 29  1  0  0  0  0
 17 18  2  0  0  0  0
 17 57  1  0  0  0  0
 18 19  1  0  0  0  0
 18 58  1  0  0  0  0
 19 20  1  0  0  0  0
 19 28  2  0  0  0  0
 20 21  1  0  0  0  0
 21 22  1  0  0  0  0
 21 59  1  0  0  0  0
 21 60  1  0  0  0  0
 22 23  2  0  0  0  0
 22 27  1  0  0  0  0
 23 24  1  0  0  0  0
 23 61  1  0  0  0  0
 24 25  2  0  0  0  0
 24 62  1  0  0  0  0
 25 26  1  0  0  0  0
 25 63  1  0  0  0  0
 26 27  2  0  0  0  0
 26 64  1  0  0  0  0
 27 65  1  0  0  0  0
 28 66  1  0  0  0  0
 29 30  1  0  0  0  0
 30 31  1  0  0  0  0
 30 67  1  0  0  0  0
 30 68  1  0  0  0  0
 31 32  2  0  0  0  0
 31 36  1  0  0  0  0
 32 33  1  0  0  0  0
 32 69  1  0  0  0  0
 33 34  2  0  0  0  0
 33 70  1  0  0  0  0
 34 35  1  0  0  0  0
 34 71  1  0  0  0  0
 35 36  2  0  0  0  0
 35 37  1  0  0  0  0
 36 72  1  0  0  0  0
 37 38  1  0  0  0  0
 37 39  2  0  0  0  0
 38 73  1  0  0  0  0
 38 74  1  0  0  0  0
 39 75  1  0  0  0  0
 40 41  2  0  0  0  0
 40 76  1  0  0  0  0
 41 77  1  0  0  0  0
M  CHG  1   2   1
M  END
>  <DRUGBANK_ID>
DB02269

>  <SECONDARY_ACCESSION_NUMBERS>
EXPT01864

>  <COMMON_NAME>
[4-({[5-Benzyloxy-1-(3-Carbamimidoyl-Benzyl)-1h-Indole-2-Carbonyl]-Amino}-Methyl)-Phenyl]-Trimethyl-Ammonium

$$$$
