
 OpenBabel10282417072D

 48 51  0  0  1  0  0  0  0  0999 V2000
    3.9359   -0.8048    0.0000 C   0  0  0  0  0  0  0  0  0  0  0  0
    3.4379   -0.1470    0.0000 N   0  0  0  0  0  0  0  0  0  0  0  0
    3.6774    0.6425    0.0000 C   0  0  0  0  0  0  0  0  0  0  0  0
    3.0005    1.1142    0.0000 C   0  0  0  0  0  0  0  0  0  0  0  0
    2.3427    0.6162    0.0000 C   0  0  1  0  0  0  0  0  0  0  0  0
    2.0724    1.3956    0.0000 C   0  0  0  0  0  0  0  0  0  0  0  0
    2.6131   -0.1633    0.0000 C   0  0  2  0  0  0  0  0  0  0  0  0
    1.9554   -0.6613    0.0000 N   0  0  0  0  0  0  0  0  0  0  0  0
    1.9716   -1.4861    0.0000 C   0  0  0  0  0  0  0  0  0  0  0  0
    1.2785   -0.1896    0.0000 C   0  0  0  0  0  0  0  0  0  0  0  0
    0.4750   -0.3770    0.0000 C   0  0  0  0  0  0  0  0  0  0  0  0
   -0.0890    0.2251    0.0000 C   0  0  0  0  0  0  0  0  0  0  0  0
    0.1505    1.0146    0.0000 C   0  0  0  0  0  0  0  0  0  0  0  0
   -0.4136    1.6167    0.0000 O   0  0  0  0  0  0  0  0  0  0  0  0
   -0.1741    2.4062    0.0000 C   0  0  0  0  0  0  0  0  0  0  0  0
    0.6293    2.5936    0.0000 O   0  0  0  0  0  0  0  0  0  0  0  0
   -0.7381    3.0083    0.0000 N   0  0  0  0  0  0  0  0  0  0  0  0
   -0.4987    3.7978    0.0000 C   0  0  0  0  0  0  0  0  0  0  0  0
   -1.0627    4.3999    0.0000 C   0  0  0  0  0  0  0  0  0  0  0  0
   -0.8233    5.1894    0.0000 C   0  0  0  0  0  0  0  0  0  0  0  0
   -0.0199    5.3768    0.0000 C   0  0  0  0  0  0  0  0  0  0  0  0
    0.5441    4.7747    0.0000 C   0  0  0  0  0  0  0  0  0  0  0  0
    0.3047    3.9852    0.0000 C   0  0  0  0  0  0  0  0  0  0  0  0
    0.9539    1.2020    0.0000 C   0  0  0  0  0  0  0  0  0  0  0  0
    1.5179    0.5999    0.0000 C   0  0  0  0  0  0  0  0  0  0  0  0
    3.5200   -1.7907    0.0000 H   0  0  0  0  0  0  0  0  0  0  0  0
    4.9976   -0.6720    0.0000 H   0  0  0  0  0  0  0  0  0  0  0  0
    4.5818   -1.6579    0.0000 H   0  0  0  0  0  0  0  0  0  0  0  0
    4.6883    0.9931    0.0000 H   0  0  0  0  0  0  0  0  0  0  0  0
    3.8239    1.7024    0.0000 H   0  0  0  0  0  0  0  0  0  0  0  0
    2.9794    2.1840    0.0000 H   0  0  0  0  0  0  0  0  0  0  0  0
    2.0377    1.5811    0.0000 H   0  0  0  0  0  0  0  0  0  0  0  0
    2.7726    2.2047    0.0000 H   0  0  0  0  0  0  0  0  0  0  0  0
    1.0216    1.5974    0.0000 H   0  0  0  0  0  0  0  0  0  0  0  0
    1.7218    2.4065    0.0000 H   0  0  0  0  0  0  0  0  0  0  0  0
    3.2248    0.7146    0.0000 H   0  0  0  0  0  0  0  0  0  0  0  0
    1.0556   -2.0392    0.0000 H   0  0  0  0  0  0  0  0  0  0  0  0
    2.9086   -2.0028    0.0000 H   0  0  0  0  0  0  0  0  0  0  0  0
    1.9926   -2.5559    0.0000 H   0  0  0  0  0  0  0  0  0  0  0  0
    0.1755   -1.3646    0.0000 H   0  0  0  0  0  0  0  0  0  0  0  0
   -1.0940   -0.0093    0.0000 H   0  0  0  0  0  0  0  0  0  0  0  0
   -1.6969    2.7847    0.0000 H   0  0  0  0  0  0  0  0  0  0  0  0
   -2.0677    4.1655    0.0000 H   0  0  0  0  0  0  0  0  0  0  0  0
   -1.5288    5.9426    0.0000 H   0  0  0  0  0  0  0  0  0  0  0  0
    0.2796    6.3644    0.0000 H   0  0  0  0  0  0  0  0  0  0  0  0
    1.5491    5.0091    0.0000 H   0  0  0  0  0  0  0  0  0  0  0  0
    1.0102    3.2320    0.0000 H   0  0  0  0  0  0  0  0  0  0  0  0
    1.2534    2.1896    0.0000 H   0  0  0  0  0  0  0  0  0  0  0  0
  1  2  1  0  0  0  0
  1 26  1  0  0  0  0
  1 27  1  0  0  0  0
  1 28  1  0  0  0  0
  2  3  1  0  0  0  0
  3  4  1  0  0  0  0
  3 29  1  0  0  0  0
  3 30  1  0  0  0  0
  4 31  1  0  0  0  0
  4 32  1  0  0  0  0
  5  4  1  0  0  0  0
  5  6  1  6  0  0  0
  5  7  1  0  0  0  0
  5 25  1  0  0  0  0
  6 33  1  0  0  0  0
  6 34  1  0  0  0  0
  6 35  1  0  0  0  0
  7  2  1  0  0  0  0
  7  8  1  0  0  0  0
  7 36  1  6  0  0  0
  8  9  1  0  0  0  0
  8 10  1  0  0  0  0
  9 37  1  0  0  0  0
  9 38  1  0  0  0  0
  9 39  1  0  0  0  0
 10 11  2  0  0  0  0
 10 25  1  0  0  0  0
 11 12  1  0  0  0  0
 11 40  1  0  0  0  0
 12 13  2  0  0  0  0
 12 41  1  0  0  0  0
 13 14  1  0  0  0  0
 13 24  1  0  0  0  0
 14 15  1  0  0  0  0
 15 16  2  0  0  0  0
 15 17  1  0  0  0  0
 17 18  1  0  0  0  0
 17 42  1  0  0  0  0
 18 19  2  0  0  0  0
 18 23  1  0  0  0  0
 19 20  1  0  0  0  0
 19 43  1  0  0  0  0
 20 21  2  0  0  0  0
 20 44  1  0  0  0  0
 21 22  1  0  0  0  0
 21 45  1  0  0  0  0
 22 23  2  0  0  0  0
 22 46  1  0  0  0  0
 23 47  1  0  0  0  0
 24 25  2  0  0  0  0
 24 48  1  0  0  0  0
M  END
>  <DRUGBANK_ID>
DB15317

>  <COMMON_NAME>
Posiphen

>  <CAS_NUMBER>
116839-68-0

>  <UNII>
Z0O4TJ588O

>  <SYNONYMS>
(+)-Posiphen

$$$$
