CAH
 OpenBabel10282417072D

 28 29  0  0  0  0  0  0  0  0999 V2000
   -0.3250   -0.6294    0.0000 C   0  0  2  0  0  0  0  0  0  0  0  0
   -1.1005   -1.0197    0.0000 C   0  0  0  0  0  0  0  0  0  0  0  0
   -1.6950   -1.5916    0.0000 O   0  0  0  0  0  0  0  0  0  0  0  0
   -0.7352   -0.3592    0.0000 C   0  0  0  0  0  0  0  0  0  0  0  0
   -0.0949    0.0910    0.0000 C   0  0  1  0  0  0  0  0  0  0  0  0
    0.7005   -0.3742    0.0000 C   0  0  2  0  0  0  0  0  0  0  0  0
    1.4886   -0.1303    0.0000 O   0  0  0  0  0  0  0  0  0  0  0  0
    0.4055   -0.9996    0.0000 C   0  0  0  0  0  0  0  0  0  0  0  0
   -0.2549    0.9063    0.0000 C   0  0  0  0  0  0  0  0  0  0  0  0
   -0.8346    1.4932    0.0000 C   0  0  0  0  0  0  0  0  0  0  0  0
    0.2319    1.5724    0.0000 C   0  0  0  0  0  0  0  0  0  0  0  0
   -0.3262   -1.4544    0.0000 C   0  0  0  0  0  0  0  0  0  0  0  0
    0.0818    0.6474    0.0000 H   0  0  0  0  0  0  0  0  0  0  0  0
    0.7672    0.2058    0.0000 H   0  0  0  0  0  0  0  0  0  0  0  0
   -1.5314    0.3556    0.0000 H   0  0  0  0  0  0  0  0  0  0  0  0
   -0.6717    0.7089    0.0000 H   0  0  0  0  0  0  0  0  0  0  0  0
    2.2003   -0.7894    0.0000 H   0  0  0  0  0  0  0  0  0  0  0  0
    0.7527   -2.0117    0.0000 H   0  0  0  0  0  0  0  0  0  0  0  0
    1.4739   -1.0586    0.0000 H   0  0  0  0  0  0  0  0  0  0  0  0
   -0.5513    2.5250    0.0000 H   0  0  0  0  0  0  0  0  0  0  0  0
   -1.8698    1.2226    0.0000 H   0  0  0  0  0  0  0  0  0  0  0  0
   -1.5865    2.2545    0.0000 H   0  0  0  0  0  0  0  0  0  0  0  0
    1.2957    1.4576    0.0000 H   0  0  0  0  0  0  0  0  0  0  0  0
   -0.2006    2.5511    0.0000 H   0  0  0  0  0  0  0  0  0  0  0  0
    0.8632    2.4363    0.0000 H   0  0  0  0  0  0  0  0  0  0  0  0
   -1.2536   -1.9881    0.0000 H   0  0  0  0  0  0  0  0  0  0  0  0
    0.5997   -1.9907    0.0000 H   0  0  0  0  0  0  0  0  0  0  0  0
   -0.3278   -2.5244    0.0000 H   0  0  0  0  0  0  0  0  0  0  0  0
  1  2  1  0  0  0  0
  1  8  1  0  0  0  0
  1  9  1  0  0  0  0
  1 12  1  6  0  0  0
  2  3  2  0  0  0  0
  2  4  1  0  0  0  0
  4  5  1  0  0  0  0
  4 15  1  0  0  0  0
  4 16  1  0  0  0  0
  5  6  1  0  0  0  0
  5  9  1  0  0  0  0
  5 13  1  1  0  0  0
  6  7  1  0  0  0  0
  6  8  1  0  0  0  0
  6 14  1  1  0  0  0
  7 17  1  0  0  0  0
  8 18  1  0  0  0  0
  8 19  1  0  0  0  0
  9 10  1  0  0  0  0
  9 11  1  0  0  0  0
 10 20  1  0  0  0  0
 10 21  1  0  0  0  0
 10 22  1  0  0  0  0
 11 23  1  0  0  0  0
 11 24  1  0  0  0  0
 11 25  1  0  0  0  0
 12 26  1  0  0  0  0
 12 27  1  0  0  0  0
 12 28  1  0  0  0  0
M  END
>  <DRUGBANK_ID>
DB02817

>  <SECONDARY_ACCESSION_NUMBERS>
EXPT00826

>  <COMMON_NAME>
5-Exo-Hydroxycamphor

$$$$
