
 OpenBabel10282417072D

 18 18  0  0  0  0  0  0  0  0999 V2000
    0.0000    0.4037    0.0000 C   0  0  0  0  0  0  0  0  0  0  0  0
   -0.7127    0.8109    0.0000 C   0  0  0  0  0  0  0  0  0  0  0  0
    0.0000   -0.4248    0.0000 C   0  0  0  0  0  0  0  0  0  0  0  0
    0.7127    0.8302    0.0000 N   0  3  0  0  0  0  0  0  0  0  0  0
   -1.4254    0.3896    0.0000 C   0  0  0  0  0  0  0  0  0  0  0  0
   -0.7127    1.6343    0.0000 O   0  0  0  0  0  0  0  0  0  0  0  0
   -0.7127   -0.8320    0.0000 C   0  0  0  0  0  0  0  0  0  0  0  0
    0.7127    1.6572    0.0000 O   0  0  0  0  0  0  0  0  0  0  0  0
    1.4254    0.4230    0.0000 O   0  5  0  0  0  0  0  0  0  0  0  0
   -1.4167   -0.4353    0.0000 C   0  0  0  0  0  0  0  0  0  0  0  0
   -0.7127   -1.6572    0.0000 C   0  0  0  0  0  0  0  0  0  0  0  0
    0.8926   -0.9428    0.0000 H   0  0  0  0  0  0  0  0  0  0  0  0
   -2.3245    0.8963    0.0000 H   0  0  0  0  0  0  0  0  0  0  0  0
    0.0988    2.1028    0.0000 H   0  0  0  0  0  0  0  0  0  0  0  0
   -2.3050   -0.9607    0.0000 H   0  0  0  0  0  0  0  0  0  0  0  0
   -1.6393   -2.1922    0.0000 H   0  0  0  0  0  0  0  0  0  0  0  0
    0.2139   -2.1922    0.0000 H   0  0  0  0  0  0  0  0  0  0  0  0
   -0.7127   -2.7272    0.0000 H   0  0  0  0  0  0  0  0  0  0  0  0
  1  2  1  0  0  0  0
  1  3  2  0  0  0  0
  1  4  1  0  0  0  0
  2  5  2  0  0  0  0
  2  6  1  0  0  0  0
  3  7  1  0  0  0  0
  3 12  1  0  0  0  0
  4  8  2  0  0  0  0
  4  9  1  0  0  0  0
  5 10  1  0  0  0  0
  5 13  1  0  0  0  0
  6 14  1  0  0  0  0
  7 11  1  0  0  0  0
  7 10  2  0  0  0  0
 10 15  1  0  0  0  0
 11 16  1  0  0  0  0
 11 17  1  0  0  0  0
 11 18  1  0  0  0  0
M  CHG  2   4   1   9  -1
M  END
>  <DRUGBANK_ID>
DB04110

>  <SECONDARY_ACCESSION_NUMBERS>
EXPT02314

>  <COMMON_NAME>
2-Nitro-4-cresol

>  <CAS_NUMBER>
119-33-5

>  <UNII>
P92KPK2NL3

>  <SYNONYMS>
2-Nitro-4-methylphenol; 2-Nitro-P-cresol; o-Nitro-p-cresol

$$$$
