
 OpenBabel10282417072D

 42 45  0  0  1  0  0  0  0  0999 V2000
    4.4793    3.8874    0.0000 C   0  0  0  0  0  0  0  0  0  0  0  0
    0.8838    0.0709    0.0000 C   0  0  0  0  0  0  0  0  0  0  0  0
   -1.8212    1.5229    0.0000 C   0  0  0  0  0  0  0  0  0  0  0  0
   -1.4087    0.8085    0.0000 C   0  0  0  0  0  0  0  0  0  0  0  0
   -1.4087    2.2374    0.0000 C   0  0  0  0  0  0  0  0  0  0  0  0
   -0.5837    0.8085    0.0000 C   0  0  0  0  0  0  0  0  0  0  0  0
   -0.5837    2.2374    0.0000 C   0  0  0  0  0  0  0  0  0  0  0  0
    3.3523    1.1104    0.0000 C   0  0  0  0  0  0  0  0  0  0  0  0
    4.8918    2.3479    0.0000 C   0  0  0  0  0  0  0  0  0  0  0  0
    0.8838    2.9750    0.0000 C   0  0  0  0  0  0  0  0  0  0  0  0
    4.4793    3.0624    0.0000 C   0  0  2  0  0  0  0  0  0  0  0  0
   -0.1712    1.5229    0.0000 C   0  0  0  0  0  0  0  0  0  0  0  0
    1.1387    2.1904    0.0000 C   0  0  0  0  0  0  0  0  0  0  0  0
    3.3523    1.9354    0.0000 C   0  0  0  0  0  0  0  0  0  0  0  0
    2.6378    0.6979    0.0000 C   0  0  0  0  0  0  0  0  0  0  0  0
    1.9233    1.9354    0.0000 C   0  0  0  0  0  0  0  0  0  0  0  0
    0.6538    1.5229    0.0000 C   0  0  0  0  0  0  0  0  0  0  0  0
    1.9233    1.1104    0.0000 C   0  0  0  0  0  0  0  0  0  0  0  0
    2.6378    2.3479    0.0000 C   0  0  0  0  0  0  0  0  0  0  0  0
    1.1387    0.8555    0.0000 N   0  0  0  0  0  0  0  0  0  0  0  0
    4.0668    2.3479    0.0000 N   0  0  0  0  0  0  0  0  0  0  0  0
    0.0768    3.1465    0.0000 O   0  0  0  0  0  0  0  0  0  0  0  0
    2.6378   -0.1271    0.0000 O   0  0  0  0  0  0  0  0  0  0  0  0
    2.6378    3.1729    0.0000 O   0  0  0  0  0  0  0  0  0  0  0  0
    5.2761    3.2759    0.0000 H   0  0  0  0  0  0  0  0  0  0  0  0
    5.4059    4.4224    0.0000 H   0  0  0  0  0  0  0  0  0  0  0  0
    3.5527    4.4224    0.0000 H   0  0  0  0  0  0  0  0  0  0  0  0
    4.4793    4.9574    0.0000 H   0  0  0  0  0  0  0  0  0  0  0  0
   -0.1628   -0.1516    0.0000 H   0  0  0  0  0  0  0  0  0  0  0  0
    1.5998   -0.7242    0.0000 H   0  0  0  0  0  0  0  0  0  0  0  0
    0.5532   -0.9467    0.0000 H   0  0  0  0  0  0  0  0  0  0  0  0
   -2.8532    1.5229    0.0000 H   0  0  0  0  0  0  0  0  0  0  0  0
   -1.9247   -0.0852    0.0000 H   0  0  0  0  0  0  0  0  0  0  0  0
   -1.9247    3.1311    0.0000 H   0  0  0  0  0  0  0  0  0  0  0  0
   -0.0677   -0.0852    0.0000 H   0  0  0  0  0  0  0  0  0  0  0  0
   -0.0677    3.1311    0.0000 H   0  0  0  0  0  0  0  0  0  0  0  0
    4.2460    0.5944    0.0000 H   0  0  0  0  0  0  0  0  0  0  0  0
    5.8184    1.8129    0.0000 H   0  0  0  0  0  0  0  0  0  0  0  0
    4.6149    1.3144    0.0000 H   0  0  0  0  0  0  0  0  0  0  0  0
    1.5998    3.7702    0.0000 H   0  0  0  0  0  0  0  0  0  0  0  0
    0.5531    3.9926    0.0000 H   0  0  0  0  0  0  0  0  0  0  0  0
   -0.2230    4.0690    0.0000 H   0  0  0  0  0  0  0  0  0  0  0  0
  1 26  1  0  0  0  0
  1 27  1  0  0  0  0
  1 28  1  0  0  0  0
  2 29  1  0  0  0  0
  2 30  1  0  0  0  0
  2 31  1  0  0  0  0
  3 32  1  0  0  0  0
  4  3  2  0  0  0  0
  4 33  1  0  0  0  0
  5  3  1  0  0  0  0
  5 34  1  0  0  0  0
  6  4  1  0  0  0  0
  6 35  1  0  0  0  0
  7  5  2  0  0  0  0
  7 36  1  0  0  0  0
  8 37  1  0  0  0  0
  9 38  1  0  0  0  0
  9 39  1  0  0  0  0
 10 40  1  0  0  0  0
 10 41  1  0  0  0  0
 11  1  1  0  0  0  0
 11  9  1  0  0  0  0
 11 25  1  1  0  0  0
 12  6  2  0  0  0  0
 12  7  1  0  0  0  0
 13 10  1  0  0  0  0
 14  8  2  0  0  0  0
 15  8  1  0  0  0  0
 16 13  1  0  0  0  0
 17 12  1  0  0  0  0
 17 13  2  0  0  0  0
 18 15  1  0  0  0  0
 18 16  2  0  0  0  0
 19 14  1  0  0  0  0
 19 16  1  0  0  0  0
 20  2  1  0  0  0  0
 20 17  1  0  0  0  0
 20 18  1  0  0  0  0
 21  9  1  0  0  0  0
 21 11  1  0  0  0  0
 21 14  1  0  0  0  0
 22 10  1  0  0  0  0
 22 42  1  0  0  0  0
 23 15  2  0  0  0  0
 24 19  2  0  0  0  0
M  END
>  <DRUGBANK_ID>
DB07385

>  <COMMON_NAME>
3-(HYDROXYMETHYL)-1-METHYL-5-(2-METHYLAZIRIDIN-1-YL)-2-PHENYL-1H-INDOLE-4,7-DIONE

$$$$
