703
 OpenBabel10282417072D

 51 55  0  0  0  0  0  0  0  0999 V2000
    4.8613    0.2297    0.0000 C   0  0  0  0  0  0  0  0  0  0  0  0
    5.4744   -0.3223    0.0000 C   0  0  0  0  0  0  0  0  0  0  0  0
    5.3029   -1.1293    0.0000 C   0  0  0  0  0  0  0  0  0  0  0  0
    4.5183   -1.3842    0.0000 C   0  0  0  0  0  0  0  0  0  0  0  0
    3.9052   -0.8322    0.0000 C   0  0  0  0  0  0  0  0  0  0  0  0
    4.0767   -0.0252    0.0000 C   0  0  0  0  0  0  0  0  0  0  0  0
    5.9160   -1.6813    0.0000 N   0  3  0  0  0  0  0  0  0  0  0  0
    6.7006   -1.4264    0.0000 O   0  0  0  0  0  0  0  0  0  0  0  0
    5.7445   -2.4883    0.0000 O   0  5  0  0  0  0  0  0  0  0  0  0
    3.1206   -1.0871    0.0000 C   0  0  0  0  0  0  0  0  0  0  0  0
    2.8656   -1.8717    0.0000 S   0  0  0  0  0  0  0  0  0  0  0  0
    2.0406   -1.8717    0.0000 C   0  0  0  0  0  0  0  0  0  0  0  0
    1.7857   -1.0871    0.0000 C   0  0  0  0  0  0  0  0  0  0  0  0
    2.4531   -0.6022    0.0000 C   0  0  0  0  0  0  0  0  0  0  0  0
    0.9607   -1.0871    0.0000 N   0  0  0  0  0  0  0  0  0  0  0  0
    0.7057   -1.8717    0.0000 C   0  0  0  0  0  0  0  0  0  0  0  0
    1.3732   -2.3567    0.0000 C   0  0  0  0  0  0  0  0  0  0  0  0
    0.2932   -0.6022    0.0000 C   0  0  0  0  0  0  0  0  0  0  0  0
   -0.3742   -1.0871    0.0000 N   0  0  0  0  0  0  0  0  0  0  0  0
   -0.1193   -1.8717    0.0000 C   0  0  0  0  0  0  0  0  0  0  0  0
    0.2932    0.2228    0.0000 S   0  0  0  0  0  0  0  0  0  0  0  0
   -0.6042   -2.5392    0.0000 O   0  0  0  0  0  0  0  0  0  0  0  0
   -1.1588   -0.8322    0.0000 C   0  0  0  0  0  0  0  0  0  0  0  0
   -1.3303   -0.0252    0.0000 C   0  0  0  0  0  0  0  0  0  0  0  0
   -2.1150    0.2297    0.0000 C   0  0  0  0  0  0  0  0  0  0  0  0
   -2.2865    1.0367    0.0000 N   0  0  0  0  0  0  0  0  0  0  0  0
   -3.0711    1.2916    0.0000 C   0  0  0  0  0  0  0  0  0  0  0  0
   -3.2426    2.0986    0.0000 C   0  0  0  0  0  0  0  0  0  0  0  0
   -2.6295    2.6506    0.0000 O   0  0  0  0  0  0  0  0  0  0  0  0
   -1.8449    2.3957    0.0000 C   0  0  0  0  0  0  0  0  0  0  0  0
   -1.6734    1.5887    0.0000 C   0  0  0  0  0  0  0  0  0  0  0  0
    5.0759    1.2391    0.0000 H   0  0  0  0  0  0  0  0  0  0  0  0
    6.4559   -0.0034    0.0000 H   0  0  0  0  0  0  0  0  0  0  0  0
    4.3037   -2.3936    0.0000 H   0  0  0  0  0  0  0  0  0  0  0  0
    3.3098    0.6653    0.0000 H   0  0  0  0  0  0  0  0  0  0  0  0
    2.4531    0.4298    0.0000 H   0  0  0  0  0  0  0  0  0  0  0  0
    1.3732   -3.3887    0.0000 H   0  0  0  0  0  0  0  0  0  0  0  0
   -1.9540   -1.5482    0.0000 H   0  0  0  0  0  0  0  0  0  0  0  0
   -2.1764   -0.5015    0.0000 H   0  0  0  0  0  0  0  0  0  0  0  0
   -0.5351    0.6908    0.0000 H   0  0  0  0  0  0  0  0  0  0  0  0
   -1.5528    1.0214    0.0000 H   0  0  0  0  0  0  0  0  0  0  0  0
   -2.9102   -0.4863    0.0000 H   0  0  0  0  0  0  0  0  0  0  0  0
   -3.1326    0.5604    0.0000 H   0  0  0  0  0  0  0  0  0  0  0  0
   -3.8663    0.5756    0.0000 H   0  0  0  0  0  0  0  0  0  0  0  0
   -4.0887    1.6223    0.0000 H   0  0  0  0  0  0  0  0  0  0  0  0
   -4.2602    2.4293    0.0000 H   0  0  0  0  0  0  0  0  0  0  0  0
   -3.4650    3.1452    0.0000 H   0  0  0  0  0  0  0  0  0  0  0  0
   -1.0497    3.1117    0.0000 H   0  0  0  0  0  0  0  0  0  0  0  0
   -0.8273    2.0650    0.0000 H   0  0  0  0  0  0  0  0  0  0  0  0
   -0.6558    1.2580    0.0000 H   0  0  0  0  0  0  0  0  0  0  0  0
   -0.8782    2.3046    0.0000 H   0  0  0  0  0  0  0  0  0  0  0  0
  1  2  2  0  0  0  0
  1  6  1  0  0  0  0
  1 32  1  0  0  0  0
  2  3  1  0  0  0  0
  2 33  1  0  0  0  0
  3  4  2  0  0  0  0
  3  7  1  0  0  0  0
  4  5  1  0  0  0  0
  4 34  1  0  0  0  0
  5  6  2  0  0  0  0
  5 10  1  0  0  0  0
  6 35  1  0  0  0  0
  7  8  2  0  0  0  0
  7  9  1  0  0  0  0
 10 11  1  0  0  0  0
 10 14  2  0  0  0  0
 11 12  1  0  0  0  0
 12 13  2  0  0  0  0
 12 17  1  0  0  0  0
 13 14  1  0  0  0  0
 13 15  1  0  0  0  0
 14 36  1  0  0  0  0
 15 16  1  0  0  0  0
 15 18  1  0  0  0  0
 16 17  2  0  0  0  0
 16 20  1  0  0  0  0
 17 37  1  0  0  0  0
 18 19  1  0  0  0  0
 18 21  2  0  0  0  0
 19 20  1  0  0  0  0
 19 23  1  0  0  0  0
 20 22  2  0  0  0  0
 23 24  1  0  0  0  0
 23 38  1  0  0  0  0
 23 39  1  0  0  0  0
 24 25  1  0  0  0  0
 24 40  1  0  0  0  0
 24 41  1  0  0  0  0
 25 26  1  0  0  0  0
 25 42  1  0  0  0  0
 25 43  1  0  0  0  0
 26 27  1  0  0  0  0
 26 31  1  0  0  0  0
 27 28  1  0  0  0  0
 27 44  1  0  0  0  0
 27 45  1  0  0  0  0
 28 29  1  0  0  0  0
 28 46  1  0  0  0  0
 28 47  1  0  0  0  0
 29 30  1  0  0  0  0
 30 31  1  0  0  0  0
 30 48  1  0  0  0  0
 30 49  1  0  0  0  0
 31 50  1  0  0  0  0
 31 51  1  0  0  0  0
M  CHG  2   7   1   9  -1
M  END
>  <DRUGBANK_ID>
DB03507

>  <SECONDARY_ACCESSION_NUMBERS>
EXPT00294

>  <COMMON_NAME>
6-[3-(4-Morpholinyl)Propyl]-2-(3-Nitrophenyl)-5-Thioxo-5,6,-Dihydro-7h-Thienol[2',3':4,5]Pyrrolo[1,2-C]Imidazol-7-One

$$$$
