
 OpenBabel10282417072D

 57 59  0  0  1  0  0  0  0  0999 V2000
   -4.0954   -8.5224    0.0000 C   0  0  0  0  0  0  0  0  0  0  0  0
   -3.6829   -7.8079    0.0000 C   0  0  0  0  0  0  0  0  0  0  0  0
   -4.0954   -7.0934    0.0000 C   0  0  0  0  0  0  0  0  0  0  0  0
   -3.6829   -6.3789    0.0000 C   0  0  0  0  0  0  0  0  0  0  0  0
   -2.8579   -6.3789    0.0000 C   0  0  0  0  0  0  0  0  0  0  0  0
   -2.4454   -7.0934    0.0000 C   0  0  0  0  0  0  0  0  0  0  0  0
   -2.8579   -7.8079    0.0000 C   0  0  0  0  0  0  0  0  0  0  0  0
   -2.4454   -5.6645    0.0000 C   0  0  2  0  0  0  0  0  0  0  0  0
   -2.8579   -4.9500    0.0000 C   0  0  0  0  0  0  0  0  0  0  0  0
   -3.6829   -4.9500    0.0000 C   0  0  0  0  0  0  0  0  0  0  0  0
   -4.0954   -5.6645    0.0000 O   0  0  0  0  0  0  0  0  0  0  0  0
   -4.0954   -4.2355    0.0000 O   0  0  0  0  0  0  0  0  0  0  0  0
   -1.6204   -5.6645    0.0000 N   0  0  0  0  0  0  0  0  0  0  0  0
   -1.2079   -4.9500    0.0000 C   0  0  0  0  0  0  0  0  0  0  0  0
   -1.6204   -4.2355    0.0000 O   0  0  0  0  0  0  0  0  0  0  0  0
   -0.3829   -4.9500    0.0000 N   0  0  0  0  0  0  0  0  0  0  0  0
    0.0296   -4.2355    0.0000 C   0  0  0  0  0  0  0  0  0  0  0  0
   -0.3829   -3.5211    0.0000 C   0  0  0  0  0  0  0  0  0  0  0  0
   -1.2079   -3.5211    0.0000 O   0  0  0  0  0  0  0  0  0  0  0  0
    0.0296   -2.8066    0.0000 C   0  0  0  0  0  0  0  0  0  0  0  0
   -0.3829   -2.0921    0.0000 C   0  0  0  0  0  0  0  0  0  0  0  0
    0.8546   -2.8066    0.0000 C   0  0  0  0  0  0  0  0  0  0  0  0
    1.2671   -3.5211    0.0000 N   0  0  0  0  0  0  0  0  0  0  0  0
    2.0921   -3.5211    0.0000 C   0  0  0  0  0  0  0  0  0  0  0  0
    2.5046   -2.8066    0.0000 C   0  0  0  0  0  0  0  0  0  0  0  0
    2.0921   -2.0921    0.0000 C   0  0  0  0  0  0  0  0  0  0  0  0
    2.5046   -1.3776    0.0000 C   0  0  0  0  0  0  0  0  0  0  0  0
    3.3296   -1.3776    0.0000 C   0  0  0  0  0  0  0  0  0  0  0  0
    3.7421   -2.0921    0.0000 C   0  0  0  0  0  0  0  0  0  0  0  0
    3.3296   -2.8066    0.0000 C   0  0  0  0  0  0  0  0  0  0  0  0
    3.7421   -3.5211    0.0000 Cl  0  0  0  0  0  0  0  0  0  0  0  0
    0.8546   -4.2355    0.0000 C   0  0  0  0  0  0  0  0  0  0  0  0
    1.2671   -4.9500    0.0000 O   0  0  0  0  0  0  0  0  0  0  0  0
   -5.1654   -8.5224    0.0000 H   0  0  0  0  0  0  0  0  0  0  0  0
   -3.5604   -9.4490    0.0000 H   0  0  0  0  0  0  0  0  0  0  0  0
   -4.6304   -9.4491    0.0000 H   0  0  0  0  0  0  0  0  0  0  0  0
   -5.1274   -7.0934    0.0000 H   0  0  0  0  0  0  0  0  0  0  0  0
   -4.1989   -5.4852    0.0000 H   0  0  0  0  0  0  0  0  0  0  0  0
   -1.4134   -7.0934    0.0000 H   0  0  0  0  0  0  0  0  0  0  0  0
   -2.3419   -8.7016    0.0000 H   0  0  0  0  0  0  0  0  0  0  0  0
   -1.9104   -6.5912    0.0000 H   0  0  0  0  0  0  0  0  0  0  0  0
   -2.3229   -4.0234    0.0000 H   0  0  0  0  0  0  0  0  0  0  0  0
   -3.3929   -4.0234    0.0000 H   0  0  0  0  0  0  0  0  0  0  0  0
   -5.0324   -5.6645    0.0000 H   0  0  0  0  0  0  0  0  0  0  0  0
   -1.1281   -6.5171    0.0000 H   0  0  0  0  0  0  0  0  0  0  0  0
    0.1094   -5.8026    0.0000 H   0  0  0  0  0  0  0  0  0  0  0  0
   -1.6764   -2.7096    0.0000 H   0  0  0  0  0  0  0  0  0  0  0  0
    0.1521   -1.1655    0.0000 H   0  0  0  0  0  0  0  0  0  0  0  0
   -1.4529   -2.0921    0.0000 H   0  0  0  0  0  0  0  0  0  0  0  0
   -0.9179   -1.1654    0.0000 H   0  0  0  0  0  0  0  0  0  0  0  0
    1.3706   -1.9129    0.0000 H   0  0  0  0  0  0  0  0  0  0  0  0
    2.6271   -4.4477    0.0000 H   0  0  0  0  0  0  0  0  0  0  0  0
    3.1621   -3.5211    0.0000 H   0  0  0  0  0  0  0  0  0  0  0  0
    1.0601   -2.0921    0.0000 H   0  0  0  0  0  0  0  0  0  0  0  0
    1.9886   -0.4839    0.0000 H   0  0  0  0  0  0  0  0  0  0  0  0
    3.8456   -0.4839    0.0000 H   0  0  0  0  0  0  0  0  0  0  0  0
    4.7741   -2.0921    0.0000 H   0  0  0  0  0  0  0  0  0  0  0  0
  1  2  1  0  0  0  0
  1 34  1  0  0  0  0
  1 35  1  0  0  0  0
  1 36  1  0  0  0  0
  2  3  2  0  0  0  0
  2  7  1  0  0  0  0
  3  4  1  0  0  0  0
  3 37  1  0  0  0  0
  4  5  2  0  0  0  0
  4 38  1  0  0  0  0
  5  6  1  0  0  0  0
  6  7  2  0  0  0  0
  6 39  1  0  0  0  0
  7 40  1  0  0  0  0
  8  5  1  0  0  0  0
  8  9  1  0  0  0  0
  8 13  1  0  0  0  0
  8 41  1  1  0  0  0
  9 10  1  0  0  0  0
  9 42  1  0  0  0  0
  9 43  1  0  0  0  0
 10 11  1  0  0  0  0
 10 12  2  0  0  0  0
 11 44  1  0  0  0  0
 13 14  1  0  0  0  0
 13 45  1  0  0  0  0
 14 15  2  0  0  0  0
 14 16  1  0  0  0  0
 16 17  1  0  0  0  0
 16 46  1  0  0  0  0
 17 18  2  0  0  0  0
 17 32  1  0  0  0  0
 18 19  1  0  0  0  0
 18 20  1  0  0  0  0
 19 47  1  0  0  0  0
 20 21  1  0  0  0  0
 20 22  2  0  0  0  0
 21 48  1  0  0  0  0
 21 49  1  0  0  0  0
 21 50  1  0  0  0  0
 22 23  1  0  0  0  0
 22 51  1  0  0  0  0
 23 24  1  0  0  0  0
 23 32  1  0  0  0  0
 24 25  1  0  0  0  0
 24 52  1  0  0  0  0
 24 53  1  0  0  0  0
 25 26  2  0  0  0  0
 25 30  1  0  0  0  0
 26 27  1  0  0  0  0
 26 54  1  0  0  0  0
 27 28  2  0  0  0  0
 27 55  1  0  0  0  0
 28 29  1  0  0  0  0
 28 56  1  0  0  0  0
 29 30  2  0  0  0  0
 29 57  1  0  0  0  0
 30 31  1  0  0  0  0
 32 33  2  0  0  0  0
M  END
>  <DRUGBANK_ID>
DB18022

>  <COMMON_NAME>
AVA-4746

>  <CAS_NUMBER>
422268-99-3

>  <UNII>
7M2IM94F1S

>  <SYNONYMS>
(3s)-3-(((1-(2-chlorobenzyl)-4-hydroxy-5-methyl-2-oxo-1,2-dihydropyridin-3yl)amino)carbonyl)amino-3-(4-methylphenyl)propanoic acid; Benzenepropanoic acid, .beta.-((((1-((2-chlorophenyl)methyl)-1,2-dihydro-4-hydroxy-5-methyl-2-oxo-3-pyridinyl)amino)carbonyl)amino)-4-methyl-, (.beta.s)-

$$$$
