
 OpenBabel10282417072D

101105  0  0  0  0  0  0  0  0999 V2000
   -5.9951   -4.9151    0.0000 Na  0  3  0  0  0  0  0  0  0  0  0  0
    3.1182   -0.7982    0.0000 C   0  0  0  0  0  0  0  0  0  0  0  0
    3.5082   -0.0712    0.0000 C   0  0  0  0  0  0  0  0  0  0  0  0
    4.1904   -0.5351    0.0000 C   0  0  0  0  0  0  0  0  0  0  0  0
    2.7444    0.2405    0.0000 C   0  0  0  0  0  0  0  0  0  0  0  0
    2.0431   -0.1940    0.0000 C   0  0  0  0  0  0  0  0  0  0  0  0
    1.3161    0.1959    0.0000 C   0  0  0  0  0  0  0  0  0  0  0  0
    0.6149   -0.2386    0.0000 C   0  0  0  0  0  0  0  0  0  0  0  0
   -0.1120    0.1513    0.0000 C   0  0  0  0  0  0  0  0  0  0  0  0
   -0.8132   -0.2832    0.0000 C   0  0  0  0  0  0  0  0  0  0  0  0
   -1.5403    0.1067    0.0000 C   0  0  0  0  0  0  0  0  0  0  0  0
   -2.2415   -0.3279    0.0000 C   0  0  0  0  0  0  0  0  0  0  0  0
   -2.9685    0.0620    0.0000 C   0  0  0  0  0  0  0  0  0  0  0  0
   -3.7114   -0.2968    0.0000 N   0  3  0  0  0  0  0  0  0  0  0  0
   -3.8576   -1.1087    0.0000 C   0  0  0  0  0  0  0  0  0  0  0  0
   -4.6339   -1.3880    0.0000 C   0  0  0  0  0  0  0  0  0  0  0  0
   -4.7801   -2.2000    0.0000 C   0  0  0  0  0  0  0  0  0  0  0  0
   -5.5564   -2.4793    0.0000 C   0  0  0  0  0  0  0  0  0  0  0  0
   -5.7026   -3.2912    0.0000 S   0  0  0  0  0  0  0  0  0  0  0  0
   -5.8489   -4.1031    0.0000 O   0  5  0  0  0  0  0  0  0  0  0  0
   -4.8907   -3.4375    0.0000 O   0  0  0  0  0  0  0  0  0  0  0  0
   -6.5146   -3.1450    0.0000 O   0  0  0  0  0  0  0  0  0  0  0  0
   -4.2823    0.2987    0.0000 C   0  0  0  0  0  0  0  0  0  0  0  0
   -5.1068    0.2729    0.0000 C   0  0  0  0  0  0  0  0  0  0  0  0
   -5.5415    0.9741    0.0000 C   0  0  0  0  0  0  0  0  0  0  0  0
   -5.1515    1.7012    0.0000 C   0  0  0  0  0  0  0  0  0  0  0  0
   -5.5861    2.4024    0.0000 C   0  0  0  0  0  0  0  0  0  0  0  0
   -5.1961    3.1294    0.0000 C   0  0  0  0  0  0  0  0  0  0  0  0
   -4.3715    3.1551    0.0000 C   0  0  0  0  0  0  0  0  0  0  0  0
   -3.9369    2.4540    0.0000 C   0  0  0  0  0  0  0  0  0  0  0  0
   -4.3269    1.7269    0.0000 C   0  0  0  0  0  0  0  0  0  0  0  0
   -3.8923    1.0257    0.0000 C   0  0  0  0  0  0  0  0  0  0  0  0
   -3.0803    0.8794    0.0000 C   0  0  0  0  0  0  0  0  0  0  0  0
   -2.8417    1.6692    0.0000 C   0  0  0  0  0  0  0  0  0  0  0  0
   -2.2812    1.0845    0.0000 C   0  0  0  0  0  0  0  0  0  0  0  0
    2.8049    1.0633    0.0000 N   0  0  0  0  0  0  0  0  0  0  0  0
    2.1749    1.5960    0.0000 C   0  0  0  0  0  0  0  0  0  0  0  0
    2.3212    2.4079    0.0000 C   0  0  0  0  0  0  0  0  0  0  0  0
    1.6911    2.9405    0.0000 C   0  0  0  0  0  0  0  0  0  0  0  0
    1.8374    3.7524    0.0000 C   0  0  0  0  0  0  0  0  0  0  0  0
    1.2073    4.2850    0.0000 S   0  0  0  0  0  0  0  0  0  0  0  0
    0.5773    4.8176    0.0000 O   0  5  0  0  0  0  0  0  0  0  0  0
    1.7399    4.9151    0.0000 O   0  0  0  0  0  0  0  0  0  0  0  0
    0.6747    3.6550    0.0000 O   0  0  0  0  0  0  0  0  0  0  0  0
    3.6061    1.2600    0.0000 C   0  0  0  0  0  0  0  0  0  0  0  0
    3.9961    1.9870    0.0000 C   0  0  0  0  0  0  0  0  0  0  0  0
    4.8208    2.0127    0.0000 C   0  0  0  0  0  0  0  0  0  0  0  0
    5.2553    1.3115    0.0000 C   0  0  0  0  0  0  0  0  0  0  0  0
    6.0800    1.3373    0.0000 C   0  0  0  0  0  0  0  0  0  0  0  0
    6.5146    0.6360    0.0000 C   0  0  0  0  0  0  0  0  0  0  0  0
    6.1246   -0.0909    0.0000 C   0  0  0  0  0  0  0  0  0  0  0  0
    5.3000   -0.1167    0.0000 C   0  0  0  0  0  0  0  0  0  0  0  0
    4.8654    0.5845    0.0000 C   0  0  0  0  0  0  0  0  0  0  0  0
    4.0408    0.5587    0.0000 C   0  0  0  0  0  0  0  0  0  0  0  0
    2.0487   -0.8316    0.0000 H   0  0  0  0  0  0  0  0  0  0  0  0
    3.6819   -1.7077    0.0000 H   0  0  0  0  0  0  0  0  0  0  0  0
    2.6124   -1.7411    0.0000 H   0  0  0  0  0  0  0  0  0  0  0  0
    4.1117   -1.6022    0.0000 H   0  0  0  0  0  0  0  0  0  0  0  0
    5.1539   -0.0697    0.0000 H   0  0  0  0  0  0  0  0  0  0  0  0
    5.0752   -1.1368    0.0000 H   0  0  0  0  0  0  0  0  0  0  0  0
    2.0753   -1.2255    0.0000 H   0  0  0  0  0  0  0  0  0  0  0  0
    1.2839    1.2274    0.0000 H   0  0  0  0  0  0  0  0  0  0  0  0
    0.6471   -1.2701    0.0000 H   0  0  0  0  0  0  0  0  0  0  0  0
   -0.1442    1.1828    0.0000 H   0  0  0  0  0  0  0  0  0  0  0  0
   -0.7809   -1.3147    0.0000 H   0  0  0  0  0  0  0  0  0  0  0  0
   -1.5726    1.1382    0.0000 H   0  0  0  0  0  0  0  0  0  0  0  0
   -2.2092   -1.3594    0.0000 H   0  0  0  0  0  0  0  0  0  0  0  0
   -3.0405   -1.7995    0.0000 H   0  0  0  0  0  0  0  0  0  0  0  0
   -4.0473   -2.1618    0.0000 H   0  0  0  0  0  0  0  0  0  0  0  0
   -5.4510   -0.6972    0.0000 H   0  0  0  0  0  0  0  0  0  0  0  0
   -5.6407   -1.7503    0.0000 H   0  0  0  0  0  0  0  0  0  0  0  0
   -3.9630   -2.8908    0.0000 H   0  0  0  0  0  0  0  0  0  0  0  0
   -4.9698   -3.2531    0.0000 H   0  0  0  0  0  0  0  0  0  0  0  0
   -6.3735   -1.7885    0.0000 H   0  0  0  0  0  0  0  0  0  0  0  0
   -6.5632   -2.8416    0.0000 H   0  0  0  0  0  0  0  0  0  0  0  0
   -5.5946   -0.6366    0.0000 H   0  0  0  0  0  0  0  0  0  0  0  0
   -6.5730    0.9418    0.0000 H   0  0  0  0  0  0  0  0  0  0  0  0
   -6.6176    2.3702    0.0000 H   0  0  0  0  0  0  0  0  0  0  0  0
   -5.7397    4.0066    0.0000 H   0  0  0  0  0  0  0  0  0  0  0  0
   -3.8837    4.0645    0.0000 H   0  0  0  0  0  0  0  0  0  0  0  0
   -2.9054    2.4863    0.0000 H   0  0  0  0  0  0  0  0  0  0  0  0
   -1.7999    1.9134    0.0000 H   0  0  0  0  0  0  0  0  0  0  0  0
   -3.5740    2.4493    0.0000 H   0  0  0  0  0  0  0  0  0  0  0  0
   -2.5323    2.6935    0.0000 H   0  0  0  0  0  0  0  0  0  0  0  0
   -1.5326    0.3199    0.0000 H   0  0  0  0  0  0  0  0  0  0  0  0
   -1.9934    2.1151    0.0000 H   0  0  0  0  0  0  0  0  0  0  0  0
   -1.2448    1.3505    0.0000 H   0  0  0  0  0  0  0  0  0  0  0  0
    1.1681    1.2338    0.0000 H   0  0  0  0  0  0  0  0  0  0  0  0
    1.3578    2.2869    0.0000 H   0  0  0  0  0  0  0  0  0  0  0  0
    3.3280    2.7702    0.0000 H   0  0  0  0  0  0  0  0  0  0  0  0
    2.5108    3.4610    0.0000 H   0  0  0  0  0  0  0  0  0  0  0  0
    0.6843    2.5782    0.0000 H   0  0  0  0  0  0  0  0  0  0  0  0
    0.8740    3.6313    0.0000 H   0  0  0  0  0  0  0  0  0  0  0  0
    2.8442    4.1147    0.0000 H   0  0  0  0  0  0  0  0  0  0  0  0
    2.0270    4.8055    0.0000 H   0  0  0  0  0  0  0  0  0  0  0  0
    3.4525    2.8642    0.0000 H   0  0  0  0  0  0  0  0  0  0  0  0
    5.3087    2.9221    0.0000 H   0  0  0  0  0  0  0  0  0  0  0  0
    6.5678    2.2467    0.0000 H   0  0  0  0  0  0  0  0  0  0  0  0
    7.5461    0.6682    0.0000 H   0  0  0  0  0  0  0  0  0  0  0  0
    6.6682   -0.9681    0.0000 H   0  0  0  0  0  0  0  0  0  0  0  0
    4.8122   -1.0261    0.0000 H   0  0  0  0  0  0  0  0  0  0  0  0
  2  3  1  0  0  0  0
  2 55  1  0  0  0  0
  2 56  1  0  0  0  0
  2 57  1  0  0  0  0
  3  4  1  0  0  0  0
  3  5  1  0  0  0  0
  3 54  1  0  0  0  0
  4 58  1  0  0  0  0
  4 59  1  0  0  0  0
  4 60  1  0  0  0  0
  5  6  2  3  0  0  0
  5 36  1  0  0  0  0
  6  7  1  0  0  0  0
  6 61  1  0  0  0  0
  7  8  2  3  0  0  0
  7 62  1  0  0  0  0
  8  9  1  0  0  0  0
  8 63  1  0  0  0  0
  9 10  2  3  0  0  0
  9 64  1  0  0  0  0
 10 11  1  0  0  0  0
 10 65  1  0  0  0  0
 11 12  2  3  0  0  0
 11 66  1  0  0  0  0
 12 13  1  0  0  0  0
 12 67  1  0  0  0  0
 13 14  2  0  0  0  0
 13 33  1  0  0  0  0
 14 15  1  0  0  0  0
 14 23  1  0  0  0  0
 15 16  1  0  0  0  0
 15 68  1  0  0  0  0
 15 69  1  0  0  0  0
 16 17  1  0  0  0  0
 16 70  1  0  0  0  0
 16 71  1  0  0  0  0
 17 18  1  0  0  0  0
 17 72  1  0  0  0  0
 17 73  1  0  0  0  0
 18 19  1  0  0  0  0
 18 74  1  0  0  0  0
 18 75  1  0  0  0  0
 19 20  1  0  0  0  0
 19 21  2  0  0  0  0
 19 22  2  0  0  0  0
 23 24  2  0  0  0  0
 23 32  1  0  0  0  0
 24 25  1  0  0  0  0
 24 76  1  0  0  0  0
 25 26  2  0  0  0  0
 25 77  1  0  0  0  0
 26 27  1  0  0  0  0
 26 31  1  0  0  0  0
 27 28  2  0  0  0  0
 27 78  1  0  0  0  0
 28 29  1  0  0  0  0
 28 79  1  0  0  0  0
 29 30  2  0  0  0  0
 29 80  1  0  0  0  0
 30 31  1  0  0  0  0
 30 81  1  0  0  0  0
 31 32  2  0  0  0  0
 32 33  1  0  0  0  0
 33 34  1  0  0  0  0
 33 35  1  0  0  0  0
 34 82  1  0  0  0  0
 34 83  1  0  0  0  0
 34 84  1  0  0  0  0
 35 85  1  0  0  0  0
 35 86  1  0  0  0  0
 35 87  1  0  0  0  0
 36 37  1  0  0  0  0
 36 45  1  0  0  0  0
 37 38  1  0  0  0  0
 37 88  1  0  0  0  0
 37 89  1  0  0  0  0
 38 39  1  0  0  0  0
 38 90  1  0  0  0  0
 38 91  1  0  0  0  0
 39 40  1  0  0  0  0
 39 92  1  0  0  0  0
 39 93  1  0  0  0  0
 40 41  1  0  0  0  0
 40 94  1  0  0  0  0
 40 95  1  0  0  0  0
 41 42  1  0  0  0  0
 41 43  2  0  0  0  0
 41 44  2  0  0  0  0
 45 46  2  0  0  0  0
 45 54  1  0  0  0  0
 46 47  1  0  0  0  0
 46 96  1  0  0  0  0
 47 48  2  0  0  0  0
 47 97  1  0  0  0  0
 48 49  1  0  0  0  0
 48 53  1  0  0  0  0
 49 50  2  0  0  0  0
 49 98  1  0  0  0  0
 50 51  1  0  0  0  0
 50 99  1  0  0  0  0
 51 52  2  0  0  0  0
 51100  1  0  0  0  0
 52 53  1  0  0  0  0
 52101  1  0  0  0  0
 53 54  2  0  0  0  0
M  CHG  4   1   1  14   1  20  -1  42  -1
M  END
>  <DRUGBANK_ID>
DB16024

>  <COMMON_NAME>
Indocyanine green

>  <CAS_NUMBER>
3599-32-4

>  <SYNONYMS>
Indocyanine green

$$$$
