LZ4
 OpenBabel10282417072D

 27 28  0  0  0  0  0  0  0  0999 V2000
   16.6667    7.1015    0.0000 N   0  0  0  0  0  0  0  0  0  0  0  0
   16.6667    6.2765    0.0000 S   0  0  0  0  0  0  0  0  0  0  0  0
   15.8417    6.2765    0.0000 O   0  0  0  0  0  0  0  0  0  0  0  0
   17.4917    6.2765    0.0000 O   0  0  0  0  0  0  0  0  0  0  0  0
   16.6667    5.4515    0.0000 C   0  0  0  0  0  0  0  0  0  0  0  0
   17.3812    5.0390    0.0000 C   0  0  0  0  0  0  0  0  0  0  0  0
   17.3812    4.2140    0.0000 C   0  0  0  0  0  0  0  0  0  0  0  0
   16.6667    3.8015    0.0000 C   0  0  0  0  0  0  0  0  0  0  0  0
   16.6667    2.9765    0.0000 N   0  0  0  0  0  0  0  0  0  0  0  0
   15.9522    2.5640    0.0000 C   0  0  0  0  0  0  0  0  0  0  0  0
   15.9522    1.7390    0.0000 C   0  0  0  0  0  0  0  0  0  0  0  0
   15.2377    1.3265    0.0000 N   0  0  0  0  0  0  0  0  0  0  0  0
   14.5233    1.7390    0.0000 C   0  0  0  0  0  0  0  0  0  0  0  0
   14.5233    2.5640    0.0000 C   0  0  0  0  0  0  0  0  0  0  0  0
   13.8088    2.9765    0.0000 Cl  0  0  0  0  0  0  0  0  0  0  0  0
   15.2377    2.9765    0.0000 N   0  0  0  0  0  0  0  0  0  0  0  0
   15.9522    4.2140    0.0000 C   0  0  0  0  0  0  0  0  0  0  0  0
   15.9522    5.0390    0.0000 C   0  0  0  0  0  0  0  0  0  0  0  0
   17.5500    7.6115    0.0000 H   0  0  0  0  0  0  0  0  0  0  0  0
   15.7834    7.6115    0.0000 H   0  0  0  0  0  0  0  0  0  0  0  0
   18.2749    5.5550    0.0000 H   0  0  0  0  0  0  0  0  0  0  0  0
   18.2749    3.6980    0.0000 H   0  0  0  0  0  0  0  0  0  0  0  0
   17.5193    2.4842    0.0000 H   0  0  0  0  0  0  0  0  0  0  0  0
   16.8459    1.2230    0.0000 H   0  0  0  0  0  0  0  0  0  0  0  0
   13.6296    1.2230    0.0000 H   0  0  0  0  0  0  0  0  0  0  0  0
   15.0585    3.6980    0.0000 H   0  0  0  0  0  0  0  0  0  0  0  0
   15.0585    5.5550    0.0000 H   0  0  0  0  0  0  0  0  0  0  0  0
  1  2  1  0  0  0  0
  1 19  1  0  0  0  0
  1 20  1  0  0  0  0
  2  3  2  0  0  0  0
  2  4  2  0  0  0  0
  2  5  1  0  0  0  0
  5  6  1  0  0  0  0
  5 18  2  0  0  0  0
  6  7  2  0  0  0  0
  6 21  1  0  0  0  0
  7  8  1  0  0  0  0
  7 22  1  0  0  0  0
  8  9  1  0  0  0  0
  8 17  2  0  0  0  0
  9 10  1  0  0  0  0
  9 23  1  0  0  0  0
 10 11  1  0  0  0  0
 10 16  2  0  0  0  0
 11 12  2  0  0  0  0
 11 24  1  0  0  0  0
 12 13  1  0  0  0  0
 13 14  2  0  0  0  0
 13 25  1  0  0  0  0
 14 15  1  0  0  0  0
 14 16  1  0  0  0  0
 17 18  1  0  0  0  0
 17 26  1  0  0  0  0
 18 27  1  0  0  0  0
M  END
>  <DRUGBANK_ID>
DB08134

>  <COMMON_NAME>
4-[(6-chloropyrazin-2-yl)amino]benzenesulfonamide

>  <UNII>
RMT3PKK7NW

$$$$
