AEH
 OpenBabel10282417072D

 27 27  0  0  0  0  0  0  0  0999 V2000
   -1.6789    0.3609    0.0000 C   0  0  0  0  0  0  0  0  0  0  0  0
    0.4646   -0.0516    0.0000 C   0  0  0  0  0  0  0  0  0  0  0  0
   -0.2499   -1.2891    0.0000 C   0  0  0  0  0  0  0  0  0  0  0  0
   -2.3933   -0.0516    0.0000 C   0  0  0  0  0  0  0  0  0  0  0  0
    1.1790    0.3609    0.0000 C   0  0  0  0  0  0  0  0  0  0  0  0
    2.6080    0.3609    0.0000 N   0  0  0  0  0  0  0  0  0  0  0  0
   -1.6789   -1.2891    0.0000 O   0  0  0  0  0  0  0  0  0  0  0  0
   -0.9644   -0.8766    0.0000 C   0  0  0  0  0  0  0  0  0  0  0  0
    0.4646   -0.8766    0.0000 C   0  0  0  0  0  0  0  0  0  0  0  0
    1.8935   -0.0516    0.0000 C   0  0  0  0  0  0  0  0  0  0  0  0
   -0.2499    0.3609    0.0000 C   0  0  0  0  0  0  0  0  0  0  0  0
   -0.9644   -0.0516    0.0000 C   0  0  0  0  0  0  0  0  0  0  0  0
   -1.6789    1.4309    0.0000 H   0  0  0  0  0  0  0  0  0  0  0  0
   -0.7523    0.8959    0.0000 H   0  0  0  0  0  0  0  0  0  0  0  0
   -0.2499   -2.3211    0.0000 H   0  0  0  0  0  0  0  0  0  0  0  0
   -3.3200    0.4834    0.0000 H   0  0  0  0  0  0  0  0  0  0  0  0
   -2.3933   -1.1216    0.0000 H   0  0  0  0  0  0  0  0  0  0  0  0
   -3.3199   -0.5866    0.0000 H   0  0  0  0  0  0  0  0  0  0  0  0
    1.1790    1.4309    0.0000 H   0  0  0  0  0  0  0  0  0  0  0  0
    2.1056    0.8959    0.0000 H   0  0  0  0  0  0  0  0  0  0  0  0
    3.4913   -0.1491    0.0000 H   0  0  0  0  0  0  0  0  0  0  0  0
    2.6080    1.3809    0.0000 H   0  0  0  0  0  0  0  0  0  0  0  0
   -2.4904   -0.8206    0.0000 H   0  0  0  0  0  0  0  0  0  0  0  0
    1.3583   -1.3926    0.0000 H   0  0  0  0  0  0  0  0  0  0  0  0
    1.8935   -1.1216    0.0000 H   0  0  0  0  0  0  0  0  0  0  0  0
    2.8201   -0.5866    0.0000 H   0  0  0  0  0  0  0  0  0  0  0  0
   -0.2499    1.3929    0.0000 H   0  0  0  0  0  0  0  0  0  0  0  0
  1  4  1  0  0  0  0
  1 12  1  0  0  0  0
  1 13  1  0  0  0  0
  1 14  1  0  0  0  0
  2  5  1  0  0  0  0
  2  9  2  0  0  0  0
  2 11  1  0  0  0  0
  3  8  2  0  0  0  0
  3  9  1  0  0  0  0
  3 15  1  0  0  0  0
  4 16  1  0  0  0  0
  4 17  1  0  0  0  0
  4 18  1  0  0  0  0
  5 10  1  0  0  0  0
  5 19  1  0  0  0  0
  5 20  1  0  0  0  0
  6 10  1  0  0  0  0
  6 21  1  0  0  0  0
  6 22  1  0  0  0  0
  7  8  1  0  0  0  0
  7 23  1  0  0  0  0
  8 12  1  0  0  0  0
  9 24  1  0  0  0  0
 10 25  1  0  0  0  0
 10 26  1  0  0  0  0
 11 12  2  0  0  0  0
 11 27  1  0  0  0  0
M  END
>  <DRUGBANK_ID>
DB07346

>  <COMMON_NAME>
4-(2-aminoethyl)-2-ethylphenol

$$$$
