501
 OpenBabel10282417072D

 45 47  0  0  0  0  0  0  0  0999 V2000
   -2.8446    2.2290    0.0000 C   0  0  0  0  0  0  0  0  0  0  0  0
   -2.0196    2.2290    0.0000 C   0  0  0  0  0  0  0  0  0  0  0  0
   -1.6071    1.5146    0.0000 C   0  0  0  0  0  0  0  0  0  0  0  0
   -2.0196    0.8001    0.0000 C   0  0  0  0  0  0  0  0  0  0  0  0
   -2.8446    0.8001    0.0000 C   0  0  0  0  0  0  0  0  0  0  0  0
   -3.2571    1.5146    0.0000 C   0  0  0  0  0  0  0  0  0  0  0  0
   -0.7821    1.5146    0.0000 N   0  0  0  0  0  0  0  0  0  0  0  0
   -0.3696    0.8001    0.0000 C   0  0  0  0  0  0  0  0  0  0  0  0
   -0.7052    0.0464    0.0000 N   0  0  0  0  0  0  0  0  0  0  0  0
   -0.0921   -0.5056    0.0000 C   0  0  0  0  0  0  0  0  0  0  0  0
    0.6224   -0.0931    0.0000 N   0  0  0  0  0  0  0  0  0  0  0  0
    0.4509    0.7139    0.0000 N   0  0  0  0  0  0  0  0  0  0  0  0
   -0.0921   -1.3306    0.0000 N   0  0  0  0  0  0  0  0  0  0  0  0
    0.6224   -1.7431    0.0000 C   0  0  0  0  0  0  0  0  0  0  0  0
    1.3369   -1.3306    0.0000 C   0  0  0  0  0  0  0  0  0  0  0  0
    1.3369   -0.5056    0.0000 C   0  0  0  0  0  0  0  0  0  0  0  0
    2.0513   -0.0931    0.0000 N   0  0  0  0  0  0  0  0  0  0  0  0
    2.7658   -0.5056    0.0000 C   0  0  0  0  0  0  0  0  0  0  0  0
    3.4803   -0.0931    0.0000 C   0  0  0  0  0  0  0  0  0  0  0  0
    4.1947   -0.5056    0.0000 C   0  0  0  0  0  0  0  0  0  0  0  0
    4.9092   -0.0931    0.0000 C   0  0  0  0  0  0  0  0  0  0  0  0
    0.6224   -2.5681    0.0000 C   0  0  0  0  0  0  0  0  0  0  0  0
   -3.2571    0.0856    0.0000 Cl  0  0  0  0  0  0  0  0  0  0  0  0
   -1.6071    2.9435    0.0000 C   0  0  0  0  0  0  0  0  0  0  0  0
   -3.3606    3.1227    0.0000 H   0  0  0  0  0  0  0  0  0  0  0  0
   -1.5036   -0.0936    0.0000 H   0  0  0  0  0  0  0  0  0  0  0  0
   -4.2891    1.5146    0.0000 H   0  0  0  0  0  0  0  0  0  0  0  0
   -0.2898    2.3672    0.0000 H   0  0  0  0  0  0  0  0  0  0  0  0
    2.2306   -1.8466    0.0000 H   0  0  0  0  0  0  0  0  0  0  0  0
    2.0513    0.8914    0.0000 H   0  0  0  0  0  0  0  0  0  0  0  0
    2.7658   -1.5756    0.0000 H   0  0  0  0  0  0  0  0  0  0  0  0
    3.6924   -1.0406    0.0000 H   0  0  0  0  0  0  0  0  0  0  0  0
    3.4803    0.9769    0.0000 H   0  0  0  0  0  0  0  0  0  0  0  0
    4.4070    0.4419    0.0000 H   0  0  0  0  0  0  0  0  0  0  0  0
    4.1947   -1.5756    0.0000 H   0  0  0  0  0  0  0  0  0  0  0  0
    5.1213   -1.0406    0.0000 H   0  0  0  0  0  0  0  0  0  0  0  0
    5.8358   -0.6281    0.0000 H   0  0  0  0  0  0  0  0  0  0  0  0
    4.9092    0.9769    0.0000 H   0  0  0  0  0  0  0  0  0  0  0  0
    5.8359    0.4419    0.0000 H   0  0  0  0  0  0  0  0  0  0  0  0
   -0.3042   -3.1031    0.0000 H   0  0  0  0  0  0  0  0  0  0  0  0
    1.5490   -3.1031    0.0000 H   0  0  0  0  0  0  0  0  0  0  0  0
    0.6224   -3.6381    0.0000 H   0  0  0  0  0  0  0  0  0  0  0  0
   -0.5371    2.9435    0.0000 H   0  0  0  0  0  0  0  0  0  0  0  0
   -2.1421    3.8701    0.0000 H   0  0  0  0  0  0  0  0  0  0  0  0
   -1.0721    3.8702    0.0000 H   0  0  0  0  0  0  0  0  0  0  0  0
  1  2  2  0  0  0  0
  1  6  1  0  0  0  0
  1 25  1  0  0  0  0
  2  3  1  0  0  0  0
  2 24  1  0  0  0  0
  3  4  2  0  0  0  0
  3  7  1  0  0  0  0
  4  5  1  0  0  0  0
  4 26  1  0  0  0  0
  5  6  2  0  0  0  0
  5 23  1  0  0  0  0
  6 27  1  0  0  0  0
  7  8  1  0  0  0  0
  7 28  1  0  0  0  0
  8  9  1  0  0  0  0
  8 12  2  0  0  0  0
  9 10  2  0  0  0  0
 10 11  1  0  0  0  0
 10 13  1  0  0  0  0
 11 12  1  0  0  0  0
 11 16  1  0  0  0  0
 13 14  2  0  0  0  0
 14 15  1  0  0  0  0
 14 22  1  0  0  0  0
 15 16  2  0  0  0  0
 15 29  1  0  0  0  0
 16 17  1  0  0  0  0
 17 18  1  0  0  0  0
 17 30  1  0  0  0  0
 18 19  1  0  0  0  0
 18 31  1  0  0  0  0
 18 32  1  0  0  0  0
 19 20  1  0  0  0  0
 19 33  1  0  0  0  0
 19 34  1  0  0  0  0
 20 21  1  0  0  0  0
 20 35  1  0  0  0  0
 20 36  1  0  0  0  0
 21 37  1  0  0  0  0
 21 38  1  0  0  0  0
 21 39  1  0  0  0  0
 22 40  1  0  0  0  0
 22 41  1  0  0  0  0
 22 42  1  0  0  0  0
 24 43  1  0  0  0  0
 24 44  1  0  0  0  0
 24 45  1  0  0  0  0
M  END
>  <DRUGBANK_ID>
DB07128

>  <COMMON_NAME>
N7-BUTYL-N2-(5-CHLORO-2-METHYLPHENYL)-5-METHYL[1,2,4]TRIAZOLO[1,5-A]PYRIMIDINE-2,7-DIAMINE

$$$$
