
 OpenBabel10282417072D

 73 74  0  0  0  0  0  0  0  0999 V2000
    8.5737   -9.9000    0.0000 C   0  0  0  0  0  0  0  0  0  0  0  0
    8.5737   -9.0750    0.0000 C   0  0  0  0  0  0  0  0  0  0  0  0
    9.2881   -8.6625    0.0000 C   0  0  0  0  0  0  0  0  0  0  0  0
    7.8592   -8.6625    0.0000 C   0  0  0  0  0  0  0  0  0  0  0  0
    7.8592   -7.8375    0.0000 N   0  0  0  0  0  0  0  0  0  0  0  0
    7.1447   -7.4250    0.0000 C   0  0  0  0  0  0  0  0  0  0  0  0
    6.4302   -7.8375    0.0000 C   0  0  0  0  0  0  0  0  0  0  0  0
    6.4302   -8.6625    0.0000 O   0  0  0  0  0  0  0  0  0  0  0  0
    5.7158   -7.4250    0.0000 N   0  0  0  0  0  0  0  0  0  0  0  0
    5.0013   -7.8375    0.0000 C   0  0  0  0  0  0  0  0  0  0  0  0
    4.2868   -7.4250    0.0000 C   0  0  0  0  0  0  0  0  0  0  0  0
    3.5724   -7.8375    0.0000 C   0  0  0  0  0  0  0  0  0  0  0  0
    2.8579   -7.4250    0.0000 N   0  0  0  0  0  0  0  0  0  0  0  0
    2.1042   -7.7606    0.0000 C   0  0  0  0  0  0  0  0  0  0  0  0
    1.5522   -7.1475    0.0000 C   0  0  0  0  0  0  0  0  0  0  0  0
    1.9647   -6.4330    0.0000 C   0  0  0  0  0  0  0  0  0  0  0  0
    2.7716   -6.6045    0.0000 C   0  0  0  0  0  0  0  0  0  0  0  0
    3.3847   -6.0525    0.0000 O   0  0  0  0  0  0  0  0  0  0  0  0
    5.7158   -6.6000    0.0000 C   0  0  0  0  0  0  0  0  0  0  0  0
    5.0013   -6.1875    0.0000 C   0  0  0  0  0  0  0  0  0  0  0  0
    4.2868   -6.6000    0.0000 N   0  0  0  0  0  0  0  0  0  0  0  0
    5.0013   -5.3625    0.0000 O   0  0  0  0  0  0  0  0  0  0  0  0
    8.5737   -7.4250    0.0000 C   0  0  0  0  0  0  0  0  0  0  0  0
    8.5737   -6.6000    0.0000 O   0  0  0  0  0  0  0  0  0  0  0  0
    9.2881   -7.8375    0.0000 C   0  0  0  0  0  0  0  0  0  0  0  0
   10.0026   -7.4250    0.0000 N   0  0  0  0  0  0  0  0  0  0  0  0
   10.7171   -7.8375    0.0000 C   0  0  0  0  0  0  0  0  0  0  0  0
   11.4315   -7.4250    0.0000 C   0  0  0  0  0  0  0  0  0  0  0  0
   12.1460   -7.8375    0.0000 C   0  0  0  0  0  0  0  0  0  0  0  0
   12.8605   -7.4250    0.0000 C   0  0  0  0  0  0  0  0  0  0  0  0
   13.5749   -7.8375    0.0000 C   0  0  0  0  0  0  0  0  0  0  0  0
   13.5749   -8.6625    0.0000 C   0  0  0  0  0  0  0  0  0  0  0  0
   12.8605   -9.0750    0.0000 C   0  0  0  0  0  0  0  0  0  0  0  0
   12.1460   -8.6625    0.0000 C   0  0  0  0  0  0  0  0  0  0  0  0
   11.4315   -9.0750    0.0000 F   0  0  0  0  0  0  0  0  0  0  0  0
    7.6471  -10.4350    0.0000 H   0  0  0  0  0  0  0  0  0  0  0  0
    9.5003  -10.4350    0.0000 H   0  0  0  0  0  0  0  0  0  0  0  0
    8.5737  -10.9700    0.0000 H   0  0  0  0  0  0  0  0  0  0  0  0
    8.5737   -8.0050    0.0000 H   0  0  0  0  0  0  0  0  0  0  0  0
   10.2148   -9.1975    0.0000 H   0  0  0  0  0  0  0  0  0  0  0  0
    9.2881   -7.5925    0.0000 H   0  0  0  0  0  0  0  0  0  0  0  0
   10.2147   -8.1275    0.0000 H   0  0  0  0  0  0  0  0  0  0  0  0
    6.9326   -9.1975    0.0000 H   0  0  0  0  0  0  0  0  0  0  0  0
    6.9326   -8.1275    0.0000 H   0  0  0  0  0  0  0  0  0  0  0  0
    7.1447   -6.3550    0.0000 H   0  0  0  0  0  0  0  0  0  0  0  0
    6.2181   -6.8900    0.0000 H   0  0  0  0  0  0  0  0  0  0  0  0
    5.0013   -8.9075    0.0000 H   0  0  0  0  0  0  0  0  0  0  0  0
    4.0747   -8.3725    0.0000 H   0  0  0  0  0  0  0  0  0  0  0  0
    4.2868   -6.3550    0.0000 H   0  0  0  0  0  0  0  0  0  0  0  0
    3.3601   -6.8900    0.0000 H   0  0  0  0  0  0  0  0  0  0  0  0
    3.5724   -8.9075    0.0000 H   0  0  0  0  0  0  0  0  0  0  0  0
    2.6458   -8.3725    0.0000 H   0  0  0  0  0  0  0  0  0  0  0  0
    1.8817   -8.8072    0.0000 H   0  0  0  0  0  0  0  0  0  0  0  0
    1.0707   -8.0375    0.0000 H   0  0  0  0  0  0  0  0  0  0  0  0
    0.4881   -7.2593    0.0000 H   0  0  0  0  0  0  0  0  0  0  0  0
    0.9694   -6.2501    0.0000 H   0  0  0  0  0  0  0  0  0  0  0  0
    1.5295   -5.4555    0.0000 H   0  0  0  0  0  0  0  0  0  0  0  0
    2.6381   -5.6014    0.0000 H   0  0  0  0  0  0  0  0  0  0  0  0
    6.6424   -6.0650    0.0000 H   0  0  0  0  0  0  0  0  0  0  0  0
    5.7158   -5.5300    0.0000 H   0  0  0  0  0  0  0  0  0  0  0  0
    3.4342   -6.1077    0.0000 H   0  0  0  0  0  0  0  0  0  0  0  0
    4.2868   -7.5845    0.0000 H   0  0  0  0  0  0  0  0  0  0  0  0
    9.2881   -8.9075    0.0000 H   0  0  0  0  0  0  0  0  0  0  0  0
   10.2147   -8.3725    0.0000 H   0  0  0  0  0  0  0  0  0  0  0  0
   10.0026   -6.4050    0.0000 H   0  0  0  0  0  0  0  0  0  0  0  0
   10.7171   -8.9075    0.0000 H   0  0  0  0  0  0  0  0  0  0  0  0
   11.6438   -8.3725    0.0000 H   0  0  0  0  0  0  0  0  0  0  0  0
   11.4315   -6.3550    0.0000 H   0  0  0  0  0  0  0  0  0  0  0  0
   12.3581   -6.8900    0.0000 H   0  0  0  0  0  0  0  0  0  0  0  0
   12.8605   -6.3930    0.0000 H   0  0  0  0  0  0  0  0  0  0  0  0
   14.4686   -7.3215    0.0000 H   0  0  0  0  0  0  0  0  0  0  0  0
   14.4686   -9.1785    0.0000 H   0  0  0  0  0  0  0  0  0  0  0  0
   12.8605  -10.1070    0.0000 H   0  0  0  0  0  0  0  0  0  0  0  0
  1  2  1  0  0  0  0
  1 36  1  0  0  0  0
  1 37  1  0  0  0  0
  1 38  1  0  0  0  0
  2  3  1  0  0  0  0
  2  4  1  0  0  0  0
  2 39  1  0  0  0  0
  3 40  1  0  0  0  0
  3 41  1  0  0  0  0
  3 42  1  0  0  0  0
  4  5  1  0  0  0  0
  4 43  1  0  0  0  0
  4 44  1  0  0  0  0
  5  6  1  0  0  0  0
  5 23  1  0  0  0  0
  6  7  1  0  0  0  0
  6 45  1  0  0  0  0
  6 46  1  0  0  0  0
  7  8  2  0  0  0  0
  7  9  1  0  0  0  0
  9 10  1  0  0  0  0
  9 19  1  0  0  0  0
 10 11  1  0  0  0  0
 10 47  1  0  0  0  0
 10 48  1  0  0  0  0
 11 12  1  0  0  0  0
 11 49  1  0  0  0  0
 11 50  1  0  0  0  0
 12 13  1  0  0  0  0
 12 51  1  0  0  0  0
 12 52  1  0  0  0  0
 13 14  1  0  0  0  0
 13 17  1  0  0  0  0
 14 15  1  0  0  0  0
 14 53  1  0  0  0  0
 14 54  1  0  0  0  0
 15 16  1  0  0  0  0
 15 55  1  0  0  0  0
 15 56  1  0  0  0  0
 16 17  1  0  0  0  0
 16 57  1  0  0  0  0
 16 58  1  0  0  0  0
 17 18  2  0  0  0  0
 19 20  1  0  0  0  0
 19 59  1  0  0  0  0
 19 60  1  0  0  0  0
 20 21  1  0  0  0  0
 20 22  2  0  0  0  0
 21 61  1  0  0  0  0
 21 62  1  0  0  0  0
 23 24  2  0  0  0  0
 23 25  1  0  0  0  0
 25 26  1  0  0  0  0
 25 63  1  0  0  0  0
 25 64  1  0  0  0  0
 26 27  1  0  0  0  0
 26 65  1  0  0  0  0
 27 28  1  0  0  0  0
 27 66  1  0  0  0  0
 27 67  1  0  0  0  0
 28 29  1  0  0  0  0
 28 68  1  0  0  0  0
 28 69  1  0  0  0  0
 29 30  2  0  0  0  0
 29 34  1  0  0  0  0
 30 31  1  0  0  0  0
 30 70  1  0  0  0  0
 31 32  2  0  0  0  0
 31 71  1  0  0  0  0
 32 33  1  0  0  0  0
 32 72  1  0  0  0  0
 33 34  2  0  0  0  0
 33 73  1  0  0  0  0
 34 35  1  0  0  0  0
M  END
>  <DRUGBANK_ID>
DB18295

>  <COMMON_NAME>
BN-201

>  <CAS_NUMBER>
1361200-34-1

>  <UNII>
KCN37L7EIH

>  <SYNONYMS>
Glycinamide, n-(2-(2-fluorophenyl)ethyl)glycyl-n-(2-methylpropyl)glycyl-n2-(3-(2-oxo-1-pyrrolidinyl)propyl)-; N-(2-amino-2-oxoethyl)-2-(2-((4-fluorophenethyl)amino)-N-isobutylacetamido)-N-(3-(2-oxopyrrolidin-1-yl)propyl)acetamide N-({Carbamoylmethyl-[3-(2-oxo-pyrrolidin-1-yl)propyl}-carbamoyl}-methyl)-2-[2-(2-fluorophenyl)-ethylamino]-N-isobutyl-acetamide

$$$$
