
 OpenBabel10282417072D

 31 31  0  0  0  0  0  0  0  0999 V2000
    1.0657    1.1161    0.0000 C   0  0  0  0  0  0  0  0  0  0  0  0
    0.3513    0.7036    0.0000 C   0  0  2  0  0  0  0  0  0  0  0  0
   -0.3631    1.1161    0.0000 C   0  0  2  0  0  0  0  0  0  0  0  0
   -1.0776    0.7036    0.0000 C   0  0  1  0  0  0  0  0  0  0  0  0
   -1.0776   -0.1213    0.0000 C   0  0  2  0  0  0  0  0  0  0  0  0
   -0.8934   -1.1658    0.0000 C   0  0  3  0  0  0  0  0  0  0  0  0
   -0.3631   -0.5338    0.0000 C   0  0  2  0  0  0  0  0  0  0  0  0
   -0.6112   -1.9411    0.0000 N   0  0  0  0  0  0  0  0  0  0  0  0
    1.7920   -0.8793    0.0000 N   0  5  0  0  0  0  0  0  0  0  0  0
    0.1671   -1.1658    0.0000 N   0  0  0  0  0  0  0  0  0  0  0  0
    0.9796   -1.0226    0.0000 N   0  3  0  0  0  0  0  0  0  0  0  0
    1.0657    1.9411    0.0000 O   0  0  0  0  0  0  0  0  0  0  0  0
   -0.3631    1.9411    0.0000 O   0  0  0  0  0  0  0  0  0  0  0  0
   -1.7920    1.1161    0.0000 O   0  0  0  0  0  0  0  0  0  0  0  0
   -1.7920   -0.5338    0.0000 O   0  0  0  0  0  0  0  0  0  0  0  0
   -1.7059   -1.0226    0.0000 O   0  0  0  0  0  0  0  0  0  0  0  0
    0.3513   -0.1213    0.0000 O   0  0  0  0  0  0  0  0  0  0  0  0
    0.3513    1.5286    0.0000 H   0  0  0  0  0  0  0  0  0  0  0  0
   -1.0776    1.5286    0.0000 H   0  0  0  0  0  0  0  0  0  0  0  0
   -0.3631    0.2911    0.0000 H   0  0  0  0  0  0  0  0  0  0  0  0
   -1.7920    0.2911    0.0000 H   0  0  0  0  0  0  0  0  0  0  0  0
   -0.0809   -1.3091    0.0000 H   0  0  0  0  0  0  0  0  0  0  0  0
    1.9924    0.5811    0.0000 H   0  0  0  0  0  0  0  0  0  0  0  0
    1.9923    1.6511    0.0000 H   0  0  0  0  0  0  0  0  0  0  0  0
   -1.2668   -2.7225    0.0000 H   0  0  0  0  0  0  0  0  0  0  0  0
    0.3933   -2.1182    0.0000 H   0  0  0  0  0  0  0  0  0  0  0  0
    1.9057    2.4261    0.0000 H   0  0  0  0  0  0  0  0  0  0  0  0
    0.4769    2.4261    0.0000 H   0  0  0  0  0  0  0  0  0  0  0  0
   -1.7920    2.0861    0.0000 H   0  0  0  0  0  0  0  0  0  0  0  0
   -2.6321   -0.0488    0.0000 H   0  0  0  0  0  0  0  0  0  0  0  0
   -2.0377   -0.1111    0.0000 H   0  0  0  0  0  0  0  0  0  0  0  0
  1 23  1  0  0  0  0
  1 24  1  0  0  0  0
  2  1  1  0  0  0  0
  2 17  1  0  0  0  0
  2 18  1  6  0  0  0
  3  2  1  0  0  0  0
  3  4  1  0  0  0  0
  3 13  1  0  0  0  0
  3 19  1  1  0  0  0
  4  5  1  0  0  0  0
  4 14  1  0  0  0  0
  4 20  1  6  0  0  0
  5  7  1  0  0  0  0
  5 15  1  0  0  0  0
  5 21  1  1  0  0  0
  7  6  1  0  0  0  0
  7 10  1  1  0  0  0
  7 17  1  0  0  0  0
  8  6  1  0  0  0  0
  8 25  1  0  0  0  0
  8 26  1  0  0  0  0
 11  9  2  0  0  0  0
 11 10  2  0  0  0  0
 12  1  1  0  0  0  0
 12 27  1  0  0  0  0
 13 28  1  0  0  0  0
 14 29  1  0  0  0  0
 15 30  1  0  0  0  0
 16  6  1  0  0  0  0
 16 31  1  0  0  0  0
 22  6  1  0  0  0  0
M  CHG  2   9  -1  11   1
M  END
>  <DRUGBANK_ID>
DB03286

>  <SECONDARY_ACCESSION_NUMBERS>
EXPT00899

>  <COMMON_NAME>
C-(1-Azido-Alpha-D-Glucopyranosyl) Formamide

$$$$
