
 OpenBabel10282417072D

 60 63  0  0  0  0  0  0  0  0999 V2000
    1.4289    2.4267    0.0000 C   0  0  0  0  0  0  0  0  0  0  0  0
    0.7144    2.0142    0.0000 C   0  0  2  0  0  0  0  0  0  0  0  0
    0.7144    1.1892    0.0000 C   0  0  0  0  0  0  0  0  0  0  0  0
    0.0000    0.7767    0.0000 N   0  0  3  0  0  0  0  0  0  0  0  0
   -0.7144    1.1892    0.0000 C   0  0  0  0  0  0  0  0  0  0  0  0
   -0.7144    2.0142    0.0000 C   0  0  0  0  0  0  0  0  0  0  0  0
    0.0000    2.4267    0.0000 C   0  0  1  0  0  0  0  0  0  0  0  0
    0.3873    3.1551    0.0000 C   0  0  0  0  0  0  0  0  0  0  0  0
    0.4448    3.9781    0.0000 O   0  0  0  0  0  0  0  0  0  0  0  0
    1.2118    3.1839    0.0000 O   0  0  0  0  0  0  0  0  0  0  0  0
   -0.3873    3.1551    0.0000 C   0  0  0  0  0  0  0  0  0  0  0  0
   -1.2118    3.1839    0.0000 C   0  0  0  0  0  0  0  0  0  0  0  0
   -1.5991    3.9123    0.0000 C   0  0  0  0  0  0  0  0  0  0  0  0
   -1.1619    4.6120    0.0000 C   0  0  0  0  0  0  0  0  0  0  0  0
   -0.3374    4.5832    0.0000 C   0  0  0  0  0  0  0  0  0  0  0  0
    0.0498    3.8548    0.0000 C   0  0  0  0  0  0  0  0  0  0  0  0
    0.0000   -0.0482    0.0000 C   0  0  2  0  0  0  0  0  0  0  0  0
   -0.7144   -0.4607    0.0000 C   0  0  0  0  0  0  0  0  0  0  0  0
   -0.7144   -1.2857    0.0000 C   0  0  0  0  0  0  0  0  0  0  0  0
    0.0000   -1.6982    0.0000 C   0  0  1  0  0  0  0  0  0  0  0  0
    0.7144   -1.2857    0.0000 C   0  0  0  0  0  0  0  0  0  0  0  0
    0.7144   -0.4607    0.0000 C   0  0  0  0  0  0  0  0  0  0  0  0
   -0.3873   -2.4267    0.0000 C   0  0  0  0  0  0  0  0  0  0  0  0
   -0.7746   -3.1551    0.0000 N   0  0  0  0  0  0  0  0  0  0  0  0
    0.3873   -2.4267    0.0000 C   0  0  0  0  0  0  0  0  0  0  0  0
    1.2118   -2.4554    0.0000 C   0  0  0  0  0  0  0  0  0  0  0  0
    1.5991   -3.1839    0.0000 C   0  0  0  0  0  0  0  0  0  0  0  0
    1.1619   -3.8835    0.0000 C   0  0  0  0  0  0  0  0  0  0  0  0
    1.5492   -4.6120    0.0000 F   0  0  0  0  0  0  0  0  0  0  0  0
    0.3374   -3.8548    0.0000 C   0  0  0  0  0  0  0  0  0  0  0  0
   -0.0498   -3.1264    0.0000 C   0  0  0  0  0  0  0  0  0  0  0  0
    2.3555    1.8917    0.0000 H   0  0  0  0  0  0  0  0  0  0  0  0
    1.4289    3.4967    0.0000 H   0  0  0  0  0  0  0  0  0  0  0  0
    2.3556    2.9617    0.0000 H   0  0  0  0  0  0  0  0  0  0  0  0
    1.6410    1.4792    0.0000 H   0  0  0  0  0  0  0  0  0  0  0  0
    1.6411    0.6542    0.0000 H   0  0  0  0  0  0  0  0  0  0  0  0
    0.7144    0.1192    0.0000 H   0  0  0  0  0  0  0  0  0  0  0  0
   -1.6411    0.6542    0.0000 H   0  0  0  0  0  0  0  0  0  0  0  0
   -1.6410    1.7242    0.0000 H   0  0  0  0  0  0  0  0  0  0  0  0
   -1.6411    2.5492    0.0000 H   0  0  0  0  0  0  0  0  0  0  0  0
   -0.7144    3.0842    0.0000 H   0  0  0  0  0  0  0  0  0  0  0  0
    1.7083    2.3893    0.0000 H   0  0  0  0  0  0  0  0  0  0  0  0
   -1.7587    2.3087    0.0000 H   0  0  0  0  0  0  0  0  0  0  0  0
   -2.6305    3.9483    0.0000 H   0  0  0  0  0  0  0  0  0  0  0  0
   -1.6464    5.5232    0.0000 H   0  0  0  0  0  0  0  0  0  0  0  0
    0.2095    5.4584    0.0000 H   0  0  0  0  0  0  0  0  0  0  0  0
    1.0812    3.8188    0.0000 H   0  0  0  0  0  0  0  0  0  0  0  0
   -0.9267    0.4868    0.0000 H   0  0  0  0  0  0  0  0  0  0  0  0
   -1.6411    0.0743    0.0000 H   0  0  0  0  0  0  0  0  0  0  0  0
   -1.6410   -0.9957    0.0000 H   0  0  0  0  0  0  0  0  0  0  0  0
   -1.6411   -1.8207    0.0000 H   0  0  0  0  0  0  0  0  0  0  0  0
   -0.7144   -2.3557    0.0000 H   0  0  0  0  0  0  0  0  0  0  0  0
    1.6411   -1.8207    0.0000 H   0  0  0  0  0  0  0  0  0  0  0  0
    1.6410   -0.7507    0.0000 H   0  0  0  0  0  0  0  0  0  0  0  0
    1.6411    0.0743    0.0000 H   0  0  0  0  0  0  0  0  0  0  0  0
    0.7144    0.6093    0.0000 H   0  0  0  0  0  0  0  0  0  0  0  0
    1.7587   -1.5802    0.0000 H   0  0  0  0  0  0  0  0  0  0  0  0
    2.6305   -3.2200    0.0000 H   0  0  0  0  0  0  0  0  0  0  0  0
   -0.2095   -4.7300    0.0000 H   0  0  0  0  0  0  0  0  0  0  0  0
   -1.0812   -3.0904    0.0000 H   0  0  0  0  0  0  0  0  0  0  0  0
  1 32  1  0  0  0  0
  1 33  1  0  0  0  0
  1 34  1  0  0  0  0
  2  1  1  0  0  0  0
  2  3  1  0  0  0  0
  2  7  1  0  0  0  0
  2 35  1  1  0  0  0
  3  4  1  0  0  0  0
  3 36  1  0  0  0  0
  3 37  1  0  0  0  0
  4  5  1  0  0  0  0
  5  6  1  0  0  0  0
  5 38  1  0  0  0  0
  5 39  1  0  0  0  0
  6  7  1  0  0  0  0
  6 40  1  0  0  0  0
  6 41  1  0  0  0  0
  7  8  1  1  0  0  0
  7 11  1  0  0  0  0
  8  9  2  0  0  0  0
  8 10  1  0  0  0  0
 10 42  1  0  0  0  0
 11 12  2  0  0  0  0
 11 16  1  0  0  0  0
 12 13  1  0  0  0  0
 12 43  1  0  0  0  0
 13 14  2  0  0  0  0
 13 44  1  0  0  0  0
 14 15  1  0  0  0  0
 14 45  1  0  0  0  0
 15 16  2  0  0  0  0
 15 46  1  0  0  0  0
 16 47  1  0  0  0  0
 17  4  1  0  0  0  0
 17 18  1  0  0  0  0
 17 22  1  0  0  0  0
 17 48  1  6  0  0  0
 18 19  1  0  0  0  0
 18 49  1  0  0  0  0
 18 50  1  0  0  0  0
 19 20  1  0  0  0  0
 19 51  1  0  0  0  0
 19 52  1  0  0  0  0
 20 21  1  0  0  0  0
 20 23  1  1  0  0  0
 20 25  1  0  0  0  0
 21 22  1  0  0  0  0
 21 53  1  0  0  0  0
 21 54  1  0  0  0  0
 22 55  1  0  0  0  0
 22 56  1  0  0  0  0
 23 24  3  0  0  0  0
 25 26  2  0  0  0  0
 25 31  1  0  0  0  0
 26 27  1  0  0  0  0
 26 57  1  0  0  0  0
 27 28  2  0  0  0  0
 27 58  1  0  0  0  0
 28 29  1  0  0  0  0
 28 30  1  0  0  0  0
 30 31  2  0  0  0  0
 30 59  1  0  0  0  0
 31 60  1  0  0  0  0
M  END
>  <DRUGBANK_ID>
DB01106

>  <SECONDARY_ACCESSION_NUMBERS>
APRD01069

>  <COMMON_NAME>
Levocabastine

>  <CAS_NUMBER>
79516-68-0

>  <UNII>
H68BP06S81

>  <SYNONYMS>
Levocabastina; Levocabastine; Levocabastinum

$$$$
