
 OpenBabel10282417072D

 18 14  0  0  0  0  0  0  0  0999 V2000
   -0.5045    1.1269    0.0000 C   0  0  0  0  0  0  0  0  0  0  0  0
   -2.1545    1.1269    0.0000 O   0  5  0  0  0  0  0  0  0  0  0  0
   -1.3295    1.9519    0.0000 O   0  5  0  0  0  0  0  0  0  0  0  0
   -1.3295    0.3019    0.0000 O   0  0  0  0  0  0  0  0  0  0  0  0
    0.3204   -0.3019    0.0000 O   0  5  0  0  0  0  0  0  0  0  0  0
    0.6224    0.8250    0.0000 O   0  5  0  0  0  0  0  0  0  0  0  0
   -0.8065    0.0000    0.0000 O   0  0  0  0  0  0  0  0  0  0  0  0
   -1.3295    1.1269    0.0000 P   0  0  0  0  0  0  0  0  0  0  0  0
   -0.0920    0.4125    0.0000 P   0  0  0  0  0  0  0  0  0  0  0  0
    2.9795    0.7697    0.0000 O   0  0  0  0  0  0  0  0  0  0  0  0
   -0.9583   -1.9519    0.0000 O   0  0  0  0  0  0  0  0  0  0  0  0
   -2.9795    1.1269    0.0000 Tc  0  0  0  0  0  0  0  0  0  0  0  0
    0.0305    2.0536    0.0000 H   0  0  0  0  0  0  0  0  0  0  0  0
    0.5655    1.1269    0.0000 H   0  0  0  0  0  0  0  0  0  0  0  0
    3.9495    0.7697    0.0000 H   0  0  0  0  0  0  0  0  0  0  0  0
    2.4945    1.6097    0.0000 H   0  0  0  0  0  0  0  0  0  0  0  0
    0.0117   -1.9519    0.0000 H   0  0  0  0  0  0  0  0  0  0  0  0
   -1.4433   -1.1119    0.0000 H   0  0  0  0  0  0  0  0  0  0  0  0
  1 13  1  0  0  0  0
  1 14  1  0  0  0  0
  8  1  1  0  0  0  0
  8  2  1  0  0  0  0
  8  3  1  0  0  0  0
  8  4  2  0  0  0  0
  9  1  1  0  0  0  0
  9  5  1  0  0  0  0
  9  6  1  0  0  0  0
  9  7  2  0  0  0  0
 10 15  1  0  0  0  0
 10 16  1  0  0  0  0
 11 17  1  0  0  0  0
 11 18  1  0  0  0  0
M  ISO  1  12  98
M  CHG  5   2  -1   3  -1   5  -1   6  -1  12   4
M  END
>  <DRUGBANK_ID>
DB09138

>  <COMMON_NAME>
Technetium Tc-99m medronate

>  <CAS_NUMBER>
121524-79-6

>  <UNII>
X89XV46R07

>  <SYNONYMS>
99m Tc medronate; 99m Tc-medronate; 99mTc medronate; 99mTc-medronate; AN-MDP; Cis-Mdp; Tc 99m Mdp; Tc-99m Mdp; Technetium (99mTc) medronic acid; Technetium (99mTc) Methylenediphosphonate; Technetium 99mTc medronic acid; Technetium methylene diphosphonate; Technetium Tc 99m medronate; Technetium Tc 99m medronic acid; Technetium Tc 99M Mpi Mdp

$$$$
