
 OpenBabel10282417072D

 63 67  0  0  0  0  0  0  0  0999 V2000
    0.9409    0.6118    0.0000 P   0  0  3  0  0  0  0  0  0  0  0  0
    3.6896    0.6168    0.0000 O   0  0  0  0  0  0  0  0  0  0  0  0
   -1.1501   -0.8439    0.0000 O   0  0  0  0  0  0  0  0  0  0  0  0
    1.6092    1.0956    0.0000 O   0  0  0  0  0  0  0  0  0  0  0  0
    0.2726    0.1280    0.0000 O   0  0  0  0  0  0  0  0  0  0  0  0
    1.9793   -0.6606    0.0000 O   0  0  0  0  0  0  0  0  0  0  0  0
   -2.1864    1.0225    0.0000 O   0  0  0  0  0  0  0  0  0  0  0  0
   -3.2439   -0.4277    0.0000 O   0  0  0  0  0  0  0  0  0  0  0  0
    4.5891   -0.8528    0.0000 O   0  0  0  0  0  0  0  0  0  0  0  0
    1.4246   -0.0565    0.0000 O   0  0  0  0  0  0  0  0  0  0  0  0
    0.4571    1.2800    0.0000 O   0  0  0  0  0  0  0  0  0  0  0  0
    4.5860    1.8384    0.0000 O   0  0  0  0  0  0  0  0  0  0  0  0
    3.4281    4.4513    0.0000 O   0  0  0  0  0  0  0  0  0  0  0  0
   -2.1915   -1.8816    0.0000 N   0  0  0  0  0  0  0  0  0  0  0  0
    3.1652    1.9903    0.0000 N   0  0  0  0  0  0  0  0  0  0  0  0
   -2.1915   -3.2094    0.0000 N   0  0  0  0  0  0  0  0  0  0  0  0
    4.0071    3.1449    0.0000 N   0  0  0  0  0  0  0  0  0  0  0  0
   -3.6867   -1.7205    0.0000 N   0  0  0  0  0  0  0  0  0  0  0  0
   -4.4011   -2.9580    0.0000 N   0  0  0  0  0  0  0  0  0  0  0  0
   -3.6867   -4.1956    0.0000 N   0  0  0  0  0  0  0  0  0  0  0  0
    2.3623    0.7586    0.0000 C   0  0  2  0  0  0  0  0  0  0  0  0
    2.5325   -0.0485    0.0000 C   0  0  1  0  0  0  0  0  0  0  0  0
    3.0775    1.1699    0.0000 C   0  0  1  0  0  0  0  0  0  0  0  0
   -1.1487   -0.0188    0.0000 C   0  0  1  0  0  0  0  0  0  0  0  0
   -1.9329    0.2374    0.0000 C   0  0  2  0  0  0  0  0  0  0  0  0
   -2.4189   -0.4291    0.0000 C   0  0  2  0  0  0  0  0  0  0  0  0
    3.3528   -0.1362    0.0000 C   0  0  1  0  0  0  0  0  0  0  0  0
   -1.9352   -1.0974    0.0000 C   0  0  1  0  0  0  0  0  0  0  0  0
   -0.4804    0.4648    0.0000 C   0  0  0  0  0  0  0  0  0  0  0  0
    3.7640   -0.8514    0.0000 C   0  0  0  0  0  0  0  0  0  0  0  0
   -2.9722   -2.1330    0.0000 C   0  0  0  0  0  0  0  0  0  0  0  0
   -1.7100   -2.5455    0.0000 C   0  0  0  0  0  0  0  0  0  0  0  0
    3.9194    2.3245    0.0000 C   0  0  0  0  0  0  0  0  0  0  0  0
    2.4985    2.4764    0.0000 C   0  0  0  0  0  0  0  0  0  0  0  0
   -2.9722   -2.9580    0.0000 C   0  0  0  0  0  0  0  0  0  0  0  0
    2.5862    3.2967    0.0000 C   0  0  0  0  0  0  0  0  0  0  0  0
    3.3405    3.6310    0.0000 C   0  0  0  0  0  0  0  0  0  0  0  0
   -3.6867   -3.3705    0.0000 C   0  0  0  0  0  0  0  0  0  0  0  0
   -4.4011   -2.1330    0.0000 C   0  0  0  0  0  0  0  0  0  0  0  0
    1.0309   -0.4572    0.0000 H   0  0  0  0  0  0  0  0  0  0  0  0
   -1.5360    1.7422    0.0000 H   0  0  0  0  0  0  0  0  0  0  0  0
   -3.7275    0.4132    0.0000 H   0  0  0  0  0  0  0  0  0  0  0  0
    5.0727   -1.6937    0.0000 H   0  0  0  0  0  0  0  0  0  0  0  0
    1.0285   -0.9419    0.0000 H   0  0  0  0  0  0  0  0  0  0  0  0
    4.9072    3.5437    0.0000 H   0  0  0  0  0  0  0  0  0  0  0  0
   -4.5393   -4.6879    0.0000 H   0  0  0  0  0  0  0  0  0  0  0  0
   -2.8341   -4.6879    0.0000 H   0  0  0  0  0  0  0  0  0  0  0  0
    1.5296    0.0867    0.0000 H   0  0  0  0  0  0  0  0  0  0  0  0
    1.4994    0.2302    0.0000 H   0  0  0  0  0  0  0  0  0  0  0  0
    4.0771    1.5516    0.0000 H   0  0  0  0  0  0  0  0  0  0  0  0
   -0.1962   -0.5063    0.0000 H   0  0  0  0  0  0  0  0  0  0  0  0
   -1.1750    0.9927    0.0000 H   0  0  0  0  0  0  0  0  0  0  0  0
   -2.9030    0.5251    0.0000 H   0  0  0  0  0  0  0  0  0  0  0  0
    4.4214   -0.0821    0.0000 H   0  0  0  0  0  0  0  0  0  0  0  0
   -1.1799   -1.8554    0.0000 H   0  0  0  0  0  0  0  0  0  0  0  0
   -0.5903    1.5291    0.0000 H   0  0  0  0  0  0  0  0  0  0  0  0
   -1.4571    0.9018    0.0000 H   0  0  0  0  0  0  0  0  0  0  0  0
    3.2274   -1.7771    0.0000 H   0  0  0  0  0  0  0  0  0  0  0  0
    2.6940   -0.8495    0.0000 H   0  0  0  0  0  0  0  0  0  0  0  0
   -0.6780   -2.5455    0.0000 H   0  0  0  0  0  0  0  0  0  0  0  0
    1.5550    2.0583    0.0000 H   0  0  0  0  0  0  0  0  0  0  0  0
    1.7524    3.9047    0.0000 H   0  0  0  0  0  0  0  0  0  0  0  0
   -5.2948   -1.6170    0.0000 H   0  0  0  0  0  0  0  0  0  0  0  0
  1  4  1  0  0  0  0
  1  5  1  0  0  0  0
  1 10  1  0  0  0  0
  1 11  2  0  0  0  0
  2 23  1  0  0  0  0
  2 27  1  0  0  0  0
  3 24  1  0  0  0  0
  3 28  1  0  0  0  0
  5 29  1  0  0  0  0
  6 40  1  0  0  0  0
  7 41  1  0  0  0  0
  8 42  1  0  0  0  0
  9 30  1  0  0  0  0
  9 43  1  0  0  0  0
 10 44  1  0  0  0  0
 12 33  2  0  0  0  0
 13 37  2  0  0  0  0
 14 31  1  0  0  0  0
 14 32  1  0  0  0  0
 15 33  1  0  0  0  0
 15 34  1  0  0  0  0
 16 32  2  0  0  0  0
 16 35  1  0  0  0  0
 17 33  1  0  0  0  0
 17 37  1  0  0  0  0
 17 45  1  0  0  0  0
 18 31  2  0  0  0  0
 18 39  1  0  0  0  0
 19 38  1  0  0  0  0
 19 39  2  0  0  0  0
 20 38  1  0  0  0  0
 20 46  1  0  0  0  0
 20 47  1  0  0  0  0
 21  4  1  0  0  0  0
 21 22  1  0  0  0  0
 21 23  1  0  0  0  0
 21 48  1  6  0  0  0
 22  6  1  0  0  0  0
 22 27  1  0  0  0  0
 22 49  1  6  0  0  0
 23 15  1  0  0  0  0
 23 50  1  1  0  0  0
 24 25  1  0  0  0  0
 24 29  1  0  0  0  0
 24 51  1  6  0  0  0
 25  7  1  0  0  0  0
 25 26  1  0  0  0  0
 25 52  1  1  0  0  0
 26  8  1  0  0  0  0
 26 28  1  0  0  0  0
 26 53  1  1  0  0  0
 27 30  1  0  0  0  0
 27 54  1  1  0  0  0
 28 14  1  0  0  0  0
 28 55  1  6  0  0  0
 29 56  1  0  0  0  0
 29 57  1  0  0  0  0
 30 58  1  0  0  0  0
 30 59  1  0  0  0  0
 31 35  1  0  0  0  0
 32 60  1  0  0  0  0
 34 36  2  0  0  0  0
 34 61  1  0  0  0  0
 35 38  2  0  0  0  0
 36 37  1  0  0  0  0
 36 62  1  0  0  0  0
 39 63  1  0  0  0  0
M  END
>  <DRUGBANK_ID>
DB03447

>  <SECONDARY_ACCESSION_NUMBERS>
EXPT03196

>  <COMMON_NAME>
Uridylyl-2'-5'-phospho-adenosine

$$$$
