
 OpenBabel10282417072D

 54 55  0  0  0  0  0  0  0  0999 V2000
   -3.5325    2.9452    0.0000 C   0  0  0  0  0  0  0  0  0  0  0  0
    0.0179    4.5260    0.0000 C   0  0  0  0  0  0  0  0  0  0  0  0
   -2.0805    0.4302    0.0000 C   0  0  0  0  0  0  0  0  0  0  0  0
    0.7324    4.9385    0.0000 C   0  0  0  0  0  0  0  0  0  0  0  0
   -1.2958    0.1752    0.0000 C   0  0  0  0  0  0  0  0  0  0  0  0
   -3.7201    1.1602    0.0000 C   0  0  0  0  0  0  0  0  0  0  0  0
   -1.4341    3.4710    0.0000 C   0  0  0  0  0  0  0  0  0  0  0  0
   -0.8795    1.7640    0.0000 C   0  0  0  0  0  0  0  0  0  0  0  0
    0.6854    3.2160    0.0000 C   0  0  0  0  0  0  0  0  0  0  0  0
   -2.9194    2.3932    0.0000 C   0  0  0  0  0  0  0  0  0  0  0  0
    0.0179    3.7010    0.0000 C   0  0  0  0  0  0  0  0  0  0  0  0
   -2.2520    1.2371    0.0000 C   0  0  0  0  0  0  0  0  0  0  0  0
   -3.0057    1.5727    0.0000 C   0  0  0  0  0  0  0  0  0  0  0  0
   -0.6495    3.2160    0.0000 C   0  0  0  0  0  0  0  0  0  0  0  0
   -0.3946    2.4314    0.0000 C   0  0  0  0  0  0  0  0  0  0  0  0
   -1.7000    1.8502    0.0000 C   0  0  0  0  0  0  0  0  0  0  0  0
    0.7324    5.7635    0.0000 C   0  0  0  0  0  0  0  0  0  0  0  0
   -1.1243   -0.6318    0.0000 C   0  0  0  0  0  0  0  0  0  0  0  0
   -3.7201    0.3352    0.0000 C   0  0  0  0  0  0  0  0  0  0  0  0
   -1.6056    4.2780    0.0000 C   0  0  0  0  0  0  0  0  0  0  0  0
    0.4304    2.4314    0.0000 N   0  0  0  0  0  0  0  0  0  0  0  0
   -2.1125    2.5647    0.0000 N   0  0  0  0  0  0  0  0  0  0  0  0
    1.4469    6.1760    0.0000 O   0  0  0  0  0  0  0  0  0  0  0  0
    0.0179    6.1760    0.0000 O   0  0  0  0  0  0  0  0  0  0  0  0
   -0.3397   -0.8867    0.0000 O   0  0  0  0  0  0  0  0  0  0  0  0
   -1.7374   -1.1838    0.0000 O   0  0  0  0  0  0  0  0  0  0  0  0
   -3.0057   -0.0773    0.0000 O   0  0  0  0  0  0  0  0  0  0  0  0
   -4.4346   -0.0773    0.0000 O   0  0  0  0  0  0  0  0  0  0  0  0
   -2.3903    4.5329    0.0000 O   0  0  0  0  0  0  0  0  0  0  0  0
   -0.9926    4.8300    0.0000 O   0  0  0  0  0  0  0  0  0  0  0  0
   -3.3101    3.9918    0.0000 H   0  0  0  0  0  0  0  0  0  0  0  0
   -4.5501    2.6145    0.0000 H   0  0  0  0  0  0  0  0  0  0  0  0
   -4.3277    3.6611    0.0000 H   0  0  0  0  0  0  0  0  0  0  0  0
   -0.9087    5.0610    0.0000 H   0  0  0  0  0  0  0  0  0  0  0  0
   -0.9087    3.9910    0.0000 H   0  0  0  0  0  0  0  0  0  0  0  0
   -2.8757   -0.2857    0.0000 H   0  0  0  0  0  0  0  0  0  0  0  0
   -3.0981    0.7609    0.0000 H   0  0  0  0  0  0  0  0  0  0  0  0
    1.6590    4.4035    0.0000 H   0  0  0  0  0  0  0  0  0  0  0  0
    1.6590    5.4735    0.0000 H   0  0  0  0  0  0  0  0  0  0  0  0
   -0.5006    0.8911    0.0000 H   0  0  0  0  0  0  0  0  0  0  0  0
   -0.2782   -0.1555    0.0000 H   0  0  0  0  0  0  0  0  0  0  0  0
   -4.6468    1.6952    0.0000 H   0  0  0  0  0  0  0  0  0  0  0  0
   -4.6467    0.6252    0.0000 H   0  0  0  0  0  0  0  0  0  0  0  0
   -2.2293    2.7551    0.0000 H   0  0  0  0  0  0  0  0  0  0  0  0
   -2.4517    3.8017    0.0000 H   0  0  0  0  0  0  0  0  0  0  0  0
   -0.4443    0.7865    0.0000 H   0  0  0  0  0  0  0  0  0  0  0  0
   -1.5084    0.8983    0.0000 H   0  0  0  0  0  0  0  0  0  0  0  0
    1.6669    3.5349    0.0000 H   0  0  0  0  0  0  0  0  0  0  0  0
    1.0090    1.6349    0.0000 H   0  0  0  0  0  0  0  0  0  0  0  0
   -1.7121    3.4641    0.0000 H   0  0  0  0  0  0  0  0  0  0  0  0
    0.0179    7.1130    0.0000 H   0  0  0  0  0  0  0  0  0  0  0  0
   -2.6285   -0.8942    0.0000 H   0  0  0  0  0  0  0  0  0  0  0  0
   -5.2461    0.3912    0.0000 H   0  0  0  0  0  0  0  0  0  0  0  0
   -0.1014    4.5405    0.0000 H   0  0  0  0  0  0  0  0  0  0  0  0
  1 31  1  0  0  0  0
  1 32  1  0  0  0  0
  1 33  1  0  0  0  0
  2 34  1  0  0  0  0
  2 35  1  0  0  0  0
  3 36  1  0  0  0  0
  3 37  1  0  0  0  0
  4  2  1  0  0  0  0
  4 38  1  0  0  0  0
  4 39  1  0  0  0  0
  5  3  1  0  0  0  0
  5 40  1  0  0  0  0
  5 41  1  0  0  0  0
  6 42  1  0  0  0  0
  6 43  1  0  0  0  0
  7 44  1  0  0  0  0
  7 45  1  0  0  0  0
  8 46  1  0  0  0  0
  8 47  1  0  0  0  0
  9 48  1  0  0  0  0
 10  1  1  0  0  0  0
 11  2  1  0  0  0  0
 11  9  2  0  0  0  0
 12  3  1  0  0  0  0
 13  6  1  0  0  0  0
 13 10  2  0  0  0  0
 13 12  1  0  0  0  0
 14  7  1  0  0  0  0
 14 11  1  0  0  0  0
 15  8  1  0  0  0  0
 15 14  2  0  0  0  0
 16  8  1  0  0  0  0
 16 12  2  0  0  0  0
 17  4  1  0  0  0  0
 18  5  1  0  0  0  0
 19  6  1  0  0  0  0
 20  7  1  0  0  0  0
 21  9  1  0  0  0  0
 21 15  1  0  0  0  0
 21 49  1  0  0  0  0
 22 10  1  0  0  0  0
 22 16  1  0  0  0  0
 22 50  1  0  0  0  0
 23 17  2  0  0  0  0
 24 17  1  0  0  0  0
 24 51  1  0  0  0  0
 25 18  2  0  0  0  0
 26 18  1  0  0  0  0
 26 52  1  0  0  0  0
 27 19  2  0  0  0  0
 28 19  1  0  0  0  0
 28 53  1  0  0  0  0
 29 20  2  0  0  0  0
 30 20  1  0  0  0  0
 30 54  1  0  0  0  0
M  END
>  <DRUGBANK_ID>
DB04517

>  <SECONDARY_ACCESSION_NUMBERS>
EXPT01256

>  <COMMON_NAME>
Dipyrromethane Cofactor

$$$$
