
 OpenBabel10282417072D

 59 61  0  0  0  0  0  0  0  0999 V2000
    1.4404    1.5515    0.0000 F   0  0  0  0  0  0  0  0  0  0  0  0
   -1.4174    2.3765    0.0000 O   0  0  0  0  0  0  0  0  0  0  0  0
   -1.4174    4.0265    0.0000 O   0  0  0  0  0  0  0  0  0  0  0  0
   -2.1549   -2.3909    0.0000 O   0  0  0  0  0  0  0  0  0  0  0  0
    0.0115   -0.0984    0.0000 N   0  0  0  0  0  0  0  0  0  0  0  0
    0.0115    2.3765    0.0000 N   0  0  0  0  0  0  0  0  0  0  0  0
   -0.7029   -2.1609    0.0000 N   0  0  0  0  0  0  0  0  0  0  0  0
   -0.0354   -2.6458    0.0000 N   0  0  0  0  0  0  0  0  0  0  0  0
   -1.1154   -3.4304    0.0000 N   0  0  0  0  0  0  0  0  0  0  0  0
   -0.2904   -3.4304    0.0000 N   0  0  0  0  0  0  0  0  0  0  0  0
    0.0115    1.5515    0.0000 C   0  0  2  0  0  0  0  0  0  0  0  0
   -0.7029    1.1390    0.0000 C   0  0  1  0  0  0  0  0  0  0  0  0
    0.7260    1.1390    0.0000 C   0  0  0  0  0  0  0  0  0  0  0  0
   -0.7029    0.3140    0.0000 C   0  0  0  0  0  0  0  0  0  0  0  0
    0.7260    0.3140    0.0000 C   0  0  0  0  0  0  0  0  0  0  0  0
   -1.4174    1.5515    0.0000 C   0  0  0  0  0  0  0  0  0  0  0  0
    0.0115   -0.9234    0.0000 C   0  0  0  0  0  0  0  0  0  0  0  0
   -0.7029   -1.3359    0.0000 C   0  0  0  0  0  0  0  0  0  0  0  0
    0.7260    2.7890    0.0000 C   0  0  0  0  0  0  0  0  0  0  0  0
   -0.7029    2.7890    0.0000 C   0  0  0  0  0  0  0  0  0  0  0  0
   -0.7029    3.6140    0.0000 C   0  0  0  0  0  0  0  0  0  0  0  0
    1.4404    2.3765    0.0000 C   0  0  0  0  0  0  0  0  0  0  0  0
    0.7260    3.6140    0.0000 C   0  0  0  0  0  0  0  0  0  0  0  0
   -1.3703   -2.6458    0.0000 C   0  0  0  0  0  0  0  0  0  0  0  0
    2.1549    2.7890    0.0000 C   0  0  0  0  0  0  0  0  0  0  0  0
    1.4404    4.0265    0.0000 C   0  0  0  0  0  0  0  0  0  0  0  0
    2.1549    3.6140    0.0000 C   0  0  0  0  0  0  0  0  0  0  0  0
   -1.6003   -4.0979    0.0000 C   0  0  0  0  0  0  0  0  0  0  0  0
   -1.4174    4.8515    0.0000 C   0  0  0  0  0  0  0  0  0  0  0  0
   -1.2648   -4.8515    0.0000 C   0  0  0  0  0  0  0  0  0  0  0  0
   -0.9152    2.0865    0.0000 H   0  0  0  0  0  0  0  0  0  0  0  0
   -0.7029    2.2090    0.0000 H   0  0  0  0  0  0  0  0  0  0  0  0
    1.6526    1.6740    0.0000 H   0  0  0  0  0  0  0  0  0  0  0  0
    1.6526    0.6040    0.0000 H   0  0  0  0  0  0  0  0  0  0  0  0
   -1.6295   -0.2210    0.0000 H   0  0  0  0  0  0  0  0  0  0  0  0
   -1.6296    0.8490    0.0000 H   0  0  0  0  0  0  0  0  0  0  0  0
    1.6526   -0.2211    0.0000 H   0  0  0  0  0  0  0  0  0  0  0  0
    1.6527    0.8490    0.0000 H   0  0  0  0  0  0  0  0  0  0  0  0
   -1.4174    2.6215    0.0000 H   0  0  0  0  0  0  0  0  0  0  0  0
   -2.3440    1.0165    0.0000 H   0  0  0  0  0  0  0  0  0  0  0  0
   -2.3441    2.0865    0.0000 H   0  0  0  0  0  0  0  0  0  0  0  0
    0.9382   -1.4584    0.0000 H   0  0  0  0  0  0  0  0  0  0  0  0
    0.0115   -1.9934    0.0000 H   0  0  0  0  0  0  0  0  0  0  0  0
   -1.6296   -0.8009    0.0000 H   0  0  0  0  0  0  0  0  0  0  0  0
   -0.7029   -0.2659    0.0000 H   0  0  0  0  0  0  0  0  0  0  0  0
    0.2237    4.1490    0.0000 H   0  0  0  0  0  0  0  0  0  0  0  0
    0.2237    3.0790    0.0000 H   0  0  0  0  0  0  0  0  0  0  0  0
   -0.1677    4.1300    0.0000 H   0  0  0  0  0  0  0  0  0  0  0  0
    3.0486    2.2730    0.0000 H   0  0  0  0  0  0  0  0  0  0  0  0
    1.4404    5.0585    0.0000 H   0  0  0  0  0  0  0  0  0  0  0  0
    3.0486    4.1300    0.0000 H   0  0  0  0  0  0  0  0  0  0  0  0
   -2.6644   -3.9861    0.0000 H   0  0  0  0  0  0  0  0  0  0  0  0
   -2.2292   -4.9635    0.0000 H   0  0  0  0  0  0  0  0  0  0  0  0
   -0.4908    5.3865    0.0000 H   0  0  0  0  0  0  0  0  0  0  0  0
   -2.3440    5.3865    0.0000 H   0  0  0  0  0  0  0  0  0  0  0  0
   -1.4174    5.9215    0.0000 H   0  0  0  0  0  0  0  0  0  0  0  0
   -1.8938   -5.7171    0.0000 H   0  0  0  0  0  0  0  0  0  0  0  0
   -0.2007   -4.9634    0.0000 H   0  0  0  0  0  0  0  0  0  0  0  0
   -0.8296   -5.8290    0.0000 H   0  0  0  0  0  0  0  0  0  0  0  0
  1 22  1  0  0  0  0
  2 20  2  0  0  0  0
  3 21  1  0  0  0  0
  3 29  1  0  0  0  0
  4 24  2  0  0  0  0
  5 14  1  0  0  0  0
  5 15  1  0  0  0  0
  5 17  1  0  0  0  0
  6 19  1  0  0  0  0
  6 20  1  0  0  0  0
  7  8  1  0  0  0  0
  7 18  1  0  0  0  0
  7 24  1  0  0  0  0
  8 10  2  0  0  0  0
  9 10  1  0  0  0  0
  9 24  1  0  0  0  0
  9 28  1  0  0  0  0
 11  6  1  0  0  0  0
 11 12  1  0  0  0  0
 11 13  1  0  0  0  0
 11 31  1  6  0  0  0
 12 14  1  0  0  0  0
 12 16  1  0  0  0  0
 12 32  1  6  0  0  0
 13 15  1  0  0  0  0
 13 33  1  0  0  0  0
 13 34  1  0  0  0  0
 14 35  1  0  0  0  0
 14 36  1  0  0  0  0
 15 37  1  0  0  0  0
 15 38  1  0  0  0  0
 16 39  1  0  0  0  0
 16 40  1  0  0  0  0
 16 41  1  0  0  0  0
 17 18  1  0  0  0  0
 17 42  1  0  0  0  0
 17 43  1  0  0  0  0
 18 44  1  0  0  0  0
 18 45  1  0  0  0  0
 19 22  1  0  0  0  0
 19 23  2  0  0  0  0
 20 21  1  0  0  0  0
 21 46  1  0  0  0  0
 21 47  1  0  0  0  0
 22 25  2  0  0  0  0
 23 26  1  0  0  0  0
 23 48  1  0  0  0  0
 25 27  1  0  0  0  0
 25 49  1  0  0  0  0
 26 27  2  0  0  0  0
 26 50  1  0  0  0  0
 27 51  1  0  0  0  0
 28 30  1  0  0  0  0
 28 52  1  0  0  0  0
 28 53  1  0  0  0  0
 29 54  1  0  0  0  0
 29 55  1  0  0  0  0
 29 56  1  0  0  0  0
 30 57  1  0  0  0  0
 30 58  1  0  0  0  0
 30 59  1  0  0  0  0
M  END
>  <DRUGBANK_ID>
DB09172

>  <COMMON_NAME>
Brifentanil

>  <CAS_NUMBER>
101345-71-5

>  <UNII>
6GDT77PQBW

>  <SYNONYMS>
Brifentanil

$$$$
