
 OpenBabel10282417072D

 37 38  0  0  0  0  0  0  0  0999 V2000
   -0.3648   -1.9924    0.0000 N   0  0  0  0  0  0  0  0  0  0  0  0
    0.0891   -2.6815    0.0000 N   0  3  0  0  0  0  0  0  0  0  0  0
    0.5429   -3.3704    0.0000 N   0  5  0  0  0  0  0  0  0  0  0  0
    1.6622    1.2578    0.0000 N   0  0  0  0  0  0  0  0  0  0  0  0
    1.0691    1.6137    0.0000 C   0  0  0  0  0  0  0  0  0  0  0  0
    2.2630    1.6137    0.0000 C   0  0  0  0  0  0  0  0  0  0  0  0
    1.0691    2.3141    0.0000 N   0  0  0  0  0  0  0  0  0  0  0  0
    0.3419    1.1977    0.0000 O   0  0  0  0  0  0  0  0  0  0  0  0
    2.2630    2.3141    0.0000 C   0  0  0  0  0  0  0  0  0  0  0  0
    1.6622    2.6700    0.0000 C   0  0  0  0  0  0  0  0  0  0  0  0
    2.8339    2.6641    0.0000 C   0  0  0  0  0  0  0  0  0  0  0  0
    1.6584    3.3704    0.0000 O   0  0  0  0  0  0  0  0  0  0  0  0
    1.6570   -0.3843    0.0000 C   0  0  2  0  0  0  0  0  0  0  0  0
    0.6933   -0.0187    0.0000 O   0  0  0  0  0  0  0  0  0  0  0  0
    1.2789   -1.2933    0.0000 C   0  0  0  0  0  0  0  0  0  0  0  0
   -0.2865   -0.5507    0.0000 C   0  0  1  0  0  0  0  0  0  0  0  0
    0.0732   -1.2933    0.0000 C   0  0  1  0  0  0  0  0  0  0  0  0
   -0.8720   -0.0723    0.0000 C   0  0  0  0  0  0  0  0  0  0  0  0
   -1.6965   -0.0423    0.0000 O   0  0  0  0  0  0  0  0  0  0  0  0
   -2.1349   -0.7413    0.0000 P   0  0  0  0  0  0  0  0  0  0  0  0
   -1.4358   -1.1797    0.0000 O   0  0  0  0  0  0  0  0  0  0  0  0
   -2.5731   -1.4404    0.0000 O   0  0  0  0  0  0  0  0  0  0  0  0
   -2.8339   -0.3030    0.0000 O   0  0  0  0  0  0  0  0  0  0  0  0
    3.1596    1.1027    0.0000 H   0  0  0  0  0  0  0  0  0  0  0  0
    0.2124    2.7991    0.0000 H   0  0  0  0  0  0  0  0  0  0  0  0
    3.7743    2.1537    0.0000 H   0  0  0  0  0  0  0  0  0  0  0  0
    2.8057    3.7337    0.0000 H   0  0  0  0  0  0  0  0  0  0  0  0
    3.7461    3.2234    0.0000 H   0  0  0  0  0  0  0  0  0  0  0  0
    1.0506    0.4973    0.0000 H   0  0  0  0  0  0  0  0  0  0  0  0
    1.8727   -2.1834    0.0000 H   0  0  0  0  0  0  0  0  0  0  0  0
    0.7742   -2.2368    0.0000 H   0  0  0  0  0  0  0  0  0  0  0  0
   -0.1863    0.5146    0.0000 H   0  0  0  0  0  0  0  0  0  0  0  0
    0.5914   -2.2295    0.0000 H   0  0  0  0  0  0  0  0  0  0  0  0
   -0.4943    0.9288    0.0000 H   0  0  0  0  0  0  0  0  0  0  0  0
   -1.4645    0.8187    0.0000 H   0  0  0  0  0  0  0  0  0  0  0  0
   -1.4712   -2.1491    0.0000 H   0  0  0  0  0  0  0  0  0  0  0  0
   -3.5425   -1.4052    0.0000 H   0  0  0  0  0  0  0  0  0  0  0  0
  1  2  2  0  0  0  0
  2  3  2  0  0  0  0
  4  5  1  0  0  0  0
  4  6  1  0  0  0  0
  5  7  1  0  0  0  0
  5  8  2  0  0  0  0
  6  9  2  0  0  0  0
  6 24  1  0  0  0  0
  7 10  1  0  0  0  0
  7 25  1  0  0  0  0
  9 11  1  0  0  0  0
  9 10  1  0  0  0  0
 10 12  2  0  0  0  0
 11 26  1  0  0  0  0
 11 27  1  0  0  0  0
 11 28  1  0  0  0  0
 13  4  1  0  0  0  0
 13 14  1  0  0  0  0
 13 15  1  0  0  0  0
 13 29  1  6  0  0  0
 14 16  1  0  0  0  0
 15 17  1  0  0  0  0
 15 30  1  0  0  0  0
 15 31  1  0  0  0  0
 16 18  1  0  0  0  0
 16 17  1  0  0  0  0
 16 32  1  6  0  0  0
 17  1  1  0  0  0  0
 17 33  1  1  0  0  0
 18 19  1  0  0  0  0
 18 34  1  0  0  0  0
 18 35  1  0  0  0  0
 19 20  1  0  0  0  0
 20 21  1  0  0  0  0
 20 22  1  0  0  0  0
 20 23  2  0  0  0  0
 21 36  1  0  0  0  0
 22 37  1  0  0  0  0
M  CHG  2   2   1   3  -1
M  END
>  <DRUGBANK_ID>
DB03666

>  <SECONDARY_ACCESSION_NUMBERS>
EXPT00583

>  <COMMON_NAME>
Zidovudine monophosphate

>  <CAS_NUMBER>
29706-85-2

>  <UNII>
97YMU05VPJ

>  <SYNONYMS>
3'-Azido-2',3'-deoxythymidine 5'-monophosphate; 3'-Azido-3'-deoxythymidine 5'-phosphate; AZTMP; Zdv 5'-monophosphate; ZDVMP; Zidovudine 5'-monophosphate

$$$$
