B98
 OpenBabel10282417072D

 34 36  0  0  0  0  0  0  0  0999 V2000
    2.3682   -0.1271    0.0000 C   0  0  0  0  0  0  0  0  0  0  0  0
    1.8267   -0.7495    0.0000 C   0  0  0  0  0  0  0  0  0  0  0  0
    1.2902    0.8108    0.0000 C   0  0  0  0  0  0  0  0  0  0  0  0
    0.7487    0.1884    0.0000 C   0  0  0  0  0  0  0  0  0  0  0  0
   -0.0762    0.1743    0.0000 C   0  0  0  0  0  0  0  0  0  0  0  0
    2.0999    0.6530    0.0000 C   0  0  0  0  0  0  0  0  0  0  0  0
    1.0169   -0.5918    0.0000 C   0  0  0  0  0  0  0  0  0  0  0  0
   -0.3177   -0.6146    0.0000 C   0  0  0  0  0  0  0  0  0  0  0  0
   -1.0851   -0.9176    0.0000 C   0  0  0  0  0  0  0  0  0  0  0  0
   -1.3652    0.9149    0.0000 C   0  0  0  0  0  0  0  0  0  0  0  0
   -1.9251    0.3089    0.0000 C   0  0  1  0  0  0  0  0  0  0  0  0
    3.4512    1.1177    0.0000 C   0  0  0  0  0  0  0  0  0  0  0  0
   -2.7139    0.5505    0.0000 C   0  0  0  0  0  0  0  0  0  0  0  0
   -0.5424    0.8550    0.0000 N   0  0  0  0  0  0  0  0  0  0  0  0
   -1.8004   -0.5066    0.0000 N   0  0  0  0  0  0  0  0  0  0  0  0
   -3.3175   -0.0120    0.0000 N   0  0  0  0  0  0  0  0  0  0  0  0
   -1.1450   -1.7404    0.0000 O   0  0  0  0  0  0  0  0  0  0  0  0
    2.6414    1.2755    0.0000 O   0  0  0  0  0  0  0  0  0  0  0  0
    0.3579   -1.0880    0.0000 S   0  0  0  0  0  0  0  0  0  0  0  0
   -2.0774    0.8727    0.0000 H   0  0  0  0  0  0  0  0  0  0  0  0
    3.3812   -0.3244    0.0000 H   0  0  0  0  0  0  0  0  0  0  0  0
    2.1623   -1.7254    0.0000 H   0  0  0  0  0  0  0  0  0  0  0  0
    0.9547    1.7867    0.0000 H   0  0  0  0  0  0  0  0  0  0  0  0
   -1.7582    1.9101    0.0000 H   0  0  0  0  0  0  0  0  0  0  0  0
   -0.7316    1.7772    0.0000 H   0  0  0  0  0  0  0  0  0  0  0  0
    3.7991    0.1058    0.0000 H   0  0  0  0  0  0  0  0  0  0  0  0
    4.1536    1.9249    0.0000 H   0  0  0  0  0  0  0  0  0  0  0  0
    4.5014    0.9130    0.0000 H   0  0  0  0  0  0  0  0  0  0  0  0
   -2.9542    1.5932    0.0000 H   0  0  0  0  0  0  0  0  0  0  0  0
   -3.7370    0.8637    0.0000 H   0  0  0  0  0  0  0  0  0  0  0  0
   -0.0520    1.7086    0.0000 H   0  0  0  0  0  0  0  0  0  0  0  0
   -2.6127   -1.0629    0.0000 H   0  0  0  0  0  0  0  0  0  0  0  0
   -4.2928    0.2865    0.0000 H   0  0  0  0  0  0  0  0  0  0  0  0
   -3.0884   -1.0059    0.0000 H   0  0  0  0  0  0  0  0  0  0  0  0
  1  2  2  0  0  0  0
  1  6  1  0  0  0  0
  1 21  1  0  0  0  0
  2  7  1  0  0  0  0
  2 22  1  0  0  0  0
  3  4  1  0  0  0  0
  3  6  2  0  0  0  0
  3 23  1  0  0  0  0
  4  5  1  0  0  0  0
  4  7  2  0  0  0  0
  5  8  2  0  0  0  0
  5 14  1  0  0  0  0
  6 18  1  0  0  0  0
  7 19  1  0  0  0  0
  8  9  1  0  0  0  0
  8 19  1  0  0  0  0
  9 15  1  0  0  0  0
  9 17  2  0  0  0  0
 10 11  1  0  0  0  0
 10 14  1  0  0  0  0
 10 24  1  0  0  0  0
 10 25  1  0  0  0  0
 11 13  1  0  0  0  0
 11 15  1  0  0  0  0
 11 20  1  1  0  0  0
 12 18  1  0  0  0  0
 12 26  1  0  0  0  0
 12 27  1  0  0  0  0
 12 28  1  0  0  0  0
 13 16  1  0  0  0  0
 13 29  1  0  0  0  0
 13 30  1  0  0  0  0
 14 31  1  0  0  0  0
 15 32  1  0  0  0  0
 16 33  1  0  0  0  0
 16 34  1  0  0  0  0
M  END
>  <DRUGBANK_ID>
DB07431

>  <COMMON_NAME>
(3R)-3-(aminomethyl)-9-methoxy-1,2,3,4-tetrahydro-5H-[1]benzothieno[3,2-e][1,4]diazepin-5-one

$$$$
