
 OpenBabel10282417072D

 17 15  0  0  0  0  0  0  0  0999 V2000
   -0.9355   -0.2615    0.0000 C   0  0  0  0  0  0  0  0  0  0  0  0
   -0.2210   -0.6740    0.0000 O   0  0  0  0  0  0  0  0  0  0  0  0
   -1.6500   -0.6740    0.0000 P   0  0  0  0  0  0  0  0  0  0  0  0
   -2.3644   -1.0865    0.0000 O   0  0  0  0  0  0  0  0  0  0  0  0
   -1.2375   -1.3884    0.0000 O   0  0  0  0  0  0  0  0  0  0  0  0
   -2.0625    0.0404    0.0000 O   0  0  0  0  0  0  0  0  0  0  0  0
   -0.9355    0.5634    0.0000 P   0  0  0  0  0  0  0  0  0  0  0  0
   -0.9355    1.3884    0.0000 O   0  0  0  0  0  0  0  0  0  0  0  0
   -0.1105    0.5634    0.0000 O   0  0  0  0  0  0  0  0  0  0  0  0
   -1.7605    0.5634    0.0000 O   0  0  0  0  0  0  0  0  0  0  0  0
    2.3644   -0.0965    0.0000 Tc  0  0  0  0  0  0  0  0  0  0  0  0
   -1.8621    0.2735    0.0000 H   0  0  0  0  0  0  0  0  0  0  0  0
   -0.2210   -1.6440    0.0000 H   0  0  0  0  0  0  0  0  0  0  0  0
   -1.7225   -2.2285    0.0000 H   0  0  0  0  0  0  0  0  0  0  0  0
   -1.5775    0.8805    0.0000 H   0  0  0  0  0  0  0  0  0  0  0  0
    0.3745   -0.2766    0.0000 H   0  0  0  0  0  0  0  0  0  0  0  0
   -2.2455    1.4034    0.0000 H   0  0  0  0  0  0  0  0  0  0  0  0
  1  2  1  0  0  0  0
  1  3  1  0  0  0  0
  1  7  1  0  0  0  0
  1 12  1  0  0  0  0
  2 13  1  0  0  0  0
  3  4  2  0  0  0  0
  3  5  1  0  0  0  0
  3  6  1  0  0  0  0
  5 14  1  0  0  0  0
  6 15  1  0  0  0  0
  7  8  2  0  0  0  0
  7  9  1  0  0  0  0
  7 10  1  0  0  0  0
  9 16  1  0  0  0  0
 10 17  1  0  0  0  0
M  ISO  1  11  99
M  END
>  <DRUGBANK_ID>
DB09139

>  <COMMON_NAME>
Technetium Tc-99m oxidronate

>  <CAS_NUMBER>
72945-61-0

>  <UNII>
MG4KI49HHJ

>  <SYNONYMS>
99mtc-HDP; Oxidronic acid 99mtc-complex; Technetium (99mTc) oxidronate; Technetium 99mtc oxidronate; Technetium Tc 99m oxidronate

$$$$
