
 OpenBabel10282417072D

 75 78  0  0  1  0  0  0  0  0999 V2000
   -0.2182    6.5270    0.0000 C   0  0  0  0  0  0  0  0  0  0  0  0
   -2.8697    8.9960    0.0000 C   0  0  0  0  0  0  0  0  0  0  0  0
   -1.0307    6.6702    0.0000 C   0  0  0  0  0  0  0  0  0  0  0  0
   -3.6822    8.8527    0.0000 C   0  0  0  0  0  0  0  0  0  0  0  0
   -1.6590    2.4690    0.0000 C   0  0  0  0  0  0  0  0  0  0  0  0
   -0.9445    2.8815    0.0000 C   0  0  0  0  0  0  0  0  0  0  0  0
   -2.3734    2.8815    0.0000 C   0  0  0  0  0  0  0  0  0  0  0  0
   -5.8714    7.0157    0.0000 C   0  0  0  0  0  0  0  0  0  0  0  0
   -0.9445    3.7065    0.0000 C   0  0  0  0  0  0  0  0  0  0  0  0
   -2.3734    3.7065    0.0000 C   0  0  0  0  0  0  0  0  0  0  0  0
   -5.0590    7.1590    0.0000 C   0  0  0  0  0  0  0  0  0  0  0  0
   -6.4017    7.6477    0.0000 C   0  0  0  0  0  0  0  0  0  0  0  0
   -6.3337   12.0126    0.0000 C   0  0  0  0  0  0  0  0  0  0  0  0
   -6.6158   11.2374    0.0000 C   0  0  0  0  0  0  0  0  0  0  0  0
   -1.6590    4.9440    0.0000 C   0  0  0  0  0  0  0  0  0  0  0  0
   -1.5610    6.0382    0.0000 C   0  0  0  0  0  0  0  0  0  0  0  0
   -2.3734    5.3565    0.0000 C   0  0  0  0  0  0  0  0  0  0  0  0
   -5.3071    8.5662    0.0000 C   0  0  0  0  0  0  0  0  0  0  0  0
   -2.0913    6.9567    0.0000 C   0  0  0  0  0  0  0  0  0  0  0  0
   -4.9909   11.5239    0.0000 C   0  0  0  0  0  0  0  0  0  0  0  0
   -1.6590    4.1190    0.0000 C   0  0  0  0  0  0  0  0  0  0  0  0
   -4.7768    7.9342    0.0000 C   0  0  0  0  0  0  0  0  0  0  0  0
   -5.5212   12.1559    0.0000 C   0  0  0  0  0  0  0  0  0  0  0  0
   -6.1196    8.4229    0.0000 C   0  0  0  0  0  0  0  0  0  0  0  0
   -3.9643    8.0775    0.0000 C   0  0  2  0  0  0  0  0  0  0  0  0
   -2.6216    7.5887    0.0000 C   0  0  0  0  0  0  0  0  0  0  0  0
   -6.0855   10.6054    0.0000 C   0  0  0  0  0  0  0  0  0  0  0  0
   -3.4340    7.4455    0.0000 C   0  0  0  0  0  0  0  0  0  0  0  0
   -3.7162    6.6702    0.0000 C   0  0  0  0  0  0  0  0  0  0  0  0
   -2.3734    6.1815    0.0000 C   0  0  1  0  0  0  0  0  0  0  0  0
   -5.2390   12.9311    0.0000 C   0  0  0  0  0  0  0  0  0  0  0  0
   -4.9569   13.7064    0.0000 F   0  0  0  0  0  0  0  0  0  0  0  0
   -4.4638   12.6490    0.0000 F   0  0  0  0  0  0  0  0  0  0  0  0
   -6.0143   13.2133    0.0000 F   0  0  0  0  0  0  0  0  0  0  0  0
   -5.2731   10.7487    0.0000 N   0  0  0  0  0  0  0  0  0  0  0  0
   -6.6499    9.0549    0.0000 N   0  0  0  0  0  0  0  0  0  0  0  0
   -2.3394    8.3640    0.0000 O   0  0  0  0  0  0  0  0  0  0  0  0
   -4.5287    6.5270    0.0000 O   0  0  0  0  0  0  0  0  0  0  0  0
   -5.5925    9.5480    0.0000 O   0  0  0  0  0  0  0  0  0  0  0  0
   -7.1429   10.1123    0.0000 O   0  0  0  0  0  0  0  0  0  0  0  0
   -3.1859    6.0382    0.0000 O   0  0  0  0  0  0  0  0  0  0  0  0
   -6.3677    9.8302    0.0000 S   0  0  0  0  0  0  0  0  0  0  0  0
   -4.4946    8.7094    0.0000 H   0  0  0  0  0  0  0  0  0  0  0  0
    0.1478    5.5216    0.0000 H   0  0  0  0  0  0  0  0  0  0  0  0
    0.4695    7.3467    0.0000 H   0  0  0  0  0  0  0  0  0  0  0  0
    0.8356    6.3413    0.0000 H   0  0  0  0  0  0  0  0  0  0  0  0
   -2.1819    8.1764    0.0000 H   0  0  0  0  0  0  0  0  0  0  0  0
   -2.5038   10.0015    0.0000 H   0  0  0  0  0  0  0  0  0  0  0  0
   -1.8160    9.1818    0.0000 H   0  0  0  0  0  0  0  0  0  0  0  0
   -1.3967    7.6757    0.0000 H   0  0  0  0  0  0  0  0  0  0  0  0
   -2.0844    6.8560    0.0000 H   0  0  0  0  0  0  0  0  0  0  0  0
   -4.3700    9.6723    0.0000 H   0  0  0  0  0  0  0  0  0  0  0  0
   -4.7359    8.6668    0.0000 H   0  0  0  0  0  0  0  0  0  0  0  0
   -1.6590    1.4370    0.0000 H   0  0  0  0  0  0  0  0  0  0  0  0
   -0.0508    2.3655    0.0000 H   0  0  0  0  0  0  0  0  0  0  0  0
   -3.2671    2.3655    0.0000 H   0  0  0  0  0  0  0  0  0  0  0  0
   -6.2243    6.0459    0.0000 H   0  0  0  0  0  0  0  0  0  0  0  0
   -0.0508    4.2225    0.0000 H   0  0  0  0  0  0  0  0  0  0  0  0
   -3.2671    4.2225    0.0000 H   0  0  0  0  0  0  0  0  0  0  0  0
   -4.3956    6.3684    0.0000 H   0  0  0  0  0  0  0  0  0  0  0  0
   -7.4180    7.4685    0.0000 H   0  0  0  0  0  0  0  0  0  0  0  0
   -6.9971   12.8031    0.0000 H   0  0  0  0  0  0  0  0  0  0  0  0
   -7.6321   11.0582    0.0000 H   0  0  0  0  0  0  0  0  0  0  0  0
   -0.7323    5.4790    0.0000 H   0  0  0  0  0  0  0  0  0  0  0  0
   -0.7324    4.4090    0.0000 H   0  0  0  0  0  0  0  0  0  0  0  0
   -1.1951    5.0327    0.0000 H   0  0  0  0  0  0  0  0  0  0  0  0
   -2.2488    5.2186    0.0000 H   0  0  0  0  0  0  0  0  0  0  0  0
   -3.3001    4.8215    0.0000 H   0  0  0  0  0  0  0  0  0  0  0  0
   -3.3000    5.8915    0.0000 H   0  0  0  0  0  0  0  0  0  0  0  0
   -4.9542    9.5360    0.0000 H   0  0  0  0  0  0  0  0  0  0  0  0
   -1.0376    7.1425    0.0000 H   0  0  0  0  0  0  0  0  0  0  0  0
   -1.4035    6.1371    0.0000 H   0  0  0  0  0  0  0  0  0  0  0  0
   -3.9746   11.7031    0.0000 H   0  0  0  0  0  0  0  0  0  0  0  0
   -7.6194    8.8840    0.0000 H   0  0  0  0  0  0  0  0  0  0  0  0
   -1.4166    8.5267    0.0000 H   0  0  0  0  0  0  0  0  0  0  0  0
  1 44  1  0  0  0  0
  1 45  1  0  0  0  0
  1 46  1  0  0  0  0
  2 47  1  0  0  0  0
  2 48  1  0  0  0  0
  2 49  1  0  0  0  0
  3  1  1  0  0  0  0
  3 50  1  0  0  0  0
  3 51  1  0  0  0  0
  4  2  1  0  0  0  0
  4 52  1  0  0  0  0
  4 53  1  0  0  0  0
  5 54  1  0  0  0  0
  6  5  2  0  0  0  0
  6 55  1  0  0  0  0
  7  5  1  0  0  0  0
  7 56  1  0  0  0  0
  8 57  1  0  0  0  0
  9  6  1  0  0  0  0
  9 58  1  0  0  0  0
 10  7  2  0  0  0  0
 10 59  1  0  0  0  0
 11  8  2  0  0  0  0
 11 60  1  0  0  0  0
 12  8  1  0  0  0  0
 12 61  1  0  0  0  0
 13 62  1  0  0  0  0
 14 13  2  0  0  0  0
 14 63  1  0  0  0  0
 15 64  1  0  0  0  0
 15 65  1  0  0  0  0
 16  3  1  0  0  0  0
 16 66  1  0  0  0  0
 16 67  1  0  0  0  0
 17 15  1  0  0  0  0
 17 68  1  0  0  0  0
 17 69  1  0  0  0  0
 18 70  1  0  0  0  0
 19 71  1  0  0  0  0
 19 72  1  0  0  0  0
 20 73  1  0  0  0  0
 21  9  2  0  0  0  0
 21 10  1  0  0  0  0
 21 15  1  0  0  0  0
 22 11  1  0  0  0  0
 22 18  2  0  0  0  0
 23 13  1  0  0  0  0
 23 20  2  0  0  0  0
 24 12  2  0  0  0  0
 24 18  1  0  0  0  0
 25  4  1  0  0  0  0
 25 22  1  0  0  0  0
 25 28  1  0  0  0  0
 25 43  1  6  0  0  0
 26 19  1  0  0  0  0
 27 14  1  0  0  0  0
 28 26  2  0  0  0  0
 29 28  1  0  0  0  0
 30 16  1  6  0  0  0
 30 17  1  0  0  0  0
 30 19  1  0  0  0  0
 31 23  1  0  0  0  0
 32 31  1  0  0  0  0
 33 31  1  0  0  0  0
 34 31  1  0  0  0  0
 35 20  1  0  0  0  0
 35 27  2  0  0  0  0
 36 24  1  0  0  0  0
 36 74  1  0  0  0  0
 37 26  1  0  0  0  0
 37 75  1  0  0  0  0
 38 29  2  0  0  0  0
 41 29  1  0  0  0  0
 41 30  1  0  0  0  0
 42 27  1  0  0  0  0
 42 36  1  0  0  0  0
 42 39  2  0  0  0  0
 42 40  2  0  0  0  0
M  END
>  <DRUGBANK_ID>
DB00932

>  <SECONDARY_ACCESSION_NUMBERS>
APRD01306

>  <COMMON_NAME>
Tipranavir

>  <CAS_NUMBER>
174484-41-4

>  <UNII>
ZZT404XD09

>  <SYNONYMS>
Tipranavir

$$$$
