DHG
 OpenBabel10282417072D

 70 69  0  0  0  0  0  0  0  0999 V2000
    0.4956   -0.0574    0.0000 C   0  0  0  0  0  0  0  0  0  0  0  0
   -0.1910   -0.5148    0.0000 C   0  0  0  0  0  0  0  0  0  0  0  0
   -0.9304   -0.1489    0.0000 C   0  0  0  0  0  0  0  0  0  0  0  0
   -1.6170   -0.6063    0.0000 C   0  0  0  0  0  0  0  0  0  0  0  0
   -2.3564   -0.2403    0.0000 C   0  0  0  0  0  0  0  0  0  0  0  0
   -3.0430   -0.6977    0.0000 C   0  0  0  0  0  0  0  0  0  0  0  0
   -3.7824   -0.3318    0.0000 C   0  0  0  0  0  0  0  0  0  0  0  0
   -4.4690   -0.7892    0.0000 C   0  0  0  0  0  0  0  0  0  0  0  0
   -5.2084   -0.4233    0.0000 C   0  0  0  0  0  0  0  0  0  0  0  0
   -5.8950   -0.8807    0.0000 C   0  0  0  0  0  0  0  0  0  0  0  0
   -6.6344   -0.5148    0.0000 C   0  0  0  0  0  0  0  0  0  0  0  0
   -7.3210   -0.9722    0.0000 C   0  0  0  0  0  0  0  0  0  0  0  0
    0.4428    0.7659    0.0000 O   0  0  0  0  0  0  0  0  0  0  0  0
    1.2350   -0.4233    0.0000 N   0  0  0  0  0  0  0  0  0  0  0  0
    2.6611   -0.3318    0.0000 C   0  0  0  0  0  0  0  0  0  0  0  0
    1.9216    0.0341    0.0000 C   0  0  1  0  0  0  0  0  0  0  0  0
    1.8688    0.8574    0.0000 C   0  0  0  0  0  0  0  0  0  0  0  0
    2.5554    1.3148    0.0000 C   0  0  0  0  0  0  0  0  0  0  0  0
    2.5026    2.1381    0.0000 C   0  0  0  0  0  0  0  0  0  0  0  0
    3.1892    2.5955    0.0000 C   0  0  0  0  0  0  0  0  0  0  0  0
    3.7211   -0.9798    0.0000 O   0  0  0  0  0  0  0  0  0  0  0  0
    4.4530    0.4991    0.0000 O   0  0  0  0  0  0  0  0  0  0  0  0
    3.3476    0.1256    0.0000 O   0  0  0  0  0  0  0  0  0  0  0  0
    4.0871   -0.2403    0.0000 P   0  0  1  0  0  0  0  0  0  0  0  0
    4.8265   -0.6063    0.0000 O   0  0  0  0  0  0  0  0  0  0  0  0
    5.5131   -0.1489    0.0000 C   0  0  0  0  0  0  0  0  0  0  0  0
    6.2525   -0.5148    0.0000 C   0  0  0  0  0  0  0  0  0  0  0  0
    6.9391   -0.0574    0.0000 O   0  0  0  0  0  0  0  0  0  0  0  0
    1.9590   -0.5486    0.0000 H   0  0  0  0  0  0  0  0  0  0  0  0
   -0.1225   -1.5826    0.0000 H   0  0  0  0  0  0  0  0  0  0  0  0
   -1.0815   -1.1080    0.0000 H   0  0  0  0  0  0  0  0  0  0  0  0
   -0.9989    0.9189    0.0000 H   0  0  0  0  0  0  0  0  0  0  0  0
   -1.8894    0.3257    0.0000 H   0  0  0  0  0  0  0  0  0  0  0  0
   -1.5486   -1.6741    0.0000 H   0  0  0  0  0  0  0  0  0  0  0  0
   -2.5075   -1.1995    0.0000 H   0  0  0  0  0  0  0  0  0  0  0  0
   -2.4248    0.8275    0.0000 H   0  0  0  0  0  0  0  0  0  0  0  0
   -3.3154    0.2343    0.0000 H   0  0  0  0  0  0  0  0  0  0  0  0
   -2.9745   -1.7655    0.0000 H   0  0  0  0  0  0  0  0  0  0  0  0
   -3.9335   -1.2909    0.0000 H   0  0  0  0  0  0  0  0  0  0  0  0
   -3.8509    0.7360    0.0000 H   0  0  0  0  0  0  0  0  0  0  0  0
   -4.7414    0.1428    0.0000 H   0  0  0  0  0  0  0  0  0  0  0  0
   -4.4005   -1.8570    0.0000 H   0  0  0  0  0  0  0  0  0  0  0  0
   -5.3595   -1.3824    0.0000 H   0  0  0  0  0  0  0  0  0  0  0  0
   -5.2769    0.6445    0.0000 H   0  0  0  0  0  0  0  0  0  0  0  0
   -6.1674    0.0513    0.0000 H   0  0  0  0  0  0  0  0  0  0  0  0
   -5.8265   -1.9485    0.0000 H   0  0  0  0  0  0  0  0  0  0  0  0
   -6.7855   -1.4739    0.0000 H   0  0  0  0  0  0  0  0  0  0  0  0
   -6.7029    0.5530    0.0000 H   0  0  0  0  0  0  0  0  0  0  0  0
   -7.5934   -0.0402    0.0000 H   0  0  0  0  0  0  0  0  0  0  0  0
   -8.2800   -0.4976    0.0000 H   0  0  0  0  0  0  0  0  0  0  0  0
   -7.2525   -2.0400    0.0000 H   0  0  0  0  0  0  0  0  0  0  0  0
   -8.2115   -1.5654    0.0000 H   0  0  0  0  0  0  0  0  0  0  0  0
    1.2980   -1.4058    0.0000 H   0  0  0  0  0  0  0  0  0  0  0  0
    2.7297   -1.3996    0.0000 H   0  0  0  0  0  0  0  0  0  0  0  0
    3.6201   -0.8063    0.0000 H   0  0  0  0  0  0  0  0  0  0  0  0
    0.9098    1.3320    0.0000 H   0  0  0  0  0  0  0  0  0  0  0  0
    1.8003    1.9252    0.0000 H   0  0  0  0  0  0  0  0  0  0  0  0
    3.5144    0.8402    0.0000 H   0  0  0  0  0  0  0  0  0  0  0  0
    3.4459    1.9080    0.0000 H   0  0  0  0  0  0  0  0  0  0  0  0
    1.5436    2.6127    0.0000 H   0  0  0  0  0  0  0  0  0  0  0  0
    2.4341    3.2059    0.0000 H   0  0  0  0  0  0  0  0  0  0  0  0
    4.1482    2.1209    0.0000 H   0  0  0  0  0  0  0  0  0  0  0  0
    3.1207    3.6633    0.0000 H   0  0  0  0  0  0  0  0  0  0  0  0
    4.0797    3.1887    0.0000 H   0  0  0  0  0  0  0  0  0  0  0  0
    5.4210    0.5612    0.0000 H   0  0  0  0  0  0  0  0  0  0  0  0
    5.4446    0.9189    0.0000 H   0  0  0  0  0  0  0  0  0  0  0  0
    6.4036    0.4443    0.0000 H   0  0  0  0  0  0  0  0  0  0  0  0
    6.3210   -1.5826    0.0000 H   0  0  0  0  0  0  0  0  0  0  0  0
    7.2115   -0.9894    0.0000 H   0  0  0  0  0  0  0  0  0  0  0  0
    7.8085   -0.4876    0.0000 H   0  0  0  0  0  0  0  0  0  0  0  0
  1  2  1  0  0  0  0
  1 13  2  0  0  0  0
  1 14  1  0  0  0  0
  2  3  1  0  0  0  0
  2 30  1  0  0  0  0
  2 31  1  0  0  0  0
  3  4  1  0  0  0  0
  3 32  1  0  0  0  0
  3 33  1  0  0  0  0
  4  5  1  0  0  0  0
  4 34  1  0  0  0  0
  4 35  1  0  0  0  0
  5  6  1  0  0  0  0
  5 36  1  0  0  0  0
  5 37  1  0  0  0  0
  6  7  1  0  0  0  0
  6 38  1  0  0  0  0
  6 39  1  0  0  0  0
  7  8  1  0  0  0  0
  7 40  1  0  0  0  0
  7 41  1  0  0  0  0
  8  9  1  0  0  0  0
  8 42  1  0  0  0  0
  8 43  1  0  0  0  0
  9 10  1  0  0  0  0
  9 44  1  0  0  0  0
  9 45  1  0  0  0  0
 10 11  1  0  0  0  0
 10 46  1  0  0  0  0
 10 47  1  0  0  0  0
 11 12  1  0  0  0  0
 11 48  1  0  0  0  0
 11 49  1  0  0  0  0
 12 50  1  0  0  0  0
 12 51  1  0  0  0  0
 12 52  1  0  0  0  0
 14 53  1  0  0  0  0
 15 16  1  0  0  0  0
 15 23  1  0  0  0  0
 15 54  1  0  0  0  0
 15 55  1  0  0  0  0
 16 14  1  0  0  0  0
 16 17  1  0  0  0  0
 16 29  1  1  0  0  0
 17 18  1  0  0  0  0
 17 56  1  0  0  0  0
 17 57  1  0  0  0  0
 18 19  1  0  0  0  0
 18 58  1  0  0  0  0
 18 59  1  0  0  0  0
 19 20  1  0  0  0  0
 19 60  1  0  0  0  0
 19 61  1  0  0  0  0
 20 62  1  0  0  0  0
 20 63  1  0  0  0  0
 20 64  1  0  0  0  0
 22 65  1  0  0  0  0
 24 21  2  6  0  0  0
 24 22  1  0  0  0  0
 24 23  1  0  0  0  0
 24 25  1  0  0  0  0
 25 26  1  0  0  0  0
 26 27  1  0  0  0  0
 26 66  1  0  0  0  0
 26 67  1  0  0  0  0
 27 28  1  0  0  0  0
 27 68  1  0  0  0  0
 27 69  1  0  0  0  0
 28 70  1  0  0  0  0
M  END
>  <DRUGBANK_ID>
DB07657

>  <COMMON_NAME>
PHOSPHONIC ACID 2-DODECANOYLAMINO-HEXYL ESTER PROPYL ESTER

$$$$
