
 OpenBabel10282417072D

 80 83  0  0  1  0  0  0  0  0999 V2000
   -1.7029    0.2165    0.0000 C   0  0  0  0  0  0  0  0  0  0  0  0
   -2.4173   -0.1960    0.0000 C   0  0  0  0  0  0  0  0  0  0  0  0
   -1.7029   -1.4335    0.0000 C   0  0  0  0  0  0  0  0  0  0  0  0
   -0.2739   -1.4335    0.0000 C   0  0  0  0  0  0  0  0  0  0  0  0
   -0.9884   -0.1960    0.0000 C   0  0  2  0  0  0  0  0  0  0  0  0
   -0.2739    1.0415    0.0000 C   0  0  0  0  0  0  0  0  0  0  0  0
    1.9396   -0.0384    0.0000 C   0  0  0  0  0  0  0  0  0  0  0  0
    2.4246    0.6290    0.0000 C   0  0  0  0  0  0  0  0  0  0  0  0
   -0.9884    0.6290    0.0000 C   0  0  0  0  0  0  0  0  0  0  0  0
   -0.2739    0.2165    0.0000 C   0  0  1  0  0  0  0  0  0  0  0  0
   -0.2739   -0.6085    0.0000 H   0  0  0  0  0  0  0  0  0  0  0  0
    0.4405   -0.1960    0.0000 C   0  0  2  0  0  0  0  0  0  0  0  0
    0.4405    0.6290    0.0000 H   0  0  0  0  0  0  0  0  0  0  0  0
    1.1550    0.2165    0.0000 C   0  0  1  0  0  0  0  0  0  0  0  0
    1.1550    1.0415    0.0000 C   0  0  1  0  0  0  0  0  0  0  0  0
    1.1550    1.8665    0.0000 C   0  0  0  0  0  0  0  0  0  0  0  0
    1.1550   -0.6085    0.0000 H   0  0  0  0  0  0  0  0  0  0  0  0
    2.6541    1.7089    0.0000 H   0  0  0  0  0  0  0  0  0  0  0  0
   -2.4173   -1.0210    0.0000 C   0  0  2  0  0  0  0  0  0  0  0  0
   -3.1318   -1.4335    0.0000 O   0  0  0  0  0  0  0  0  0  0  0  0
    0.4405   -1.0210    0.0000 C   0  0  2  0  0  0  0  0  0  0  0  0
    1.1550   -1.4335    0.0000 O   0  0  0  0  0  0  0  0  0  0  0  0
   -0.9884   -1.0210    0.0000 C   0  0  1  0  0  0  0  0  0  0  0  0
   -0.9884   -1.8460    0.0000 H   0  0  0  0  0  0  0  0  0  0  0  0
    3.5821    2.0933    0.0000 C   0  0  0  0  0  0  0  0  0  0  0  0
    2.8676    2.5058    0.0000 C   0  0  0  0  0  0  0  0  0  0  0  0
    4.2965    2.5058    0.0000 C   0  0  0  0  0  0  0  0  0  0  0  0
    4.2965    3.3308    0.0000 O   0  0  0  0  0  0  0  0  0  0  0  0
    1.9396    1.2964    0.0000 C   0  0  1  0  0  0  0  0  0  0  0  0
    0.4405    1.4540    0.0000 C   0  0  1  0  0  0  0  0  0  0  0  0
    0.4405    2.2790    0.0000 O   0  0  0  0  0  0  0  0  0  0  0  0
    2.1531    2.0933    0.0000 C   0  0  2  0  0  0  0  0  0  0  0  0
    1.5698    2.6767    0.0000 C   0  0  0  0  0  0  0  0  0  0  0  0
    5.0109    2.0933    0.0000 N   0  0  0  0  0  0  0  0  0  0  0  0
    5.7254    2.5058    0.0000 C   0  0  0  0  0  0  0  0  0  0  0  0
    6.4398    2.0933    0.0000 C   0  0  0  0  0  0  0  0  0  0  0  0
    7.8687    2.9183    0.0000 O   0  0  0  0  0  0  0  0  0  0  0  0
    6.7418    3.2203    0.0000 O   0  0  0  0  0  0  0  0  0  0  0  0
    7.1543    2.5058    0.0000 S   0  0  0  0  0  0  0  0  0  0  0  0
    7.5668    1.7913    0.0000 O   0  0  0  0  0  0  0  0  0  0  0  0
   -1.7029    1.2865    0.0000 H   0  0  0  0  0  0  0  0  0  0  0  0
   -2.6296    0.7515    0.0000 H   0  0  0  0  0  0  0  0  0  0  0  0
   -3.3440    0.3390    0.0000 H   0  0  0  0  0  0  0  0  0  0  0  0
   -3.3439   -0.7310    0.0000 H   0  0  0  0  0  0  0  0  0  0  0  0
   -1.7029   -2.5035    0.0000 H   0  0  0  0  0  0  0  0  0  0  0  0
   -2.6296   -1.9685    0.0000 H   0  0  0  0  0  0  0  0  0  0  0  0
   -0.2739   -2.5035    0.0000 H   0  0  0  0  0  0  0  0  0  0  0  0
   -1.2005   -1.9685    0.0000 H   0  0  0  0  0  0  0  0  0  0  0  0
   -1.2006    1.5765    0.0000 H   0  0  0  0  0  0  0  0  0  0  0  0
   -0.2739    2.1115    0.0000 H   0  0  0  0  0  0  0  0  0  0  0  0
    2.2702   -1.0560    0.0000 H   0  0  0  0  0  0  0  0  0  0  0  0
    2.9964   -0.2059    0.0000 H   0  0  0  0  0  0  0  0  0  0  0  0
    3.4946    0.6290    0.0000 H   0  0  0  0  0  0  0  0  0  0  0  0
    2.9103   -0.3244    0.0000 H   0  0  0  0  0  0  0  0  0  0  0  0
   -0.0618    1.1640    0.0000 H   0  0  0  0  0  0  0  0  0  0  0  0
   -1.9150    1.1640    0.0000 H   0  0  0  0  0  0  0  0  0  0  0  0
   -0.9884    1.6990    0.0000 H   0  0  0  0  0  0  0  0  0  0  0  0
    2.0816    2.4015    0.0000 H   0  0  0  0  0  0  0  0  0  0  0  0
    0.2284    2.4015    0.0000 H   0  0  0  0  0  0  0  0  0  0  0  0
    1.1550    2.9365    0.0000 H   0  0  0  0  0  0  0  0  0  0  0  0
   -2.4173   -2.0910    0.0000 H   0  0  0  0  0  0  0  0  0  0  0  0
   -3.9718   -0.9485    0.0000 H   0  0  0  0  0  0  0  0  0  0  0  0
    1.3671   -0.4860    0.0000 H   0  0  0  0  0  0  0  0  0  0  0  0
    1.1550   -2.4035    0.0000 H   0  0  0  0  0  0  0  0  0  0  0  0
    3.5821    1.0233    0.0000 H   0  0  0  0  0  0  0  0  0  0  0  0
    4.5088    1.5583    0.0000 H   0  0  0  0  0  0  0  0  0  0  0  0
    2.8676    3.5758    0.0000 H   0  0  0  0  0  0  0  0  0  0  0  0
    1.9410    3.0408    0.0000 H   0  0  0  0  0  0  0  0  0  0  0  0
    1.3671    1.9890    0.0000 H   0  0  0  0  0  0  0  0  0  0  0  0
    1.2805    2.7640    0.0000 H   0  0  0  0  0  0  0  0  0  0  0  0
    2.2928    3.1541    0.0000 H   0  0  0  0  0  0  0  0  0  0  0  0
    1.8468    3.7102    0.0000 H   0  0  0  0  0  0  0  0  0  0  0  0
    0.5362    2.3999    0.0000 H   0  0  0  0  0  0  0  0  0  0  0  0
    0.8133    3.4334    0.0000 H   0  0  0  0  0  0  0  0  0  0  0  0
    5.0109    1.1088    0.0000 H   0  0  0  0  0  0  0  0  0  0  0  0
    5.7254    3.5758    0.0000 H   0  0  0  0  0  0  0  0  0  0  0  0
    6.6521    3.0408    0.0000 H   0  0  0  0  0  0  0  0  0  0  0  0
    6.4398    1.0233    0.0000 H   0  0  0  0  0  0  0  0  0  0  0  0
    7.3664    1.5583    0.0000 H   0  0  0  0  0  0  0  0  0  0  0  0
    8.7088    2.4333    0.0000 H   0  0  0  0  0  0  0  0  0  0  0  0
  1 41  1  0  0  0  0
  1 42  1  0  0  0  0
  2  1  1  0  0  0  0
  2 43  1  0  0  0  0
  2 44  1  0  0  0  0
  3 45  1  0  0  0  0
  3 46  1  0  0  0  0
  4 21  1  0  0  0  0
  4 47  1  0  0  0  0
  4 48  1  0  0  0  0
  5 10  1  0  0  0  0
  5  9  1  1  0  0  0
  5  1  1  0  0  0  0
  6 30  1  0  0  0  0
  6 49  1  0  0  0  0
  6 50  1  0  0  0  0
  7 51  1  0  0  0  0
  7 52  1  0  0  0  0
  8  7  1  0  0  0  0
  8 53  1  0  0  0  0
  8 54  1  0  0  0  0
  9 55  1  0  0  0  0
  9 56  1  0  0  0  0
  9 57  1  0  0  0  0
 10  6  1  0  0  0  0
 10 12  1  0  0  0  0
 10 11  1  6  0  0  0
 12 14  1  0  0  0  0
 12 21  1  0  0  0  0
 12 13  1  1  0  0  0
 14 15  1  0  0  0  0
 14  7  1  0  0  0  0
 14 17  1  6  0  0  0
 15 29  1  0  0  0  0
 15 30  1  0  0  0  0
 15 16  1  1  0  0  0
 16 58  1  0  0  0  0
 16 59  1  0  0  0  0
 16 60  1  0  0  0  0
 19  3  1  0  0  0  0
 19  2  1  0  0  0  0
 19 20  1  0  0  0  0
 19 61  1  1  0  0  0
 20 62  1  0  0  0  0
 21 22  1  0  0  0  0
 21 63  1  1  0  0  0
 22 64  1  0  0  0  0
 23  5  1  0  0  0  0
 23  3  1  0  0  0  0
 23  4  1  0  0  0  0
 23 24  1  1  0  0  0
 25 26  1  0  0  0  0
 25 27  1  0  0  0  0
 25 65  1  0  0  0  0
 25 66  1  0  0  0  0
 26 67  1  0  0  0  0
 26 68  1  0  0  0  0
 27 34  1  0  0  0  0
 27 28  2  0  0  0  0
 29  8  1  0  0  0  0
 29 18  1  6  0  0  0
 29 32  1  0  0  0  0
 30 31  1  0  0  0  0
 30 69  1  1  0  0  0
 31 70  1  0  0  0  0
 32 26  1  0  0  0  0
 32 33  1  0  0  0  0
 32 71  1  1  0  0  0
 33 72  1  0  0  0  0
 33 73  1  0  0  0  0
 33 74  1  0  0  0  0
 34 35  1  0  0  0  0
 34 75  1  0  0  0  0
 35 36  1  0  0  0  0
 35 76  1  0  0  0  0
 35 77  1  0  0  0  0
 36 39  1  0  0  0  0
 36 78  1  0  0  0  0
 36 79  1  0  0  0  0
 37 80  1  0  0  0  0
 39 37  1  0  0  0  0
 39 38  2  0  0  0  0
 39 40  2  0  0  0  0
M  END
>  <DRUGBANK_ID>
DB04348

>  <SECONDARY_ACCESSION_NUMBERS>
EXPT03023

>  <COMMON_NAME>
Taurocholic acid

>  <CAS_NUMBER>
81-24-3

>  <UNII>
5E090O0G3Z

$$$$
