
 OpenBabel10282417072D

 65 67  0  0  0  0  0  0  0  0999 V2000
    1.6974   -0.1732    0.0000 N   0  0  0  0  0  0  0  0  0  0  0  0
    1.7024    0.7917    0.0000 C   0  0  0  0  0  0  0  0  0  0  0  0
    0.9155   -0.6334    0.0000 C   0  0  0  0  0  0  0  0  0  0  0  0
    0.2127    0.6779    0.0000 N   0  0  0  0  0  0  0  0  0  0  0  0
    0.9749    1.0887    0.0000 C   0  0  1  0  0  0  0  0  0  0  0  0
   -0.5393    1.9548    0.0000 C   0  0  0  0  0  0  0  0  0  0  0  0
    0.1881   -0.2869    0.0000 C   0  0  0  0  0  0  0  0  0  0  0  0
    0.9105   -1.4203    0.0000 C   0  0  0  0  0  0  0  0  0  0  0  0
   -0.5393    1.0887    0.0000 C   0  0  2  0  0  0  0  0  0  0  0  0
   -0.4057   -0.9303    0.0000 C   0  0  0  0  0  0  0  0  0  0  0  0
    0.0197   -1.6430    0.0000 C   0  0  0  0  0  0  0  0  0  0  0  0
    2.4893   -0.6482    0.0000 C   0  0  0  0  0  0  0  0  0  0  0  0
    3.2860   -0.2475    0.0000 C   0  0  0  0  0  0  0  0  0  0  0  0
    2.3061    1.1481    0.0000 O   0  0  0  0  0  0  0  0  0  0  0  0
    0.1287    2.4002    0.0000 O   0  0  0  0  0  0  0  0  0  0  0  0
    3.2612    0.5542    0.0000 O   0  0  0  0  0  0  0  0  0  0  0  0
   -1.2124    0.6581    0.0000 C   0  0  0  0  0  0  0  0  0  0  0  0
   -1.2372    2.3506    0.0000 O   0  0  0  0  0  0  0  0  0  0  0  0
    4.0431   -0.5591    0.0000 O   0  0  0  0  0  0  0  0  0  0  0  0
   -1.9200    1.0442    0.0000 C   0  0  0  0  0  0  0  0  0  0  0  0
   -2.6179    0.6284    0.0000 C   0  0  0  0  0  0  0  0  0  0  0  0
    0.9749    2.2467    0.0000 C   0  0  0  0  0  0  0  0  0  0  0  0
   -1.2520   -0.9303    0.0000 C   0  0  0  0  0  0  0  0  0  0  0  0
   -0.4057   -2.4002    0.0000 C   0  0  0  0  0  0  0  0  0  0  0  0
   -1.9349    1.9696    0.0000 C   0  0  0  0  0  0  0  0  0  0  0  0
   -2.6179   -0.1682    0.0000 C   0  0  0  0  0  0  0  0  0  0  0  0
   -3.3305    1.0442    0.0000 C   0  0  0  0  0  0  0  0  0  0  0  0
   -2.7218    2.3803    0.0000 C   0  0  0  0  0  0  0  0  0  0  0  0
   -1.6529   -1.6430    0.0000 C   0  0  0  0  0  0  0  0  0  0  0  0
   -1.2520   -2.4002    0.0000 C   0  0  0  0  0  0  0  0  0  0  0  0
   -3.3305   -0.5740    0.0000 C   0  0  0  0  0  0  0  0  0  0  0  0
   -4.0431    0.6284    0.0000 C   0  0  0  0  0  0  0  0  0  0  0  0
   -4.0431   -0.1682    0.0000 C   0  0  0  0  0  0  0  0  0  0  0  0
    0.0089   -1.2017    0.0000 H   0  0  0  0  0  0  0  0  0  0  0  0
    0.2098   -0.3421    0.0000 H   0  0  0  0  0  0  0  0  0  0  0  0
    0.0562    1.6372    0.0000 H   0  0  0  0  0  0  0  0  0  0  0  0
   -0.0145    0.7638    0.0000 H   0  0  0  0  0  0  0  0  0  0  0  0
   -0.8410    0.0062    0.0000 H   0  0  0  0  0  0  0  0  0  0  0  0
    1.7518   -2.0815    0.0000 H   0  0  0  0  0  0  0  0  0  0  0  0
    0.6869   -2.4667    0.0000 H   0  0  0  0  0  0  0  0  0  0  0  0
    0.3810    1.6346    0.0000 H   0  0  0  0  0  0  0  0  0  0  0  0
    2.4496   -1.7175    0.0000 H   0  0  0  0  0  0  0  0  0  0  0  0
    3.3896   -1.2265    0.0000 H   0  0  0  0  0  0  0  0  0  0  0  0
   -1.1752   -0.4113    0.0000 H   0  0  0  0  0  0  0  0  0  0  0  0
   -2.1229    0.0960    0.0000 H   0  0  0  0  0  0  0  0  0  0  0  0
    4.1675   -1.4878    0.0000 H   0  0  0  0  0  0  0  0  0  0  0  0
   -1.9402    2.1140    0.0000 H   0  0  0  0  0  0  0  0  0  0  0  0
   -2.8553    1.5640    0.0000 H   0  0  0  0  0  0  0  0  0  0  0  0
    1.9015    2.7817    0.0000 H   0  0  0  0  0  0  0  0  0  0  0  0
    0.0483    2.7817    0.0000 H   0  0  0  0  0  0  0  0  0  0  0  0
    0.9749    3.3167    0.0000 H   0  0  0  0  0  0  0  0  0  0  0  0
   -1.7730   -0.0395    0.0000 H   0  0  0  0  0  0  0  0  0  0  0  0
    0.1155   -3.2909    0.0000 H   0  0  0  0  0  0  0  0  0  0  0  0
   -1.9248    0.8996    0.0000 H   0  0  0  0  0  0  0  0  0  0  0  0
   -2.8473    1.4107    0.0000 H   0  0  0  0  0  0  0  0  0  0  0  0
   -1.7257   -0.6868    0.0000 H   0  0  0  0  0  0  0  0  0  0  0  0
   -3.3305    2.0762    0.0000 H   0  0  0  0  0  0  0  0  0  0  0  0
   -2.7673    3.4493    0.0000 H   0  0  0  0  0  0  0  0  0  0  0  0
   -3.6248    1.8064    0.0000 H   0  0  0  0  0  0  0  0  0  0  0  0
   -3.6704    2.8754    0.0000 H   0  0  0  0  0  0  0  0  0  0  0  0
   -2.6848   -1.6299    0.0000 H   0  0  0  0  0  0  0  0  0  0  0  0
   -1.7843   -3.2843    0.0000 H   0  0  0  0  0  0  0  0  0  0  0  0
   -3.3305   -1.6060    0.0000 H   0  0  0  0  0  0  0  0  0  0  0  0
   -4.9380    1.1423    0.0000 H   0  0  0  0  0  0  0  0  0  0  0  0
   -4.9353   -0.6868    0.0000 H   0  0  0  0  0  0  0  0  0  0  0  0
  2  1  1  0  0  0  0
  3  1  1  0  0  0  0
  3 34  1  0  0  0  0
  4  5  1  0  0  0  0
  4 35  1  0  0  0  0
  5  2  1  0  0  0  0
  5 22  1  0  0  0  0
  5 36  1  6  0  0  0
  7  3  1  0  0  0  0
  7 37  1  0  0  0  0
  7 38  1  0  0  0  0
  8  3  1  0  0  0  0
  8 39  1  0  0  0  0
  8 40  1  0  0  0  0
  9  6  1  0  0  0  0
  9  4  1  0  0  0  0
  9 41  1  6  0  0  0
 10  7  1  0  0  0  0
 11  8  1  0  0  0  0
 11 10  2  0  0  0  0
 12  1  1  0  0  0  0
 12 42  1  0  0  0  0
 12 43  1  0  0  0  0
 13 12  1  0  0  0  0
 14  2  2  0  0  0  0
 15  6  2  0  0  0  0
 16 13  2  0  0  0  0
 17  9  1  0  0  0  0
 17 44  1  0  0  0  0
 17 45  1  0  0  0  0
 18  6  1  0  0  0  0
 19 13  1  0  0  0  0
 19 46  1  0  0  0  0
 20 17  1  0  0  0  0
 20 47  1  0  0  0  0
 20 48  1  0  0  0  0
 21 20  1  0  0  0  0
 22 49  1  0  0  0  0
 22 50  1  0  0  0  0
 22 51  1  0  0  0  0
 23 10  1  0  0  0  0
 23 52  1  0  0  0  0
 24 11  1  0  0  0  0
 24 53  1  0  0  0  0
 25 18  1  0  0  0  0
 25 54  1  0  0  0  0
 25 55  1  0  0  0  0
 26 21  2  0  0  0  0
 26 56  1  0  0  0  0
 27 21  1  0  0  0  0
 27 57  1  0  0  0  0
 28 25  1  0  0  0  0
 28 58  1  0  0  0  0
 28 59  1  0  0  0  0
 28 60  1  0  0  0  0
 29 23  2  0  0  0  0
 29 61  1  0  0  0  0
 30 24  2  0  0  0  0
 30 29  1  0  0  0  0
 30 62  1  0  0  0  0
 31 26  1  0  0  0  0
 31 63  1  0  0  0  0
 32 27  2  0  0  0  0
 32 33  1  0  0  0  0
 32 64  1  0  0  0  0
 33 31  2  0  0  0  0
 33 65  1  0  0  0  0
M  END
>  <DRUGBANK_ID>
DB13312

>  <COMMON_NAME>
Delapril

>  <CAS_NUMBER>
83435-66-9

>  <UNII>
W77UAL9THI

>  <SYNONYMS>
Delapril

$$$$
