
 OpenBabel10282417072D

 40 42  0  0  1  0  0  0  0  0999 V2000
    0.4210    3.7125    0.0000 C   0  0  0  0  0  0  0  0  0  0  0  0
    1.1355    3.3000    0.0000 C   0  0  1  0  0  0  0  0  0  0  0  0
    1.8500    3.7125    0.0000 C   0  0  0  0  0  0  0  0  0  0  0  0
    2.5645    3.3000    0.0000 C   0  0  0  0  0  0  0  0  0  0  0  0
    2.5645    2.4750    0.0000 C   0  0  2  0  0  0  0  0  0  0  0  0
    1.8500    2.0625    0.0000 C   0  0  0  0  0  0  0  0  0  0  0  0
    1.1355    2.4750    0.0000 N   0  0  0  0  0  0  0  0  0  0  0  0
    0.4210    2.0625    0.0000 C   0  0  0  0  0  0  0  0  0  0  0  0
    0.4210    1.2375    0.0000 O   0  0  0  0  0  0  0  0  0  0  0  0
   -0.2934    2.4750    0.0000 C   0  0  0  0  0  0  0  0  0  0  0  0
   -1.0079    2.0625    0.0000 C   0  0  0  0  0  0  0  0  0  0  0  0
    3.2789    2.0625    0.0000 N   0  0  0  0  0  0  0  0  0  0  0  0
    3.2789    1.2375    0.0000 C   0  0  0  0  0  0  0  0  0  0  0  0
    3.9934    0.8250    0.0000 N   0  0  0  0  0  0  0  0  0  0  0  0
    3.9934    0.0000    0.0000 C   0  0  0  0  0  0  0  0  0  0  0  0
    3.2789   -0.4125    0.0000 N   0  0  0  0  0  0  0  0  0  0  0  0
    2.5645    0.0000    0.0000 C   0  0  0  0  0  0  0  0  0  0  0  0
    2.5645    0.8250    0.0000 C   0  0  0  0  0  0  0  0  0  0  0  0
    1.7798    1.0799    0.0000 C   0  0  0  0  0  0  0  0  0  0  0  0
    1.2949    0.4125    0.0000 C   0  0  0  0  0  0  0  0  0  0  0  0
    1.7798   -0.2549    0.0000 N   0  0  0  0  0  0  0  0  0  0  0  0
    0.4210    4.7825    0.0000 H   0  0  0  0  0  0  0  0  0  0  0  0
   -0.5056    3.1775    0.0000 H   0  0  0  0  0  0  0  0  0  0  0  0
   -0.5057    4.2475    0.0000 H   0  0  0  0  0  0  0  0  0  0  0  0
    1.1355    4.3700    0.0000 H   0  0  0  0  0  0  0  0  0  0  0  0
    1.8500    4.7825    0.0000 H   0  0  0  0  0  0  0  0  0  0  0  0
    2.7766    4.2475    0.0000 H   0  0  0  0  0  0  0  0  0  0  0  0
    3.4911    3.8350    0.0000 H   0  0  0  0  0  0  0  0  0  0  0  0
    3.4911    2.7650    0.0000 H   0  0  0  0  0  0  0  0  0  0  0  0
    3.4912    3.0100    0.0000 H   0  0  0  0  0  0  0  0  0  0  0  0
    1.8500    0.9925    0.0000 H   0  0  0  0  0  0  0  0  0  0  0  0
    0.9234    1.5275    0.0000 H   0  0  0  0  0  0  0  0  0  0  0  0
   -0.2934    3.5070    0.0000 H   0  0  0  0  0  0  0  0  0  0  0  0
   -1.9016    2.5785    0.0000 H   0  0  0  0  0  0  0  0  0  0  0  0
   -1.0079    1.0305    0.0000 H   0  0  0  0  0  0  0  0  0  0  0  0
    4.1315    2.5547    0.0000 H   0  0  0  0  0  0  0  0  0  0  0  0
    4.8871   -0.5160    0.0000 H   0  0  0  0  0  0  0  0  0  0  0  0
    1.4609    2.0614    0.0000 H   0  0  0  0  0  0  0  0  0  0  0  0
    0.2629    0.4125    0.0000 H   0  0  0  0  0  0  0  0  0  0  0  0
    1.4755   -1.1912    0.0000 H   0  0  0  0  0  0  0  0  0  0  0  0
  1 22  1  0  0  0  0
  1 23  1  0  0  0  0
  1 24  1  0  0  0  0
  2  1  1  0  0  0  0
  2  3  1  0  0  0  0
  2  7  1  0  0  0  0
  2 25  1  6  0  0  0
  3  4  1  0  0  0  0
  3 26  1  0  0  0  0
  3 27  1  0  0  0  0
  4 28  1  0  0  0  0
  4 29  1  0  0  0  0
  5  4  1  0  0  0  0
  5  6  1  0  0  0  0
  5 12  1  0  0  0  0
  5 30  1  6  0  0  0
  6  7  1  0  0  0  0
  6 31  1  0  0  0  0
  6 32  1  0  0  0  0
  7  8  1  0  0  0  0
  8  9  2  0  0  0  0
  8 10  1  0  0  0  0
 10 11  2  0  0  0  0
 10 33  1  0  0  0  0
 11 34  1  0  0  0  0
 11 35  1  0  0  0  0
 12 13  1  0  0  0  0
 12 36  1  0  0  0  0
 13 14  2  0  0  0  0
 13 18  1  0  0  0  0
 14 15  1  0  0  0  0
 15 16  2  0  0  0  0
 15 37  1  0  0  0  0
 16 17  1  0  0  0  0
 17 18  2  0  0  0  0
 17 21  1  0  0  0  0
 18 19  1  0  0  0  0
 19 20  2  0  0  0  0
 19 38  1  0  0  0  0
 20 21  1  0  0  0  0
 20 39  1  0  0  0  0
 21 40  1  0  0  0  0
M  END
>  <DRUGBANK_ID>
DB14924

>  <COMMON_NAME>
Ritlecitinib

>  <CAS_NUMBER>
1792180-81-4

>  <UNII>
2OYE00PC25

>  <SYNONYMS>
2-propen-1-one, 1-((2S,5R)-2-methyl-5-(7H-pyrrolo(2,3-D)pyrimidin-4-ylamino)-1-piperidinyl)-

$$$$
