
 OpenBabel10282417072D

 57 60  0  0  1  0  0  0  0  0999 V2000
    4.2575   -0.8137    0.0000 C   0  0  0  0  0  0  0  0  0  0  0  0
    3.7054   -0.2006    0.0000 C   0  0  2  0  0  0  0  0  0  0  0  0
    2.8985   -0.3721    0.0000 C   0  0  0  0  0  0  0  0  0  0  0  0
    2.3464    0.2410    0.0000 C   0  0  0  0  0  0  0  0  0  0  0  0
    2.6014    1.0256    0.0000 C   0  0  0  0  0  0  0  0  0  0  0  0
    1.9339    1.5105    0.0000 N   0  0  0  0  0  0  0  0  0  0  0  0
    1.2665    1.0256    0.0000 C   0  0  0  0  0  0  0  0  0  0  0  0
    1.5214    0.2410    0.0000 C   0  0  0  0  0  0  0  0  0  0  0  0
    0.9694   -0.3721    0.0000 C   0  0  0  0  0  0  0  0  0  0  0  0
    0.1624   -0.2006    0.0000 C   0  0  0  0  0  0  0  0  0  0  0  0
   -0.0925    0.5840    0.0000 C   0  0  0  0  0  0  0  0  0  0  0  0
    0.4595    1.1971    0.0000 C   0  0  0  0  0  0  0  0  0  0  0  0
    3.4084    1.1971    0.0000 C   0  0  2  0  0  0  0  0  0  0  0  0
    3.9604    0.5840    0.0000 N   0  0  0  0  0  0  0  0  0  0  0  0
    4.7674    0.7556    0.0000 C   0  0  0  0  0  0  0  0  0  0  0  0
    5.3194    0.1425    0.0000 C   0  0  0  0  0  0  0  0  0  0  0  0
    4.7063   -0.4096    0.0000 C   0  0  0  0  0  0  0  0  0  0  0  0
    5.9325    0.6945    0.0000 C   0  0  0  0  0  0  0  0  0  0  0  0
    5.8714   -0.4706    0.0000 F   0  0  0  0  0  0  0  0  0  0  0  0
    3.6633    1.9817    0.0000 C   0  0  0  0  0  0  0  0  0  0  0  0
    3.1113    2.5948    0.0000 C   0  0  0  0  0  0  0  0  0  0  0  0
    2.3043    2.4233    0.0000 F   0  0  0  0  0  0  0  0  0  0  0  0
    3.3662    3.3795    0.0000 C   0  0  0  0  0  0  0  0  0  0  0  0
    4.1732    3.5510    0.0000 C   0  0  0  0  0  0  0  0  0  0  0  0
    4.4281    4.3356    0.0000 C   0  0  0  0  0  0  0  0  0  0  0  0
    5.2351    4.5071    0.0000 C   0  0  0  0  0  0  0  0  0  0  0  0
    5.4900    5.2918    0.0000 C   0  0  0  0  0  0  0  0  0  0  0  0
    4.9380    5.9049    0.0000 O   0  0  0  0  0  0  0  0  0  0  0  0
    6.2970    5.4633    0.0000 O   0  0  0  0  0  0  0  0  0  0  0  0
    4.7252    2.9379    0.0000 C   0  0  0  0  0  0  0  0  0  0  0  0
    4.4703    2.1533    0.0000 C   0  0  0  0  0  0  0  0  0  0  0  0
    5.0223    1.5402    0.0000 F   0  0  0  0  0  0  0  0  0  0  0  0
    3.9269   -1.8313    0.0000 H   0  0  0  0  0  0  0  0  0  0  0  0
    5.3041   -0.5912    0.0000 H   0  0  0  0  0  0  0  0  0  0  0  0
    4.9735   -1.6088    0.0000 H   0  0  0  0  0  0  0  0  0  0  0  0
    3.3748   -1.2182    0.0000 H   0  0  0  0  0  0  0  0  0  0  0  0
    2.5679   -1.3897    0.0000 H   0  0  0  0  0  0  0  0  0  0  0  0
    1.8519   -0.5946    0.0000 H   0  0  0  0  0  0  0  0  0  0  0  0
    1.9339    2.4950    0.0000 H   0  0  0  0  0  0  0  0  0  0  0  0
    1.2883   -1.3536    0.0000 H   0  0  0  0  0  0  0  0  0  0  0  0
   -0.5281   -0.9675    0.0000 H   0  0  0  0  0  0  0  0  0  0  0  0
   -1.1019    0.7986    0.0000 H   0  0  0  0  0  0  0  0  0  0  0  0
    0.1406    2.1786    0.0000 H   0  0  0  0  0  0  0  0  0  0  0  0
    2.6924    1.9923    0.0000 H   0  0  0  0  0  0  0  0  0  0  0  0
    5.0980    1.7732    0.0000 H   0  0  0  0  0  0  0  0  0  0  0  0
    5.8140    0.9781    0.0000 H   0  0  0  0  0  0  0  0  0  0  0  0
    3.6887   -0.0790    0.0000 H   0  0  0  0  0  0  0  0  0  0  0  0
    4.9288   -1.4562    0.0000 H   0  0  0  0  0  0  0  0  0  0  0  0
    3.9112   -1.1256    0.0000 H   0  0  0  0  0  0  0  0  0  0  0  0
    6.9501    0.3638    0.0000 H   0  0  0  0  0  0  0  0  0  0  0  0
    5.7101    1.7411    0.0000 H   0  0  0  0  0  0  0  0  0  0  0  0
    6.7277    1.4104    0.0000 H   0  0  0  0  0  0  0  0  0  0  0  0
    2.6756    4.1464    0.0000 H   0  0  0  0  0  0  0  0  0  0  0  0
    3.7376    5.1025    0.0000 H   0  0  0  0  0  0  0  0  0  0  0  0
    5.9257    3.7402    0.0000 H   0  0  0  0  0  0  0  0  0  0  0  0
    5.2276    6.7960    0.0000 H   0  0  0  0  0  0  0  0  0  0  0  0
    5.7346    3.1525    0.0000 H   0  0  0  0  0  0  0  0  0  0  0  0
  1 33  1  0  0  0  0
  1 34  1  0  0  0  0
  1 35  1  0  0  0  0
  2  1  1  0  0  0  0
  2  3  1  0  0  0  0
  2 14  1  0  0  0  0
  2 36  1  1  0  0  0
  3  4  1  0  0  0  0
  3 37  1  0  0  0  0
  3 38  1  0  0  0  0
  4  5  2  0  0  0  0
  4  8  1  0  0  0  0
  5  6  1  0  0  0  0
  6  7  1  0  0  0  0
  6 39  1  0  0  0  0
  7  8  2  0  0  0  0
  7 12  1  0  0  0  0
  8  9  1  0  0  0  0
  9 10  2  0  0  0  0
  9 40  1  0  0  0  0
 10 11  1  0  0  0  0
 10 41  1  0  0  0  0
 11 12  2  0  0  0  0
 11 42  1  0  0  0  0
 12 43  1  0  0  0  0
 13  5  1  0  0  0  0
 13 14  1  0  0  0  0
 13 20  1  0  0  0  0
 13 44  1  6  0  0  0
 14 15  1  0  0  0  0
 15 16  1  0  0  0  0
 15 45  1  0  0  0  0
 15 46  1  0  0  0  0
 16 17  1  0  0  0  0
 16 18  1  0  0  0  0
 16 19  1  0  0  0  0
 17 47  1  0  0  0  0
 17 48  1  0  0  0  0
 17 49  1  0  0  0  0
 18 50  1  0  0  0  0
 18 51  1  0  0  0  0
 18 52  1  0  0  0  0
 20 21  2  0  0  0  0
 20 31  1  0  0  0  0
 21 22  1  0  0  0  0
 21 23  1  0  0  0  0
 23 24  2  0  0  0  0
 23 53  1  0  0  0  0
 24 25  1  0  0  0  0
 24 30  1  0  0  0  0
 25 26  2  0  0  0  0
 25 54  1  0  0  0  0
 26 27  1  0  0  0  0
 26 55  1  0  0  0  0
 27 28  1  0  0  0  0
 27 29  2  0  0  0  0
 28 56  1  0  0  0  0
 30 31  2  0  0  0  0
 30 57  1  0  0  0  0
 31 32  1  0  0  0  0
M  END
>  <DRUGBANK_ID>
DB15138

>  <COMMON_NAME>
AZD-9496

>  <CAS_NUMBER>
1639042-08-2

>  <UNII>
DA9P7LN909

$$$$
