
 OpenBabel10282417072D

 45 47  0  0  0  0  0  0  0  0999 V2000
   -0.6506    0.1198    0.0000 N   0  0  0  0  0  0  0  0  0  0  0  0
    2.1921    1.7415    0.0000 N   0  0  0  0  0  0  0  0  0  0  0  0
   -0.6506    1.4476    0.0000 C   0  0  3  0  0  0  0  0  0  0  0  0
   -0.1692    0.7837    0.0000 C   0  0  0  0  0  0  0  0  0  0  0  0
    0.0175    1.9314    0.0000 C   0  0  0  0  0  0  0  0  0  0  0  0
   -1.4313    1.1963    0.0000 C   0  0  0  0  0  0  0  0  0  0  0  0
   -1.4313    0.3712    0.0000 C   0  0  0  0  0  0  0  0  0  0  0  0
   -0.9042    2.2327    0.0000 C   0  0  0  0  0  0  0  0  0  0  0  0
    0.7706    1.5946    0.0000 C   0  0  0  0  0  0  0  0  0  0  0  0
   -2.1458    1.6087    0.0000 C   0  0  0  0  0  0  0  0  0  0  0  0
   -0.3944   -0.6643    0.0000 C   0  0  0  0  0  0  0  0  0  0  0  0
   -2.1458   -0.0412    0.0000 C   0  0  0  0  0  0  0  0  0  0  0  0
    1.4389    2.0783    0.0000 C   0  0  0  0  0  0  0  0  0  0  0  0
   -2.8604    1.1963    0.0000 C   0  0  0  0  0  0  0  0  0  0  0  0
   -2.8604    0.3712    0.0000 C   0  0  0  0  0  0  0  0  0  0  0  0
    0.4128   -0.8344    0.0000 C   0  0  0  0  0  0  0  0  0  0  0  0
   -0.9454   -1.2784    0.0000 C   0  0  0  0  0  0  0  0  0  0  0  0
    0.6691   -1.6187    0.0000 C   0  0  0  0  0  0  0  0  0  0  0  0
   -0.6890   -2.0626    0.0000 C   0  0  0  0  0  0  0  0  0  0  0  0
    0.1182   -2.2327    0.0000 C   0  0  0  0  0  0  0  0  0  0  0  0
    2.8604    2.2253    0.0000 C   0  0  0  0  0  0  0  0  0  0  0  0
    2.2448    1.2327    0.0000 H   0  0  0  0  0  0  0  0  0  0  0  0
    0.9008    0.7837    0.0000 H   0  0  0  0  0  0  0  0  0  0  0  0
    0.3170    1.7368    0.0000 H   0  0  0  0  0  0  0  0  0  0  0  0
   -0.0926    2.9957    0.0000 H   0  0  0  0  0  0  0  0  0  0  0  0
    0.8842    2.5589    0.0000 H   0  0  0  0  0  0  0  0  0  0  0  0
   -0.1869    3.0266    0.0000 H   0  0  0  0  0  0  0  0  0  0  0  0
   -1.9504    2.4570    0.0000 H   0  0  0  0  0  0  0  0  0  0  0  0
   -1.2331    3.2509    0.0000 H   0  0  0  0  0  0  0  0  0  0  0  0
    0.8806    0.5303    0.0000 H   0  0  0  0  0  0  0  0  0  0  0  0
    1.7473    1.1577    0.0000 H   0  0  0  0  0  0  0  0  0  0  0  0
   -2.1458    2.6407    0.0000 H   0  0  0  0  0  0  0  0  0  0  0  0
   -2.1458   -1.0732    0.0000 H   0  0  0  0  0  0  0  0  0  0  0  0
    1.3289    3.1426    0.0000 H   0  0  0  0  0  0  0  0  0  0  0  0
    0.4622    2.5152    0.0000 H   0  0  0  0  0  0  0  0  0  0  0  0
   -3.7541    1.7124    0.0000 H   0  0  0  0  0  0  0  0  0  0  0  0
   -3.7541   -0.1449    0.0000 H   0  0  0  0  0  0  0  0  0  0  0  0
    1.1020   -0.0663    0.0000 H   0  0  0  0  0  0  0  0  0  0  0  0
   -1.9552   -1.0656    0.0000 H   0  0  0  0  0  0  0  0  0  0  0  0
    1.6789   -1.8315    0.0000 H   0  0  0  0  0  0  0  0  0  0  0  0
   -1.3782   -2.8308    0.0000 H   0  0  0  0  0  0  0  0  0  0  0  0
    0.4388   -3.2136    0.0000 H   0  0  0  0  0  0  0  0  0  0  0  0
    3.8371    1.7884    0.0000 H   0  0  0  0  0  0  0  0  0  0  0  0
    2.7504    3.2896    0.0000 H   0  0  0  0  0  0  0  0  0  0  0  0
    3.7271    2.8527    0.0000 H   0  0  0  0  0  0  0  0  0  0  0  0
  1  4  1  0  0  0  0
  1  7  1  0  0  0  0
  1 11  1  0  0  0  0
  2 13  1  0  0  0  0
  2 21  1  0  0  0  0
  2 22  1  0  0  0  0
  3  4  1  0  0  0  0
  3  5  1  0  0  0  0
  3  6  1  0  0  0  0
  3  8  1  0  0  0  0
  4 23  1  0  0  0  0
  4 24  1  0  0  0  0
  5  9  1  0  0  0  0
  5 25  1  0  0  0  0
  5 26  1  0  0  0  0
  6  7  1  0  0  0  0
  6 10  2  0  0  0  0
  7 12  2  0  0  0  0
  8 27  1  0  0  0  0
  8 28  1  0  0  0  0
  8 29  1  0  0  0  0
  9 13  1  0  0  0  0
  9 30  1  0  0  0  0
  9 31  1  0  0  0  0
 10 14  1  0  0  0  0
 10 32  1  0  0  0  0
 11 16  2  0  0  0  0
 11 17  1  0  0  0  0
 12 15  1  0  0  0  0
 12 33  1  0  0  0  0
 13 34  1  0  0  0  0
 13 35  1  0  0  0  0
 14 15  2  0  0  0  0
 14 36  1  0  0  0  0
 15 37  1  0  0  0  0
 16 18  1  0  0  0  0
 16 38  1  0  0  0  0
 17 19  2  0  0  0  0
 17 39  1  0  0  0  0
 18 20  2  0  0  0  0
 18 40  1  0  0  0  0
 19 20  1  0  0  0  0
 19 41  1  0  0  0  0
 20 42  1  0  0  0  0
 21 43  1  0  0  0  0
 21 44  1  0  0  0  0
 21 45  1  0  0  0  0
M  END
>  <DRUGBANK_ID>
DB09189

>  <COMMON_NAME>
Daledalin

>  <CAS_NUMBER>
22136-27-2

>  <UNII>
IT56261A5A

>  <SYNONYMS>
Daledalin

$$$$
