
 OpenBabel10282417072D

 27 26  0  0  1  0  0  0  0  0999 V2000
   -1.1270   -0.3020    0.0000 C   0  0  0  0  0  0  0  0  0  0  0  0
    1.7309   -0.3020    0.0000 C   0  0  0  0  0  0  0  0  0  0  0  0
   -0.4125   -0.7145    0.0000 C   0  0  2  0  0  0  0  0  0  0  0  0
    1.0164   -0.7145    0.0000 C   0  0  2  0  0  0  0  0  0  0  0  0
    0.3020   -0.3020    0.0000 C   0  0  1  0  0  0  0  0  0  0  0  0
   -1.8414   -0.7145    0.0000 O   0  0  0  0  0  0  0  0  0  0  0  0
   -0.4125   -1.5395    0.0000 O   0  0  0  0  0  0  0  0  0  0  0  0
    1.0164   -1.5395    0.0000 O   0  0  0  0  0  0  0  0  0  0  0  0
    0.3020    0.5230    0.0000 O   0  0  0  0  0  0  0  0  0  0  0  0
    3.8743    0.1105    0.0000 O   0  0  0  0  0  0  0  0  0  0  0  0
    3.5724   -1.0164    0.0000 O   0  0  0  0  0  0  0  0  0  0  0  0
    2.7474    0.4125    0.0000 O   0  0  0  0  0  0  0  0  0  0  0  0
    2.4454   -0.7145    0.0000 O   0  0  0  0  0  0  0  0  0  0  0  0
    3.1599   -0.3020    0.0000 P   0  0  0  0  0  0  0  0  0  0  0  0
   -0.4125    0.1105    0.0000 H   0  0  0  0  0  0  0  0  0  0  0  0
    1.0164    0.1105    0.0000 H   0  0  0  0  0  0  0  0  0  0  0  0
    0.3020   -1.1270    0.0000 H   0  0  0  0  0  0  0  0  0  0  0  0
   -1.1270    0.7680    0.0000 H   0  0  0  0  0  0  0  0  0  0  0  0
   -2.0537    0.2330    0.0000 H   0  0  0  0  0  0  0  0  0  0  0  0
    1.7309    0.7680    0.0000 H   0  0  0  0  0  0  0  0  0  0  0  0
    2.6575    0.2330    0.0000 H   0  0  0  0  0  0  0  0  0  0  0  0
   -2.6815   -0.2295    0.0000 H   0  0  0  0  0  0  0  0  0  0  0  0
   -1.2525   -2.0245    0.0000 H   0  0  0  0  0  0  0  0  0  0  0  0
    0.1764   -2.0245    0.0000 H   0  0  0  0  0  0  0  0  0  0  0  0
    1.1420    1.0080    0.0000 H   0  0  0  0  0  0  0  0  0  0  0  0
    4.7144   -0.3745    0.0000 H   0  0  0  0  0  0  0  0  0  0  0  0
    3.0874   -1.8565    0.0000 H   0  0  0  0  0  0  0  0  0  0  0  0
  1 18  1  0  0  0  0
  1 19  1  0  0  0  0
  2 20  1  0  0  0  0
  2 21  1  0  0  0  0
  3  1  1  0  0  0  0
  3  7  1  0  0  0  0
  3 15  1  1  0  0  0
  4  2  1  0  0  0  0
  4  8  1  0  0  0  0
  4 16  1  6  0  0  0
  5  3  1  0  0  0  0
  5  4  1  0  0  0  0
  5  9  1  0  0  0  0
  5 17  1  1  0  0  0
  6  1  1  0  0  0  0
  6 22  1  0  0  0  0
  7 23  1  0  0  0  0
  8 24  1  0  0  0  0
  9 25  1  0  0  0  0
 10 26  1  0  0  0  0
 11 27  1  0  0  0  0
 13  2  1  0  0  0  0
 14 10  1  0  0  0  0
 14 11  1  0  0  0  0
 14 12  2  0  0  0  0
 14 13  1  0  0  0  0
M  END
>  <DRUGBANK_ID>
DB03745

>  <SECONDARY_ACCESSION_NUMBERS>
EXPT00375

>  <COMMON_NAME>
Arabinose-5-phosphate

$$$$
