328
 OpenBabel10282417072D

 45 47  0  0  0  0  0  0  0  0999 V2000
    2.6022    1.8443    0.0000 C   0  0  0  0  0  0  0  0  0  0  0  0
    3.3167    1.4318    0.0000 C   0  0  0  0  0  0  0  0  0  0  0  0
    3.3167    0.6068    0.0000 C   0  0  0  0  0  0  0  0  0  0  0  0
    4.0312    0.1943    0.0000 C   0  0  0  0  0  0  0  0  0  0  0  0
   -0.2557   -3.1057    0.0000 C   0  0  0  0  0  0  0  0  0  0  0  0
    0.4588    0.6068    0.0000 C   0  0  0  0  0  0  0  0  0  0  0  0
   -0.2557    1.8443    0.0000 C   0  0  0  0  0  0  0  0  0  0  0  0
   -0.9701    1.4318    0.0000 C   0  0  0  0  0  0  0  0  0  0  0  0
   -0.9701    0.6068    0.0000 C   0  0  0  0  0  0  0  0  0  0  0  0
   -0.2557    0.1943    0.0000 C   0  0  0  0  0  0  0  0  0  0  0  0
    1.1733    1.8443    0.0000 C   0  0  0  0  0  0  0  0  0  0  0  0
   -0.9701   -1.8682    0.0000 C   0  0  0  0  0  0  0  0  0  0  0  0
   -1.6846   -2.2807    0.0000 C   0  0  0  0  0  0  0  0  0  0  0  0
   -2.3991   -1.8682    0.0000 C   0  0  0  0  0  0  0  0  0  0  0  0
   -0.9701   -1.0432    0.0000 C   0  0  0  0  0  0  0  0  0  0  0  0
    4.7456   -0.2182    0.0000 N   0  0  0  0  0  0  0  0  0  0  0  0
    1.8877    1.4318    0.0000 C   0  0  0  0  0  0  0  0  0  0  0  0
    1.8877    0.6068    0.0000 C   0  0  0  0  0  0  0  0  0  0  0  0
    2.6022    0.1943    0.0000 C   0  0  0  0  0  0  0  0  0  0  0  0
   -1.6846    0.1943    0.0000 N   0  0  0  0  0  0  0  0  0  0  0  0
    0.4588    1.4318    0.0000 N   0  0  0  0  0  0  0  0  0  0  0  0
    1.1733    2.6693    0.0000 O   0  0  0  0  0  0  0  0  0  0  0  0
   -0.2557   -2.2807    0.0000 O   0  0  0  0  0  0  0  0  0  0  0  0
   -1.6846   -0.6307    0.0000 C   0  0  0  0  0  0  0  0  0  0  0  0
   -2.3991   -1.0432    0.0000 N   0  0  0  0  0  0  0  0  0  0  0  0
    2.6022    2.8763    0.0000 H   0  0  0  0  0  0  0  0  0  0  0  0
    4.2104    1.9478    0.0000 H   0  0  0  0  0  0  0  0  0  0  0  0
   -1.1823   -3.6407    0.0000 H   0  0  0  0  0  0  0  0  0  0  0  0
    0.6709   -3.6407    0.0000 H   0  0  0  0  0  0  0  0  0  0  0  0
   -0.2557   -4.1757    0.0000 H   0  0  0  0  0  0  0  0  0  0  0  0
    1.3854    0.0718    0.0000 H   0  0  0  0  0  0  0  0  0  0  0  0
    1.3854    1.1418    0.0000 H   0  0  0  0  0  0  0  0  0  0  0  0
   -0.2557    2.9143    0.0000 H   0  0  0  0  0  0  0  0  0  0  0  0
    0.6709    2.3793    0.0000 H   0  0  0  0  0  0  0  0  0  0  0  0
   -1.8968    1.9668    0.0000 H   0  0  0  0  0  0  0  0  0  0  0  0
   -1.8967    0.8968    0.0000 H   0  0  0  0  0  0  0  0  0  0  0  0
   -0.9701   -0.4632    0.0000 H   0  0  0  0  0  0  0  0  0  0  0  0
   -0.2557   -0.8757    0.0000 H   0  0  0  0  0  0  0  0  0  0  0  0
   -1.1824   -0.3407    0.0000 H   0  0  0  0  0  0  0  0  0  0  0  0
   -1.6846   -3.3127    0.0000 H   0  0  0  0  0  0  0  0  0  0  0  0
   -3.2928   -2.3842    0.0000 H   0  0  0  0  0  0  0  0  0  0  0  0
   -0.0764   -0.5272    0.0000 H   0  0  0  0  0  0  0  0  0  0  0  0
    0.9940    0.0908    0.0000 H   0  0  0  0  0  0  0  0  0  0  0  0
    2.6022   -0.8377    0.0000 H   0  0  0  0  0  0  0  0  0  0  0  0
   -2.5372    0.6866    0.0000 H   0  0  0  0  0  0  0  0  0  0  0  0
  1  2  2  0  0  0  0
  1 17  1  0  0  0  0
  1 26  1  0  0  0  0
  2  3  1  0  0  0  0
  2 27  1  0  0  0  0
  3  4  1  0  0  0  0
  3 19  2  0  0  0  0
  4 16  3  0  0  0  0
  5 23  1  0  0  0  0
  5 28  1  0  0  0  0
  5 29  1  0  0  0  0
  5 30  1  0  0  0  0
  6 10  1  0  0  0  0
  6 21  1  0  0  0  0
  6 31  1  0  0  0  0
  6 32  1  0  0  0  0
  7  8  1  0  0  0  0
  7 21  1  0  0  0  0
  7 33  1  0  0  0  0
  7 34  1  0  0  0  0
  8  9  1  0  0  0  0
  8 35  1  0  0  0  0
  8 36  1  0  0  0  0
  9 10  1  0  0  0  0
  9 20  1  0  0  0  0
  9 37  1  0  0  0  0
 10 38  1  0  0  0  0
 10 39  1  0  0  0  0
 11 17  1  0  0  0  0
 11 21  1  0  0  0  0
 11 22  2  0  0  0  0
 12 13  2  0  0  0  0
 12 15  1  0  0  0  0
 12 23  1  0  0  0  0
 13 14  1  0  0  0  0
 13 40  1  0  0  0  0
 14 25  2  0  0  0  0
 14 41  1  0  0  0  0
 15 24  2  0  0  0  0
 15 42  1  0  0  0  0
 17 18  2  0  0  0  0
 18 19  1  0  0  0  0
 18 43  1  0  0  0  0
 19 44  1  0  0  0  0
 20 24  1  0  0  0  0
 20 45  1  0  0  0  0
 24 25  1  0  0  0  0
M  END
>  <DRUGBANK_ID>
DB07002

>  <COMMON_NAME>
4-({4-[(4-methoxypyridin-2-yl)amino]piperidin-1-yl}carbonyl)benzonitrile

$$$$
