
 OpenBabel10282417072D

 44 46  0  0  0  0  0  0  0  0999 V2000
   -3.5724    9.2411    0.0000 C   0  0  0  0  0  0  0  0  0  0  0  0
   -5.7158   10.4786    0.0000 C   0  0  0  0  0  0  0  0  0  0  0  0
   -1.0164    3.4340    0.0000 C   0  0  0  0  0  0  0  0  0  0  0  0
   -5.7158    9.6536    0.0000 C   0  0  0  0  0  0  0  0  0  0  0  0
   -0.7615    4.2187    0.0000 C   0  0  0  0  0  0  0  0  0  0  0  0
   -5.0013   10.8911    0.0000 C   0  0  0  0  0  0  0  0  0  0  0  0
   -2.8579    8.0036    0.0000 C   0  0  0  0  0  0  0  0  0  0  0  0
   -1.4289    5.5286    0.0000 C   0  0  0  0  0  0  0  0  0  0  0  0
   -3.5724    8.4161    0.0000 C   0  0  0  0  0  0  0  0  0  0  0  0
   -2.1434    5.9411    0.0000 C   0  0  0  0  0  0  0  0  0  0  0  0
   -1.8414    3.4340    0.0000 C   0  0  0  0  0  0  0  0  0  0  0  0
   -3.5724    6.7661    0.0000 C   0  0  0  0  0  0  0  0  0  0  0  0
   -5.0013    8.4161    0.0000 C   0  0  0  0  0  0  0  0  0  0  0  0
   -4.2868    9.6536    0.0000 C   0  0  0  0  0  0  0  0  0  0  0  0
   -5.0013    9.2411    0.0000 C   0  0  0  0  0  0  0  0  0  0  0  0
   -2.8579    7.1786    0.0000 C   0  0  0  0  0  0  0  0  0  0  0  0
   -1.4289    4.7036    0.0000 C   0  0  0  0  0  0  0  0  0  0  0  0
   -4.2868   10.4786    0.0000 C   0  0  0  0  0  0  0  0  0  0  0  0
   -4.2868    7.1786    0.0000 C   0  0  0  0  0  0  0  0  0  0  0  0
   -3.5724   10.8911    0.0000 N   0  0  0  0  0  0  0  0  0  0  0  0
   -4.2868    8.0036    0.0000 N   0  0  0  0  0  0  0  0  0  0  0  0
   -5.0013    6.7661    0.0000 O   0  0  0  0  0  0  0  0  0  0  0  0
   -2.1434    6.7661    0.0000 O   0  0  0  0  0  0  0  0  0  0  0  0
   -2.0964    4.2187    0.0000 S   0  0  0  0  0  0  0  0  0  0  0  0
   -3.5724    8.1711    0.0000 H   0  0  0  0  0  0  0  0  0  0  0  0
   -2.6457    9.7761    0.0000 H   0  0  0  0  0  0  0  0  0  0  0  0
   -2.6458    8.7061    0.0000 H   0  0  0  0  0  0  0  0  0  0  0  0
   -6.6095   10.9946    0.0000 H   0  0  0  0  0  0  0  0  0  0  0  0
   -0.4098    2.5991    0.0000 H   0  0  0  0  0  0  0  0  0  0  0  0
   -6.6095    9.1376    0.0000 H   0  0  0  0  0  0  0  0  0  0  0  0
    0.2200    4.5376    0.0000 H   0  0  0  0  0  0  0  0  0  0  0  0
   -5.0013   11.9231    0.0000 H   0  0  0  0  0  0  0  0  0  0  0  0
   -1.9642    8.5196    0.0000 H   0  0  0  0  0  0  0  0  0  0  0  0
   -0.5023    6.0636    0.0000 H   0  0  0  0  0  0  0  0  0  0  0  0
   -0.5023    4.9936    0.0000 H   0  0  0  0  0  0  0  0  0  0  0  0
   -3.5724    9.4481    0.0000 H   0  0  0  0  0  0  0  0  0  0  0  0
   -3.0700    5.4061    0.0000 H   0  0  0  0  0  0  0  0  0  0  0  0
   -3.0700    6.4761    0.0000 H   0  0  0  0  0  0  0  0  0  0  0  0
   -2.4480    2.5991    0.0000 H   0  0  0  0  0  0  0  0  0  0  0  0
   -3.5724    5.7341    0.0000 H   0  0  0  0  0  0  0  0  0  0  0  0
   -5.9279    7.8811    0.0000 H   0  0  0  0  0  0  0  0  0  0  0  0
   -5.0013    7.3461    0.0000 H   0  0  0  0  0  0  0  0  0  0  0  0
   -2.7198   10.3989    0.0000 H   0  0  0  0  0  0  0  0  0  0  0  0
   -3.5724   11.8756    0.0000 H   0  0  0  0  0  0  0  0  0  0  0  0
  1 25  1  0  0  0  0
  1 26  1  0  0  0  0
  1 27  1  0  0  0  0
  2 28  1  0  0  0  0
  3 29  1  0  0  0  0
  4  2  2  0  0  0  0
  4 30  1  0  0  0  0
  5  3  1  0  0  0  0
  5 31  1  0  0  0  0
  6  2  1  0  0  0  0
  6 32  1  0  0  0  0
  7 33  1  0  0  0  0
  8 34  1  0  0  0  0
  8 35  1  0  0  0  0
  9  7  2  0  0  0  0
  9 36  1  0  0  0  0
 10  8  1  0  0  0  0
 10 37  1  0  0  0  0
 10 38  1  0  0  0  0
 11  3  2  0  0  0  0
 11 39  1  0  0  0  0
 12 40  1  0  0  0  0
 13 41  1  0  0  0  0
 13 42  1  0  0  0  0
 14  1  1  0  0  0  0
 15  4  1  0  0  0  0
 15 13  1  0  0  0  0
 15 14  2  0  0  0  0
 16  7  1  0  0  0  0
 16 12  2  0  0  0  0
 17  5  2  0  0  0  0
 17  8  1  0  0  0  0
 18  6  2  0  0  0  0
 18 14  1  0  0  0  0
 19 12  1  0  0  0  0
 20 18  1  0  0  0  0
 20 43  1  0  0  0  0
 20 44  1  0  0  0  0
 21  9  1  0  0  0  0
 21 13  1  0  0  0  0
 21 19  1  0  0  0  0
 22 19  2  0  0  0  0
 23 10  1  0  0  0  0
 23 16  1  0  0  0  0
 24 11  1  0  0  0  0
 24 17  1  0  0  0  0
M  END
>  <DRUGBANK_ID>
DB12347

>  <COMMON_NAME>
CG-400549

>  <CAS_NUMBER>
934628-27-0

>  <UNII>
4X6T64D64X

$$$$
