F10
 OpenBabel10282417072D

 37 40  0  0  0  0  0  0  0  0999 V2000
    3.0788    0.0803    0.0000 N   0  0  0  0  0  0  0  0  0  0  0  0
    2.3644   -1.1572    0.0000 O   0  0  0  0  0  0  0  0  0  0  0  0
   -1.6821   -1.6506    0.0000 C   0  0  0  0  0  0  0  0  0  0  0  0
   -0.8571   -0.2216    0.0000 C   0  0  0  0  0  0  0  0  0  0  0  0
   -2.0946   -2.3651    0.0000 C   0  0  0  0  0  0  0  0  0  0  0  0
    0.8653   -0.1746    0.0000 C   0  0  0  0  0  0  0  0  0  0  0  0
    3.0788    0.9053    0.0000 C   0  0  0  0  0  0  0  0  0  0  0  0
    2.3644    1.3178    0.0000 C   0  0  0  0  0  0  0  0  0  0  0  0
    1.6499    0.0803    0.0000 C   0  0  0  0  0  0  0  0  0  0  0  0
    2.3644   -0.3322    0.0000 C   0  0  0  0  0  0  0  0  0  0  0  0
   -0.8571    1.2073    0.0000 C   0  0  0  0  0  0  0  0  0  0  0  0
   -1.6821    1.2073    0.0000 C   0  0  0  0  0  0  0  0  0  0  0  0
    1.6499    0.9053    0.0000 C   0  0  0  0  0  0  0  0  0  0  0  0
   -0.4446    0.4928    0.0000 C   0  0  0  0  0  0  0  0  0  0  0  0
    0.3804    0.4928    0.0000 C   0  0  0  0  0  0  0  0  0  0  0  0
   -1.6821   -0.2216    0.0000 C   0  0  0  0  0  0  0  0  0  0  0  0
   -2.0946   -0.9361    0.0000 C   0  0  0  0  0  0  0  0  0  0  0  0
   -2.9196   -0.9361    0.0000 C   0  0  0  0  0  0  0  0  0  0  0  0
   -3.3321   -1.6506    0.0000 C   0  0  0  0  0  0  0  0  0  0  0  0
   -2.9196   -2.3651    0.0000 C   0  0  0  0  0  0  0  0  0  0  0  0
   -3.3321   -0.2216    0.0000 F   0  0  0  0  0  0  0  0  0  0  0  0
    0.8653    1.1603    0.0000 N   0  0  0  0  0  0  0  0  0  0  0  0
   -2.0946    0.4928    0.0000 N   0  0  0  0  0  0  0  0  0  0  0  0
    3.9314   -0.4119    0.0000 H   0  0  0  0  0  0  0  0  0  0  0  0
   -0.6501   -1.6506    0.0000 H   0  0  0  0  0  0  0  0  0  0  0  0
   -0.3411   -1.1153    0.0000 H   0  0  0  0  0  0  0  0  0  0  0  0
   -1.5786   -3.2588    0.0000 H   0  0  0  0  0  0  0  0  0  0  0  0
    0.5464   -1.1561    0.0000 H   0  0  0  0  0  0  0  0  0  0  0  0
    4.0055    1.4403    0.0000 H   0  0  0  0  0  0  0  0  0  0  0  0
    3.0788    1.9753    0.0000 H   0  0  0  0  0  0  0  0  0  0  0  0
    2.3644    2.3878    0.0000 H   0  0  0  0  0  0  0  0  0  0  0  0
    1.4378    1.8528    0.0000 H   0  0  0  0  0  0  0  0  0  0  0  0
   -0.3411    2.1010    0.0000 H   0  0  0  0  0  0  0  0  0  0  0  0
   -2.1981    2.1010    0.0000 H   0  0  0  0  0  0  0  0  0  0  0  0
   -4.3641   -1.6506    0.0000 H   0  0  0  0  0  0  0  0  0  0  0  0
   -3.4356   -3.2588    0.0000 H   0  0  0  0  0  0  0  0  0  0  0  0
    0.5611    2.0966    0.0000 H   0  0  0  0  0  0  0  0  0  0  0  0
  1 10  1  0  0  0  0
  1  7  1  0  0  0  0
  1 24  1  0  0  0  0
  2 10  2  0  0  0  0
  3  5  2  0  0  0  0
  3 17  1  0  0  0  0
  3 25  1  0  0  0  0
  4 16  2  0  0  0  0
  4 14  1  0  0  0  0
  4 26  1  0  0  0  0
  5 20  1  0  0  0  0
  5 27  1  0  0  0  0
  6 15  2  0  0  0  0
  6  9  1  0  0  0  0
  6 28  1  0  0  0  0
  7  8  1  0  0  0  0
  7 29  1  0  0  0  0
  7 30  1  0  0  0  0
  8 13  1  0  0  0  0
  8 31  1  0  0  0  0
  8 32  1  0  0  0  0
  9 10  1  0  0  0  0
  9 13  2  0  0  0  0
 11 12  1  0  0  0  0
 11 14  2  0  0  0  0
 11 33  1  0  0  0  0
 12 23  2  0  0  0  0
 12 34  1  0  0  0  0
 13 22  1  0  0  0  0
 14 15  1  0  0  0  0
 15 22  1  0  0  0  0
 16 23  1  0  0  0  0
 16 17  1  0  0  0  0
 17 18  2  0  0  0  0
 18 19  1  0  0  0  0
 18 21  1  0  0  0  0
 19 20  2  0  0  0  0
 19 35  1  0  0  0  0
 20 36  1  0  0  0  0
 22 37  1  0  0  0  0
M  END
>  <DRUGBANK_ID>
DB07728

>  <COMMON_NAME>
2-[2-(2-FLUOROPHENYL)PYRIDIN-4-YL]-1,5,6,7-TETRAHYDRO-4H-PYRROLO[3,2-C]PYRIDIN-4-ONE

$$$$
