ANH
 OpenBabel10282417072D

 54 55  0  0  0  0  0  0  0  0999 V2000
   -0.5024    0.1583    0.0000 N   0  0  0  0  0  0  0  0  0  0  0  0
   -1.3125    0.0024    0.0000 C   0  0  1  0  0  0  0  0  0  0  0  0
   -1.8526    0.6260    0.0000 C   0  0  0  0  0  0  0  0  0  0  0  0
   -1.5826   -0.7771    0.0000 C   0  0  0  0  0  0  0  0  0  0  0  0
   -2.3927   -0.9331    0.0000 O   0  0  0  0  0  0  0  0  0  0  0  0
   -1.0425   -1.4008    0.0000 O   0  0  0  0  0  0  0  0  0  0  0  0
   -1.3125   -2.1803    0.0000 C   0  0  0  0  0  0  0  0  0  0  0  0
   -2.6627    0.4701    0.0000 C   0  0  0  0  0  0  0  0  0  0  0  0
   -2.9328   -0.3094    0.0000 C   0  0  0  0  0  0  0  0  0  0  0  0
   -3.7429   -0.4653    0.0000 C   0  0  0  0  0  0  0  0  0  0  0  0
   -4.2830    0.1583    0.0000 C   0  0  0  0  0  0  0  0  0  0  0  0
   -4.0130    0.9379    0.0000 C   0  0  0  0  0  0  0  0  0  0  0  0
   -3.2028    1.0938    0.0000 C   0  0  0  0  0  0  0  0  0  0  0  0
   -4.5531    1.5615    0.0000 C   0  0  0  0  0  0  0  0  0  0  0  0
   -5.3632    1.4056    0.0000 N   0  0  0  0  0  0  0  0  0  0  0  0
   -4.2830    2.3411    0.0000 N   0  0  0  0  0  0  0  0  0  0  0  0
    0.0377   -0.4653    0.0000 C   0  0  0  0  0  0  0  0  0  0  0  0
    0.8478   -0.3094    0.0000 C   0  0  0  0  0  0  0  0  0  0  0  0
    1.3879   -0.9331    0.0000 N   0  0  0  0  0  0  0  0  0  0  0  0
   -0.2323   -1.2449    0.0000 O   0  0  0  0  0  0  0  0  0  0  0  0
    5.4386   -0.1535    0.0000 C   0  0  0  0  0  0  0  0  0  0  0  0
    4.6285   -0.3094    0.0000 C   0  0  0  0  0  0  0  0  0  0  0  0
    4.3584   -1.0890    0.0000 C   0  0  0  0  0  0  0  0  0  0  0  0
    3.5483   -1.2449    0.0000 C   0  0  0  0  0  0  0  0  0  0  0  0
    3.0082   -0.6212    0.0000 C   0  0  0  0  0  0  0  0  0  0  0  0
    3.2782    0.1583    0.0000 C   0  0  0  0  0  0  0  0  0  0  0  0
    4.0884    0.3142    0.0000 C   0  0  0  0  0  0  0  0  0  0  0  0
    2.1981   -0.7771    0.0000 S   0  0  0  0  0  0  0  0  0  0  0  0
    2.3540   -1.5873    0.0000 O   0  0  0  0  0  0  0  0  0  0  0  0
    2.0422    0.0330    0.0000 O   0  0  0  0  0  0  0  0  0  0  0  0
   -1.1214    0.5542    0.0000 H   0  0  0  0  0  0  0  0  0  0  0  0
   -0.1802    1.0886    0.0000 H   0  0  0  0  0  0  0  0  0  0  0  0
   -1.5024    1.6371    0.0000 H   0  0  0  0  0  0  0  0  0  0  0  0
   -2.5531    1.4348    0.0000 H   0  0  0  0  0  0  0  0  0  0  0  0
   -2.3632   -2.3825    0.0000 H   0  0  0  0  0  0  0  0  0  0  0  0
   -0.6120   -2.9891    0.0000 H   0  0  0  0  0  0  0  0  0  0  0  0
   -1.6627   -3.1914    0.0000 H   0  0  0  0  0  0  0  0  0  0  0  0
   -2.2572   -1.0895    0.0000 H   0  0  0  0  0  0  0  0  0  0  0  0
   -4.0807   -1.4405    0.0000 H   0  0  0  0  0  0  0  0  0  0  0  0
   -5.2964   -0.0368    0.0000 H   0  0  0  0  0  0  0  0  0  0  0  0
   -2.8650    2.0689    0.0000 H   0  0  0  0  0  0  0  0  0  0  0  0
   -6.0077    2.1498    0.0000 H   0  0  0  0  0  0  0  0  0  0  0  0
   -5.6855    0.4753    0.0000 H   0  0  0  0  0  0  0  0  0  0  0  0
   -3.3162    2.5271    0.0000 H   0  0  0  0  0  0  0  0  0  0  0  0
    1.1981    0.7016    0.0000 H   0  0  0  0  0  0  0  0  0  0  0  0
    1.8985   -0.1072    0.0000 H   0  0  0  0  0  0  0  0  0  0  0  0
    1.0541   -1.8969    0.0000 H   0  0  0  0  0  0  0  0  0  0  0  0
    6.1391   -0.9623    0.0000 H   0  0  0  0  0  0  0  0  0  0  0  0
    5.7888    0.8576    0.0000 H   0  0  0  0  0  0  0  0  0  0  0  0
    6.4893    0.0487    0.0000 H   0  0  0  0  0  0  0  0  0  0  0  0
    5.0340   -1.8691    0.0000 H   0  0  0  0  0  0  0  0  0  0  0  0
    3.2105   -2.2200    0.0000 H   0  0  0  0  0  0  0  0  0  0  0  0
    2.6026    0.9384    0.0000 H   0  0  0  0  0  0  0  0  0  0  0  0
    4.4262    1.2894    0.0000 H   0  0  0  0  0  0  0  0  0  0  0  0
  1 17  1  0  0  0  0
  1 32  1  0  0  0  0
  2  1  1  0  0  0  0
  2  3  1  0  0  0  0
  2  4  1  0  0  0  0
  2 31  1  1  0  0  0
  3  8  1  0  0  0  0
  3 33  1  0  0  0  0
  3 34  1  0  0  0  0
  4  5  2  0  0  0  0
  4  6  1  0  0  0  0
  6  7  1  0  0  0  0
  7 35  1  0  0  0  0
  7 36  1  0  0  0  0
  7 37  1  0  0  0  0
  8  9  2  0  0  0  0
  8 13  1  0  0  0  0
  9 10  1  0  0  0  0
  9 38  1  0  0  0  0
 10 11  2  0  0  0  0
 10 39  1  0  0  0  0
 11 12  1  0  0  0  0
 11 40  1  0  0  0  0
 12 13  2  0  0  0  0
 12 14  1  0  0  0  0
 13 41  1  0  0  0  0
 14 15  1  0  0  0  0
 14 16  2  0  0  0  0
 15 42  1  0  0  0  0
 15 43  1  0  0  0  0
 16 44  1  0  0  0  0
 17 18  1  0  0  0  0
 17 20  2  0  0  0  0
 18 19  1  0  0  0  0
 18 45  1  0  0  0  0
 18 46  1  0  0  0  0
 19 28  1  0  0  0  0
 19 47  1  0  0  0  0
 21 22  1  0  0  0  0
 21 48  1  0  0  0  0
 21 49  1  0  0  0  0
 21 50  1  0  0  0  0
 22 23  1  0  0  0  0
 22 27  2  0  0  0  0
 23 24  2  0  0  0  0
 23 51  1  0  0  0  0
 24 25  1  0  0  0  0
 24 52  1  0  0  0  0
 25 26  2  0  0  0  0
 25 28  1  0  0  0  0
 26 27  1  0  0  0  0
 26 53  1  0  0  0  0
 27 54  1  0  0  0  0
 28 29  2  0  0  0  0
 28 30  2  0  0  0  0
M  END
>  <DRUGBANK_ID>
DB01737

>  <SECONDARY_ACCESSION_NUMBERS>
EXPT00521

>  <COMMON_NAME>
Nalpha-(2-Naphthylsulfonylglycyl)-3-Amidino-D,L-Phenylalanine-Isopropylester

>  <CAS_NUMBER>
133397-81-6

$$$$
