
 OpenBabel10282417072D

100103  0  0  0  0  0  0  0  0999 V2000
    5.8055    2.3935    0.0000 S   0  0  0  0  0  0  0  0  0  0  0  0
   -7.4716    2.7248    0.0000 P   0  0  0  0  0  0  0  0  0  0  0  0
   -4.8972    1.7020    0.0000 P   0  0  1  0  0  0  0  0  0  0  0  0
   -3.4759    1.8489    0.0000 P   0  0  2  0  0  0  0  0  0  0  0  0
   -6.9884    0.2463    0.0000 O   0  0  0  0  0  0  0  0  0  0  0  0
   -8.0247    2.1127    0.0000 O   0  0  0  0  0  0  0  0  0  0  0  0
   -9.0822    0.6624    0.0000 O   0  0  0  0  0  0  0  0  0  0  0  0
   -5.5655    1.2182    0.0000 O   0  0  0  0  0  0  0  0  0  0  0  0
   -6.9185    3.3370    0.0000 O   0  0  0  0  0  0  0  0  0  0  0  0
   -8.0837    3.2780    0.0000 O   0  0  0  0  0  0  0  0  0  0  0  0
   -4.2289    2.1857    0.0000 O   0  0  0  0  0  0  0  0  0  0  0  0
   -6.8594    2.1717    0.0000 O   0  0  0  0  0  0  0  0  0  0  0  0
   -2.7227    1.5120    0.0000 O   0  0  0  0  0  0  0  0  0  0  0  0
   -4.4135    1.0337    0.0000 O   0  0  0  0  0  0  0  0  0  0  0  0
   -0.4634    0.5015    0.0000 O   0  0  0  0  0  0  0  0  0  0  0  0
   -5.3810    2.3703    0.0000 O   0  0  0  0  0  0  0  0  0  0  0  0
   -3.1390    2.6020    0.0000 O   0  0  0  0  0  0  0  0  0  0  0  0
   -3.8127    1.0958    0.0000 O   0  0  0  0  0  0  0  0  0  0  0  0
    0.0351    2.6265    0.0000 O   0  0  0  0  0  0  0  0  0  0  0  0
    2.8780    2.9203    0.0000 O   0  0  0  0  0  0  0  0  0  0  0  0
    7.1421    3.3611    0.0000 O   0  0  0  0  0  0  0  0  0  0  0  0
   10.2393    1.1929    0.0000 O   0  0  0  0  0  0  0  0  0  0  0  0
   -8.0297   -0.7914    0.0000 N   0  0  0  0  0  0  0  0  0  0  0  0
   -8.0297   -2.1192    0.0000 N   0  0  0  0  0  0  0  0  0  0  0  0
   -9.5249   -0.6303    0.0000 N   0  0  0  0  0  0  0  0  0  0  0  0
  -10.2393   -1.8678    0.0000 N   0  0  0  0  0  0  0  0  0  0  0  0
   -9.5249   -3.1053    0.0000 N   0  0  0  0  0  0  0  0  0  0  0  0
    0.8731    1.4690    0.0000 N   0  0  0  0  0  0  0  0  0  0  0  0
    3.7159    1.7628    0.0000 N   0  0  0  0  0  0  0  0  0  0  0  0
   -7.7711    1.3276    0.0000 C   0  0  1  0  0  0  0  0  0  0  0  0
   -8.2572    0.6610    0.0000 C   0  0  2  0  0  0  0  0  0  0  0  0
   -6.9869    1.0713    0.0000 C   0  0  1  0  0  0  0  0  0  0  0  0
   -7.7734   -0.0072    0.0000 C   0  0  1  0  0  0  0  0  0  0  0  0
   -6.3186    1.5551    0.0000 C   0  0  0  0  0  0  0  0  0  0  0  0
   -8.8103   -1.0428    0.0000 C   0  0  0  0  0  0  0  0  0  0  0  0
   -7.5482   -1.4553    0.0000 C   0  0  0  0  0  0  0  0  0  0  0  0
   -8.8103   -1.8678    0.0000 C   0  0  0  0  0  0  0  0  0  0  0  0
   -1.3014    1.6590    0.0000 C   0  0  0  0  0  0  0  0  0  0  0  0
   -0.5482    1.3221    0.0000 C   0  0  2  0  0  0  0  0  0  0  0  0
   -2.0544    1.9958    0.0000 C   0  0  0  0  0  0  0  0  0  0  0  0
   -9.5249   -2.2803    0.0000 C   0  0  0  0  0  0  0  0  0  0  0  0
   -0.9644    2.4120    0.0000 C   0  0  0  0  0  0  0  0  0  0  0  0
   -1.6382    0.9058    0.0000 C   0  0  0  0  0  0  0  0  0  0  0  0
  -10.2393   -1.0428    0.0000 C   0  0  0  0  0  0  0  0  0  0  0  0
    0.1199    1.8058    0.0000 C   0  0  0  0  0  0  0  0  0  0  0  0
    1.5414    1.9528    0.0000 C   0  0  0  0  0  0  0  0  0  0  0  0
    2.2944    1.6159    0.0000 C   0  0  0  0  0  0  0  0  0  0  0  0
    2.9628    2.0997    0.0000 C   0  0  0  0  0  0  0  0  0  0  0  0
    4.3841    2.2465    0.0000 C   0  0  0  0  0  0  0  0  0  0  0  0
    5.1373    1.9097    0.0000 C   0  0  0  0  0  0  0  0  0  0  0  0
    6.5587    2.0566    0.0000 C   0  0  0  0  0  0  0  0  0  0  0  0
    7.2270    2.5404    0.0000 C   0  0  0  0  0  0  0  0  0  0  0  0
    7.9800    2.2036    0.0000 C   0  0  0  0  0  0  0  0  0  0  0  0
    8.6484    2.6873    0.0000 C   0  0  0  0  0  0  0  0  0  0  0  0
    8.0648    1.3829    0.0000 C   0  0  0  0  0  0  0  0  0  0  0  0
    9.4014    2.3504    0.0000 C   0  0  0  0  0  0  0  0  0  0  0  0
    8.8180    1.0460    0.0000 C   0  0  0  0  0  0  0  0  0  0  0  0
    9.4863    1.5298    0.0000 C   0  0  0  0  0  0  0  0  0  0  0  0
   -9.9678   -3.3611    0.0000 H   0  0  0  0  0  0  0  0  0  0  0  0
   -9.0818   -3.3611    0.0000 H   0  0  0  0  0  0  0  0  0  0  0  0
    0.9257    0.9602    0.0000 H   0  0  0  0  0  0  0  0  0  0  0  0
    3.7684    1.2540    0.0000 H   0  0  0  0  0  0  0  0  0  0  0  0
   -9.5658    1.5033    0.0000 H   0  0  0  0  0  0  0  0  0  0  0  0
   -5.9700    3.1337    0.0000 H   0  0  0  0  0  0  0  0  0  0  0  0
   -7.8803    4.2264    0.0000 H   0  0  0  0  0  0  0  0  0  0  0  0
   -4.8096    0.1483    0.0000 H   0  0  0  0  0  0  0  0  0  0  0  0
   -1.2491   -0.0673    0.0000 H   0  0  0  0  0  0  0  0  0  0  0  0
   -2.1741    2.7017    0.0000 H   0  0  0  0  0  0  0  0  0  0  0  0
   10.3355    0.2609    0.0000 H   0  0  0  0  0  0  0  0  0  0  0  0
   -8.8276    1.4968    0.0000 H   0  0  0  0  0  0  0  0  0  0  0  0
   -8.7413    1.6152    0.0000 H   0  0  0  0  0  0  0  0  0  0  0  0
   -6.0344    0.5838    0.0000 H   0  0  0  0  0  0  0  0  0  0  0  0
   -7.0181   -0.7651    0.0000 H   0  0  0  0  0  0  0  0  0  0  0  0
   -6.4286    2.6194    0.0000 H   0  0  0  0  0  0  0  0  0  0  0  0
   -7.2953    1.9920    0.0000 H   0  0  0  0  0  0  0  0  0  0  0  0
   -6.5162   -1.4553    0.0000 H   0  0  0  0  0  0  0  0  0  0  0  0
   -1.4149    0.6947    0.0000 H   0  0  0  0  0  0  0  0  0  0  0  0
   -2.1644    3.0601    0.0000 H   0  0  0  0  0  0  0  0  0  0  0  0
   -1.1877    2.6232    0.0000 H   0  0  0  0  0  0  0  0  0  0  0  0
    0.1000    2.5218    0.0000 H   0  0  0  0  0  0  0  0  0  0  0  0
   -1.5917    3.2789    0.0000 H   0  0  0  0  0  0  0  0  0  0  0  0
   -0.5273    3.3887    0.0000 H   0  0  0  0  0  0  0  0  0  0  0  0
   -2.7025    0.7957    0.0000 H   0  0  0  0  0  0  0  0  0  0  0  0
   -1.0107    0.0391    0.0000 H   0  0  0  0  0  0  0  0  0  0  0  0
   -2.0750   -0.0710    0.0000 H   0  0  0  0  0  0  0  0  0  0  0  0
  -11.1330   -0.5268    0.0000 H   0  0  0  0  0  0  0  0  0  0  0  0
    1.4314    3.0171    0.0000 H   0  0  0  0  0  0  0  0  0  0  0  0
    2.4082    2.5802    0.0000 H   0  0  0  0  0  0  0  0  0  0  0  0
    2.4043    0.5516    0.0000 H   0  0  0  0  0  0  0  0  0  0  0  0
    3.2711    1.1789    0.0000 H   0  0  0  0  0  0  0  0  0  0  0  0
    4.2740    3.3108    0.0000 H   0  0  0  0  0  0  0  0  0  0  0  0
    5.2508    2.8740    0.0000 H   0  0  0  0  0  0  0  0  0  0  0  0
    5.2474    0.8454    0.0000 H   0  0  0  0  0  0  0  0  0  0  0  0
    4.2706    1.2822    0.0000 H   0  0  0  0  0  0  0  0  0  0  0  0
    6.6687    0.9923    0.0000 H   0  0  0  0  0  0  0  0  0  0  0  0
    7.5354    1.6197    0.0000 H   0  0  0  0  0  0  0  0  0  0  0  0
    8.5424    3.7138    0.0000 H   0  0  0  0  0  0  0  0  0  0  0  0
    7.2288    0.7778    0.0000 H   0  0  0  0  0  0  0  0  0  0  0  0
   10.2373    2.9556    0.0000 H   0  0  0  0  0  0  0  0  0  0  0  0
    8.9241    0.0195    0.0000 H   0  0  0  0  0  0  0  0  0  0  0  0
  1 50  1  0  0  0  0
  1 51  1  0  0  0  0
  2  6  1  0  0  0  0
  2  9  1  0  0  0  0
  2 10  1  0  0  0  0
  2 12  2  0  0  0  0
  3  8  1  0  0  0  0
  3 11  1  0  0  0  0
  3 14  1  0  0  0  0
  3 16  2  6  0  0  0
  4 11  1  0  0  0  0
  4 13  1  0  0  0  0
  4 17  1  0  0  0  0
  4 18  2  6  0  0  0
  5 32  1  0  0  0  0
  5 33  1  0  0  0  0
  7 63  1  0  0  0  0
  8 34  1  0  0  0  0
  9 64  1  0  0  0  0
 10 65  1  0  0  0  0
 13 40  1  0  0  0  0
 14 66  1  0  0  0  0
 15 67  1  0  0  0  0
 17 68  1  0  0  0  0
 19 45  2  0  0  0  0
 20 48  2  0  0  0  0
 21 52  2  0  0  0  0
 22 58  1  0  0  0  0
 22 69  1  0  0  0  0
 23 35  1  0  0  0  0
 23 36  1  0  0  0  0
 24 36  2  0  0  0  0
 24 37  1  0  0  0  0
 25 35  2  0  0  0  0
 25 44  1  0  0  0  0
 26 41  1  0  0  0  0
 26 44  2  0  0  0  0
 27 41  1  0  0  0  0
 27 59  1  0  0  0  0
 27 60  1  0  0  0  0
 28 45  1  0  0  0  0
 28 46  1  0  0  0  0
 28 61  1  0  0  0  0
 29 48  1  0  0  0  0
 29 49  1  0  0  0  0
 29 62  1  0  0  0  0
 30  6  1  0  0  0  0
 30 31  1  0  0  0  0
 30 32  1  0  0  0  0
 30 70  1  1  0  0  0
 31  7  1  0  0  0  0
 31 33  1  0  0  0  0
 31 71  1  1  0  0  0
 32 34  1  0  0  0  0
 32 72  1  6  0  0  0
 33 23  1  0  0  0  0
 33 73  1  6  0  0  0
 34 74  1  0  0  0  0
 34 75  1  0  0  0  0
 35 37  1  0  0  0  0
 36 76  1  0  0  0  0
 37 41  2  0  0  0  0
 38 39  1  0  0  0  0
 38 40  1  0  0  0  0
 38 42  1  0  0  0  0
 38 43  1  0  0  0  0
 39 15  1  0  0  0  0
 39 45  1  0  0  0  0
 39 77  1  1  0  0  0
 40 78  1  0  0  0  0
 40 79  1  0  0  0  0
 42 80  1  0  0  0  0
 42 81  1  0  0  0  0
 42 82  1  0  0  0  0
 43 83  1  0  0  0  0
 43 84  1  0  0  0  0
 43 85  1  0  0  0  0
 44 86  1  0  0  0  0
 46 47  1  0  0  0  0
 46 87  1  0  0  0  0
 46 88  1  0  0  0  0
 47 48  1  0  0  0  0
 47 89  1  0  0  0  0
 47 90  1  0  0  0  0
 49 50  1  0  0  0  0
 49 91  1  0  0  0  0
 49 92  1  0  0  0  0
 50 93  1  0  0  0  0
 50 94  1  0  0  0  0
 51 52  1  0  0  0  0
 51 95  1  0  0  0  0
 51 96  1  0  0  0  0
 52 53  1  0  0  0  0
 53 54  2  0  0  0  0
 53 55  1  0  0  0  0
 54 56  1  0  0  0  0
 54 97  1  0  0  0  0
 55 57  2  0  0  0  0
 55 98  1  0  0  0  0
 56 58  2  0  0  0  0
 56 99  1  0  0  0  0
 57 58  1  0  0  0  0
 57100  1  0  0  0  0
M  END
>  <DRUGBANK_ID>
DB03613

>  <SECONDARY_ACCESSION_NUMBERS>
EXPT00209

>  <COMMON_NAME>
4-hydroxyphenacyl coenzyme A

$$$$
