
 OpenBabel10282417072D

176182  0  0  0  0  0  0  0  0999 V2000
    0.7145    0.4125    0.0000 C   0  0  0  0  0  0  0  0  0  0  0  0
    0.7145   -0.4125    0.0000 C   0  0  0  0  0  0  0  0  0  0  0  0
    0.0000   -0.8250    0.0000 O   0  0  0  0  0  0  0  0  0  0  0  0
   -0.7145    0.4125    0.0000 C   0  0  0  0  0  0  0  0  0  0  0  0
   -0.7145   -0.4125    0.0000 C   0  0  0  0  0  0  0  0  0  0  0  0
    0.0000    0.8250    0.0000 N   0  0  0  0  0  0  0  0  0  0  0  0
    1.4289    0.8250    0.0000 C   0  0  0  0  0  0  0  0  0  0  0  0
    1.4289   -0.8250    0.0000 C   0  0  0  0  0  0  0  0  0  0  0  0
    1.4289    1.6500    0.0000 C   0  0  0  0  0  0  0  0  0  0  0  0
    2.1434    0.4125    0.0000 C   0  0  0  0  0  0  0  0  0  0  0  0
    2.1434   -0.4125    0.0000 C   0  0  0  0  0  0  0  0  0  0  0  0
    1.4289   -1.6500    0.0000 C   0  0  0  0  0  0  0  0  0  0  0  0
    0.7145    2.0625    0.0000 O   0  0  0  0  0  0  0  0  0  0  0  0
    2.8579    0.8250    0.0000 N   0  0  0  0  0  0  0  0  0  0  0  0
   -1.4289    0.8250    0.0000 C   0  0  0  0  0  0  0  0  0  0  0  0
   -1.4289   -0.8250    0.0000 C   0  0  0  0  0  0  0  0  0  0  0  0
    2.8579   -0.8250    0.0000 O   0  0  0  0  0  0  0  0  0  0  0  0
   -1.4289    1.6500    0.0000 C   0  0  0  0  0  0  0  0  0  0  0  0
   -2.1434    0.4125    0.0000 C   0  0  0  0  0  0  0  0  0  0  0  0
   -2.1434   -0.4125    0.0000 C   0  0  0  0  0  0  0  0  0  0  0  0
   -1.4289   -1.6500    0.0000 C   0  0  0  0  0  0  0  0  0  0  0  0
   -0.7145    2.0625    0.0000 O   0  0  0  0  0  0  0  0  0  0  0  0
   -2.1434    2.0625    0.0000 N   0  0  0  0  0  0  0  0  0  0  0  0
   -2.1434    2.8875    0.0000 C   0  0  2  0  0  0  0  0  0  0  0  0
   -1.4289    3.3000    0.0000 C   0  0  0  0  0  0  0  0  0  0  0  0
   -2.8579    3.3000    0.0000 C   0  0  2  0  0  0  0  0  0  0  0  0
   -3.5724    2.8875    0.0000 O   0  0  0  0  0  0  0  0  0  0  0  0
   -4.2868    3.3000    0.0000 C   0  0  0  0  0  0  0  0  0  0  0  0
   -5.0013    7.0125    0.0000 N   0  0  0  0  0  0  0  0  0  0  0  0
   -5.1728    7.8195    0.0000 C   0  0  0  0  0  0  0  0  0  0  0  0
   -5.7158    6.6000    0.0000 C   0  0  1  0  0  0  0  0  0  0  0  0
   -5.9933    7.9057    0.0000 C   0  0  0  0  0  0  0  0  0  0  0  0
   -6.3289    7.1520    0.0000 C   0  0  0  0  0  0  0  0  0  0  0  0
   -6.3990    6.1377    0.0000 H   0  0  0  0  0  0  0  0  0  0  0  0
   -5.7158    5.7750    0.0000 C   0  0  0  0  0  0  0  0  0  0  0  0
   -6.4302    5.3625    0.0000 N   0  0  0  0  0  0  0  0  0  0  0  0
   -6.4302    4.5375    0.0000 C   0  0  0  0  0  0  0  0  0  0  0  0
   -7.1447    5.7750    0.0000 C   0  0  0  0  0  0  0  0  0  0  0  0
   -5.7158    4.1250    0.0000 C   0  0  0  0  0  0  0  0  0  0  0  0
   -5.0013    4.5375    0.0000 O   0  0  0  0  0  0  0  0  0  0  0  0
   -5.7158    3.3000    0.0000 N   0  0  0  0  0  0  0  0  0  0  0  0
   -6.4302    2.8875    0.0000 C   0  0  0  0  0  0  0  0  0  0  0  0
   -5.0013    2.8875    0.0000 C   0  0  1  0  0  0  0  0  0  0  0  0
   -5.0013    2.0625    0.0000 C   0  0  0  0  0  0  0  0  0  0  0  0
   -5.7158    1.6500    0.0000 C   0  0  0  0  0  0  0  0  0  0  0  0
   -4.2868    1.6500    0.0000 C   0  0  0  0  0  0  0  0  0  0  0  0
   -5.0013    5.3625    0.0000 O   0  0  0  0  0  0  0  0  0  0  0  0
   -4.2868    4.1250    0.0000 O   0  0  0  0  0  0  0  0  0  0  0  0
   -2.8579    4.1250    0.0000 C   0  0  0  0  0  0  0  0  0  0  0  0
   -4.2868    5.7750    0.0000 O   0  0  0  0  0  0  0  0  0  0  0  0
   -0.7145    2.8875    0.0000 O   0  0  0  0  0  0  0  0  0  0  0  0
   -1.4289    6.6000    0.0000 N   0  0  0  0  0  0  0  0  0  0  0  0
   -4.2868    6.6000    0.0000 C   0  0  0  0  0  0  0  0  0  0  0  0
   -2.8579    7.4250    0.0000 C   0  0  1  0  0  0  0  0  0  0  0  0
   -3.5724    8.6625    0.0000 C   0  0  0  0  0  0  0  0  0  0  0  0
   -2.8579    8.2500    0.0000 C   0  0  0  0  0  0  0  0  0  0  0  0
   -2.1434    8.6625    0.0000 C   0  0  0  0  0  0  0  0  0  0  0  0
    2.1434    2.0625    0.0000 N   0  0  0  0  0  0  0  0  0  0  0  0
    2.1434    2.8875    0.0000 C   0  0  2  0  0  0  0  0  0  0  0  0
    1.4289    3.3000    0.0000 C   0  0  0  0  0  0  0  0  0  0  0  0
    2.8579    3.3000    0.0000 C   0  0  2  0  0  0  0  0  0  0  0  0
    3.5724    2.8875    0.0000 O   0  0  0  0  0  0  0  0  0  0  0  0
    4.2868    3.3000    0.0000 C   0  0  0  0  0  0  0  0  0  0  0  0
    5.0013    7.0125    0.0000 N   0  0  0  0  0  0  0  0  0  0  0  0
    5.1728    7.8195    0.0000 C   0  0  0  0  0  0  0  0  0  0  0  0
    5.7158    6.6000    0.0000 C   0  0  1  0  0  0  0  0  0  0  0  0
    5.9933    7.9057    0.0000 C   0  0  0  0  0  0  0  0  0  0  0  0
    6.3289    7.1520    0.0000 C   0  0  0  0  0  0  0  0  0  0  0  0
    6.3990    6.1377    0.0000 H   0  0  0  0  0  0  0  0  0  0  0  0
    5.7158    5.7750    0.0000 C   0  0  0  0  0  0  0  0  0  0  0  0
    6.4302    5.3625    0.0000 N   0  0  0  0  0  0  0  0  0  0  0  0
    6.4302    4.5375    0.0000 C   0  0  0  0  0  0  0  0  0  0  0  0
    7.1447    5.7750    0.0000 C   0  0  0  0  0  0  0  0  0  0  0  0
    5.7158    4.1250    0.0000 C   0  0  0  0  0  0  0  0  0  0  0  0
    5.0013    4.5375    0.0000 O   0  0  0  0  0  0  0  0  0  0  0  0
    5.7158    3.3000    0.0000 N   0  0  0  0  0  0  0  0  0  0  0  0
    6.4302    2.8875    0.0000 C   0  0  0  0  0  0  0  0  0  0  0  0
    5.0013    2.8875    0.0000 C   0  0  1  0  0  0  0  0  0  0  0  0
    5.0013    2.0625    0.0000 C   0  0  0  0  0  0  0  0  0  0  0  0
    5.7158    1.6500    0.0000 C   0  0  0  0  0  0  0  0  0  0  0  0
    4.2868    1.6500    0.0000 C   0  0  0  0  0  0  0  0  0  0  0  0
    5.0013    5.3625    0.0000 O   0  0  0  0  0  0  0  0  0  0  0  0
    4.2868    4.1250    0.0000 O   0  0  0  0  0  0  0  0  0  0  0  0
    2.8579    4.1250    0.0000 C   0  0  0  0  0  0  0  0  0  0  0  0
    4.2868    5.7750    0.0000 O   0  0  0  0  0  0  0  0  0  0  0  0
    0.7145    2.8875    0.0000 O   0  0  0  0  0  0  0  0  0  0  0  0
    1.4289    6.6000    0.0000 N   0  0  0  0  0  0  0  0  0  0  0  0
    4.2868    6.6000    0.0000 C   0  0  0  0  0  0  0  0  0  0  0  0
    2.8579    7.4250    0.0000 C   0  0  1  0  0  0  0  0  0  0  0  0
    3.5724    8.6625    0.0000 C   0  0  0  0  0  0  0  0  0  0  0  0
    2.8579    8.2500    0.0000 C   0  0  0  0  0  0  0  0  0  0  0  0
    2.1434    8.6625    0.0000 C   0  0  0  0  0  0  0  0  0  0  0  0
    0.5023   -2.1850    0.0000 H   0  0  0  0  0  0  0  0  0  0  0  0
    2.3555   -2.1850    0.0000 H   0  0  0  0  0  0  0  0  0  0  0  0
    1.4289   -2.7200    0.0000 H   0  0  0  0  0  0  0  0  0  0  0  0
    3.7105    0.3327    0.0000 H   0  0  0  0  0  0  0  0  0  0  0  0
    2.8579    1.8095    0.0000 H   0  0  0  0  0  0  0  0  0  0  0  0
   -3.0371    0.9285    0.0000 H   0  0  0  0  0  0  0  0  0  0  0  0
   -3.0371   -0.9285    0.0000 H   0  0  0  0  0  0  0  0  0  0  0  0
   -2.3555   -2.1850    0.0000 H   0  0  0  0  0  0  0  0  0  0  0  0
   -0.5023   -2.1850    0.0000 H   0  0  0  0  0  0  0  0  0  0  0  0
   -1.4289   -2.7200    0.0000 H   0  0  0  0  0  0  0  0  0  0  0  0
   -2.9960    1.5702    0.0000 H   0  0  0  0  0  0  0  0  0  0  0  0
   -1.2168    2.3525    0.0000 H   0  0  0  0  0  0  0  0  0  0  0  0
   -1.9313    3.8350    0.0000 H   0  0  0  0  0  0  0  0  0  0  0  0
   -4.4568    8.6147    0.0000 H   0  0  0  0  0  0  0  0  0  0  0  0
   -5.5563    8.8184    0.0000 H   0  0  0  0  0  0  0  0  0  0  0  0
   -6.5283    8.8323    0.0000 H   0  0  0  0  0  0  0  0  0  0  0  0
   -7.0618    7.8497    0.0000 H   0  0  0  0  0  0  0  0  0  0  0  0
   -7.3755    6.9295    0.0000 H   0  0  0  0  0  0  0  0  0  0  0  0
   -7.0023    7.9836    0.0000 H   0  0  0  0  0  0  0  0  0  0  0  0
   -7.3569    4.0025    0.0000 H   0  0  0  0  0  0  0  0  0  0  0  0
   -6.4302    3.4675    0.0000 H   0  0  0  0  0  0  0  0  0  0  0  0
   -7.1447    6.8450    0.0000 H   0  0  0  0  0  0  0  0  0  0  0  0
   -8.0713    5.2400    0.0000 H   0  0  0  0  0  0  0  0  0  0  0  0
   -8.0714    6.3100    0.0000 H   0  0  0  0  0  0  0  0  0  0  0  0
   -7.3569    3.4225    0.0000 H   0  0  0  0  0  0  0  0  0  0  0  0
   -6.4302    1.8175    0.0000 H   0  0  0  0  0  0  0  0  0  0  0  0
   -7.3568    2.3525    0.0000 H   0  0  0  0  0  0  0  0  0  0  0  0
   -4.0747    2.3525    0.0000 H   0  0  0  0  0  0  0  0  0  0  0  0
   -5.0013    0.9925    0.0000 H   0  0  0  0  0  0  0  0  0  0  0  0
   -6.6424    2.1850    0.0000 H   0  0  0  0  0  0  0  0  0  0  0  0
   -5.7158    0.5800    0.0000 H   0  0  0  0  0  0  0  0  0  0  0  0
   -6.6425    1.1150    0.0000 H   0  0  0  0  0  0  0  0  0  0  0  0
   -4.2868    0.5800    0.0000 H   0  0  0  0  0  0  0  0  0  0  0  0
   -3.3602    2.1850    0.0000 H   0  0  0  0  0  0  0  0  0  0  0  0
   -3.3601    1.1150    0.0000 H   0  0  0  0  0  0  0  0  0  0  0  0
   -1.9313    4.6600    0.0000 H   0  0  0  0  0  0  0  0  0  0  0  0
   -3.7845    4.6600    0.0000 H   0  0  0  0  0  0  0  0  0  0  0  0
   -2.8579    5.1950    0.0000 H   0  0  0  0  0  0  0  0  0  0  0  0
   -0.5763    7.0923    0.0000 H   0  0  0  0  0  0  0  0  0  0  0  0
   -1.9313    7.9600    0.0000 H   0  0  0  0  0  0  0  0  0  0  0  0
   -3.5724    9.7325    0.0000 H   0  0  0  0  0  0  0  0  0  0  0  0
   -4.4990    8.1275    0.0000 H   0  0  0  0  0  0  0  0  0  0  0  0
   -4.4991    9.1975    0.0000 H   0  0  0  0  0  0  0  0  0  0  0  0
   -2.8579    9.3200    0.0000 H   0  0  0  0  0  0  0  0  0  0  0  0
   -1.2168    8.1275    0.0000 H   0  0  0  0  0  0  0  0  0  0  0  0
   -2.1434    9.7325    0.0000 H   0  0  0  0  0  0  0  0  0  0  0  0
   -1.2167    9.1975    0.0000 H   0  0  0  0  0  0  0  0  0  0  0  0
    2.9960    1.5702    0.0000 H   0  0  0  0  0  0  0  0  0  0  0  0
    1.2168    2.3525    0.0000 H   0  0  0  0  0  0  0  0  0  0  0  0
    1.9313    3.8350    0.0000 H   0  0  0  0  0  0  0  0  0  0  0  0
    4.4568    8.6147    0.0000 H   0  0  0  0  0  0  0  0  0  0  0  0
    5.5563    8.8184    0.0000 H   0  0  0  0  0  0  0  0  0  0  0  0
    6.5283    8.8323    0.0000 H   0  0  0  0  0  0  0  0  0  0  0  0
    7.0618    7.8497    0.0000 H   0  0  0  0  0  0  0  0  0  0  0  0
    7.3755    6.9295    0.0000 H   0  0  0  0  0  0  0  0  0  0  0  0
    7.0023    7.9836    0.0000 H   0  0  0  0  0  0  0  0  0  0  0  0
    7.3569    4.0025    0.0000 H   0  0  0  0  0  0  0  0  0  0  0  0
    6.4302    3.4675    0.0000 H   0  0  0  0  0  0  0  0  0  0  0  0
    8.0713    5.2400    0.0000 H   0  0  0  0  0  0  0  0  0  0  0  0
    7.1447    6.8450    0.0000 H   0  0  0  0  0  0  0  0  0  0  0  0
    8.0714    6.3100    0.0000 H   0  0  0  0  0  0  0  0  0  0  0  0
    6.4302    1.8175    0.0000 H   0  0  0  0  0  0  0  0  0  0  0  0
    7.3569    3.4225    0.0000 H   0  0  0  0  0  0  0  0  0  0  0  0
    7.3568    2.3525    0.0000 H   0  0  0  0  0  0  0  0  0  0  0  0
    4.0747    2.3525    0.0000 H   0  0  0  0  0  0  0  0  0  0  0  0
    5.0013    0.9925    0.0000 H   0  0  0  0  0  0  0  0  0  0  0  0
    5.7158    0.5800    0.0000 H   0  0  0  0  0  0  0  0  0  0  0  0
    6.6424    2.1850    0.0000 H   0  0  0  0  0  0  0  0  0  0  0  0
    6.6425    1.1150    0.0000 H   0  0  0  0  0  0  0  0  0  0  0  0
    3.3602    2.1850    0.0000 H   0  0  0  0  0  0  0  0  0  0  0  0
    4.2868    0.5800    0.0000 H   0  0  0  0  0  0  0  0  0  0  0  0
    3.3601    1.1150    0.0000 H   0  0  0  0  0  0  0  0  0  0  0  0
    3.7845    4.6600    0.0000 H   0  0  0  0  0  0  0  0  0  0  0  0
    1.9313    4.6600    0.0000 H   0  0  0  0  0  0  0  0  0  0  0  0
    2.8579    5.1950    0.0000 H   0  0  0  0  0  0  0  0  0  0  0  0
    0.5763    7.0923    0.0000 H   0  0  0  0  0  0  0  0  0  0  0  0
    1.9313    7.9600    0.0000 H   0  0  0  0  0  0  0  0  0  0  0  0
    4.4990    8.1275    0.0000 H   0  0  0  0  0  0  0  0  0  0  0  0
    3.5724    9.7325    0.0000 H   0  0  0  0  0  0  0  0  0  0  0  0
    4.4991    9.1975    0.0000 H   0  0  0  0  0  0  0  0  0  0  0  0
    2.8579    9.3200    0.0000 H   0  0  0  0  0  0  0  0  0  0  0  0
    2.1434    9.7325    0.0000 H   0  0  0  0  0  0  0  0  0  0  0  0
    1.2168    8.1275    0.0000 H   0  0  0  0  0  0  0  0  0  0  0  0
    1.2167    9.1975    0.0000 H   0  0  0  0  0  0  0  0  0  0  0  0
  2  1  1  0  0  0  0
  3  2  1  0  0  0  0
  4  6  1  0  0  0  0
  5  3  1  0  0  0  0
  5  4  1  0  0  0  0
  6  1  2  0  0  0  0
  7  1  1  0  0  0  0
  8  2  2  0  0  0  0
  9  7  1  0  0  0  0
 10  7  2  0  0  0  0
 11  8  1  0  0  0  0
 11 10  1  0  0  0  0
 12  8  1  0  0  0  0
 12 93  1  0  0  0  0
 12 94  1  0  0  0  0
 12 95  1  0  0  0  0
 13  9  2  0  0  0  0
 14 10  1  0  0  0  0
 14 96  1  0  0  0  0
 14 97  1  0  0  0  0
 15  4  2  0  0  0  0
 16  5  2  0  0  0  0
 17 11  2  0  0  0  0
 18 15  1  0  0  0  0
 19 15  1  0  0  0  0
 19 98  1  0  0  0  0
 20 16  1  0  0  0  0
 20 19  2  0  0  0  0
 20 99  1  0  0  0  0
 21 16  1  0  0  0  0
 21100  1  0  0  0  0
 21101  1  0  0  0  0
 21102  1  0  0  0  0
 22 18  2  0  0  0  0
 23 18  1  0  0  0  0
 23103  1  0  0  0  0
 24 23  1  0  0  0  0
 24104  1  6  0  0  0
 25 24  1  0  0  0  0
 25 52  1  0  0  0  0
 26 24  1  0  0  0  0
 26 49  1  0  0  0  0
 26105  1  1  0  0  0
 27 26  1  0  0  0  0
 28 27  1  0  0  0  0
 29 53  1  0  0  0  0
 30 29  1  0  0  0  0
 30106  1  0  0  0  0
 30107  1  0  0  0  0
 31 29  1  0  0  0  0
 31 34  1  1  0  0  0
 32 30  1  0  0  0  0
 32108  1  0  0  0  0
 32109  1  0  0  0  0
 33 31  1  0  0  0  0
 33 32  1  0  0  0  0
 33110  1  0  0  0  0
 33111  1  0  0  0  0
 35 31  1  0  0  0  0
 36 35  1  0  0  0  0
 37 36  1  0  0  0  0
 37112  1  0  0  0  0
 37113  1  0  0  0  0
 38 36  1  0  0  0  0
 38114  1  0  0  0  0
 38115  1  0  0  0  0
 38116  1  0  0  0  0
 39 37  1  0  0  0  0
 40 39  2  0  0  0  0
 41 39  1  0  0  0  0
 42 41  1  0  0  0  0
 42117  1  0  0  0  0
 42118  1  0  0  0  0
 42119  1  0  0  0  0
 43 28  1  0  0  0  0
 43 41  1  0  0  0  0
 43 44  1  0  0  0  0
 43120  1  1  0  0  0
 44121  1  0  0  0  0
 45 44  1  0  0  0  0
 45122  1  0  0  0  0
 45123  1  0  0  0  0
 45124  1  0  0  0  0
 46 44  1  0  0  0  0
 46125  1  0  0  0  0
 46126  1  0  0  0  0
 46127  1  0  0  0  0
 47 35  2  0  0  0  0
 48 28  2  0  0  0  0
 49128  1  0  0  0  0
 49129  1  0  0  0  0
 49130  1  0  0  0  0
 50 53  2  0  0  0  0
 51 25  2  0  0  0  0
 52131  1  0  0  0  0
 53 54  1  0  0  0  0
 54 52  1  0  0  0  0
 54 56  1  0  0  0  0
 54132  1  6  0  0  0
 55133  1  0  0  0  0
 55134  1  0  0  0  0
 55135  1  0  0  0  0
 56 55  1  0  0  0  0
 56 57  1  0  0  0  0
 56136  1  0  0  0  0
 57137  1  0  0  0  0
 57138  1  0  0  0  0
 57139  1  0  0  0  0
 58  9  1  0  0  0  0
 58140  1  0  0  0  0
 59 58  1  0  0  0  0
 59141  1  1  0  0  0
 60 59  1  0  0  0  0
 60 87  1  0  0  0  0
 61 59  1  0  0  0  0
 61 84  1  0  0  0  0
 61142  1  6  0  0  0
 62 61  1  0  0  0  0
 63 62  1  0  0  0  0
 64 88  1  0  0  0  0
 65 64  1  0  0  0  0
 65143  1  0  0  0  0
 65144  1  0  0  0  0
 66 64  1  0  0  0  0
 66 69  1  6  0  0  0
 67 65  1  0  0  0  0
 67145  1  0  0  0  0
 67146  1  0  0  0  0
 68 66  1  0  0  0  0
 68 67  1  0  0  0  0
 68147  1  0  0  0  0
 68148  1  0  0  0  0
 70 66  1  0  0  0  0
 71 70  1  0  0  0  0
 72 71  1  0  0  0  0
 72149  1  0  0  0  0
 72150  1  0  0  0  0
 73 71  1  0  0  0  0
 73151  1  0  0  0  0
 73152  1  0  0  0  0
 73153  1  0  0  0  0
 74 72  1  0  0  0  0
 75 74  2  0  0  0  0
 76 74  1  0  0  0  0
 77 76  1  0  0  0  0
 77154  1  0  0  0  0
 77155  1  0  0  0  0
 77156  1  0  0  0  0
 78 63  1  0  0  0  0
 78 76  1  0  0  0  0
 78 79  1  0  0  0  0
 78157  1  6  0  0  0
 79158  1  0  0  0  0
 80 79  1  0  0  0  0
 80159  1  0  0  0  0
 80160  1  0  0  0  0
 80161  1  0  0  0  0
 81 79  1  0  0  0  0
 81162  1  0  0  0  0
 81163  1  0  0  0  0
 81164  1  0  0  0  0
 82 70  2  0  0  0  0
 83 63  2  0  0  0  0
 84165  1  0  0  0  0
 84166  1  0  0  0  0
 84167  1  0  0  0  0
 85 88  2  0  0  0  0
 86 60  2  0  0  0  0
 87168  1  0  0  0  0
 88 89  1  0  0  0  0
 89 87  1  0  0  0  0
 89 91  1  0  0  0  0
 89169  1  1  0  0  0
 90170  1  0  0  0  0
 90171  1  0  0  0  0
 90172  1  0  0  0  0
 91 90  1  0  0  0  0
 91 92  1  0  0  0  0
 91173  1  0  0  0  0
 92174  1  0  0  0  0
 92175  1  0  0  0  0
 92176  1  0  0  0  0
M  END
>  <DRUGBANK_ID>
DB00970

>  <SECONDARY_ACCESSION_NUMBERS>
APRD00124

>  <COMMON_NAME>
Dactinomycin

>  <CAS_NUMBER>
50-76-0

>  <UNII>
1CC1JFE158

>  <SYNONYMS>
2-amino-N,N'-bis(hexadecahydro-2,5,9-trimethyl-6,13-bis(1-methylethyl)-1,4,7,11,14-pentaoxo-1H-pyrrolo(2,1-i)(1,4,7,10,13)oxatetra-azacyclohexadecin-10-yl)-4,6-dimethyl-3-oxo-3H-phenoxazine-1,9-dicarboxamide; 3H-PHENOXAZINE-1,9-DICARBOXAMIDE, 2-AMINO-N,N'-BIS(HEXADECAHYDRO-6,13-DIISOPROPYL-2,5,9-TRIMETHYL-1,4,7,11,14-PENTAOXO-1H-PYRROLO(2,1-I)(1,4,7,10,13)OXATETRAAZACYCLOHEXADECIN-10-YL)-4,6-DIMETHYL-3-OXO-; ActD; Actinomycin C1; Actinomycin D; ACTINOMYCIN I1; Actinomycin IV; ACTINOMYCIN X1; ACTINOMYCIN-D; ANA-conjugated dactinomycin nanoemulsion; Dactinomicina; Dactinomycin; Dactinomycine; Dactinomycinum; DILACTONE ACTINOMYCIN D ACID; Meractinomycin; N,N'-((2-AMINO-4,6-DIMETHYL-3-OXO-3H-PHENOXAZINE-1,9-DIYL)-BIS(CARBONYLIMINO(2-HYDROXYPROPYLIDENE)CARBONYLIMINOISOBUTYLIDENECARBONYL-1,2-PYRROLIDINEDIYLCARBONYL(METHYLIMINO)METHYLENECARBONYL))BIS(N-METHYL-L-VALINE) DILACTONE; ONCOSTATIN K

$$$$
