
 OpenBabel10282417072D

 50 55  0  0  1  0  0  0  0  0999 V2000
   -3.3227   -0.4302    0.0000 C   0  0  0  0  0  0  0  0  0  0  0  0
   -3.3227   -1.2552    0.0000 C   0  0  0  0  0  0  0  0  0  0  0  0
   -2.6083   -1.6677    0.0000 C   0  0  0  0  0  0  0  0  0  0  0  0
   -1.8938   -1.2552    0.0000 C   0  0  0  0  0  0  0  0  0  0  0  0
   -1.8938   -0.4302    0.0000 C   0  0  0  0  0  0  0  0  0  0  0  0
   -2.6083   -0.0177    0.0000 C   0  0  0  0  0  0  0  0  0  0  0  0
   -1.1091   -1.5101    0.0000 N   0  0  0  0  0  0  0  0  0  0  0  0
   -0.6242   -0.8427    0.0000 C   0  0  2  0  0  0  0  0  0  0  0  0
   -1.1091   -0.1753    0.0000 C   0  0  1  0  0  0  0  0  0  0  0  0
    0.1962   -0.7565    0.0000 C   0  0  1  0  0  0  0  0  0  0  0  0
    0.5317   -0.0028    0.0000 N   0  0  3  0  0  0  0  0  0  0  0  0
    0.0468    0.6645    0.0000 C   0  0  1  0  0  0  0  0  0  0  0  0
   -0.7736    0.5783    0.0000 C   0  0  0  0  0  0  0  0  0  0  0  0
    0.9498   -1.0920    0.0000 C   0  0  0  0  0  0  0  0  0  0  0  0
    1.2854   -0.3383    0.0000 C   0  0  1  0  0  0  0  0  0  0  0  0
    2.0747   -0.2034    0.0000 C   0  0  1  0  0  0  0  0  0  0  0  0
    1.3210    0.1320    0.0000 C   0  0  1  0  0  0  0  0  0  0  0  0
    1.8687   -0.9217    0.0000 H   0  0  0  0  0  0  0  0  0  0  0  0
    2.8997   -0.2034    0.0000 C   0  0  0  0  0  0  0  0  0  0  0  0
    0.5151    1.7688    0.0000 C   0  0  3  0  0  0  0  0  0  0  0  0
    2.0592    0.5485    0.0000 O   0  0  0  0  0  0  0  0  0  0  0  0
   -1.0679    1.7634    0.0000 C   0  0  1  0  0  0  0  0  0  0  0  0
   -0.3656    1.3790    0.0000 H   0  0  0  0  0  0  0  0  0  0  0  0
    0.1962   -1.5815    0.0000 H   0  0  0  0  0  0  0  0  0  0  0  0
   -0.5005   -1.6677    0.0000 H   0  0  0  0  0  0  0  0  0  0  0  0
   -1.1091   -2.3351    0.0000 C   0  0  0  0  0  0  0  0  0  0  0  0
   -1.6827    2.3351    0.0000 O   0  0  0  0  0  0  0  0  0  0  0  0
    3.3227   -0.9359    0.0000 C   0  0  0  0  0  0  0  0  0  0  0  0
   -4.2164    0.0858    0.0000 H   0  0  0  0  0  0  0  0  0  0  0  0
   -4.2164   -1.7712    0.0000 H   0  0  0  0  0  0  0  0  0  0  0  0
   -2.6083   -2.6997    0.0000 H   0  0  0  0  0  0  0  0  0  0  0  0
   -2.6083    1.0143    0.0000 H   0  0  0  0  0  0  0  0  0  0  0  0
   -1.4025    1.4440    0.0000 H   0  0  0  0  0  0  0  0  0  0  0  0
   -1.8377    0.4664    0.0000 H   0  0  0  0  0  0  0  0  0  0  0  0
    1.3332   -2.0909    0.0000 H   0  0  0  0  0  0  0  0  0  0  0  0
    2.0194   -1.1200    0.0000 H   0  0  0  0  0  0  0  0  0  0  0  0
    2.1652   -1.2696    0.0000 H   0  0  0  0  0  0  0  0  0  0  0  0
    2.3898    0.1828    0.0000 H   0  0  0  0  0  0  0  0  0  0  0  0
    3.4347    0.7233    0.0000 H   0  0  0  0  0  0  0  0  0  0  0  0
    3.9697   -0.2033    0.0000 H   0  0  0  0  0  0  0  0  0  0  0  0
   -0.0965    0.8908    0.0000 H   0  0  0  0  0  0  0  0  0  0  0  0
    2.8944    0.0552    0.0000 H   0  0  0  0  0  0  0  0  0  0  0  0
   -0.6781    2.7599    0.0000 H   0  0  0  0  0  0  0  0  0  0  0  0
   -2.0357   -2.8701    0.0000 H   0  0  0  0  0  0  0  0  0  0  0  0
   -0.1825   -2.8701    0.0000 H   0  0  0  0  0  0  0  0  0  0  0  0
   -1.1091   -3.4051    0.0000 H   0  0  0  0  0  0  0  0  0  0  0  0
   -1.4658    3.2805    0.0000 H   0  0  0  0  0  0  0  0  0  0  0  0
    2.7878   -1.8626    0.0000 H   0  0  0  0  0  0  0  0  0  0  0  0
    4.3927   -0.9358    0.0000 H   0  0  0  0  0  0  0  0  0  0  0  0
    3.8578   -1.8625    0.0000 H   0  0  0  0  0  0  0  0  0  0  0  0
  1  2  2  0  0  0  0
  1  6  1  0  0  0  0
  1 29  1  0  0  0  0
  2  3  1  0  0  0  0
  2 30  1  0  0  0  0
  3  4  2  0  0  0  0
  3 31  1  0  0  0  0
  4  5  1  0  0  0  0
  4  7  1  0  0  0  0
  5  6  2  0  0  0  0
  6 32  1  0  0  0  0
  7  8  1  0  0  0  0
  7 26  1  0  0  0  0
  8  9  1  0  0  0  0
  8 10  1  0  0  0  0
  8 25  1  1  0  0  0
  9  5  1  6  0  0  0
  9 13  1  0  0  0  0
  9 22  1  0  0  0  0
 10 11  1  0  0  0  0
 10 14  1  0  0  0  0
 10 24  1  6  0  0  0
 11 12  1  0  0  0  0
 11 17  1  0  0  0  0
 12 13  1  0  0  0  0
 12 20  1  0  0  0  0
 12 23  1  6  0  0  0
 13 33  1  0  0  0  0
 13 34  1  0  0  0  0
 14 15  1  0  0  0  0
 14 35  1  0  0  0  0
 14 36  1  0  0  0  0
 15 16  1  0  0  0  0
 15 18  1  1  0  0  0
 15 20  1  0  0  0  0
 16 17  1  0  0  0  0
 16 19  1  0  0  0  0
 16 37  1  6  0  0  0
 17 21  1  0  0  0  0
 17 38  1  1  0  0  0
 19 28  1  0  0  0  0
 19 39  1  0  0  0  0
 19 40  1  0  0  0  0
 20 41  1  0  0  0  0
 21 42  1  0  0  0  0
 22 20  1  0  0  0  0
 22 27  1  0  0  0  0
 22 43  1  1  0  0  0
 26 44  1  0  0  0  0
 26 45  1  0  0  0  0
 26 46  1  0  0  0  0
 27 47  1  0  0  0  0
 28 48  1  0  0  0  0
 28 49  1  0  0  0  0
 28 50  1  0  0  0  0
M  END
>  <DRUGBANK_ID>
DB01426

>  <COMMON_NAME>
Ajmaline

>  <CAS_NUMBER>
4360-12-7

>  <UNII>
1PON08459R

>  <SYNONYMS>
(+)-Ajmaline; (5aR,6S,8S,10S,11S,11aS,12aR,13R)-5-methyl-5a,6,8,9,10,11,11a,12-octahydro-5H-6,10:11,12a-dimethanoindolo[3,2-b]quinolizine-8,13-diol; Ajmalin; Ajmaline

$$$$
