
 OpenBabel10282417072D

 42 43  0  0  1  0  0  0  0  0999 V2000
   -0.1712   -2.1269    0.0000 C   0  0  0  0  0  0  0  0  0  0  0  0
   -0.5837   -1.4124    0.0000 C   0  0  2  0  0  0  0  0  0  0  0  0
   -0.1712   -0.6979    0.0000 C   0  0  1  0  0  0  0  0  0  0  0  0
    0.6538   -0.6979    0.0000 C   0  0  0  0  0  0  0  0  0  0  0  0
    1.1387   -0.0305    0.0000 N   0  0  0  0  0  0  0  0  0  0  0  0
    1.9233   -0.2854    0.0000 C   0  0  0  0  0  0  0  0  0  0  0  0
    2.6378    0.1271    0.0000 C   0  0  0  0  0  0  0  0  0  0  0  0
    3.3523   -0.2854    0.0000 C   0  0  0  0  0  0  0  0  0  0  0  0
    3.3523   -1.1104    0.0000 C   0  0  0  0  0  0  0  0  0  0  0  0
    2.6378   -1.5229    0.0000 C   0  0  0  0  0  0  0  0  0  0  0  0
    1.9233   -1.1104    0.0000 C   0  0  0  0  0  0  0  0  0  0  0  0
    1.1387   -1.3654    0.0000 N   0  0  0  0  0  0  0  0  0  0  0  0
    4.0668    0.1271    0.0000 C   0  0  0  0  0  0  0  0  0  0  0  0
    4.7812    0.5396    0.0000 C   0  0  0  0  0  0  0  0  0  0  0  0
    3.6543    0.8415    0.0000 C   0  0  0  0  0  0  0  0  0  0  0  0
    4.4793   -0.5874    0.0000 C   0  0  0  0  0  0  0  0  0  0  0  0
   -0.5837    0.0165    0.0000 N   0  0  0  0  0  0  0  0  0  0  0  0
   -1.4087   -1.4124    0.0000 C   0  0  0  0  0  0  0  0  0  0  0  0
   -1.8212   -2.1269    0.0000 O   0  0  0  0  0  0  0  0  0  0  0  0
   -1.8212   -0.6979    0.0000 N   0  0  0  0  0  0  0  0  0  0  0  0
   -0.7062   -3.0535    0.0000 H   0  0  0  0  0  0  0  0  0  0  0  0
    0.8988   -2.1269    0.0000 H   0  0  0  0  0  0  0  0  0  0  0  0
    0.3638   -3.0536    0.0000 H   0  0  0  0  0  0  0  0  0  0  0  0
    0.4863   -1.4124    0.0000 H   0  0  0  0  0  0  0  0  0  0  0  0
   -1.2412   -0.6979    0.0000 H   0  0  0  0  0  0  0  0  0  0  0  0
    0.8345    0.9058    0.0000 H   0  0  0  0  0  0  0  0  0  0  0  0
    2.6378    1.1591    0.0000 H   0  0  0  0  0  0  0  0  0  0  0  0
    4.2460   -1.6264    0.0000 H   0  0  0  0  0  0  0  0  0  0  0  0
    2.6378   -2.5549    0.0000 H   0  0  0  0  0  0  0  0  0  0  0  0
    5.7079    0.0046    0.0000 H   0  0  0  0  0  0  0  0  0  0  0  0
    4.7812    1.6096    0.0000 H   0  0  0  0  0  0  0  0  0  0  0  0
    5.7078    1.0746    0.0000 H   0  0  0  0  0  0  0  0  0  0  0  0
    4.1893    1.7682    0.0000 H   0  0  0  0  0  0  0  0  0  0  0  0
    2.5843    0.8415    0.0000 H   0  0  0  0  0  0  0  0  0  0  0  0
    3.1193    1.7681    0.0000 H   0  0  0  0  0  0  0  0  0  0  0  0
    3.9443   -1.5140    0.0000 H   0  0  0  0  0  0  0  0  0  0  0  0
    5.5493   -0.5874    0.0000 H   0  0  0  0  0  0  0  0  0  0  0  0
    5.0143   -1.5141    0.0000 H   0  0  0  0  0  0  0  0  0  0  0  0
   -0.0737    0.8999    0.0000 H   0  0  0  0  0  0  0  0  0  0  0  0
   -1.6037    0.0165    0.0000 H   0  0  0  0  0  0  0  0  0  0  0  0
   -1.3289    0.1547    0.0000 H   0  0  0  0  0  0  0  0  0  0  0  0
   -2.8057   -0.6979    0.0000 H   0  0  0  0  0  0  0  0  0  0  0  0
  1 21  1  0  0  0  0
  1 22  1  0  0  0  0
  1 23  1  0  0  0  0
  2  1  1  0  0  0  0
  2  3  1  0  0  0  0
  2 18  1  0  0  0  0
  2 24  1  6  0  0  0
  3  4  1  0  0  0  0
  3 17  1  0  0  0  0
  3 25  1  1  0  0  0
  4  5  1  0  0  0  0
  4 12  2  0  0  0  0
  5  6  1  0  0  0  0
  5 26  1  0  0  0  0
  6  7  2  0  0  0  0
  6 11  1  0  0  0  0
  7  8  1  0  0  0  0
  7 27  1  0  0  0  0
  8  9  2  0  0  0  0
  8 13  1  0  0  0  0
  9 10  1  0  0  0  0
  9 28  1  0  0  0  0
 10 11  2  0  0  0  0
 10 29  1  0  0  0  0
 11 12  1  0  0  0  0
 13 14  1  0  0  0  0
 13 15  1  0  0  0  0
 13 16  1  0  0  0  0
 14 30  1  0  0  0  0
 14 31  1  0  0  0  0
 14 32  1  0  0  0  0
 15 33  1  0  0  0  0
 15 34  1  0  0  0  0
 15 35  1  0  0  0  0
 16 36  1  0  0  0  0
 16 37  1  0  0  0  0
 16 38  1  0  0  0  0
 17 39  1  0  0  0  0
 17 40  1  0  0  0  0
 18 19  2  0  0  0  0
 18 20  1  0  0  0  0
 20 41  1  0  0  0  0
 20 42  1  0  0  0  0
M  END
>  <DRUGBANK_ID>
DB12106

>  <COMMON_NAME>
PF-06305591

>  <CAS_NUMBER>
1449473-97-5

>  <UNII>
G5Y3F1X9MU

$$$$
