V25
 OpenBabel10282417072D

 35 36  0  0  0  0  0  0  0  0999 V2000
    2.1970    9.5572    0.0000 C   0  0  0  0  0  0  0  0  0  0  0  0
    2.6095    8.8427    0.0000 C   0  0  0  0  0  0  0  0  0  0  0  0
    2.1970    8.1283    0.0000 O   0  0  0  0  0  0  0  0  0  0  0  0
    2.6095    7.4138    0.0000 C   0  0  0  0  0  0  0  0  0  0  0  0
    2.1970    6.6993    0.0000 O   0  0  0  0  0  0  0  0  0  0  0  0
    3.4345    7.4138    0.0000 C   0  0  0  0  0  0  0  0  0  0  0  0
    3.9194    8.0812    0.0000 N   0  0  0  0  0  0  0  0  0  0  0  0
    3.6644    8.8658    0.0000 C   0  0  0  0  0  0  0  0  0  0  0  0
    4.7040    7.8263    0.0000 C   0  0  0  0  0  0  0  0  0  0  0  0
    5.4185    8.2388    0.0000 C   0  0  0  0  0  0  0  0  0  0  0  0
    5.4185    9.0638    0.0000 Cl  0  0  0  0  0  0  0  0  0  0  0  0
    6.1329    7.8263    0.0000 C   0  0  0  0  0  0  0  0  0  0  0  0
    6.8474    8.2388    0.0000 Cl  0  0  0  0  0  0  0  0  0  0  0  0
    6.1329    7.0013    0.0000 C   0  0  0  0  0  0  0  0  0  0  0  0
    5.4185    6.5888    0.0000 C   0  0  0  0  0  0  0  0  0  0  0  0
    4.7040    7.0013    0.0000 C   0  0  0  0  0  0  0  0  0  0  0  0
    3.9194    6.7463    0.0000 C   0  0  0  0  0  0  0  0  0  0  0  0
    3.6644    5.9617    0.0000 C   0  0  0  0  0  0  0  0  0  0  0  0
    2.8575    5.7902    0.0000 C   0  0  0  0  0  0  0  0  0  0  0  0
    2.0505    5.6187    0.0000 N   0  0  0  0  0  0  0  0  0  0  0  0
    4.2165    5.3486    0.0000 C   0  0  0  0  0  0  0  0  0  0  0  0
    5.0234    5.5202    0.0000 N   0  0  0  0  0  0  0  0  0  0  0  0
    2.7320   10.4838    0.0000 H   0  0  0  0  0  0  0  0  0  0  0  0
    1.1270    9.5572    0.0000 H   0  0  0  0  0  0  0  0  0  0  0  0
    1.6620   10.4839    0.0000 H   0  0  0  0  0  0  0  0  0  0  0  0
    3.6795    8.8427    0.0000 H   0  0  0  0  0  0  0  0  0  0  0  0
    3.1445    7.9160    0.0000 H   0  0  0  0  0  0  0  0  0  0  0  0
    4.3803    9.6610    0.0000 H   0  0  0  0  0  0  0  0  0  0  0  0
    2.6178    9.0882    0.0000 H   0  0  0  0  0  0  0  0  0  0  0  0
    3.3337    9.8834    0.0000 H   0  0  0  0  0  0  0  0  0  0  0  0
    7.0266    6.4853    0.0000 H   0  0  0  0  0  0  0  0  0  0  0  0
    5.4185    5.5568    0.0000 H   0  0  0  0  0  0  0  0  0  0  0  0
    3.8977    4.3671    0.0000 H   0  0  0  0  0  0  0  0  0  0  0  0
    5.6822    4.7886    0.0000 H   0  0  0  0  0  0  0  0  0  0  0  0
    5.3275    6.4565    0.0000 H   0  0  0  0  0  0  0  0  0  0  0  0
  1  2  1  0  0  0  0
  1 23  1  0  0  0  0
  1 24  1  0  0  0  0
  1 25  1  0  0  0  0
  2  3  1  0  0  0  0
  2 26  1  0  0  0  0
  2 27  1  0  0  0  0
  3  4  1  0  0  0  0
  4  5  2  0  0  0  0
  4  6  1  0  0  0  0
  6  7  1  0  0  0  0
  6 17  2  0  0  0  0
  7  8  1  0  0  0  0
  7  9  1  0  0  0  0
  8 28  1  0  0  0  0
  8 29  1  0  0  0  0
  8 30  1  0  0  0  0
  9 10  1  0  0  0  0
  9 16  2  0  0  0  0
 10 11  1  0  0  0  0
 10 12  2  0  0  0  0
 12 13  1  0  0  0  0
 12 14  1  0  0  0  0
 14 15  2  0  0  0  0
 14 31  1  0  0  0  0
 15 16  1  0  0  0  0
 15 32  1  0  0  0  0
 16 17  1  0  0  0  0
 17 18  1  0  0  0  0
 18 19  1  0  0  0  0
 18 21  2  0  0  0  0
 19 20  3  0  0  0  0
 21 22  1  0  0  0  0
 21 33  1  0  0  0  0
 22 34  1  0  0  0  0
 22 35  1  0  0  0  0
M  END
>  <DRUGBANK_ID>
DB08691

>  <COMMON_NAME>
ethyl 3-[(E)-2-amino-1-cyanoethenyl]-6,7-dichloro-1-methyl-1H-indole-2-carboxylate

$$$$
