FRM
 OpenBabel10282417072D

 52 55  0  0  0  0  0  0  0  0999 V2000
   -3.1300    2.1455    0.0000 C   0  0  0  0  0  0  0  0  0  0  0  0
   -2.4155    1.7330    0.0000 C   0  0  0  0  0  0  0  0  0  0  0  0
   -1.7010    2.1455    0.0000 C   0  0  0  0  0  0  0  0  0  0  0  0
   -1.7010    2.9705    0.0000 C   0  0  0  0  0  0  0  0  0  0  0  0
   -2.4155    3.3830    0.0000 C   0  0  0  0  0  0  0  0  0  0  0  0
   -3.1300    2.9705    0.0000 C   0  0  0  0  0  0  0  0  0  0  0  0
   -0.9866    1.7330    0.0000 N   0  0  0  0  0  0  0  0  0  0  0  0
   -0.2721    2.1455    0.0000 C   0  0  0  0  0  0  0  0  0  0  0  0
   -0.2721    2.9705    0.0000 N   0  0  0  0  0  0  0  0  0  0  0  0
   -0.9866    3.3830    0.0000 C   0  0  0  0  0  0  0  0  0  0  0  0
   -0.9866    4.2080    0.0000 O   0  0  0  0  0  0  0  0  0  0  0  0
    0.4424    1.7330    0.0000 C   0  0  0  0  0  0  0  0  0  0  0  0
    0.4424    0.9080    0.0000 C   0  0  0  0  0  0  0  0  0  0  0  0
    1.1569    0.4955    0.0000 C   0  0  0  0  0  0  0  0  0  0  0  0
    1.1569   -0.3295    0.0000 N   0  0  0  0  0  0  0  0  0  0  0  0
    1.8713   -0.7420    0.0000 C   0  0  0  0  0  0  0  0  0  0  0  0
    1.8713   -1.5670    0.0000 C   0  0  0  0  0  0  0  0  0  0  0  0
    1.1569   -1.9795    0.0000 C   0  0  0  0  0  0  0  0  0  0  0  0
    0.4424   -1.5670    0.0000 C   0  0  0  0  0  0  0  0  0  0  0  0
    0.4424   -0.7420    0.0000 C   0  0  0  0  0  0  0  0  0  0  0  0
    1.1569   -2.8045    0.0000 C   0  0  0  0  0  0  0  0  0  0  0  0
    1.8713   -3.2170    0.0000 C   0  0  0  0  0  0  0  0  0  0  0  0
    1.8713   -4.0420    0.0000 C   0  0  0  0  0  0  0  0  0  0  0  0
    1.1569   -4.4545    0.0000 C   0  0  0  0  0  0  0  0  0  0  0  0
    0.4424   -4.0420    0.0000 C   0  0  0  0  0  0  0  0  0  0  0  0
    0.4424   -3.2170    0.0000 C   0  0  0  0  0  0  0  0  0  0  0  0
   -2.4155    0.9080    0.0000 C   0  0  0  0  0  0  0  0  0  0  0  0
    1.1569   -5.2795    0.0000 F   0  0  0  0  0  0  0  0  0  0  0  0
   -4.0237    1.6295    0.0000 H   0  0  0  0  0  0  0  0  0  0  0  0
   -2.4155    4.4150    0.0000 H   0  0  0  0  0  0  0  0  0  0  0  0
   -4.0237    3.4865    0.0000 H   0  0  0  0  0  0  0  0  0  0  0  0
    0.5805    3.4628    0.0000 H   0  0  0  0  0  0  0  0  0  0  0  0
    1.3690    2.2680    0.0000 H   0  0  0  0  0  0  0  0  0  0  0  0
    1.3690    1.1980    0.0000 H   0  0  0  0  0  0  0  0  0  0  0  0
   -0.4842    0.3730    0.0000 H   0  0  0  0  0  0  0  0  0  0  0  0
    0.4424   -0.1620    0.0000 H   0  0  0  0  0  0  0  0  0  0  0  0
    2.0835    1.0305    0.0000 H   0  0  0  0  0  0  0  0  0  0  0  0
    2.0835   -0.0395    0.0000 H   0  0  0  0  0  0  0  0  0  0  0  0
    2.7980   -0.2070    0.0000 H   0  0  0  0  0  0  0  0  0  0  0  0
    2.7979   -1.2770    0.0000 H   0  0  0  0  0  0  0  0  0  0  0  0
    2.7650   -2.0830    0.0000 H   0  0  0  0  0  0  0  0  0  0  0  0
   -0.4842   -2.1020    0.0000 H   0  0  0  0  0  0  0  0  0  0  0  0
   -0.4842   -1.0320    0.0000 H   0  0  0  0  0  0  0  0  0  0  0  0
   -0.4842   -0.2070    0.0000 H   0  0  0  0  0  0  0  0  0  0  0  0
   -0.4842   -1.2770    0.0000 H   0  0  0  0  0  0  0  0  0  0  0  0
    2.7650   -2.7010    0.0000 H   0  0  0  0  0  0  0  0  0  0  0  0
    2.7650   -4.5580    0.0000 H   0  0  0  0  0  0  0  0  0  0  0  0
   -0.4513   -4.5580    0.0000 H   0  0  0  0  0  0  0  0  0  0  0  0
   -0.4513   -2.7010    0.0000 H   0  0  0  0  0  0  0  0  0  0  0  0
   -3.3421    0.3730    0.0000 H   0  0  0  0  0  0  0  0  0  0  0  0
   -1.4889    0.3730    0.0000 H   0  0  0  0  0  0  0  0  0  0  0  0
   -2.4155   -0.1620    0.0000 H   0  0  0  0  0  0  0  0  0  0  0  0
  1  2  2  0  0  0  0
  1  6  1  0  0  0  0
  1 29  1  0  0  0  0
  2  3  1  0  0  0  0
  2 27  1  0  0  0  0
  3  4  2  0  0  0  0
  3  7  1  0  0  0  0
  4  5  1  0  0  0  0
  4 10  1  0  0  0  0
  5  6  2  0  0  0  0
  5 30  1  0  0  0  0
  6 31  1  0  0  0  0
  7  8  2  0  0  0  0
  8  9  1  0  0  0  0
  8 12  1  0  0  0  0
  9 10  1  0  0  0  0
  9 32  1  0  0  0  0
 10 11  2  0  0  0  0
 12 13  1  0  0  0  0
 12 33  1  0  0  0  0
 12 34  1  0  0  0  0
 13 14  1  0  0  0  0
 13 35  1  0  0  0  0
 13 36  1  0  0  0  0
 14 15  1  0  0  0  0
 14 37  1  0  0  0  0
 14 38  1  0  0  0  0
 15 16  1  0  0  0  0
 15 20  1  0  0  0  0
 16 17  1  0  0  0  0
 16 39  1  0  0  0  0
 16 40  1  0  0  0  0
 17 18  2  0  0  0  0
 17 41  1  0  0  0  0
 18 19  1  0  0  0  0
 18 21  1  0  0  0  0
 19 20  1  0  0  0  0
 19 42  1  0  0  0  0
 19 43  1  0  0  0  0
 20 44  1  0  0  0  0
 20 45  1  0  0  0  0
 21 22  2  0  0  0  0
 21 26  1  0  0  0  0
 22 23  1  0  0  0  0
 22 46  1  0  0  0  0
 23 24  2  0  0  0  0
 23 47  1  0  0  0  0
 24 25  1  0  0  0  0
 24 28  1  0  0  0  0
 25 26  2  0  0  0  0
 25 48  1  0  0  0  0
 26 49  1  0  0  0  0
 27 50  1  0  0  0  0
 27 51  1  0  0  0  0
 27 52  1  0  0  0  0
M  END
>  <DRUGBANK_ID>
DB03072

>  <SECONDARY_ACCESSION_NUMBERS>
EXPT01494

>  <COMMON_NAME>
2-{3-[4-(4-Fluorophenyl)-3,6-Dihydro-1(2h)-Pyridinyl]Propyl}-8-Methyl-4(3h)-Quinazolinone

$$$$
