
 OpenBabel10282417072D

 25 27  0  0  0  0  0  0  0  0999 V2000
   12.6378  -10.8093    0.0000 C   0  0  0  0  0  0  0  0  0  0  0  0
   13.3523  -10.3968    0.0000 C   0  0  0  0  0  0  0  0  0  0  0  0
   13.3523   -9.5718    0.0000 C   0  0  0  0  0  0  0  0  0  0  0  0
   12.6378   -9.1593    0.0000 N   0  0  0  0  0  0  0  0  0  0  0  0
   11.9231   -9.5718    0.0000 C   0  0  0  0  0  0  0  0  0  0  0  0
   11.9231  -10.3968    0.0000 N   0  0  0  0  0  0  0  0  0  0  0  0
   14.1370   -9.3169    0.0000 N   0  0  0  0  0  0  0  0  0  0  0  0
   14.6215   -9.9843    0.0000 C   0  0  0  0  0  0  0  0  0  0  0  0
   14.1370  -10.6517    0.0000 N   0  0  0  0  0  0  0  0  0  0  0  0
   12.6378  -11.6343    0.0000 N   0  0  0  0  0  0  0  0  0  0  0  0
   13.3523  -12.0468    0.0000 C   0  0  0  0  0  0  0  0  0  0  0  0
   13.3523  -12.8718    0.0000 C   0  0  0  0  0  0  0  0  0  0  0  0
   12.6849  -13.3568    0.0000 C   0  0  0  0  0  0  0  0  0  0  0  0
   12.9399  -14.1416    0.0000 C   0  0  0  0  0  0  0  0  0  0  0  0
   13.7648  -14.1416    0.0000 C   0  0  0  0  0  0  0  0  0  0  0  0
   14.0198  -13.3568    0.0000 O   0  0  0  0  0  0  0  0  0  0  0  0
   11.0294   -9.0557    0.0000 H   0  0  0  0  0  0  0  0  0  0  0  0
   15.6535   -9.9843    0.0000 H   0  0  0  0  0  0  0  0  0  0  0  0
   14.4414  -11.5879    0.0000 H   0  0  0  0  0  0  0  0  0  0  0  0
   11.7852  -12.1266    0.0000 H   0  0  0  0  0  0  0  0  0  0  0  0
   14.2789  -11.5118    0.0000 H   0  0  0  0  0  0  0  0  0  0  0  0
   14.2789  -12.5818    0.0000 H   0  0  0  0  0  0  0  0  0  0  0  0
   11.7034  -13.0379    0.0000 H   0  0  0  0  0  0  0  0  0  0  0  0
   12.3333  -14.9765    0.0000 H   0  0  0  0  0  0  0  0  0  0  0  0
   14.3714  -14.9765    0.0000 H   0  0  0  0  0  0  0  0  0  0  0  0
  1  2  1  0  0  0  0
  1  6  2  0  0  0  0
  1 10  1  0  0  0  0
  2  3  2  0  0  0  0
  2  9  1  0  0  0  0
  3  4  1  0  0  0  0
  3  7  1  0  0  0  0
  4  5  2  0  0  0  0
  5  6  1  0  0  0  0
  5 17  1  0  0  0  0
  7  8  2  0  0  0  0
  8  9  1  0  0  0  0
  8 18  1  0  0  0  0
  9 19  1  0  0  0  0
 10 11  1  0  0  0  0
 10 20  1  0  0  0  0
 11 12  1  0  0  0  0
 11 21  1  0  0  0  0
 11 22  1  0  0  0  0
 12 13  2  0  0  0  0
 12 16  1  0  0  0  0
 13 14  1  0  0  0  0
 13 23  1  0  0  0  0
 14 15  2  0  0  0  0
 14 24  1  0  0  0  0
 15 16  1  0  0  0  0
 15 25  1  0  0  0  0
M  END
>  <DRUGBANK_ID>
DB11336

>  <COMMON_NAME>
Kinetin

>  <CAS_NUMBER>
525-79-1

>  <UNII>
P39Y9652YJ

$$$$
