NIP
 OpenBabel10282417072D

 39 39  0  0  0  0  0  0  0  0999 V2000
    0.7350    2.9412    0.0000 C   0  0  0  0  0  0  0  0  0  0  0  0
    0.0205    2.5287    0.0000 C   0  0  0  0  0  0  0  0  0  0  0  0
   -0.6940    2.9412    0.0000 C   0  0  0  0  0  0  0  0  0  0  0  0
   -1.4084    2.5287    0.0000 N   0  3  0  0  0  0  0  0  0  0  0  0
   -2.1229    2.9412    0.0000 O   0  5  0  0  0  0  0  0  0  0  0  0
   -1.4084    1.7037    0.0000 O   0  0  0  0  0  0  0  0  0  0  0  0
   -0.6940    3.7662    0.0000 C   0  0  0  0  0  0  0  0  0  0  0  0
   -1.4084    4.1787    0.0000 O   0  0  0  0  0  0  0  0  0  0  0  0
    0.0205    4.1787    0.0000 C   0  0  0  0  0  0  0  0  0  0  0  0
    0.0205    5.0037    0.0000 I   0  0  0  0  0  0  0  0  0  0  0  0
    0.7350    3.7662    0.0000 C   0  0  0  0  0  0  0  0  0  0  0  0
    1.4494    2.5287    0.0000 C   0  0  0  0  0  0  0  0  0  0  0  0
    2.1639    2.9412    0.0000 C   0  0  0  0  0  0  0  0  0  0  0  0
    2.1639    3.7662    0.0000 O   0  0  0  0  0  0  0  0  0  0  0  0
    2.8784    2.5287    0.0000 N   0  0  0  0  0  0  0  0  0  0  0  0
    3.5928    2.9412    0.0000 C   0  0  0  0  0  0  0  0  0  0  0  0
    4.3073    2.5287    0.0000 C   0  0  0  0  0  0  0  0  0  0  0  0
    5.0218    2.9412    0.0000 C   0  0  0  0  0  0  0  0  0  0  0  0
    5.7363    2.5287    0.0000 C   0  0  0  0  0  0  0  0  0  0  0  0
    6.4507    2.9412    0.0000 C   0  0  0  0  0  0  0  0  0  0  0  0
    7.1652    2.5287    0.0000 C   0  0  0  0  0  0  0  0  0  0  0  0
    7.8797    2.9412    0.0000 O   0  0  0  0  0  0  0  0  0  0  0  0
    7.1652    1.7037    0.0000 O   0  5  0  0  0  0  0  0  0  0  0  0
    0.0205    1.4967    0.0000 H   0  0  0  0  0  0  0  0  0  0  0  0
   -1.4084    5.1157    0.0000 H   0  0  0  0  0  0  0  0  0  0  0  0
    1.6287    4.2822    0.0000 H   0  0  0  0  0  0  0  0  0  0  0  0
    1.4494    1.4587    0.0000 H   0  0  0  0  0  0  0  0  0  0  0  0
    2.3760    1.9937    0.0000 H   0  0  0  0  0  0  0  0  0  0  0  0
    2.8784    1.5442    0.0000 H   0  0  0  0  0  0  0  0  0  0  0  0
    3.5928    4.0112    0.0000 H   0  0  0  0  0  0  0  0  0  0  0  0
    4.5194    3.4762    0.0000 H   0  0  0  0  0  0  0  0  0  0  0  0
    4.3073    1.4587    0.0000 H   0  0  0  0  0  0  0  0  0  0  0  0
    5.2339    1.9937    0.0000 H   0  0  0  0  0  0  0  0  0  0  0  0
    5.0218    4.0112    0.0000 H   0  0  0  0  0  0  0  0  0  0  0  0
    5.9484    3.4762    0.0000 H   0  0  0  0  0  0  0  0  0  0  0  0
    5.7363    1.4587    0.0000 H   0  0  0  0  0  0  0  0  0  0  0  0
    6.6630    1.9937    0.0000 H   0  0  0  0  0  0  0  0  0  0  0  0
    6.4507    4.0112    0.0000 H   0  0  0  0  0  0  0  0  0  0  0  0
    7.3773    3.4762    0.0000 H   0  0  0  0  0  0  0  0  0  0  0  0
  1  2  2  0  0  0  0
  1 11  1  0  0  0  0
  1 12  1  0  0  0  0
  2  3  1  0  0  0  0
  2 24  1  0  0  0  0
  3  4  1  0  0  0  0
  3  7  2  0  0  0  0
  4  5  1  0  0  0  0
  4  6  2  0  0  0  0
  7  8  1  0  0  0  0
  7  9  1  0  0  0  0
  8 25  1  0  0  0  0
  9 10  1  0  0  0  0
  9 11  2  0  0  0  0
 11 26  1  0  0  0  0
 12 13  1  0  0  0  0
 12 27  1  0  0  0  0
 12 28  1  0  0  0  0
 13 14  2  0  0  0  0
 13 15  1  0  0  0  0
 15 16  1  0  0  0  0
 15 29  1  0  0  0  0
 16 17  1  0  0  0  0
 16 30  1  0  0  0  0
 16 31  1  0  0  0  0
 17 18  1  0  0  0  0
 17 32  1  0  0  0  0
 17 33  1  0  0  0  0
 18 19  1  0  0  0  0
 18 34  1  0  0  0  0
 18 35  1  0  0  0  0
 19 20  1  0  0  0  0
 19 36  1  0  0  0  0
 19 37  1  0  0  0  0
 20 21  1  0  0  0  0
 20 38  1  0  0  0  0
 20 39  1  0  0  0  0
 21 22  2  0  0  0  0
 21 23  1  0  0  0  0
M  CHG  3   4   1   5  -1  23  -1
M  END
>  <DRUGBANK_ID>
DB08273

>  <COMMON_NAME>
4-HYDROXY-5-IODO-3-NITROPHENYLACETYL-EPSILON-AMINOCAPROIC ACID ANION

$$$$
