173
 OpenBabel10282417072D

 15 16  0  0  0  0  0  0  0  0999 V2000
    3.8596    0.1235    0.0000 N   0  0  0  0  0  0  0  0  0  0  0  0
    3.8596   -1.2043    0.0000 N   0  0  0  0  0  0  0  0  0  0  0  0
    2.3645   -1.3654    0.0000 N   0  0  0  0  0  0  0  0  0  0  0  0
    1.6500   -0.1279    0.0000 N   0  0  0  0  0  0  0  0  0  0  0  0
    2.3645    1.1096    0.0000 N   0  0  0  0  0  0  0  0  0  0  0  0
    3.0790   -0.1279    0.0000 C   0  0  0  0  0  0  0  0  0  0  0  0
    3.0790   -0.9529    0.0000 C   0  0  0  0  0  0  0  0  0  0  0  0
    2.3645    0.2846    0.0000 C   0  0  0  0  0  0  0  0  0  0  0  0
    4.3411   -0.5404    0.0000 C   0  0  0  0  0  0  0  0  0  0  0  0
    1.6500   -0.9529    0.0000 C   0  0  0  0  0  0  0  0  0  0  0  0
    4.1654    1.0593    0.0000 H   0  0  0  0  0  0  0  0  0  0  0  0
    3.2171    1.6019    0.0000 H   0  0  0  0  0  0  0  0  0  0  0  0
    1.5119    1.6018    0.0000 H   0  0  0  0  0  0  0  0  0  0  0  0
    5.3731   -0.5404    0.0000 H   0  0  0  0  0  0  0  0  0  0  0  0
    0.7563   -1.4689    0.0000 H   0  0  0  0  0  0  0  0  0  0  0  0
  1  6  1  0  0  0  0
  1  9  1  0  0  0  0
  1 11  1  0  0  0  0
  2  7  1  0  0  0  0
  2  9  2  0  0  0  0
  3  7  2  0  0  0  0
  3 10  1  0  0  0  0
  4  8  1  0  0  0  0
  4 10  2  0  0  0  0
  5  8  1  0  0  0  0
  5 12  1  0  0  0  0
  5 13  1  0  0  0  0
  6  7  1  0  0  0  0
  6  8  2  0  0  0  0
  9 14  1  0  0  0  0
 10 15  1  0  0  0  0
M  END
>  <DRUGBANK_ID>
DB00173

>  <SECONDARY_ACCESSION_NUMBERS>
NUTR00012; EXPT00520

>  <COMMON_NAME>
Adenine

>  <CAS_NUMBER>
73-24-5

>  <UNII>
JAC85A2161

>  <SYNONYMS>
6-Aminopurine; Adenin; Adenine; Vitamin B4

$$$$
