770
 OpenBabel10282417072D

 40 44  0  0  0  0  0  0  0  0999 V2000
    0.7476   -2.3003    0.0000 Cl  0  0  0  0  0  0  0  0  0  0  0  0
    1.5063   -1.9762    0.0000 C   0  0  0  0  0  0  0  0  0  0  0  0
    2.1663   -2.4712    0.0000 C   0  0  0  0  0  0  0  0  0  0  0  0
    2.9250   -2.1472    0.0000 C   0  0  0  0  0  0  0  0  0  0  0  0
    3.0237   -1.3281    0.0000 C   0  0  0  0  0  0  0  0  0  0  0  0
    2.3637   -0.8331    0.0000 C   0  0  0  0  0  0  0  0  0  0  0  0
    1.6050   -1.1571    0.0000 C   0  0  0  0  0  0  0  0  0  0  0  0
    0.9450   -0.6621    0.0000 C   0  0  0  0  0  0  0  0  0  0  0  0
    1.0437    0.1570    0.0000 C   0  0  0  0  0  0  0  0  0  0  0  0
    1.7184    0.6317    0.0000 C   0  0  0  0  0  0  0  0  0  0  0  0
    2.4991    0.3648    0.0000 O   0  0  0  0  0  0  0  0  0  0  0  0
    1.4755    1.4201    0.0000 N   0  0  0  0  0  0  0  0  0  0  0  0
    0.3837    0.6520    0.0000 C   0  0  0  0  0  0  0  0  0  0  0  0
    0.6506    1.4326    0.0000 C   0  0  0  0  0  0  0  0  0  0  0  0
    0.1758    2.1074    0.0000 O   0  0  0  0  0  0  0  0  0  0  0  0
   -0.3750    0.3279    0.0000 C   0  0  0  0  0  0  0  0  0  0  0  0
   -0.4737   -0.4912    0.0000 C   0  0  0  0  0  0  0  0  0  0  0  0
    0.1863   -0.9862    0.0000 C   0  0  0  0  0  0  0  0  0  0  0  0
   -1.1235    0.6749    0.0000 C   0  0  0  0  0  0  0  0  0  0  0  0
   -1.6847    0.0703    0.0000 C   0  0  0  0  0  0  0  0  0  0  0  0
   -1.2832   -0.6504    0.0000 N   0  0  0  0  0  0  0  0  0  0  0  0
   -2.4890    0.2540    0.0000 C   0  0  0  0  0  0  0  0  0  0  0  0
   -2.7320    1.0424    0.0000 C   0  0  0  0  0  0  0  0  0  0  0  0
   -1.3664    1.4633    0.0000 C   0  0  0  0  0  0  0  0  0  0  0  0
   -2.1707    1.6471    0.0000 C   0  0  0  0  0  0  0  0  0  0  0  0
   -2.4137    2.4355    0.0000 N   0  0  0  0  0  0  0  0  0  0  0  0
   -1.8524    3.0401    0.0000 C   0  0  0  0  0  0  0  0  0  0  0  0
   -2.0954    3.8285    0.0000 O   0  0  0  0  0  0  0  0  0  0  0  0
    2.0428   -3.4958    0.0000 H   0  0  0  0  0  0  0  0  0  0  0  0
    3.7506   -2.7664    0.0000 H   0  0  0  0  0  0  0  0  0  0  0  0
    3.9727   -0.9227    0.0000 H   0  0  0  0  0  0  0  0  0  0  0  0
    2.4872    0.1915    0.0000 H   0  0  0  0  0  0  0  0  0  0  0  0
    2.0662    2.2077    0.0000 H   0  0  0  0  0  0  0  0  0  0  0  0
    0.0629   -2.0108    0.0000 H   0  0  0  0  0  0  0  0  0  0  0  0
   -1.6973   -1.5436    0.0000 H   0  0  0  0  0  0  0  0  0  0  0  0
   -3.1911   -0.5024    0.0000 H   0  0  0  0  0  0  0  0  0  0  0  0
   -3.7381    1.2723    0.0000 H   0  0  0  0  0  0  0  0  0  0  0  0
   -0.6642    2.2196    0.0000 H   0  0  0  0  0  0  0  0  0  0  0  0
   -3.3735    2.6548    0.0000 H   0  0  0  0  0  0  0  0  0  0  0  0
   -0.8463    2.8102    0.0000 H   0  0  0  0  0  0  0  0  0  0  0  0
  1  2  1  0  0  0  0
  2  7  1  0  0  0  0
  2  3  2  0  0  0  0
  3  4  1  0  0  0  0
  3 29  1  0  0  0  0
  4  5  2  0  0  0  0
  4 30  1  0  0  0  0
  5  6  1  0  0  0  0
  5 31  1  0  0  0  0
  6  7  2  0  0  0  0
  6 32  1  0  0  0  0
  7  8  1  0  0  0  0
  8 18  2  0  0  0  0
  8  9  1  0  0  0  0
  9 13  2  0  0  0  0
  9 10  1  0  0  0  0
 10 12  1  0  0  0  0
 10 11  2  0  0  0  0
 12 14  1  0  0  0  0
 12 33  1  0  0  0  0
 13 16  1  0  0  0  0
 13 14  1  0  0  0  0
 14 15  2  0  0  0  0
 16 19  1  0  0  0  0
 16 17  2  0  0  0  0
 17 21  1  0  0  0  0
 17 18  1  0  0  0  0
 18 34  1  0  0  0  0
 19 20  2  0  0  0  0
 19 24  1  0  0  0  0
 20 22  1  0  0  0  0
 20 21  1  0  0  0  0
 21 35  1  0  0  0  0
 22 23  2  0  0  0  0
 22 36  1  0  0  0  0
 23 25  1  0  0  0  0
 23 37  1  0  0  0  0
 24 25  2  0  0  0  0
 24 38  1  0  0  0  0
 25 26  1  0  0  0  0
 26 27  1  0  0  0  0
 26 39  1  0  0  0  0
 27 28  2  0  0  0  0
 27 40  1  0  0  0  0
M  END
>  <DRUGBANK_ID>
DB07226

>  <COMMON_NAME>
N-[4-(2-CHLOROPHENYL)-1,3-DIOXO-1,2,3,6-TETRAHYDROPYRROLO[3,4-C]CARBAZOL-9-YL]FORMAMIDE

$$$$
