
 OpenBabel10282417072D

 36 35  0  0  1  0  0  0  0  0999 V2000
   -0.0000   -2.8579    0.0000 C   0  0  0  0  0  0  0  0  0  0  0  0
   -0.8250   -2.8579    0.0000 C   0  0  0  0  0  0  0  0  0  0  0  0
    1.6500   -4.2868    0.0000 C   0  0  0  0  0  0  0  0  0  0  0  0
    2.4750   -4.2868    0.0000 C   0  0  0  0  0  0  0  0  0  0  0  0
    1.6500   -2.8579    0.0000 C   0  0  0  0  0  0  0  0  0  0  0  0
   -0.0000   -4.2868    0.0000 C   0  0  0  0  0  0  0  0  0  0  0  0
    1.2375   -3.5724    0.0000 C   0  0  2  0  0  0  0  0  0  0  0  0
    0.4125   -3.5724    0.0000 C   0  0  2  0  0  0  0  0  0  0  0  0
   -1.2375   -2.1434    0.0000 C   0  0  0  0  0  0  0  0  0  0  0  0
    1.2375   -2.1434    0.0000 C   0  0  0  0  0  0  0  0  0  0  0  0
    2.8875   -5.0013    0.0000 N   0  0  0  0  0  0  0  0  0  0  0  0
    0.4125   -5.0013    0.0000 N   0  0  0  0  0  0  0  0  0  0  0  0
   -2.0625   -2.1434    0.0000 O   0  0  0  0  0  0  0  0  0  0  0  0
   -0.8250   -1.4289    0.0000 O   0  0  0  0  0  0  0  0  0  0  0  0
    0.4125   -2.1434    0.0000 O   0  0  0  0  0  0  0  0  0  0  0  0
    1.6500   -1.4289    0.0000 O   0  0  0  0  0  0  0  0  0  0  0  0
    2.0625   -3.5724    0.0000 H   0  0  0  0  0  0  0  0  0  0  0  0
   -0.4125   -3.5724    0.0000 H   0  0  0  0  0  0  0  0  0  0  0  0
    0.5350   -1.9313    0.0000 H   0  0  0  0  0  0  0  0  0  0  0  0
    1.0700   -2.8579    0.0000 H   0  0  0  0  0  0  0  0  0  0  0  0
   -1.3600   -3.7845    0.0000 H   0  0  0  0  0  0  0  0  0  0  0  0
   -1.8950   -2.8579    0.0000 H   0  0  0  0  0  0  0  0  0  0  0  0
    1.1150   -5.2135    0.0000 H   0  0  0  0  0  0  0  0  0  0  0  0
    0.5800   -4.2868    0.0000 H   0  0  0  0  0  0  0  0  0  0  0  0
    3.0100   -3.3602    0.0000 H   0  0  0  0  0  0  0  0  0  0  0  0
    3.5450   -4.2868    0.0000 H   0  0  0  0  0  0  0  0  0  0  0  0
    2.7200   -2.8579    0.0000 H   0  0  0  0  0  0  0  0  0  0  0  0
    2.1850   -1.9313    0.0000 H   0  0  0  0  0  0  0  0  0  0  0  0
   -1.0700   -4.2868    0.0000 H   0  0  0  0  0  0  0  0  0  0  0  0
   -0.5350   -5.2134    0.0000 H   0  0  0  0  0  0  0  0  0  0  0  0
    2.3775   -5.8846    0.0000 H   0  0  0  0  0  0  0  0  0  0  0  0
    3.9075   -5.0013    0.0000 H   0  0  0  0  0  0  0  0  0  0  0  0
   -0.0975   -5.8846    0.0000 H   0  0  0  0  0  0  0  0  0  0  0  0
    1.4325   -5.0013    0.0000 H   0  0  0  0  0  0  0  0  0  0  0  0
    0.1120   -1.4289    0.0000 H   0  0  0  0  0  0  0  0  0  0  0  0
    2.5870   -1.4289    0.0000 H   0  0  0  0  0  0  0  0  0  0  0  0
  1 19  1  0  0  0  0
  1 20  1  0  0  0  0
  2  1  1  0  0  0  0
  2 21  1  0  0  0  0
  2 22  1  0  0  0  0
  3 23  1  0  0  0  0
  3 24  1  0  0  0  0
  4  3  1  0  0  0  0
  4 25  1  0  0  0  0
  4 26  1  0  0  0  0
  5 27  1  0  0  0  0
  5 28  1  0  0  0  0
  6 29  1  0  0  0  0
  6 30  1  0  0  0  0
  7  3  1  0  0  0  0
  7  5  1  0  0  0  0
  7 17  1  6  0  0  0
  8  1  1  0  0  0  0
  8  6  1  0  0  0  0
  8  7  1  0  0  0  0
  8 18  1  6  0  0  0
  9  2  1  0  0  0  0
 10  5  1  0  0  0  0
 11  4  1  0  0  0  0
 11 31  1  0  0  0  0
 11 32  1  0  0  0  0
 12  6  1  0  0  0  0
 12 33  1  0  0  0  0
 12 34  1  0  0  0  0
 13  9  2  0  0  0  0
 14  9  1  0  0  0  0
 14 35  1  0  0  0  0
 15 10  2  0  0  0  0
 16 10  1  0  0  0  0
 16 36  1  0  0  0  0
M  END
>  <DRUGBANK_ID>
DB02878

>  <SECONDARY_ACCESSION_NUMBERS>
EXPT02503

>  <COMMON_NAME>
3-(2-Aminoethyl)-4-(Aminomethyl)Heptanedioic Acid

$$$$
