
 OpenBabel10282417072D

 23 23  0  0  0  0  0  0  0  0999 V2000
    0.7146    0.2062    0.0000 C   0  0  0  0  0  0  0  0  0  0  0  0
    0.7146   -0.6187    0.0000 C   0  0  0  0  0  0  0  0  0  0  0  0
    0.0000    0.6187    0.0000 C   0  0  0  0  0  0  0  0  0  0  0  0
    0.0000   -1.0313    0.0000 C   0  0  0  0  0  0  0  0  0  0  0  0
   -0.7145    0.2062    0.0000 C   0  0  0  0  0  0  0  0  0  0  0  0
   -0.7145   -0.6187    0.0000 C   0  0  0  0  0  0  0  0  0  0  0  0
    0.0000   -1.8563    0.0000 N   0  0  0  0  0  0  0  0  0  0  0  0
    0.0000    1.4438    0.0000 C   0  0  0  0  0  0  0  0  0  0  0  0
    0.7144    1.8563    0.0000 C   0  0  0  0  0  0  0  0  0  0  0  0
   -0.7145    1.8563    0.0000 C   0  0  0  0  0  0  0  0  0  0  0  0
    1.6083    0.7222    0.0000 H   0  0  0  0  0  0  0  0  0  0  0  0
    1.6083   -1.1347    0.0000 H   0  0  0  0  0  0  0  0  0  0  0  0
   -1.6082    0.7222    0.0000 H   0  0  0  0  0  0  0  0  0  0  0  0
   -1.6083   -1.1347    0.0000 H   0  0  0  0  0  0  0  0  0  0  0  0
   -0.8526   -2.3486    0.0000 H   0  0  0  0  0  0  0  0  0  0  0  0
    0.8526   -2.3485    0.0000 H   0  0  0  0  0  0  0  0  0  0  0  0
   -0.0000    2.5138    0.0000 H   0  0  0  0  0  0  0  0  0  0  0  0
    1.6411    1.3213    0.0000 H   0  0  0  0  0  0  0  0  0  0  0  0
    0.7144    2.9263    0.0000 H   0  0  0  0  0  0  0  0  0  0  0  0
    1.6410    2.3913    0.0000 H   0  0  0  0  0  0  0  0  0  0  0  0
   -0.7145    2.9263    0.0000 H   0  0  0  0  0  0  0  0  0  0  0  0
   -1.6411    1.3213    0.0000 H   0  0  0  0  0  0  0  0  0  0  0  0
   -1.6412    2.3913    0.0000 H   0  0  0  0  0  0  0  0  0  0  0  0
  1 11  1  0  0  0  0
  2  1  1  0  0  0  0
  2 12  1  0  0  0  0
  3  1  2  0  0  0  0
  3  8  1  0  0  0  0
  4  2  2  0  0  0  0
  4  7  1  0  0  0  0
  5  3  1  0  0  0  0
  5 13  1  0  0  0  0
  6  4  1  0  0  0  0
  6  5  2  0  0  0  0
  6 14  1  0  0  0  0
  7 15  1  0  0  0  0
  7 16  1  0  0  0  0
  8  9  1  0  0  0  0
  8 10  1  0  0  0  0
  8 17  1  0  0  0  0
  9 18  1  0  0  0  0
  9 19  1  0  0  0  0
  9 20  1  0  0  0  0
 10 21  1  0  0  0  0
 10 22  1  0  0  0  0
 10 23  1  0  0  0  0
M  END
>  <DRUGBANK_ID>
DB02114

>  <SECONDARY_ACCESSION_NUMBERS>
EXPT01936

>  <COMMON_NAME>
Cumidine

>  <CAS_NUMBER>
99-88-7

>  <UNII>
0D54T7V7XL

>  <SYNONYMS>
4-(1-methylethyl)aniline; 4-Amino-1-isopropylbenzene; 4-Aminocumene; 4-Isopropylaniline; p-Cumidine; p-Isopropylaniline; para-isopropylaniline

$$$$
