
 OpenBabel10282417072D

 54 57  0  0  0  0  0  0  0  0999 V2000
   -1.1089   -0.3275    0.0000 C   0  0  1  0  0  0  0  0  0  0  0  0
    1.0410    0.8953    0.0000 C   0  0  2  0  0  0  0  0  0  0  0  0
   -1.1089   -1.1525    0.0000 C   0  0  0  0  0  0  0  0  0  0  0  0
    1.8272    1.1428    0.0000 C   0  0  1  0  0  0  0  0  0  0  0  0
   -0.3955    0.0848    0.0000 C   0  0  2  0  0  0  0  0  0  0  0  0
    0.3178   -0.3323    0.0000 C   0  0  2  0  0  0  0  0  0  0  0  0
    1.0312    0.0753    0.0000 C   0  0  2  0  0  0  0  0  0  0  0  0
   -1.8222    0.0848    0.0000 C   0  0  0  0  0  0  0  0  0  0  0  0
    0.3275    1.3175    0.0000 C   0  0  0  0  0  0  0  0  0  0  0  0
   -0.3906    0.9098    0.0000 C   0  0  2  0  0  0  0  0  0  0  0  0
    0.3130   -1.1574    0.0000 C   0  0  0  0  0  0  0  0  0  0  0  0
   -0.4002   -1.5651    0.0000 C   0  0  2  0  0  0  0  0  0  0  0  0
   -1.8222   -1.5651    0.0000 C   0  0  0  0  0  0  0  0  0  0  0  0
    1.8222    1.9727    0.0000 C   0  0  0  0  0  0  0  0  0  0  0  0
    2.3027    0.4731    0.0000 C   0  0  0  0  0  0  0  0  0  0  0  0
    1.8126   -0.1916    0.0000 C   0  0  0  0  0  0  0  0  0  0  0  0
   -2.5308   -0.3275    0.0000 C   0  0  0  0  0  0  0  0  0  0  0  0
   -2.5308   -1.1525    0.0000 C   0  0  0  0  0  0  0  0  0  0  0  0
    1.1040    2.3755    0.0000 O   0  0  0  0  0  0  0  0  0  0  0  0
   -3.2491   -1.5602    0.0000 O   0  0  0  0  0  0  0  0  0  0  0  0
    2.5405    1.5650    0.0000 O   0  0  0  0  0  0  0  0  0  0  0  0
   -1.1137    0.5022    0.0000 C   0  0  0  0  0  0  0  0  0  0  0  0
    1.0361    1.7252    0.0000 C   0  0  0  0  0  0  0  0  0  0  0  0
   -0.4052   -2.3901    0.0000 F   0  0  0  0  0  0  0  0  0  0  0  0
   -1.1040    1.3273    0.0000 O   0  0  0  0  0  0  0  0  0  0  0  0
    2.5308    2.3901    0.0000 C   0  0  0  0  0  0  0  0  0  0  0  0
    3.2491    1.9824    0.0000 O   0  0  0  0  0  0  0  0  0  0  0  0
    1.0264   -0.7497    0.0000 H   0  0  0  0  0  0  0  0  0  0  0  0
   -0.4002   -0.7353    0.0000 H   0  0  0  0  0  0  0  0  0  0  0  0
    0.3130    0.4925    0.0000 H   0  0  0  0  0  0  0  0  0  0  0  0
   -1.8237    1.1168    0.0000 H   0  0  0  0  0  0  0  0  0  0  0  0
    0.3371    2.3875    0.0000 H   0  0  0  0  0  0  0  0  0  0  0  0
   -0.5948    1.8600    0.0000 H   0  0  0  0  0  0  0  0  0  0  0  0
   -0.3836    1.9798    0.0000 H   0  0  0  0  0  0  0  0  0  0  0  0
    1.2369   -1.6971    0.0000 H   0  0  0  0  0  0  0  0  0  0  0  0
    1.2425   -0.6274    0.0000 H   0  0  0  0  0  0  0  0  0  0  0  0
    0.5237   -2.1049    0.0000 H   0  0  0  0  0  0  0  0  0  0  0  0
   -1.8237   -2.5971    0.0000 H   0  0  0  0  0  0  0  0  0  0  0  0
    3.3727    0.4635    0.0000 H   0  0  0  0  0  0  0  0  0  0  0  0
    2.7979    1.4216    0.0000 H   0  0  0  0  0  0  0  0  0  0  0  0
    2.1320   -1.2128    0.0000 H   0  0  0  0  0  0  0  0  0  0  0  0
    1.0462   -0.9383    0.0000 H   0  0  0  0  0  0  0  0  0  0  0  0
   -3.4254    0.1870    0.0000 H   0  0  0  0  0  0  0  0  0  0  0  0
    3.3858    1.0891    0.0000 H   0  0  0  0  0  0  0  0  0  0  0  0
   -0.1902    1.0426    0.0000 H   0  0  0  0  0  0  0  0  0  0  0  0
   -2.0434    1.0318    0.0000 H   0  0  0  0  0  0  0  0  0  0  0  0
   -1.1199    1.5722    0.0000 H   0  0  0  0  0  0  0  0  0  0  0  0
    1.9596    2.2657    0.0000 H   0  0  0  0  0  0  0  0  0  0  0  0
    0.1063    2.2547    0.0000 H   0  0  0  0  0  0  0  0  0  0  0  0
    1.0298    2.7952    0.0000 H   0  0  0  0  0  0  0  0  0  0  0  0
   -1.0983    2.2973    0.0000 H   0  0  0  0  0  0  0  0  0  0  0  0
    2.5222    3.4601    0.0000 H   0  0  0  0  0  0  0  0  0  0  0  0
    3.4533    2.9322    0.0000 H   0  0  0  0  0  0  0  0  0  0  0  0
    3.2562    1.0124    0.0000 H   0  0  0  0  0  0  0  0  0  0  0  0
  1 22  1  1  0  0  0
  2  9  1  0  0  0  0
  2 23  1  1  0  0  0
  3  1  1  0  0  0  0
  4  2  1  0  0  0  0
  4 14  1  1  0  0  0
  4 21  1  0  0  0  0
  4 15  1  0  0  0  0
  5  1  1  0  0  0  0
  5 29  1  6  0  0  0
  6  5  1  0  0  0  0
  6 30  1  1  0  0  0
  6 11  1  0  0  0  0
  7  6  1  0  0  0  0
  7 28  1  6  0  0  0
  7  2  1  0  0  0  0
  8  1  1  0  0  0  0
  8 31  1  0  0  0  0
  9 10  1  0  0  0  0
  9 32  1  0  0  0  0
  9 33  1  0  0  0  0
 10  5  1  0  0  0  0
 10 25  1  0  0  0  0
 10 34  1  6  0  0  0
 11 12  1  0  0  0  0
 11 35  1  0  0  0  0
 11 36  1  0  0  0  0
 12  3  1  0  0  0  0
 12 24  1  0  0  0  0
 12 37  1  1  0  0  0
 13  3  2  0  0  0  0
 13 38  1  0  0  0  0
 15 16  1  0  0  0  0
 15 39  1  0  0  0  0
 15 40  1  0  0  0  0
 16  7  1  0  0  0  0
 16 41  1  0  0  0  0
 16 42  1  0  0  0  0
 17  8  2  0  0  0  0
 17 43  1  0  0  0  0
 18 13  1  0  0  0  0
 18 17  1  0  0  0  0
 19 14  2  0  0  0  0
 20 18  2  0  0  0  0
 21 44  1  0  0  0  0
 22 45  1  0  0  0  0
 22 46  1  0  0  0  0
 22 47  1  0  0  0  0
 23 48  1  0  0  0  0
 23 49  1  0  0  0  0
 23 50  1  0  0  0  0
 25 51  1  0  0  0  0
 26 14  1  0  0  0  0
 26 52  1  0  0  0  0
 26 53  1  0  0  0  0
 27 26  1  0  0  0  0
 27 54  1  0  0  0  0
M  END
>  <DRUGBANK_ID>
DB09378

>  <COMMON_NAME>
Fluprednisolone

>  <CAS_NUMBER>
53-34-9

>  <UNII>
9H05937G3X

>  <SYNONYMS>
6alpha-Fluoroprednisolone; Fluprednisolone; Fluprednisolonum

$$$$
