114
 OpenBabel10282417072D

 26 26  0  0  0  0  0  0  0  0999 V2000
    6.3799    0.2063    0.0000 P   0  0  0  0  0  0  0  0  0  0  0  0
    5.6655   -0.2063    0.0000 O   0  0  0  0  0  0  0  0  0  0  0  0
    2.0930    0.2063    0.0000 O   0  0  0  0  0  0  0  0  0  0  0  0
    6.7925   -0.5082    0.0000 O   0  0  0  0  0  0  0  0  0  0  0  0
    7.0944    0.6188    0.0000 O   0  0  0  0  0  0  0  0  0  0  0  0
    2.8075    1.4438    0.0000 O   0  0  0  0  0  0  0  0  0  0  0  0
    5.9674    0.9207    0.0000 O   0  0  0  0  0  0  0  0  0  0  0  0
    3.5220   -1.4438    0.0000 N   0  0  0  0  0  0  0  0  0  0  0  0
    4.2365   -0.2063    0.0000 C   0  0  0  0  0  0  0  0  0  0  0  0
    3.5220    0.2063    0.0000 C   0  0  0  0  0  0  0  0  0  0  0  0
    4.9509    0.2063    0.0000 C   0  0  0  0  0  0  0  0  0  0  0  0
    2.8075   -0.2063    0.0000 C   0  0  0  0  0  0  0  0  0  0  0  0
    2.8075   -1.0313    0.0000 C   0  0  0  0  0  0  0  0  0  0  0  0
    4.2365   -1.0313    0.0000 C   0  0  0  0  0  0  0  0  0  0  0  0
    2.0930   -1.4438    0.0000 C   0  0  0  0  0  0  0  0  0  0  0  0
    3.5220    1.0313    0.0000 C   0  0  0  0  0  0  0  0  0  0  0  0
    2.0931    1.1433    0.0000 H   0  0  0  0  0  0  0  0  0  0  0  0
    6.3076   -1.3483    0.0000 H   0  0  0  0  0  0  0  0  0  0  0  0
    7.9344    0.1338    0.0000 H   0  0  0  0  0  0  0  0  0  0  0  0
    4.9508    1.2763    0.0000 H   0  0  0  0  0  0  0  0  0  0  0  0
    4.0242    0.7412    0.0000 H   0  0  0  0  0  0  0  0  0  0  0  0
    5.1302   -1.5473    0.0000 H   0  0  0  0  0  0  0  0  0  0  0  0
    1.1664   -0.9088    0.0000 H   0  0  0  0  0  0  0  0  0  0  0  0
    2.0930   -2.5138    0.0000 H   0  0  0  0  0  0  0  0  0  0  0  0
    1.1663   -1.9788    0.0000 H   0  0  0  0  0  0  0  0  0  0  0  0
    4.4157    1.5473    0.0000 H   0  0  0  0  0  0  0  0  0  0  0  0
  1  2  1  0  0  0  0
  1  4  1  0  0  0  0
  1  5  1  0  0  0  0
  1  7  2  0  0  0  0
  2 11  1  0  0  0  0
  3 12  1  0  0  0  0
  3 17  1  0  0  0  0
  4 18  1  0  0  0  0
  5 19  1  0  0  0  0
  6 16  2  0  0  0  0
  8 13  2  0  0  0  0
  8 14  1  0  0  0  0
  9 10  1  0  0  0  0
  9 11  1  0  0  0  0
  9 14  2  0  0  0  0
 10 12  2  0  0  0  0
 10 16  1  0  0  0  0
 11 20  1  0  0  0  0
 11 21  1  0  0  0  0
 12 13  1  0  0  0  0
 13 15  1  0  0  0  0
 14 22  1  0  0  0  0
 15 23  1  0  0  0  0
 15 24  1  0  0  0  0
 15 25  1  0  0  0  0
 16 26  1  0  0  0  0
M  END
>  <DRUGBANK_ID>
DB00114

>  <SECONDARY_ACCESSION_NUMBERS>
NUTR00045

>  <COMMON_NAME>
Pyridoxal phosphate

>  <CAS_NUMBER>
54-47-7

>  <UNII>
F06SGE49M6

>  <SYNONYMS>
3-hydroxy-2-methyl-5-((phosphonooxy)methyl)-4-pyridinecarboxaldehyde; 3-hydroxy-5-(hydroxymethyl)-2-methylisonicotinaldehyde 5-phosphate; Codecarboxylase; PLP; Pyridoxal 5-monophosphoric acid ester; Pyridoxal 5-phosphate; Pyridoxal 5'-phosphate; Pyridoxal P; Pyridoxal phosphate anhydrous; Pyridoxal-5P; Pyridoxal-P

$$$$
