29U
 OpenBabel10282417072D

 49 50  0  0  0  0  0  0  0  0999 V2000
    0.6793   -1.2354    0.0000 N   0  0  0  0  0  0  0  0  0  0  0  0
    0.0119   -0.7504    0.0000 C   0  0  2  0  0  0  0  0  0  0  0  0
    0.0119    0.0746    0.0000 C   0  0  0  0  0  0  0  0  0  0  0  0
    0.7263    0.4871    0.0000 O   0  0  0  0  0  0  0  0  0  0  0  0
   -0.7026    0.4871    0.0000 N   0  0  0  0  0  0  0  0  0  0  0  0
   -0.7026    1.3121    0.0000 C   0  0  0  0  0  0  0  0  0  0  0  0
   -1.4171    1.7246    0.0000 C   0  0  0  0  0  0  0  0  0  0  0  0
   -2.1315    1.3121    0.0000 C   0  0  0  0  0  0  0  0  0  0  0  0
   -2.8460    1.7246    0.0000 C   0  0  0  0  0  0  0  0  0  0  0  0
   -2.8460    2.5496    0.0000 C   0  0  0  0  0  0  0  0  0  0  0  0
   -3.5605    2.9621    0.0000 C   0  0  0  0  0  0  0  0  0  0  0  0
   -3.5605    3.7871    0.0000 N   0  0  0  0  0  0  0  0  0  0  0  0
   -4.2750    2.5496    0.0000 N   0  0  0  0  0  0  0  0  0  0  0  0
   -2.1315    2.9621    0.0000 C   0  0  0  0  0  0  0  0  0  0  0  0
   -1.4171    2.5496    0.0000 C   0  0  0  0  0  0  0  0  0  0  0  0
   -0.6556   -1.2354    0.0000 C   0  0  0  0  0  0  0  0  0  0  0  0
   -0.4006   -2.0200    0.0000 C   0  0  0  0  0  0  0  0  0  0  0  0
    0.4244   -2.0200    0.0000 C   0  0  0  0  0  0  0  0  0  0  0  0
    1.4639   -0.9804    0.0000 C   0  0  0  0  0  0  0  0  0  0  0  0
    2.0770   -1.5325    0.0000 C   0  0  2  0  0  0  0  0  0  0  0  0
    1.9055   -2.3394    0.0000 N   0  0  0  0  0  0  0  0  0  0  0  0
    2.8616   -1.2775    0.0000 C   0  0  0  0  0  0  0  0  0  0  0  0
    3.4747   -1.8296    0.0000 C   0  0  0  0  0  0  0  0  0  0  0  0
    1.6355   -0.1735    0.0000 O   0  0  0  0  0  0  0  0  0  0  0  0
    0.5322   -0.4854    0.0000 H   0  0  0  0  0  0  0  0  0  0  0  0
    2.1984   -0.9613    0.0000 H   0  0  0  0  0  0  0  0  0  0  0  0
   -1.5552   -0.0052    0.0000 H   0  0  0  0  0  0  0  0  0  0  0  0
    0.2240    1.8471    0.0000 H   0  0  0  0  0  0  0  0  0  0  0  0
   -0.7026    2.3821    0.0000 H   0  0  0  0  0  0  0  0  0  0  0  0
   -2.1315    0.2801    0.0000 H   0  0  0  0  0  0  0  0  0  0  0  0
   -3.7397    1.2086    0.0000 H   0  0  0  0  0  0  0  0  0  0  0  0
   -2.7079    4.2793    0.0000 H   0  0  0  0  0  0  0  0  0  0  0  0
   -5.1276    3.0419    0.0000 H   0  0  0  0  0  0  0  0  0  0  0  0
   -4.2750    1.5651    0.0000 H   0  0  0  0  0  0  0  0  0  0  0  0
   -2.1315    3.9941    0.0000 H   0  0  0  0  0  0  0  0  0  0  0  0
   -0.5234    3.0656    0.0000 H   0  0  0  0  0  0  0  0  0  0  0  0
   -1.6732   -0.9048    0.0000 H   0  0  0  0  0  0  0  0  0  0  0  0
   -1.4122   -1.9921    0.0000 H   0  0  0  0  0  0  0  0  0  0  0  0
   -1.0295   -2.8857    0.0000 H   0  0  0  0  0  0  0  0  0  0  0  0
    0.0852   -2.9734    0.0000 H   0  0  0  0  0  0  0  0  0  0  0  0
    1.0533   -2.8856    0.0000 H   0  0  0  0  0  0  0  0  0  0  0  0
    1.4812   -1.8526    0.0000 H   0  0  0  0  0  0  0  0  0  0  0  0
    0.9354   -2.6546    0.0000 H   0  0  0  0  0  0  0  0  0  0  0  0
    2.6635   -3.0219    0.0000 H   0  0  0  0  0  0  0  0  0  0  0  0
    3.0841   -0.2309    0.0000 H   0  0  0  0  0  0  0  0  0  0  0  0
    3.8792   -0.9469    0.0000 H   0  0  0  0  0  0  0  0  0  0  0  0
    3.2522   -2.8762    0.0000 H   0  0  0  0  0  0  0  0  0  0  0  0
    4.4923   -1.4990    0.0000 H   0  0  0  0  0  0  0  0  0  0  0  0
    4.2698   -2.5456    0.0000 H   0  0  0  0  0  0  0  0  0  0  0  0
  1 19  1  0  0  0  0
  2  1  1  0  0  0  0
  2 25  1  6  0  0  0
  2  3  1  0  0  0  0
  3  5  1  0  0  0  0
  4  3  2  0  0  0  0
  5 27  1  0  0  0  0
  6  5  1  0  0  0  0
  6  7  1  0  0  0  0
  6 28  1  0  0  0  0
  6 29  1  0  0  0  0
  7  8  2  0  0  0  0
  7 15  1  0  0  0  0
  8  9  1  0  0  0  0
  8 30  1  0  0  0  0
  9 10  2  0  0  0  0
  9 31  1  0  0  0  0
 10 11  1  0  0  0  0
 11 12  2  0  0  0  0
 11 13  1  0  0  0  0
 12 32  1  0  0  0  0
 13 33  1  0  0  0  0
 13 34  1  0  0  0  0
 14 10  1  0  0  0  0
 14 35  1  0  0  0  0
 15 14  2  0  0  0  0
 15 36  1  0  0  0  0
 16  2  1  0  0  0  0
 16 17  1  0  0  0  0
 16 37  1  0  0  0  0
 16 38  1  0  0  0  0
 17 18  1  0  0  0  0
 17 39  1  0  0  0  0
 17 40  1  0  0  0  0
 18  1  1  0  0  0  0
 18 41  1  0  0  0  0
 18 42  1  0  0  0  0
 19 24  2  0  0  0  0
 19 20  1  0  0  0  0
 20 22  1  0  0  0  0
 20 26  1  6  0  0  0
 20 21  1  0  0  0  0
 21 43  1  0  0  0  0
 21 44  1  0  0  0  0
 22 23  1  0  0  0  0
 22 45  1  0  0  0  0
 22 46  1  0  0  0  0
 23 47  1  0  0  0  0
 23 48  1  0  0  0  0
 23 49  1  0  0  0  0
M  END
>  <DRUGBANK_ID>
DB06947

>  <COMMON_NAME>
1-[(2R)-2-aminobutanoyl]-N-(4-carbamimidoylbenzyl)-L-prolinamide

$$$$
