
 OpenBabel10282417072D

 63 62  0  0  0  0  0  0  0  0999 V2000
    2.0446    0.0140    0.0000 C   0  0  0  0  0  0  0  0  0  0  0  0
    2.0446   -0.8109    0.0000 C   0  0  0  0  0  0  0  0  0  0  0  0
    0.9177    1.1410    0.0000 C   0  0  0  0  0  0  0  0  0  0  0  0
    0.0927    1.1410    0.0000 C   0  0  0  0  0  0  0  0  0  0  0  0
    0.9177   -1.9379    0.0000 C   0  0  0  0  0  0  0  0  0  0  0  0
    0.0927   -1.9379    0.0000 C   0  0  0  0  0  0  0  0  0  0  0  0
   -1.0342    0.0140    0.0000 C   0  0  0  0  0  0  0  0  0  0  0  0
   -1.0342   -0.8109    0.0000 C   0  0  0  0  0  0  0  0  0  0  0  0
    1.9135    1.0099    0.0000 C   0  0  0  0  0  0  0  0  0  0  0  0
    1.9135   -1.8068    0.0000 C   0  0  0  0  0  0  0  0  0  0  0  0
   -0.9031    1.0099    0.0000 C   0  0  0  0  0  0  0  0  0  0  0  0
   -0.9031   -1.8068    0.0000 C   0  0  0  0  0  0  0  0  0  0  0  0
    1.3302    0.4265    0.0000 N   0  0  0  0  0  0  0  0  0  0  0  0
    1.3302   -1.2234    0.0000 N   0  0  0  0  0  0  0  0  0  0  0  0
   -0.3197    0.4265    0.0000 N   0  0  0  0  0  0  0  0  0  0  0  0
   -0.3197   -1.2234    0.0000 N   0  0  0  0  0  0  0  0  0  0  0  0
    1.4865    2.6036    0.0000 O   0  5  0  0  0  0  0  0  0  0  0  0
    2.4969    2.0203    0.0000 O   0  5  0  0  0  0  0  0  0  0  0  0
    0.9031    1.5932    0.0000 O   0  0  0  0  0  0  0  0  0  0  0  0
    0.9031   -2.3901    0.0000 O   0  0  0  0  0  0  0  0  0  0  0  0
    2.4969   -2.8172    0.0000 O   0  0  0  0  0  0  0  0  0  0  0  0
    1.4865   -3.4005    0.0000 O   0  0  0  0  0  0  0  0  0  0  0  0
    0.1072    1.5932    0.0000 O   0  0  0  0  0  0  0  0  0  0  0  0
   -1.4865    2.0203    0.0000 O   0  0  0  0  0  0  0  0  0  0  0  0
   -0.4761    2.6036    0.0000 O   0  0  0  0  0  0  0  0  0  0  0  0
   -2.4969   -1.3797    0.0000 O   0  0  0  0  0  0  0  0  0  0  0  0
   -1.9135   -2.3901    0.0000 O   0  0  0  0  0  0  0  0  0  0  0  0
   -1.4865   -0.7963    0.0000 O   0  0  0  0  0  0  0  0  0  0  0  0
    1.7000    1.8068    0.0000 P   0  0  0  0  0  0  0  0  0  0  0  0
    1.7000   -2.6036    0.0000 P   0  0  0  0  0  0  0  0  0  0  0  0
   -0.6896    1.8068    0.0000 P   0  0  0  0  0  0  0  0  0  0  0  0
   -1.7000   -1.5932    0.0000 P   0  0  0  0  0  0  0  0  0  0  0  0
    1.2729    3.4005    0.0000 Ho  0  2  0  0  0  0  0  0  0  0  0  0
    2.9713    0.5490    0.0000 H   0  0  0  0  0  0  0  0  0  0  0  0
    2.0446    1.0840    0.0000 H   0  0  0  0  0  0  0  0  0  0  0  0
    2.9713   -1.3459    0.0000 H   0  0  0  0  0  0  0  0  0  0  0  0
    2.0446   -1.8809    0.0000 H   0  0  0  0  0  0  0  0  0  0  0  0
    1.4527    2.0676    0.0000 H   0  0  0  0  0  0  0  0  0  0  0  0
    1.9877    1.1410    0.0000 H   0  0  0  0  0  0  0  0  0  0  0  0
   -0.4424    2.0676    0.0000 H   0  0  0  0  0  0  0  0  0  0  0  0
   -0.9773    1.1409    0.0000 H   0  0  0  0  0  0  0  0  0  0  0  0
    1.4527   -2.8645    0.0000 H   0  0  0  0  0  0  0  0  0  0  0  0
    1.9877   -1.9379    0.0000 H   0  0  0  0  0  0  0  0  0  0  0  0
   -0.4424   -2.8645    0.0000 H   0  0  0  0  0  0  0  0  0  0  0  0
   -0.9773   -1.9378    0.0000 H   0  0  0  0  0  0  0  0  0  0  0  0
   -1.9608    0.5490    0.0000 H   0  0  0  0  0  0  0  0  0  0  0  0
   -1.0342    1.0840    0.0000 H   0  0  0  0  0  0  0  0  0  0  0  0
   -1.9608   -1.3459    0.0000 H   0  0  0  0  0  0  0  0  0  0  0  0
   -1.0342   -1.8809    0.0000 H   0  0  0  0  0  0  0  0  0  0  0  0
    2.9470    0.7330    0.0000 H   0  0  0  0  0  0  0  0  0  0  0  0
    2.6701    1.7665    0.0000 H   0  0  0  0  0  0  0  0  0  0  0  0
    2.9471   -1.5299    0.0000 H   0  0  0  0  0  0  0  0  0  0  0  0
    2.6701   -2.5634    0.0000 H   0  0  0  0  0  0  0  0  0  0  0  0
   -1.9366    0.7329    0.0000 H   0  0  0  0  0  0  0  0  0  0  0  0
   -1.6597    1.7665    0.0000 H   0  0  0  0  0  0  0  0  0  0  0  0
   -0.6262   -2.8404    0.0000 H   0  0  0  0  0  0  0  0  0  0  0  0
   -1.6598   -2.5634    0.0000 H   0  0  0  0  0  0  0  0  0  0  0  0
    0.6520   -1.4532    0.0000 H   0  0  0  0  0  0  0  0  0  0  0  0
    2.7479   -3.7542    0.0000 H   0  0  0  0  0  0  0  0  0  0  0  0
    0.3581    0.6562    0.0000 H   0  0  0  0  0  0  0  0  0  0  0  0
   -1.7376    2.9572    0.0000 H   0  0  0  0  0  0  0  0  0  0  0  0
   -2.7480   -0.4428    0.0000 H   0  0  0  0  0  0  0  0  0  0  0  0
   -2.8504   -2.6412    0.0000 H   0  0  0  0  0  0  0  0  0  0  0  0
  1 34  1  0  0  0  0
  1 35  1  0  0  0  0
  2  1  1  0  0  0  0
  2 36  1  0  0  0  0
  2 37  1  0  0  0  0
  3 38  1  0  0  0  0
  3 39  1  0  0  0  0
  4  3  1  0  0  0  0
  4 40  1  0  0  0  0
  4 41  1  0  0  0  0
  5 42  1  0  0  0  0
  5 43  1  0  0  0  0
  6  5  1  0  0  0  0
  6 44  1  0  0  0  0
  6 45  1  0  0  0  0
  7 46  1  0  0  0  0
  7 47  1  0  0  0  0
  8  7  1  0  0  0  0
  8 48  1  0  0  0  0
  8 49  1  0  0  0  0
  9 50  1  0  0  0  0
  9 51  1  0  0  0  0
 10 52  1  0  0  0  0
 10 53  1  0  0  0  0
 11 54  1  0  0  0  0
 11 55  1  0  0  0  0
 12 56  1  0  0  0  0
 12 57  1  0  0  0  0
 13  1  1  0  0  0  0
 13  3  1  0  0  0  0
 13  9  1  0  0  0  0
 14  2  1  0  0  0  0
 14  5  1  0  0  0  0
 14 10  1  0  0  0  0
 15  4  1  0  0  0  0
 15  7  1  0  0  0  0
 15 11  1  0  0  0  0
 16  6  1  0  0  0  0
 16  8  1  0  0  0  0
 16 12  1  0  0  0  0
 20 58  1  0  0  0  0
 21 59  1  0  0  0  0
 23 60  1  0  0  0  0
 24 61  1  0  0  0  0
 26 62  1  0  0  0  0
 27 63  1  0  0  0  0
 29  9  1  0  0  0  0
 29 17  1  0  0  0  0
 29 18  1  0  0  0  0
 29 19  2  0  0  0  0
 30 10  1  0  0  0  0
 30 20  1  0  0  0  0
 30 21  1  0  0  0  0
 30 22  2  0  0  0  0
 31 11  1  0  0  0  0
 31 23  1  0  0  0  0
 31 24  1  0  0  0  0
 31 25  2  0  0  0  0
 32 12  1  0  0  0  0
 32 26  1  0  0  0  0
 32 27  1  0  0  0  0
 32 28  2  0  0  0  0
M  ISO  1  33 166
M  CHG  3  17  -1  18  -1  33   2
M  END
>  <DRUGBANK_ID>
DB05380

>  <COMMON_NAME>
DOTMP HO-166

>  <CAS_NUMBER>
633308-23-3

>  <UNII>
9F972459OC

>  <SYNONYMS>
166Ho-DOTMP; Chelating agent delivering Holmium-166; Holmium Ho-166 DOTMP; Holmium-166 DOTMP

$$$$
