
 OpenBabel10282417072D

 36 37  0  0  0  0  0  0  0  0999 V2000
    1.7862   -1.0479    0.0000 P   0  0  0  0  0  0  0  0  0  0  0  0
    1.0717   -1.4604    0.0000 O   0  0  0  0  0  0  0  0  0  0  0  0
   -2.5007   -1.0479    0.0000 O   0  0  0  0  0  0  0  0  0  0  0  0
    0.0552    2.2841    0.0000 O   0  0  0  0  0  0  0  0  0  0  0  0
   -1.8093    1.2446    0.0000 O   0  0  0  0  0  0  0  0  0  0  0  0
    2.1987   -1.7624    0.0000 O   0  0  0  0  0  0  0  0  0  0  0  0
    2.5007   -0.6354    0.0000 O   0  0  0  0  0  0  0  0  0  0  0  0
    1.3737   -0.3334    0.0000 O   0  0  0  0  0  0  0  0  0  0  0  0
   -0.3572    0.1895    0.0000 N   0  0  0  0  0  0  0  0  0  0  0  0
   -1.0716   -2.6979    0.0000 N   0  0  0  0  0  0  0  0  0  0  0  0
   -0.7697    2.2841    0.0000 N   0  0  0  0  0  0  0  0  0  0  0  0
   -1.0716   -1.0479    0.0000 C   0  0  0  0  0  0  0  0  0  0  0  0
   -1.0716   -0.2229    0.0000 C   0  0  0  0  0  0  0  0  0  0  0  0
   -0.3572   -1.4604    0.0000 C   0  0  0  0  0  0  0  0  0  0  0  0
   -1.7861   -1.4604    0.0000 C   0  0  0  0  0  0  0  0  0  0  0  0
    0.3572   -1.0479    0.0000 C   0  0  0  0  0  0  0  0  0  0  0  0
   -1.7861   -2.2854    0.0000 C   0  0  0  0  0  0  0  0  0  0  0  0
   -0.3572   -2.2854    0.0000 C   0  0  0  0  0  0  0  0  0  0  0  0
   -0.3572    1.0146    0.0000 C   0  0  0  0  0  0  0  0  0  0  0  0
   -2.5007   -2.6979    0.0000 C   0  0  0  0  0  0  0  0  0  0  0  0
   -1.0246    1.4995    0.0000 C   0  0  0  0  0  0  0  0  0  0  0  0
    0.3102    1.4995    0.0000 C   0  0  0  0  0  0  0  0  0  0  0  0
    0.0857   -0.0661    0.0000 H   0  0  0  0  0  0  0  0  0  0  0  0
   -1.0703    2.6979    0.0000 H   0  0  0  0  0  0  0  0  0  0  0  0
   -2.5008   -0.1109    0.0000 H   0  0  0  0  0  0  0  0  0  0  0  0
    1.7137   -2.6024    0.0000 H   0  0  0  0  0  0  0  0  0  0  0  0
    3.3407   -1.1204    0.0000 H   0  0  0  0  0  0  0  0  0  0  0  0
   -1.9982    0.3121    0.0000 H   0  0  0  0  0  0  0  0  0  0  0  0
   -1.9983   -0.7579    0.0000 H   0  0  0  0  0  0  0  0  0  0  0  0
    0.3572    0.0221    0.0000 H   0  0  0  0  0  0  0  0  0  0  0  0
   -0.5695   -0.5129    0.0000 H   0  0  0  0  0  0  0  0  0  0  0  0
    0.5365   -2.8014    0.0000 H   0  0  0  0  0  0  0  0  0  0  0  0
   -3.4273   -2.1628    0.0000 H   0  0  0  0  0  0  0  0  0  0  0  0
   -2.5008   -3.7679    0.0000 H   0  0  0  0  0  0  0  0  0  0  0  0
   -3.4274   -3.2328    0.0000 H   0  0  0  0  0  0  0  0  0  0  0  0
    1.2917    1.1806    0.0000 H   0  0  0  0  0  0  0  0  0  0  0  0
  1  2  1  0  0  0  0
  1  6  1  0  0  0  0
  1  7  1  0  0  0  0
  1  8  2  0  0  0  0
  2 16  1  0  0  0  0
  3 15  1  0  0  0  0
  3 25  1  0  0  0  0
  4 11  1  0  0  0  0
  4 22  1  0  0  0  0
  5 21  2  0  0  0  0
  6 26  1  0  0  0  0
  7 27  1  0  0  0  0
  9 13  1  0  0  0  0
  9 19  1  0  0  0  0
  9 23  1  0  0  0  0
 10 17  2  0  0  0  0
 10 18  1  0  0  0  0
 11 21  1  0  0  0  0
 11 24  1  0  0  0  0
 12 13  1  0  0  0  0
 12 14  1  0  0  0  0
 12 15  2  0  0  0  0
 13 28  1  0  0  0  0
 13 29  1  0  0  0  0
 14 16  1  0  0  0  0
 14 18  2  0  0  0  0
 15 17  1  0  0  0  0
 16 30  1  0  0  0  0
 16 31  1  0  0  0  0
 17 20  1  0  0  0  0
 18 32  1  0  0  0  0
 19 21  1  0  0  0  0
 19 22  2  0  0  0  0
 20 33  1  0  0  0  0
 20 34  1  0  0  0  0
 20 35  1  0  0  0  0
 22 36  1  0  0  0  0
M  END
>  <DRUGBANK_ID>
DB03097

>  <SECONDARY_ACCESSION_NUMBERS>
EXPT02617

>  <COMMON_NAME>
PMP-hydroxyisoxazole, pyridoxamine-5-phosphate-hydroxyisoxazole

$$$$
