
 OpenBabel10282417072D

 46 49  0  0  0  0  0  0  0  0999 V2000
    0.0000    0.0835    0.0000 C   0  0  0  0  0  0  0  0  0  0  0  0
   -3.5724   -0.3289    0.0000 C   0  0  0  0  0  0  0  0  0  0  0  0
    3.5724   -0.3289    0.0000 C   0  0  0  0  0  0  0  0  0  0  0  0
   -3.6586   -1.1494    0.0000 N   0  0  0  0  0  0  0  0  0  0  0  0
    4.3260    0.0065    0.0000 N   0  0  0  0  0  0  0  0  0  0  0  0
   -2.8579    0.0835    0.0000 C   0  0  0  0  0  0  0  0  0  0  0  0
    2.8579    0.0835    0.0000 C   0  0  0  0  0  0  0  0  0  0  0  0
   -0.7145   -0.3289    0.0000 N   0  0  0  0  0  0  0  0  0  0  0  0
    0.7145   -0.3289    0.0000 N   0  0  0  0  0  0  0  0  0  0  0  0
   -4.3260    0.0065    0.0000 N   0  0  0  0  0  0  0  0  0  0  0  0
    3.6586   -1.1494    0.0000 N   0  0  0  0  0  0  0  0  0  0  0  0
    0.0000    0.9085    0.0000 O   0  0  0  0  0  0  0  0  0  0  0  0
    2.1434   -0.3289    0.0000 C   0  0  0  0  0  0  0  0  0  0  0  0
   -2.1434   -0.3289    0.0000 C   0  0  0  0  0  0  0  0  0  0  0  0
    1.4289    0.0835    0.0000 C   0  0  0  0  0  0  0  0  0  0  0  0
   -1.4289    0.0835    0.0000 C   0  0  0  0  0  0  0  0  0  0  0  0
    4.8781   -0.6065    0.0000 C   0  0  0  0  0  0  0  0  0  0  0  0
   -4.4656   -1.3210    0.0000 C   0  0  0  0  0  0  0  0  0  0  0  0
   -2.8579    0.9085    0.0000 C   0  0  0  0  0  0  0  0  0  0  0  0
    2.8579    0.9085    0.0000 C   0  0  0  0  0  0  0  0  0  0  0  0
    4.4656   -1.3210    0.0000 C   0  0  0  0  0  0  0  0  0  0  0  0
   -4.8781   -0.6065    0.0000 C   0  0  0  0  0  0  0  0  0  0  0  0
   -2.1434    1.3210    0.0000 C   0  0  0  0  0  0  0  0  0  0  0  0
    2.1434    1.3210    0.0000 C   0  0  0  0  0  0  0  0  0  0  0  0
    1.4289    0.9085    0.0000 C   0  0  0  0  0  0  0  0  0  0  0  0
   -1.4289    0.9085    0.0000 C   0  0  0  0  0  0  0  0  0  0  0  0
   -2.9269   -1.8081    0.0000 H   0  0  0  0  0  0  0  0  0  0  0  0
   -0.7145   -1.3134    0.0000 H   0  0  0  0  0  0  0  0  0  0  0  0
    0.7145   -1.3134    0.0000 H   0  0  0  0  0  0  0  0  0  0  0  0
    2.9269   -1.8081    0.0000 H   0  0  0  0  0  0  0  0  0  0  0  0
    2.1434   -1.3609    0.0000 H   0  0  0  0  0  0  0  0  0  0  0  0
   -2.1434   -1.3609    0.0000 H   0  0  0  0  0  0  0  0  0  0  0  0
    5.9422   -0.4946    0.0000 H   0  0  0  0  0  0  0  0  0  0  0  0
    5.4609   -1.5038    0.0000 H   0  0  0  0  0  0  0  0  0  0  0  0
   -4.9008   -2.2985    0.0000 H   0  0  0  0  0  0  0  0  0  0  0  0
   -5.5341   -1.3770    0.0000 H   0  0  0  0  0  0  0  0  0  0  0  0
   -3.7516    1.4245    0.0000 H   0  0  0  0  0  0  0  0  0  0  0  0
    3.7516    1.4245    0.0000 H   0  0  0  0  0  0  0  0  0  0  0  0
    4.9008   -2.2985    0.0000 H   0  0  0  0  0  0  0  0  0  0  0  0
    5.5341   -1.3770    0.0000 H   0  0  0  0  0  0  0  0  0  0  0  0
   -5.9422   -0.4946    0.0000 H   0  0  0  0  0  0  0  0  0  0  0  0
   -5.4609   -1.5038    0.0000 H   0  0  0  0  0  0  0  0  0  0  0  0
   -2.1434    2.3530    0.0000 H   0  0  0  0  0  0  0  0  0  0  0  0
    2.1434    2.3530    0.0000 H   0  0  0  0  0  0  0  0  0  0  0  0
    0.5352    1.4245    0.0000 H   0  0  0  0  0  0  0  0  0  0  0  0
   -0.5352    1.4245    0.0000 H   0  0  0  0  0  0  0  0  0  0  0  0
  4  2  1  0  0  0  0
  4 27  1  0  0  0  0
  5  3  2  0  0  0  0
  6  2  1  0  0  0  0
  7  3  1  0  0  0  0
  8  1  1  0  0  0  0
  8 28  1  0  0  0  0
  9  1  1  0  0  0  0
  9 29  1  0  0  0  0
 10  2  2  0  0  0  0
 11  3  1  0  0  0  0
 11 30  1  0  0  0  0
 12  1  2  0  0  0  0
 13  7  2  0  0  0  0
 13 31  1  0  0  0  0
 14  6  2  0  0  0  0
 14 32  1  0  0  0  0
 15  9  1  0  0  0  0
 15 13  1  0  0  0  0
 16  8  1  0  0  0  0
 16 14  1  0  0  0  0
 17  5  1  0  0  0  0
 17 33  1  0  0  0  0
 17 34  1  0  0  0  0
 18  4  1  0  0  0  0
 18 35  1  0  0  0  0
 18 36  1  0  0  0  0
 19  6  1  0  0  0  0
 19 37  1  0  0  0  0
 20  7  1  0  0  0  0
 20 38  1  0  0  0  0
 21 11  1  0  0  0  0
 21 17  1  0  0  0  0
 21 39  1  0  0  0  0
 21 40  1  0  0  0  0
 22 10  1  0  0  0  0
 22 18  1  0  0  0  0
 22 41  1  0  0  0  0
 22 42  1  0  0  0  0
 23 19  2  0  0  0  0
 23 43  1  0  0  0  0
 24 20  2  0  0  0  0
 24 44  1  0  0  0  0
 25 15  2  0  0  0  0
 25 24  1  0  0  0  0
 25 45  1  0  0  0  0
 26 16  2  0  0  0  0
 26 23  1  0  0  0  0
 26 46  1  0  0  0  0
M  END
>  <DRUGBANK_ID>
DB11521

>  <COMMON_NAME>
Imidocarb

>  <CAS_NUMBER>
27885-92-3

>  <UNII>
8USS3K0VDH

>  <SYNONYMS>
1,3-Bis(3-(2-imidazolin-2-yl)phenyl)harnstoff; 1,3-bis(3-(2-imidazolin-2-yl)phenyl)urea; Imidocarb; Imidocarbe; Imidocarbo; Imidocarbum; N,N'-bis(3-(4,5-dihydro-1H-imidazol-2-yl)phenyl)urea

$$$$
