
 OpenBabel10282417072D

 66 69  0  0  0  0  0  0  0  0999 V2000
   -0.1876    1.5150    0.0000 C   0  0  0  0  0  0  0  0  0  0  0  0
    7.8592   -2.8875    0.0000 C   0  0  0  0  0  0  0  0  0  0  0  0
   -4.4816    2.8687    0.0000 C   0  0  0  0  0  0  0  0  0  0  0  0
   -4.1461    2.1150    0.0000 C   0  0  0  0  0  0  0  0  0  0  0  0
   -3.9967    3.5361    0.0000 C   0  0  0  0  0  0  0  0  0  0  0  0
   -3.3256    2.0288    0.0000 C   0  0  0  0  0  0  0  0  0  0  0  0
   -3.1762    3.4499    0.0000 C   0  0  0  0  0  0  0  0  0  0  0  0
    3.5724    2.8875    0.0000 C   0  0  0  0  0  0  0  0  0  0  0  0
    2.8579    1.6500    0.0000 C   0  0  0  0  0  0  0  0  0  0  0  0
    2.8579    3.3000    0.0000 C   0  0  0  0  0  0  0  0  0  0  0  0
    2.1434    2.0625    0.0000 C   0  0  0  0  0  0  0  0  0  0  0  0
    7.1447   -0.8250    0.0000 C   0  0  0  0  0  0  0  0  0  0  0  0
    6.4302   -2.0625    0.0000 C   0  0  0  0  0  0  0  0  0  0  0  0
    6.4302   -0.4125    0.0000 C   0  0  0  0  0  0  0  0  0  0  0  0
    5.7158   -1.6500    0.0000 C   0  0  0  0  0  0  0  0  0  0  0  0
   -0.0000    3.3000    0.0000 C   0  0  0  0  0  0  0  0  0  0  0  0
    0.7145    2.8875    0.0000 C   0  0  0  0  0  0  0  0  0  0  0  0
    4.2868    1.6500    0.0000 C   0  0  0  0  0  0  0  0  0  0  0  0
    3.5724    0.4125    0.0000 C   0  0  0  0  0  0  0  0  0  0  0  0
   -0.8007    2.0670    0.0000 C   0  0  0  0  0  0  0  0  0  0  0  0
    3.5724    2.0625    0.0000 C   0  0  0  0  0  0  0  0  0  0  0  0
   -2.8407    2.6962    0.0000 C   0  0  0  0  0  0  0  0  0  0  0  0
    7.1447   -1.6500    0.0000 C   0  0  0  0  0  0  0  0  0  0  0  0
    2.1434    2.8875    0.0000 C   0  0  0  0  0  0  0  0  0  0  0  0
    5.7158   -0.8250    0.0000 C   0  0  0  0  0  0  0  0  0  0  0  0
   -0.7145    2.8875    0.0000 C   0  0  0  0  0  0  0  0  0  0  0  0
    3.5724   -0.4125    0.0000 C   0  0  0  0  0  0  0  0  0  0  0  0
   -2.0202    2.6100    0.0000 C   0  0  0  0  0  0  0  0  0  0  0  0
    5.0013    0.4125    0.0000 C   0  0  0  0  0  0  0  0  0  0  0  0
   -1.4681    3.2231    0.0000 N   0  0  0  0  0  0  0  0  0  0  0  0
    4.2868    0.8250    0.0000 N   0  0  0  0  0  0  0  0  0  0  0  0
    4.2868   -0.8250    0.0000 O   0  0  0  0  0  0  0  0  0  0  0  0
    2.8579   -0.8250    0.0000 O   0  0  0  0  0  0  0  0  0  0  0  0
    5.7158    0.8250    0.0000 O   0  0  0  0  0  0  0  0  0  0  0  0
    7.8592   -2.0625    0.0000 O   0  0  0  0  0  0  0  0  0  0  0  0
    1.4289    3.3000    0.0000 O   0  0  0  0  0  0  0  0  0  0  0  0
   -1.6077    1.8955    0.0000 O   0  0  0  0  0  0  0  0  0  0  0  0
    5.0013   -0.4125    0.0000 O   0  0  0  0  0  0  0  0  0  0  0  0
   -0.4100    0.4684    0.0000 H   0  0  0  0  0  0  0  0  0  0  0  0
    0.8300    1.8457    0.0000 H   0  0  0  0  0  0  0  0  0  0  0  0
    0.6076    0.7991    0.0000 H   0  0  0  0  0  0  0  0  0  0  0  0
    6.9326   -3.4225    0.0000 H   0  0  0  0  0  0  0  0  0  0  0  0
    8.7858   -3.4225    0.0000 H   0  0  0  0  0  0  0  0  0  0  0  0
    7.8592   -3.9575    0.0000 H   0  0  0  0  0  0  0  0  0  0  0  0
   -5.5079    2.9766    0.0000 H   0  0  0  0  0  0  0  0  0  0  0  0
   -4.7527    1.2801    0.0000 H   0  0  0  0  0  0  0  0  0  0  0  0
   -4.4165    4.4789    0.0000 H   0  0  0  0  0  0  0  0  0  0  0  0
   -2.9058    1.0860    0.0000 H   0  0  0  0  0  0  0  0  0  0  0  0
   -2.5696    4.2848    0.0000 H   0  0  0  0  0  0  0  0  0  0  0  0
    4.4661    3.4035    0.0000 H   0  0  0  0  0  0  0  0  0  0  0  0
    2.8579    0.6180    0.0000 H   0  0  0  0  0  0  0  0  0  0  0  0
    2.8579    4.3320    0.0000 H   0  0  0  0  0  0  0  0  0  0  0  0
    1.2497    1.5465    0.0000 H   0  0  0  0  0  0  0  0  0  0  0  0
    8.0384   -0.3090    0.0000 H   0  0  0  0  0  0  0  0  0  0  0  0
    6.4302   -3.0945    0.0000 H   0  0  0  0  0  0  0  0  0  0  0  0
    6.4302    0.6195    0.0000 H   0  0  0  0  0  0  0  0  0  0  0  0
    4.8221   -2.1660    0.0000 H   0  0  0  0  0  0  0  0  0  0  0  0
    0.0000    4.3700    0.0000 H   0  0  0  0  0  0  0  0  0  0  0  0
   -0.9266    3.8350    0.0000 H   0  0  0  0  0  0  0  0  0  0  0  0
    0.7145    1.8175    0.0000 H   0  0  0  0  0  0  0  0  0  0  0  0
    1.6412    2.3525    0.0000 H   0  0  0  0  0  0  0  0  0  0  0  0
    5.2135    2.1850    0.0000 H   0  0  0  0  0  0  0  0  0  0  0  0
    5.2134    1.1150    0.0000 H   0  0  0  0  0  0  0  0  0  0  0  0
    2.6457    0.9475    0.0000 H   0  0  0  0  0  0  0  0  0  0  0  0
    3.5724    1.4825    0.0000 H   0  0  0  0  0  0  0  0  0  0  0  0
    2.0464   -0.3565    0.0000 H   0  0  0  0  0  0  0  0  0  0  0  0
  1 39  1  0  0  0  0
  1 40  1  0  0  0  0
  1 41  1  0  0  0  0
  2 42  1  0  0  0  0
  2 43  1  0  0  0  0
  2 44  1  0  0  0  0
  3 45  1  0  0  0  0
  4  3  2  0  0  0  0
  4 46  1  0  0  0  0
  5  3  1  0  0  0  0
  5 47  1  0  0  0  0
  6  4  1  0  0  0  0
  6 48  1  0  0  0  0
  7  5  2  0  0  0  0
  7 49  1  0  0  0  0
  8 50  1  0  0  0  0
  9 51  1  0  0  0  0
 10  8  1  0  0  0  0
 10 52  1  0  0  0  0
 11  9  2  0  0  0  0
 11 53  1  0  0  0  0
 12 54  1  0  0  0  0
 13 55  1  0  0  0  0
 14 12  1  0  0  0  0
 14 56  1  0  0  0  0
 15 13  2  0  0  0  0
 15 57  1  0  0  0  0
 16 58  1  0  0  0  0
 16 59  1  0  0  0  0
 17 16  1  0  0  0  0
 17 60  1  0  0  0  0
 17 61  1  0  0  0  0
 18 62  1  0  0  0  0
 18 63  1  0  0  0  0
 19 64  1  0  0  0  0
 19 65  1  0  0  0  0
 20  1  1  0  0  0  0
 21  8  2  0  0  0  0
 21  9  1  0  0  0  0
 21 18  1  0  0  0  0
 22  6  2  0  0  0  0
 22  7  1  0  0  0  0
 23 12  2  0  0  0  0
 23 13  1  0  0  0  0
 24 10  2  0  0  0  0
 24 11  1  0  0  0  0
 25 14  2  0  0  0  0
 25 15  1  0  0  0  0
 26 16  1  0  0  0  0
 26 20  2  0  0  0  0
 27 19  1  0  0  0  0
 28 22  1  0  0  0  0
 30 26  1  0  0  0  0
 30 28  2  0  0  0  0
 31 18  1  0  0  0  0
 31 19  1  0  0  0  0
 31 29  1  0  0  0  0
 32 27  2  0  0  0  0
 33 27  1  0  0  0  0
 33 66  1  0  0  0  0
 34 29  2  0  0  0  0
 35  2  1  0  0  0  0
 35 23  1  0  0  0  0
 36 17  1  0  0  0  0
 36 24  1  0  0  0  0
 37 20  1  0  0  0  0
 37 28  1  0  0  0  0
 38 25  1  0  0  0  0
 38 29  1  0  0  0  0
M  END
>  <DRUGBANK_ID>
DB06510

>  <COMMON_NAME>
Muraglitazar

>  <CAS_NUMBER>
331741-94-7

>  <UNII>
W1MKM70WQI

>  <SYNONYMS>
Muraglitazar

$$$$
