
 OpenBabel10282417072D

 37 38  0  0  0  0  0  0  0  0999 V2000
   -3.5724   -0.4125    0.0000 C   0  0  0  0  0  0  0  0  0  0  0  0
   -2.8579    0.0000    0.0000 C   0  0  0  0  0  0  0  0  0  0  0  0
   -2.1434   -0.4125    0.0000 O   0  0  0  0  0  0  0  0  0  0  0  0
   -1.4289    0.0000    0.0000 C   0  0  0  0  0  0  0  0  0  0  0  0
   -1.4289    0.8250    0.0000 O   0  0  0  0  0  0  0  0  0  0  0  0
   -0.7145   -0.4125    0.0000 C   0  0  0  0  0  0  0  0  0  0  0  0
   -0.7145   -1.2375    0.0000 C   0  0  0  0  0  0  0  0  0  0  0  0
    0.0000   -1.6500    0.0000 N   0  3  0  0  0  0  0  0  0  0  0  0
    0.7145   -1.2375    0.0000 C   0  0  0  0  0  0  0  0  0  0  0  0
    0.7145   -0.4125    0.0000 N   0  0  0  0  0  0  0  0  0  0  0  0
    0.0000   -0.0000    0.0000 C   0  0  0  0  0  0  0  0  0  0  0  0
    0.0000    0.8250    0.0000 O   0  0  0  0  0  0  0  0  0  0  0  0
    1.4289   -0.0000    0.0000 C   0  0  3  0  0  0  0  0  0  0  0  0
    2.1434   -0.4125    0.0000 C   0  0  0  0  0  0  0  0  0  0  0  0
    2.1434   -1.2375    0.0000 C   0  0  0  0  0  0  0  0  0  0  0  0
    1.4289   -1.6500    0.0000 C   0  0  0  0  0  0  0  0  0  0  0  0
    1.4289    0.8250    0.0000 C   0  0  0  0  0  0  0  0  0  0  0  0
    0.0000   -2.4750    0.0000 C   0  0  0  0  0  0  0  0  0  0  0  0
   -4.4990    0.1225    0.0000 H   0  0  0  0  0  0  0  0  0  0  0  0
   -3.5724   -1.4825    0.0000 H   0  0  0  0  0  0  0  0  0  0  0  0
   -4.4991   -0.9475    0.0000 H   0  0  0  0  0  0  0  0  0  0  0  0
   -2.8579    1.0700    0.0000 H   0  0  0  0  0  0  0  0  0  0  0  0
   -1.9313    0.5350    0.0000 H   0  0  0  0  0  0  0  0  0  0  0  0
   -1.6082   -1.7535    0.0000 H   0  0  0  0  0  0  0  0  0  0  0  0
    1.4289   -1.0700    0.0000 H   0  0  0  0  0  0  0  0  0  0  0  0
    3.0700    0.1225    0.0000 H   0  0  0  0  0  0  0  0  0  0  0  0
    3.0700   -0.9475    0.0000 H   0  0  0  0  0  0  0  0  0  0  0  0
    3.0700   -1.7725    0.0000 H   0  0  0  0  0  0  0  0  0  0  0  0
    2.1434   -2.3075    0.0000 H   0  0  0  0  0  0  0  0  0  0  0  0
    1.4289   -2.7200    0.0000 H   0  0  0  0  0  0  0  0  0  0  0  0
    0.5022   -2.1850    0.0000 H   0  0  0  0  0  0  0  0  0  0  0  0
    2.3555    1.3600    0.0000 H   0  0  0  0  0  0  0  0  0  0  0  0
    0.5023    1.3600    0.0000 H   0  0  0  0  0  0  0  0  0  0  0  0
    1.4289    1.8950    0.0000 H   0  0  0  0  0  0  0  0  0  0  0  0
   -0.9266   -3.0100    0.0000 H   0  0  0  0  0  0  0  0  0  0  0  0
    0.9266   -3.0100    0.0000 H   0  0  0  0  0  0  0  0  0  0  0  0
    0.0000   -3.5450    0.0000 H   0  0  0  0  0  0  0  0  0  0  0  0
  1  2  1  0  0  0  0
  1 19  1  0  0  0  0
  1 20  1  0  0  0  0
  1 21  1  0  0  0  0
  2  3  1  0  0  0  0
  2 22  1  0  0  0  0
  2 23  1  0  0  0  0
  3  4  1  0  0  0  0
  4  5  2  0  0  0  0
  4  6  1  0  0  0  0
  6  7  2  0  0  0  0
  6 11  1  0  0  0  0
  7  8  1  0  0  0  0
  7 24  1  0  0  0  0
  8  9  2  0  0  0  0
  8 18  1  0  0  0  0
  9 10  1  0  0  0  0
  9 16  1  0  0  0  0
 10 11  1  0  0  0  0
 10 13  1  0  0  0  0
 11 12  2  0  0  0  0
 13 14  1  0  0  0  0
 13 17  1  0  0  0  0
 13 25  1  0  0  0  0
 14 15  1  0  0  0  0
 14 26  1  0  0  0  0
 14 27  1  0  0  0  0
 15 16  1  0  0  0  0
 15 28  1  0  0  0  0
 15 29  1  0  0  0  0
 16 30  1  0  0  0  0
 16 31  1  0  0  0  0
 17 32  1  0  0  0  0
 17 33  1  0  0  0  0
 17 34  1  0  0  0  0
 18 35  1  0  0  0  0
 18 36  1  0  0  0  0
 18 37  1  0  0  0  0
M  CHG  1   8   1
M  END
>  <DRUGBANK_ID>
DB13289

>  <COMMON_NAME>
Rimazolium

>  <CAS_NUMBER>
35615-72-6

>  <UNII>
967Y95129A

$$$$
