
 OpenBabel10282417072D

 51 49  0  0  0  0  0  0  0  0999 V2000
    0.5554    0.1380    0.0000 C   0  0  0  0  0  0  0  0  0  0  0  0
    0.1429    0.8525    0.0000 C   0  0  0  0  0  0  0  0  0  0  0  0
   -0.2696    1.5670    0.0000 C   0  0  0  0  0  0  0  0  0  0  0  0
    0.8574    1.2650    0.0000 C   0  0  0  0  0  0  0  0  0  0  0  0
    1.5718    0.8525    0.0000 O   0  0  0  0  0  0  0  0  0  0  0  0
    0.8574    2.0900    0.0000 O   0  5  0  0  0  0  0  0  0  0  0  0
   -0.5716    0.4400    0.0000 O   0  0  0  0  0  0  0  0  0  0  0  0
   -0.5716   -0.3850    0.0000 C   0  0  0  0  0  0  0  0  0  0  0  0
    0.1429   -0.7975    0.0000 C   0  0  0  0  0  0  0  0  0  0  0  0
    0.1429   -1.6225    0.0000 C   0  0  0  0  0  0  0  0  0  0  0  0
   -0.5716   -2.0350    0.0000 C   0  0  0  0  0  0  0  0  0  0  0  0
   -1.2860   -1.6225    0.0000 C   0  0  0  0  0  0  0  0  0  0  0  0
   -1.2860   -0.7975    0.0000 C   0  0  0  0  0  0  0  0  0  0  0  0
   -0.5716   -2.8600    0.0000 Cl  0  0  0  0  0  0  0  0  0  0  0  0
    4.8276    0.3462    0.0000 C   0  0  0  0  0  0  0  0  0  0  0  0
    5.2401    1.0607    0.0000 C   0  0  0  0  0  0  0  0  0  0  0  0
    5.6526    1.7752    0.0000 C   0  0  0  0  0  0  0  0  0  0  0  0
    4.5256    1.4732    0.0000 C   0  0  0  0  0  0  0  0  0  0  0  0
    4.5256    2.2982    0.0000 O   0  0  0  0  0  0  0  0  0  0  0  0
    3.8111    1.0607    0.0000 O   0  5  0  0  0  0  0  0  0  0  0  0
    5.9545    0.6482    0.0000 O   0  0  0  0  0  0  0  0  0  0  0  0
    5.9545   -0.1768    0.0000 C   0  0  0  0  0  0  0  0  0  0  0  0
    6.6690   -0.5893    0.0000 C   0  0  0  0  0  0  0  0  0  0  0  0
    6.6690   -1.4143    0.0000 C   0  0  0  0  0  0  0  0  0  0  0  0
    5.9545   -1.8268    0.0000 C   0  0  0  0  0  0  0  0  0  0  0  0
    5.2401   -1.4143    0.0000 C   0  0  0  0  0  0  0  0  0  0  0  0
    5.2401   -0.5893    0.0000 C   0  0  0  0  0  0  0  0  0  0  0  0
    5.9545   -2.6518    0.0000 Cl  0  0  0  0  0  0  0  0  0  0  0  0
    0.0000   -4.5100    0.0000 O   0  5  0  0  0  0  0  0  0  0  0  0
    0.8574    2.9150    0.0000 Al  0  1  0  0  0  0  0  0  0  0  0  0
    0.0204   -0.7886    0.0000 H   0  0  0  0  0  0  0  0  0  0  0  0
    1.6254    0.1380    0.0000 H   0  0  0  0  0  0  0  0  0  0  0  0
    1.0904   -0.7887    0.0000 H   0  0  0  0  0  0  0  0  0  0  0  0
    0.2654    2.4936    0.0000 H   0  0  0  0  0  0  0  0  0  0  0  0
   -1.3396    1.5670    0.0000 H   0  0  0  0  0  0  0  0  0  0  0  0
   -0.8046    2.4937    0.0000 H   0  0  0  0  0  0  0  0  0  0  0  0
    1.0366   -0.2815    0.0000 H   0  0  0  0  0  0  0  0  0  0  0  0
    1.0366   -2.1385    0.0000 H   0  0  0  0  0  0  0  0  0  0  0  0
   -2.1797   -2.1385    0.0000 H   0  0  0  0  0  0  0  0  0  0  0  0
   -2.1797   -0.2815    0.0000 H   0  0  0  0  0  0  0  0  0  0  0  0
    3.7576    0.3462    0.0000 H   0  0  0  0  0  0  0  0  0  0  0  0
    5.3626   -0.5804    0.0000 H   0  0  0  0  0  0  0  0  0  0  0  0
    4.2926   -0.5805    0.0000 H   0  0  0  0  0  0  0  0  0  0  0  0
    6.7226    1.7752    0.0000 H   0  0  0  0  0  0  0  0  0  0  0  0
    5.1176    2.7018    0.0000 H   0  0  0  0  0  0  0  0  0  0  0  0
    6.1876    2.7019    0.0000 H   0  0  0  0  0  0  0  0  0  0  0  0
    7.5627   -0.0733    0.0000 H   0  0  0  0  0  0  0  0  0  0  0  0
    7.5627   -1.9303    0.0000 H   0  0  0  0  0  0  0  0  0  0  0  0
    4.3464   -1.9303    0.0000 H   0  0  0  0  0  0  0  0  0  0  0  0
    4.3464   -0.0733    0.0000 H   0  0  0  0  0  0  0  0  0  0  0  0
    0.9700   -4.5100    0.0000 H   0  0  0  0  0  0  0  0  0  0  0  0
  1  2  1  0  0  0  0
  1 31  1  0  0  0  0
  1 32  1  0  0  0  0
  1 33  1  0  0  0  0
  2  3  1  0  0  0  0
  2  4  1  0  0  0  0
  2  7  1  0  0  0  0
  3 34  1  0  0  0  0
  3 35  1  0  0  0  0
  3 36  1  0  0  0  0
  4  5  2  0  0  0  0
  4  6  1  0  0  0  0
  7  8  1  0  0  0  0
  8  9  2  0  0  0  0
  8 13  1  0  0  0  0
  9 10  1  0  0  0  0
  9 37  1  0  0  0  0
 10 11  2  0  0  0  0
 10 38  1  0  0  0  0
 11 12  1  0  0  0  0
 11 14  1  0  0  0  0
 12 13  2  0  0  0  0
 12 39  1  0  0  0  0
 13 40  1  0  0  0  0
 15 16  1  0  0  0  0
 15 41  1  0  0  0  0
 15 42  1  0  0  0  0
 15 43  1  0  0  0  0
 16 17  1  0  0  0  0
 16 18  1  0  0  0  0
 16 21  1  0  0  0  0
 17 44  1  0  0  0  0
 17 45  1  0  0  0  0
 17 46  1  0  0  0  0
 18 19  2  0  0  0  0
 18 20  1  0  0  0  0
 21 22  1  0  0  0  0
 22 23  2  0  0  0  0
 22 27  1  0  0  0  0
 23 24  1  0  0  0  0
 23 47  1  0  0  0  0
 24 25  2  0  0  0  0
 24 48  1  0  0  0  0
 25 26  1  0  0  0  0
 25 28  1  0  0  0  0
 26 27  2  0  0  0  0
 26 49  1  0  0  0  0
 27 50  1  0  0  0  0
 29 51  1  0  0  0  0
M  CHG  4   6  -1  20  -1  29  -1  30   3
M  END
>  <DRUGBANK_ID>
DB13780

>  <COMMON_NAME>
Aluminium clofibrate

>  <CAS_NUMBER>
24818-79-9

>  <UNII>
56203T2K2X

>  <SYNONYMS>
Aluminium clofibrate; Aluminum clofibrate

$$$$
