
 OpenBabel10282417072D

118120  0  0  0  0  0  0  0  0999 V2000
   -5.9517   -7.4109    0.0000 S   0  0  0  0  0  0  0  0  0  0  0  0
   -2.7707   -4.5368    0.0000 S   0  0  0  0  0  0  0  0  0  0  0  0
    8.1396    3.0372    0.0000 P   0  0  0  0  0  0  0  0  0  0  0  0
    5.4580    2.3423    0.0000 P   0  0  3  0  0  0  0  0  0  0  0  0
    4.3977    1.3843    0.0000 P   0  0  3  0  0  0  0  0  0  0  0  0
    6.2858    4.7520    0.0000 O   0  0  0  0  0  0  0  0  0  0  0  0
    8.2244    3.8579    0.0000 O   0  0  0  0  0  0  0  0  0  0  0  0
    8.2213    5.6529    0.0000 O   0  0  0  0  0  0  0  0  0  0  0  0
    5.7117    3.1273    0.0000 O   0  0  0  0  0  0  0  0  0  0  0  0
    8.0548    2.2165    0.0000 O   0  0  0  0  0  0  0  0  0  0  0  0
    8.9603    2.9524    0.0000 O   0  0  0  0  0  0  0  0  0  0  0  0
    7.3190    3.1221    0.0000 O   0  0  0  0  0  0  0  0  0  0  0  0
    5.2044    1.5572    0.0000 O   0  0  0  0  0  0  0  0  0  0  0  0
    4.6729    2.5959    0.0000 O   0  0  0  0  0  0  0  0  0  0  0  0
    6.2431    2.0887    0.0000 O   0  0  0  0  0  0  0  0  0  0  0  0
    3.5910    1.2114    0.0000 O   0  0  0  0  0  0  0  0  0  0  0  0
    4.5707    0.5775    0.0000 O   0  0  0  0  0  0  0  0  0  0  0  0
    4.2248    2.1909    0.0000 O   0  0  0  0  0  0  0  0  0  0  0  0
    1.1709    0.6924    0.0000 O   0  0  0  0  0  0  0  0  0  0  0  0
    2.0235   -1.3168    0.0000 O   0  0  0  0  0  0  0  0  0  0  0  0
   -0.0970   -3.2329    0.0000 O   0  0  0  0  0  0  0  0  0  0  0  0
   -7.8186   -8.5418    0.0000 O   0  0  0  0  0  0  0  0  0  0  0  0
   -4.1306   -4.0975    0.0000 O   0  0  0  0  0  0  0  0  0  0  0  0
    6.5133    6.2046    0.0000 N   0  3  0  0  0  0  0  0  0  0  0  0
    6.5133    7.5325    0.0000 N   0  0  0  0  0  0  0  0  0  0  0  0
    5.0181    6.0434    0.0000 N   0  0  0  0  0  0  0  0  0  0  0  0
    4.3037    7.2810    0.0000 N   0  0  0  0  0  0  0  0  0  0  0  0
    5.0181    8.5185    0.0000 N   0  0  0  0  0  0  0  0  0  0  0  0
    0.6637   -0.8776    0.0000 N   0  0  0  0  0  0  0  0  0  0  0  0
   -1.4568   -2.7936    0.0000 N   0  0  0  0  0  0  0  0  0  0  0  0
    7.5562    4.3417    0.0000 C   0  0  1  0  0  0  0  0  0  0  0  0
    7.5547    5.1667    0.0000 C   0  0  2  0  0  0  0  0  0  0  0  0
    6.7696    5.4203    0.0000 C   0  0  1  0  0  0  0  0  0  0  0  0
    6.7719    4.0854    0.0000 C   0  0  1  0  0  0  0  0  0  0  0  0
    6.5183    3.3003    0.0000 C   0  0  0  0  0  0  0  0  0  0  0  0
    5.7327    6.4559    0.0000 C   0  0  0  0  0  0  0  0  0  0  0  0
    6.9948    6.8684    0.0000 C   0  0  0  0  0  0  0  0  0  0  0  0
    5.7327    7.2810    0.0000 C   0  0  0  0  0  0  0  0  0  0  0  0
    5.0181    7.6935    0.0000 C   0  0  0  0  0  0  0  0  0  0  0  0
    4.3037    6.4559    0.0000 C   0  0  0  0  0  0  0  0  0  0  0  0
    2.5307    0.2533    0.0000 C   0  0  0  0  0  0  0  0  0  0  0  0
    3.3374    0.4262    0.0000 C   0  0  0  0  0  0  0  0  0  0  0  0
    1.7240    0.0804    0.0000 C   0  0  0  0  0  0  0  0  0  0  0  0
    2.7037   -0.5533    0.0000 C   0  0  0  0  0  0  0  0  0  0  0  0
    2.3578    1.0600    0.0000 C   0  0  0  0  0  0  0  0  0  0  0  0
    1.4704   -0.7046    0.0000 C   0  0  1  0  0  0  0  0  0  0  0  0
   -6.2511   -6.0136    0.0000 C   0  0  0  0  0  0  0  0  0  0  0  0
   -5.6981   -6.6257    0.0000 C   0  0  1  0  0  0  0  0  0  0  0  0
   -7.0579   -6.1865    0.0000 C   0  0  0  0  0  0  0  0  0  0  0  0
   -7.6110   -5.5744    0.0000 C   0  0  0  0  0  0  0  0  0  0  0  0
    0.4101   -1.6626    0.0000 C   0  0  0  0  0  0  0  0  0  0  0  0
   -4.8913   -6.4528    0.0000 C   0  0  0  0  0  0  0  0  0  0  0  0
   -8.4176   -5.7473    0.0000 C   0  0  0  0  0  0  0  0  0  0  0  0
   -0.3965   -1.8356    0.0000 C   0  0  0  0  0  0  0  0  0  0  0  0
   -4.6377   -5.6677    0.0000 C   0  0  0  0  0  0  0  0  0  0  0  0
   -8.9708   -5.1350    0.0000 C   0  0  0  0  0  0  0  0  0  0  0  0
   -0.6501   -2.6207    0.0000 C   0  0  0  0  0  0  0  0  0  0  0  0
   -6.7583   -7.5838    0.0000 C   0  0  0  0  0  0  0  0  0  0  0  0
   -3.8309   -5.4948    0.0000 C   0  0  0  0  0  0  0  0  0  0  0  0
   -1.7104   -3.5787    0.0000 C   0  0  0  0  0  0  0  0  0  0  0  0
   -2.5171   -3.7516    0.0000 C   0  0  0  0  0  0  0  0  0  0  0  0
   -7.0119   -8.3688    0.0000 C   0  0  0  0  0  0  0  0  0  0  0  0
   -3.5774   -4.7097    0.0000 C   0  0  0  0  0  0  0  0  0  0  0  0
    9.1082    5.2600    0.0000 H   0  0  0  0  0  0  0  0  0  0  0  0
    7.1694    1.8204    0.0000 H   0  0  0  0  0  0  0  0  0  0  0  0
    9.3564    2.0670    0.0000 H   0  0  0  0  0  0  0  0  0  0  0  0
    4.4696    3.5444    0.0000 H   0  0  0  0  0  0  0  0  0  0  0  0
    3.8510   -0.0728    0.0000 H   0  0  0  0  0  0  0  0  0  0  0  0
    1.7253   -2.2398    0.0000 H   0  0  0  0  0  0  0  0  0  0  0  0
    6.8191    8.4683    0.0000 H   0  0  0  0  0  0  0  0  0  0  0  0
    5.8707    9.0107    0.0000 H   0  0  0  0  0  0  0  0  0  0  0  0
    4.1655    9.0107    0.0000 H   0  0  0  0  0  0  0  0  0  0  0  0
   -0.0201   -0.1208    0.0000 H   0  0  0  0  0  0  0  0  0  0  0  0
   -2.1168   -2.0631    0.0000 H   0  0  0  0  0  0  0  0  0  0  0  0
    8.5087    4.8291    0.0000 H   0  0  0  0  0  0  0  0  0  0  0  0
    8.5090    4.6827    0.0000 H   0  0  0  0  0  0  0  0  0  0  0  0
    5.7125    5.5859    0.0000 H   0  0  0  0  0  0  0  0  0  0  0  0
    5.7154    3.9162    0.0000 H   0  0  0  0  0  0  0  0  0  0  0  0
    7.2357    2.5064    0.0000 H   0  0  0  0  0  0  0  0  0  0  0  0
    7.5645    3.5246    0.0000 H   0  0  0  0  0  0  0  0  0  0  0  0
    8.0268    6.8683    0.0000 H   0  0  0  0  0  0  0  0  0  0  0  0
    3.4100    5.9399    0.0000 H   0  0  0  0  0  0  0  0  0  0  0  0
    4.0547   -0.3677    0.0000 H   0  0  0  0  0  0  0  0  0  0  0  0
    3.0085   -0.5920    0.0000 H   0  0  0  0  0  0  0  0  0  0  0  0
    1.9099   -1.2707    0.0000 H   0  0  0  0  0  0  0  0  0  0  0  0
    3.7219   -0.8821    0.0000 H   0  0  0  0  0  0  0  0  0  0  0  0
    2.9281   -1.5995    0.0000 H   0  0  0  0  0  0  0  0  0  0  0  0
    3.1517    1.7773    0.0000 H   0  0  0  0  0  0  0  0  0  0  0  0
    1.3396    1.3889    0.0000 H   0  0  0  0  0  0  0  0  0  0  0  0
    2.1336    2.1062    0.0000 H   0  0  0  0  0  0  0  0  0  0  0  0
    1.1415   -1.7228    0.0000 H   0  0  0  0  0  0  0  0  0  0  0  0
   -5.9222   -4.9954    0.0000 H   0  0  0  0  0  0  0  0  0  0  0  0
   -6.9684   -5.2196    0.0000 H   0  0  0  0  0  0  0  0  0  0  0  0
   -6.7443   -6.8500    0.0000 H   0  0  0  0  0  0  0  0  0  0  0  0
   -7.3868   -7.2047    0.0000 H   0  0  0  0  0  0  0  0  0  0  0  0
   -8.1041   -6.4108    0.0000 H   0  0  0  0  0  0  0  0  0  0  0  0
   -7.2821   -4.5562    0.0000 H   0  0  0  0  0  0  0  0  0  0  0  0
   -8.3283   -4.7805    0.0000 H   0  0  0  0  0  0  0  0  0  0  0  0
    1.1275   -2.4565    0.0000 H   0  0  0  0  0  0  0  0  0  0  0  0
    0.0813   -2.6808    0.0000 H   0  0  0  0  0  0  0  0  0  0  0  0
   -4.1740   -7.2467    0.0000 H   0  0  0  0  0  0  0  0  0  0  0  0
   -3.8451   -6.2285    0.0000 H   0  0  0  0  0  0  0  0  0  0  0  0
   -8.7465   -6.7655    0.0000 H   0  0  0  0  0  0  0  0  0  0  0  0
   -9.4638   -5.9715    0.0000 H   0  0  0  0  0  0  0  0  0  0  0  0
   -1.1139   -1.0417    0.0000 H   0  0  0  0  0  0  0  0  0  0  0  0
   -1.4427   -2.0599    0.0000 H   0  0  0  0  0  0  0  0  0  0  0  0
   -5.3295   -4.9019    0.0000 H   0  0  0  0  0  0  0  0  0  0  0  0
   -8.6419   -4.1168    0.0000 H   0  0  0  0  0  0  0  0  0  0  0  0
  -10.0170   -5.3592    0.0000 H   0  0  0  0  0  0  0  0  0  0  0  0
   -9.6881   -4.3411    0.0000 H   0  0  0  0  0  0  0  0  0  0  0  0
   -7.4756   -6.7899    0.0000 H   0  0  0  0  0  0  0  0  0  0  0  0
   -7.8045   -7.8080    0.0000 H   0  0  0  0  0  0  0  0  0  0  0  0
   -3.1390   -6.2605    0.0000 H   0  0  0  0  0  0  0  0  0  0  0  0
   -0.9931   -4.3726    0.0000 H   0  0  0  0  0  0  0  0  0  0  0  0
   -2.0393   -4.5969    0.0000 H   0  0  0  0  0  0  0  0  0  0  0  0
   -3.2344   -2.9577    0.0000 H   0  0  0  0  0  0  0  0  0  0  0  0
   -2.1882   -2.7334    0.0000 H   0  0  0  0  0  0  0  0  0  0  0  0
   -6.3200   -9.1345    0.0000 H   0  0  0  0  0  0  0  0  0  0  0  0
  1 58  1  0  0  0  0
  2 61  1  0  0  0  0
  2 63  1  0  0  0  0
  3  7  1  0  0  0  0
  3 10  1  0  0  0  0
  3 11  1  0  0  0  0
  3 12  2  0  0  0  0
  4  9  1  0  0  0  0
  4 13  1  0  0  0  0
  4 14  1  0  0  0  0
  4 15  2  0  0  0  0
  5 13  1  0  0  0  0
  5 16  1  0  0  0  0
  5 17  1  0  0  0  0
  5 18  2  0  0  0  0
  6 33  1  0  0  0  0
  6 34  1  0  0  0  0
  8 64  1  0  0  0  0
  9 35  1  0  0  0  0
 10 65  1  0  0  0  0
 11 66  1  0  0  0  0
 14 67  1  0  0  0  0
 16 42  1  0  0  0  0
 17 68  1  0  0  0  0
 19 43  2  0  0  0  0
 20 69  1  0  0  0  0
 21 57  2  0  0  0  0
 22 62  2  0  0  0  0
 23 63  2  0  0  0  0
 24 36  1  0  0  0  0
 24 37  2  0  0  0  0
 25 37  1  0  0  0  0
 25 38  1  0  0  0  0
 25 70  1  0  0  0  0
 26 36  2  0  0  0  0
 26 40  1  0  0  0  0
 27 39  1  0  0  0  0
 27 40  2  0  0  0  0
 28 39  1  0  0  0  0
 28 71  1  0  0  0  0
 28 72  1  0  0  0  0
 29 46  1  0  0  0  0
 29 51  1  0  0  0  0
 29 73  1  0  0  0  0
 30 57  1  0  0  0  0
 30 60  1  0  0  0  0
 30 74  1  0  0  0  0
 31  7  1  0  0  0  0
 31 32  1  0  0  0  0
 31 34  1  0  0  0  0
 31 75  1  1  0  0  0
 32  8  1  0  0  0  0
 32 33  1  0  0  0  0
 32 76  1  1  0  0  0
 33 24  1  0  0  0  0
 33 77  1  6  0  0  0
 34 35  1  0  0  0  0
 34 78  1  6  0  0  0
 35 79  1  0  0  0  0
 35 80  1  0  0  0  0
 36 38  1  0  0  0  0
 37 81  1  0  0  0  0
 38 39  2  0  0  0  0
 40 82  1  0  0  0  0
 41 42  1  0  0  0  0
 41 43  1  0  0  0  0
 41 44  1  0  0  0  0
 41 45  1  0  0  0  0
 42 83  1  0  0  0  0
 42 84  1  0  0  0  0
 43 46  1  0  0  0  0
 44 85  1  0  0  0  0
 44 86  1  0  0  0  0
 44 87  1  0  0  0  0
 45 88  1  0  0  0  0
 45 89  1  0  0  0  0
 45 90  1  0  0  0  0
 46 20  1  0  0  0  0
 46 91  1  6  0  0  0
 47 49  1  0  0  0  0
 47 92  1  0  0  0  0
 47 93  1  0  0  0  0
 48  1  1  0  0  0  0
 48 47  1  0  0  0  0
 48 52  1  0  0  0  0
 48 94  1  6  0  0  0
 49 50  1  0  0  0  0
 49 95  1  0  0  0  0
 49 96  1  0  0  0  0
 50 53  1  0  0  0  0
 50 97  1  0  0  0  0
 50 98  1  0  0  0  0
 51 54  1  0  0  0  0
 51 99  1  0  0  0  0
 51100  1  0  0  0  0
 52 55  1  0  0  0  0
 52101  1  0  0  0  0
 52102  1  0  0  0  0
 53 56  1  0  0  0  0
 53103  1  0  0  0  0
 53104  1  0  0  0  0
 54 57  1  0  0  0  0
 54105  1  0  0  0  0
 54106  1  0  0  0  0
 55 59  2  0  0  0  0
 55107  1  0  0  0  0
 56108  1  0  0  0  0
 56109  1  0  0  0  0
 56110  1  0  0  0  0
 58 62  1  0  0  0  0
 58111  1  0  0  0  0
 58112  1  0  0  0  0
 59 63  1  0  0  0  0
 59113  1  0  0  0  0
 60 61  1  0  0  0  0
 60114  1  0  0  0  0
 60115  1  0  0  0  0
 61116  1  0  0  0  0
 61117  1  0  0  0  0
 62118  1  0  0  0  0
M  CHG  1  24   1
M  END
>  <DRUGBANK_ID>
DB03698

>  <SECONDARY_ACCESSION_NUMBERS>
EXPT02142

>  <COMMON_NAME>
5-Mercaptoethanol-2-decenoyl-coenzyme A

$$$$
