DLG
 OpenBabel10282417072D

 41 41  0  0  0  0  0  0  0  0999 V2000
   -0.9820    0.1327    0.0000 C   0  0  2  0  0  0  0  0  0  0  0  0
   -0.9820   -0.6923    0.0000 C   0  0  1  0  0  0  0  0  0  0  0  0
   -1.6965   -1.1048    0.0000 C   0  0  0  0  0  0  0  0  0  0  0  0
   -2.4110   -0.6923    0.0000 C   0  0  2  0  0  0  0  0  0  0  0  0
   -2.4110    0.1327    0.0000 C   0  0  1  0  0  0  0  0  0  0  0  0
   -3.1254    0.5452    0.0000 C   0  0  0  0  0  0  0  0  0  0  0  0
   -0.2675    0.5452    0.0000 O   0  0  0  0  0  0  0  0  0  0  0  0
   -0.2675   -1.1048    0.0000 O   0  0  0  0  0  0  0  0  0  0  0  0
   -3.1254   -1.1048    0.0000 O   0  0  0  0  0  0  0  0  0  0  0  0
   -1.6965    0.5452    0.0000 O   0  0  0  0  0  0  0  0  0  0  0  0
   -3.1254    1.3702    0.0000 O   0  0  0  0  0  0  0  0  0  0  0  0
    0.4469    0.1327    0.0000 C   0  0  0  0  0  0  0  0  0  0  0  0
    1.1614    0.5452    0.0000 C   0  0  0  0  0  0  0  0  0  0  0  0
    1.8759    0.1327    0.0000 C   0  0  0  0  0  0  0  0  0  0  0  0
    2.5903    0.5452    0.0000 C   0  0  0  0  0  0  0  0  0  0  0  0
    3.3048    0.1327    0.0000 C   0  0  0  0  0  0  0  0  0  0  0  0
    4.0193    0.5452    0.0000 C   0  0  0  0  0  0  0  0  0  0  0  0
   -0.4070    0.0313    0.0000 H   0  0  0  0  0  0  0  0  0  0  0  0
   -0.4070   -0.5909    0.0000 H   0  0  0  0  0  0  0  0  0  0  0  0
   -2.4110   -1.2763    0.0000 H   0  0  0  0  0  0  0  0  0  0  0  0
   -2.9167   -0.1593    0.0000 H   0  0  0  0  0  0  0  0  0  0  0  0
   -1.6965   -2.1748    0.0000 H   0  0  0  0  0  0  0  0  0  0  0  0
   -2.6231   -1.6398    0.0000 H   0  0  0  0  0  0  0  0  0  0  0  0
   -4.0521    0.0102    0.0000 H   0  0  0  0  0  0  0  0  0  0  0  0
   -4.0520    1.0802    0.0000 H   0  0  0  0  0  0  0  0  0  0  0  0
   -0.2675   -2.0748    0.0000 H   0  0  0  0  0  0  0  0  0  0  0  0
   -3.9655   -0.6198    0.0000 H   0  0  0  0  0  0  0  0  0  0  0  0
   -2.2854    1.8552    0.0000 H   0  0  0  0  0  0  0  0  0  0  0  0
    0.4469   -0.9373    0.0000 H   0  0  0  0  0  0  0  0  0  0  0  0
    1.3735   -0.4023    0.0000 H   0  0  0  0  0  0  0  0  0  0  0  0
    1.1614    1.6152    0.0000 H   0  0  0  0  0  0  0  0  0  0  0  0
    2.0880    1.0802    0.0000 H   0  0  0  0  0  0  0  0  0  0  0  0
    1.8759   -0.9373    0.0000 H   0  0  0  0  0  0  0  0  0  0  0  0
    2.8026   -0.4023    0.0000 H   0  0  0  0  0  0  0  0  0  0  0  0
    2.5903    1.6152    0.0000 H   0  0  0  0  0  0  0  0  0  0  0  0
    3.5169    1.0802    0.0000 H   0  0  0  0  0  0  0  0  0  0  0  0
    3.3048   -0.9373    0.0000 H   0  0  0  0  0  0  0  0  0  0  0  0
    4.2314   -0.4023    0.0000 H   0  0  0  0  0  0  0  0  0  0  0  0
    4.9459    0.0102    0.0000 H   0  0  0  0  0  0  0  0  0  0  0  0
    4.0193    1.6152    0.0000 H   0  0  0  0  0  0  0  0  0  0  0  0
    4.9460    1.0802    0.0000 H   0  0  0  0  0  0  0  0  0  0  0  0
  1  2  1  0  0  0  0
  1  7  1  0  0  0  0
  1 10  1  0  0  0  0
  1 18  1  6  0  0  0
  2  3  1  0  0  0  0
  2  8  1  0  0  0  0
  2 19  1  1  0  0  0
  3  4  1  0  0  0  0
  3 22  1  0  0  0  0
  3 23  1  0  0  0  0
  4  5  1  0  0  0  0
  4  9  1  0  0  0  0
  4 20  1  6  0  0  0
  5  6  1  0  0  0  0
  5 10  1  0  0  0  0
  5 21  1  6  0  0  0
  6 11  1  0  0  0  0
  6 24  1  0  0  0  0
  6 25  1  0  0  0  0
  7 12  1  0  0  0  0
  8 26  1  0  0  0  0
  9 27  1  0  0  0  0
 11 28  1  0  0  0  0
 12 13  1  0  0  0  0
 12 29  1  0  0  0  0
 12 30  1  0  0  0  0
 13 14  1  0  0  0  0
 13 31  1  0  0  0  0
 13 32  1  0  0  0  0
 14 15  1  0  0  0  0
 14 33  1  0  0  0  0
 14 34  1  0  0  0  0
 15 16  1  0  0  0  0
 15 35  1  0  0  0  0
 15 36  1  0  0  0  0
 16 17  1  0  0  0  0
 16 37  1  0  0  0  0
 16 38  1  0  0  0  0
 17 39  1  0  0  0  0
 17 40  1  0  0  0  0
 17 41  1  0  0  0  0
M  END
>  <DRUGBANK_ID>
DB03772

>  <SECONDARY_ACCESSION_NUMBERS>
EXPT01217

>  <COMMON_NAME>
2-Hexyloxy-6-Hydroxymethyl-Tetrahydro-Pyran-3,5-Diol

$$$$
