1569
 OpenBabel10282417072D

 53 56  0  0  1  0  0  0  0  0999 V2000
   -0.3562    0.2046    0.0000 C   0  0  0  0  0  0  0  0  0  0  0  0
   -0.3562   -0.6204    0.0000 C   0  0  1  0  0  0  0  0  0  0  0  0
    0.3583   -0.2047    0.0000 C   0  0  2  0  0  0  0  0  0  0  0  0
   -0.3562   -1.4515    0.0000 C   0  0  0  0  0  0  0  0  0  0  0  0
   -1.0687   -0.2047    0.0000 C   0  0  0  0  0  0  0  0  0  0  0  0
    1.0708   -0.6204    0.0000 C   0  0  2  0  0  0  0  0  0  0  0  0
    0.3583    0.6264    0.0000 C   0  0  2  0  0  0  0  0  0  0  0  0
    0.3583   -1.8672    0.0000 C   0  0  0  0  0  0  0  0  0  0  0  0
   -1.0687   -1.8672    0.0000 C   0  0  0  0  0  0  0  0  0  0  0  0
   -1.7812   -0.6204    0.0000 C   0  0  0  0  0  0  0  0  0  0  0  0
    1.7833   -0.2047    0.0000 C   0  0  1  0  0  0  0  0  0  0  0  0
    1.0708   -1.4515    0.0000 C   0  0  0  0  0  0  0  0  0  0  0  0
   -0.3583    1.0400    0.0000 O   0  0  0  0  0  0  0  0  0  0  0  0
    1.0708    1.0420    0.0000 C   0  0  0  0  0  0  0  0  0  0  0  0
   -1.7812   -1.4515    0.0000 C   0  0  0  0  0  0  0  0  0  0  0  0
   -2.4958   -0.2088    0.0000 C   0  0  0  0  0  0  0  0  0  0  0  0
    1.7833    0.6264    0.0000 C   0  0  1  0  0  0  0  0  0  0  0  0
    3.2083   -0.2047    0.0000 C   0  0  0  0  0  0  0  0  0  0  0  0
   -2.4958   -1.8651    0.0000 O   0  0  0  0  0  0  0  0  0  0  0  0
   -3.2103   -0.6204    0.0000 O   0  0  0  0  0  0  0  0  0  0  0  0
    1.7833    1.4515    0.0000 C   0  0  0  0  0  0  0  0  0  0  0  0
    2.4958    1.0420    0.0000 C   0  0  1  0  0  0  0  0  0  0  0  0
    3.2083    0.6264    0.0000 C   0  0  0  0  0  0  0  0  0  0  0  0
    3.2103    1.4557    0.0000 C   0  0  0  0  0  0  0  0  0  0  0  0
    2.4958    1.8672    0.0000 O   0  0  0  0  0  0  0  0  0  0  0  0
    1.0708    0.2046    0.0000 H   0  0  0  0  0  0  0  0  0  0  0  0
    0.3583   -1.0298    0.0000 H   0  0  0  0  0  0  0  0  0  0  0  0
    1.7833   -1.0298    0.0000 H   0  0  0  0  0  0  0  0  0  0  0  0
    0.5704    0.7396    0.0000 H   0  0  0  0  0  0  0  0  0  0  0  0
   -1.2828    0.7396    0.0000 H   0  0  0  0  0  0  0  0  0  0  0  0
   -0.3562    1.2746    0.0000 H   0  0  0  0  0  0  0  0  0  0  0  0
   -1.0687    0.8273    0.0000 H   0  0  0  0  0  0  0  0  0  0  0  0
   -0.5683    0.0913    0.0000 H   0  0  0  0  0  0  0  0  0  0  0  0
    0.3590   -2.9372    0.0000 H   0  0  0  0  0  0  0  0  0  0  0  0
    1.2863   -2.3998    0.0000 H   0  0  0  0  0  0  0  0  0  0  0  0
   -1.0687   -2.8992    0.0000 H   0  0  0  0  0  0  0  0  0  0  0  0
    1.9987   -1.9844    0.0000 H   0  0  0  0  0  0  0  0  0  0  0  0
    1.0745   -2.5215    0.0000 H   0  0  0  0  0  0  0  0  0  0  0  0
   -0.3584    2.0100    0.0000 H   0  0  0  0  0  0  0  0  0  0  0  0
    1.0708    2.1120    0.0000 H   0  0  0  0  0  0  0  0  0  0  0  0
    1.9986    1.5749    0.0000 H   0  0  0  0  0  0  0  0  0  0  0  0
   -2.4958    0.8232    0.0000 H   0  0  0  0  0  0  0  0  0  0  0  0
    3.9649   -0.9613    0.0000 H   0  0  0  0  0  0  0  0  0  0  0  0
    4.1969    0.2048    0.0000 H   0  0  0  0  0  0  0  0  0  0  0  0
    2.7099    1.9865    0.0000 H   0  0  0  0  0  0  0  0  0  0  0  0
    0.8567    1.9865    0.0000 H   0  0  0  0  0  0  0  0  0  0  0  0
    1.7833    2.5215    0.0000 H   0  0  0  0  0  0  0  0  0  0  0  0
    4.1361    1.1593    0.0000 H   0  0  0  0  0  0  0  0  0  0  0  0
    3.2119    1.6964    0.0000 H   0  0  0  0  0  0  0  0  0  0  0  0
    4.1376    0.9219    0.0000 H   0  0  0  0  0  0  0  0  0  0  0  0
    3.2090    2.5257    0.0000 H   0  0  0  0  0  0  0  0  0  0  0  0
    4.1363    1.9918    0.0000 H   0  0  0  0  0  0  0  0  0  0  0  0
    3.3358    2.3522    0.0000 H   0  0  0  0  0  0  0  0  0  0  0  0
  1 29  1  0  0  0  0
  1 30  1  0  0  0  0
  1 31  1  0  0  0  0
  2  1  1  1  0  0  0
  2  4  1  0  0  0  0
  2  5  1  0  0  0  0
  3  2  1  0  0  0  0
  3  7  1  0  0  0  0
  3 27  1  6  0  0  0
  4  8  1  0  0  0  0
  4  9  2  0  0  0  0
  5 10  2  0  0  0  0
  5 32  1  0  0  0  0
  6  3  1  0  0  0  0
  6 12  1  0  0  0  0
  6 26  1  1  0  0  0
  7 13  1  0  0  0  0
  7 14  1  0  0  0  0
  7 33  1  1  0  0  0
  8 12  1  0  0  0  0
  8 34  1  0  0  0  0
  8 35  1  0  0  0  0
  9 15  1  0  0  0  0
  9 36  1  0  0  0  0
 10 15  1  0  0  0  0
 10 16  1  0  0  0  0
 11  6  1  0  0  0  0
 11 17  1  0  0  0  0
 11 18  1  0  0  0  0
 11 28  1  6  0  0  0
 12 37  1  0  0  0  0
 12 38  1  0  0  0  0
 13 39  1  0  0  0  0
 14 40  1  0  0  0  0
 14 41  1  0  0  0  0
 15 19  2  0  0  0  0
 16 20  2  0  0  0  0
 16 42  1  0  0  0  0
 17 14  1  0  0  0  0
 17 21  1  1  0  0  0
 17 22  1  0  0  0  0
 18 23  1  0  0  0  0
 18 43  1  0  0  0  0
 18 44  1  0  0  0  0
 21 45  1  0  0  0  0
 21 46  1  0  0  0  0
 21 47  1  0  0  0  0
 22 23  1  0  0  0  0
 22 24  1  0  0  0  0
 22 25  1  1  0  0  0
 23 48  1  0  0  0  0
 23 49  1  0  0  0  0
 24 50  1  0  0  0  0
 24 51  1  0  0  0  0
 24 52  1  0  0  0  0
 25 53  1  0  0  0  0
M  END
>  <DRUGBANK_ID>
DB01569

>  <COMMON_NAME>
Formebolone

>  <CAS_NUMBER>
2454-11-7

>  <UNII>
Z2MMV08KUQ

>  <SYNONYMS>
11-alpha,17-beta-Dihydroxy-17-methyl-3-oxoandrosta-1,4-diene-2-carboxaldehyde; 2-Formyl-11-alpha-hydroxy-delta(sup 1)-methyltestosterone; 2-formyl-11α-hydroxy-17α-methyl-δ1-testosterone; 2-Formyl-17-alpha-methylandrosta-1,4-diene-11-alpha,17-beta-diol-3-one; Esiclene; Formebolona; Formebolone; Formebolonum; Formyldienolone

$$$$
