
 OpenBabel10282417072D

 56 58  0  0  0  0  0  0  0  0999 V2000
   -4.7289    4.1250    0.0000 C   0  0  0  0  0  0  0  0  0  0  0  0
    2.2836    1.9816    0.0000 C   0  0  0  0  0  0  0  0  0  0  0  0
   -4.3164    3.4105    0.0000 C   0  0  0  0  0  0  0  0  0  0  0  0
   -2.2539    0.2211    0.0000 C   0  0  0  0  0  0  0  0  0  0  0  0
   -2.2539    5.1711    0.0000 C   0  0  0  0  0  0  0  0  0  0  0  0
   -1.5395    0.6336    0.0000 C   0  0  0  0  0  0  0  0  0  0  0  0
   -2.9684    0.6336    0.0000 C   0  0  0  0  0  0  0  0  0  0  0  0
   -2.9684    4.7586    0.0000 C   0  0  0  0  0  0  0  0  0  0  0  0
   -1.5395    4.7586    0.0000 C   0  0  0  0  0  0  0  0  0  0  0  0
   -1.5395    1.4586    0.0000 C   0  0  0  0  0  0  0  0  0  0  0  0
   -2.9684    1.4586    0.0000 C   0  0  0  0  0  0  0  0  0  0  0  0
   -2.9684    3.9336    0.0000 C   0  0  0  0  0  0  0  0  0  0  0  0
   -1.5395    3.9336    0.0000 C   0  0  0  0  0  0  0  0  0  0  0  0
    0.2211    1.2671    0.0000 C   0  0  0  0  0  0  0  0  0  0  0  0
    0.2211    2.6961    0.0000 C   0  0  0  0  0  0  0  0  0  0  0  0
    1.0461    1.2671    0.0000 C   0  0  0  0  0  0  0  0  0  0  0  0
    1.0461    2.6961    0.0000 C   0  0  0  0  0  0  0  0  0  0  0  0
   -3.4914    3.4105    0.0000 C   0  0  0  0  0  0  0  0  0  0  0  0
   -2.2539    1.8711    0.0000 C   0  0  0  0  0  0  0  0  0  0  0  0
   -2.2539    3.5211    0.0000 C   0  0  0  0  0  0  0  0  0  0  0  0
   -0.1914    1.9816    0.0000 C   0  0  0  0  0  0  0  0  0  0  0  0
   -1.4289    2.6961    0.0000 C   0  0  0  0  0  0  0  0  0  0  0  0
   -2.2539    2.6961    0.0000 C   0  0  0  0  0  0  0  0  0  0  0  0
    1.4586    1.9816    0.0000 N   0  0  0  0  0  0  0  0  0  0  0  0
   -1.0164    3.4105    0.0000 O   0  0  0  0  0  0  0  0  0  0  0  0
   -3.0789    2.6961    0.0000 O   0  0  0  0  0  0  0  0  0  0  0  0
   -1.0164    1.9816    0.0000 O   0  0  0  0  0  0  0  0  0  0  0  0
   -4.1939    5.0516    0.0000 H   0  0  0  0  0  0  0  0  0  0  0  0
   -5.7989    4.1250    0.0000 H   0  0  0  0  0  0  0  0  0  0  0  0
   -5.2639    5.0517    0.0000 H   0  0  0  0  0  0  0  0  0  0  0  0
    2.8186    1.0550    0.0000 H   0  0  0  0  0  0  0  0  0  0  0  0
    2.8186    2.9082    0.0000 H   0  0  0  0  0  0  0  0  0  0  0  0
    3.3536    1.9816    0.0000 H   0  0  0  0  0  0  0  0  0  0  0  0
   -4.8514    2.4839    0.0000 H   0  0  0  0  0  0  0  0  0  0  0  0
   -3.7814    2.4839    0.0000 H   0  0  0  0  0  0  0  0  0  0  0  0
   -2.2539   -0.8109    0.0000 H   0  0  0  0  0  0  0  0  0  0  0  0
   -2.2539    6.2031    0.0000 H   0  0  0  0  0  0  0  0  0  0  0  0
   -0.6458    0.1176    0.0000 H   0  0  0  0  0  0  0  0  0  0  0  0
   -3.8621    0.1176    0.0000 H   0  0  0  0  0  0  0  0  0  0  0  0
   -3.8621    5.2746    0.0000 H   0  0  0  0  0  0  0  0  0  0  0  0
   -0.6458    5.2746    0.0000 H   0  0  0  0  0  0  0  0  0  0  0  0
   -0.6458    1.9746    0.0000 H   0  0  0  0  0  0  0  0  0  0  0  0
   -3.8621    1.9746    0.0000 H   0  0  0  0  0  0  0  0  0  0  0  0
   -3.8621    3.4176    0.0000 H   0  0  0  0  0  0  0  0  0  0  0  0
   -0.6458    3.4176    0.0000 H   0  0  0  0  0  0  0  0  0  0  0  0
   -0.3139    0.3405    0.0000 H   0  0  0  0  0  0  0  0  0  0  0  0
   -0.8489    1.2671    0.0000 H   0  0  0  0  0  0  0  0  0  0  0  0
   -0.3139    3.6227    0.0000 H   0  0  0  0  0  0  0  0  0  0  0  0
   -0.8489    2.6961    0.0000 H   0  0  0  0  0  0  0  0  0  0  0  0
    1.5811    0.3405    0.0000 H   0  0  0  0  0  0  0  0  0  0  0  0
    2.1161    1.2671    0.0000 H   0  0  0  0  0  0  0  0  0  0  0  0
    1.5811    3.6227    0.0000 H   0  0  0  0  0  0  0  0  0  0  0  0
    2.1161    2.6961    0.0000 H   0  0  0  0  0  0  0  0  0  0  0  0
   -2.9564    4.3372    0.0000 H   0  0  0  0  0  0  0  0  0  0  0  0
   -2.4214    3.4105    0.0000 H   0  0  0  0  0  0  0  0  0  0  0  0
   -0.7264    2.9082    0.0000 H   0  0  0  0  0  0  0  0  0  0  0  0
  1 28  1  0  0  0  0
  1 29  1  0  0  0  0
  1 30  1  0  0  0  0
  2 31  1  0  0  0  0
  2 32  1  0  0  0  0
  2 33  1  0  0  0  0
  3  1  1  0  0  0  0
  3 34  1  0  0  0  0
  3 35  1  0  0  0  0
  4 36  1  0  0  0  0
  5 37  1  0  0  0  0
  6  4  2  0  0  0  0
  6 38  1  0  0  0  0
  7  4  1  0  0  0  0
  7 39  1  0  0  0  0
  8  5  2  0  0  0  0
  8 40  1  0  0  0  0
  9  5  1  0  0  0  0
  9 41  1  0  0  0  0
 10  6  1  0  0  0  0
 10 42  1  0  0  0  0
 11  7  2  0  0  0  0
 11 43  1  0  0  0  0
 12  8  1  0  0  0  0
 12 44  1  0  0  0  0
 13  9  2  0  0  0  0
 13 45  1  0  0  0  0
 14 46  1  0  0  0  0
 14 47  1  0  0  0  0
 15 48  1  0  0  0  0
 15 49  1  0  0  0  0
 16 14  1  0  0  0  0
 16 50  1  0  0  0  0
 16 51  1  0  0  0  0
 17 15  1  0  0  0  0
 17 52  1  0  0  0  0
 17 53  1  0  0  0  0
 18  3  1  0  0  0  0
 18 54  1  0  0  0  0
 18 55  1  0  0  0  0
 19 10  2  0  0  0  0
 19 11  1  0  0  0  0
 20 12  2  0  0  0  0
 20 13  1  0  0  0  0
 21 14  1  0  0  0  0
 21 15  1  0  0  0  0
 21 56  1  0  0  0  0
 23 19  1  0  0  0  0
 23 20  1  0  0  0  0
 23 22  1  0  0  0  0
 24  2  1  0  0  0  0
 24 16  1  0  0  0  0
 24 17  1  0  0  0  0
 25 22  2  0  0  0  0
 26 18  1  0  0  0  0
 26 23  1  0  0  0  0
 27 21  1  0  0  0  0
 27 22  1  0  0  0  0
M  END
>  <DRUGBANK_ID>
DB12278

>  <COMMON_NAME>
Propiverine

>  <CAS_NUMBER>
60569-19-9

>  <UNII>
468GE2241L

>  <SYNONYMS>
Propiverina; Propiverine

$$$$
