
 OpenBabel10282417072D

122127  0  0  1  0  0  0  0  0999 V2000
    5.3507    4.0460    0.0000 C   0  0  0  0  0  0  0  0  0  0  0  0
    4.5360    3.9158    0.0000 O   0  0  0  0  0  0  0  0  0  0  0  0
    4.2414    3.1452    0.0000 C   0  0  1  0  0  0  0  0  0  0  0  0
    4.9736    2.7557    0.0000 C   0  0  0  0  0  0  0  0  0  0  0  0
    5.5981    2.1961    0.0000 C   0  0  0  0  0  0  0  0  0  0  0  0
    6.1542    1.5464    0.0000 O   0  0  0  0  0  0  0  0  0  0  0  0
    6.1870    0.6842    0.0000 C   0  0  1  0  0  0  0  0  0  0  0  0
    6.6665    0.0128    0.0000 C   0  0  0  0  0  0  0  0  0  0  0  0
    5.4174    0.9811    0.0000 O   0  0  0  0  0  0  0  0  0  0  0  0
    4.8468    0.3942    0.0000 C   0  0  0  0  0  0  0  0  0  0  0  0
    5.2657   -0.3320    0.0000 C   0  0  0  0  0  0  0  0  0  0  0  0
    6.0952   -0.1572    0.0000 C   0  0  0  0  0  0  0  0  0  0  0  0
    6.7067   -0.7110    0.0000 O   0  0  0  0  0  0  0  0  0  0  0  0
    4.7832   -1.0568    0.0000 C   0  0  0  0  0  0  0  0  0  0  0  0
    5.0908   -1.8405    0.0000 C   0  0  0  0  0  0  0  0  0  0  0  0
    5.9077   -1.9558    0.0000 O   0  0  0  0  0  0  0  0  0  0  0  0
    4.5979   -2.4826    0.0000 C   0  0  0  0  0  0  0  0  0  0  0  0
    4.9372   -3.2346    0.0000 C   0  0  0  0  0  0  0  0  0  0  0  0
    5.7581   -3.3168    0.0000 N   0  0  0  0  0  0  0  0  0  0  0  0
    6.0974   -4.0688    0.0000 N   0  0  0  0  0  0  0  0  0  0  0  0
    6.9183   -4.1510    0.0000 C   0  0  0  0  0  0  0  0  0  0  0  0
    7.2575   -4.9030    0.0000 C   0  0  0  0  0  0  0  0  0  0  0  0
    6.7759   -5.5728    0.0000 N   0  0  3  0  0  0  0  0  0  0  0  0
    5.9550   -5.4906    0.0000 C   0  0  0  0  0  0  0  0  0  0  0  0
    5.6157   -4.7386    0.0000 C   0  0  0  0  0  0  0  0  0  0  0  0
    7.1152   -6.3248    0.0000 C   0  0  0  0  0  0  0  0  0  0  0  0
    7.9230   -6.4924    0.0000 C   0  0  0  0  0  0  0  0  0  0  0  0
    8.0133   -7.3124    0.0000 C   0  0  0  0  0  0  0  0  0  0  0  0
    7.2613   -7.6517    0.0000 C   0  0  0  0  0  0  0  0  0  0  0  0
    6.7063   -7.0413    0.0000 C   0  0  0  0  0  0  0  0  0  0  0  0
    3.7602   -2.4251    0.0000 C   0  0  0  0  0  0  0  0  0  0  0  0
    2.9412   -2.7016    0.0000 N   0  0  0  0  0  0  0  0  0  0  0  0
    2.0923   -2.7219    0.0000 C   0  0  0  0  0  0  0  0  0  0  0  0
    1.9428   -3.5332    0.0000 O   0  0  0  0  0  0  0  0  0  0  0  0
    1.2830   -2.3907    0.0000 C   0  0  0  0  0  0  0  0  0  0  0  0
    0.8488   -3.0922    0.0000 C   0  0  0  0  0  0  0  0  0  0  0  0
    0.6295   -1.8176    0.0000 C   0  0  0  0  0  0  0  0  0  0  0  0
    0.1608   -1.0668    0.0000 C   0  0  0  0  0  0  0  0  0  0  0  0
   -0.0664   -0.2691    0.0000 C   0  0  0  0  0  0  0  0  0  0  0  0
   -0.0786    0.5614    0.0000 C   0  0  2  0  0  0  0  0  0  0  0  0
   -0.8980    0.6575    0.0000 C   0  0  0  0  0  0  0  0  0  0  0  0
    0.1249    1.3644    0.0000 C   0  0  2  0  0  0  0  0  0  0  0  0
   -0.6415    1.6697    0.0000 O   0  0  0  0  0  0  0  0  0  0  0  0
    0.5293    2.0873    0.0000 C   0  0  1  0  0  0  0  0  0  0  0  0
   -0.1320    2.5806    0.0000 C   0  0  0  0  0  0  0  0  0  0  0  0
    1.1070    2.6810    0.0000 C   0  0  1  0  0  0  0  0  0  0  0  0
    0.5959    3.3286    0.0000 O   0  0  0  0  0  0  0  0  0  0  0  0
    1.8185    3.1048    0.0000 C   0  0  1  0  0  0  0  0  0  0  0  0
    1.4923    3.8626    0.0000 C   0  0  0  0  0  0  0  0  0  0  0  0
    2.6149    3.3301    0.0000 C   0  0  2  0  0  0  0  0  0  0  0  0
    2.4954    4.1464    0.0000 O   0  0  0  0  0  0  0  0  0  0  0  0
    3.4408    3.3424    0.0000 C   0  0  2  0  0  0  0  0  0  0  0  0
    3.5340    4.1621    0.0000 C   0  0  0  0  0  0  0  0  0  0  0  0
    3.4652   -1.6570    0.0000 C   0  0  0  0  0  0  0  0  0  0  0  0
    2.6462   -1.5579    0.0000 O   0  0  0  0  0  0  0  0  0  0  0  0
    3.9394   -0.9751    0.0000 C   0  0  0  0  0  0  0  0  0  0  0  0
    3.5699   -0.2246    0.0000 C   0  0  0  0  0  0  0  0  0  0  0  0
    2.7460   -0.1812    0.0000 O   0  0  0  0  0  0  0  0  0  0  0  0
    4.0099    0.4731    0.0000 C   0  0  0  0  0  0  0  0  0  0  0  0
    3.6458    1.2134    0.0000 C   0  0  0  0  0  0  0  0  0  0  0  0
    6.0252    3.2154    0.0000 H   0  0  0  0  0  0  0  0  0  0  0  0
    5.7328    5.0455    0.0000 H   0  0  0  0  0  0  0  0  0  0  0  0
    6.4073    4.2149    0.0000 H   0  0  0  0  0  0  0  0  0  0  0  0
    5.2434    3.5205    0.0000 H   0  0  0  0  0  0  0  0  0  0  0  0
    5.5646    3.6017    0.0000 H   0  0  0  0  0  0  0  0  0  0  0  0
    6.3361    2.9175    0.0000 H   0  0  0  0  0  0  0  0  0  0  0  0
    6.2233   -0.9611    0.0000 H   0  0  0  0  0  0  0  0  0  0  0  0
    7.7315    0.1160    0.0000 H   0  0  0  0  0  0  0  0  0  0  0  0
    7.2884   -0.8579    0.0000 H   0  0  0  0  0  0  0  0  0  0  0  0
    6.2582   -2.8248    0.0000 H   0  0  0  0  0  0  0  0  0  0  0  0
    4.3347   -4.0725    0.0000 H   0  0  0  0  0  0  0  0  0  0  0  0
    7.5430   -3.2823    0.0000 H   0  0  0  0  0  0  0  0  0  0  0  0
    7.9830   -4.2577    0.0000 H   0  0  0  0  0  0  0  0  0  0  0  0
    8.3222   -5.0096    0.0000 H   0  0  0  0  0  0  0  0  0  0  0  0
    7.6975   -5.8783    0.0000 H   0  0  0  0  0  0  0  0  0  0  0  0
    5.3304   -6.3593    0.0000 H   0  0  0  0  0  0  0  0  0  0  0  0
    4.8903   -5.3840    0.0000 H   0  0  0  0  0  0  0  0  0  0  0  0
    4.5510   -4.6320    0.0000 H   0  0  0  0  0  0  0  0  0  0  0  0
    5.1757   -3.7632    0.0000 H   0  0  0  0  0  0  0  0  0  0  0  0
    7.5552   -7.3001    0.0000 H   0  0  0  0  0  0  0  0  0  0  0  0
    8.7146   -5.7725    0.0000 H   0  0  0  0  0  0  0  0  0  0  0  0
    8.9238   -6.8709    0.0000 H   0  0  0  0  0  0  0  0  0  0  0  0
    8.9426   -7.8428    0.0000 H   0  0  0  0  0  0  0  0  0  0  0  0
    7.9626   -8.3812    0.0000 H   0  0  0  0  0  0  0  0  0  0  0  0
    7.0440   -8.6994    0.0000 H   0  0  0  0  0  0  0  0  0  0  0  0
    6.2291   -7.9337    0.0000 H   0  0  0  0  0  0  0  0  0  0  0  0
    5.6427   -7.1584    0.0000 H   0  0  0  0  0  0  0  0  0  0  0  0
    6.1191   -6.1468    0.0000 H   0  0  0  0  0  0  0  0  0  0  0  0
    3.1124   -3.6711    0.0000 H   0  0  0  0  0  0  0  0  0  0  0  0
   -0.2207   -3.0594    0.0000 H   0  0  0  0  0  0  0  0  0  0  0  0
    1.3552   -4.0348    0.0000 H   0  0  0  0  0  0  0  0  0  0  0  0
    0.2857   -4.0020    0.0000 H   0  0  0  0  0  0  0  0  0  0  0  0
   -0.1568   -2.4859    0.0000 H   0  0  0  0  0  0  0  0  0  0  0  0
   -0.7824   -1.4855    0.0000 H   0  0  0  0  0  0  0  0  0  0  0  0
   -1.0874   -0.4193    0.0000 H   0  0  0  0  0  0  0  0  0  0  0  0
   -0.8728   -0.1556    0.0000 H   0  0  0  0  0  0  0  0  0  0  0  0
   -1.3214    1.6402    0.0000 H   0  0  0  0  0  0  0  0  0  0  0  0
   -1.5373   -0.2005    0.0000 H   0  0  0  0  0  0  0  0  0  0  0  0
   -1.9607    0.7821    0.0000 H   0  0  0  0  0  0  0  0  0  0  0  0
   -0.8282    0.8781    0.0000 H   0  0  0  0  0  0  0  0  0  0  0  0
   -0.7812    2.6296    0.0000 H   0  0  0  0  0  0  0  0  0  0  0  0
   -0.5172    1.8643    0.0000 H   0  0  0  0  0  0  0  0  0  0  0  0
   -0.0068    3.6432    0.0000 H   0  0  0  0  0  0  0  0  0  0  0  0
   -1.1149    2.1577    0.0000 H   0  0  0  0  0  0  0  0  0  0  0  0
   -0.9897    3.2204    0.0000 H   0  0  0  0  0  0  0  0  0  0  0  0
    0.0384    2.7364    0.0000 H   0  0  0  0  0  0  0  0  0  0  0  0
    0.9548    4.2297    0.0000 H   0  0  0  0  0  0  0  0  0  0  0  0
    0.8007    3.4348    0.0000 H   0  0  0  0  0  0  0  0  0  0  0  0
    2.1319    4.7204    0.0000 H   0  0  0  0  0  0  0  0  0  0  0  0
    0.4296    3.9876    0.0000 H   0  0  0  0  0  0  0  0  0  0  0  0
    1.0692    4.8454    0.0000 H   0  0  0  0  0  0  0  0  0  0  0  0
    1.7169    3.9119    0.0000 H   0  0  0  0  0  0  0  0  0  0  0  0
    3.2563    4.7480    0.0000 H   0  0  0  0  0  0  0  0  0  0  0  0
    2.7223    4.1353    0.0000 H   0  0  0  0  0  0  0  0  0  0  0  0
    4.5152    4.5890    0.0000 H   0  0  0  0  0  0  0  0  0  0  0  0
    2.6737    4.7984    0.0000 H   0  0  0  0  0  0  0  0  0  0  0  0
    3.6549    5.2253    0.0000 H   0  0  0  0  0  0  0  0  0  0  0  0
    2.2786   -0.6960    0.0000 H   0  0  0  0  0  0  0  0  0  0  0  0
    2.3208    0.6538    0.0000 H   0  0  0  0  0  0  0  0  0  0  0  0
    4.2412    2.1024    0.0000 H   0  0  0  0  0  0  0  0  0  0  0  0
    2.5782    1.2845    0.0000 H   0  0  0  0  0  0  0  0  0  0  0  0
    3.1736    2.1736    0.0000 H   0  0  0  0  0  0  0  0  0  0  0  0
  1  2  1  0  0  0  0
  1 61  1  0  0  0  0
  1 62  1  0  0  0  0
  1 63  1  0  0  0  0
  3  2  1  0  0  0  0
  3  4  1  0  0  0  0
  3 64  1  6  0  0  0
  4  5  2  0  0  0  0
  4 65  1  0  0  0  0
  5  6  1  0  0  0  0
  5 66  1  0  0  0  0
  7  6  1  0  0  0  0
  7  8  1  1  0  0  0
  7  9  1  0  0  0  0
  7 12  1  0  0  0  0
  8 67  1  0  0  0  0
  8 68  1  0  0  0  0
  8 69  1  0  0  0  0
  9 10  1  0  0  0  0
 10 11  2  0  0  0  0
 10 59  1  0  0  0  0
 11 12  1  0  0  0  0
 11 14  1  0  0  0  0
 12 13  2  0  0  0  0
 14 15  2  0  0  0  0
 14 56  1  0  0  0  0
 15 16  1  0  0  0  0
 15 17  1  0  0  0  0
 16 70  1  0  0  0  0
 17 18  1  0  0  0  0
 17 31  2  0  0  0  0
 18 19  2  0  0  0  0
 18 71  1  0  0  0  0
 19 20  1  0  0  0  0
 20 21  1  0  0  0  0
 20 25  1  0  0  0  0
 21 22  1  0  0  0  0
 21 72  1  0  0  0  0
 21 73  1  0  0  0  0
 22 23  1  0  0  0  0
 22 74  1  0  0  0  0
 22 75  1  0  0  0  0
 23 24  1  0  0  0  0
 23 26  1  0  0  0  0
 24 25  1  0  0  0  0
 24 76  1  0  0  0  0
 24 77  1  0  0  0  0
 25 78  1  0  0  0  0
 25 79  1  0  0  0  0
 26 27  1  0  0  0  0
 26 30  1  0  0  0  0
 26 80  1  0  0  0  0
 27 28  1  0  0  0  0
 27 81  1  0  0  0  0
 27 82  1  0  0  0  0
 28 29  1  0  0  0  0
 28 83  1  0  0  0  0
 28 84  1  0  0  0  0
 29 30  1  0  0  0  0
 29 85  1  0  0  0  0
 29 86  1  0  0  0  0
 30 87  1  0  0  0  0
 30 88  1  0  0  0  0
 31 32  1  0  0  0  0
 31 54  1  0  0  0  0
 32 33  1  0  0  0  0
 32 89  1  0  0  0  0
 33 34  2  0  0  0  0
 33 35  1  0  0  0  0
 35 36  1  0  0  0  0
 35 37  2  0  0  0  0
 36 90  1  0  0  0  0
 36 91  1  0  0  0  0
 36 92  1  0  0  0  0
 37 38  1  0  0  0  0
 37 93  1  0  0  0  0
 38 39  2  0  0  0  0
 38 94  1  0  0  0  0
 39 95  1  0  0  0  0
 40 39  1  0  0  0  0
 40 41  1  0  0  0  0
 40 96  1  1  0  0  0
 41 97  1  0  0  0  0
 41 98  1  0  0  0  0
 41 99  1  0  0  0  0
 42 40  1  0  0  0  0
 42 43  1  0  0  0  0
 42 44  1  0  0  0  0
 42100  1  1  0  0  0
 43101  1  0  0  0  0
 44 45  1  0  0  0  0
 44 46  1  0  0  0  0
 44102  1  6  0  0  0
 45103  1  0  0  0  0
 45104  1  0  0  0  0
 45105  1  0  0  0  0
 46 47  1  0  0  0  0
 46 48  1  0  0  0  0
 46106  1  6  0  0  0
 47107  1  0  0  0  0
 48 49  1  0  0  0  0
 48 50  1  0  0  0  0
 48108  1  6  0  0  0
 49109  1  0  0  0  0
 49110  1  0  0  0  0
 49111  1  0  0  0  0
 50 51  1  0  0  0  0
 50 52  1  0  0  0  0
 50112  1  1  0  0  0
 51113  1  0  0  0  0
 52  3  1  0  0  0  0
 52 53  1  0  0  0  0
 52114  1  1  0  0  0
 53115  1  0  0  0  0
 53116  1  0  0  0  0
 53117  1  0  0  0  0
 54 55  1  0  0  0  0
 54 56  2  0  0  0  0
 55118  1  0  0  0  0
 56 57  1  0  0  0  0
 57 58  1  0  0  0  0
 57 59  2  0  0  0  0
 58119  1  0  0  0  0
 59 60  1  0  0  0  0
 60120  1  0  0  0  0
 60121  1  0  0  0  0
 60122  1  0  0  0  0
M  END
>  <DRUGBANK_ID>
DB15213

>  <COMMON_NAME>
25-desacetylrifapentine

>  <CAS_NUMBER>
79039-56-8

>  <UNII>
29A0K44SJO

>  <SYNONYMS>
25-DESACETYL RIFAPENTINE

$$$$
