
 OpenBabel10282417072D

 11 10  0  0  0  0  0  0  0  0999 V2000
    0.3556   -0.6183    0.0000 N   0  0  0  0  0  0  0  0  0  0  0  0
   -0.3597   -0.2061    0.0000 C   0  0  0  0  0  0  0  0  0  0  0  0
   -1.0710   -0.6183    0.0000 N   0  0  0  0  0  0  0  0  0  0  0  0
   -0.3597    0.6183    0.0000 N   0  0  0  0  0  0  0  0  0  0  0  0
    1.0710   -0.2061    0.0000 N   0  0  0  0  0  0  0  0  0  0  0  0
    0.3556   -1.6028    0.0000 H   0  0  0  0  0  0  0  0  0  0  0  0
   -1.9244   -0.1274    0.0000 H   0  0  0  0  0  0  0  0  0  0  0  0
   -1.0694   -1.6028    0.0000 H   0  0  0  0  0  0  0  0  0  0  0  0
    0.4929    1.1106    0.0000 H   0  0  0  0  0  0  0  0  0  0  0  0
    1.9539   -0.7169    0.0000 H   0  0  0  0  0  0  0  0  0  0  0  0
    1.0719    0.8139    0.0000 H   0  0  0  0  0  0  0  0  0  0  0  0
  1  2  1  0  0  0  0
  1  5  1  0  0  0  0
  1  6  1  0  0  0  0
  2  3  1  0  0  0  0
  2  4  2  0  0  0  0
  3  7  1  0  0  0  0
  3  8  1  0  0  0  0
  4  9  1  0  0  0  0
  5 10  1  0  0  0  0
  5 11  1  0  0  0  0
M  END
>  <DRUGBANK_ID>
DB05383

>  <SECONDARY_ACCESSION_NUMBERS>
EXPT00459; DB02533

>  <COMMON_NAME>
Pimagedine

>  <CAS_NUMBER>
79-17-4

>  <UNII>
SCQ4EZQ113

>  <SYNONYMS>
Aminate base; Aminoguanidine; Guanyl hydrazine; Hydrazinecarboximidamide; Monoaminoguanidine; Pimagedine

$$$$
