
 OpenBabel10282417072D

 90 94  0  0  0  0  0  0  0  0999 V2000
    0.3786   -2.5431    0.0000 C   0  0  0  0  0  0  0  0  0  0  0  0
    0.6659   -1.7697    0.0000 C   0  0  0  0  0  0  0  0  0  0  0  0
    0.1399   -1.1342    0.0000 O   0  0  0  0  0  0  0  0  0  0  0  0
    0.4272   -0.3609    0.0000 C   0  0  0  0  0  0  0  0  0  0  0  0
   -0.0989    0.2746    0.0000 C   0  0  0  0  0  0  0  0  0  0  0  0
    0.1884    1.0480    0.0000 C   0  0  0  0  0  0  0  0  0  0  0  0
    1.0018    1.1859    0.0000 C   0  0  0  0  0  0  0  0  0  0  0  0
    1.4436    1.8826    0.0000 N   0  0  0  0  0  0  0  0  0  0  0  0
    2.2428    1.6777    0.0000 C   0  0  0  0  0  0  0  0  0  0  0  0
    2.8782    2.2038    0.0000 O   0  0  0  0  0  0  0  0  0  0  0  0
    2.2948    0.8543    0.0000 C   0  0  2  0  0  0  0  0  0  0  0  0
    3.0258    1.2368    0.0000 C   0  0  0  0  0  0  0  0  0  0  0  0
    3.7225    0.7950    0.0000 C   0  0  0  0  0  0  0  0  0  0  0  0
    3.6883   -0.0293    0.0000 C   0  0  1  0  0  0  0  0  0  0  0  0
    2.9573   -0.4118    0.0000 C   0  0  0  0  0  0  0  0  0  0  0  0
    2.2606    0.0300    0.0000 C   0  0  0  0  0  0  0  0  0  0  0  0
    4.3850   -0.4711    0.0000 O   0  0  0  0  0  0  0  0  0  0  0  0
    4.3507   -1.2954    0.0000 C   0  0  0  0  0  0  0  0  0  0  0  0
    5.0474   -1.7373    0.0000 C   0  0  0  0  0  0  0  0  0  0  0  0
    5.0132   -2.5615    0.0000 N   0  0  0  0  0  0  0  0  0  0  0  0
    5.7099   -3.0034    0.0000 C   0  0  0  0  0  0  0  0  0  0  0  0
    5.6756   -3.8276    0.0000 C   0  0  0  0  0  0  0  0  0  0  0  0
    4.9446   -4.2101    0.0000 O   0  0  0  0  0  0  0  0  0  0  0  0
    4.2479   -3.7683    0.0000 C   0  0  0  0  0  0  0  0  0  0  0  0
    4.2822   -2.9440    0.0000 C   0  0  0  0  0  0  0  0  0  0  0  0
    1.5279    0.5504    0.0000 C   0  0  0  0  0  0  0  0  0  0  0  0
    1.2406   -0.2230    0.0000 C   0  0  0  0  0  0  0  0  0  0  0  0
    1.1396    2.6495    0.0000 S   0  0  0  0  0  0  0  0  0  0  0  0
    1.9066    2.9535    0.0000 O   0  0  0  0  0  0  0  0  0  0  0  0
    0.3727    2.3456    0.0000 O   0  0  0  0  0  0  0  0  0  0  0  0
    0.8357    3.4165    0.0000 C   0  0  0  0  0  0  0  0  0  0  0  0
    0.0195    3.5367    0.0000 C   0  0  0  0  0  0  0  0  0  0  0  0
   -0.2845    4.3037    0.0000 C   0  0  0  0  0  0  0  0  0  0  0  0
    0.2278    4.9504    0.0000 C   0  0  0  0  0  0  0  0  0  0  0  0
    1.0439    4.8302    0.0000 C   0  0  0  0  0  0  0  0  0  0  0  0
    1.3479    4.0632    0.0000 C   0  0  0  0  0  0  0  0  0  0  0  0
    2.1641    3.9430    0.0000 O   0  0  0  0  0  0  0  0  0  0  0  0
    2.6763    4.5897    0.0000 C   0  0  0  0  0  0  0  0  0  0  0  0
   -0.0762    5.7174    0.0000 C   0  0  0  0  0  0  0  0  0  0  0  0
   -0.8924    5.8376    0.0000 O   0  0  0  0  0  0  0  0  0  0  0  0
    0.4360    6.3641    0.0000 N   0  0  0  0  0  0  0  0  0  0  0  0
    0.1321    7.1311    0.0000 C   0  0  0  0  0  0  0  0  0  0  0  0
   -0.1719    7.8980    0.0000 C   0  0  0  0  0  0  0  0  0  0  0  0
    0.8990    7.4350    0.0000 C   0  0  0  0  0  0  0  0  0  0  0  0
   -0.6349    6.8271    0.0000 C   0  0  0  0  0  0  0  0  0  0  0  0
   -0.6763   -2.7219    0.0000 H   0  0  0  0  0  0  0  0  0  0  0  0
    1.0609   -3.3673    0.0000 H   0  0  0  0  0  0  0  0  0  0  0  0
    0.0060   -3.5461    0.0000 H   0  0  0  0  0  0  0  0  0  0  0  0
    1.7209   -1.5909    0.0000 H   0  0  0  0  0  0  0  0  0  0  0  0
    1.0386   -0.7667    0.0000 H   0  0  0  0  0  0  0  0  0  0  0  0
   -1.1164    0.1021    0.0000 H   0  0  0  0  0  0  0  0  0  0  0  0
   -0.4697    1.8429    0.0000 H   0  0  0  0  0  0  0  0  0  0  0  0
    3.0702    2.3059    0.0000 H   0  0  0  0  0  0  0  0  0  0  0  0
    3.9739    1.7329    0.0000 H   0  0  0  0  0  0  0  0  0  0  0  0
    4.6705    1.2911    0.0000 H   0  0  0  0  0  0  0  0  0  0  0  0
    4.6262    0.2220    0.0000 H   0  0  0  0  0  0  0  0  0  0  0  0
    4.6363    0.4668    0.0000 H   0  0  0  0  0  0  0  0  0  0  0  0
    2.9129   -1.4809    0.0000 H   0  0  0  0  0  0  0  0  0  0  0  0
    2.0092   -0.9079    0.0000 H   0  0  0  0  0  0  0  0  0  0  0  0
    1.3126   -0.4661    0.0000 H   0  0  0  0  0  0  0  0  0  0  0  0
    1.3569    0.6030    0.0000 H   0  0  0  0  0  0  0  0  0  0  0  0
    3.4026   -1.7914    0.0000 H   0  0  0  0  0  0  0  0  0  0  0  0
    4.3062   -2.3645    0.0000 H   0  0  0  0  0  0  0  0  0  0  0  0
    5.9955   -1.2413    0.0000 H   0  0  0  0  0  0  0  0  0  0  0  0
    5.9510   -2.3103    0.0000 H   0  0  0  0  0  0  0  0  0  0  0  0
    6.6580   -2.5074    0.0000 H   0  0  0  0  0  0  0  0  0  0  0  0
    6.6135   -3.5765    0.0000 H   0  0  0  0  0  0  0  0  0  0  0  0
    6.5792   -4.4006    0.0000 H   0  0  0  0  0  0  0  0  0  0  0  0
    5.6312   -4.8967    0.0000 H   0  0  0  0  0  0  0  0  0  0  0  0
    3.2998   -4.2643    0.0000 H   0  0  0  0  0  0  0  0  0  0  0  0
    3.3443   -3.1952    0.0000 H   0  0  0  0  0  0  0  0  0  0  0  0
    3.3786   -2.3710    0.0000 H   0  0  0  0  0  0  0  0  0  0  0  0
    4.3266   -1.8749    0.0000 H   0  0  0  0  0  0  0  0  0  0  0  0
    1.8987   -1.0179    0.0000 H   0  0  0  0  0  0  0  0  0  0  0  0
   -0.6212    2.7277    0.0000 H   0  0  0  0  0  0  0  0  0  0  0  0
   -1.3055    4.4541    0.0000 H   0  0  0  0  0  0  0  0  0  0  0  0
    1.6846    5.6392    0.0000 H   0  0  0  0  0  0  0  0  0  0  0  0
    3.7349    4.4338    0.0000 H   0  0  0  0  0  0  0  0  0  0  0  0
    2.2821    5.5844    0.0000 H   0  0  0  0  0  0  0  0  0  0  0  0
    3.3406    5.4285    0.0000 H   0  0  0  0  0  0  0  0  0  0  0  0
    1.4100    6.2206    0.0000 H   0  0  0  0  0  0  0  0  0  0  0  0
    0.4924    8.7368    0.0000 H   0  0  0  0  0  0  0  0  0  0  0  0
   -1.2305    8.0539    0.0000 H   0  0  0  0  0  0  0  0  0  0  0  0
   -0.5662    8.8927    0.0000 H   0  0  0  0  0  0  0  0  0  0  0  0
    1.7377    6.7706    0.0000 H   0  0  0  0  0  0  0  0  0  0  0  0
    1.0550    8.4936    0.0000 H   0  0  0  0  0  0  0  0  0  0  0  0
    1.8937    7.8292    0.0000 H   0  0  0  0  0  0  0  0  0  0  0  0
   -1.4737    7.4914    0.0000 H   0  0  0  0  0  0  0  0  0  0  0  0
   -0.7908    5.7685    0.0000 H   0  0  0  0  0  0  0  0  0  0  0  0
   -1.6296    6.4328    0.0000 H   0  0  0  0  0  0  0  0  0  0  0  0
  1  2  1  0  0  0  0
  1 46  1  0  0  0  0
  1 47  1  0  0  0  0
  1 48  1  0  0  0  0
  2  3  1  0  0  0  0
  2 49  1  0  0  0  0
  2 50  1  0  0  0  0
  3  4  1  0  0  0  0
  4  5  2  0  0  0  0
  4 27  1  0  0  0  0
  5  6  1  0  0  0  0
  5 51  1  0  0  0  0
  6  7  2  0  0  0  0
  6 52  1  0  0  0  0
  7  8  1  0  0  0  0
  7 26  1  0  0  0  0
  8  9  1  0  0  0  0
  8 28  1  0  0  0  0
  9 10  2  0  0  0  0
 11  9  1  6  0  0  0
 11 12  1  0  0  0  0
 11 16  1  0  0  0  0
 11 26  1  0  0  0  0
 12 13  1  0  0  0  0
 12 53  1  0  0  0  0
 12 54  1  0  0  0  0
 13 55  1  0  0  0  0
 13 56  1  0  0  0  0
 14 13  1  0  0  0  0
 14 15  1  0  0  0  0
 14 17  1  0  0  0  0
 14 57  1  1  0  0  0
 15 16  1  0  0  0  0
 15 58  1  0  0  0  0
 15 59  1  0  0  0  0
 16 60  1  0  0  0  0
 16 61  1  0  0  0  0
 17 18  1  0  0  0  0
 18 19  1  0  0  0  0
 18 62  1  0  0  0  0
 18 63  1  0  0  0  0
 19 20  1  0  0  0  0
 19 64  1  0  0  0  0
 19 65  1  0  0  0  0
 20 21  1  0  0  0  0
 20 25  1  0  0  0  0
 21 22  1  0  0  0  0
 21 66  1  0  0  0  0
 21 67  1  0  0  0  0
 22 23  1  0  0  0  0
 22 68  1  0  0  0  0
 22 69  1  0  0  0  0
 23 24  1  0  0  0  0
 24 25  1  0  0  0  0
 24 70  1  0  0  0  0
 24 71  1  0  0  0  0
 25 72  1  0  0  0  0
 25 73  1  0  0  0  0
 26 27  2  0  0  0  0
 27 74  1  0  0  0  0
 28 29  2  0  0  0  0
 28 30  2  0  0  0  0
 28 31  1  0  0  0  0
 31 32  2  0  0  0  0
 31 36  1  0  0  0  0
 32 33  1  0  0  0  0
 32 75  1  0  0  0  0
 33 34  2  0  0  0  0
 33 76  1  0  0  0  0
 34 35  1  0  0  0  0
 34 39  1  0  0  0  0
 35 36  2  0  0  0  0
 35 77  1  0  0  0  0
 36 37  1  0  0  0  0
 37 38  1  0  0  0  0
 38 78  1  0  0  0  0
 38 79  1  0  0  0  0
 38 80  1  0  0  0  0
 39 40  2  0  0  0  0
 39 41  1  0  0  0  0
 41 42  1  0  0  0  0
 41 81  1  0  0  0  0
 42 43  1  0  0  0  0
 42 44  1  0  0  0  0
 42 45  1  0  0  0  0
 43 82  1  0  0  0  0
 43 83  1  0  0  0  0
 43 84  1  0  0  0  0
 44 85  1  0  0  0  0
 44 86  1  0  0  0  0
 44 87  1  0  0  0  0
 45 88  1  0  0  0  0
 45 89  1  0  0  0  0
 45 90  1  0  0  0  0
M  END
>  <DRUGBANK_ID>
DB14923

>  <COMMON_NAME>
Satavaptan

>  <CAS_NUMBER>
185913-78-4

>  <UNII>
AJS8S3P31H

>  <SYNONYMS>
Satavaptan

$$$$
