
 OpenBabel10282417072D

 20 19  0  0  1  0  0  0  0  0999 V2000
    2.6664    2.3645    0.0000 C   0  0  0  0  0  0  0  0  0  0  0  0
    1.9520    1.9520    0.0000 C   0  0  0  0  0  0  0  0  0  0  0  0
    1.9520    1.1270    0.0000 C   0  0  1  0  0  0  0  0  0  0  0  0
    1.2375    0.7145    0.0000 O   0  0  0  0  0  0  0  0  0  0  0  0
    1.2375   -0.1105    0.0000 P   0  0  0  0  0  0  0  0  0  0  0  0
    1.2375   -0.9355    0.0000 O   0  0  0  0  0  0  0  0  0  0  0  0
    0.4125   -0.1105    0.0000 O   0  0  0  0  0  0  0  0  0  0  0  0
    2.0625   -0.1105    0.0000 O   0  0  0  0  0  0  0  0  0  0  0  0
    2.6664    0.7145    0.0000 C   0  0  0  0  0  0  0  0  0  0  0  0
    3.3809    1.1270    0.0000 O   0  0  0  0  0  0  0  0  0  0  0  0
    2.6664   -0.1105    0.0000 O   0  0  0  0  0  0  0  0  0  0  0  0
    3.5931    1.8295    0.0000 H   0  0  0  0  0  0  0  0  0  0  0  0
    2.6664    3.4345    0.0000 H   0  0  0  0  0  0  0  0  0  0  0  0
    3.5930    2.8995    0.0000 H   0  0  0  0  0  0  0  0  0  0  0  0
    1.0253    2.4870    0.0000 H   0  0  0  0  0  0  0  0  0  0  0  0
    1.0254    1.4170    0.0000 H   0  0  0  0  0  0  0  0  0  0  0  0
    1.0254    1.6620    0.0000 H   0  0  0  0  0  0  0  0  0  0  0  0
    0.3975   -1.4205    0.0000 H   0  0  0  0  0  0  0  0  0  0  0  0
   -0.0725    0.7295    0.0000 H   0  0  0  0  0  0  0  0  0  0  0  0
    4.1924    0.6585    0.0000 H   0  0  0  0  0  0  0  0  0  0  0  0
  1  2  1  0  0  0  0
  1 12  1  0  0  0  0
  1 13  1  0  0  0  0
  1 14  1  0  0  0  0
  2  3  1  0  0  0  0
  2 15  1  0  0  0  0
  2 16  1  0  0  0  0
  3  4  1  0  0  0  0
  3  9  1  0  0  0  0
  3 17  1  1  0  0  0
  4  5  1  0  0  0  0
  5  6  1  0  0  0  0
  5  7  1  0  0  0  0
  5  8  2  0  0  0  0
  6 18  1  0  0  0  0
  7 19  1  0  0  0  0
  9 10  1  0  0  0  0
  9 11  2  0  0  0  0
 10 20  1  0  0  0  0
M  END
>  <DRUGBANK_ID>
DB03248

>  <SECONDARY_ACCESSION_NUMBERS>
EXPT02552

>  <COMMON_NAME>
2-(Phosphonooxy)Butanoic Acid

$$$$
