821
 OpenBabel10282417072D

 31 33  0  0  1  0  0  0  0  0999 V2000
    1.5842   -1.3784    0.0000 Cl  0  0  0  0  0  0  0  0  0  0  0  0
    7.9413   -0.2544    0.0000 O   0  0  0  0  0  0  0  0  0  0  0  0
    6.9253   -1.1762    0.0000 O   0  0  0  0  0  0  0  0  0  0  0  0
    3.8588    0.8874    0.0000 N   0  0  0  0  0  0  0  0  0  0  0  0
    4.2548   -0.3315    0.0000 C   0  0  0  0  0  0  0  0  0  0  0  0
    4.4997    0.4218    0.0000 C   0  0  0  0  0  0  0  0  0  0  0  0
    3.4628   -0.3315    0.0000 C   0  0  0  0  0  0  0  0  0  0  0  0
    5.8607   -0.0031    0.0000 C   0  0  0  0  0  0  0  0  0  0  0  0
    3.2180    0.4218    0.0000 C   0  0  0  0  0  0  0  0  0  0  0  0
    6.6348    0.1646    0.0000 C   0  0  3  0  0  0  0  0  0  0  0  0
    5.3039    0.6058    0.0000 C   0  0  0  0  0  0  0  0  0  0  0  0
    4.7974   -0.9531    0.0000 C   0  0  0  0  0  0  0  0  0  0  0  0
    5.6057   -0.7878    0.0000 C   0  0  0  0  0  0  0  0  0  0  0  0
    2.9203   -0.9531    0.0000 C   0  0  0  0  0  0  0  0  0  0  0  0
    2.4137    0.6058    0.0000 C   0  0  0  0  0  0  0  0  0  0  0  0
    6.8767    0.9188    0.0000 C   0  0  0  0  0  0  0  0  0  0  0  0
    2.1119   -0.7878    0.0000 C   0  0  0  0  0  0  0  0  0  0  0  0
    7.1672   -0.4220    0.0000 C   0  0  0  0  0  0  0  0  0  0  0  0
    1.8570   -0.0031    0.0000 C   0  0  0  0  0  0  0  0  0  0  0  0
    8.5709   -0.9484    0.0000 H   0  0  0  0  0  0  0  0  0  0  0  0
    3.8588    1.8719    0.0000 H   0  0  0  0  0  0  0  0  0  0  0  0
    5.9158    0.9570    0.0000 H   0  0  0  0  0  0  0  0  0  0  0  0
    5.6114    1.5909    0.0000 H   0  0  0  0  0  0  0  0  0  0  0  0
    4.4672   -1.9308    0.0000 H   0  0  0  0  0  0  0  0  0  0  0  0
    6.2933   -1.5574    0.0000 H   0  0  0  0  0  0  0  0  0  0  0  0
    3.2506   -1.9308    0.0000 H   0  0  0  0  0  0  0  0  0  0  0  0
    2.1061    1.5909    0.0000 H   0  0  0  0  0  0  0  0  0  0  0  0
    7.9225    1.1452    0.0000 H   0  0  0  0  0  0  0  0  0  0  0  0
    6.1577    1.7112    0.0000 H   0  0  0  0  0  0  0  0  0  0  0  0
    7.2035    1.9377    0.0000 H   0  0  0  0  0  0  0  0  0  0  0  0
    0.8484    0.2153    0.0000 H   0  0  0  0  0  0  0  0  0  0  0  0
  1 17  1  0  0  0  0
  2 18  1  0  0  0  0
  2 20  1  0  0  0  0
  3 18  2  0  0  0  0
  4  6  1  0  0  0  0
  4  9  1  0  0  0  0
  4 21  1  0  0  0  0
  5  6  2  0  0  0  0
  5  7  1  0  0  0  0
  5 12  1  0  0  0  0
  6 11  1  0  0  0  0
  7  9  2  0  0  0  0
  7 14  1  0  0  0  0
  8 10  1  0  0  0  0
  8 11  2  0  0  0  0
  8 13  1  0  0  0  0
  9 15  1  0  0  0  0
 10 16  1  0  0  0  0
 10 18  1  0  0  0  0
 10 22  1  0  0  0  0
 11 23  1  0  0  0  0
 12 13  2  0  0  0  0
 12 24  1  0  0  0  0
 13 25  1  0  0  0  0
 14 17  2  0  0  0  0
 14 26  1  0  0  0  0
 15 19  2  0  0  0  0
 15 27  1  0  0  0  0
 16 28  1  0  0  0  0
 16 29  1  0  0  0  0
 16 30  1  0  0  0  0
 17 19  1  0  0  0  0
 19 31  1  0  0  0  0
M  END
>  <DRUGBANK_ID>
DB00821

>  <SECONDARY_ACCESSION_NUMBERS>
APRD00849

>  <COMMON_NAME>
Carprofen

>  <CAS_NUMBER>
53716-49-7

>  <UNII>
FFL0D546HO

>  <SYNONYMS>
(+/-)-2-(3-chloro-9H-carbazol-7-yl)propanoic acid; (±)-6-chloro-α-methylcarbazole-2-acetic acid; 2-(6-Chloro-9H-carbazol-2-yl)-propionic acid; 6-chloro-α-methyl-9H-carbazole-2-acetic acid; Carprofen; Carprofène; Carprofeno; Carprofenum

$$$$
