
 OpenBabel10282417072D

 60 60  0  0  0  0  0  0  0  0999 V2000
   -1.8141   -0.0171    0.0000 N   0  0  0  0  0  0  0  0  0  0  0  0
   -1.0956    0.3967    0.0000 C   0  0  2  0  0  0  0  0  0  0  0  0
   -0.3797   -0.8422    0.0000 O   0  0  0  0  0  0  0  0  0  0  0  0
   -0.3797   -0.0133    0.0000 C   0  0  0  0  0  0  0  0  0  0  0  0
   -1.0956    1.2220    0.0000 C   0  0  0  0  0  0  0  0  0  0  0  0
   -0.3798    1.6338    0.0000 C   0  0  0  0  0  0  0  0  0  0  0  0
   -1.8155    1.6409    0.0000 C   0  0  0  0  0  0  0  0  0  0  0  0
    0.3379    0.3978    0.0000 N   0  0  0  0  0  0  0  0  0  0  0  0
    1.0539   -0.0122    0.0000 C   0  0  1  0  0  0  0  0  0  0  0  0
    1.7765    1.2355    0.0000 O   0  0  0  0  0  0  0  0  0  0  0  0
    1.0539   -0.8374    0.0000 C   0  0  0  0  0  0  0  0  0  0  0  0
    1.7765    0.4017    0.0000 C   0  0  0  0  0  0  0  0  0  0  0  0
    2.4881   -0.0099    0.0000 N   0  0  0  0  0  0  0  0  0  0  0  0
    3.2088    0.4052    0.0000 C   0  0  2  0  0  0  0  0  0  0  0  0
    3.9193   -0.8279    0.0000 O   0  0  0  0  0  0  0  0  0  0  0  0
    3.9193   -0.0058    0.0000 C   0  0  0  0  0  0  0  0  0  0  0  0
    3.2088    1.2403    0.0000 C   0  0  0  0  0  0  0  0  0  0  0  0
    3.9191    1.6514    0.0000 C   0  0  0  0  0  0  0  0  0  0  0  0
    3.9191    2.4867    0.0000 O   0  0  0  0  0  0  0  0  0  0  0  0
    4.6335    1.2403    0.0000 O   0  0  0  0  0  0  0  0  0  0  0  0
    4.6446    0.4138    0.0000 C   0  0  0  0  0  0  0  0  0  0  0  0
    5.3548    0.0028    0.0000 F   0  0  0  0  0  0  0  0  0  0  0  0
   -1.8141   -0.8510    0.0000 C   0  0  0  0  0  0  0  0  0  0  0  0
   -2.5291   -1.2624    0.0000 O   0  0  0  0  0  0  0  0  0  0  0  0
   -1.0934   -1.2664    0.0000 O   0  0  0  0  0  0  0  0  0  0  0  0
   -3.2397   -0.8512    0.0000 C   0  0  0  0  0  0  0  0  0  0  0  0
   -3.9608   -1.2669    0.0000 C   0  0  0  0  0  0  0  0  0  0  0  0
   -4.6560   -0.8701    0.0000 C   0  0  0  0  0  0  0  0  0  0  0  0
   -5.3548   -1.2732    0.0000 C   0  0  0  0  0  0  0  0  0  0  0  0
   -5.3519   -2.0848    0.0000 C   0  0  0  0  0  0  0  0  0  0  0  0
   -4.6456   -2.4867    0.0000 C   0  0  0  0  0  0  0  0  0  0  0  0
   -3.9470   -2.0760    0.0000 C   0  0  0  0  0  0  0  0  0  0  0  0
   -2.6664    0.4756    0.0000 H   0  0  0  0  0  0  0  0  0  0  0  0
   -2.0220    0.9322    0.0000 H   0  0  0  0  0  0  0  0  0  0  0  0
   -1.0930    2.2920    0.0000 H   0  0  0  0  0  0  0  0  0  0  0  0
    0.5460    1.0974    0.0000 H   0  0  0  0  0  0  0  0  0  0  0  0
   -0.3782    2.7038    0.0000 H   0  0  0  0  0  0  0  0  0  0  0  0
    0.5477    2.1674    0.0000 H   0  0  0  0  0  0  0  0  0  0  0  0
   -1.8119    2.7109    0.0000 H   0  0  0  0  0  0  0  0  0  0  0  0
   -2.7440    1.1090    0.0000 H   0  0  0  0  0  0  0  0  0  0  0  0
   -2.7403    2.1790    0.0000 H   0  0  0  0  0  0  0  0  0  0  0  0
    0.3378    1.3823    0.0000 H   0  0  0  0  0  0  0  0  0  0  0  0
    0.1282   -0.5488    0.0000 H   0  0  0  0  0  0  0  0  0  0  0  0
    0.1273   -1.3724    0.0000 H   0  0  0  0  0  0  0  0  0  0  0  0
    1.9805   -1.3724    0.0000 H   0  0  0  0  0  0  0  0  0  0  0  0
    1.0539   -1.9074    0.0000 H   0  0  0  0  0  0  0  0  0  0  0  0
    2.4872   -0.9944    0.0000 H   0  0  0  0  0  0  0  0  0  0  0  0
    2.2824    0.9407    0.0000 H   0  0  0  0  0  0  0  0  0  0  0  0
    2.2819    1.7748    0.0000 H   0  0  0  0  0  0  0  0  0  0  0  0
    3.2079    2.3103    0.0000 H   0  0  0  0  0  0  0  0  0  0  0  0
    4.6348    0.3033    0.0000 H   0  0  0  0  0  0  0  0  0  0  0  0
    4.6447    1.4838    0.0000 H   0  0  0  0  0  0  0  0  0  0  0  0
    5.5715    0.9483    0.0000 H   0  0  0  0  0  0  0  0  0  0  0  0
   -3.2388    0.2188    0.0000 H   0  0  0  0  0  0  0  0  0  0  0  0
   -4.1660   -0.3155    0.0000 H   0  0  0  0  0  0  0  0  0  0  0  0
   -4.6584    0.1619    0.0000 H   0  0  0  0  0  0  0  0  0  0  0  0
   -6.2494   -0.7586    0.0000 H   0  0  0  0  0  0  0  0  0  0  0  0
   -6.2431   -2.6052    0.0000 H   0  0  0  0  0  0  0  0  0  0  0  0
   -4.6383   -3.5187    0.0000 H   0  0  0  0  0  0  0  0  0  0  0  0
   -3.0469   -2.5808    0.0000 H   0  0  0  0  0  0  0  0  0  0  0  0
  1  2  1  0  0  0  0
  1 23  1  0  0  0  0
  1 33  1  0  0  0  0
  2  4  1  0  0  0  0
  2  5  1  0  0  0  0
  2 34  1  6  0  0  0
  4  8  1  0  0  0  0
  4  3  2  0  0  0  0
  5  6  1  0  0  0  0
  5  7  1  0  0  0  0
  5 35  1  0  0  0  0
  6 36  1  0  0  0  0
  6 37  1  0  0  0  0
  6 38  1  0  0  0  0
  7 39  1  0  0  0  0
  7 40  1  0  0  0  0
  7 41  1  0  0  0  0
  8  9  1  0  0  0  0
  8 42  1  0  0  0  0
  9 12  1  0  0  0  0
  9 11  1  0  0  0  0
  9 43  1  1  0  0  0
 11 44  1  0  0  0  0
 11 45  1  0  0  0  0
 11 46  1  0  0  0  0
 12 13  1  0  0  0  0
 12 10  2  0  0  0  0
 13 14  1  0  0  0  0
 13 47  1  0  0  0  0
 14 16  1  0  0  0  0
 14 17  1  0  0  0  0
 14 48  1  6  0  0  0
 16 15  2  0  0  0  0
 16 21  1  0  0  0  0
 17 18  1  0  0  0  0
 17 49  1  0  0  0  0
 17 50  1  0  0  0  0
 18 19  2  0  0  0  0
 18 20  1  0  0  0  0
 20 51  1  0  0  0  0
 21 22  1  0  0  0  0
 21 52  1  0  0  0  0
 21 53  1  0  0  0  0
 23 24  1  0  0  0  0
 23 25  2  0  0  0  0
 24 26  1  0  0  0  0
 26 27  1  0  0  0  0
 26 54  1  0  0  0  0
 26 55  1  0  0  0  0
 27 28  2  0  0  0  0
 28 29  1  0  0  0  0
 28 56  1  0  0  0  0
 29 30  2  0  0  0  0
 29 57  1  0  0  0  0
 30 31  1  0  0  0  0
 30 58  1  0  0  0  0
 31 32  2  0  0  0  0
 31 59  1  0  0  0  0
 32 27  1  0  0  0  0
 32 60  1  0  0  0  0
M  END
>  <DRUGBANK_ID>
DB07744

>  <COMMON_NAME>
Z-Val-Ala-Asp fluoromethyl ketone

>  <CAS_NUMBER>
161401-82-7

>  <SYNONYMS>
N-[(Benzyloxy)carbonyl]-L-valyl-N-[(2S)-1-carboxy-4-fluoro-3-oxo-2-butanyl]-L-alaninamide; Z-VAD-FMK

$$$$
