
 OpenBabel10282417072D

 19 20  0  0  1  0  0  0  0  0999 V2000
    0.0000    6.7276    0.0000 O   0  5  0  0  0  0  0  0  0  0  0  0
    0.7145    6.3151    0.0000 N   0  3  0  0  0  0  0  0  0  0  0  0
    1.4289    6.7276    0.0000 O   0  0  0  0  0  0  0  0  0  0  0  0
    0.7145    5.4901    0.0000 C   0  0  0  0  0  0  0  0  0  0  0  0
    1.4289    5.0776    0.0000 C   0  0  0  0  0  0  0  0  0  0  0  0
    1.4289    4.2526    0.0000 C   0  0  0  0  0  0  0  0  0  0  0  0
    0.7145    3.8401    0.0000 C   0  0  0  0  0  0  0  0  0  0  0  0
    0.0000    4.2526    0.0000 C   0  0  0  0  0  0  0  0  0  0  0  0
    0.0000    5.0776    0.0000 C   0  0  0  0  0  0  0  0  0  0  0  0
    0.7145    3.0151    0.0000 C   0  0  1  0  0  0  0  0  0  0  0  0
    1.1270    2.3007    0.0000 C   0  0  0  0  0  0  0  0  0  0  0  0
    0.3020    2.3007    0.0000 O   0  0  0  0  0  0  0  0  0  0  0  0
    2.3226    5.5936    0.0000 H   0  0  0  0  0  0  0  0  0  0  0  0
    2.3226    3.7366    0.0000 H   0  0  0  0  0  0  0  0  0  0  0  0
   -0.8937    3.7366    0.0000 H   0  0  0  0  0  0  0  0  0  0  0  0
   -0.8937    5.5936    0.0000 H   0  0  0  0  0  0  0  0  0  0  0  0
    1.7480    3.2921    0.0000 H   0  0  0  0  0  0  0  0  0  0  0  0
    2.0537    1.7657    0.0000 H   0  0  0  0  0  0  0  0  0  0  0  0
    0.8501    1.2672    0.0000 H   0  0  0  0  0  0  0  0  0  0  0  0
  1  2  1  0  0  0  0
  2  3  2  0  0  0  0
  2  4  1  0  0  0  0
  4  5  2  0  0  0  0
  4  9  1  0  0  0  0
  5  6  1  0  0  0  0
  5 13  1  0  0  0  0
  6  7  2  0  0  0  0
  6 14  1  0  0  0  0
  7  8  1  0  0  0  0
  8  9  2  0  0  0  0
  8 15  1  0  0  0  0
  9 16  1  0  0  0  0
 10  7  1  0  0  0  0
 10 11  1  0  0  0  0
 10 12  1  0  0  0  0
 10 17  1  6  0  0  0
 11 12  1  0  0  0  0
 11 18  1  0  0  0  0
 11 19  1  0  0  0  0
M  CHG  2   1  -1   2   1
M  END
>  <DRUGBANK_ID>
DB04782

>  <COMMON_NAME>
(S)-4-Nitrostyrene oxide

>  <CAS_NUMBER>
78038-42-3

>  <SYNONYMS>
(2S)-2-(4-nitrophenyl)oxirane

$$$$
