
 OpenBabel10282417072D

  6  4  0  0  0  0  0  0  0  0999 V2000
   -1.1959    0.6180    0.0000 K   0  3  0  0  0  0  0  0  0  0  0  0
    1.1959    0.6180    0.0000 O   0  0  0  0  0  0  0  0  0  0  0  0
    0.4534   -0.6180    0.0000 O   0  5  0  0  0  0  0  0  0  0  0  0
    0.4534    0.2070    0.0000 C   0  0  0  0  0  0  0  0  0  0  0  0
   -0.2059    0.6180    0.0000 O   0  0  0  0  0  0  0  0  0  0  0  0
   -0.1742    1.5545    0.0000 H   0  0  0  0  0  0  0  0  0  0  0  0
  2  4  2  0  0  0  0
  3  4  1  0  0  0  0
  4  5  1  0  0  0  0
  5  6  1  0  0  0  0
M  CHG  2   1   1   3  -1
M  END
>  <DRUGBANK_ID>
DB11098

>  <COMMON_NAME>
Potassium bicarbonate

>  <CAS_NUMBER>
298-14-6

>  <UNII>
HM5Z15LEBN

>  <SYNONYMS>
Carbonic acid, monopotassium salt; Potassium bicarbonate; Potassium hydrogen carbonate

$$$$
