
 OpenBabel10282417072D

 26 25  0  0  0  0  0  0  0  0999 V2000
    1.7605   -1.8414    0.0000 C   0  0  0  0  0  0  0  0  0  0  0  0
    2.4750   -1.4289    0.0000 C   0  0  0  0  0  0  0  0  0  0  0  0
    3.1895   -1.8414    0.0000 C   0  0  0  0  0  0  0  0  0  0  0  0
    3.1895   -2.6664    0.0000 O   0  0  0  0  0  0  0  0  0  0  0  0
    3.9039   -1.4289    0.0000 C   0  0  0  0  0  0  0  0  0  0  0  0
    4.6184   -1.8414    0.0000 C   0  0  0  0  0  0  0  0  0  0  0  0
    5.3329   -1.4289    0.0000 C   0  0  0  0  0  0  0  0  0  0  0  0
    6.0474   -1.0164    0.0000 C   0  0  0  0  0  0  0  0  0  0  0  0
    5.7454   -2.1434    0.0000 C   0  0  0  0  0  0  0  0  0  0  0  0
    4.9204   -0.7145    0.0000 O   0  0  0  0  0  0  0  0  0  0  0  0
    0.8339   -1.3064    0.0000 H   0  0  0  0  0  0  0  0  0  0  0  0
    1.7605   -2.9114    0.0000 H   0  0  0  0  0  0  0  0  0  0  0  0
    0.8338   -2.3764    0.0000 H   0  0  0  0  0  0  0  0  0  0  0  0
    2.4750   -0.3589    0.0000 H   0  0  0  0  0  0  0  0  0  0  0  0
    3.4016   -0.8939    0.0000 H   0  0  0  0  0  0  0  0  0  0  0  0
    3.9039   -0.3589    0.0000 H   0  0  0  0  0  0  0  0  0  0  0  0
    4.8305   -0.8939    0.0000 H   0  0  0  0  0  0  0  0  0  0  0  0
    4.6184   -2.9114    0.0000 H   0  0  0  0  0  0  0  0  0  0  0  0
    5.5450   -2.3764    0.0000 H   0  0  0  0  0  0  0  0  0  0  0  0
    6.9740   -1.5514    0.0000 H   0  0  0  0  0  0  0  0  0  0  0  0
    6.0474    0.0536    0.0000 H   0  0  0  0  0  0  0  0  0  0  0  0
    6.9741   -0.4814    0.0000 H   0  0  0  0  0  0  0  0  0  0  0  0
    5.2104   -3.0700    0.0000 H   0  0  0  0  0  0  0  0  0  0  0  0
    6.8154   -2.1434    0.0000 H   0  0  0  0  0  0  0  0  0  0  0  0
    6.2804   -3.0701    0.0000 H   0  0  0  0  0  0  0  0  0  0  0  0
    5.4054    0.1256    0.0000 H   0  0  0  0  0  0  0  0  0  0  0  0
  1  2  1  0  0  0  0
  1 11  1  0  0  0  0
  1 12  1  0  0  0  0
  1 13  1  0  0  0  0
  2  3  1  0  0  0  0
  2 14  1  0  0  0  0
  2 15  1  0  0  0  0
  3  4  2  0  0  0  0
  3  5  1  0  0  0  0
  5  6  1  0  0  0  0
  5 16  1  0  0  0  0
  5 17  1  0  0  0  0
  6  7  1  0  0  0  0
  6 18  1  0  0  0  0
  6 19  1  0  0  0  0
  7  8  1  0  0  0  0
  7  9  1  0  0  0  0
  7 10  1  0  0  0  0
  8 20  1  0  0  0  0
  8 21  1  0  0  0  0
  8 22  1  0  0  0  0
  9 23  1  0  0  0  0
  9 24  1  0  0  0  0
  9 25  1  0  0  0  0
 10 26  1  0  0  0  0
M  END
>  <DRUGBANK_ID>
DB03711

>  <SECONDARY_ACCESSION_NUMBERS>
EXPT02062

>  <COMMON_NAME>
6-Hydroxy-6-Methyl-Heptan-3-One

>  <UNII>
G2CVU7ZB99

$$$$
