JT6
 OpenBabel10282417072D

 35 36  0  0  0  0  0  0  0  0999 V2000
   -3.1027   -1.3028    0.0000 C   0  0  0  0  0  0  0  0  0  0  0  0
   -2.3883   -1.7153    0.0000 C   0  0  0  0  0  0  0  0  0  0  0  0
   -1.6738   -1.3028    0.0000 C   0  0  0  0  0  0  0  0  0  0  0  0
   -1.6738   -0.4778    0.0000 C   0  0  0  0  0  0  0  0  0  0  0  0
   -0.2448    1.1722    0.0000 C   0  0  0  0  0  0  0  0  0  0  0  0
   -0.9593    0.7597    0.0000 C   0  0  0  0  0  0  0  0  0  0  0  0
   -0.2448   -0.4778    0.0000 C   0  0  0  0  0  0  0  0  0  0  0  0
    0.4696   -0.0653    0.0000 C   0  0  0  0  0  0  0  0  0  0  0  0
   -3.1027   -0.4778    0.0000 C   0  0  0  0  0  0  0  0  0  0  0  0
    0.4696    0.7597    0.0000 C   0  0  0  0  0  0  0  0  0  0  0  0
   -2.3883   -0.0653    0.0000 C   0  0  0  0  0  0  0  0  0  0  0  0
    3.3275    0.7597    0.0000 C   0  0  0  0  0  0  0  0  0  0  0  0
    1.8986    0.7597    0.0000 C   0  0  0  0  0  0  0  0  0  0  0  0
    2.6130    1.1722    0.0000 C   0  0  0  0  0  0  0  0  0  0  0  0
    4.0420    1.1722    0.0000 N   0  0  0  0  0  0  0  0  0  0  0  0
    3.3275   -0.0653    0.0000 O   0  0  0  0  0  0  0  0  0  0  0  0
    4.7565    0.7597    0.0000 O   0  0  0  0  0  0  0  0  0  0  0  0
    1.1841    1.1722    0.0000 O   0  0  0  0  0  0  0  0  0  0  0  0
   -0.9593   -0.0653    0.0000 C   0  0  0  0  0  0  0  0  0  0  0  0
   -3.8172   -1.7153    0.0000 C   0  0  0  0  0  0  0  0  0  0  0  0
   -4.5317   -2.1278    0.0000 N   0  0  0  0  0  0  0  0  0  0  0  0
   -2.3883   -2.7473    0.0000 H   0  0  0  0  0  0  0  0  0  0  0  0
   -0.7801   -1.8188    0.0000 H   0  0  0  0  0  0  0  0  0  0  0  0
   -0.2448    2.2042    0.0000 H   0  0  0  0  0  0  0  0  0  0  0  0
   -1.8530    1.2757    0.0000 H   0  0  0  0  0  0  0  0  0  0  0  0
   -0.2448   -1.5098    0.0000 H   0  0  0  0  0  0  0  0  0  0  0  0
    1.3633   -0.5813    0.0000 H   0  0  0  0  0  0  0  0  0  0  0  0
   -3.9964    0.0382    0.0000 H   0  0  0  0  0  0  0  0  0  0  0  0
   -2.3883    0.9667    0.0000 H   0  0  0  0  0  0  0  0  0  0  0  0
    1.8986   -0.3103    0.0000 H   0  0  0  0  0  0  0  0  0  0  0  0
    0.9720    0.2247    0.0000 H   0  0  0  0  0  0  0  0  0  0  0  0
    2.6130    2.2422    0.0000 H   0  0  0  0  0  0  0  0  0  0  0  0
    1.6863    1.7072    0.0000 H   0  0  0  0  0  0  0  0  0  0  0  0
    4.0420    2.1567    0.0000 H   0  0  0  0  0  0  0  0  0  0  0  0
    4.7565   -0.2103    0.0000 H   0  0  0  0  0  0  0  0  0  0  0  0
  1  9  2  0  0  0  0
  1  2  1  0  0  0  0
  2  3  2  0  0  0  0
  2 22  1  0  0  0  0
  3  4  1  0  0  0  0
  3 23  1  0  0  0  0
  4 19  1  0  0  0  0
  5 10  1  0  0  0  0
  5 24  1  0  0  0  0
  6  5  2  0  0  0  0
  6 25  1  0  0  0  0
  7  8  1  0  0  0  0
  7 26  1  0  0  0  0
  8 10  2  0  0  0  0
  8 27  1  0  0  0  0
  9 11  1  0  0  0  0
  9 28  1  0  0  0  0
 10 18  1  0  0  0  0
 11  4  2  0  0  0  0
 11 29  1  0  0  0  0
 12 14  1  0  0  0  0
 13 14  1  0  0  0  0
 13 30  1  0  0  0  0
 13 31  1  0  0  0  0
 14 32  1  0  0  0  0
 14 33  1  0  0  0  0
 15 12  1  0  0  0  0
 15 34  1  0  0  0  0
 16 12  2  0  0  0  0
 17 15  1  0  0  0  0
 17 35  1  0  0  0  0
 18 13  1  0  0  0  0
 19  7  2  0  0  0  0
 19  6  1  0  0  0  0
 20  1  1  0  0  0  0
 21 20  3  0  0  0  0
M  END
>  <DRUGBANK_ID>
DB08030

>  <COMMON_NAME>
3-[(4'-cyanobiphenyl-4-yl)oxy]-N-hydroxypropanamide

$$$$
