
 OpenBabel10282417072D

 34 33  0  0  0  0  0  0  0  0999 V2000
    2.4197   -1.7862    0.0000 O   0  0  0  0  0  0  0  0  0  0  0  0
    2.0072   -1.0717    0.0000 C   0  0  0  0  0  0  0  0  0  0  0  0
    2.4197   -0.3571    0.0000 O   0  0  0  0  0  0  0  0  0  0  0  0
    1.1822   -1.0717    0.0000 C   0  0  1  0  0  0  0  0  0  0  0  0
    0.7697   -1.7862    0.0000 N   0  0  0  0  0  0  0  0  0  0  0  0
    0.7697   -0.3571    0.0000 C   0  0  0  0  0  0  0  0  0  0  0  0
   -0.0552   -0.3571    0.0000 C   0  0  0  0  0  0  0  0  0  0  0  0
   -0.4677    0.3572    0.0000 C   0  0  0  0  0  0  0  0  0  0  0  0
   -1.2928    0.3572    0.0000 C   0  0  0  0  0  0  0  0  0  0  0  0
   -1.7053    1.0718    0.0000 N   0  3  0  0  0  0  0  0  0  0  0  0
   -0.9908    1.4842    0.0000 C   0  0  0  0  0  0  0  0  0  0  0  0
   -2.1178    1.7862    0.0000 C   0  0  0  0  0  0  0  0  0  0  0  0
   -2.4197    0.6592    0.0000 C   0  0  0  0  0  0  0  0  0  0  0  0
    1.9512   -2.5977    0.0000 H   0  0  0  0  0  0  0  0  0  0  0  0
    1.7172   -1.9983    0.0000 H   0  0  0  0  0  0  0  0  0  0  0  0
   -0.2503   -1.7862    0.0000 H   0  0  0  0  0  0  0  0  0  0  0  0
    1.2797   -2.6695    0.0000 H   0  0  0  0  0  0  0  0  0  0  0  0
    1.3047    0.5695    0.0000 H   0  0  0  0  0  0  0  0  0  0  0  0
    0.2347    0.5696    0.0000 H   0  0  0  0  0  0  0  0  0  0  0  0
   -0.5902   -1.2838    0.0000 H   0  0  0  0  0  0  0  0  0  0  0  0
   -1.1252   -0.3572    0.0000 H   0  0  0  0  0  0  0  0  0  0  0  0
    0.0673    1.2839    0.0000 H   0  0  0  0  0  0  0  0  0  0  0  0
   -1.0027    1.2838    0.0000 H   0  0  0  0  0  0  0  0  0  0  0  0
   -1.8278   -0.5694    0.0000 H   0  0  0  0  0  0  0  0  0  0  0  0
   -2.3628    0.3573    0.0000 H   0  0  0  0  0  0  0  0  0  0  0  0
   -0.0642    0.9491    0.0000 H   0  0  0  0  0  0  0  0  0  0  0  0
   -0.9907    2.5542    0.0000 H   0  0  0  0  0  0  0  0  0  0  0  0
   -0.0641    2.0191    0.0000 H   0  0  0  0  0  0  0  0  0  0  0  0
   -1.5828    2.7129    0.0000 H   0  0  0  0  0  0  0  0  0  0  0  0
   -3.1878    1.7862    0.0000 H   0  0  0  0  0  0  0  0  0  0  0  0
   -2.6528    2.7128    0.0000 H   0  0  0  0  0  0  0  0  0  0  0  0
   -3.3464    1.1941    0.0000 H   0  0  0  0  0  0  0  0  0  0  0  0
   -2.4195   -0.4108    0.0000 H   0  0  0  0  0  0  0  0  0  0  0  0
   -3.3463    0.1241    0.0000 H   0  0  0  0  0  0  0  0  0  0  0  0
  1 14  1  0  0  0  0
  2  1  1  0  0  0  0
  3  2  2  0  0  0  0
  4  2  1  0  0  0  0
  4  5  1  0  0  0  0
  4 15  1  6  0  0  0
  5 16  1  0  0  0  0
  5 17  1  0  0  0  0
  6  4  1  0  0  0  0
  6 18  1  0  0  0  0
  6 19  1  0  0  0  0
  7  6  1  0  0  0  0
  7 20  1  0  0  0  0
  7 21  1  0  0  0  0
  8  7  1  0  0  0  0
  8 22  1  0  0  0  0
  8 23  1  0  0  0  0
  9  8  1  0  0  0  0
  9 24  1  0  0  0  0
  9 25  1  0  0  0  0
 10  9  1  0  0  0  0
 11 10  1  0  0  0  0
 11 26  1  0  0  0  0
 11 27  1  0  0  0  0
 11 28  1  0  0  0  0
 12 10  1  0  0  0  0
 12 29  1  0  0  0  0
 12 30  1  0  0  0  0
 12 31  1  0  0  0  0
 13 10  1  0  0  0  0
 13 32  1  0  0  0  0
 13 33  1  0  0  0  0
 13 34  1  0  0  0  0
M  CHG  1  10   1
M  END
>  <DRUGBANK_ID>
DB03977

>  <SECONDARY_ACCESSION_NUMBERS>
EXPT02087

>  <COMMON_NAME>
Trimethyllysine

>  <CAS_NUMBER>
19253-88-4

>  <UNII>
3YGF0495O2

>  <SYNONYMS>
(S)-2-amino-6-(trimethylammonio)hexanoic acid; (S)-5-amino-5-carboxy-N,N,N-trimethyl-1-pentanaminium; epsilon-N-Trimethyl-L-lysine; epsilon-Trimethyl-L-lysine; epsilon-Trimethyllysine; N-Trimethyllysine; N6,N6,N6-Trimethyl-L-lysine; Nε-trimethyllysine; trimethyllysine; ε-N-trimethyl-L-lysine; ε-trimethyl-L-lysine; ε-trimethyllysine

$$$$
