
 OpenBabel10282417072D

 43 47  0  0  0  0  0  0  0  0999 V2000
   -0.3917   -0.4145    0.0000 C   0  0  2  0  0  0  0  0  0  0  0  0
   -0.3952    0.4076    0.0000 C   0  0  0  0  0  0  0  0  0  0  0  0
    0.3139   -0.8309    0.0000 C   0  0  2  0  0  0  0  0  0  0  0  0
   -1.1115   -0.8203    0.0000 C   0  0  1  0  0  0  0  0  0  0  0  0
    0.3139    0.0053    0.0000 C   0  0  0  0  0  0  0  0  0  0  0  0
   -1.1115    0.8170    0.0000 C   0  0  0  0  0  0  0  0  0  0  0  0
    0.3174    0.8170    0.0000 C   0  0  0  0  0  0  0  0  0  0  0  0
    1.0302   -0.4216    0.0000 C   0  0  1  0  0  0  0  0  0  0  0  0
    0.3105   -1.6530    0.0000 C   0  0  0  0  0  0  0  0  0  0  0  0
   -1.9301    0.0546    0.0000 O   0  0  0  0  0  0  0  0  0  0  0  0
   -1.1151   -1.6426    0.0000 C   0  0  2  0  0  0  0  0  0  0  0  0
    1.7397   -0.0087    0.0000 C   0  0  0  0  0  0  0  0  0  0  0  0
   -1.1115    1.6462    0.0000 C   0  0  0  0  0  0  0  0  0  0  0  0
    1.0338    0.4040    0.0000 C   0  0  0  0  0  0  0  0  0  0  0  0
    0.3174    1.6462    0.0000 C   0  0  0  0  0  0  0  0  0  0  0  0
    1.7466   -0.8380    0.0000 N   0  0  0  0  0  0  0  0  0  0  0  0
   -0.4057   -2.0590    0.0000 C   0  0  0  0  0  0  0  0  0  0  0  0
   -1.8349   -2.0554    0.0000 O   0  0  0  0  0  0  0  0  0  0  0  0
   -0.3917    2.0590    0.0000 C   0  0  0  0  0  0  0  0  0  0  0  0
   -1.8279    2.0590    0.0000 O   0  0  0  0  0  0  0  0  0  0  0  0
    2.5442   -0.6192    0.0000 C   0  0  0  0  0  0  0  0  0  0  0  0
   -2.5442    1.6462    0.0000 C   0  0  0  0  0  0  0  0  0  0  0  0
    1.1009   -1.3991    0.0000 H   0  0  0  0  0  0  0  0  0  0  0  0
   -0.9488    0.2373    0.0000 H   0  0  0  0  0  0  0  0  0  0  0  0
    0.0353    1.0384    0.0000 H   0  0  0  0  0  0  0  0  0  0  0  0
    0.9687    0.8515    0.0000 H   0  0  0  0  0  0  0  0  0  0  0  0
    1.0263   -1.4916    0.0000 H   0  0  0  0  0  0  0  0  0  0  0  0
    1.2011   -2.1744    0.0000 H   0  0  0  0  0  0  0  0  0  0  0  0
   -2.0398   -1.1042    0.0000 H   0  0  0  0  0  0  0  0  0  0  0  0
    2.4969    0.7473    0.0000 H   0  0  0  0  0  0  0  0  0  0  0  0
    1.3355    0.9820    0.0000 H   0  0  0  0  0  0  0  0  0  0  0  0
    1.9614    0.9373    0.0000 H   0  0  0  0  0  0  0  0  0  0  0  0
    1.9588   -0.1339    0.0000 H   0  0  0  0  0  0  0  0  0  0  0  0
    1.2121    2.1606    0.0000 H   0  0  0  0  0  0  0  0  0  0  0  0
   -0.4135   -3.0910    0.0000 H   0  0  0  0  0  0  0  0  0  0  0  0
   -2.6735   -1.5680    0.0000 H   0  0  0  0  0  0  0  0  0  0  0  0
   -0.3884    3.0910    0.0000 H   0  0  0  0  0  0  0  0  0  0  0  0
    3.3053   -1.3713    0.0000 H   0  0  0  0  0  0  0  0  0  0  0  0
    2.8150    0.4160    0.0000 H   0  0  0  0  0  0  0  0  0  0  0  0
    3.5761   -0.3361    0.0000 H   0  0  0  0  0  0  0  0  0  0  0  0
   -3.4704    2.1819    0.0000 H   0  0  0  0  0  0  0  0  0  0  0  0
   -2.5450    0.5762    0.0000 H   0  0  0  0  0  0  0  0  0  0  0  0
   -3.4713    1.1119    0.0000 H   0  0  0  0  0  0  0  0  0  0  0  0
  1  2  1  6  0  0  0
  1  3  1  0  0  0  0
  1  4  1  0  0  0  0
  1  5  1  0  0  0  0
  2  6  2  0  0  0  0
  2  7  1  0  0  0  0
  3  8  1  0  0  0  0
  3  9  1  0  0  0  0
  3 23  1  1  0  0  0
  4 10  1  0  0  0  0
  4 11  1  0  0  0  0
  4 24  1  1  0  0  0
  5 12  1  0  0  0  0
  5 25  1  0  0  0  0
  5 26  1  0  0  0  0
  6 13  1  0  0  0  0
  6 10  1  0  0  0  0
  7 14  1  0  0  0  0
  7 15  2  0  0  0  0
  8 16  1  0  0  0  0
  8 14  1  0  0  0  0
  8 27  1  6  0  0  0
  9 17  2  0  0  0  0
  9 28  1  0  0  0  0
 11 18  1  0  0  0  0
 11 17  1  0  0  0  0
 11 29  1  1  0  0  0
 12 16  1  0  0  0  0
 12 30  1  0  0  0  0
 12 31  1  0  0  0  0
 13 19  2  0  0  0  0
 13 20  1  0  0  0  0
 14 32  1  0  0  0  0
 14 33  1  0  0  0  0
 15 19  1  0  0  0  0
 15 34  1  0  0  0  0
 16 21  1  0  0  0  0
 17 35  1  0  0  0  0
 18 36  1  0  0  0  0
 19 37  1  0  0  0  0
 20 22  1  0  0  0  0
 21 38  1  0  0  0  0
 21 39  1  0  0  0  0
 21 40  1  0  0  0  0
 22 41  1  0  0  0  0
 22 42  1  0  0  0  0
 22 43  1  0  0  0  0
M  END
>  <DRUGBANK_ID>
DB00318

>  <SECONDARY_ACCESSION_NUMBERS>
APRD00120; DB09471

>  <COMMON_NAME>
Codeine

>  <CAS_NUMBER>
76-57-3

>  <UNII>
UX6OWY2V7J

>  <SYNONYMS>
(−)-Codeine; (5alpha,6alpha)-7,8-Didehydro-4,5-epoxy-3-methoxy-17-methylmorphinan-6-ol; 7,8-didehydro-4,5α-epoxy-3-methoxy-17-methylmorphinan-6α-ol; Codein; Codeína; Codéine; Codeine anhydrous; Codeine polistirex; Codeinum; L-Codeine; Methylmorphine; morphine 3-methyl ether; Morphine monomethyl ether; morphine-3-methyl ether; O3-Methylmorphine

$$$$
