EH9
 OpenBabel10282417072D

 43 44  0  0  0  0  0  0  0  0999 V2000
    1.4385    2.5437    0.0000 C   0  0  0  0  0  0  0  0  0  0  0  0
    1.4544    1.7189    0.0000 C   0  0  0  0  0  0  0  0  0  0  0  0
    0.7480    1.2926    0.0000 C   0  0  0  0  0  0  0  0  0  0  0  0
    0.0098    2.5161    0.0000 C   0  0  0  0  0  0  0  0  0  0  0  0
    1.7571    0.4188    0.0000 C   0  0  0  0  0  0  0  0  0  0  0  0
    0.0257    1.6913    0.0000 N   0  0  0  0  0  0  0  0  0  0  0  0
    0.7162    2.9423    0.0000 N   0  0  0  0  0  0  0  0  0  0  0  0
    0.9351    0.4891    0.0000 N   0  0  0  0  0  0  0  0  0  0  0  0
    2.0780    1.1788    0.0000 N   0  0  0  0  0  0  0  0  0  0  0  0
    0.3950   -0.1345    0.0000 C   0  0  2  0  0  0  0  0  0  0  0  0
   -0.4151    0.0214    0.0000 C   0  0  0  0  0  0  0  0  0  0  0  0
    2.1448    2.9699    0.0000 N   0  0  0  0  0  0  0  0  0  0  0  0
   -0.9552   -0.6022    0.0000 C   0  0  0  0  0  0  0  0  0  0  0  0
   -1.7653   -0.4463    0.0000 C   0  0  0  0  0  0  0  0  0  0  0  0
   -2.3054   -1.0700    0.0000 C   0  0  0  0  0  0  0  0  0  0  0  0
   -3.1156   -0.9141    0.0000 C   0  0  0  0  0  0  0  0  0  0  0  0
   -3.6557   -1.5377    0.0000 C   0  0  0  0  0  0  0  0  0  0  0  0
    0.6651   -0.9141    0.0000 C   0  0  1  0  0  0  0  0  0  0  0  0
    1.4752   -1.0700    0.0000 O   0  0  0  0  0  0  0  0  0  0  0  0
    0.1250   -1.5377    0.0000 C   0  0  0  0  0  0  0  0  0  0  0  0
    0.2039    0.4173    0.0000 H   0  0  0  0  0  0  0  0  0  0  0  0
    1.0473   -0.4727    0.0000 H   0  0  0  0  0  0  0  0  0  0  0  0
   -0.8937    3.0148    0.0000 H   0  0  0  0  0  0  0  0  0  0  0  0
    2.2903   -0.4648    0.0000 H   0  0  0  0  0  0  0  0  0  0  0  0
   -0.7653    1.0325    0.0000 H   0  0  0  0  0  0  0  0  0  0  0  0
   -1.4658    0.2236    0.0000 H   0  0  0  0  0  0  0  0  0  0  0  0
    3.0068    2.4942    0.0000 H   0  0  0  0  0  0  0  0  0  0  0  0
    2.1258    3.9542    0.0000 H   0  0  0  0  0  0  0  0  0  0  0  0
   -0.6050   -1.6133    0.0000 H   0  0  0  0  0  0  0  0  0  0  0  0
   -1.6557   -1.4110    0.0000 H   0  0  0  0  0  0  0  0  0  0  0  0
   -2.1156    0.5647    0.0000 H   0  0  0  0  0  0  0  0  0  0  0  0
   -2.8160   -0.2441    0.0000 H   0  0  0  0  0  0  0  0  0  0  0  0
   -1.9551   -2.0810    0.0000 H   0  0  0  0  0  0  0  0  0  0  0  0
   -3.0059   -1.8789    0.0000 H   0  0  0  0  0  0  0  0  0  0  0  0
   -3.4658    0.0970    0.0000 H   0  0  0  0  0  0  0  0  0  0  0  0
   -4.1663   -0.7119    0.0000 H   0  0  0  0  0  0  0  0  0  0  0  0
   -4.7064   -1.3354    0.0000 H   0  0  0  0  0  0  0  0  0  0  0  0
   -3.3055   -2.5488    0.0000 H   0  0  0  0  0  0  0  0  0  0  0  0
   -4.3562   -2.3465    0.0000 H   0  0  0  0  0  0  0  0  0  0  0  0
    1.7927   -1.9866    0.0000 H   0  0  0  0  0  0  0  0  0  0  0  0
   -0.9257   -1.3354    0.0000 H   0  0  0  0  0  0  0  0  0  0  0  0
    0.4752   -2.5488    0.0000 H   0  0  0  0  0  0  0  0  0  0  0  0
   -0.5755   -2.3465    0.0000 H   0  0  0  0  0  0  0  0  0  0  0  0
  1 12  1  0  0  0  0
  1  2  2  0  0  0  0
  2  9  1  0  0  0  0
  3  2  1  0  0  0  0
  3  8  1  0  0  0  0
  4  7  2  0  0  0  0
  4  6  1  0  0  0  0
  4 23  1  0  0  0  0
  5 24  1  0  0  0  0
  6  3  2  0  0  0  0
  7  1  1  0  0  0  0
  8  5  1  0  0  0  0
  9  5  2  0  0  0  0
 10  8  1  0  0  0  0
 10 21  1  6  0  0  0
 11 10  1  0  0  0  0
 11 25  1  0  0  0  0
 11 26  1  0  0  0  0
 12 27  1  0  0  0  0
 12 28  1  0  0  0  0
 13 11  1  0  0  0  0
 13 29  1  0  0  0  0
 13 30  1  0  0  0  0
 14 13  1  0  0  0  0
 14 31  1  0  0  0  0
 14 32  1  0  0  0  0
 15 14  1  0  0  0  0
 15 33  1  0  0  0  0
 15 34  1  0  0  0  0
 16 15  1  0  0  0  0
 16 35  1  0  0  0  0
 16 36  1  0  0  0  0
 17 16  1  0  0  0  0
 17 37  1  0  0  0  0
 17 38  1  0  0  0  0
 17 39  1  0  0  0  0
 18 10  1  0  0  0  0
 18 19  1  0  0  0  0
 18 22  1  6  0  0  0
 19 40  1  0  0  0  0
 20 18  1  0  0  0  0
 20 41  1  0  0  0  0
 20 42  1  0  0  0  0
 20 43  1  0  0  0  0
M  END
>  <DRUGBANK_ID>
DB07711

>  <COMMON_NAME>
(2S,3R)-3-(6-amino-9H-purin-9-yl)nonan-2-ol

$$$$
