HTF
 OpenBabel10282417072D

 37 37  0  0  0  0  0  0  0  0999 V2000
   -3.2556    0.2546    0.0000 C   0  0  0  0  0  0  0  0  0  0  0  0
   -2.5411   -0.1579    0.0000 C   0  0  0  0  0  0  0  0  0  0  0  0
   -1.8266    0.2546    0.0000 C   0  0  0  0  0  0  0  0  0  0  0  0
   -1.1121   -0.1579    0.0000 C   0  0  0  0  0  0  0  0  0  0  0  0
   -0.3977    0.2546    0.0000 C   0  0  0  0  0  0  0  0  0  0  0  0
    0.3168   -0.1579    0.0000 C   0  0  0  0  0  0  0  0  0  0  0  0
    1.0313    0.2546    0.0000 C   0  0  0  0  0  0  0  0  0  0  0  0
    1.7457   -0.1579    0.0000 C   0  0  0  0  0  0  0  0  0  0  0  0
    1.7457   -0.9829    0.0000 O   0  0  0  0  0  0  0  0  0  0  0  0
    2.4602    0.2546    0.0000 N   0  0  0  0  0  0  0  0  0  0  0  0
    3.1747   -0.1579    0.0000 C   0  0  2  0  0  0  0  0  0  0  0  0
    3.9284    0.1777    0.0000 C   0  0  0  0  0  0  0  0  0  0  0  0
    4.0999    0.9846    0.0000 O   0  0  0  0  0  0  0  0  0  0  0  0
    4.4804   -0.4354    0.0000 O   0  0  0  0  0  0  0  0  0  0  0  0
    4.0679   -1.1499    0.0000 C   0  0  0  0  0  0  0  0  0  0  0  0
    3.2609   -0.9784    0.0000 C   0  0  0  0  0  0  0  0  0  0  0  0
    3.2052    0.4252    0.0000 H   0  0  0  0  0  0  0  0  0  0  0  0
   -3.2556    1.3246    0.0000 H   0  0  0  0  0  0  0  0  0  0  0  0
   -4.1822   -0.2804    0.0000 H   0  0  0  0  0  0  0  0  0  0  0  0
   -4.1823    0.7896    0.0000 H   0  0  0  0  0  0  0  0  0  0  0  0
   -2.5411   -1.2279    0.0000 H   0  0  0  0  0  0  0  0  0  0  0  0
   -1.6145   -0.6929    0.0000 H   0  0  0  0  0  0  0  0  0  0  0  0
   -1.8266    1.3246    0.0000 H   0  0  0  0  0  0  0  0  0  0  0  0
   -0.9000    0.7896    0.0000 H   0  0  0  0  0  0  0  0  0  0  0  0
   -1.1121   -1.2279    0.0000 H   0  0  0  0  0  0  0  0  0  0  0  0
   -0.1854   -0.6929    0.0000 H   0  0  0  0  0  0  0  0  0  0  0  0
   -0.3977    1.3246    0.0000 H   0  0  0  0  0  0  0  0  0  0  0  0
    0.5289    0.7896    0.0000 H   0  0  0  0  0  0  0  0  0  0  0  0
    0.3168   -1.2279    0.0000 H   0  0  0  0  0  0  0  0  0  0  0  0
    1.2434   -0.6929    0.0000 H   0  0  0  0  0  0  0  0  0  0  0  0
    1.0313    1.3246    0.0000 H   0  0  0  0  0  0  0  0  0  0  0  0
    1.9580    0.7896    0.0000 H   0  0  0  0  0  0  0  0  0  0  0  0
    2.4602    1.2391    0.0000 H   0  0  0  0  0  0  0  0  0  0  0  0
    4.5031   -2.1274    0.0000 H   0  0  0  0  0  0  0  0  0  0  0  0
    3.3946   -1.9815    0.0000 H   0  0  0  0  0  0  0  0  0  0  0  0
    2.4657   -1.6944    0.0000 H   0  0  0  0  0  0  0  0  0  0  0  0
    3.5379   -2.0119    0.0000 H   0  0  0  0  0  0  0  0  0  0  0  0
  1  2  1  0  0  0  0
  1 18  1  0  0  0  0
  1 19  1  0  0  0  0
  1 20  1  0  0  0  0
  2  3  1  0  0  0  0
  2 21  1  0  0  0  0
  2 22  1  0  0  0  0
  3  4  1  0  0  0  0
  3 23  1  0  0  0  0
  3 24  1  0  0  0  0
  4  5  1  0  0  0  0
  4 25  1  0  0  0  0
  4 26  1  0  0  0  0
  5  6  1  0  0  0  0
  5 27  1  0  0  0  0
  5 28  1  0  0  0  0
  6  7  1  0  0  0  0
  6 29  1  0  0  0  0
  6 30  1  0  0  0  0
  7  8  1  0  0  0  0
  7 31  1  0  0  0  0
  7 32  1  0  0  0  0
  8  9  2  0  0  0  0
  8 10  1  0  0  0  0
 10 33  1  0  0  0  0
 11 10  1  0  0  0  0
 11 12  1  0  0  0  0
 11 16  1  0  0  0  0
 11 17  1  1  0  0  0
 12 13  2  0  0  0  0
 12 14  1  0  0  0  0
 14 15  1  0  0  0  0
 15 16  1  0  0  0  0
 15 34  1  0  0  0  0
 15 35  1  0  0  0  0
 16 36  1  0  0  0  0
 16 37  1  0  0  0  0
M  END
>  <DRUGBANK_ID>
DB07928

>  <COMMON_NAME>
N-(2-OXOTETRAHYDROFURAN-3-YL)OCTANAMIDE

$$$$
