
 OpenBabel10282417072D

 85 87  0  0  1  0  0  0  0  0999 V2000
   -2.8579  -12.3750    0.0000 C   0  0  0  0  0  0  0  0  0  0  0  0
   -2.1434  -11.9625    0.0000 C   0  0  0  0  0  0  0  0  0  0  0  0
   -1.4289  -12.3750    0.0000 C   0  0  0  0  0  0  0  0  0  0  0  0
   -0.7145  -11.9625    0.0000 C   0  0  0  0  0  0  0  0  0  0  0  0
    0.0000  -12.3750    0.0000 C   0  0  0  0  0  0  0  0  0  0  0  0
    0.7145  -11.9625    0.0000 C   0  0  0  0  0  0  0  0  0  0  0  0
    1.4289  -12.3750    0.0000 C   0  0  0  0  0  0  0  0  0  0  0  0
    2.1434  -11.9625    0.0000 C   0  0  0  0  0  0  0  0  0  0  0  0
    2.8579  -12.3750    0.0000 C   0  0  0  0  0  0  0  0  0  0  0  0
    3.5724  -11.9625    0.0000 C   0  0  0  0  0  0  0  0  0  0  0  0
    4.2868  -12.3750    0.0000 C   0  0  0  0  0  0  0  0  0  0  0  0
    5.0013  -11.9625    0.0000 C   0  0  0  0  0  0  0  0  0  0  0  0
    5.7158  -12.3750    0.0000 C   0  0  0  0  0  0  0  0  0  0  0  0
    6.4302  -11.9625    0.0000 C   0  0  0  0  0  0  0  0  0  0  0  0
    6.4302  -11.1375    0.0000 O   0  0  0  0  0  0  0  0  0  0  0  0
    7.1447  -12.3750    0.0000 N   0  0  0  0  0  0  0  0  0  0  0  0
    7.8592  -11.9625    0.0000 C   0  0  0  0  0  0  0  0  0  0  0  0
    8.5737  -12.3750    0.0000 C   0  0  0  0  0  0  0  0  0  0  0  0
    8.5737  -13.2000    0.0000 O   0  0  0  0  0  0  0  0  0  0  0  0
    9.2881  -11.9625    0.0000 N   0  0  0  0  0  0  0  0  0  0  0  0
    9.2881  -11.1375    0.0000 C   0  0  2  0  0  0  0  0  0  0  0  0
    8.5737  -10.7250    0.0000 C   0  0  1  0  0  0  0  0  0  0  0  0
    7.8592  -11.1375    0.0000 O   0  0  0  0  0  0  0  0  0  0  0  0
    8.5737   -9.9000    0.0000 C   0  0  1  0  0  0  0  0  0  0  0  0
    7.8592   -9.4875    0.0000 O   0  0  0  0  0  0  0  0  0  0  0  0
    9.2881   -9.4875    0.0000 C   0  0  1  0  0  0  0  0  0  0  0  0
    9.2881   -8.6625    0.0000 N   0  0  0  0  0  0  0  0  0  0  0  0
   10.0026   -8.2500    0.0000 C   0  0  0  0  0  0  0  0  0  0  0  0
   10.0026   -7.4250    0.0000 C   0  0  0  0  0  0  0  0  0  0  0  0
    9.3895   -6.8730    0.0000 N   0  0  0  0  0  0  0  0  0  0  0  0
    9.7251   -6.1193    0.0000 C   0  0  0  0  0  0  0  0  0  0  0  0
   10.5455   -6.2055    0.0000 N   0  0  0  0  0  0  0  0  0  0  0  0
   10.7171   -7.0125    0.0000 C   0  0  0  0  0  0  0  0  0  0  0  0
   11.4315   -7.4250    0.0000 N   0  0  0  0  0  0  0  0  0  0  0  0
   11.4315   -8.2500    0.0000 C   0  0  0  0  0  0  0  0  0  0  0  0
   10.7171   -8.6625    0.0000 N   0  0  0  0  0  0  0  0  0  0  0  0
   10.0026   -9.9000    0.0000 O   0  0  0  0  0  0  0  0  0  0  0  0
   10.0026  -10.7250    0.0000 C   0  0  1  0  0  0  0  0  0  0  0  0
   10.7171  -11.1375    0.0000 C   0  0  1  0  0  0  0  0  0  0  0  0
   10.7171  -11.9625    0.0000 O   0  0  0  0  0  0  0  0  0  0  0  0
   11.4315  -10.7250    0.0000 C   0  0  0  0  0  0  0  0  0  0  0  0
   11.4315   -9.9000    0.0000 O   0  0  0  0  0  0  0  0  0  0  0  0
   -3.7845  -11.8400    0.0000 H   0  0  0  0  0  0  0  0  0  0  0  0
   -2.8579  -13.4450    0.0000 H   0  0  0  0  0  0  0  0  0  0  0  0
   -3.7846  -12.9100    0.0000 H   0  0  0  0  0  0  0  0  0  0  0  0
   -2.1434  -10.8925    0.0000 H   0  0  0  0  0  0  0  0  0  0  0  0
   -1.2168  -11.4275    0.0000 H   0  0  0  0  0  0  0  0  0  0  0  0
   -1.4289  -13.4450    0.0000 H   0  0  0  0  0  0  0  0  0  0  0  0
   -0.5022  -12.9100    0.0000 H   0  0  0  0  0  0  0  0  0  0  0  0
   -0.7145  -10.8925    0.0000 H   0  0  0  0  0  0  0  0  0  0  0  0
    0.2121  -11.4275    0.0000 H   0  0  0  0  0  0  0  0  0  0  0  0
    0.0000  -13.4450    0.0000 H   0  0  0  0  0  0  0  0  0  0  0  0
    0.9266  -12.9100    0.0000 H   0  0  0  0  0  0  0  0  0  0  0  0
    0.7145  -10.8925    0.0000 H   0  0  0  0  0  0  0  0  0  0  0  0
    1.6412  -11.4275    0.0000 H   0  0  0  0  0  0  0  0  0  0  0  0
    1.4289  -13.4450    0.0000 H   0  0  0  0  0  0  0  0  0  0  0  0
    2.3555  -12.9100    0.0000 H   0  0  0  0  0  0  0  0  0  0  0  0
    2.1434  -10.8925    0.0000 H   0  0  0  0  0  0  0  0  0  0  0  0
    3.0700  -11.4275    0.0000 H   0  0  0  0  0  0  0  0  0  0  0  0
    2.8579  -13.4450    0.0000 H   0  0  0  0  0  0  0  0  0  0  0  0
    3.7845  -12.9100    0.0000 H   0  0  0  0  0  0  0  0  0  0  0  0
    3.5724  -10.9305    0.0000 H   0  0  0  0  0  0  0  0  0  0  0  0
    4.2868  -13.4070    0.0000 H   0  0  0  0  0  0  0  0  0  0  0  0
    5.0013  -10.9305    0.0000 H   0  0  0  0  0  0  0  0  0  0  0  0
    5.7158  -13.4070    0.0000 H   0  0  0  0  0  0  0  0  0  0  0  0
    7.1447  -13.3595    0.0000 H   0  0  0  0  0  0  0  0  0  0  0  0
    7.8592  -10.8925    0.0000 H   0  0  0  0  0  0  0  0  0  0  0  0
    8.7858  -11.4275    0.0000 H   0  0  0  0  0  0  0  0  0  0  0  0
   10.1407  -12.4547    0.0000 H   0  0  0  0  0  0  0  0  0  0  0  0
    8.3614  -11.6725    0.0000 H   0  0  0  0  0  0  0  0  0  0  0  0
    8.5737  -11.7950    0.0000 H   0  0  0  0  0  0  0  0  0  0  0  0
    7.0192  -10.6525    0.0000 H   0  0  0  0  0  0  0  0  0  0  0  0
    7.6471  -10.4350    0.0000 H   0  0  0  0  0  0  0  0  0  0  0  0
    7.8592   -8.5175    0.0000 H   0  0  0  0  0  0  0  0  0  0  0  0
    8.3614   -8.9525    0.0000 H   0  0  0  0  0  0  0  0  0  0  0  0
    8.4355   -8.1702    0.0000 H   0  0  0  0  0  0  0  0  0  0  0  0
    9.2091   -5.2256    0.0000 H   0  0  0  0  0  0  0  0  0  0  0  0
   11.2042   -5.4738    0.0000 H   0  0  0  0  0  0  0  0  0  0  0  0
   12.3252   -8.7660    0.0000 H   0  0  0  0  0  0  0  0  0  0  0  0
   10.9292  -10.1900    0.0000 H   0  0  0  0  0  0  0  0  0  0  0  0
   11.6438  -11.6725    0.0000 H   0  0  0  0  0  0  0  0  0  0  0  0
    9.8771  -12.4475    0.0000 H   0  0  0  0  0  0  0  0  0  0  0  0
   12.3582  -11.2600    0.0000 H   0  0  0  0  0  0  0  0  0  0  0  0
   12.3581  -10.1900    0.0000 H   0  0  0  0  0  0  0  0  0  0  0  0
   12.2715   -9.4150    0.0000 H   0  0  0  0  0  0  0  0  0  0  0  0
  1  2  1  0  0  0  0
  1 43  1  0  0  0  0
  1 44  1  0  0  0  0
  1 45  1  0  0  0  0
  2  3  1  0  0  0  0
  2 46  1  0  0  0  0
  2 47  1  0  0  0  0
  3  4  1  0  0  0  0
  3 48  1  0  0  0  0
  3 49  1  0  0  0  0
  4  5  1  0  0  0  0
  4 50  1  0  0  0  0
  4 51  1  0  0  0  0
  5  6  1  0  0  0  0
  5 52  1  0  0  0  0
  5 53  1  0  0  0  0
  6  7  1  0  0  0  0
  6 54  1  0  0  0  0
  6 55  1  0  0  0  0
  7  8  1  0  0  0  0
  7 56  1  0  0  0  0
  7 57  1  0  0  0  0
  8  9  1  0  0  0  0
  8 58  1  0  0  0  0
  8 59  1  0  0  0  0
  9 10  1  0  0  0  0
  9 60  1  0  0  0  0
  9 61  1  0  0  0  0
 10 11  2  0  0  0  0
 10 62  1  0  0  0  0
 11 12  1  0  0  0  0
 11 63  1  0  0  0  0
 12 13  2  0  0  0  0
 12 64  1  0  0  0  0
 13 14  1  0  0  0  0
 13 65  1  0  0  0  0
 14 15  2  0  0  0  0
 14 16  1  0  0  0  0
 16 17  1  0  0  0  0
 16 66  1  0  0  0  0
 17 18  1  0  0  0  0
 17 67  1  0  0  0  0
 17 68  1  0  0  0  0
 18 19  2  0  0  0  0
 18 20  1  0  0  0  0
 20 69  1  0  0  0  0
 21 20  1  0  0  0  0
 21 22  1  0  0  0  0
 21 38  1  0  0  0  0
 21 70  1  1  0  0  0
 22 23  1  0  0  0  0
 22 24  1  0  0  0  0
 22 71  1  6  0  0  0
 23 72  1  0  0  0  0
 24 25  1  0  0  0  0
 24 26  1  0  0  0  0
 24 73  1  6  0  0  0
 25 74  1  0  0  0  0
 26 27  1  0  0  0  0
 26 37  1  0  0  0  0
 26 75  1  6  0  0  0
 27 28  1  0  0  0  0
 27 76  1  0  0  0  0
 28 29  2  0  0  0  0
 28 36  1  0  0  0  0
 29 30  1  0  0  0  0
 29 33  1  0  0  0  0
 30 31  2  0  0  0  0
 31 32  1  0  0  0  0
 31 77  1  0  0  0  0
 32 33  1  0  0  0  0
 32 78  1  0  0  0  0
 33 34  2  0  0  0  0
 34 35  1  0  0  0  0
 35 36  2  0  0  0  0
 35 79  1  0  0  0  0
 38 37  1  0  0  0  0
 38 39  1  0  0  0  0
 38 80  1  6  0  0  0
 39 40  1  0  0  0  0
 39 41  1  0  0  0  0
 39 81  1  1  0  0  0
 40 82  1  0  0  0  0
 41 42  1  0  0  0  0
 41 83  1  0  0  0  0
 41 84  1  0  0  0  0
 42 85  1  0  0  0  0
M  END
>  <DRUGBANK_ID>
DB15215

>  <COMMON_NAME>
KRN-5500

>  <CAS_NUMBER>
151276-95-8

>  <UNII>
8VH13L5K20

>  <SYNONYMS>
6-[4-Deoxy-4-[(2E,4E)-tetradecadienoylglycyl]amino-L-glycero-B-L-manno-heptopyranosyl]amino-9H-purine

$$$$
