
 OpenBabel10282417072D

 32 33  0  0  0  0  0  0  0  0999 V2000
   -0.5787    1.8667    0.0000 N   0  0  0  0  0  0  0  0  0  0  0  0
   -0.5787    1.0417    0.0000 C   0  0  0  0  0  0  0  0  0  0  0  0
    0.1333    0.6333    0.0000 N   0  0  0  0  0  0  0  0  0  0  0  0
    0.8454    1.0417    0.0000 C   0  0  0  0  0  0  0  0  0  0  0  0
    0.8454    1.8667    0.0000 C   0  0  0  0  0  0  0  0  0  0  0  0
    0.1333    2.2833    0.0000 C   0  0  0  0  0  0  0  0  0  0  0  0
   -1.2925    0.6281    0.0000 O   0  0  0  0  0  0  0  0  0  0  0  0
    0.1328   -0.1918    0.0000 C   0  0  2  0  0  0  0  0  0  0  0  0
   -0.5345   -0.6769    0.0000 O   0  0  0  0  0  0  0  0  0  0  0  0
   -0.2795   -1.4615    0.0000 C   0  0  1  0  0  0  0  0  0  0  0  0
    0.5454   -1.4615    0.0000 C   0  0  1  0  0  0  0  0  0  0  0  0
    0.8002   -0.6769    0.0000 C   0  0  1  0  0  0  0  0  0  0  0  0
   -0.7644   -2.1289    0.0000 C   0  0  0  0  0  0  0  0  0  0  0  0
   -1.5849   -2.0428    0.0000 O   0  0  0  0  0  0  0  0  0  0  0  0
    0.1333    3.1084    0.0000 N   0  0  0  0  0  0  0  0  0  0  0  0
    1.5849   -0.4219    0.0000 O   0  0  0  0  0  0  0  0  0  0  0  0
    0.5380   -2.2833    0.0000 C   0  0  0  0  0  0  0  0  0  0  0  0
    1.3688   -1.4085    0.0000 O   0  0  0  0  0  0  0  0  0  0  0  0
    0.5338   -3.1084    0.0000 C   0  0  0  0  0  0  0  0  0  0  0  0
    1.7384    0.5244    0.0000 H   0  0  0  0  0  0  0  0  0  0  0  0
    1.7406    2.3801    0.0000 H   0  0  0  0  0  0  0  0  0  0  0  0
    1.0864    0.2936    0.0000 H   0  0  0  0  0  0  0  0  0  0  0  0
   -1.3363   -1.2942    0.0000 H   0  0  0  0  0  0  0  0  0  0  0  0
    1.5569   -1.4334    0.0000 H   0  0  0  0  0  0  0  0  0  0  0  0
   -0.3291   -3.1064    0.0000 H   0  0  0  0  0  0  0  0  0  0  0  0
   -1.3932   -2.9946    0.0000 H   0  0  0  0  0  0  0  0  0  0  0  0
   -1.9796   -1.1567    0.0000 H   0  0  0  0  0  0  0  0  0  0  0  0
    0.9859    3.6006    0.0000 H   0  0  0  0  0  0  0  0  0  0  0  0
   -0.7193    3.6006    0.0000 H   0  0  0  0  0  0  0  0  0  0  0  0
    2.3058   -1.0709    0.0000 H   0  0  0  0  0  0  0  0  0  0  0  0
    1.9068   -2.2157    0.0000 H   0  0  0  0  0  0  0  0  0  0  0  0
    0.5287   -4.1024    0.0000 H   0  0  0  0  0  0  0  0  0  0  0  0
  1  2  1  0  0  0  0
  1  6  2  0  0  0  0
  2  7  2  0  0  0  0
  2  3  1  0  0  0  0
  3  4  1  0  0  0  0
  4  5  2  0  0  0  0
  4 20  1  0  0  0  0
  5  6  1  0  0  0  0
  5 21  1  0  0  0  0
  6 15  1  0  0  0  0
  8  3  1  0  0  0  0
  8  9  1  0  0  0  0
  8 22  1  6  0  0  0
  9 10  1  0  0  0  0
 10 11  1  0  0  0  0
 10 13  1  0  0  0  0
 10 23  1  6  0  0  0
 11 12  1  0  0  0  0
 11 17  1  1  0  0  0
 11 18  1  0  0  0  0
 12  8  1  0  0  0  0
 12 16  1  0  0  0  0
 12 24  1  1  0  0  0
 13 14  1  0  0  0  0
 13 25  1  0  0  0  0
 13 26  1  0  0  0  0
 14 27  1  0  0  0  0
 15 28  1  0  0  0  0
 15 29  1  0  0  0  0
 16 30  1  0  0  0  0
 17 19  3  0  0  0  0
 18 31  1  0  0  0  0
 19 32  1  0  0  0  0
M  END
>  <DRUGBANK_ID>
DB06656

>  <COMMON_NAME>
TAS-106

>  <CAS_NUMBER>
180300-43-0

>  <UNII>
Y3O05I09ZK

>  <SYNONYMS>
3'-C-Ethynylcytidine; 4-Amino-1-((2R,3R,4R,5R)-4-ethynyl-3,4-dihydroxy-5-(hydroxymethyl)oxolan-2-yl)pyrimidin-2-one

$$$$
