
 OpenBabel10282417072D

 62 65  0  0  0  0  0  0  0  0999 V2000
    4.2135   -0.1271    0.0000 C   0  0  0  0  0  0  0  0  0  0  0  0
    3.4990   -0.5396    0.0000 C   0  0  0  0  0  0  0  0  0  0  0  0
    3.4990   -1.3646    0.0000 C   0  0  0  0  0  0  0  0  0  0  0  0
    2.7845   -0.1271    0.0000 C   0  0  0  0  0  0  0  0  0  0  0  0
    2.7845    0.6979    0.0000 N   0  0  0  0  0  0  0  0  0  0  0  0
    2.0701    1.1104    0.0000 C   0  0  0  0  0  0  0  0  0  0  0  0
    1.3556    0.6979    0.0000 C   0  0  0  0  0  0  0  0  0  0  0  0
    0.6411    1.1104    0.0000 C   0  0  0  0  0  0  0  0  0  0  0  0
    0.6411    1.9354    0.0000 C   0  0  0  0  0  0  0  0  0  0  0  0
   -0.1435    2.1904    0.0000 C   0  0  0  0  0  0  0  0  0  0  0  0
   -0.6284    1.5229    0.0000 C   0  0  0  0  0  0  0  0  0  0  0  0
   -0.1435    0.8555    0.0000 C   0  0  0  0  0  0  0  0  0  0  0  0
    1.3556    2.3479    0.0000 C   0  0  0  0  0  0  0  0  0  0  0  0
    2.0701    1.9354    0.0000 C   0  0  0  0  0  0  0  0  0  0  0  0
    2.7845    2.3479    0.0000 O   0  0  0  0  0  0  0  0  0  0  0  0
    2.7845    3.1729    0.0000 C   0  0  0  0  0  0  0  0  0  0  0  0
    3.4990    3.5854    0.0000 C   0  0  0  0  0  0  0  0  0  0  0  0
    4.2135    3.1729    0.0000 C   0  0  0  0  0  0  0  0  0  0  0  0
    4.9279    3.5854    0.0000 C   0  0  0  0  0  0  0  0  0  0  0  0
    4.9279    4.4104    0.0000 C   0  0  0  0  0  0  0  0  0  0  0  0
    4.2135    4.8229    0.0000 C   0  0  0  0  0  0  0  0  0  0  0  0
    3.4990    4.4104    0.0000 C   0  0  0  0  0  0  0  0  0  0  0  0
    2.7845    4.8229    0.0000 C   0  0  0  0  0  0  0  0  0  0  0  0
    5.6424    4.8229    0.0000 C   0  0  0  0  0  0  0  0  0  0  0  0
    6.3569    4.4104    0.0000 O   0  0  0  0  0  0  0  0  0  0  0  0
    5.6424    5.6479    0.0000 O   0  0  0  0  0  0  0  0  0  0  0  0
    3.4990    1.1104    0.0000 S   0  0  0  0  0  0  0  0  0  0  0  0
    3.9115    0.3960    0.0000 O   0  0  0  0  0  0  0  0  0  0  0  0
    3.0865    1.8249    0.0000 O   0  0  0  0  0  0  0  0  0  0  0  0
    4.2135    1.5229    0.0000 C   0  0  0  0  0  0  0  0  0  0  0  0
    4.9671    1.1874    0.0000 N   0  0  0  0  0  0  0  0  0  0  0  0
    5.5192    1.8005    0.0000 C   0  0  0  0  0  0  0  0  0  0  0  0
    5.1067    2.5150    0.0000 C   0  0  0  0  0  0  0  0  0  0  0  0
    4.2997    2.3434    0.0000 S   0  0  0  0  0  0  0  0  0  0  0  0
    5.1401   -0.6621    0.0000 H   0  0  0  0  0  0  0  0  0  0  0  0
    4.2135    0.9429    0.0000 H   0  0  0  0  0  0  0  0  0  0  0  0
    5.1402    0.4079    0.0000 H   0  0  0  0  0  0  0  0  0  0  0  0
    2.5724   -1.0746    0.0000 H   0  0  0  0  0  0  0  0  0  0  0  0
    2.5724   -1.8996    0.0000 H   0  0  0  0  0  0  0  0  0  0  0  0
    4.4256   -1.8996    0.0000 H   0  0  0  0  0  0  0  0  0  0  0  0
    3.4990   -2.4346    0.0000 H   0  0  0  0  0  0  0  0  0  0  0  0
    1.8579   -0.6621    0.0000 H   0  0  0  0  0  0  0  0  0  0  0  0
    1.8579    0.4079    0.0000 H   0  0  0  0  0  0  0  0  0  0  0  0
    1.3556   -0.3341    0.0000 H   0  0  0  0  0  0  0  0  0  0  0  0
   -0.4741    3.2080    0.0000 H   0  0  0  0  0  0  0  0  0  0  0  0
   -1.2003    2.3578    0.0000 H   0  0  0  0  0  0  0  0  0  0  0  0
   -1.6984    1.5229    0.0000 H   0  0  0  0  0  0  0  0  0  0  0  0
   -1.1142    0.5695    0.0000 H   0  0  0  0  0  0  0  0  0  0  0  0
   -0.4742   -0.1621    0.0000 H   0  0  0  0  0  0  0  0  0  0  0  0
    0.6131    0.0989    0.0000 H   0  0  0  0  0  0  0  0  0  0  0  0
    1.3556    3.3799    0.0000 H   0  0  0  0  0  0  0  0  0  0  0  0
    1.8579    3.7079    0.0000 H   0  0  0  0  0  0  0  0  0  0  0  0
    2.7845    4.2429    0.0000 H   0  0  0  0  0  0  0  0  0  0  0  0
    4.2135    2.1409    0.0000 H   0  0  0  0  0  0  0  0  0  0  0  0
    5.8216    3.0694    0.0000 H   0  0  0  0  0  0  0  0  0  0  0  0
    4.2135    5.8549    0.0000 H   0  0  0  0  0  0  0  0  0  0  0  0
    2.7845    5.8929    0.0000 H   0  0  0  0  0  0  0  0  0  0  0  0
    1.8579    4.2879    0.0000 H   0  0  0  0  0  0  0  0  0  0  0  0
    1.8578    5.3579    0.0000 H   0  0  0  0  0  0  0  0  0  0  0  0
    6.3569    3.4734    0.0000 H   0  0  0  0  0  0  0  0  0  0  0  0
    6.5455    1.6926    0.0000 H   0  0  0  0  0  0  0  0  0  0  0  0
    5.5264    3.4578    0.0000 H   0  0  0  0  0  0  0  0  0  0  0  0
  1  2  1  0  0  0  0
  1 35  1  0  0  0  0
  1 36  1  0  0  0  0
  1 37  1  0  0  0  0
  2  3  1  0  0  0  0
  2  4  1  0  0  0  0
  2 38  1  0  0  0  0
  3 39  1  0  0  0  0
  3 40  1  0  0  0  0
  3 41  1  0  0  0  0
  4  5  1  0  0  0  0
  4 42  1  0  0  0  0
  4 43  1  0  0  0  0
  5  6  1  0  0  0  0
  5 27  1  0  0  0  0
  6  7  2  0  0  0  0
  6 14  1  0  0  0  0
  7  8  1  0  0  0  0
  7 44  1  0  0  0  0
  8  9  2  0  0  0  0
  8 12  1  0  0  0  0
  9 10  1  0  0  0  0
  9 13  1  0  0  0  0
 10 11  1  0  0  0  0
 10 45  1  0  0  0  0
 10 46  1  0  0  0  0
 11 12  1  0  0  0  0
 11 47  1  0  0  0  0
 11 48  1  0  0  0  0
 12 49  1  0  0  0  0
 12 50  1  0  0  0  0
 13 14  2  0  0  0  0
 13 51  1  0  0  0  0
 14 15  1  0  0  0  0
 15 16  1  0  0  0  0
 16 17  1  0  0  0  0
 16 52  1  0  0  0  0
 16 53  1  0  0  0  0
 17 18  2  0  0  0  0
 17 22  1  0  0  0  0
 18 19  1  0  0  0  0
 18 54  1  0  0  0  0
 19 20  2  0  0  0  0
 19 55  1  0  0  0  0
 20 21  1  0  0  0  0
 20 24  1  0  0  0  0
 21 22  2  0  0  0  0
 21 56  1  0  0  0  0
 22 23  1  0  0  0  0
 23 57  1  0  0  0  0
 23 58  1  0  0  0  0
 23 59  1  0  0  0  0
 24 25  1  0  0  0  0
 24 26  2  0  0  0  0
 25 60  1  0  0  0  0
 27 28  2  0  0  0  0
 27 29  2  0  0  0  0
 27 30  1  0  0  0  0
 30 31  2  0  0  0  0
 30 34  1  0  0  0  0
 31 32  1  0  0  0  0
 32 33  2  0  0  0  0
 32 61  1  0  0  0  0
 33 34  1  0  0  0  0
 33 62  1  0  0  0  0
M  END
>  <DRUGBANK_ID>
DB15325

>  <COMMON_NAME>
ONO-8539

>  <CAS_NUMBER>
459842-29-6

>  <UNII>
94W010PZ1Z

$$$$
