
 OpenBabel10282417072D

 31 31  0  0  0  0  0  0  0  0999 V2000
    0.3562   -0.2000    0.0000 C   0  0  2  0  0  0  0  0  0  0  0  0
   -0.3562   -0.6375    0.0000 C   0  0  2  0  0  0  0  0  0  0  0  0
   -1.0687   -0.2000    0.0000 C   0  0  0  0  0  0  0  0  0  0  0  0
   -1.0687    0.6125    0.0000 C   0  0  0  0  0  0  0  0  0  0  0  0
   -0.3562    1.0500    0.0000 C   0  0  1  0  0  0  0  0  0  0  0  0
    0.3562    0.6125    0.0000 C   0  0  0  0  0  0  0  0  0  0  0  0
    1.0687   -0.6000    0.0000 O   0  0  0  0  0  0  0  0  0  0  0  0
   -0.3562    1.8751    0.0000 C   0  0  0  0  0  0  0  0  0  0  0  0
    0.3562   -1.8751    0.0000 C   0  0  0  0  0  0  0  0  0  0  0  0
   -0.3562   -1.4625    0.0000 C   0  0  0  0  0  0  0  0  0  0  0  0
   -1.0687   -1.8751    0.0000 C   0  0  0  0  0  0  0  0  0  0  0  0
    0.3772   -1.2698    0.0000 H   0  0  0  0  0  0  0  0  0  0  0  0
    0.5776   -1.1599    0.0000 H   0  0  0  0  0  0  0  0  0  0  0  0
   -2.0025   -0.7224    0.0000 H   0  0  0  0  0  0  0  0  0  0  0  0
   -1.9917    0.3413    0.0000 H   0  0  0  0  0  0  0  0  0  0  0  0
   -2.0025    1.1349    0.0000 H   0  0  0  0  0  0  0  0  0  0  0  0
   -1.0904    1.6823    0.0000 H   0  0  0  0  0  0  0  0  0  0  0  0
   -1.2900    1.5724    0.0000 H   0  0  0  0  0  0  0  0  0  0  0  0
    1.2900    1.1349    0.0000 H   0  0  0  0  0  0  0  0  0  0  0  0
    0.3780    1.6823    0.0000 H   0  0  0  0  0  0  0  0  0  0  0  0
    1.0804   -1.5699    0.0000 H   0  0  0  0  0  0  0  0  0  0  0  0
    0.5704    2.4101    0.0000 H   0  0  0  0  0  0  0  0  0  0  0  0
   -1.2828    2.4101    0.0000 H   0  0  0  0  0  0  0  0  0  0  0  0
   -0.3562    2.9451    0.0000 H   0  0  0  0  0  0  0  0  0  0  0  0
    0.3547   -2.9451    0.0000 H   0  0  0  0  0  0  0  0  0  0  0  0
    1.2836   -1.3414    0.0000 H   0  0  0  0  0  0  0  0  0  0  0  0
    1.2821   -2.4114    0.0000 H   0  0  0  0  0  0  0  0  0  0  0  0
   -0.3562   -2.5325    0.0000 H   0  0  0  0  0  0  0  0  0  0  0  0
   -1.9960   -1.3413    0.0000 H   0  0  0  0  0  0  0  0  0  0  0  0
   -1.0673   -2.9451    0.0000 H   0  0  0  0  0  0  0  0  0  0  0  0
   -1.9946   -2.4113    0.0000 H   0  0  0  0  0  0  0  0  0  0  0  0
  1  7  1  0  0  0  0
  1 12  1  1  0  0  0
  2  1  1  0  0  0  0
  2 10  1  0  0  0  0
  2 13  1  6  0  0  0
  3  2  1  0  0  0  0
  3 14  1  0  0  0  0
  3 15  1  0  0  0  0
  4  3  1  0  0  0  0
  4 16  1  0  0  0  0
  4 17  1  0  0  0  0
  5  4  1  0  0  0  0
  5  8  1  0  0  0  0
  5 18  1  1  0  0  0
  6  1  1  0  0  0  0
  6  5  1  0  0  0  0
  6 19  1  0  0  0  0
  6 20  1  0  0  0  0
  7 21  1  0  0  0  0
  8 22  1  0  0  0  0
  8 23  1  0  0  0  0
  8 24  1  0  0  0  0
  9 25  1  0  0  0  0
  9 26  1  0  0  0  0
  9 27  1  0  0  0  0
 10  9  1  0  0  0  0
 10 28  1  0  0  0  0
 11 10  1  0  0  0  0
 11 29  1  0  0  0  0
 11 30  1  0  0  0  0
 11 31  1  0  0  0  0
M  END
>  <DRUGBANK_ID>
DB11344

>  <COMMON_NAME>
(+)-menthol

>  <CAS_NUMBER>
15356-60-2

>  <UNII>
C6B1OE8P3W

>  <SYNONYMS>
(+)-(1S,2R,5S)-menthol; (+)-(1S,3S,4R)-menthol; (1S,2R,5S)-(+)-menthol; (1S,2R,5S)-menthol; D-menthol

$$$$
