
 OpenBabel10282417072D

 53 56  0  0  1  0  0  0  0  0999 V2000
   -1.3910    2.8296    0.0000 H   0  0  0  0  0  0  0  0  0  0  0  0
   -1.0164    2.0945    0.0000 C   0  0  1  0  0  0  0  0  0  0  0  0
   -0.7615    1.3099    0.0000 O   0  0  0  0  0  0  0  0  0  0  0  0
   -1.4289    0.8250    0.0000 C   0  0  1  0  0  0  0  0  0  0  0  0
   -1.4289    0.0000    0.0000 O   0  0  0  0  0  0  0  0  0  0  0  0
   -0.7145   -0.4125    0.0000 C   0  0  0  0  0  0  0  0  0  0  0  0
   -0.7145   -1.2375    0.0000 C   0  0  0  0  0  0  0  0  0  0  0  0
    0.0000   -1.6500    0.0000 O   0  0  0  0  0  0  0  0  0  0  0  0
    0.7145   -1.2375    0.0000 C   0  0  0  0  0  0  0  0  0  0  0  0
    0.7145   -0.4125    0.0000 C   0  0  0  0  0  0  0  0  0  0  0  0
    0.0000   -0.0000    0.0000 C   0  0  0  0  0  0  0  0  0  0  0  0
    0.0000    0.8250    0.0000 O   0  0  0  0  0  0  0  0  0  0  0  0
    1.4289   -0.0000    0.0000 C   0  0  0  0  0  0  0  0  0  0  0  0
    1.4289    0.8250    0.0000 O   0  0  0  0  0  0  0  0  0  0  0  0
    2.1434   -0.4125    0.0000 C   0  0  0  0  0  0  0  0  0  0  0  0
    2.1434   -1.2375    0.0000 C   0  0  0  0  0  0  0  0  0  0  0  0
    2.8579   -1.6500    0.0000 O   0  0  0  0  0  0  0  0  0  0  0  0
    1.4289   -1.6500    0.0000 C   0  0  0  0  0  0  0  0  0  0  0  0
   -1.4289   -1.6500    0.0000 C   0  0  0  0  0  0  0  0  0  0  0  0
   -1.4289   -2.4750    0.0000 C   0  0  0  0  0  0  0  0  0  0  0  0
   -2.1434   -2.8875    0.0000 C   0  0  0  0  0  0  0  0  0  0  0  0
   -2.8579   -2.4750    0.0000 C   0  0  0  0  0  0  0  0  0  0  0  0
   -3.5724   -2.8875    0.0000 O   0  0  0  0  0  0  0  0  0  0  0  0
   -2.8579   -1.6500    0.0000 C   0  0  0  0  0  0  0  0  0  0  0  0
   -3.5724   -1.2375    0.0000 O   0  0  0  0  0  0  0  0  0  0  0  0
   -2.1434   -1.2375    0.0000 C   0  0  0  0  0  0  0  0  0  0  0  0
   -2.0964    1.3099    0.0000 C   0  0  2  0  0  0  0  0  0  0  0  0
   -2.8810    1.0550    0.0000 O   0  0  0  0  0  0  0  0  0  0  0  0
   -1.8414    2.0945    0.0000 C   0  0  1  0  0  0  0  0  0  0  0  0
   -2.3264    2.7620    0.0000 O   0  0  0  0  0  0  0  0  0  0  0  0
   -0.5315    2.7620    0.0000 C   0  0  2  0  0  0  0  0  0  0  0  0
   -0.8671    3.5157    0.0000 O   0  0  0  0  0  0  0  0  0  0  0  0
    0.2890    2.6757    0.0000 C   0  0  0  0  0  0  0  0  0  0  0  0
    0.7739    3.3432    0.0000 O   0  0  0  0  0  0  0  0  0  0  0  0
   -0.4755    0.3392    0.0000 H   0  0  0  0  0  0  0  0  0  0  0  0
    2.2404    1.2935    0.0000 H   0  0  0  0  0  0  0  0  0  0  0  0
    3.0371    0.1035    0.0000 H   0  0  0  0  0  0  0  0  0  0  0  0
    2.8579   -2.5870    0.0000 H   0  0  0  0  0  0  0  0  0  0  0  0
    1.4289   -2.6820    0.0000 H   0  0  0  0  0  0  0  0  0  0  0  0
   -0.5352   -2.9910    0.0000 H   0  0  0  0  0  0  0  0  0  0  0  0
   -2.1434   -3.9195    0.0000 H   0  0  0  0  0  0  0  0  0  0  0  0
   -4.3839   -2.4190    0.0000 H   0  0  0  0  0  0  0  0  0  0  0  0
   -3.5724   -0.3005    0.0000 H   0  0  0  0  0  0  0  0  0  0  0  0
   -2.1434   -0.2055    0.0000 H   0  0  0  0  0  0  0  0  0  0  0  0
   -2.2638    0.2531    0.0000 H   0  0  0  0  0  0  0  0  0  0  0  0
   -3.6018    1.7041    0.0000 H   0  0  0  0  0  0  0  0  0  0  0  0
   -2.8982    1.9271    0.0000 H   0  0  0  0  0  0  0  0  0  0  0  0
   -1.9319    3.6482    0.0000 H   0  0  0  0  0  0  0  0  0  0  0  0
    0.0974    3.6276    0.0000 H   0  0  0  0  0  0  0  0  0  0  0  0
   -0.2970    4.3005    0.0000 H   0  0  0  0  0  0  0  0  0  0  0  0
    0.7242    1.6982    0.0000 H   0  0  0  0  0  0  0  0  0  0  0  0
    1.3531    2.5639    0.0000 H   0  0  0  0  0  0  0  0  0  0  0  0
    1.7386    3.2419    0.0000 H   0  0  0  0  0  0  0  0  0  0  0  0
  2  1  1  6  0  0  0
  2  3  1  0  0  0  0
  2 29  1  0  0  0  0
  2 31  1  0  0  0  0
  4  3  1  0  0  0  0
  4  5  1  0  0  0  0
  4 35  1  6  0  0  0
  5  6  1  0  0  0  0
  6  7  2  0  0  0  0
  6 11  1  0  0  0  0
  7  8  1  0  0  0  0
  7 19  1  0  0  0  0
  8  9  1  0  0  0  0
  9 10  2  0  0  0  0
  9 18  1  0  0  0  0
 10 11  1  0  0  0  0
 10 13  1  0  0  0  0
 11 12  2  0  0  0  0
 13 14  1  0  0  0  0
 13 15  2  0  0  0  0
 14 36  1  0  0  0  0
 15 16  1  0  0  0  0
 15 37  1  0  0  0  0
 16 17  1  0  0  0  0
 16 18  2  0  0  0  0
 17 38  1  0  0  0  0
 18 39  1  0  0  0  0
 19 20  2  0  0  0  0
 19 26  1  0  0  0  0
 20 21  1  0  0  0  0
 20 40  1  0  0  0  0
 21 22  2  0  0  0  0
 21 41  1  0  0  0  0
 22 23  1  0  0  0  0
 22 24  1  0  0  0  0
 23 42  1  0  0  0  0
 24 25  1  0  0  0  0
 24 26  2  0  0  0  0
 25 43  1  0  0  0  0
 26 44  1  0  0  0  0
 27  4  1  0  0  0  0
 27 28  1  0  0  0  0
 27 45  1  1  0  0  0
 28 46  1  0  0  0  0
 29 27  1  0  0  0  0
 29 30  1  0  0  0  0
 29 47  1  6  0  0  0
 30 48  1  0  0  0  0
 31 32  1  0  0  0  0
 31 33  1  0  0  0  0
 31 49  1  1  0  0  0
 32 50  1  0  0  0  0
 33 34  1  0  0  0  0
 33 51  1  0  0  0  0
 33 52  1  0  0  0  0
 34 53  1  0  0  0  0
M  END
>  <DRUGBANK_ID>
DB16403

>  <COMMON_NAME>
Isoquercitrin

>  <CAS_NUMBER>
21637-25-2

>  <UNII>
0YX10VRV6J

>  <SYNONYMS>
Isoquercetin enzymatically modified; Isoquercitroside; Isotrifoliin; Isotrifolin; Quercetin 3-(beta-D-glucofuranoside)

$$$$
