1111
 OpenBabel10282417072D

212212  0  0  1  0  0  0  0  0999 V2000
    9.8947   10.0289    0.0000 S   0  0  0  0  0  0  0  0  0  0  0  0
   21.4858    6.1320    0.0000 S   0  0  0  0  0  0  0  0  0  0  0  0
   19.5075    1.3550    0.0000 S   0  0  0  0  0  0  0  0  0  0  0  0
    7.1341    7.9909    0.0000 S   0  0  0  0  0  0  0  0  0  0  0  0
    3.2839    6.1057    0.0000 S   0  0  0  0  0  0  0  0  0  0  0  0
   16.5334    9.5561    0.0000 O   0  0  0  0  0  0  0  0  0  0  0  0
   18.6297    7.3115    0.0000 O   0  0  0  0  0  0  0  0  0  0  0  0
   13.4621    9.5561    0.0000 O   0  0  0  0  0  0  0  0  0  0  0  0
   11.3657    7.3115    0.0000 O   0  0  0  0  0  0  0  0  0  0  0  0
   18.4201    4.2474    0.0000 O   0  0  0  0  0  0  0  0  0  0  0  0
   11.0547    4.8580    0.0000 O   0  0  0  0  0  0  0  0  0  0  0  0
   14.5345    1.7191    0.0000 O   0  0  0  0  0  0  0  0  0  0  0  0
   16.0377    2.3091    0.0000 O   0  0  0  0  0  0  0  0  0  0  0  0
    8.0275    2.9167    0.0000 O   0  0  0  0  0  0  0  0  0  0  0  0
   12.9950    2.7273    0.0000 O   0  0  0  0  0  0  0  0  0  0  0  0
    8.2225    5.7680    0.0000 O   0  0  0  0  0  0  0  0  0  0  0  0
    7.2044    2.9729    0.0000 O   0  0  0  0  0  0  0  0  0  0  0  0
    4.3723    3.8829    0.0000 O   0  0  0  0  0  0  0  0  0  0  0  0
    9.3740   10.6688    0.0000 O   0  5  0  0  0  0  0  0  0  0  0  0
    9.2547    9.5082    0.0000 O   0  0  0  0  0  0  0  0  0  0  0  0
   10.5347   10.5495    0.0000 O   0  0  0  0  0  0  0  0  0  0  0  0
   22.2935    5.9642    0.0000 O   0  5  0  0  0  0  0  0  0  0  0  0
   21.3179    5.3243    0.0000 O   0  0  0  0  0  0  0  0  0  0  0  0
   21.6536    6.9398    0.0000 O   0  0  0  0  0  0  0  0  0  0  0  0
   19.9362    0.6501    0.0000 O   0  5  0  0  0  0  0  0  0  0  0  0
   18.8026    0.9263    0.0000 O   0  0  0  0  0  0  0  0  0  0  0  0
   20.2124    1.7837    0.0000 O   0  0  0  0  0  0  0  0  0  0  0  0
    6.7714    8.7319    0.0000 O   0  5  0  0  0  0  0  0  0  0  0  0
    7.8752    8.3537    0.0000 O   0  0  0  0  0  0  0  0  0  0  0  0
    6.3932    7.6281    0.0000 O   0  0  0  0  0  0  0  0  0  0  0  0
    2.9211    6.8468    0.0000 O   0  5  0  0  0  0  0  0  0  0  0  0
    2.5429    5.7430    0.0000 O   0  0  0  0  0  0  0  0  0  0  0  0
    4.0249    6.4686    0.0000 O   0  0  0  0  0  0  0  0  0  0  0  0
   16.9096    8.3707    0.0000 N   0  0  0  0  0  0  0  0  0  0  0  0
   14.5853    9.0220    0.0000 N   0  0  0  0  0  0  0  0  0  0  0  0
   18.0202    6.2274    0.0000 N   0  0  0  0  0  0  0  0  0  0  0  0
   12.5228    7.7678    0.0000 N   0  0  0  0  0  0  0  0  0  0  0  0
   11.1522    6.2838    0.0000 N   0  0  0  0  0  0  0  0  0  0  0  0
   17.2118    3.9529    0.0000 N   0  0  0  0  0  0  0  0  0  0  0  0
   14.9978    2.9912    0.0000 N   0  0  0  0  0  0  0  0  0  0  0  0
    9.4084    4.9707    0.0000 N   0  0  0  0  0  0  0  0  0  0  0  0
   12.7837    3.9529    0.0000 N   0  0  0  0  0  0  0  0  0  0  0  0
   11.2299    9.5198    0.0000 N   0  0  0  0  0  0  0  0  0  0  0  0
   20.1287    5.6842    0.0000 N   0  0  0  0  0  0  0  0  0  0  0  0
    7.3020    4.3986    0.0000 N   0  0  0  0  0  0  0  0  0  0  0  0
    5.5582    3.0855    0.0000 N   0  0  0  0  0  0  0  0  0  0  0  0
   18.2540    2.0411    0.0000 N   0  0  0  0  0  0  0  0  0  0  0  0
    8.3200    7.1936    0.0000 N   0  0  0  0  0  0  0  0  0  0  0  0
    4.4698    5.3085    0.0000 N   0  0  0  0  0  0  0  0  0  0  0  0
   15.4103    9.0220    0.0000 C   0  0  3  0  0  0  0  0  0  0  0  0
   17.4728    7.7678    0.0000 C   0  0  3  0  0  0  0  0  0  0  0  0
   15.5226    9.8393    0.0000 C   0  0  0  0  0  0  0  0  0  0  0  0
   18.1468    8.2436    0.0000 C   0  0  0  0  0  0  0  0  0  0  0  0
   14.8710   10.3453    0.0000 C   0  0  0  0  0  0  0  0  0  0  0  0
   18.0718    9.0651    0.0000 C   0  0  0  0  0  0  0  0  0  0  0  0
   16.2047    8.7994    0.0000 C   0  0  0  0  0  0  0  0  0  0  0  0
   13.0859    8.3707    0.0000 C   0  0  3  0  0  0  0  0  0  0  0  0
   17.8523    7.0352    0.0000 C   0  0  0  0  0  0  0  0  0  0  0  0
   17.9639    5.4043    0.0000 C   0  0  3  0  0  0  0  0  0  0  0  0
   13.7908    8.7994    0.0000 C   0  0  0  0  0  0  0  0  0  0  0  0
   11.9754    6.2274    0.0000 C   0  0  3  0  0  0  0  0  0  0  0  0
   12.5652    9.0107    0.0000 C   0  0  0  0  0  0  0  0  0  0  0  0
   18.7716    5.2365    0.0000 C   0  0  0  0  0  0  0  0  0  0  0  0
   14.9833   11.1626    0.0000 C   0  0  0  0  0  0  0  0  0  0  0  0
   14.1069   10.0339    0.0000 C   0  0  0  0  0  0  0  0  0  0  0  0
   18.7458    9.5409    0.0000 C   0  0  0  0  0  0  0  0  0  0  0  0
   17.3227    9.4110    0.0000 C   0  0  0  0  0  0  0  0  0  0  0  0
   12.0316    5.4043    0.0000 C   0  0  0  0  0  0  0  0  0  0  0  0
   16.5719    3.4322    0.0000 C   0  0  3  0  0  0  0  0  0  0  0  0
   12.1432    7.0352    0.0000 C   0  0  0  0  0  0  0  0  0  0  0  0
   17.6876    4.6270    0.0000 C   0  0  0  0  0  0  0  0  0  0  0  0
    9.8688    5.6554    0.0000 C   0  0  3  0  0  0  0  0  0  0  0  0
    1.7079    1.2004    0.0000 C   0  0  3  0  0  0  0  0  0  0  0  0
   11.7506    8.8797    0.0000 C   0  0  0  0  0  0  0  0  0  0  0  0
    2.1683    1.8851    0.0000 C   0  0  0  0  0  0  0  0  0  0  0  0
   12.3079    4.6270    0.0000 C   0  0  0  0  0  0  0  0  0  0  0  0
   19.3210    5.8521    0.0000 C   0  0  0  0  0  0  0  0  0  0  0  0
   17.0005    2.7273    0.0000 C   0  0  0  0  0  0  0  0  0  0  0  0
    2.9913    1.8288    0.0000 C   0  0  0  0  0  0  0  0  0  0  0  0
   14.1804    3.1035    0.0000 C   0  0  3  0  0  0  0  0  0  0  0  0
   10.6919    5.5991    0.0000 C   0  0  0  0  0  0  0  0  0  0  0  0
    9.5059    6.3963    0.0000 C   0  0  0  0  0  0  0  0  0  0  0  0
    3.4517    2.5135    0.0000 C   0  0  0  0  0  0  0  0  0  0  0  0
   15.8151    3.1035    0.0000 C   0  0  0  0  0  0  0  0  0  0  0  0
    8.1250    4.3423    0.0000 C   0  0  3  0  0  0  0  0  0  0  0  0
    0.8848    1.2567    0.0000 C   0  0  0  0  0  0  0  0  0  0  0  0
    6.0185    3.7702    0.0000 C   0  0  3  0  0  0  0  0  0  0  0  0
   13.9578    2.3091    0.0000 C   0  0  3  0  0  0  0  0  0  0  0  0
   13.4237    3.4322    0.0000 C   0  0  0  0  0  0  0  0  0  0  0  0
   17.8253    2.7461    0.0000 C   0  0  0  0  0  0  0  0  0  0  0  0
    4.2747    2.4572    0.0000 C   0  0  0  0  0  0  0  0  0  0  0  0
    2.0708    0.4594    0.0000 C   0  0  0  0  0  0  0  0  0  0  0  0
    8.5854    5.0270    0.0000 C   0  0  0  0  0  0  0  0  0  0  0  0
    8.6829    6.4527    0.0000 C   0  0  0  0  0  0  0  0  0  0  0  0
    8.4879    3.6014    0.0000 C   0  0  3  0  0  0  0  0  0  0  0  0
    5.6557    4.5112    0.0000 C   0  0  0  0  0  0  0  0  0  0  0  0
    6.8416    3.7139    0.0000 C   0  0  0  0  0  0  0  0  0  0  0  0
    4.7351    3.1418    0.0000 C   0  0  0  0  0  0  0  0  0  0  0  0
    0.4245    0.5720    0.0000 C   0  0  0  0  0  0  0  0  0  0  0  0
   10.4154    9.3889    0.0000 C   0  0  0  0  0  0  0  0  0  0  0  0
    4.8326    4.5675    0.0000 C   0  0  0  0  0  0  0  0  0  0  0  0
   13.1585    2.1047    0.0000 C   0  0  0  0  0  0  0  0  0  0  0  0
   20.6780    6.2999    0.0000 C   0  0  0  0  0  0  0  0  0  0  0  0
    9.3109    3.5450    0.0000 C   0  0  0  0  0  0  0  0  0  0  0  0
   19.0788    2.0599    0.0000 C   0  0  0  0  0  0  0  0  0  0  0  0
    7.4970    7.2499    0.0000 C   0  0  0  0  0  0  0  0  0  0  0  0
    3.6467    5.3648    0.0000 C   0  0  0  0  0  0  0  0  0  0  0  0
   14.2728    0.7851    0.0000 H   0  0  0  0  0  0  0  0  0  0  0  0
    7.0598    2.9830    0.0000 H   0  0  0  0  0  0  0  0  0  0  0  0
   17.5309    9.1344    0.0000 H   0  0  0  0  0  0  0  0  0  0  0  0
   14.4512    9.9973    0.0000 H   0  0  0  0  0  0  0  0  0  0  0  0
   19.0024    6.2946    0.0000 H   0  0  0  0  0  0  0  0  0  0  0  0
   11.7185    8.3356    0.0000 H   0  0  0  0  0  0  0  0  0  0  0  0
   10.7193    7.1680    0.0000 H   0  0  0  0  0  0  0  0  0  0  0  0
   17.9314    3.2810    0.0000 H   0  0  0  0  0  0  0  0  0  0  0  0
   14.9978    2.0067    0.0000 H   0  0  0  0  0  0  0  0  0  0  0  0
    9.8413    4.0865    0.0000 H   0  0  0  0  0  0  0  0  0  0  0  0
   12.0642    3.2809    0.0000 H   0  0  0  0  0  0  0  0  0  0  0  0
   11.5933   10.4729    0.0000 H   0  0  0  0  0  0  0  0  0  0  0  0
   20.4483    4.7156    0.0000 H   0  0  0  0  0  0  0  0  0  0  0  0
    6.8691    5.2828    0.0000 H   0  0  0  0  0  0  0  0  0  0  0  0
    5.9911    2.2013    0.0000 H   0  0  0  0  0  0  0  0  0  0  0  0
   17.7642    1.1464    0.0000 H   0  0  0  0  0  0  0  0  0  0  0  0
    8.8890    8.0401    0.0000 H   0  0  0  0  0  0  0  0  0  0  0  0
    5.0389    6.1550    0.0000 H   0  0  0  0  0  0  0  0  0  0  0  0
   14.7071    9.8285    0.0000 H   0  0  0  0  0  0  0  0  0  0  0  0
   17.5821    8.8322    0.0000 H   0  0  0  0  0  0  0  0  0  0  0  0
   16.5135   10.2431    0.0000 H   0  0  0  0  0  0  0  0  0  0  0  0
   15.6684   10.8993    0.0000 H   0  0  0  0  0  0  0  0  0  0  0  0
   19.1183    7.7951    0.0000 H   0  0  0  0  0  0  0  0  0  0  0  0
   19.0210    8.8606    0.0000 H   0  0  0  0  0  0  0  0  0  0  0  0
   14.0258   11.0015    0.0000 H   0  0  0  0  0  0  0  0  0  0  0  0
   17.9745   10.1307    0.0000 H   0  0  0  0  0  0  0  0  0  0  0  0
   13.7612    7.5407    0.0000 H   0  0  0  0  0  0  0  0  0  0  0  0
   18.8165    6.0509    0.0000 H   0  0  0  0  0  0  0  0  0  0  0  0
   11.2187    5.4709    0.0000 H   0  0  0  0  0  0  0  0  0  0  0  0
   12.9463   10.0105    0.0000 H   0  0  0  0  0  0  0  0  0  0  0  0
   11.8899    9.8407    0.0000 H   0  0  0  0  0  0  0  0  0  0  0  0
   19.1068    4.2204    0.0000 H   0  0  0  0  0  0  0  0  0  0  0  0
   19.8192    5.0187    0.0000 H   0  0  0  0  0  0  0  0  0  0  0  0
   15.9741   11.5665    0.0000 H   0  0  0  0  0  0  0  0  0  0  0  0
   14.1381   11.8188    0.0000 H   0  0  0  0  0  0  0  0  0  0  0  0
   15.1290   12.2226    0.0000 H   0  0  0  0  0  0  0  0  0  0  0  0
   13.2617   10.6901    0.0000 H   0  0  0  0  0  0  0  0  0  0  0  0
   13.9612    8.9739    0.0000 H   0  0  0  0  0  0  0  0  0  0  0  0
   13.1160    9.6301    0.0000 H   0  0  0  0  0  0  0  0  0  0  0  0
   19.7173    9.0924    0.0000 H   0  0  0  0  0  0  0  0  0  0  0  0
   18.6485   10.6065    0.0000 H   0  0  0  0  0  0  0  0  0  0  0  0
   19.6199   10.1580    0.0000 H   0  0  0  0  0  0  0  0  0  0  0  0
   17.2255   10.4766    0.0000 H   0  0  0  0  0  0  0  0  0  0  0  0
   16.4485    8.7940    0.0000 H   0  0  0  0  0  0  0  0  0  0  0  0
   16.3513    9.8596    0.0000 H   0  0  0  0  0  0  0  0  0  0  0  0
   10.9840    5.1866    0.0000 H   0  0  0  0  0  0  0  0  0  0  0  0
   11.5072    4.4716    0.0000 H   0  0  0  0  0  0  0  0  0  0  0  0
   17.6263    3.2504    0.0000 H   0  0  0  0  0  0  0  0  0  0  0  0
   10.3393    4.6944    0.0000 H   0  0  0  0  0  0  0  0  0  0  0  0
    1.2374    2.1614    0.0000 H   0  0  0  0  0  0  0  0  0  0  0  0
   11.3694    7.8799    0.0000 H   0  0  0  0  0  0  0  0  0  0  0  0
   12.4259    8.0497    0.0000 H   0  0  0  0  0  0  0  0  0  0  0  0
    1.6978    2.8461    0.0000 H   0  0  0  0  0  0  0  0  0  0  0  0
    2.7653    2.7731    0.0000 H   0  0  0  0  0  0  0  0  0  0  0  0
   11.3579    4.1347    0.0000 H   0  0  0  0  0  0  0  0  0  0  0  0
   11.3125    5.0195    0.0000 H   0  0  0  0  0  0  0  0  0  0  0  0
   18.9858    6.8683    0.0000 H   0  0  0  0  0  0  0  0  0  0  0  0
   18.2734    6.0699    0.0000 H   0  0  0  0  0  0  0  0  0  0  0  0
   16.4867    1.7887    0.0000 H   0  0  0  0  0  0  0  0  0  0  0  0
   17.5565    1.8131    0.0000 H   0  0  0  0  0  0  0  0  0  0  0  0
    3.4618    0.8678    0.0000 H   0  0  0  0  0  0  0  0  0  0  0  0
    4.0588    1.7557    0.0000 H   0  0  0  0  0  0  0  0  0  0  0  0
   14.7673    2.2088    0.0000 H   0  0  0  0  0  0  0  0  0  0  0  0
   10.1029    7.2843    0.0000 H   0  0  0  0  0  0  0  0  0  0  0  0
    9.0354    7.3573    0.0000 H   0  0  0  0  0  0  0  0  0  0  0  0
    2.9812    3.4745    0.0000 H   0  0  0  0  0  0  0  0  0  0  0  0
    4.0487    3.4015    0.0000 H   0  0  0  0  0  0  0  0  0  0  0  0
    7.6545    5.3033    0.0000 H   0  0  0  0  0  0  0  0  0  0  0  0
    0.4143    2.2177    0.0000 H   0  0  0  0  0  0  0  0  0  0  0  0
   -0.1827    1.3297    0.0000 H   0  0  0  0  0  0  0  0  0  0  0  0
    4.9510    3.8432    0.0000 H   0  0  0  0  0  0  0  0  0  0  0  0
   14.9944    2.5742    0.0000 H   0  0  0  0  0  0  0  0  0  0  0  0
   18.3391    3.6847    0.0000 H   0  0  0  0  0  0  0  0  0  0  0  0
   17.2693    3.6603    0.0000 H   0  0  0  0  0  0  0  0  0  0  0  0
    4.7451    1.4962    0.0000 H   0  0  0  0  0  0  0  0  0  0  0  0
    5.3422    2.3841    0.0000 H   0  0  0  0  0  0  0  0  0  0  0  0
    1.4739   -0.4286    0.0000 H   0  0  0  0  0  0  0  0  0  0  0  0
    3.1383    0.3865    0.0000 H   0  0  0  0  0  0  0  0  0  0  0  0
    2.5414   -0.5015    0.0000 H   0  0  0  0  0  0  0  0  0  0  0  0
    8.0859    5.5647    0.0000 H   0  0  0  0  0  0  0  0  0  0  0  0
    9.1534    5.4917    0.0000 H   0  0  0  0  0  0  0  0  0  0  0  0
    7.4204    3.6744    0.0000 H   0  0  0  0  0  0  0  0  0  0  0  0
    6.2527    5.3992    0.0000 H   0  0  0  0  0  0  0  0  0  0  0  0
    5.1852    5.4722    0.0000 H   0  0  0  0  0  0  0  0  0  0  0  0
   -0.6430    0.6450    0.0000 H   0  0  0  0  0  0  0  0  0  0  0  0
    0.8950   -0.3890    0.0000 H   0  0  0  0  0  0  0  0  0  0  0  0
   -0.1725   -0.3160    0.0000 H   0  0  0  0  0  0  0  0  0  0  0  0
   10.0342    8.3891    0.0000 H   0  0  0  0  0  0  0  0  0  0  0  0
   11.0907    8.5589    0.0000 H   0  0  0  0  0  0  0  0  0  0  0  0
    4.2356    3.6795    0.0000 H   0  0  0  0  0  0  0  0  0  0  0  0
    5.3031    3.6065    0.0000 H   0  0  0  0  0  0  0  0  0  0  0  0
   12.4106    2.8699    0.0000 H   0  0  0  0  0  0  0  0  0  0  0  0
   12.8698    1.0744    0.0000 H   0  0  0  0  0  0  0  0  0  0  0  0
   12.1219    1.8396    0.0000 H   0  0  0  0  0  0  0  0  0  0  0  0
   20.3427    7.3160    0.0000 H   0  0  0  0  0  0  0  0  0  0  0  0
   19.6304    6.5176    0.0000 H   0  0  0  0  0  0  0  0  0  0  0  0
    9.7813    2.5839    0.0000 H   0  0  0  0  0  0  0  0  0  0  0  0
    9.9080    4.4329    0.0000 H   0  0  0  0  0  0  0  0  0  0  0  0
   10.3784    3.4718    0.0000 H   0  0  0  0  0  0  0  0  0  0  0  0
   19.5925    2.9985    0.0000 H   0  0  0  0  0  0  0  0  0  0  0  0
   18.5228    2.9741    0.0000 H   0  0  0  0  0  0  0  0  0  0  0  0
    6.9001    6.3619    0.0000 H   0  0  0  0  0  0  0  0  0  0  0  0
    7.9675    6.2889    0.0000 H   0  0  0  0  0  0  0  0  0  0  0  0
    3.0497    4.4768    0.0000 H   0  0  0  0  0  0  0  0  0  0  0  0
    4.1172    4.4038    0.0000 H   0  0  0  0  0  0  0  0  0  0  0  0
  1 19  1  0  0  0  0
  1 20  2  0  0  0  0
  1 21  2  0  0  0  0
  1100  1  0  0  0  0
  2 22  1  0  0  0  0
  2 23  2  0  0  0  0
  2 24  2  0  0  0  0
  2103  1  0  0  0  0
  3 25  1  0  0  0  0
  3 26  2  0  0  0  0
  3 27  2  0  0  0  0
  3105  1  0  0  0  0
  4 28  1  0  0  0  0
  4 29  2  0  0  0  0
  4 30  2  0  0  0  0
  4106  1  0  0  0  0
  5 31  1  0  0  0  0
  5 32  2  0  0  0  0
  5 33  2  0  0  0  0
  5107  1  0  0  0  0
  6 56  2  0  0  0  0
  7 58  2  0  0  0  0
  8 60  2  0  0  0  0
  9 70  2  0  0  0  0
 10 71  2  0  0  0  0
 11 81  2  0  0  0  0
 12 88  1  0  0  0  0
 12108  1  0  0  0  0
 13 84  2  0  0  0  0
 14 95  1  0  0  0  0
 14109  1  0  0  0  0
 15 89  2  0  0  0  0
 16 93  2  0  0  0  0
 17 97  2  0  0  0  0
 18 98  2  0  0  0  0
 34 51  1  0  0  0  0
 34 56  1  0  0  0  0
 34110  1  0  0  0  0
 35 50  1  0  0  0  0
 35 60  1  0  0  0  0
 35111  1  0  0  0  0
 36 58  1  0  0  0  0
 36 59  1  0  0  0  0
 36112  1  0  0  0  0
 37 57  1  0  0  0  0
 37 70  1  0  0  0  0
 37113  1  0  0  0  0
 38 61  1  0  0  0  0
 38 81  1  0  0  0  0
 38114  1  0  0  0  0
 39 69  1  0  0  0  0
 39 71  1  0  0  0  0
 39115  1  0  0  0  0
 40 80  1  0  0  0  0
 40 84  1  0  0  0  0
 40116  1  0  0  0  0
 41 72  1  0  0  0  0
 41 93  1  0  0  0  0
 41117  1  0  0  0  0
 42 76  1  0  0  0  0
 42 89  1  0  0  0  0
 42118  1  0  0  0  0
 43 74  1  0  0  0  0
 43100  1  0  0  0  0
 43119  1  0  0  0  0
 44 77  1  0  0  0  0
 44103  1  0  0  0  0
 44120  1  0  0  0  0
 45 85  1  0  0  0  0
 45 97  1  0  0  0  0
 45121  1  0  0  0  0
 46 87  1  0  0  0  0
 46 98  1  0  0  0  0
 46122  1  0  0  0  0
 47 90  1  0  0  0  0
 47105  1  0  0  0  0
 47123  1  0  0  0  0
 48 94  1  0  0  0  0
 48106  1  0  0  0  0
 48124  1  0  0  0  0
 49101  1  0  0  0  0
 49107  1  0  0  0  0
 49125  1  0  0  0  0
 50 52  1  0  0  0  0
 50 56  1  0  0  0  0
 50126  1  0  0  0  0
 51 53  1  0  0  0  0
 51 58  1  0  0  0  0
 51127  1  0  0  0  0
 52 54  1  0  0  0  0
 52128  1  0  0  0  0
 52129  1  0  0  0  0
 53 55  1  0  0  0  0
 53130  1  0  0  0  0
 53131  1  0  0  0  0
 54 64  1  0  0  0  0
 54 65  1  0  0  0  0
 54132  1  0  0  0  0
 55 66  1  0  0  0  0
 55 67  1  0  0  0  0
 55133  1  0  0  0  0
 57 60  1  0  0  0  0
 57 62  1  0  0  0  0
 57134  1  0  0  0  0
 59 63  1  0  0  0  0
 59 71  1  0  0  0  0
 59135  1  0  0  0  0
 61 68  1  0  0  0  0
 61 70  1  0  0  0  0
 61136  1  0  0  0  0
 62 74  1  0  0  0  0
 62137  1  0  0  0  0
 62138  1  0  0  0  0
 63 77  1  0  0  0  0
 63139  1  0  0  0  0
 63140  1  0  0  0  0
 64141  1  0  0  0  0
 64142  1  0  0  0  0
 64143  1  0  0  0  0
 65144  1  0  0  0  0
 65145  1  0  0  0  0
 65146  1  0  0  0  0
 66147  1  0  0  0  0
 66148  1  0  0  0  0
 66149  1  0  0  0  0
 67150  1  0  0  0  0
 67151  1  0  0  0  0
 67152  1  0  0  0  0
 68 76  1  0  0  0  0
 68153  1  0  0  0  0
 68154  1  0  0  0  0
 69 78  1  0  0  0  0
 69 84  1  0  0  0  0
 69155  1  0  0  0  0
 72 81  1  0  0  0  0
 72 82  1  0  0  0  0
 72156  1  0  0  0  0
 73 75  1  0  0  0  0
 73 86  1  0  0  0  0
 73 92  1  0  0  0  0
 73157  1  0  0  0  0
 74158  1  0  0  0  0
 74159  1  0  0  0  0
 75 79  1  0  0  0  0
 75160  1  0  0  0  0
 75161  1  0  0  0  0
 76162  1  0  0  0  0
 76163  1  0  0  0  0
 77164  1  0  0  0  0
 77165  1  0  0  0  0
 78 90  1  0  0  0  0
 78166  1  0  0  0  0
 78167  1  0  0  0  0
 79 83  1  0  0  0  0
 79168  1  0  0  0  0
 79169  1  0  0  0  0
 80 88  1  0  0  0  0
 80 89  1  0  0  0  0
 80170  1  0  0  0  0
 82 94  1  0  0  0  0
 82171  1  0  0  0  0
 82172  1  0  0  0  0
 83 91  1  0  0  0  0
 83173  1  0  0  0  0
 83174  1  0  0  0  0
 85 93  1  0  0  0  0
 85 95  1  0  0  0  0
 85175  1  0  0  0  0
 86 99  1  0  0  0  0
 86176  1  0  0  0  0
 86177  1  0  0  0  0
 87 96  1  0  0  0  0
 87 97  1  0  0  0  0
 87178  1  0  0  0  0
 88102  1  0  0  0  0
 88179  1  0  0  0  0
 90180  1  0  0  0  0
 90181  1  0  0  0  0
 91 98  1  0  0  0  0
 91182  1  0  0  0  0
 91183  1  0  0  0  0
 92184  1  0  0  0  0
 92185  1  0  0  0  0
 92186  1  0  0  0  0
 94187  1  0  0  0  0
 94188  1  0  0  0  0
 95104  1  0  0  0  0
 95189  1  0  0  0  0
 96101  1  0  0  0  0
 96190  1  0  0  0  0
 96191  1  0  0  0  0
 99192  1  0  0  0  0
 99193  1  0  0  0  0
 99194  1  0  0  0  0
100195  1  0  0  0  0
100196  1  0  0  0  0
101197  1  0  0  0  0
101198  1  0  0  0  0
102199  1  0  0  0  0
102200  1  0  0  0  0
102201  1  0  0  0  0
103202  1  0  0  0  0
103203  1  0  0  0  0
104204  1  0  0  0  0
104205  1  0  0  0  0
104206  1  0  0  0  0
105207  1  0  0  0  0
105208  1  0  0  0  0
106209  1  0  0  0  0
106210  1  0  0  0  0
107211  1  0  0  0  0
107212  1  0  0  0  0
M  CHG  5  19  -1  22  -1  25  -1  28  -1  31  -1
M  END
>  <DRUGBANK_ID>
DB01111

>  <SECONDARY_ACCESSION_NUMBERS>
APRD00885

>  <COMMON_NAME>
Colistimethate

>  <CAS_NUMBER>
12705-41-8

>  <UNII>
DL2R53P963

>  <SYNONYMS>
Colistin methanesulfonic acid; Colistin sulfomethate; Colistinmethanesulfonic acid

$$$$
