
 OpenBabel10282417072D

310318  0  0  1  0  0  0  0  0999 V2000
   -1.4128   -0.6983    0.0000 C   0  0  1  0  0  0  0  0  0  0  0  0
   -2.1271   -1.1110    0.0000 C   0  0  0  0  0  0  0  0  0  0  0  0
   -2.1271   -1.9358    0.0000 O   0  0  0  0  0  0  0  0  0  0  0  0
   -2.8417   -0.6983    0.0000 C   0  0  0  0  0  0  0  0  0  0  0  0
   -2.8417    0.1266    0.0000 C   0  0  2  0  0  0  0  0  0  0  0  0
   -2.8417    0.9514    0.0000 H   0  0  0  0  0  0  0  0  0  0  0  0
   -2.1271    0.5390    0.0000 C   0  0  0  0  0  0  0  0  0  0  0  0
   -1.4128    0.1266    0.0000 C   0  0  1  0  0  0  0  0  0  0  0  0
   -1.4128    0.9514    0.0000 H   0  0  0  0  0  0  0  0  0  0  0  0
   -0.6982    0.5390    0.0000 C   0  0  1  0  0  0  0  0  0  0  0  0
    0.0162    0.1266    0.0000 C   0  0  0  0  0  0  0  0  0  0  0  0
    0.7305    0.5391    0.0000 O   0  0  0  0  0  0  0  0  0  0  0  0
    0.0162   -0.6983    0.0000 C   0  0  0  0  0  0  0  0  0  0  0  0
   -0.6982   -1.1109    0.0000 C   0  0  0  0  0  0  0  0  0  0  0  0
   -0.6982   -1.9358    0.0000 O   0  0  0  0  0  0  0  0  0  0  0  0
    0.7305   -1.1109    0.0000 C   0  0  0  0  0  0  0  0  0  0  0  0
    1.4451   -0.6983    0.0000 N   0  0  0  0  0  0  0  0  0  0  0  0
    0.7305   -1.9358    0.0000 O   0  0  0  0  0  0  0  0  0  0  0  0
   -0.6982    1.3641    0.0000 N   0  0  0  0  0  0  0  0  0  0  0  0
    0.0162    1.7766    0.0000 C   0  0  0  0  0  0  0  0  0  0  0  0
   -1.4128    1.7766    0.0000 C   0  0  0  0  0  0  0  0  0  0  0  0
   -3.5561    0.5390    0.0000 C   0  0  1  0  0  0  0  0  0  0  0  0
   -4.0864    1.1711    0.0000 O   0  0  0  0  0  0  0  0  0  0  0  0
   -3.1435    1.2535    0.0000 C   0  0  0  0  0  0  0  0  0  0  0  0
   -4.2705    0.1266    0.0000 C   0  0  0  0  0  0  0  0  0  0  0  0
   -4.9850    0.5390    0.0000 C   0  0  0  0  0  0  0  0  0  0  0  0
   -5.6996    0.1265    0.0000 C   0  0  0  0  0  0  0  0  0  0  0  0
   -5.6996   -0.6983    0.0000 C   0  0  0  0  0  0  0  0  0  0  0  0
   -4.9850   -1.1110    0.0000 C   0  0  0  0  0  0  0  0  0  0  0  0
   -4.9850   -1.9358    0.0000 O   0  0  0  0  0  0  0  0  0  0  0  0
   -4.2705   -0.6983    0.0000 C   0  0  0  0  0  0  0  0  0  0  0  0
   -3.5561   -1.1110    0.0000 C   0  0  0  0  0  0  0  0  0  0  0  0
   -3.5561   -1.9358    0.0000 O   0  0  0  0  0  0  0  0  0  0  0  0
   -1.4128   -1.5234    0.0000 O   0  0  0  0  0  0  0  0  0  0  0  0
    4.8228    1.2423    0.0000 P   0  0  0  0  0  0  0  0  0  0  0  0
    4.8228    2.0673    0.0000 O   0  0  0  0  0  0  0  0  0  0  0  0
    3.9978    1.2423    0.0000 O   0  0  0  0  0  0  0  0  0  0  0  0
    5.4062    0.6589    0.0000 O   0  0  0  0  0  0  0  0  0  0  0  0
    5.1625   -2.0673    0.0000 O   0  0  0  0  0  0  0  0  0  0  0  0
    3.7540   -1.4840    0.0000 O   0  0  0  0  0  0  0  0  0  0  0  0
    4.5791   -0.6588    0.0000 O   0  5  0  0  0  0  0  0  0  0  0  0
    4.5791   -1.4840    0.0000 P   0  0  0  0  0  0  0  0  0  0  0  0
    5.6996   -1.1552    0.0000 Na  0  3  0  0  0  0  0  0  0  0  0  0
    4.8228    1.2423    0.0000 P   0  0  0  0  0  0  0  0  0  0  0  0
    4.8228    2.0673    0.0000 O   0  0  0  0  0  0  0  0  0  0  0  0
    3.9978    1.2423    0.0000 O   0  0  0  0  0  0  0  0  0  0  0  0
    5.4062    0.6589    0.0000 O   0  0  0  0  0  0  0  0  0  0  0  0
    4.8228    1.2423    0.0000 P   0  0  0  0  0  0  0  0  0  0  0  0
    4.8228    2.0673    0.0000 O   0  0  0  0  0  0  0  0  0  0  0  0
    3.9978    1.2423    0.0000 O   0  0  0  0  0  0  0  0  0  0  0  0
    5.4062    0.6589    0.0000 O   0  0  0  0  0  0  0  0  0  0  0  0
    4.8228    1.2423    0.0000 P   0  0  0  0  0  0  0  0  0  0  0  0
    4.8228    2.0673    0.0000 O   0  0  0  0  0  0  0  0  0  0  0  0
    3.9978    1.2423    0.0000 O   0  0  0  0  0  0  0  0  0  0  0  0
    5.4062    0.6589    0.0000 O   0  0  0  0  0  0  0  0  0  0  0  0
    4.8228    1.2423    0.0000 P   0  0  0  0  0  0  0  0  0  0  0  0
    4.8228    2.0673    0.0000 O   0  0  0  0  0  0  0  0  0  0  0  0
    3.9978    1.2423    0.0000 O   0  0  0  0  0  0  0  0  0  0  0  0
    5.4062    0.6589    0.0000 O   0  0  0  0  0  0  0  0  0  0  0  0
   -1.4128   -0.6983    0.0000 C   0  0  1  0  0  0  0  0  0  0  0  0
   -2.1271   -1.1110    0.0000 C   0  0  0  0  0  0  0  0  0  0  0  0
   -2.1271   -1.9358    0.0000 O   0  0  0  0  0  0  0  0  0  0  0  0
   -2.8417   -0.6983    0.0000 C   0  0  0  0  0  0  0  0  0  0  0  0
   -2.8417    0.1266    0.0000 C   0  0  2  0  0  0  0  0  0  0  0  0
   -2.8417    0.9514    0.0000 H   0  0  0  0  0  0  0  0  0  0  0  0
   -2.1271    0.5390    0.0000 C   0  0  0  0  0  0  0  0  0  0  0  0
   -1.4128    0.1266    0.0000 C   0  0  1  0  0  0  0  0  0  0  0  0
   -1.4128    0.9514    0.0000 H   0  0  0  0  0  0  0  0  0  0  0  0
   -0.6982    0.5390    0.0000 C   0  0  1  0  0  0  0  0  0  0  0  0
    0.0162    0.1266    0.0000 C   0  0  0  0  0  0  0  0  0  0  0  0
    0.7305    0.5391    0.0000 O   0  0  0  0  0  0  0  0  0  0  0  0
    0.0162   -0.6983    0.0000 C   0  0  0  0  0  0  0  0  0  0  0  0
   -0.6982   -1.1109    0.0000 C   0  0  0  0  0  0  0  0  0  0  0  0
   -0.6982   -1.9358    0.0000 O   0  0  0  0  0  0  0  0  0  0  0  0
    0.7305   -1.1109    0.0000 C   0  0  0  0  0  0  0  0  0  0  0  0
    1.4451   -0.6983    0.0000 N   0  0  0  0  0  0  0  0  0  0  0  0
    0.7305   -1.9358    0.0000 O   0  0  0  0  0  0  0  0  0  0  0  0
   -0.6982    1.3641    0.0000 N   0  0  0  0  0  0  0  0  0  0  0  0
    0.0162    1.7766    0.0000 C   0  0  0  0  0  0  0  0  0  0  0  0
   -1.4128    1.7766    0.0000 C   0  0  0  0  0  0  0  0  0  0  0  0
   -3.5561    0.5390    0.0000 C   0  0  1  0  0  0  0  0  0  0  0  0
   -4.0864    1.1711    0.0000 O   0  0  0  0  0  0  0  0  0  0  0  0
   -3.1435    1.2535    0.0000 C   0  0  0  0  0  0  0  0  0  0  0  0
   -4.2705    0.1266    0.0000 C   0  0  0  0  0  0  0  0  0  0  0  0
   -4.9850    0.5390    0.0000 C   0  0  0  0  0  0  0  0  0  0  0  0
   -5.6996    0.1265    0.0000 C   0  0  0  0  0  0  0  0  0  0  0  0
   -5.6996   -0.6983    0.0000 C   0  0  0  0  0  0  0  0  0  0  0  0
   -4.9850   -1.1110    0.0000 C   0  0  0  0  0  0  0  0  0  0  0  0
   -4.9850   -1.9358    0.0000 O   0  0  0  0  0  0  0  0  0  0  0  0
   -4.2705   -0.6983    0.0000 C   0  0  0  0  0  0  0  0  0  0  0  0
   -3.5561   -1.1110    0.0000 C   0  0  0  0  0  0  0  0  0  0  0  0
   -3.5561   -1.9358    0.0000 O   0  0  0  0  0  0  0  0  0  0  0  0
   -1.4128   -1.5234    0.0000 O   0  0  0  0  0  0  0  0  0  0  0  0
   -1.4128   -0.6983    0.0000 C   0  0  1  0  0  0  0  0  0  0  0  0
   -2.1271   -1.1110    0.0000 C   0  0  0  0  0  0  0  0  0  0  0  0
   -2.1271   -1.9358    0.0000 O   0  0  0  0  0  0  0  0  0  0  0  0
   -2.8417   -0.6983    0.0000 C   0  0  0  0  0  0  0  0  0  0  0  0
   -2.8417    0.1266    0.0000 C   0  0  2  0  0  0  0  0  0  0  0  0
   -2.8417    0.9514    0.0000 H   0  0  0  0  0  0  0  0  0  0  0  0
   -2.1271    0.5390    0.0000 C   0  0  0  0  0  0  0  0  0  0  0  0
   -1.4128    0.1266    0.0000 C   0  0  1  0  0  0  0  0  0  0  0  0
   -1.4128    0.9514    0.0000 H   0  0  0  0  0  0  0  0  0  0  0  0
   -0.6982    0.5390    0.0000 C   0  0  1  0  0  0  0  0  0  0  0  0
    0.0162    0.1266    0.0000 C   0  0  0  0  0  0  0  0  0  0  0  0
    0.7305    0.5391    0.0000 O   0  0  0  0  0  0  0  0  0  0  0  0
    0.0162   -0.6983    0.0000 C   0  0  0  0  0  0  0  0  0  0  0  0
   -0.6982   -1.1109    0.0000 C   0  0  0  0  0  0  0  0  0  0  0  0
   -0.6982   -1.9358    0.0000 O   0  0  0  0  0  0  0  0  0  0  0  0
    0.7305   -1.1109    0.0000 C   0  0  0  0  0  0  0  0  0  0  0  0
    1.4451   -0.6983    0.0000 N   0  0  0  0  0  0  0  0  0  0  0  0
    0.7305   -1.9358    0.0000 O   0  0  0  0  0  0  0  0  0  0  0  0
   -0.6982    1.3641    0.0000 N   0  0  0  0  0  0  0  0  0  0  0  0
    0.0162    1.7766    0.0000 C   0  0  0  0  0  0  0  0  0  0  0  0
   -1.4128    1.7766    0.0000 C   0  0  0  0  0  0  0  0  0  0  0  0
   -3.5561    0.5390    0.0000 C   0  0  1  0  0  0  0  0  0  0  0  0
   -4.0864    1.1711    0.0000 O   0  0  0  0  0  0  0  0  0  0  0  0
   -3.1435    1.2535    0.0000 C   0  0  0  0  0  0  0  0  0  0  0  0
   -4.2705    0.1266    0.0000 C   0  0  0  0  0  0  0  0  0  0  0  0
   -4.9850    0.5390    0.0000 C   0  0  0  0  0  0  0  0  0  0  0  0
   -5.6996    0.1265    0.0000 C   0  0  0  0  0  0  0  0  0  0  0  0
   -5.6996   -0.6983    0.0000 C   0  0  0  0  0  0  0  0  0  0  0  0
   -4.9850   -1.1110    0.0000 C   0  0  0  0  0  0  0  0  0  0  0  0
   -4.9850   -1.9358    0.0000 O   0  0  0  0  0  0  0  0  0  0  0  0
   -4.2705   -0.6983    0.0000 C   0  0  0  0  0  0  0  0  0  0  0  0
   -3.5561   -1.1110    0.0000 C   0  0  0  0  0  0  0  0  0  0  0  0
   -3.5561   -1.9358    0.0000 O   0  0  0  0  0  0  0  0  0  0  0  0
   -1.4128   -1.5234    0.0000 O   0  0  0  0  0  0  0  0  0  0  0  0
   -1.4128   -0.6983    0.0000 C   0  0  1  0  0  0  0  0  0  0  0  0
   -2.1271   -1.1110    0.0000 C   0  0  0  0  0  0  0  0  0  0  0  0
   -2.1271   -1.9358    0.0000 O   0  0  0  0  0  0  0  0  0  0  0  0
   -2.8417   -0.6983    0.0000 C   0  0  0  0  0  0  0  0  0  0  0  0
   -2.8417    0.1266    0.0000 C   0  0  2  0  0  0  0  0  0  0  0  0
   -2.8417    0.9514    0.0000 H   0  0  0  0  0  0  0  0  0  0  0  0
   -2.1271    0.5390    0.0000 C   0  0  0  0  0  0  0  0  0  0  0  0
   -1.4128    0.1266    0.0000 C   0  0  1  0  0  0  0  0  0  0  0  0
   -1.4128    0.9514    0.0000 H   0  0  0  0  0  0  0  0  0  0  0  0
   -0.6982    0.5390    0.0000 C   0  0  1  0  0  0  0  0  0  0  0  0
    0.0162    0.1266    0.0000 C   0  0  0  0  0  0  0  0  0  0  0  0
    0.7305    0.5391    0.0000 O   0  0  0  0  0  0  0  0  0  0  0  0
    0.0162   -0.6983    0.0000 C   0  0  0  0  0  0  0  0  0  0  0  0
   -0.6982   -1.1109    0.0000 C   0  0  0  0  0  0  0  0  0  0  0  0
   -0.6982   -1.9358    0.0000 O   0  0  0  0  0  0  0  0  0  0  0  0
    0.7305   -1.1109    0.0000 C   0  0  0  0  0  0  0  0  0  0  0  0
    1.4451   -0.6983    0.0000 N   0  0  0  0  0  0  0  0  0  0  0  0
    0.7305   -1.9358    0.0000 O   0  0  0  0  0  0  0  0  0  0  0  0
   -0.6982    1.3641    0.0000 N   0  0  0  0  0  0  0  0  0  0  0  0
    0.0162    1.7766    0.0000 C   0  0  0  0  0  0  0  0  0  0  0  0
   -1.4128    1.7766    0.0000 C   0  0  0  0  0  0  0  0  0  0  0  0
   -3.5561    0.5390    0.0000 C   0  0  1  0  0  0  0  0  0  0  0  0
   -4.0864    1.1711    0.0000 O   0  0  0  0  0  0  0  0  0  0  0  0
   -3.1435    1.2535    0.0000 C   0  0  0  0  0  0  0  0  0  0  0  0
   -4.2705    0.1266    0.0000 C   0  0  0  0  0  0  0  0  0  0  0  0
   -4.9850    0.5390    0.0000 C   0  0  0  0  0  0  0  0  0  0  0  0
   -5.6996    0.1265    0.0000 C   0  0  0  0  0  0  0  0  0  0  0  0
   -5.6996   -0.6983    0.0000 C   0  0  0  0  0  0  0  0  0  0  0  0
   -4.9850   -1.1110    0.0000 C   0  0  0  0  0  0  0  0  0  0  0  0
   -4.9850   -1.9358    0.0000 O   0  0  0  0  0  0  0  0  0  0  0  0
   -4.2705   -0.6983    0.0000 C   0  0  0  0  0  0  0  0  0  0  0  0
   -3.5561   -1.1110    0.0000 C   0  0  0  0  0  0  0  0  0  0  0  0
   -3.5561   -1.9358    0.0000 O   0  0  0  0  0  0  0  0  0  0  0  0
   -1.4128   -1.5234    0.0000 O   0  0  0  0  0  0  0  0  0  0  0  0
   -1.4128   -0.6983    0.0000 C   0  0  1  0  0  0  0  0  0  0  0  0
   -2.1271   -1.1110    0.0000 C   0  0  0  0  0  0  0  0  0  0  0  0
   -2.1271   -1.9358    0.0000 O   0  0  0  0  0  0  0  0  0  0  0  0
   -2.8417   -0.6983    0.0000 C   0  0  0  0  0  0  0  0  0  0  0  0
   -2.8417    0.1266    0.0000 C   0  0  2  0  0  0  0  0  0  0  0  0
   -2.8417    0.9514    0.0000 H   0  0  0  0  0  0  0  0  0  0  0  0
   -2.1271    0.5390    0.0000 C   0  0  0  0  0  0  0  0  0  0  0  0
   -1.4128    0.1266    0.0000 C   0  0  1  0  0  0  0  0  0  0  0  0
   -1.4128    0.9514    0.0000 H   0  0  0  0  0  0  0  0  0  0  0  0
   -0.6982    0.5390    0.0000 C   0  0  1  0  0  0  0  0  0  0  0  0
    0.0162    0.1266    0.0000 C   0  0  0  0  0  0  0  0  0  0  0  0
    0.7305    0.5391    0.0000 O   0  0  0  0  0  0  0  0  0  0  0  0
    0.0162   -0.6983    0.0000 C   0  0  0  0  0  0  0  0  0  0  0  0
   -0.6982   -1.1109    0.0000 C   0  0  0  0  0  0  0  0  0  0  0  0
   -0.6982   -1.9358    0.0000 O   0  0  0  0  0  0  0  0  0  0  0  0
    0.7305   -1.1109    0.0000 C   0  0  0  0  0  0  0  0  0  0  0  0
    1.4451   -0.6983    0.0000 N   0  0  0  0  0  0  0  0  0  0  0  0
    0.7305   -1.9358    0.0000 O   0  0  0  0  0  0  0  0  0  0  0  0
   -0.6982    1.3641    0.0000 N   0  0  0  0  0  0  0  0  0  0  0  0
    0.0162    1.7766    0.0000 C   0  0  0  0  0  0  0  0  0  0  0  0
   -1.4128    1.7766    0.0000 C   0  0  0  0  0  0  0  0  0  0  0  0
   -3.5561    0.5390    0.0000 C   0  0  1  0  0  0  0  0  0  0  0  0
   -4.0864    1.1711    0.0000 O   0  0  0  0  0  0  0  0  0  0  0  0
   -3.1435    1.2535    0.0000 C   0  0  0  0  0  0  0  0  0  0  0  0
   -4.2705    0.1266    0.0000 C   0  0  0  0  0  0  0  0  0  0  0  0
   -4.9850    0.5390    0.0000 C   0  0  0  0  0  0  0  0  0  0  0  0
   -5.6996    0.1265    0.0000 C   0  0  0  0  0  0  0  0  0  0  0  0
   -5.6996   -0.6983    0.0000 C   0  0  0  0  0  0  0  0  0  0  0  0
   -4.9850   -1.1110    0.0000 C   0  0  0  0  0  0  0  0  0  0  0  0
   -4.9850   -1.9358    0.0000 O   0  0  0  0  0  0  0  0  0  0  0  0
   -4.2705   -0.6983    0.0000 C   0  0  0  0  0  0  0  0  0  0  0  0
   -3.5561   -1.1110    0.0000 C   0  0  0  0  0  0  0  0  0  0  0  0
   -3.5561   -1.9358    0.0000 O   0  0  0  0  0  0  0  0  0  0  0  0
   -1.4128   -1.5234    0.0000 O   0  0  0  0  0  0  0  0  0  0  0  0
   -2.9386   -2.4043    0.0000 H   0  0  0  0  0  0  0  0  0  0  0  0
   -2.1270    1.6090    0.0000 H   0  0  0  0  0  0  0  0  0  0  0  0
   -1.2004    1.0740    0.0000 H   0  0  0  0  0  0  0  0  0  0  0  0
   -1.6248    1.0741    0.0000 H   0  0  0  0  0  0  0  0  0  0  0  0
    1.5420    0.0707    0.0000 H   0  0  0  0  0  0  0  0  0  0  0  0
    2.2977   -1.1905    0.0000 H   0  0  0  0  0  0  0  0  0  0  0  0
    1.4451    0.2862    0.0000 H   0  0  0  0  0  0  0  0  0  0  0  0
    0.9429    1.2416    0.0000 H   0  0  0  0  0  0  0  0  0  0  0  0
    0.0162    2.8466    0.0000 H   0  0  0  0  0  0  0  0  0  0  0  0
    0.9428    2.3116    0.0000 H   0  0  0  0  0  0  0  0  0  0  0  0
   -1.4129    2.8466    0.0000 H   0  0  0  0  0  0  0  0  0  0  0  0
   -2.3394    1.2415    0.0000 H   0  0  0  0  0  0  0  0  0  0  0  0
   -2.3395    2.3115    0.0000 H   0  0  0  0  0  0  0  0  0  0  0  0
   -3.7546    2.0826    0.0000 H   0  0  0  0  0  0  0  0  0  0  0  0
   -2.0735    1.2534    0.0000 H   0  0  0  0  0  0  0  0  0  0  0  0
   -3.6784    2.1802    0.0000 H   0  0  0  0  0  0  0  0  0  0  0  0
   -2.6084    2.1801    0.0000 H   0  0  0  0  0  0  0  0  0  0  0  0
   -4.9850    1.5710    0.0000 H   0  0  0  0  0  0  0  0  0  0  0  0
   -6.5933    0.6425    0.0000 H   0  0  0  0  0  0  0  0  0  0  0  0
   -6.5934   -1.2142    0.0000 H   0  0  0  0  0  0  0  0  0  0  0  0
   -5.7965   -2.4043    0.0000 H   0  0  0  0  0  0  0  0  0  0  0  0
   -2.2528   -2.0084    0.0000 H   0  0  0  0  0  0  0  0  0  0  0  0
    5.6628    2.5523    0.0000 H   0  0  0  0  0  0  0  0  0  0  0  0
    5.6628    2.5523    0.0000 H   0  0  0  0  0  0  0  0  0  0  0  0
    5.6628    2.5523    0.0000 H   0  0  0  0  0  0  0  0  0  0  0  0
    5.6628    2.5523    0.0000 H   0  0  0  0  0  0  0  0  0  0  0  0
    5.6628    2.5523    0.0000 H   0  0  0  0  0  0  0  0  0  0  0  0
   -2.9386   -2.4043    0.0000 H   0  0  0  0  0  0  0  0  0  0  0  0
   -2.1270    1.6090    0.0000 H   0  0  0  0  0  0  0  0  0  0  0  0
   -1.2004    1.0740    0.0000 H   0  0  0  0  0  0  0  0  0  0  0  0
   -1.6248    1.0741    0.0000 H   0  0  0  0  0  0  0  0  0  0  0  0
    1.5420    0.0707    0.0000 H   0  0  0  0  0  0  0  0  0  0  0  0
    2.2977   -1.1905    0.0000 H   0  0  0  0  0  0  0  0  0  0  0  0
    1.4451    0.2862    0.0000 H   0  0  0  0  0  0  0  0  0  0  0  0
    0.9429    1.2416    0.0000 H   0  0  0  0  0  0  0  0  0  0  0  0
    0.0162    2.8466    0.0000 H   0  0  0  0  0  0  0  0  0  0  0  0
    0.9428    2.3116    0.0000 H   0  0  0  0  0  0  0  0  0  0  0  0
   -1.4129    2.8466    0.0000 H   0  0  0  0  0  0  0  0  0  0  0  0
   -2.3394    1.2415    0.0000 H   0  0  0  0  0  0  0  0  0  0  0  0
   -2.3395    2.3115    0.0000 H   0  0  0  0  0  0  0  0  0  0  0  0
   -3.7546    2.0826    0.0000 H   0  0  0  0  0  0  0  0  0  0  0  0
   -2.0735    1.2534    0.0000 H   0  0  0  0  0  0  0  0  0  0  0  0
   -3.6784    2.1802    0.0000 H   0  0  0  0  0  0  0  0  0  0  0  0
   -2.6084    2.1801    0.0000 H   0  0  0  0  0  0  0  0  0  0  0  0
   -4.9850    1.5710    0.0000 H   0  0  0  0  0  0  0  0  0  0  0  0
   -6.5933    0.6425    0.0000 H   0  0  0  0  0  0  0  0  0  0  0  0
   -6.5934   -1.2142    0.0000 H   0  0  0  0  0  0  0  0  0  0  0  0
   -5.7965   -2.4043    0.0000 H   0  0  0  0  0  0  0  0  0  0  0  0
   -2.2528   -2.0084    0.0000 H   0  0  0  0  0  0  0  0  0  0  0  0
   -2.9386   -2.4043    0.0000 H   0  0  0  0  0  0  0  0  0  0  0  0
   -2.1270    1.6090    0.0000 H   0  0  0  0  0  0  0  0  0  0  0  0
   -1.2004    1.0740    0.0000 H   0  0  0  0  0  0  0  0  0  0  0  0
   -1.6248    1.0741    0.0000 H   0  0  0  0  0  0  0  0  0  0  0  0
    1.5420    0.0707    0.0000 H   0  0  0  0  0  0  0  0  0  0  0  0
    2.2977   -1.1905    0.0000 H   0  0  0  0  0  0  0  0  0  0  0  0
    1.4451    0.2862    0.0000 H   0  0  0  0  0  0  0  0  0  0  0  0
    0.9429    1.2416    0.0000 H   0  0  0  0  0  0  0  0  0  0  0  0
    0.0162    2.8466    0.0000 H   0  0  0  0  0  0  0  0  0  0  0  0
    0.9428    2.3116    0.0000 H   0  0  0  0  0  0  0  0  0  0  0  0
   -1.4129    2.8466    0.0000 H   0  0  0  0  0  0  0  0  0  0  0  0
   -2.3394    1.2415    0.0000 H   0  0  0  0  0  0  0  0  0  0  0  0
   -2.3395    2.3115    0.0000 H   0  0  0  0  0  0  0  0  0  0  0  0
   -3.7546    2.0826    0.0000 H   0  0  0  0  0  0  0  0  0  0  0  0
   -2.0735    1.2534    0.0000 H   0  0  0  0  0  0  0  0  0  0  0  0
   -3.6784    2.1802    0.0000 H   0  0  0  0  0  0  0  0  0  0  0  0
   -2.6084    2.1801    0.0000 H   0  0  0  0  0  0  0  0  0  0  0  0
   -4.9850    1.5710    0.0000 H   0  0  0  0  0  0  0  0  0  0  0  0
   -6.5933    0.6425    0.0000 H   0  0  0  0  0  0  0  0  0  0  0  0
   -6.5934   -1.2142    0.0000 H   0  0  0  0  0  0  0  0  0  0  0  0
   -5.7965   -2.4043    0.0000 H   0  0  0  0  0  0  0  0  0  0  0  0
   -2.2528   -2.0084    0.0000 H   0  0  0  0  0  0  0  0  0  0  0  0
   -2.9386   -2.4043    0.0000 H   0  0  0  0  0  0  0  0  0  0  0  0
   -2.1270    1.6090    0.0000 H   0  0  0  0  0  0  0  0  0  0  0  0
   -1.2004    1.0740    0.0000 H   0  0  0  0  0  0  0  0  0  0  0  0
   -1.6248    1.0741    0.0000 H   0  0  0  0  0  0  0  0  0  0  0  0
    1.5420    0.0707    0.0000 H   0  0  0  0  0  0  0  0  0  0  0  0
    2.2977   -1.1905    0.0000 H   0  0  0  0  0  0  0  0  0  0  0  0
    1.4451    0.2862    0.0000 H   0  0  0  0  0  0  0  0  0  0  0  0
    0.9429    1.2416    0.0000 H   0  0  0  0  0  0  0  0  0  0  0  0
    0.0162    2.8466    0.0000 H   0  0  0  0  0  0  0  0  0  0  0  0
    0.9428    2.3116    0.0000 H   0  0  0  0  0  0  0  0  0  0  0  0
   -1.4129    2.8466    0.0000 H   0  0  0  0  0  0  0  0  0  0  0  0
   -2.3394    1.2415    0.0000 H   0  0  0  0  0  0  0  0  0  0  0  0
   -2.3395    2.3115    0.0000 H   0  0  0  0  0  0  0  0  0  0  0  0
   -3.7546    2.0826    0.0000 H   0  0  0  0  0  0  0  0  0  0  0  0
   -2.0735    1.2534    0.0000 H   0  0  0  0  0  0  0  0  0  0  0  0
   -3.6784    2.1802    0.0000 H   0  0  0  0  0  0  0  0  0  0  0  0
   -2.6084    2.1801    0.0000 H   0  0  0  0  0  0  0  0  0  0  0  0
   -4.9850    1.5710    0.0000 H   0  0  0  0  0  0  0  0  0  0  0  0
   -6.5933    0.6425    0.0000 H   0  0  0  0  0  0  0  0  0  0  0  0
   -6.5934   -1.2142    0.0000 H   0  0  0  0  0  0  0  0  0  0  0  0
   -5.7965   -2.4043    0.0000 H   0  0  0  0  0  0  0  0  0  0  0  0
   -2.2528   -2.0084    0.0000 H   0  0  0  0  0  0  0  0  0  0  0  0
   -2.9386   -2.4043    0.0000 H   0  0  0  0  0  0  0  0  0  0  0  0
   -2.1270    1.6090    0.0000 H   0  0  0  0  0  0  0  0  0  0  0  0
   -1.2004    1.0740    0.0000 H   0  0  0  0  0  0  0  0  0  0  0  0
   -1.6248    1.0741    0.0000 H   0  0  0  0  0  0  0  0  0  0  0  0
    1.5420    0.0707    0.0000 H   0  0  0  0  0  0  0  0  0  0  0  0
    2.2977   -1.1905    0.0000 H   0  0  0  0  0  0  0  0  0  0  0  0
    1.4451    0.2862    0.0000 H   0  0  0  0  0  0  0  0  0  0  0  0
    0.9429    1.2416    0.0000 H   0  0  0  0  0  0  0  0  0  0  0  0
    0.0162    2.8466    0.0000 H   0  0  0  0  0  0  0  0  0  0  0  0
    0.9428    2.3116    0.0000 H   0  0  0  0  0  0  0  0  0  0  0  0
   -1.4129    2.8466    0.0000 H   0  0  0  0  0  0  0  0  0  0  0  0
   -2.3394    1.2415    0.0000 H   0  0  0  0  0  0  0  0  0  0  0  0
   -2.3395    2.3115    0.0000 H   0  0  0  0  0  0  0  0  0  0  0  0
   -3.7546    2.0826    0.0000 H   0  0  0  0  0  0  0  0  0  0  0  0
   -2.0735    1.2534    0.0000 H   0  0  0  0  0  0  0  0  0  0  0  0
   -3.6784    2.1802    0.0000 H   0  0  0  0  0  0  0  0  0  0  0  0
   -2.6084    2.1801    0.0000 H   0  0  0  0  0  0  0  0  0  0  0  0
   -4.9850    1.5710    0.0000 H   0  0  0  0  0  0  0  0  0  0  0  0
   -6.5933    0.6425    0.0000 H   0  0  0  0  0  0  0  0  0  0  0  0
   -6.5934   -1.2142    0.0000 H   0  0  0  0  0  0  0  0  0  0  0  0
   -5.7965   -2.4043    0.0000 H   0  0  0  0  0  0  0  0  0  0  0  0
   -2.2528   -2.0084    0.0000 H   0  0  0  0  0  0  0  0  0  0  0  0
  1 34  1  6  0  0  0
  2  1  1  0  0  0  0
  3  2  1  0  0  0  0
  3196  1  0  0  0  0
  4  2  2  0  0  0  0
  4  5  1  0  0  0  0
  5  6  1  6  0  0  0
  5  7  1  0  0  0  0
  7  8  1  0  0  0  0
  7197  1  0  0  0  0
  7198  1  0  0  0  0
  8  1  1  0  0  0  0
  8  9  1  6  0  0  0
 10  8  1  0  0  0  0
 10 19  1  0  0  0  0
 10199  1  1  0  0  0
 11 10  1  0  0  0  0
 12 11  1  0  0  0  0
 12200  1  0  0  0  0
 13 11  2  0  0  0  0
 13 14  1  0  0  0  0
 14  1  1  0  0  0  0
 15 14  2  0  0  0  0
 16 13  1  0  0  0  0
 17 16  1  0  0  0  0
 17201  1  0  0  0  0
 17202  1  0  0  0  0
 18 16  2  0  0  0  0
 20 19  1  0  0  0  0
 20203  1  0  0  0  0
 20204  1  0  0  0  0
 20205  1  0  0  0  0
 21 19  1  0  0  0  0
 21206  1  0  0  0  0
 21207  1  0  0  0  0
 21208  1  0  0  0  0
 22  5  1  0  0  0  0
 22 23  1  1  0  0  0
 22 24  1  0  0  0  0
 23209  1  0  0  0  0
 24210  1  0  0  0  0
 24211  1  0  0  0  0
 24212  1  0  0  0  0
 25 22  1  0  0  0  0
 26 25  2  0  0  0  0
 26213  1  0  0  0  0
 27 26  1  0  0  0  0
 27 28  2  0  0  0  0
 27214  1  0  0  0  0
 28 29  1  0  0  0  0
 28215  1  0  0  0  0
 29 31  2  0  0  0  0
 30 29  1  0  0  0  0
 30216  1  0  0  0  0
 31 25  1  0  0  0  0
 31 32  1  0  0  0  0
 32  4  1  0  0  0  0
 33 32  2  0  0  0  0
 34217  1  0  0  0  0
 35 36  1  0  0  0  0
 35 37  2  0  0  0  0
 35 38  2  0  0  0  0
 36218  1  0  0  0  0
 42 39  2  0  0  0  0
 42 40  2  0  0  0  0
 42 41  1  0  0  0  0
 44 45  1  0  0  0  0
 44 46  2  0  0  0  0
 44 47  2  0  0  0  0
 45219  1  0  0  0  0
 48 49  1  0  0  0  0
 48 50  2  0  0  0  0
 48 51  2  0  0  0  0
 49220  1  0  0  0  0
 52 53  1  0  0  0  0
 52 54  2  0  0  0  0
 52 55  2  0  0  0  0
 53221  1  0  0  0  0
 56 57  1  0  0  0  0
 56 58  2  0  0  0  0
 56 59  2  0  0  0  0
 57222  1  0  0  0  0
 60 93  1  6  0  0  0
 61 60  1  0  0  0  0
 62 61  1  0  0  0  0
 62223  1  0  0  0  0
 63 61  2  0  0  0  0
 63 64  1  0  0  0  0
 64 65  1  6  0  0  0
 64 66  1  0  0  0  0
 66 67  1  0  0  0  0
 66224  1  0  0  0  0
 66225  1  0  0  0  0
 67 60  1  0  0  0  0
 67 68  1  6  0  0  0
 69 67  1  0  0  0  0
 69 78  1  0  0  0  0
 69226  1  1  0  0  0
 70 69  1  0  0  0  0
 71 70  1  0  0  0  0
 71227  1  0  0  0  0
 72 70  2  0  0  0  0
 72 73  1  0  0  0  0
 73 60  1  0  0  0  0
 74 73  2  0  0  0  0
 75 72  1  0  0  0  0
 76 75  1  0  0  0  0
 76228  1  0  0  0  0
 76229  1  0  0  0  0
 77 75  2  0  0  0  0
 79 78  1  0  0  0  0
 79230  1  0  0  0  0
 79231  1  0  0  0  0
 79232  1  0  0  0  0
 80 78  1  0  0  0  0
 80233  1  0  0  0  0
 80234  1  0  0  0  0
 80235  1  0  0  0  0
 81 64  1  0  0  0  0
 81 82  1  1  0  0  0
 81 83  1  0  0  0  0
 82236  1  0  0  0  0
 83237  1  0  0  0  0
 83238  1  0  0  0  0
 83239  1  0  0  0  0
 84 81  1  0  0  0  0
 85 84  2  0  0  0  0
 85240  1  0  0  0  0
 86 85  1  0  0  0  0
 86 87  2  0  0  0  0
 86241  1  0  0  0  0
 87 88  1  0  0  0  0
 87242  1  0  0  0  0
 88 90  2  0  0  0  0
 89 88  1  0  0  0  0
 89243  1  0  0  0  0
 90 84  1  0  0  0  0
 90 91  1  0  0  0  0
 91 63  1  0  0  0  0
 92 91  2  0  0  0  0
 93244  1  0  0  0  0
 94127  1  6  0  0  0
 95 94  1  0  0  0  0
 96 95  1  0  0  0  0
 96245  1  0  0  0  0
 97 95  2  0  0  0  0
 97 98  1  0  0  0  0
 98 99  1  6  0  0  0
 98100  1  0  0  0  0
100101  1  0  0  0  0
100246  1  0  0  0  0
100247  1  0  0  0  0
101 94  1  0  0  0  0
101102  1  6  0  0  0
103101  1  0  0  0  0
103112  1  0  0  0  0
103248  1  1  0  0  0
104103  1  0  0  0  0
105104  1  0  0  0  0
105249  1  0  0  0  0
106104  2  0  0  0  0
106107  1  0  0  0  0
107 94  1  0  0  0  0
108107  2  0  0  0  0
109106  1  0  0  0  0
110109  1  0  0  0  0
110250  1  0  0  0  0
110251  1  0  0  0  0
111109  2  0  0  0  0
113112  1  0  0  0  0
113252  1  0  0  0  0
113253  1  0  0  0  0
113254  1  0  0  0  0
114112  1  0  0  0  0
114255  1  0  0  0  0
114256  1  0  0  0  0
114257  1  0  0  0  0
115 98  1  0  0  0  0
115116  1  1  0  0  0
115117  1  0  0  0  0
116258  1  0  0  0  0
117259  1  0  0  0  0
117260  1  0  0  0  0
117261  1  0  0  0  0
118115  1  0  0  0  0
119118  2  0  0  0  0
119262  1  0  0  0  0
120119  1  0  0  0  0
120121  2  0  0  0  0
120263  1  0  0  0  0
121122  1  0  0  0  0
121264  1  0  0  0  0
122124  2  0  0  0  0
123122  1  0  0  0  0
123265  1  0  0  0  0
124118  1  0  0  0  0
124125  1  0  0  0  0
125 97  1  0  0  0  0
126125  2  0  0  0  0
127266  1  0  0  0  0
128161  1  6  0  0  0
129128  1  0  0  0  0
130129  1  0  0  0  0
130267  1  0  0  0  0
131129  2  0  0  0  0
131132  1  0  0  0  0
132133  1  6  0  0  0
132134  1  0  0  0  0
134135  1  0  0  0  0
134268  1  0  0  0  0
134269  1  0  0  0  0
135128  1  0  0  0  0
135136  1  6  0  0  0
137135  1  0  0  0  0
137146  1  0  0  0  0
137270  1  1  0  0  0
138137  1  0  0  0  0
139138  1  0  0  0  0
139271  1  0  0  0  0
140138  2  0  0  0  0
140141  1  0  0  0  0
141128  1  0  0  0  0
142141  2  0  0  0  0
143140  1  0  0  0  0
144143  1  0  0  0  0
144272  1  0  0  0  0
144273  1  0  0  0  0
145143  2  0  0  0  0
147146  1  0  0  0  0
147274  1  0  0  0  0
147275  1  0  0  0  0
147276  1  0  0  0  0
148146  1  0  0  0  0
148277  1  0  0  0  0
148278  1  0  0  0  0
148279  1  0  0  0  0
149132  1  0  0  0  0
149150  1  1  0  0  0
149151  1  0  0  0  0
150280  1  0  0  0  0
151281  1  0  0  0  0
151282  1  0  0  0  0
151283  1  0  0  0  0
152149  1  0  0  0  0
153152  2  0  0  0  0
153284  1  0  0  0  0
154153  1  0  0  0  0
154155  2  0  0  0  0
154285  1  0  0  0  0
155156  1  0  0  0  0
155286  1  0  0  0  0
156158  2  0  0  0  0
157156  1  0  0  0  0
157287  1  0  0  0  0
158152  1  0  0  0  0
158159  1  0  0  0  0
159131  1  0  0  0  0
160159  2  0  0  0  0
161288  1  0  0  0  0
162195  1  6  0  0  0
163162  1  0  0  0  0
164163  1  0  0  0  0
164289  1  0  0  0  0
165163  2  0  0  0  0
165166  1  0  0  0  0
166167  1  6  0  0  0
166168  1  0  0  0  0
168169  1  0  0  0  0
168290  1  0  0  0  0
168291  1  0  0  0  0
169162  1  0  0  0  0
169170  1  6  0  0  0
171169  1  0  0  0  0
171180  1  0  0  0  0
171292  1  1  0  0  0
172171  1  0  0  0  0
173172  1  0  0  0  0
173293  1  0  0  0  0
174172  2  0  0  0  0
174175  1  0  0  0  0
175162  1  0  0  0  0
176175  2  0  0  0  0
177174  1  0  0  0  0
178177  1  0  0  0  0
178294  1  0  0  0  0
178295  1  0  0  0  0
179177  2  0  0  0  0
181180  1  0  0  0  0
181296  1  0  0  0  0
181297  1  0  0  0  0
181298  1  0  0  0  0
182180  1  0  0  0  0
182299  1  0  0  0  0
182300  1  0  0  0  0
182301  1  0  0  0  0
183166  1  0  0  0  0
183184  1  1  0  0  0
183185  1  0  0  0  0
184302  1  0  0  0  0
185303  1  0  0  0  0
185304  1  0  0  0  0
185305  1  0  0  0  0
186183  1  0  0  0  0
187186  2  0  0  0  0
187306  1  0  0  0  0
188187  1  0  0  0  0
188189  2  0  0  0  0
188307  1  0  0  0  0
189190  1  0  0  0  0
189308  1  0  0  0  0
190192  2  0  0  0  0
191190  1  0  0  0  0
191309  1  0  0  0  0
192186  1  0  0  0  0
192193  1  0  0  0  0
193165  1  0  0  0  0
194193  2  0  0  0  0
195310  1  0  0  0  0
M  CHG  2  41  -1  43   1
M  END
>  <DRUGBANK_ID>
DB09550

>  <COMMON_NAME>
Tetracycline phosphate complex

>  <CAS_NUMBER>
1336-20-5

>  <UNII>
6B7BK5H33B

>  <SYNONYMS>
Tetracycline metaphosphate; Tetracycline phosphate complex

$$$$
