
 OpenBabel10282417072D

 41 43  0  0  1  0  0  0  0  0999 V2000
    0.2078    7.4964    0.0000 C   0  0  0  0  0  0  0  0  0  0  0  0
   -0.6127    7.4102    0.0000 N   0  0  0  0  0  0  0  0  0  0  0  0
   -0.9482    6.6565    0.0000 C   0  0  2  0  0  0  0  0  0  0  0  0
   -0.5357    5.9420    0.0000 C   0  0  0  0  0  0  0  0  0  0  0  0
   -1.0878    5.3289    0.0000 C   0  0  0  0  0  0  0  0  0  0  0  0
   -1.8414    5.6645    0.0000 N   0  0  0  0  0  0  0  0  0  0  0  0
   -1.7552    6.4850    0.0000 C   0  0  0  0  0  0  0  0  0  0  0  0
   -2.5559    5.2520    0.0000 C   0  0  0  0  0  0  0  0  0  0  0  0
   -2.5559    4.4270    0.0000 C   0  0  0  0  0  0  0  0  0  0  0  0
   -3.2704    4.0145    0.0000 C   0  0  0  0  0  0  0  0  0  0  0  0
   -3.2704    3.1895    0.0000 N   0  0  0  0  0  0  0  0  0  0  0  0
   -2.5559    2.7770    0.0000 C   0  0  0  0  0  0  0  0  0  0  0  0
   -2.5559    1.9520    0.0000 C   0  0  0  0  0  0  0  0  0  0  0  0
   -2.1434    1.2375    0.0000 C   0  0  0  0  0  0  0  0  0  0  0  0
   -2.9684    1.2375    0.0000 C   0  0  0  0  0  0  0  0  0  0  0  0
   -3.9849    4.4270    0.0000 N   0  0  0  0  0  0  0  0  0  0  0  0
   -3.9849    5.2520    0.0000 C   0  0  0  0  0  0  0  0  0  0  0  0
   -4.6993    5.6645    0.0000 N   0  0  0  0  0  0  0  0  0  0  0  0
   -3.2704    5.6645    0.0000 N   0  0  0  0  0  0  0  0  0  0  0  0
    0.8367    6.6307    0.0000 H   0  0  0  0  0  0  0  0  0  0  0  0
    0.6431    8.4739    0.0000 H   0  0  0  0  0  0  0  0  0  0  0  0
    1.2719    7.6082    0.0000 H   0  0  0  0  0  0  0  0  0  0  0  0
   -1.2123    8.2354    0.0000 H   0  0  0  0  0  0  0  0  0  0  0  0
    0.1203    6.7125    0.0000 H   0  0  0  0  0  0  0  0  0  0  0  0
    0.5284    5.8301    0.0000 H   0  0  0  0  0  0  0  0  0  0  0  0
   -0.1523    4.9431    0.0000 H   0  0  0  0  0  0  0  0  0  0  0  0
   -0.8654    4.2823    0.0000 H   0  0  0  0  0  0  0  0  0  0  0  0
   -1.9194    4.6556    0.0000 H   0  0  0  0  0  0  0  0  0  0  0  0
   -2.5504    7.2010    0.0000 H   0  0  0  0  0  0  0  0  0  0  0  0
   -1.4782    7.5185    0.0000 H   0  0  0  0  0  0  0  0  0  0  0  0
   -1.6622    3.9110    0.0000 H   0  0  0  0  0  0  0  0  0  0  0  0
   -4.1230    2.6972    0.0000 H   0  0  0  0  0  0  0  0  0  0  0  0
   -1.6293    3.3120    0.0000 H   0  0  0  0  0  0  0  0  0  0  0  0
   -1.6293    2.2420    0.0000 H   0  0  0  0  0  0  0  0  0  0  0  0
   -2.5559    0.8820    0.0000 H   0  0  0  0  0  0  0  0  0  0  0  0
   -1.2168    0.7025    0.0000 H   0  0  0  0  0  0  0  0  0  0  0  0
   -2.4203    0.2040    0.0000 H   0  0  0  0  0  0  0  0  0  0  0  0
   -3.8950    0.7025    0.0000 H   0  0  0  0  0  0  0  0  0  0  0  0
   -3.7250    1.9941    0.0000 H   0  0  0  0  0  0  0  0  0  0  0  0
   -4.6993    6.6490    0.0000 H   0  0  0  0  0  0  0  0  0  0  0  0
   -5.5519    5.1723    0.0000 H   0  0  0  0  0  0  0  0  0  0  0  0
  1  2  1  0  0  0  0
  1 20  1  0  0  0  0
  1 21  1  0  0  0  0
  1 22  1  0  0  0  0
  2 23  1  0  0  0  0
  3  2  1  0  0  0  0
  3  4  1  0  0  0  0
  3  7  1  0  0  0  0
  3 24  1  1  0  0  0
  4  5  1  0  0  0  0
  4 25  1  0  0  0  0
  4 26  1  0  0  0  0
  5  6  1  0  0  0  0
  5 27  1  0  0  0  0
  5 28  1  0  0  0  0
  6  7  1  0  0  0  0
  6  8  1  0  0  0  0
  7 29  1  0  0  0  0
  7 30  1  0  0  0  0
  8  9  2  0  0  0  0
  8 19  1  0  0  0  0
  9 10  1  0  0  0  0
  9 31  1  0  0  0  0
 10 11  1  0  0  0  0
 10 16  2  0  0  0  0
 11 12  1  0  0  0  0
 11 32  1  0  0  0  0
 12 13  1  0  0  0  0
 12 33  1  0  0  0  0
 12 34  1  0  0  0  0
 13 14  1  0  0  0  0
 13 15  1  0  0  0  0
 13 35  1  0  0  0  0
 14 15  1  0  0  0  0
 14 36  1  0  0  0  0
 14 37  1  0  0  0  0
 15 38  1  0  0  0  0
 15 39  1  0  0  0  0
 16 17  1  0  0  0  0
 17 18  1  0  0  0  0
 17 19  2  0  0  0  0
 18 40  1  0  0  0  0
 18 41  1  0  0  0  0
M  END
>  <DRUGBANK_ID>
DB15027

>  <COMMON_NAME>
Adriforant

>  <CAS_NUMBER>
943057-12-3

>  <UNII>
D65H9YE9VU

>  <SYNONYMS>
Adriforant; PF-03893787

$$$$
