
 OpenBabel10282417072D

 54 57  0  0  0  0  0  0  0  0999 V2000
    0.3221   -1.5712    0.0000 C   0  0  0  0  0  0  0  0  0  0  0  0
   -0.3924   -1.9836    0.0000 C   0  0  0  0  0  0  0  0  0  0  0  0
   -1.1068   -1.5712    0.0000 C   0  0  0  0  0  0  0  0  0  0  0  0
   -1.8213   -1.9836    0.0000 C   0  0  0  0  0  0  0  0  0  0  0  0
   -2.5358   -0.7462    0.0000 C   0  0  0  0  0  0  0  0  0  0  0  0
   -1.8213   -0.3337    0.0000 C   0  0  0  0  0  0  0  0  0  0  0  0
   -1.1068   -0.7462    0.0000 C   0  0  2  0  0  0  0  0  0  0  0  0
    0.3221    0.9037    0.0000 C   0  0  0  0  0  0  0  0  0  0  0  0
    2.3062    0.0787    0.0000 C   0  0  0  0  0  0  0  0  0  0  0  0
    1.8212   -0.5886    0.0000 C   0  0  0  0  0  0  0  0  0  0  0  0
   -0.3924   -0.3337    0.0000 C   0  0  2  0  0  0  0  0  0  0  0  0
   -0.3924   -1.1587    0.0000 H   0  0  0  0  0  0  0  0  0  0  0  0
    1.0366   -0.3337    0.0000 C   0  0  1  0  0  0  0  0  0  0  0  0
    1.0366   -1.1587    0.0000 H   0  0  0  0  0  0  0  0  0  0  0  0
    0.3221   -0.7462    0.0000 C   0  0  2  0  0  0  0  0  0  0  0  0
    0.3221    0.0787    0.0000 H   0  0  0  0  0  0  0  0  0  0  0  0
    1.0366    0.4912    0.0000 C   0  0  1  0  0  0  0  0  0  0  0  0
    1.8212    0.7462    0.0000 C   0  0  1  0  0  0  0  0  0  0  0  0
   -2.5358   -1.5712    0.0000 C   0  0  0  0  0  0  0  0  0  0  0  0
   -3.2502   -1.9837    0.0000 O   0  0  0  0  0  0  0  0  0  0  0  0
   -0.3924    0.4912    0.0000 C   0  0  1  0  0  0  0  0  0  0  0  0
   -1.1069    0.9037    0.0000 O   0  0  0  0  0  0  0  0  0  0  0  0
    1.8212    1.5712    0.0000 C   0  0  0  0  0  0  0  0  0  0  0  0
    1.1068    1.9837    0.0000 O   0  0  0  0  0  0  0  0  0  0  0  0
    2.5358    1.9837    0.0000 C   0  0  0  0  0  0  0  0  0  0  0  0
    3.2503    1.5712    0.0000 O   0  0  0  0  0  0  0  0  0  0  0  0
    2.5358    1.1587    0.0000 H   0  0  0  0  0  0  0  0  0  0  0  0
    1.0366    1.3162    0.0000 C   0  0  0  0  0  0  0  0  0  0  0  0
    0.3220    1.7287    0.0000 O   0  0  0  0  0  0  0  0  0  0  0  0
   -1.1068    0.0787    0.0000 C   0  0  0  0  0  0  0  0  0  0  0  0
    1.2487   -2.1063    0.0000 H   0  0  0  0  0  0  0  0  0  0  0  0
    0.3220   -2.6412    0.0000 H   0  0  0  0  0  0  0  0  0  0  0  0
   -0.3924   -3.0536    0.0000 H   0  0  0  0  0  0  0  0  0  0  0  0
   -1.3190   -2.5186    0.0000 H   0  0  0  0  0  0  0  0  0  0  0  0
   -1.8213   -3.0156    0.0000 H   0  0  0  0  0  0  0  0  0  0  0  0
   -3.4624   -0.2112    0.0000 H   0  0  0  0  0  0  0  0  0  0  0  0
   -2.5358    0.3238    0.0000 H   0  0  0  0  0  0  0  0  0  0  0  0
   -1.8213    0.7363    0.0000 H   0  0  0  0  0  0  0  0  0  0  0  0
   -0.8947    0.2013    0.0000 H   0  0  0  0  0  0  0  0  0  0  0  0
    0.3221    1.9737    0.0000 H   0  0  0  0  0  0  0  0  0  0  0  0
    1.2487    1.4387    0.0000 H   0  0  0  0  0  0  0  0  0  0  0  0
    3.3762    0.0786    0.0000 H   0  0  0  0  0  0  0  0  0  0  0  0
    2.7919   -0.8747    0.0000 H   0  0  0  0  0  0  0  0  0  0  0  0
    2.1518   -1.6063    0.0000 H   0  0  0  0  0  0  0  0  0  0  0  0
    1.0646   -1.3452    0.0000 H   0  0  0  0  0  0  0  0  0  0  0  0
   -1.3190   -0.0438    0.0000 H   0  0  0  0  0  0  0  0  0  0  0  0
   -1.1069    1.8737    0.0000 H   0  0  0  0  0  0  0  0  0  0  0  0
    2.5358    3.0537    0.0000 H   0  0  0  0  0  0  0  0  0  0  0  0
    3.4625    2.5187    0.0000 H   0  0  0  0  0  0  0  0  0  0  0  0
    3.2503    0.6012    0.0000 H   0  0  0  0  0  0  0  0  0  0  0  0
    1.9303    1.8322    0.0000 H   0  0  0  0  0  0  0  0  0  0  0  0
   -0.1802    0.6137    0.0000 H   0  0  0  0  0  0  0  0  0  0  0  0
   -2.0334    0.6137    0.0000 H   0  0  0  0  0  0  0  0  0  0  0  0
   -1.1068    1.1487    0.0000 H   0  0  0  0  0  0  0  0  0  0  0  0
  1  2  1  0  0  0  0
  1 31  1  0  0  0  0
  1 32  1  0  0  0  0
  2  3  1  0  0  0  0
  2 33  1  0  0  0  0
  2 34  1  0  0  0  0
  3  4  2  0  0  0  0
  3  7  1  0  0  0  0
  4 19  1  0  0  0  0
  4 35  1  0  0  0  0
  5  6  1  0  0  0  0
  5 36  1  0  0  0  0
  5 37  1  0  0  0  0
  6  7  1  0  0  0  0
  6 38  1  0  0  0  0
  6 39  1  0  0  0  0
  7 11  1  0  0  0  0
  7 30  1  1  0  0  0
  8 17  1  0  0  0  0
  8 40  1  0  0  0  0
  8 41  1  0  0  0  0
  9 10  1  0  0  0  0
  9 42  1  0  0  0  0
  9 43  1  0  0  0  0
 10 13  1  0  0  0  0
 10 44  1  0  0  0  0
 10 45  1  0  0  0  0
 11 21  1  0  0  0  0
 11 12  1  6  0  0  0
 13 14  1  6  0  0  0
 15  1  1  0  0  0  0
 15 11  1  0  0  0  0
 15 13  1  0  0  0  0
 15 16  1  1  0  0  0
 17 18  1  0  0  0  0
 17 13  1  0  0  0  0
 17 28  1  1  0  0  0
 18  9  1  0  0  0  0
 18 27  1  6  0  0  0
 18 23  1  0  0  0  0
 19  5  1  0  0  0  0
 19 20  2  0  0  0  0
 21  8  1  0  0  0  0
 21 22  1  0  0  0  0
 21 46  1  6  0  0  0
 22 47  1  0  0  0  0
 23 25  1  0  0  0  0
 23 24  2  0  0  0  0
 25 26  1  0  0  0  0
 25 48  1  0  0  0  0
 25 49  1  0  0  0  0
 26 50  1  0  0  0  0
 28 29  2  0  0  0  0
 28 51  1  0  0  0  0
 30 52  1  0  0  0  0
 30 53  1  0  0  0  0
 30 54  1  0  0  0  0
M  END
>  <DRUGBANK_ID>
DB04630

>  <COMMON_NAME>
Aldosterone

>  <CAS_NUMBER>
52-39-1

>  <UNII>
4964P6T9RB

>  <SYNONYMS>
(+)-aldosterone; (11Î²)-11,21-dihydroxy-3,20-dioxopregn-4-en-18-al; 11beta,21-Dihydroxy-3,20-dioxo-4-pregnen-18-al; 11beta,21-dihydroxy-3,20-dioxopregn-4-en-18-al; Aldosterona; Aldosterone; Aldosteronum

$$$$
