LDM
 OpenBabel10282417072D

 57 56  0  0  0  0  0  0  0  0999 V2000
   -4.7974    0.1525    0.0000 N   0  3  0  0  0  0  0  0  0  0  0  0
   -5.5118    0.5650    0.0000 O   0  5  0  0  0  0  0  0  0  0  0  0
   -4.0828   -0.2600    0.0000 C   0  0  0  0  0  0  0  0  0  0  0  0
   -2.6537   -0.2600    0.0000 C   0  0  0  0  0  0  0  0  0  0  0  0
   -1.2247   -0.2600    0.0000 C   0  0  0  0  0  0  0  0  0  0  0  0
   -0.5101    0.1525    0.0000 C   0  0  0  0  0  0  0  0  0  0  0  0
    0.9189    0.1525    0.0000 C   0  0  0  0  0  0  0  0  0  0  0  0
    1.6334   -0.2600    0.0000 C   0  0  0  0  0  0  0  0  0  0  0  0
    3.0624   -0.2600    0.0000 C   0  0  0  0  0  0  0  0  0  0  0  0
    3.7770    0.1525    0.0000 C   0  0  0  0  0  0  0  0  0  0  0  0
    4.4915   -0.2600    0.0000 C   0  0  0  0  0  0  0  0  0  0  0  0
   -5.2099   -0.5620    0.0000 C   0  0  0  0  0  0  0  0  0  0  0  0
   -4.3848    0.8671    0.0000 C   0  0  0  0  0  0  0  0  0  0  0  0
   -3.3683    0.1525    0.0000 C   0  0  0  0  0  0  0  0  0  0  0  0
    2.3480    0.1525    0.0000 C   0  0  0  0  0  0  0  0  0  0  0  0
   -1.9392    0.1525    0.0000 N   0  0  0  0  0  0  0  0  0  0  0  0
    5.9205   -0.2600    0.0000 C   0  0  0  0  0  0  0  0  0  0  0  0
    6.6351    0.1525    0.0000 C   0  0  0  0  0  0  0  0  0  0  0  0
   -1.2247   -1.0851    0.0000 O   0  0  0  0  0  0  0  0  0  0  0  0
    0.2043   -0.2600    0.0000 C   0  0  0  0  0  0  0  0  0  0  0  0
    5.2060    0.1525    0.0000 C   0  0  0  0  0  0  0  0  0  0  0  0
   -4.0828   -1.3300    0.0000 H   0  0  0  0  0  0  0  0  0  0  0  0
   -3.1561   -0.7950    0.0000 H   0  0  0  0  0  0  0  0  0  0  0  0
   -2.6537   -1.3300    0.0000 H   0  0  0  0  0  0  0  0  0  0  0  0
   -1.7270   -0.7950    0.0000 H   0  0  0  0  0  0  0  0  0  0  0  0
   -0.5100    1.2225    0.0000 H   0  0  0  0  0  0  0  0  0  0  0  0
    0.4166    0.6875    0.0000 H   0  0  0  0  0  0  0  0  0  0  0  0
    0.9189    1.2225    0.0000 H   0  0  0  0  0  0  0  0  0  0  0  0
   -0.0077    0.6876    0.0000 H   0  0  0  0  0  0  0  0  0  0  0  0
    1.6334   -1.3300    0.0000 H   0  0  0  0  0  0  0  0  0  0  0  0
    2.5600   -0.7951    0.0000 H   0  0  0  0  0  0  0  0  0  0  0  0
    3.0623   -1.3300    0.0000 H   0  0  0  0  0  0  0  0  0  0  0  0
    2.1357   -0.7950    0.0000 H   0  0  0  0  0  0  0  0  0  0  0  0
    3.7770    1.2225    0.0000 H   0  0  0  0  0  0  0  0  0  0  0  0
    4.7037    0.6875    0.0000 H   0  0  0  0  0  0  0  0  0  0  0  0
    4.4915   -1.3300    0.0000 H   0  0  0  0  0  0  0  0  0  0  0  0
    5.4181   -0.7950    0.0000 H   0  0  0  0  0  0  0  0  0  0  0  0
   -6.2799   -0.5620    0.0000 H   0  0  0  0  0  0  0  0  0  0  0  0
   -4.6749   -1.4886    0.0000 H   0  0  0  0  0  0  0  0  0  0  0  0
   -5.7449   -1.4887    0.0000 H   0  0  0  0  0  0  0  0  0  0  0  0
   -3.3148    0.8671    0.0000 H   0  0  0  0  0  0  0  0  0  0  0  0
   -4.9198    1.7938    0.0000 H   0  0  0  0  0  0  0  0  0  0  0  0
   -3.8498    1.7937    0.0000 H   0  0  0  0  0  0  0  0  0  0  0  0
   -3.3683    1.2225    0.0000 H   0  0  0  0  0  0  0  0  0  0  0  0
   -2.4417    0.6876    0.0000 H   0  0  0  0  0  0  0  0  0  0  0  0
    2.3481    1.2225    0.0000 H   0  0  0  0  0  0  0  0  0  0  0  0
    3.2747    0.6875    0.0000 H   0  0  0  0  0  0  0  0  0  0  0  0
   -1.9392    1.1370    0.0000 H   0  0  0  0  0  0  0  0  0  0  0  0
    5.9205   -1.3300    0.0000 H   0  0  0  0  0  0  0  0  0  0  0  0
    4.9938   -0.7950    0.0000 H   0  0  0  0  0  0  0  0  0  0  0  0
    7.5617   -0.3826    0.0000 H   0  0  0  0  0  0  0  0  0  0  0  0
    6.6352    1.2225    0.0000 H   0  0  0  0  0  0  0  0  0  0  0  0
    7.5618    0.6874    0.0000 H   0  0  0  0  0  0  0  0  0  0  0  0
    0.2042   -1.3300    0.0000 H   0  0  0  0  0  0  0  0  0  0  0  0
    1.1309   -0.7951    0.0000 H   0  0  0  0  0  0  0  0  0  0  0  0
    5.2060    1.2225    0.0000 H   0  0  0  0  0  0  0  0  0  0  0  0
    6.1326    0.6875    0.0000 H   0  0  0  0  0  0  0  0  0  0  0  0
  1  2  1  0  0  0  0
  1  3  1  0  0  0  0
  1 12  1  0  0  0  0
  1 13  1  0  0  0  0
  3 14  1  0  0  0  0
  3 22  1  0  0  0  0
  3 23  1  0  0  0  0
  4 14  1  0  0  0  0
  4 16  1  0  0  0  0
  4 24  1  0  0  0  0
  4 25  1  0  0  0  0
  5  6  1  0  0  0  0
  5 16  1  0  0  0  0
  5 19  2  0  0  0  0
  6 20  1  0  0  0  0
  6 26  1  0  0  0  0
  6 27  1  0  0  0  0
  7  8  1  0  0  0  0
  7 20  1  0  0  0  0
  7 28  1  0  0  0  0
  7 29  1  0  0  0  0
  8 15  1  0  0  0  0
  8 30  1  0  0  0  0
  8 31  1  0  0  0  0
  9 10  1  0  0  0  0
  9 15  1  0  0  0  0
  9 32  1  0  0  0  0
  9 33  1  0  0  0  0
 10 11  1  0  0  0  0
 10 34  1  0  0  0  0
 10 35  1  0  0  0  0
 11 21  1  0  0  0  0
 11 36  1  0  0  0  0
 11 37  1  0  0  0  0
 12 38  1  0  0  0  0
 12 39  1  0  0  0  0
 12 40  1  0  0  0  0
 13 41  1  0  0  0  0
 13 42  1  0  0  0  0
 13 43  1  0  0  0  0
 14 44  1  0  0  0  0
 14 45  1  0  0  0  0
 15 46  1  0  0  0  0
 15 47  1  0  0  0  0
 16 48  1  0  0  0  0
 17 18  1  0  0  0  0
 17 21  1  0  0  0  0
 17 49  1  0  0  0  0
 17 50  1  0  0  0  0
 18 51  1  0  0  0  0
 18 52  1  0  0  0  0
 18 53  1  0  0  0  0
 20 54  1  0  0  0  0
 20 55  1  0  0  0  0
 21 56  1  0  0  0  0
 21 57  1  0  0  0  0
M  CHG  2   1   1   2  -1
M  END
>  <DRUGBANK_ID>
DB01736

>  <SECONDARY_ACCESSION_NUMBERS>
EXPT02014

>  <COMMON_NAME>
[3-(Dodecanoylamino)Propyl](Hydroxy)Dimethylammonium

>  <UNII>
I6KX160QTV

$$$$
