
 OpenBabel10282417072D

111108  0  0  0  0  0  0  0  0999 V2000
    4.7644    0.9813    0.0000 C   0  0  0  0  0  0  0  0  0  0  0  0
    4.0500    0.5688    0.0000 C   0  0  0  0  0  0  0  0  0  0  0  0
    4.7644    1.8064    0.0000 O   0  0  0  0  0  0  0  0  0  0  0  0
    3.3355    0.9813    0.0000 C   0  0  0  0  0  0  0  0  0  0  0  0
    2.6209    0.5688    0.0000 C   0  0  0  0  0  0  0  0  0  0  0  0
    1.9065    0.9813    0.0000 C   0  0  0  0  0  0  0  0  0  0  0  0
    1.1919    0.5688    0.0000 C   0  0  0  0  0  0  0  0  0  0  0  0
    0.4774    0.9813    0.0000 C   0  0  0  0  0  0  0  0  0  0  0  0
   -0.2370    0.5688    0.0000 C   0  0  0  0  0  0  0  0  0  0  0  0
   -0.9515    0.9813    0.0000 C   0  0  0  0  0  0  0  0  0  0  0  0
   -1.6660    0.5688    0.0000 C   0  0  0  0  0  0  0  0  0  0  0  0
    5.4790    0.5688    0.0000 O   0  5  0  0  0  0  0  0  0  0  0  0
   -2.3805    0.9813    0.0000 C   0  0  0  0  0  0  0  0  0  0  0  0
   -3.0951    0.5688    0.0000 C   0  0  0  0  0  0  0  0  0  0  0  0
   -3.8095    0.9813    0.0000 C   0  0  0  0  0  0  0  0  0  0  0  0
   -4.5240    0.5688    0.0000 C   0  0  0  0  0  0  0  0  0  0  0  0
   -5.2386    0.9813    0.0000 C   0  0  0  0  0  0  0  0  0  0  0  0
   -5.9530    0.5688    0.0000 C   0  0  0  0  0  0  0  0  0  0  0  0
   -6.6676    0.9813    0.0000 C   0  0  0  0  0  0  0  0  0  0  0  0
   -7.3821    0.5688    0.0000 C   0  0  0  0  0  0  0  0  0  0  0  0
    4.7397   -1.3939    0.0000 C   0  0  0  0  0  0  0  0  0  0  0  0
    4.0252   -1.8064    0.0000 C   0  0  0  0  0  0  0  0  0  0  0  0
    4.7397   -0.5688    0.0000 O   0  0  0  0  0  0  0  0  0  0  0  0
    3.3107   -1.3939    0.0000 C   0  0  0  0  0  0  0  0  0  0  0  0
    2.5962   -1.8064    0.0000 C   0  0  0  0  0  0  0  0  0  0  0  0
    1.8817   -1.3939    0.0000 C   0  0  0  0  0  0  0  0  0  0  0  0
    1.1672   -1.8064    0.0000 C   0  0  0  0  0  0  0  0  0  0  0  0
    0.4527   -1.3939    0.0000 C   0  0  0  0  0  0  0  0  0  0  0  0
   -0.2618   -1.8064    0.0000 C   0  0  0  0  0  0  0  0  0  0  0  0
   -0.9762   -1.3939    0.0000 C   0  0  0  0  0  0  0  0  0  0  0  0
   -1.6908   -1.8064    0.0000 C   0  0  0  0  0  0  0  0  0  0  0  0
    5.4542   -1.8064    0.0000 O   0  5  0  0  0  0  0  0  0  0  0  0
   -2.4053   -1.3939    0.0000 C   0  0  0  0  0  0  0  0  0  0  0  0
   -3.1198   -1.8064    0.0000 C   0  0  0  0  0  0  0  0  0  0  0  0
   -3.8343   -1.3939    0.0000 C   0  0  0  0  0  0  0  0  0  0  0  0
   -4.5488   -1.8064    0.0000 C   0  0  0  0  0  0  0  0  0  0  0  0
   -5.2633   -1.3939    0.0000 C   0  0  0  0  0  0  0  0  0  0  0  0
   -5.9778   -1.8064    0.0000 C   0  0  0  0  0  0  0  0  0  0  0  0
   -6.6923   -1.3939    0.0000 C   0  0  0  0  0  0  0  0  0  0  0  0
   -7.4068   -1.8064    0.0000 C   0  0  0  0  0  0  0  0  0  0  0  0
    7.4068   -0.4946    0.0000 Mg  0  2  0  0  0  0  0  0  0  0  0  0
    4.0500   -0.5012    0.0000 H   0  0  0  0  0  0  0  0  0  0  0  0
    3.1234    0.0338    0.0000 H   0  0  0  0  0  0  0  0  0  0  0  0
    3.3355    2.0513    0.0000 H   0  0  0  0  0  0  0  0  0  0  0  0
    2.4089    1.5164    0.0000 H   0  0  0  0  0  0  0  0  0  0  0  0
    2.6208   -0.5012    0.0000 H   0  0  0  0  0  0  0  0  0  0  0  0
    1.6942    0.0338    0.0000 H   0  0  0  0  0  0  0  0  0  0  0  0
    1.9066    2.0513    0.0000 H   0  0  0  0  0  0  0  0  0  0  0  0
    0.9799    1.5164    0.0000 H   0  0  0  0  0  0  0  0  0  0  0  0
    1.1919   -0.5012    0.0000 H   0  0  0  0  0  0  0  0  0  0  0  0
    0.2652    0.0338    0.0000 H   0  0  0  0  0  0  0  0  0  0  0  0
    0.4774    2.0513    0.0000 H   0  0  0  0  0  0  0  0  0  0  0  0
   -0.4493    1.5163    0.0000 H   0  0  0  0  0  0  0  0  0  0  0  0
   -0.2370   -0.5012    0.0000 H   0  0  0  0  0  0  0  0  0  0  0  0
   -1.1636    0.0338    0.0000 H   0  0  0  0  0  0  0  0  0  0  0  0
   -0.9515    2.0513    0.0000 H   0  0  0  0  0  0  0  0  0  0  0  0
   -1.8781    1.5163    0.0000 H   0  0  0  0  0  0  0  0  0  0  0  0
   -1.6660   -0.5012    0.0000 H   0  0  0  0  0  0  0  0  0  0  0  0
   -2.5926    0.0338    0.0000 H   0  0  0  0  0  0  0  0  0  0  0  0
   -2.3805    2.0513    0.0000 H   0  0  0  0  0  0  0  0  0  0  0  0
   -3.3071    1.5164    0.0000 H   0  0  0  0  0  0  0  0  0  0  0  0
   -3.0952   -0.5012    0.0000 H   0  0  0  0  0  0  0  0  0  0  0  0
   -4.0218    0.0338    0.0000 H   0  0  0  0  0  0  0  0  0  0  0  0
   -3.8095    2.0513    0.0000 H   0  0  0  0  0  0  0  0  0  0  0  0
   -4.7361    1.5163    0.0000 H   0  0  0  0  0  0  0  0  0  0  0  0
   -4.5240   -0.5012    0.0000 H   0  0  0  0  0  0  0  0  0  0  0  0
   -5.4506    0.0337    0.0000 H   0  0  0  0  0  0  0  0  0  0  0  0
   -5.2387    2.0513    0.0000 H   0  0  0  0  0  0  0  0  0  0  0  0
   -6.1653    1.5163    0.0000 H   0  0  0  0  0  0  0  0  0  0  0  0
   -5.9529   -0.5012    0.0000 H   0  0  0  0  0  0  0  0  0  0  0  0
   -6.8796    0.0337    0.0000 H   0  0  0  0  0  0  0  0  0  0  0  0
   -6.6676    2.0513    0.0000 H   0  0  0  0  0  0  0  0  0  0  0  0
   -7.5943    1.5163    0.0000 H   0  0  0  0  0  0  0  0  0  0  0  0
   -8.3087    1.1038    0.0000 H   0  0  0  0  0  0  0  0  0  0  0  0
   -7.3821   -0.5012    0.0000 H   0  0  0  0  0  0  0  0  0  0  0  0
   -8.3088    0.0338    0.0000 H   0  0  0  0  0  0  0  0  0  0  0  0
    4.0252   -2.8764    0.0000 H   0  0  0  0  0  0  0  0  0  0  0  0
    3.0986   -2.3414    0.0000 H   0  0  0  0  0  0  0  0  0  0  0  0
    3.3107   -0.3239    0.0000 H   0  0  0  0  0  0  0  0  0  0  0  0
    2.3841   -0.8589    0.0000 H   0  0  0  0  0  0  0  0  0  0  0  0
    2.5962   -2.8764    0.0000 H   0  0  0  0  0  0  0  0  0  0  0  0
    1.6696   -2.3414    0.0000 H   0  0  0  0  0  0  0  0  0  0  0  0
    1.8817   -0.3239    0.0000 H   0  0  0  0  0  0  0  0  0  0  0  0
    0.9551   -0.8589    0.0000 H   0  0  0  0  0  0  0  0  0  0  0  0
    1.1672   -2.8764    0.0000 H   0  0  0  0  0  0  0  0  0  0  0  0
    0.2406   -2.3414    0.0000 H   0  0  0  0  0  0  0  0  0  0  0  0
    0.4527   -0.3239    0.0000 H   0  0  0  0  0  0  0  0  0  0  0  0
   -0.4739   -0.8589    0.0000 H   0  0  0  0  0  0  0  0  0  0  0  0
   -0.2618   -2.8764    0.0000 H   0  0  0  0  0  0  0  0  0  0  0  0
   -1.1885   -2.3414    0.0000 H   0  0  0  0  0  0  0  0  0  0  0  0
   -0.9761   -0.3239    0.0000 H   0  0  0  0  0  0  0  0  0  0  0  0
   -1.9028   -0.8588    0.0000 H   0  0  0  0  0  0  0  0  0  0  0  0
   -1.6908   -2.8764    0.0000 H   0  0  0  0  0  0  0  0  0  0  0  0
   -2.6175   -2.3414    0.0000 H   0  0  0  0  0  0  0  0  0  0  0  0
   -2.4053   -0.3239    0.0000 H   0  0  0  0  0  0  0  0  0  0  0  0
   -3.3319   -0.8589    0.0000 H   0  0  0  0  0  0  0  0  0  0  0  0
   -3.1198   -2.8764    0.0000 H   0  0  0  0  0  0  0  0  0  0  0  0
   -4.0464   -2.3414    0.0000 H   0  0  0  0  0  0  0  0  0  0  0  0
   -3.8343   -0.3239    0.0000 H   0  0  0  0  0  0  0  0  0  0  0  0
   -4.7609   -0.8589    0.0000 H   0  0  0  0  0  0  0  0  0  0  0  0
   -4.5488   -2.8764    0.0000 H   0  0  0  0  0  0  0  0  0  0  0  0
   -5.4754   -2.3414    0.0000 H   0  0  0  0  0  0  0  0  0  0  0  0
   -5.2633   -0.3239    0.0000 H   0  0  0  0  0  0  0  0  0  0  0  0
   -6.1899   -0.8589    0.0000 H   0  0  0  0  0  0  0  0  0  0  0  0
   -5.9778   -2.8764    0.0000 H   0  0  0  0  0  0  0  0  0  0  0  0
   -6.9044   -2.3414    0.0000 H   0  0  0  0  0  0  0  0  0  0  0  0
   -6.6923   -0.3239    0.0000 H   0  0  0  0  0  0  0  0  0  0  0  0
   -7.6189   -0.8589    0.0000 H   0  0  0  0  0  0  0  0  0  0  0  0
   -8.3334   -1.2714    0.0000 H   0  0  0  0  0  0  0  0  0  0  0  0
   -7.4068   -2.8764    0.0000 H   0  0  0  0  0  0  0  0  0  0  0  0
   -8.3335   -2.3414    0.0000 H   0  0  0  0  0  0  0  0  0  0  0  0
  1  2  1  0  0  0  0
  1  3  2  0  0  0  0
  1 12  1  0  0  0  0
  2  4  1  0  0  0  0
  2 42  1  0  0  0  0
  2 43  1  0  0  0  0
  4  5  1  0  0  0  0
  4 44  1  0  0  0  0
  4 45  1  0  0  0  0
  5  6  1  0  0  0  0
  5 46  1  0  0  0  0
  5 47  1  0  0  0  0
  6  7  1  0  0  0  0
  6 48  1  0  0  0  0
  6 49  1  0  0  0  0
  7  8  1  0  0  0  0
  7 50  1  0  0  0  0
  7 51  1  0  0  0  0
  8  9  1  0  0  0  0
  8 52  1  0  0  0  0
  8 53  1  0  0  0  0
  9 10  1  0  0  0  0
  9 54  1  0  0  0  0
  9 55  1  0  0  0  0
 10 11  1  0  0  0  0
 10 56  1  0  0  0  0
 10 57  1  0  0  0  0
 11 58  1  0  0  0  0
 11 59  1  0  0  0  0
 13 11  1  0  0  0  0
 13 60  1  0  0  0  0
 13 61  1  0  0  0  0
 14 13  1  0  0  0  0
 14 62  1  0  0  0  0
 14 63  1  0  0  0  0
 15 14  1  0  0  0  0
 15 64  1  0  0  0  0
 15 65  1  0  0  0  0
 16 15  1  0  0  0  0
 16 66  1  0  0  0  0
 16 67  1  0  0  0  0
 17 16  1  0  0  0  0
 17 68  1  0  0  0  0
 17 69  1  0  0  0  0
 18 17  1  0  0  0  0
 18 70  1  0  0  0  0
 18 71  1  0  0  0  0
 19 18  1  0  0  0  0
 19 72  1  0  0  0  0
 19 73  1  0  0  0  0
 20 19  1  0  0  0  0
 20 74  1  0  0  0  0
 20 75  1  0  0  0  0
 20 76  1  0  0  0  0
 21 22  1  0  0  0  0
 21 23  2  0  0  0  0
 21 32  1  0  0  0  0
 22 24  1  0  0  0  0
 22 77  1  0  0  0  0
 22 78  1  0  0  0  0
 24 25  1  0  0  0  0
 24 79  1  0  0  0  0
 24 80  1  0  0  0  0
 25 26  1  0  0  0  0
 25 81  1  0  0  0  0
 25 82  1  0  0  0  0
 26 27  1  0  0  0  0
 26 83  1  0  0  0  0
 26 84  1  0  0  0  0
 27 28  1  0  0  0  0
 27 85  1  0  0  0  0
 27 86  1  0  0  0  0
 28 29  1  0  0  0  0
 28 87  1  0  0  0  0
 28 88  1  0  0  0  0
 29 30  1  0  0  0  0
 29 89  1  0  0  0  0
 29 90  1  0  0  0  0
 30 31  1  0  0  0  0
 30 91  1  0  0  0  0
 30 92  1  0  0  0  0
 31 93  1  0  0  0  0
 31 94  1  0  0  0  0
 33 31  1  0  0  0  0
 33 95  1  0  0  0  0
 33 96  1  0  0  0  0
 34 33  1  0  0  0  0
 34 97  1  0  0  0  0
 34 98  1  0  0  0  0
 35 34  1  0  0  0  0
 35 99  1  0  0  0  0
 35100  1  0  0  0  0
 36 35  1  0  0  0  0
 36101  1  0  0  0  0
 36102  1  0  0  0  0
 37 36  1  0  0  0  0
 37103  1  0  0  0  0
 37104  1  0  0  0  0
 38 37  1  0  0  0  0
 38105  1  0  0  0  0
 38106  1  0  0  0  0
 39 38  1  0  0  0  0
 39107  1  0  0  0  0
 39108  1  0  0  0  0
 40 39  1  0  0  0  0
 40109  1  0  0  0  0
 40110  1  0  0  0  0
 40111  1  0  0  0  0
M  CHG  3  12  -1  32  -1  41   2
M  END
>  <DRUGBANK_ID>
DB14077

>  <COMMON_NAME>
Magnesium stearate

>  <CAS_NUMBER>
557-04-0

>  <UNII>
70097M6I30

>  <SYNONYMS>
Dibasic magnesium stearate; Magnesium distearate; Magnesium octadecanoate; Octadecanoic acid, magnesium salt; Stearic acid, magnesium salt

$$$$
