
 OpenBabel10282417072D

 30 29  0  0  1  0  0  0  0  0999 V2000
    2.9980    2.5559    0.0000 C   0  0  0  0  0  0  0  0  0  0  0  0
    3.7125    2.1434    0.0000 C   0  0  0  0  0  0  0  0  0  0  0  0
    3.7125    1.3184    0.0000 O   0  0  0  0  0  0  0  0  0  0  0  0
    4.4270    2.5559    0.0000 N   0  0  0  0  0  0  0  0  0  0  0  0
    5.1414    2.1434    0.0000 C   0  0  2  0  0  0  0  0  0  0  0  0
    5.1414    1.3184    0.0000 C   0  0  0  0  0  0  0  0  0  0  0  0
    5.8559    0.9059    0.0000 O   0  0  0  0  0  0  0  0  0  0  0  0
    5.8559    2.5559    0.0000 C   0  0  1  0  0  0  0  0  0  0  0  0
    5.8559    3.3809    0.0000 O   0  0  0  0  0  0  0  0  0  0  0  0
    6.5704    2.1434    0.0000 C   0  0  2  0  0  0  0  0  0  0  0  0
    6.5704    1.3184    0.0000 O   0  0  0  0  0  0  0  0  0  0  0  0
    7.2849    2.5559    0.0000 C   0  0  2  0  0  0  0  0  0  0  0  0
    7.2849    3.3809    0.0000 O   0  0  0  0  0  0  0  0  0  0  0  0
    7.9993    2.1434    0.0000 C   0  0  0  0  0  0  0  0  0  0  0  0
    8.7138    2.5559    0.0000 O   0  0  0  0  0  0  0  0  0  0  0  0
    4.4269    1.7309    0.0000 H   0  0  0  0  0  0  0  0  0  0  0  0
    5.1414    2.9684    0.0000 H   0  0  0  0  0  0  0  0  0  0  0  0
    5.8559    1.7309    0.0000 H   0  0  0  0  0  0  0  0  0  0  0  0
    6.5704    2.9684    0.0000 H   0  0  0  0  0  0  0  0  0  0  0  0
    2.9980    3.6259    0.0000 H   0  0  0  0  0  0  0  0  0  0  0  0
    2.0714    2.0209    0.0000 H   0  0  0  0  0  0  0  0  0  0  0  0
    2.0713    3.0909    0.0000 H   0  0  0  0  0  0  0  0  0  0  0  0
    4.4270    3.5404    0.0000 H   0  0  0  0  0  0  0  0  0  0  0  0
    4.2477    0.8024    0.0000 H   0  0  0  0  0  0  0  0  0  0  0  0
    6.6959    3.8659    0.0000 H   0  0  0  0  0  0  0  0  0  0  0  0
    5.7304    0.8334    0.0000 H   0  0  0  0  0  0  0  0  0  0  0  0
    8.1249    3.8659    0.0000 H   0  0  0  0  0  0  0  0  0  0  0  0
    7.9993    1.0734    0.0000 H   0  0  0  0  0  0  0  0  0  0  0  0
    8.9259    1.6084    0.0000 H   0  0  0  0  0  0  0  0  0  0  0  0
    9.5538    2.0709    0.0000 H   0  0  0  0  0  0  0  0  0  0  0  0
  1  2  1  0  0  0  0
  1 20  1  0  0  0  0
  1 21  1  0  0  0  0
  1 22  1  0  0  0  0
  2  3  2  0  0  0  0
  2  4  1  0  0  0  0
  4 23  1  0  0  0  0
  5  4  1  0  0  0  0
  5  6  1  0  0  0  0
  5  8  1  0  0  0  0
  5 16  1  6  0  0  0
  6  7  2  0  0  0  0
  6 24  1  0  0  0  0
  8  9  1  0  0  0  0
  8 10  1  0  0  0  0
  8 17  1  6  0  0  0
  9 25  1  0  0  0  0
 10 11  1  0  0  0  0
 10 12  1  0  0  0  0
 10 18  1  6  0  0  0
 11 26  1  0  0  0  0
 12 13  1  0  0  0  0
 12 14  1  0  0  0  0
 12 19  1  1  0  0  0
 13 27  1  0  0  0  0
 14 15  1  0  0  0  0
 14 28  1  0  0  0  0
 14 29  1  0  0  0  0
 15 30  1  0  0  0  0
M  END
>  <DRUGBANK_ID>
DB12536

>  <COMMON_NAME>
N-acetylmannosamine

>  <CAS_NUMBER>
3615-17-6

>  <UNII>
X80PR7P73R

>  <SYNONYMS>
MANNAC

$$$$
