
 OpenBabel10282417072D

 48 50  0  0  0  0  0  0  0  0999 V2000
    4.3355   -1.2164    0.0000 C   0  0  0  0  0  0  0  0  0  0  0  0
    4.3613   -0.3918    0.0000 C   0  0  0  0  0  0  0  0  0  0  0  0
    3.6601    0.0428    0.0000 C   0  0  0  0  0  0  0  0  0  0  0  0
    3.5995    0.8656    0.0000 N   0  0  0  0  0  0  0  0  0  0  0  0
    2.7983    1.0622    0.0000 C   0  0  0  0  0  0  0  0  0  0  0  0
    2.3637    0.3610    0.0000 C   0  0  0  0  0  0  0  0  0  0  0  0
    2.8963   -0.2691    0.0000 N   0  0  0  0  0  0  0  0  0  0  0  0
    2.6996   -1.0703    0.0000 C   0  0  0  0  0  0  0  0  0  0  0  0
    3.2952   -1.6412    0.0000 C   0  0  0  0  0  0  0  0  0  0  0  0
    3.0986   -2.4424    0.0000 C   0  0  0  0  0  0  0  0  0  0  0  0
    3.6941   -3.0133    0.0000 C   0  0  0  0  0  0  0  0  0  0  0  0
    3.4975   -3.8145    0.0000 N   0  0  0  0  0  0  0  0  0  0  0  0
    4.0930   -4.3855    0.0000 S   0  0  0  0  0  0  0  0  0  0  0  0
    4.6886   -4.9564    0.0000 O   0  0  0  0  0  0  0  0  0  0  0  0
    4.6639   -3.7899    0.0000 O   0  0  0  0  0  0  0  0  0  0  0  0
    3.5221   -4.9810    0.0000 C   0  0  0  0  0  0  0  0  0  0  0  0
    1.5391    0.3867    0.0000 C   0  0  0  0  0  0  0  0  0  0  0  0
    1.1045   -0.3145    0.0000 C   0  0  0  0  0  0  0  0  0  0  0  0
    0.2799   -0.2887    0.0000 C   0  0  0  0  0  0  0  0  0  0  0  0
   -0.1101    0.4383    0.0000 C   0  0  0  0  0  0  0  0  0  0  0  0
    0.3245    1.1395    0.0000 C   0  0  0  0  0  0  0  0  0  0  0  0
    1.1491    1.1137    0.0000 C   0  0  0  0  0  0  0  0  0  0  0  0
    1.5837    1.8150    0.0000 N   0  0  0  0  0  0  0  0  0  0  0  0
    2.4083    1.7892    0.0000 C   0  0  0  0  0  0  0  0  0  0  0  0
    2.8429    2.4905    0.0000 N   0  0  0  0  0  0  0  0  0  0  0  0
    3.3926   -1.7222    0.0000 H   0  0  0  0  0  0  0  0  0  0  0  0
    5.2450   -1.7801    0.0000 H   0  0  0  0  0  0  0  0  0  0  0  0
    4.3020   -2.2859    0.0000 H   0  0  0  0  0  0  0  0  0  0  0  0
    5.3042    0.1140    0.0000 H   0  0  0  0  0  0  0  0  0  0  0  0
    4.3947    0.6777    0.0000 H   0  0  0  0  0  0  0  0  0  0  0  0
    1.6721   -1.3690    0.0000 H   0  0  0  0  0  0  0  0  0  0  0  0
    2.4446   -2.1095    0.0000 H   0  0  0  0  0  0  0  0  0  0  0  0
    4.3226   -1.3424    0.0000 H   0  0  0  0  0  0  0  0  0  0  0  0
    4.0677   -2.3816    0.0000 H   0  0  0  0  0  0  0  0  0  0  0  0
    2.0711   -2.7411    0.0000 H   0  0  0  0  0  0  0  0  0  0  0  0
    2.8435   -3.4816    0.0000 H   0  0  0  0  0  0  0  0  0  0  0  0
    4.7216   -2.7146    0.0000 H   0  0  0  0  0  0  0  0  0  0  0  0
    4.4665   -3.7537    0.0000 H   0  0  0  0  0  0  0  0  0  0  0  0
    2.5180   -4.0992    0.0000 H   0  0  0  0  0  0  0  0  0  0  0  0
    2.4829   -4.7259    0.0000 H   0  0  0  0  0  0  0  0  0  0  0  0
    3.8208   -6.0085    0.0000 H   0  0  0  0  0  0  0  0  0  0  0  0
    2.7816   -5.7534    0.0000 H   0  0  0  0  0  0  0  0  0  0  0  0
    1.5923   -1.2239    0.0000 H   0  0  0  0  0  0  0  0  0  0  0  0
   -0.2638   -1.1659    0.0000 H   0  0  0  0  0  0  0  0  0  0  0  0
   -1.1416    0.4705    0.0000 H   0  0  0  0  0  0  0  0  0  0  0  0
   -0.1633    2.0489    0.0000 H   0  0  0  0  0  0  0  0  0  0  0  0
    3.8269    2.4598    0.0000 H   0  0  0  0  0  0  0  0  0  0  0  0
    2.3775    3.3580    0.0000 H   0  0  0  0  0  0  0  0  0  0  0  0
  1  2  1  0  0  0  0
  1 26  1  0  0  0  0
  1 27  1  0  0  0  0
  1 28  1  0  0  0  0
  2  3  1  0  0  0  0
  2 29  1  0  0  0  0
  2 30  1  0  0  0  0
  3  4  2  0  0  0  0
  3  7  1  0  0  0  0
  4  5  1  0  0  0  0
  5  6  2  0  0  0  0
  5 24  1  0  0  0  0
  6  7  1  0  0  0  0
  6 17  1  0  0  0  0
  7  8  1  0  0  0  0
  8  9  1  0  0  0  0
  8 31  1  0  0  0  0
  8 32  1  0  0  0  0
  9 10  1  0  0  0  0
  9 33  1  0  0  0  0
  9 34  1  0  0  0  0
 10 11  1  0  0  0  0
 10 35  1  0  0  0  0
 10 36  1  0  0  0  0
 11 12  1  0  0  0  0
 11 37  1  0  0  0  0
 11 38  1  0  0  0  0
 12 13  1  0  0  0  0
 12 39  1  0  0  0  0
 13 14  2  0  0  0  0
 13 15  2  0  0  0  0
 13 16  1  0  0  0  0
 16 40  1  0  0  0  0
 16 41  1  0  0  0  0
 16 42  1  0  0  0  0
 17 18  2  0  0  0  0
 17 22  1  0  0  0  0
 18 19  1  0  0  0  0
 18 43  1  0  0  0  0
 19 20  2  0  0  0  0
 19 44  1  0  0  0  0
 20 21  1  0  0  0  0
 20 45  1  0  0  0  0
 21 22  2  0  0  0  0
 21 46  1  0  0  0  0
 22 23  1  0  0  0  0
 23 24  2  0  0  0  0
 24 25  1  0  0  0  0
 25 47  1  0  0  0  0
 25 48  1  0  0  0  0
M  END
>  <DRUGBANK_ID>
DB12476

>  <COMMON_NAME>
CPG-52852

>  <CAS_NUMBER>
532959-63-0

>  <UNII>
6PJC3KPK6S

>  <SYNONYMS>
N-[4-(4-amino-2-ethylimidazo[4,5-c]quinolin-1-yl)butyl]methanesulfonamide

$$$$
