
 OpenBabel10282417072D

 31 34  0  0  0  0  0  0  0  0999 V2000
   -0.7090    0.0000    0.0000 C   0  0  0  0  0  0  0  0  0  0  0  0
   -0.0021    0.4141    0.0000 C   0  0  0  0  0  0  0  0  0  0  0  0
   -1.4202    0.4141    0.0000 C   0  0  0  0  0  0  0  0  0  0  0  0
   -0.7090   -0.8367    0.0000 N   0  0  0  0  0  0  0  0  0  0  0  0
   -0.0021    1.2508    0.0000 C   0  0  0  0  0  0  0  0  0  0  0  0
    0.7089    1.6691    0.0000 N   0  0  0  0  0  0  0  0  0  0  0  0
   -1.4202    1.2508    0.0000 C   0  0  0  0  0  0  0  0  0  0  0  0
   -0.7090    1.6691    0.0000 C   0  0  0  0  0  0  0  0  0  0  0  0
    0.7089    0.0000    0.0000 C   0  0  0  0  0  0  0  0  0  0  0  0
   -2.1313    0.0000    0.0000 O   0  0  0  0  0  0  0  0  0  0  0  0
    1.4202    1.2508    0.0000 C   0  0  0  0  0  0  0  0  0  0  0  0
    1.4202    0.4141    0.0000 C   0  0  0  0  0  0  0  0  0  0  0  0
   -1.4202   -1.2550    0.0000 C   0  0  0  0  0  0  0  0  0  0  0  0
    2.1313    1.6691    0.0000 C   0  0  0  0  0  0  0  0  0  0  0  0
   -2.1313   -0.8367    0.0000 C   0  0  0  0  0  0  0  0  0  0  0  0
   -0.7090    2.5058    0.0000 O   0  0  0  0  0  0  0  0  0  0  0  0
    2.1313    2.5058    0.0000 O   0  0  0  0  0  0  0  0  0  0  0  0
    0.7089   -0.8367    0.0000 O   0  0  0  0  0  0  0  0  0  0  0  0
    2.8384    1.2508    0.0000 O   0  0  0  0  0  0  0  0  0  0  0  0
   -1.4202   -2.0917    0.0000 C   0  0  0  0  0  0  0  0  0  0  0  0
   -2.8384   -1.2550    0.0000 C   0  0  0  0  0  0  0  0  0  0  0  0
   -2.1313   -2.5058    0.0000 C   0  0  0  0  0  0  0  0  0  0  0  0
   -2.8384   -2.0917    0.0000 C   0  0  0  0  0  0  0  0  0  0  0  0
   -2.3160    1.7632    0.0000 H   0  0  0  0  0  0  0  0  0  0  0  0
    2.3149   -0.1003    0.0000 H   0  0  0  0  0  0  0  0  0  0  0  0
   -0.1026   -1.3052    0.0000 H   0  0  0  0  0  0  0  0  0  0  0  0
    2.8285    0.3139    0.0000 H   0  0  0  0  0  0  0  0  0  0  0  0
   -0.5255   -2.6060    0.0000 H   0  0  0  0  0  0  0  0  0  0  0  0
   -3.7349   -0.7437    0.0000 H   0  0  0  0  0  0  0  0  0  0  0  0
   -2.1326   -3.5378    0.0000 H   0  0  0  0  0  0  0  0  0  0  0  0
   -3.7337   -2.6049    0.0000 H   0  0  0  0  0  0  0  0  0  0  0  0
  2  1  1  0  0  0  0
  3  1  1  0  0  0  0
  4  1  2  0  0  0  0
  5  2  2  0  0  0  0
  5  8  1  0  0  0  0
  6  5  1  0  0  0  0
  7  3  2  0  0  0  0
  7 24  1  0  0  0  0
  8  7  1  0  0  0  0
  9  2  1  0  0  0  0
 10  3  1  0  0  0  0
 11 12  1  0  0  0  0
 11  6  2  0  0  0  0
 12  9  2  0  0  0  0
 12 25  1  0  0  0  0
 13  4  1  0  0  0  0
 14 11  1  0  0  0  0
 15 13  1  0  0  0  0
 15 10  1  0  0  0  0
 16  8  2  0  0  0  0
 17 14  2  0  0  0  0
 18  9  1  0  0  0  0
 18 26  1  0  0  0  0
 19 14  1  0  0  0  0
 19 27  1  0  0  0  0
 20 13  2  0  0  0  0
 20 28  1  0  0  0  0
 21 15  2  0  0  0  0
 21 23  1  0  0  0  0
 21 29  1  0  0  0  0
 22 20  1  0  0  0  0
 22 30  1  0  0  0  0
 23 22  2  0  0  0  0
 23 31  1  0  0  0  0
M  END
>  <DRUGBANK_ID>
DB15945

>  <COMMON_NAME>
Pirenoxine

>  <CAS_NUMBER>
1043-21-6

>  <UNII>
27L0EP6IZK

>  <SYNONYMS>
Pirenoxina; Pirenoxine; Pirenoxinum

$$$$
