
 OpenBabel10282417072D

 50 52  0  0  0  0  0  0  0  0999 V2000
   -3.4729    0.4838    0.0000 C   0  0  0  0  0  0  0  0  0  0  0  0
   -4.2827    0.6559    0.0000 C   0  0  0  0  0  0  0  0  0  0  0  0
   -4.8342    0.0421    0.0000 O   0  0  0  0  0  0  0  0  0  0  0  0
   -4.5801   -0.7430    0.0000 C   0  0  0  0  0  0  0  0  0  0  0  0
   -3.7703   -0.9151    0.0000 C   0  0  0  0  0  0  0  0  0  0  0  0
   -3.2188   -0.3012    0.0000 N   0  0  0  0  0  0  0  0  0  0  0  0
   -2.4123   -0.4689    0.0000 C   0  0  0  0  0  0  0  0  0  0  0  0
   -2.1573   -1.2504    0.0000 O   0  0  0  0  0  0  0  0  0  0  0  0
   -1.8606    0.1454    0.0000 C   0  0  1  0  0  0  0  0  0  0  0  0
   -1.0508   -0.0266    0.0000 N   0  0  0  0  0  0  0  0  0  0  0  0
   -0.7970   -0.8121    0.0000 C   0  0  0  0  0  0  0  0  0  0  0  0
    0.0262   -0.8066    0.0000 C   0  0  2  0  0  0  0  0  0  0  0  0
    0.2755   -0.0231    0.0000 C   0  0  0  0  0  0  0  0  0  0  0  0
   -0.3819    0.4586    0.0000 C   0  0  0  0  0  0  0  0  0  0  0  0
   -1.2827   -1.4902    0.0000 O   0  0  0  0  0  0  0  0  0  0  0  0
   -2.1155    0.9268    0.0000 C   0  0  0  0  0  0  0  0  0  0  0  0
    0.5156   -1.4702    0.0000 N   0  0  0  0  0  0  0  0  0  0  0  0
    1.3358   -1.3812    0.0000 S   0  0  0  0  0  0  0  0  0  0  0  0
    1.2470   -0.5604    0.0000 O   0  0  0  0  0  0  0  0  0  0  0  0
    1.4236   -2.2061    0.0000 O   0  0  0  0  0  0  0  0  0  0  0  0
    2.1566   -1.2926    0.0000 C   0  0  0  0  0  0  0  0  0  0  0  0
    2.4908   -0.5403    0.0000 C   0  0  0  0  0  0  0  0  0  0  0  0
    3.3110   -0.4514    0.0000 C   0  0  0  0  0  0  0  0  0  0  0  0
    3.9268   -0.9951    0.0000 C   0  0  0  0  0  0  0  0  0  0  0  0
    4.6376   -0.5701    0.0000 C   0  0  0  0  0  0  0  0  0  0  0  0
    4.4614    0.2182    0.0000 C   0  0  0  0  0  0  0  0  0  0  0  0
    3.6434    0.3061    0.0000 S   0  0  0  0  0  0  0  0  0  0  0  0
    5.0209    0.8363    0.0000 Cl  0  0  0  0  0  0  0  0  0  0  0  0
   -2.7565    1.2786    0.0000 H   0  0  0  0  0  0  0  0  0  0  0  0
   -2.4265    0.2605    0.0000 H   0  0  0  0  0  0  0  0  0  0  0  0
   -4.6139    1.6734    0.0000 H   0  0  0  0  0  0  0  0  0  0  0  0
   -5.3295    0.8775    0.0000 H   0  0  0  0  0  0  0  0  0  0  0  0
   -5.2965   -1.5378    0.0000 H   0  0  0  0  0  0  0  0  0  0  0  0
   -4.2497   -1.7607    0.0000 H   0  0  0  0  0  0  0  0  0  0  0  0
   -3.4391   -1.9325    0.0000 H   0  0  0  0  0  0  0  0  0  0  0  0
   -2.7235   -1.1367    0.0000 H   0  0  0  0  0  0  0  0  0  0  0  0
   -2.9075    0.3666    0.0000 H   0  0  0  0  0  0  0  0  0  0  0  0
   -0.4530   -1.7633    0.0000 H   0  0  0  0  0  0  0  0  0  0  0  0
    1.2928    0.3086    0.0000 H   0  0  0  0  0  0  0  0  0  0  0  0
    0.4445    1.0335    0.0000 H   0  0  0  0  0  0  0  0  0  0  0  0
   -0.3793    1.5286    0.0000 H   0  0  0  0  0  0  0  0  0  0  0  0
    0.5730    0.9413    0.0000 H   0  0  0  0  0  0  0  0  0  0  0  0
   -1.4005    1.7228    0.0000 H   0  0  0  0  0  0  0  0  0  0  0  0
   -3.1624    1.1480    0.0000 H   0  0  0  0  0  0  0  0  0  0  0  0
   -2.4473    1.9440    0.0000 H   0  0  0  0  0  0  0  0  0  0  0  0
    0.1056   -2.4042    0.0000 H   0  0  0  0  0  0  0  0  0  0  0  0
    2.7647   -2.1264    0.0000 H   0  0  0  0  0  0  0  0  0  0  0  0
    1.8825    0.2934    0.0000 H   0  0  0  0  0  0  0  0  0  0  0  0
    3.8318   -2.0227    0.0000 H   0  0  0  0  0  0  0  0  0  0  0  0
    5.5857   -0.9777    0.0000 H   0  0  0  0  0  0  0  0  0  0  0  0
  1  2  1  0  0  0  0
  1  6  1  0  0  0  0
  1 29  1  0  0  0  0
  1 30  1  0  0  0  0
  2  3  1  0  0  0  0
  2 31  1  0  0  0  0
  2 32  1  0  0  0  0
  3  4  1  0  0  0  0
  4  5  1  0  0  0  0
  4 33  1  0  0  0  0
  4 34  1  0  0  0  0
  5  6  1  0  0  0  0
  5 35  1  0  0  0  0
  5 36  1  0  0  0  0
  6  7  1  0  0  0  0
  7  8  2  0  0  0  0
  7  9  1  0  0  0  0
  9 16  1  0  0  0  0
  9 10  1  0  0  0  0
  9 37  1  1  0  0  0
 10 11  1  0  0  0  0
 11 12  1  0  0  0  0
 11 15  2  0  0  0  0
 12 17  1  0  0  0  0
 12 13  1  0  0  0  0
 12 38  1  1  0  0  0
 13 14  1  0  0  0  0
 13 39  1  0  0  0  0
 13 40  1  0  0  0  0
 14 10  1  0  0  0  0
 14 41  1  0  0  0  0
 14 42  1  0  0  0  0
 16 43  1  0  0  0  0
 16 44  1  0  0  0  0
 16 45  1  0  0  0  0
 17 18  1  0  0  0  0
 17 46  1  0  0  0  0
 18 19  2  0  0  0  0
 18 20  2  0  0  0  0
 18 21  1  0  0  0  0
 21 22  2  0  0  0  0
 21 47  1  0  0  0  0
 22 23  1  0  0  0  0
 22 48  1  0  0  0  0
 23 24  2  0  0  0  0
 24 25  1  0  0  0  0
 24 49  1  0  0  0  0
 25 26  2  0  0  0  0
 25 50  1  0  0  0  0
 26 27  1  0  0  0  0
 26 28  1  0  0  0  0
 27 23  1  0  0  0  0
M  END
>  <DRUGBANK_ID>
DB07278

>  <COMMON_NAME>
GW-813893

>  <CAS_NUMBER>
478644-12-1

>  <UNII>
1Y3JD5PEMS

$$$$
