
 OpenBabel10282417072D

 41 44  0  0  0  0  0  0  0  0999 V2000
   -2.3768   -3.9287    0.0000 C   0  0  0  0  0  0  0  0  0  0  0  0
   -1.6618   -2.6871    0.0000 C   0  0  0  0  0  0  0  0  0  0  0  0
   -0.8760   -2.4358    0.0000 C   0  0  0  0  0  0  0  0  0  0  0  0
   -1.6618   -3.5121    0.0000 C   0  0  0  0  0  0  0  0  0  0  0  0
   -0.8760   -3.7715    0.0000 N   0  0  0  0  0  0  0  0  0  0  0  0
   -0.3889   -3.1036    0.0000 C   0  0  0  0  0  0  0  0  0  0  0  0
    0.4360   -3.1036    0.0000 O   0  0  0  0  0  0  0  0  0  0  0  0
    0.1847   -1.4771    0.0000 N   0  0  0  0  0  0  0  0  0  0  0  0
    0.4360   -0.6914    0.0000 C   0  0  0  0  0  0  0  0  0  0  0  0
    0.9703    0.8721    0.0000 C   0  0  0  0  0  0  0  0  0  0  0  0
    0.1610    0.7071    0.0000 C   0  0  0  0  0  0  0  0  0  0  0  0
   -0.1060   -0.0706    0.0000 C   0  0  0  0  0  0  0  0  0  0  0  0
    1.2454   -0.5342    0.0000 C   0  0  0  0  0  0  0  0  0  0  0  0
    1.5125    0.2514    0.0000 C   0  0  0  0  0  0  0  0  0  0  0  0
    1.0175    2.4514    0.0000 O   0  0  0  0  0  0  0  0  0  0  0  0
    1.2375    1.6500    0.0000 S   0  0  0  0  0  0  0  0  0  0  0  0
    0.4124    1.6500    0.0000 O   0  0  0  0  0  0  0  0  0  0  0  0
   -3.0918   -3.5121    0.0000 C   0  0  0  0  0  0  0  0  0  0  0  0
   -0.6246   -1.6500    0.0000 C   0  0  0  0  0  0  0  0  0  0  0  0
    2.0468    1.8150    0.0000 N   0  0  0  0  0  0  0  0  0  0  0  0
   -3.0918   -2.6871    0.0000 C   0  0  0  0  0  0  0  0  0  0  0  0
   -2.3768   -2.2786    0.0000 C   0  0  0  0  0  0  0  0  0  0  0  0
    2.3061    2.5929    0.0000 C   0  0  0  0  0  0  0  0  0  0  0  0
    2.2825    3.9287    0.0000 C   0  0  0  0  0  0  0  0  0  0  0  0
    3.0761    3.6850    0.0000 C   0  0  0  0  0  0  0  0  0  0  0  0
    3.0918    2.8600    0.0000 S   0  0  0  0  0  0  0  0  0  0  0  0
    1.8111    3.2529    0.0000 N   0  0  0  0  0  0  0  0  0  0  0  0
   -2.3768   -4.9607    0.0000 H   0  0  0  0  0  0  0  0  0  0  0  0
   -0.5748   -4.7088    0.0000 H   0  0  0  0  0  0  0  0  0  0  0  0
    0.8455   -2.2069    0.0000 H   0  0  0  0  0  0  0  0  0  0  0  0
   -0.5200    1.4826    0.0000 H   0  0  0  0  0  0  0  0  0  0  0  0
   -1.1187   -0.2691    0.0000 H   0  0  0  0  0  0  0  0  0  0  0  0
    1.9239   -1.3118    0.0000 H   0  0  0  0  0  0  0  0  0  0  0  0
    2.5249    0.4515    0.0000 H   0  0  0  0  0  0  0  0  0  0  0  0
   -3.9866   -4.0263    0.0000 H   0  0  0  0  0  0  0  0  0  0  0  0
   -1.3173   -0.8850    0.0000 H   0  0  0  0  0  0  0  0  0  0  0  0
    2.6997    1.0782    0.0000 H   0  0  0  0  0  0  0  0  0  0  0  0
   -3.9844   -2.1691    0.0000 H   0  0  0  0  0  0  0  0  0  0  0  0
   -2.3768   -1.2466    0.0000 H   0  0  0  0  0  0  0  0  0  0  0  0
    1.9462    4.9044    0.0000 H   0  0  0  0  0  0  0  0  0  0  0  0
    3.9002    4.3062    0.0000 H   0  0  0  0  0  0  0  0  0  0  0  0
  1 18  1  0  0  0  0
  1  4  2  0  0  0  0
  1 28  1  0  0  0  0
  2 22  2  0  0  0  0
  2  3  1  0  0  0  0
  2  4  1  0  0  0  0
  3  6  1  0  0  0  0
  3 19  2  0  0  0  0
  4  5  1  0  0  0  0
  5  6  1  0  0  0  0
  5 29  1  0  0  0  0
  6  7  2  0  0  0  0
  8 19  1  0  0  0  0
  8  9  1  0  0  0  0
  8 30  1  0  0  0  0
  9 12  2  0  0  0  0
  9 13  1  0  0  0  0
 10 11  2  0  0  0  0
 10 14  1  0  0  0  0
 10 16  1  0  0  0  0
 11 12  1  0  0  0  0
 11 31  1  0  0  0  0
 12 32  1  0  0  0  0
 13 14  2  0  0  0  0
 13 33  1  0  0  0  0
 14 34  1  0  0  0  0
 15 16  2  0  0  0  0
 16 20  1  0  0  0  0
 16 17  2  0  0  0  0
 18 21  2  0  0  0  0
 18 35  1  0  0  0  0
 19 36  1  0  0  0  0
 20 23  1  0  0  0  0
 20 37  1  0  0  0  0
 21 22  1  0  0  0  0
 21 38  1  0  0  0  0
 22 39  1  0  0  0  0
 23 27  2  0  0  0  0
 23 26  1  0  0  0  0
 24 27  1  0  0  0  0
 24 25  2  0  0  0  0
 24 40  1  0  0  0  0
 25 26  1  0  0  0  0
 25 41  1  0  0  0  0
M  END
>  <DRUGBANK_ID>
DB08125

>  <COMMON_NAME>
4-{[(2-Oxo-1,2-dihydro-3H-indol-3-ylidene)methyl]amino}-N-(1,3-thiazol-2-yl)benzenesulfonamide

$$$$
