
 OpenBabel10282417072D

 29 30  0  0  0  0  0  0  0  0999 V2000
   -1.4014   -0.4370    0.0000 C   0  0  0  0  0  0  0  0  0  0  0  0
   -1.4014    0.3660    0.0000 C   0  0  0  0  0  0  0  0  0  0  0  0
   -0.6720   -0.8522    0.0000 O   0  0  0  0  0  0  0  0  0  0  0  0
   -2.1144   -0.8632    0.0000 C   0  0  0  0  0  0  0  0  0  0  0  0
   -2.1389    0.7703    0.0000 C   0  0  0  0  0  0  0  0  0  0  0  0
   -0.6884    0.7840    0.0000 O   0  0  0  0  0  0  0  0  0  0  0  0
    0.0409   -0.4370    0.0000 C   0  0  0  0  0  0  0  0  0  0  0  0
   -2.8519   -0.4562    0.0000 C   0  0  0  0  0  0  0  0  0  0  0  0
   -2.8519    0.3742    0.0000 C   0  0  0  0  0  0  0  0  0  0  0  0
   -0.6884    1.6062    0.0000 C   0  0  0  0  0  0  0  0  0  0  0  0
    0.7129   -0.8331    0.0000 C   0  0  3  0  0  0  0  0  0  0  0  0
    0.9942   -1.6062    0.0000 C   0  0  0  0  0  0  0  0  0  0  0  0
    1.3986   -0.3387    0.0000 O   0  0  0  0  0  0  0  0  0  0  0  0
    1.8057   -1.6062    0.0000 N   0  0  0  0  0  0  0  0  0  0  0  0
    2.0733   -0.8331    0.0000 C   0  0  0  0  0  0  0  0  0  0  0  0
    2.8519   -0.5846    0.0000 O   0  0  0  0  0  0  0  0  0  0  0  0
   -2.0966   -1.8950    0.0000 H   0  0  0  0  0  0  0  0  0  0  0  0
   -2.1418    1.8023    0.0000 H   0  0  0  0  0  0  0  0  0  0  0  0
    0.0437    0.6330    0.0000 H   0  0  0  0  0  0  0  0  0  0  0  0
    0.9706    0.0926    0.0000 H   0  0  0  0  0  0  0  0  0  0  0  0
   -3.7406   -0.9808    0.0000 H   0  0  0  0  0  0  0  0  0  0  0  0
   -3.7413    0.8976    0.0000 H   0  0  0  0  0  0  0  0  0  0  0  0
    0.2382    2.1412    0.0000 H   0  0  0  0  0  0  0  0  0  0  0  0
   -1.6150    2.1412    0.0000 H   0  0  0  0  0  0  0  0  0  0  0  0
   -0.6884    2.6762    0.0000 H   0  0  0  0  0  0  0  0  0  0  0  0
   -0.1099   -1.5171    0.0000 H   0  0  0  0  0  0  0  0  0  0  0  0
    0.3804   -2.4827    0.0000 H   0  0  0  0  0  0  0  0  0  0  0  0
    1.4882   -2.5553    0.0000 H   0  0  0  0  0  0  0  0  0  0  0  0
    2.3768   -2.4082    0.0000 H   0  0  0  0  0  0  0  0  0  0  0  0
  1  2  2  0  0  0  0
  1  3  1  0  0  0  0
  1  4  1  0  0  0  0
  2  5  1  0  0  0  0
  2  6  1  0  0  0  0
  3  7  1  0  0  0  0
  4  8  2  0  0  0  0
  4 17  1  0  0  0  0
  5  9  2  0  0  0  0
  5 18  1  0  0  0  0
  6 10  1  0  0  0  0
  7 11  1  0  0  0  0
  7 19  1  0  0  0  0
  7 20  1  0  0  0  0
  8  9  1  0  0  0  0
  8 21  1  0  0  0  0
  9 22  1  0  0  0  0
 10 23  1  0  0  0  0
 10 24  1  0  0  0  0
 10 25  1  0  0  0  0
 11 12  1  0  0  0  0
 11 13  1  0  0  0  0
 11 26  1  0  0  0  0
 12 14  1  0  0  0  0
 12 27  1  0  0  0  0
 12 28  1  0  0  0  0
 13 15  1  0  0  0  0
 14 15  1  0  0  0  0
 14 29  1  0  0  0  0
 15 16  2  0  0  0  0
M  END
>  <DRUGBANK_ID>
DB13754

>  <COMMON_NAME>
Mephenoxalone

>  <CAS_NUMBER>
70-07-5

>  <UNII>
CZ87T54W8W

>  <SYNONYMS>
Mefenoxalona; Mephenoxalone; Mephenoxalonum

$$$$
