TZY
 OpenBabel10282417072D

 39 42  0  0  0  0  0  0  0  0999 V2000
   -0.1435    0.4855    0.0000 C   0  0  0  0  0  0  0  0  0  0  0  0
    2.1786    1.4775    0.0000 C   0  0  0  0  0  0  0  0  0  0  0  0
   -0.1435   -1.1645    0.0000 C   0  0  0  0  0  0  0  0  0  0  0  0
   -1.8975    1.1126    0.0000 C   0  0  0  0  0  0  0  0  0  0  0  0
    0.5710   -0.7520    0.0000 C   0  0  0  0  0  0  0  0  0  0  0  0
    2.5537   -2.2710    0.0000 C   0  0  0  0  0  0  0  0  0  0  0  0
   -0.8580   -0.7520    0.0000 C   0  0  0  0  0  0  0  0  0  0  0  0
    2.7252   -3.0780    0.0000 F   0  0  0  0  0  0  0  0  0  0  0  0
    1.7691   -2.0160    0.0000 C   0  0  0  0  0  0  0  0  0  0  0  0
    1.5975   -1.2091    0.0000 C   0  0  0  0  0  0  0  0  0  0  0  0
    3.1668   -1.7189    0.0000 C   0  0  0  0  0  0  0  0  0  0  0  0
    2.9953   -0.9120    0.0000 C   0  0  0  0  0  0  0  0  0  0  0  0
    2.2106   -0.6570    0.0000 C   0  0  0  0  0  0  0  0  0  0  0  0
    2.0391    0.1499    0.0000 C   0  0  0  0  0  0  0  0  0  0  0  0
    2.5911    0.7630    0.0000 N   0  0  0  0  0  0  0  0  0  0  0  0
    1.3717    1.3060    0.0000 O   0  0  0  0  0  0  0  0  0  0  0  0
    1.2854    0.4855    0.0000 C   0  0  0  0  0  0  0  0  0  0  0  0
    0.5710    0.0730    0.0000 C   0  0  0  0  0  0  0  0  0  0  0  0
   -0.8580    0.0730    0.0000 N   0  0  0  0  0  0  0  0  0  0  0  0
   -1.6426    0.3279    0.0000 C   0  0  0  0  0  0  0  0  0  0  0  0
   -2.7045    1.2841    0.0000 C   0  0  0  0  0  0  0  0  0  0  0  0
   -1.3455    1.7256    0.0000 C   0  0  0  0  0  0  0  0  0  0  0  0
   -1.6426   -1.0069    0.0000 N   0  0  0  0  0  0  0  0  0  0  0  0
   -2.1275   -0.3395    0.0000 N   0  0  0  0  0  0  0  0  0  0  0  0
   -0.1435    1.5175    0.0000 H   0  0  0  0  0  0  0  0  0  0  0  0
    2.5984    2.4203    0.0000 H   0  0  0  0  0  0  0  0  0  0  0  0
   -0.1435   -2.1965    0.0000 H   0  0  0  0  0  0  0  0  0  0  0  0
   -2.2281    2.1302    0.0000 H   0  0  0  0  0  0  0  0  0  0  0  0
    1.4647   -1.2680    0.0000 H   0  0  0  0  0  0  0  0  0  0  0  0
    1.0022   -2.7066    0.0000 H   0  0  0  0  0  0  0  0  0  0  0  0
    0.6160   -0.8903    0.0000 H   0  0  0  0  0  0  0  0  0  0  0  0
    4.1483   -2.0378    0.0000 H   0  0  0  0  0  0  0  0  0  0  0  0
    3.7622   -0.2215    0.0000 H   0  0  0  0  0  0  0  0  0  0  0  0
   -3.0352    2.3017    0.0000 H   0  0  0  0  0  0  0  0  0  0  0  0
   -3.4204    0.4889    0.0000 H   0  0  0  0  0  0  0  0  0  0  0  0
   -3.7511    1.5065    0.0000 H   0  0  0  0  0  0  0  0  0  0  0  0
   -0.2989    1.5031    0.0000 H   0  0  0  0  0  0  0  0  0  0  0  0
   -1.6761    2.7432    0.0000 H   0  0  0  0  0  0  0  0  0  0  0  0
   -0.6295    2.5207    0.0000 H   0  0  0  0  0  0  0  0  0  0  0  0
  1 18  2  0  0  0  0
  1 19  1  0  0  0  0
  1 25  1  0  0  0  0
  2 15  2  0  0  0  0
  2 16  1  0  0  0  0
  2 26  1  0  0  0  0
  3  5  2  0  0  0  0
  3  7  1  0  0  0  0
  3 27  1  0  0  0  0
  4 20  1  0  0  0  0
  4 21  1  0  0  0  0
  4 22  1  0  0  0  0
  4 28  1  0  0  0  0
  5 18  1  0  0  0  0
  5 29  1  0  0  0  0
  6  8  1  0  0  0  0
  6  9  2  0  0  0  0
  6 11  1  0  0  0  0
  7 19  1  0  0  0  0
  7 23  2  0  0  0  0
  9 10  1  0  0  0  0
  9 30  1  0  0  0  0
 10 13  2  0  0  0  0
 10 31  1  0  0  0  0
 11 12  2  0  0  0  0
 11 32  1  0  0  0  0
 12 13  1  0  0  0  0
 12 33  1  0  0  0  0
 13 14  1  0  0  0  0
 14 15  1  0  0  0  0
 14 17  2  0  0  0  0
 16 17  1  0  0  0  0
 17 18  1  0  0  0  0
 19 20  1  0  0  0  0
 20 24  2  0  0  0  0
 21 34  1  0  0  0  0
 21 35  1  0  0  0  0
 21 36  1  0  0  0  0
 22 37  1  0  0  0  0
 22 38  1  0  0  0  0
 22 39  1  0  0  0  0
 23 24  1  0  0  0  0
M  END
>  <DRUGBANK_ID>
DB04797

>  <COMMON_NAME>
Triazolopyridine

$$$$
