
 OpenBabel10282417072D

 38 40  0  0  0  0  0  0  0  0999 V2000
    0.3555   -0.4242    0.0000 C   0  0  3  0  0  0  0  0  0  0  0  0
   -0.3525   -0.0200    0.0000 C   0  0  0  0  0  0  0  0  0  0  0  0
    0.3555    1.2098    0.0000 N   0  0  0  0  0  0  0  0  0  0  0  0
    1.0664    0.8112    0.0000 C   0  0  0  0  0  0  0  0  0  0  0  0
    1.0664   -0.0200    0.0000 O   0  0  0  0  0  0  0  0  0  0  0  0
   -0.3525    0.8112    0.0000 C   0  0  0  0  0  0  0  0  0  0  0  0
   -1.0722   -0.4242    0.0000 C   0  0  0  0  0  0  0  0  0  0  0  0
    0.0029   -1.0607    0.0000 C   0  0  0  0  0  0  0  0  0  0  0  0
   -1.0722    1.2098    0.0000 C   0  0  0  0  0  0  0  0  0  0  0  0
    1.7918    1.2241    0.0000 N   0  0  0  0  0  0  0  0  0  0  0  0
   -1.7803   -0.0200    0.0000 C   0  0  0  0  0  0  0  0  0  0  0  0
    1.0235   -0.9230    0.0000 C   0  0  0  0  0  0  0  0  0  0  0  0
   -1.7803    0.8112    0.0000 C   0  0  0  0  0  0  0  0  0  0  0  0
   -2.5027   -0.4358    0.0000 Cl  0  0  0  0  0  0  0  0  0  0  0  0
   -0.8227   -1.0607    0.0000 C   0  0  0  0  0  0  0  0  0  0  0  0
    0.4157   -1.7517    0.0000 C   0  0  0  0  0  0  0  0  0  0  0  0
    1.7918    2.0526    0.0000 C   0  0  0  0  0  0  0  0  0  0  0  0
    2.5027    2.4712    0.0000 C   0  0  0  0  0  0  0  0  0  0  0  0
    0.0029   -2.4712    0.0000 C   0  0  0  0  0  0  0  0  0  0  0  0
   -1.2270   -1.7775    0.0000 C   0  0  0  0  0  0  0  0  0  0  0  0
   -0.8227   -2.4712    0.0000 C   0  0  0  0  0  0  0  0  0  0  0  0
   -1.0758   -1.4562    0.0000 H   0  0  0  0  0  0  0  0  0  0  0  0
   -1.0758    2.2418    0.0000 H   0  0  0  0  0  0  0  0  0  0  0  0
    2.6429    0.7292    0.0000 H   0  0  0  0  0  0  0  0  0  0  0  0
    0.8978   -1.9856    0.0000 H   0  0  0  0  0  0  0  0  0  0  0  0
    2.0066   -0.5006    0.0000 H   0  0  0  0  0  0  0  0  0  0  0  0
    1.8809   -1.5632    0.0000 H   0  0  0  0  0  0  0  0  0  0  0  0
   -2.6712    1.3321    0.0000 H   0  0  0  0  0  0  0  0  0  0  0  0
   -1.3432   -0.1696    0.0000 H   0  0  0  0  0  0  0  0  0  0  0  0
    1.4477   -1.7426    0.0000 H   0  0  0  0  0  0  0  0  0  0  0  0
    0.8629    2.5836    0.0000 H   0  0  0  0  0  0  0  0  0  0  0  0
    1.7849    3.1226    0.0000 H   0  0  0  0  0  0  0  0  0  0  0  0
    3.4339    1.9442    0.0000 H   0  0  0  0  0  0  0  0  0  0  0  0
    2.4935    3.5412    0.0000 H   0  0  0  0  0  0  0  0  0  0  0  0
    3.4247    3.0141    0.0000 H   0  0  0  0  0  0  0  0  0  0  0  0
    0.5201   -3.3642    0.0000 H   0  0  0  0  0  0  0  0  0  0  0  0
   -2.2590   -1.7848    0.0000 H   0  0  0  0  0  0  0  0  0  0  0  0
   -1.3369   -3.3660    0.0000 H   0  0  0  0  0  0  0  0  0  0  0  0
  2  1  1  0  0  0  0
  3  4  2  0  0  0  0
  4  5  1  0  0  0  0
  5  1  1  0  0  0  0
  6  2  1  0  0  0  0
  6  3  1  0  0  0  0
  7  2  2  0  0  0  0
  7 22  1  0  0  0  0
  8  1  1  0  0  0  0
  9  6  2  0  0  0  0
  9 13  1  0  0  0  0
  9 23  1  0  0  0  0
 10  4  1  0  0  0  0
 10 24  1  0  0  0  0
 11  7  1  0  0  0  0
 12  1  1  0  0  0  0
 12 25  1  0  0  0  0
 12 26  1  0  0  0  0
 12 27  1  0  0  0  0
 13 11  2  0  0  0  0
 13 28  1  0  0  0  0
 14 11  1  0  0  0  0
 15  8  2  0  0  0  0
 15 29  1  0  0  0  0
 16  8  1  0  0  0  0
 16 30  1  0  0  0  0
 17 10  1  0  0  0  0
 17 31  1  0  0  0  0
 17 32  1  0  0  0  0
 18 17  1  0  0  0  0
 18 33  1  0  0  0  0
 18 34  1  0  0  0  0
 18 35  1  0  0  0  0
 19 16  2  0  0  0  0
 19 36  1  0  0  0  0
 20 15  1  0  0  0  0
 20 21  2  0  0  0  0
 20 37  1  0  0  0  0
 21 19  1  0  0  0  0
 21 38  1  0  0  0  0
M  END
>  <DRUGBANK_ID>
DB08986

>  <COMMON_NAME>
Etifoxine

>  <CAS_NUMBER>
21715-46-8

>  <UNII>
X24X82MX4X

>  <SYNONYMS>
Etifoxina; Etifoxine; Etifoxinum

$$$$
