
 OpenBabel10282417072D

  4  3  0  0  0  0  0  0  0  0999 V2000
    0.0000    0.0000    0.0000 Al  0  0  0  0  0  0  0  0  0  0  0  0
    0.0000    0.0000    0.0000 H   0  0  0  0  0  0  0  0  0  0  0  0
    0.0000    0.0000    0.0000 H   0  0  0  0  0  0  0  0  0  0  0  0
    0.0000    0.0000    0.0000 H   0  0  0  0  0  0  0  0  0  0  0  0
  1  2  1  0  0  0  0
  1  3  1  0  0  0  0
  1  4  1  0  0  0  0
M  END
>  <DRUGBANK_ID>
DB01370

>  <SECONDARY_ACCESSION_NUMBERS>
DB11314

>  <COMMON_NAME>
Aluminium

>  <CAS_NUMBER>
7429-90-5

>  <UNII>
CPD4NFA903

>  <SYNONYMS>
Al; Aluminio; Aluminium; Aluminium atom; Aluminium metallicum; Aluminum; Aluminum metal; Aluminum powder; Metallic aluminum

$$$$
