
 OpenBabel10282417072D

 92 99  0  0  0  0  0  0  0  0999 V2000
    2.6319    1.5919    0.0000 C   0  0  0  0  0  0  0  0  0  0  0  0
    0.1167   -0.1273    0.0000 C   0  0  0  0  0  0  0  0  0  0  0  0
    0.1167   -0.9657    0.0000 C   0  0  0  0  0  0  0  0  0  0  0  0
   -0.5836    0.2865    0.0000 C   0  0  0  0  0  0  0  0  0  0  0  0
   -0.5943   -1.3690    0.0000 C   0  0  0  0  0  0  0  0  0  0  0  0
   -1.3054   -0.1273    0.0000 C   0  0  0  0  0  0  0  0  0  0  0  0
   -1.3054   -0.9551    0.0000 C   0  0  0  0  0  0  0  0  0  0  0  0
    0.9126    0.1379    0.0000 N   0  0  0  0  0  0  0  0  0  0  0  0
    1.4008   -0.5412    0.0000 C   0  0  0  0  0  0  0  0  0  0  0  0
    0.9021   -1.2204    0.0000 C   0  0  0  0  0  0  0  0  0  0  0  0
    2.2180   -0.5412    0.0000 C   0  0  0  0  0  0  0  0  0  0  0  0
    2.7699    0.0636    0.0000 C   0  0  0  0  0  0  0  0  0  0  0  0
    2.5365   -1.3054    0.0000 C   0  0  0  0  0  0  0  0  0  0  0  0
    3.5766   -0.1061    0.0000 C   0  0  0  0  0  0  0  0  0  0  0  0
    3.3218   -1.4964    0.0000 C   0  0  0  0  0  0  0  0  0  0  0  0
    3.8737   -0.8703    0.0000 C   0  0  0  0  0  0  0  0  0  0  0  0
    1.1355   -2.0058    0.0000 C   0  0  0  0  0  0  0  0  0  0  0  0
    0.5836   -2.6319    0.0000 C   0  0  0  0  0  0  0  0  0  0  0  0
    1.9209   -2.2180    0.0000 C   0  0  0  0  0  0  0  0  0  0  0  0
    0.8490   -3.4067    0.0000 C   0  0  0  0  0  0  0  0  0  0  0  0
    2.1968   -2.9822    0.0000 C   0  0  0  0  0  0  0  0  0  0  0  0
    1.6450   -3.6083    0.0000 C   0  0  0  0  0  0  0  0  0  0  0  0
   -2.0270    0.2759    0.0000 C   0  0  0  0  0  0  0  0  0  0  0  0
   -2.0270    1.1037    0.0000 O   0  0  0  0  0  0  0  0  0  0  0  0
   -2.7381   -0.1273    0.0000 N   0  0  0  0  0  0  0  0  0  0  0  0
   -3.4597    0.2759    0.0000 S   0  0  0  0  0  0  0  0  0  0  0  0
   -4.5847   -0.2228    0.0000 N   0  0  0  0  0  0  0  0  0  0  0  0
   -3.4597    1.0931    0.0000 O   0  0  0  0  0  0  0  0  0  0  0  0
   -5.3064    0.1804    0.0000 C   0  0  0  0  0  0  0  0  0  0  0  0
   -4.5847   -1.0400    0.0000 C   0  0  0  0  0  0  0  0  0  0  0  0
    1.1674    0.8809    0.0000 C   0  0  0  0  0  0  0  0  0  0  0  0
    2.5259    0.8172    0.0000 C   0  0  1  0  0  0  0  0  0  0  0  0
    1.8573    1.2842    0.0000 C   0  0  2  0  0  0  0  0  0  0  0  0
    1.4964    2.0377    0.0000 C   0  0  0  0  0  0  0  0  0  0  0  0
    1.9421    2.7381    0.0000 O   0  0  0  0  0  0  0  0  0  0  0  0
    0.6686    2.1332    0.0000 N   0  0  0  0  0  0  0  0  0  0  0  0
    0.6686    2.9610    0.0000 C   0  0  1  0  0  0  0  0  0  0  0  0
   -0.0425    3.3749    0.0000 C   0  0  0  0  0  0  0  0  0  0  0  0
   -0.0425    1.7193    0.0000 C   0  0  2  0  0  0  0  0  0  0  0  0
   -0.7641    2.9610    0.0000 N   0  0  0  0  0  0  0  0  0  0  0  0
   -0.7641    2.1332    0.0000 C   0  0  0  0  0  0  0  0  0  0  0  0
   -1.4751    3.3749    0.0000 C   0  0  0  0  0  0  0  0  0  0  0  0
   -0.1167    0.6792    0.0000 C   0  0  0  0  0  0  0  0  0  0  0  0
    1.4751    3.6083    0.0000 C   0  0  0  0  0  0  0  0  0  0  0  0
   -3.4597   -0.8277    0.0000 O   0  0  0  0  0  0  0  0  0  0  0  0
    4.9243   -1.0931    0.0000 O   0  0  0  0  0  0  0  0  0  0  0  0
    5.3064   -2.0801    0.0000 C   0  0  0  0  0  0  0  0  0  0  0  0
    3.2916    2.4343    0.0000 H   0  0  0  0  0  0  0  0  0  0  0  0
    1.9909    2.4487    0.0000 H   0  0  0  0  0  0  0  0  0  0  0  0
   -0.5768    1.3185    0.0000 H   0  0  0  0  0  0  0  0  0  0  0  0
   -0.6001   -2.4010    0.0000 H   0  0  0  0  0  0  0  0  0  0  0  0
   -2.2000   -1.4695    0.0000 H   0  0  0  0  0  0  0  0  0  0  0  0
    1.8660   -2.0899    0.0000 H   0  0  0  0  0  0  0  0  0  0  0  0
    4.2443    0.6808    0.0000 H   0  0  0  0  0  0  0  0  0  0  0  0
    3.6316   -2.4808    0.0000 H   0  0  0  0  0  0  0  0  0  0  0  0
    1.4437   -3.0304    0.0000 H   0  0  0  0  0  0  0  0  0  0  0  0
   -0.4659   -2.4233    0.0000 H   0  0  0  0  0  0  0  0  0  0  0  0
   -0.1207   -3.4374    0.0000 H   0  0  0  0  0  0  0  0  0  0  0  0
    2.6456   -1.4308    0.0000 H   0  0  0  0  0  0  0  0  0  0  0  0
    2.9698   -2.4293    0.0000 H   0  0  0  0  0  0  0  0  0  0  0  0
    0.1240   -4.1937    0.0000 H   0  0  0  0  0  0  0  0  0  0  0  0
    1.1541   -4.4323    0.0000 H   0  0  0  0  0  0  0  0  0  0  0  0
    3.2480   -3.1821    0.0000 H   0  0  0  0  0  0  0  0  0  0  0  0
    2.5437   -3.9944    0.0000 H   0  0  0  0  0  0  0  0  0  0  0  0
    1.9614   -4.6305    0.0000 H   0  0  0  0  0  0  0  0  0  0  0  0
    2.6912   -3.8325    0.0000 H   0  0  0  0  0  0  0  0  0  0  0  0
   -2.7350   -1.1118    0.0000 H   0  0  0  0  0  0  0  0  0  0  0  0
   -5.3215    1.2503    0.0000 H   0  0  0  0  0  0  0  0  0  0  0  0
   -6.2254   -0.3676    0.0000 H   0  0  0  0  0  0  0  0  0  0  0  0
   -6.2405    0.7023    0.0000 H   0  0  0  0  0  0  0  0  0  0  0  0
   -5.5113   -1.5750    0.0000 H   0  0  0  0  0  0  0  0  0  0  0  0
   -3.6581   -1.5750    0.0000 H   0  0  0  0  0  0  0  0  0  0  0  0
   -4.5847   -2.1100    0.0000 H   0  0  0  0  0  0  0  0  0  0  0  0
    0.3395    1.5588    0.0000 H   0  0  0  0  0  0  0  0  0  0  0  0
    1.2514    1.9476    0.0000 H   0  0  0  0  0  0  0  0  0  0  0  0
    3.5917    0.9118    0.0000 H   0  0  0  0  0  0  0  0  0  0  0  0
    1.6334    2.4983    0.0000 H   0  0  0  0  0  0  0  0  0  0  0  0
   -0.0391    4.4449    0.0000 H   0  0  0  0  0  0  0  0  0  0  0  0
   -0.9675    3.9127    0.0000 H   0  0  0  0  0  0  0  0  0  0  0  0
    0.8655    1.1532    0.0000 H   0  0  0  0  0  0  0  0  0  0  0  0
   -1.6900    1.5969    0.0000 H   0  0  0  0  0  0  0  0  0  0  0  0
   -1.6911    2.6675    0.0000 H   0  0  0  0  0  0  0  0  0  0  0  0
   -1.4713    4.4449    0.0000 H   0  0  0  0  0  0  0  0  0  0  0  0
   -2.4037    2.8432    0.0000 H   0  0  0  0  0  0  0  0  0  0  0  0
   -2.3998    3.9132    0.0000 H   0  0  0  0  0  0  0  0  0  0  0  0
   -0.4170   -0.3478    0.0000 H   0  0  0  0  0  0  0  0  0  0  0  0
    0.8725    0.2713    0.0000 H   0  0  0  0  0  0  0  0  0  0  0  0
    2.1612    4.4293    0.0000 H   0  0  0  0  0  0  0  0  0  0  0  0
    2.3600    3.0068    0.0000 H   0  0  0  0  0  0  0  0  0  0  0  0
    4.6354   -2.9136    0.0000 H   0  0  0  0  0  0  0  0  0  0  0  0
    6.3637   -2.2445    0.0000 H   0  0  0  0  0  0  0  0  0  0  0  0
    5.6927   -3.0779    0.0000 H   0  0  0  0  0  0  0  0  0  0  0  0
  1 48  1  0  0  0  0
  1 49  1  0  0  0  0
  2  4  2  0  0  0  0
  2  8  1  0  0  0  0
  2  3  1  0  0  0  0
  3  5  2  0  0  0  0
  3 10  1  0  0  0  0
  4  6  1  0  0  0  0
  4 50  1  0  0  0  0
  5  7  1  0  0  0  0
  5 51  1  0  0  0  0
  6  7  2  0  0  0  0
  6 23  1  0  0  0  0
  7 52  1  0  0  0  0
  8  9  1  0  0  0  0
  8 31  1  0  0  0  0
  9 10  2  0  0  0  0
  9 11  1  0  0  0  0
 10 17  1  0  0  0  0
 11 12  1  0  0  0  0
 11 13  2  0  0  0  0
 12 14  2  0  0  0  0
 12 32  1  0  0  0  0
 13 15  1  0  0  0  0
 13 53  1  0  0  0  0
 14 16  1  0  0  0  0
 14 54  1  0  0  0  0
 15 16  2  0  0  0  0
 15 55  1  0  0  0  0
 16 46  1  0  0  0  0
 17 18  1  0  0  0  0
 17 19  1  0  0  0  0
 17 56  1  0  0  0  0
 18 20  1  0  0  0  0
 18 57  1  0  0  0  0
 18 58  1  0  0  0  0
 19 21  1  0  0  0  0
 19 59  1  0  0  0  0
 19 60  1  0  0  0  0
 20 22  1  0  0  0  0
 20 61  1  0  0  0  0
 20 62  1  0  0  0  0
 21 22  1  0  0  0  0
 21 63  1  0  0  0  0
 21 64  1  0  0  0  0
 22 65  1  0  0  0  0
 22 66  1  0  0  0  0
 23 24  2  0  0  0  0
 23 25  1  0  0  0  0
 25 26  1  0  0  0  0
 25 67  1  0  0  0  0
 26 27  1  0  0  0  0
 26 28  2  0  0  0  0
 26 45  2  0  0  0  0
 27 29  1  0  0  0  0
 27 30  1  0  0  0  0
 29 68  1  0  0  0  0
 29 69  1  0  0  0  0
 29 70  1  0  0  0  0
 30 71  1  0  0  0  0
 30 72  1  0  0  0  0
 30 73  1  0  0  0  0
 31 33  1  0  0  0  0
 31 74  1  0  0  0  0
 31 75  1  0  0  0  0
 32  1  1  0  0  0  0
 32 33  1  0  0  0  0
 32 76  1  6  0  0  0
 33  1  1  0  0  0  0
 33 34  1  6  0  0  0
 34 35  2  0  0  0  0
 34 36  1  0  0  0  0
 36 37  1  0  0  0  0
 36 39  1  0  0  0  0
 37 38  1  0  0  0  0
 37 44  1  0  0  0  0
 37 77  1  6  0  0  0
 38 40  1  0  0  0  0
 38 78  1  0  0  0  0
 38 79  1  0  0  0  0
 39 41  1  0  0  0  0
 39 43  1  0  0  0  0
 39 80  1  6  0  0  0
 40 41  1  0  0  0  0
 40 42  1  0  0  0  0
 41 81  1  0  0  0  0
 41 82  1  0  0  0  0
 42 83  1  0  0  0  0
 42 84  1  0  0  0  0
 42 85  1  0  0  0  0
 43 44  1  0  0  0  0
 43 86  1  0  0  0  0
 43 87  1  0  0  0  0
 44 88  1  0  0  0  0
 44 89  1  0  0  0  0
 46 47  1  0  0  0  0
 47 90  1  0  0  0  0
 47 91  1  0  0  0  0
 47 92  1  0  0  0  0
M  END
>  <DRUGBANK_ID>
DB12225

>  <COMMON_NAME>
Beclabuvir

>  <CAS_NUMBER>
958002-33-0

>  <UNII>
MYW1X5CO9S

>  <SYNONYMS>
Beclabuvir

$$$$
