
 OpenBabel10282417072D

 68 71  0  0  1  0  0  0  0  0999 V2000
    6.2342    2.0980    0.0000 C   0  0  0  0  0  0  0  0  0  0  0  0
    5.4458    2.3412    0.0000 C   0  0  0  0  0  0  0  0  0  0  0  0
    4.8410    1.7800    0.0000 C   0  0  0  0  0  0  0  0  0  0  0  0
    4.0527    2.0232    0.0000 C   0  0  0  0  0  0  0  0  0  0  0  0
    3.8691    2.8275    0.0000 C   0  0  0  0  0  0  0  0  0  0  0  0
    4.4739    3.3886    0.0000 C   0  0  0  0  0  0  0  0  0  0  0  0
    5.2622    3.1455    0.0000 C   0  0  0  0  0  0  0  0  0  0  0  0
    5.8670    3.7066    0.0000 C   0  0  0  0  0  0  0  0  0  0  0  0
    5.6834    4.5109    0.0000 N   0  0  0  0  0  0  0  0  0  0  0  0
    6.2882    5.0721    0.0000 C   0  0  0  0  0  0  0  0  0  0  0  0
    7.0765    4.8289    0.0000 O   0  0  0  0  0  0  0  0  0  0  0  0
    6.1046    5.8764    0.0000 N   0  0  0  0  0  0  0  0  0  0  0  0
    5.3460    6.2006    0.0000 C   0  0  0  0  0  0  0  0  0  0  0  0
    5.4199    7.0223    0.0000 C   0  0  0  0  0  0  0  0  0  0  0  0
    6.2243    7.2059    0.0000 C   0  0  0  0  0  0  0  0  0  0  0  0
    6.6474    6.4977    0.0000 C   0  0  1  0  0  0  0  0  0  0  0  0
    7.4691    6.4237    0.0000 C   0  0  0  0  0  0  0  0  0  0  0  0
    7.8159    5.6752    0.0000 O   0  0  0  0  0  0  0  0  0  0  0  0
    7.9440    7.0983    0.0000 N   0  0  0  0  0  0  0  0  0  0  0  0
    8.7656    7.0244    0.0000 C   0  0  0  0  0  0  0  0  0  0  0  0
    7.5972    7.8469    0.0000 C   0  0  0  0  0  0  0  0  0  0  0  0
    3.4479    1.4620    0.0000 C   0  0  0  0  0  0  0  0  0  0  0  0
    2.6596    1.7052    0.0000 O   0  0  0  0  0  0  0  0  0  0  0  0
    3.6315    0.6577    0.0000 N   0  0  0  0  0  0  0  0  0  0  0  0
    4.4358    0.4742    0.0000 C   0  0  0  0  0  0  0  0  0  0  0  0
    4.7938   -0.2691    0.0000 C   0  0  0  0  0  0  0  0  0  0  0  0
    4.4358   -1.0124    0.0000 C   0  0  0  0  0  0  0  0  0  0  0  0
    3.6315   -1.1960    0.0000 C   0  0  0  0  0  0  0  0  0  0  0  0
    2.9865   -0.6816    0.0000 C   0  0  0  0  0  0  0  0  0  0  0  0
    2.9865    0.1434    0.0000 C   0  0  0  0  0  0  0  0  0  0  0  0
    2.2720    0.5559    0.0000 C   0  0  0  0  0  0  0  0  0  0  0  0
    1.5575    0.1434    0.0000 C   0  0  0  0  0  0  0  0  0  0  0  0
    1.5575   -0.6816    0.0000 C   0  0  0  0  0  0  0  0  0  0  0  0
    2.2720   -1.0941    0.0000 C   0  0  0  0  0  0  0  0  0  0  0  0
    6.4723    1.0548    0.0000 H   0  0  0  0  0  0  0  0  0  0  0  0
    7.0186    2.8258    0.0000 H   0  0  0  0  0  0  0  0  0  0  0  0
    7.2567    1.7826    0.0000 H   0  0  0  0  0  0  0  0  0  0  0  0
    5.0706    0.7739    0.0000 H   0  0  0  0  0  0  0  0  0  0  0  0
    2.8830    3.1317    0.0000 H   0  0  0  0  0  0  0  0  0  0  0  0
    4.2443    4.3947    0.0000 H   0  0  0  0  0  0  0  0  0  0  0  0
    6.8895    3.3912    0.0000 H   0  0  0  0  0  0  0  0  0  0  0  0
    6.6514    4.4344    0.0000 H   0  0  0  0  0  0  0  0  0  0  0  0
    4.7426    4.8011    0.0000 H   0  0  0  0  0  0  0  0  0  0  0  0
    4.4275    5.6517    0.0000 H   0  0  0  0  0  0  0  0  0  0  0  0
    4.4400    6.7698    0.0000 H   0  0  0  0  0  0  0  0  0  0  0  0
    4.6141    7.7263    0.0000 H   0  0  0  0  0  0  0  0  0  0  0  0
    5.6813    8.0599    0.0000 H   0  0  0  0  0  0  0  0  0  0  0  0
    6.6449    8.1898    0.0000 H   0  0  0  0  0  0  0  0  0  0  0  0
    7.2919    7.2779    0.0000 H   0  0  0  0  0  0  0  0  0  0  0  0
    7.2167    7.4037    0.0000 H   0  0  0  0  0  0  0  0  0  0  0  0
    9.2154    6.0536    0.0000 H   0  0  0  0  0  0  0  0  0  0  0  0
    9.3815    7.8994    0.0000 H   0  0  0  0  0  0  0  0  0  0  0  0
    9.8313    6.9285    0.0000 H   0  0  0  0  0  0  0  0  0  0  0  0
    8.2131    8.7219    0.0000 H   0  0  0  0  0  0  0  0  0  0  0  0
    6.5315    7.9428    0.0000 H   0  0  0  0  0  0  0  0  0  0  0  0
    7.1474    8.8178    0.0000 H   0  0  0  0  0  0  0  0  0  0  0  0
    5.1029    1.3108    0.0000 H   0  0  0  0  0  0  0  0  0  0  0  0
    5.4991    0.3545    0.0000 H   0  0  0  0  0  0  0  0  0  0  0  0
    5.8638   -0.2691    0.0000 H   0  0  0  0  0  0  0  0  0  0  0  0
    5.3631   -1.1751    0.0000 H   0  0  0  0  0  0  0  0  0  0  0  0
    5.1029   -1.8490    0.0000 H   0  0  0  0  0  0  0  0  0  0  0  0
    4.0824   -2.0224    0.0000 H   0  0  0  0  0  0  0  0  0  0  0  0
    3.3934   -2.2392    0.0000 H   0  0  0  0  0  0  0  0  0  0  0  0
    2.6215   -1.5494    0.0000 H   0  0  0  0  0  0  0  0  0  0  0  0
    2.2720    1.5879    0.0000 H   0  0  0  0  0  0  0  0  0  0  0  0
    0.6638    0.6594    0.0000 H   0  0  0  0  0  0  0  0  0  0  0  0
    0.6638   -1.1976    0.0000 H   0  0  0  0  0  0  0  0  0  0  0  0
    2.2720   -2.1261    0.0000 H   0  0  0  0  0  0  0  0  0  0  0  0
  1  2  1  0  0  0  0
  1 35  1  0  0  0  0
  1 36  1  0  0  0  0
  1 37  1  0  0  0  0
  2  3  2  0  0  0  0
  2  7  1  0  0  0  0
  3  4  1  0  0  0  0
  3 38  1  0  0  0  0
  4  5  2  0  0  0  0
  4 22  1  0  0  0  0
  5  6  1  0  0  0  0
  5 39  1  0  0  0  0
  6  7  2  0  0  0  0
  6 40  1  0  0  0  0
  7  8  1  0  0  0  0
  8  9  1  0  0  0  0
  8 41  1  0  0  0  0
  8 42  1  0  0  0  0
  9 10  1  0  0  0  0
  9 43  1  0  0  0  0
 10 11  2  0  0  0  0
 10 12  1  0  0  0  0
 12 13  1  0  0  0  0
 12 16  1  0  0  0  0
 13 14  1  0  0  0  0
 13 44  1  0  0  0  0
 13 45  1  0  0  0  0
 14 15  1  0  0  0  0
 14 46  1  0  0  0  0
 14 47  1  0  0  0  0
 15 16  1  0  0  0  0
 15 48  1  0  0  0  0
 15 49  1  0  0  0  0
 16 17  1  0  0  0  0
 16 50  1  6  0  0  0
 17 18  2  0  0  0  0
 17 19  1  0  0  0  0
 19 20  1  0  0  0  0
 19 21  1  0  0  0  0
 20 51  1  0  0  0  0
 20 52  1  0  0  0  0
 20 53  1  0  0  0  0
 21 54  1  0  0  0  0
 21 55  1  0  0  0  0
 21 56  1  0  0  0  0
 22 23  2  0  0  0  0
 22 24  1  0  0  0  0
 24 25  1  0  0  0  0
 24 30  1  0  0  0  0
 25 26  1  0  0  0  0
 25 57  1  0  0  0  0
 25 58  1  0  0  0  0
 26 27  1  0  0  0  0
 26 59  1  0  0  0  0
 26 60  1  0  0  0  0
 27 28  1  0  0  0  0
 27 61  1  0  0  0  0
 27 62  1  0  0  0  0
 28 29  1  0  0  0  0
 28 63  1  0  0  0  0
 28 64  1  0  0  0  0
 29 30  2  0  0  0  0
 29 34  1  0  0  0  0
 30 31  1  0  0  0  0
 31 32  2  0  0  0  0
 31 65  1  0  0  0  0
 32 33  1  0  0  0  0
 32 66  1  0  0  0  0
 33 34  2  0  0  0  0
 33 67  1  0  0  0  0
 34 68  1  0  0  0  0
M  END
>  <DRUGBANK_ID>
DB11734

>  <COMMON_NAME>
Fedovapagon

>  <CAS_NUMBER>
347887-36-9

>  <UNII>
VX2GBO4I0V

>  <SYNONYMS>
Fedovapagon

$$$$
