44B
 OpenBabel10282417072D

 30 30  0  0  0  0  0  0  0  0999 V2000
    2.3018   -0.7937    0.0000 F   0  0  0  0  0  0  0  0  0  0  0  0
    1.8893   -0.0792    0.0000 C   0  0  0  0  0  0  0  0  0  0  0  0
    2.6038    0.3333    0.0000 F   0  0  0  0  0  0  0  0  0  0  0  0
    1.1748   -0.4917    0.0000 F   0  0  0  0  0  0  0  0  0  0  0  0
    1.4768    0.6352    0.0000 C   0  0  0  0  0  0  0  0  0  0  0  0
    2.1913    1.0477    0.0000 O   0  0  0  0  0  0  0  0  0  0  0  0
    1.0643    1.3497    0.0000 C   0  0  0  0  0  0  0  0  0  0  0  0
    0.6518    2.0642    0.0000 F   0  0  0  0  0  0  0  0  0  0  0  0
    1.7788    1.7622    0.0000 F   0  0  0  0  0  0  0  0  0  0  0  0
    0.3498    0.9372    0.0000 F   0  0  0  0  0  0  0  0  0  0  0  0
    0.7623    0.2227    0.0000 C   0  0  0  0  0  0  0  0  0  0  0  0
    0.7623   -0.6023    0.0000 C   0  0  0  0  0  0  0  0  0  0  0  0
    0.0479   -1.0148    0.0000 C   0  0  0  0  0  0  0  0  0  0  0  0
    0.0479    0.6352    0.0000 C   0  0  0  0  0  0  0  0  0  0  0  0
   -0.6666    0.2227    0.0000 C   0  0  0  0  0  0  0  0  0  0  0  0
   -0.6666   -0.6023    0.0000 C   0  0  0  0  0  0  0  0  0  0  0  0
   -1.3811   -1.0148    0.0000 N   0  0  0  0  0  0  0  0  0  0  0  0
   -2.0956   -0.6023    0.0000 C   0  0  0  0  0  0  0  0  0  0  0  0
   -2.0956    0.2227    0.0000 C   0  0  0  0  0  0  0  0  0  0  0  0
   -2.0956    1.0477    0.0000 F   0  0  0  0  0  0  0  0  0  0  0  0
   -1.2706    0.2227    0.0000 F   0  0  0  0  0  0  0  0  0  0  0  0
   -2.9206    0.2227    0.0000 F   0  0  0  0  0  0  0  0  0  0  0  0
    3.0313    0.5627    0.0000 H   0  0  0  0  0  0  0  0  0  0  0  0
    1.6560   -1.1183    0.0000 H   0  0  0  0  0  0  0  0  0  0  0  0
    0.0479   -2.0468    0.0000 H   0  0  0  0  0  0  0  0  0  0  0  0
    0.0479    1.6672    0.0000 H   0  0  0  0  0  0  0  0  0  0  0  0
   -1.5603    0.7387    0.0000 H   0  0  0  0  0  0  0  0  0  0  0  0
   -1.3811   -1.9993    0.0000 H   0  0  0  0  0  0  0  0  0  0  0  0
   -3.0222   -1.1373    0.0000 H   0  0  0  0  0  0  0  0  0  0  0  0
   -3.0222   -0.0673    0.0000 H   0  0  0  0  0  0  0  0  0  0  0  0
  1  2  1  0  0  0  0
  2  3  1  0  0  0  0
  2  4  1  0  0  0  0
  2  5  1  0  0  0  0
  5  6  1  0  0  0  0
  5  7  1  0  0  0  0
  5 11  1  0  0  0  0
  6 23  1  0  0  0  0
  7  8  1  0  0  0  0
  7  9  1  0  0  0  0
  7 10  1  0  0  0  0
 11 12  2  0  0  0  0
 11 14  1  0  0  0  0
 12 13  1  0  0  0  0
 12 24  1  0  0  0  0
 13 16  2  0  0  0  0
 13 25  1  0  0  0  0
 14 15  2  0  0  0  0
 14 26  1  0  0  0  0
 15 16  1  0  0  0  0
 15 27  1  0  0  0  0
 16 17  1  0  0  0  0
 17 18  1  0  0  0  0
 17 28  1  0  0  0  0
 18 19  1  0  0  0  0
 18 29  1  0  0  0  0
 18 30  1  0  0  0  0
 19 20  1  0  0  0  0
 19 21  1  0  0  0  0
 19 22  1  0  0  0  0
M  END
>  <DRUGBANK_ID>
DB07082

>  <COMMON_NAME>
1,1,1,3,3,3-HEXAFLUORO-2-{4-[(2,2,2-TRIFLUOROETHYL)AMINO]PHENYL}PROPAN-2-OL

$$$$
