
 OpenBabel10282417072D

 49 52  0  0  0  0  0  0  0  0999 V2000
    3.2547   -0.0013    0.0000 O   0  0  0  0  0  0  0  0  0  0  0  0
   -3.2547   -0.9911    0.0000 O   0  0  0  0  0  0  0  0  0  0  0  0
    1.3376   -0.8957    0.0000 C   0  0  2  0  0  0  0  0  0  0  0  0
    1.6179   -0.1198    0.0000 C   0  0  1  0  0  0  0  0  0  0  0  0
    0.5255   -1.0409    0.0000 C   0  0  1  0  0  0  0  0  0  0  0  0
    2.4425   -0.1466    0.0000 C   0  0  2  0  0  0  0  0  0  0  0  0
   -0.0063   -0.4102    0.0000 C   0  0  0  0  0  0  0  0  0  0  0  0
    1.9889   -1.4021    0.0000 C   0  0  0  0  0  0  0  0  0  0  0  0
    1.0861    0.5108    0.0000 C   0  0  0  0  0  0  0  0  0  0  0  0
    2.6718   -0.9391    0.0000 C   0  0  0  0  0  0  0  0  0  0  0  0
   -0.8184   -0.5554    0.0000 C   0  0  0  0  0  0  0  0  0  0  0  0
    0.2452   -1.8168    0.0000 C   0  0  0  0  0  0  0  0  0  0  0  0
    0.2739    0.3656    0.0000 C   0  0  0  0  0  0  0  0  0  0  0  0
    1.9778    0.6226    0.0000 C   0  0  0  0  0  0  0  0  0  0  0  0
   -1.0987   -1.3313    0.0000 C   0  0  0  0  0  0  0  0  0  0  0  0
    2.3830    0.6763    0.0000 C   0  0  0  0  0  0  0  0  0  0  0  0
   -0.5669   -1.9621    0.0000 C   0  0  0  0  0  0  0  0  0  0  0  0
   -1.3502    0.0752    0.0000 C   0  0  0  0  0  0  0  0  0  0  0  0
   -1.9108   -1.4766    0.0000 C   0  0  0  0  0  0  0  0  0  0  0  0
    3.0658    1.1392    0.0000 C   0  0  0  0  0  0  0  0  0  0  0  0
   -2.4426   -0.8459    0.0000 C   0  0  0  0  0  0  0  0  0  0  0  0
   -2.1623   -0.0699    0.0000 C   0  0  0  0  0  0  0  0  0  0  0  0
    3.0062    1.9621    0.0000 C   0  0  0  0  0  0  0  0  0  0  0  0
    1.4258   -1.7160    0.0000 H   0  0  0  0  0  0  0  0  0  0  0  0
    0.8095   -1.8155    0.0000 H   0  0  0  0  0  0  0  0  0  0  0  0
    3.8801   -0.7428    0.0000 H   0  0  0  0  0  0  0  0  0  0  0  0
    1.9541   -2.4715    0.0000 H   0  0  0  0  0  0  0  0  0  0  0  0
    2.9260   -1.9186    0.0000 H   0  0  0  0  0  0  0  0  0  0  0  0
    1.4367    1.4814    0.0000 H   0  0  0  0  0  0  0  0  0  0  0  0
    3.6781   -1.3027    0.0000 H   0  0  0  0  0  0  0  0  0  0  0  0
    2.8047   -2.0008    0.0000 H   0  0  0  0  0  0  0  0  0  0  0  0
    0.9350   -2.6348    0.0000 H   0  0  0  0  0  0  0  0  0  0  0  0
   -0.1183   -2.8232    0.0000 H   0  0  0  0  0  0  0  0  0  0  0  0
   -0.3914    1.1545    0.0000 H   0  0  0  0  0  0  0  0  0  0  0  0
    3.0450    0.6998    0.0000 H   0  0  0  0  0  0  0  0  0  0  0  0
    1.3773    1.5082    0.0000 H   0  0  0  0  0  0  0  0  0  0  0  0
    2.4446    1.5854    0.0000 H   0  0  0  0  0  0  0  0  0  0  0  0
    1.4202    1.1431    0.0000 H   0  0  0  0  0  0  0  0  0  0  0  0
    2.3058    1.7435    0.0000 H   0  0  0  0  0  0  0  0  0  0  0  0
   -0.9304   -2.9685    0.0000 H   0  0  0  0  0  0  0  0  0  0  0  0
   -1.6202   -2.1504    0.0000 H   0  0  0  0  0  0  0  0  0  0  0  0
   -0.9866    1.0815    0.0000 H   0  0  0  0  0  0  0  0  0  0  0  0
   -2.0399    0.8933    0.0000 H   0  0  0  0  0  0  0  0  0  0  0  0
   -2.2614   -2.4472    0.0000 H   0  0  0  0  0  0  0  0  0  0  0  0
    3.9944    0.6890    0.0000 H   0  0  0  0  0  0  0  0  0  0  0  0
   -2.8520    0.7481    0.0000 H   0  0  0  0  0  0  0  0  0  0  0  0
   -3.2156   -0.2582    0.0000 H   0  0  0  0  0  0  0  0  0  0  0  0
    3.8603    2.5413    0.0000 H   0  0  0  0  0  0  0  0  0  0  0  0
    2.0775    2.4122    0.0000 H   0  0  0  0  0  0  0  0  0  0  0  0
  1 26  1  0  0  0  0
  2 21  2  0  0  0  0
  3  4  1  0  0  0  0
  3  5  1  0  0  0  0
  3  8  1  0  0  0  0
  3 24  1  6  0  0  0
  4  6  1  0  0  0  0
  4  9  1  0  0  0  0
  4 14  1  1  0  0  0
  5  7  1  0  0  0  0
  5 12  1  0  0  0  0
  5 25  1  1  0  0  0
  6  1  1  1  0  0  0
  6 10  1  0  0  0  0
  6 16  1  0  0  0  0
  7 11  2  0  0  0  0
  7 13  1  0  0  0  0
  8 10  1  0  0  0  0
  8 27  1  0  0  0  0
  8 28  1  0  0  0  0
  9 13  2  0  0  0  0
  9 29  1  0  0  0  0
 10 30  1  0  0  0  0
 10 31  1  0  0  0  0
 11 15  1  0  0  0  0
 11 18  1  0  0  0  0
 12 17  1  0  0  0  0
 12 32  1  0  0  0  0
 12 33  1  0  0  0  0
 13 34  1  0  0  0  0
 14 35  1  0  0  0  0
 14 36  1  0  0  0  0
 14 37  1  0  0  0  0
 15 17  1  0  0  0  0
 15 19  2  0  0  0  0
 16 20  1  0  0  0  0
 16 38  1  0  0  0  0
 16 39  1  0  0  0  0
 17 40  1  0  0  0  0
 17 41  1  0  0  0  0
 18 22  1  0  0  0  0
 18 42  1  0  0  0  0
 18 43  1  0  0  0  0
 19 21  1  0  0  0  0
 19 44  1  0  0  0  0
 20 23  2  0  0  0  0
 20 45  1  0  0  0  0
 21 22  1  0  0  0  0
 22 46  1  0  0  0  0
 22 47  1  0  0  0  0
 23 48  1  0  0  0  0
 23 49  1  0  0  0  0
M  END
>  <DRUGBANK_ID>
DB11372

>  <COMMON_NAME>
Altrenogest

>  <CAS_NUMBER>
850-52-2

>  <UNII>
2U0X0JA2NB

>  <SYNONYMS>
17-alpha-Allyl-estratriene-4,9,11,17-beta-ol-3-one; Allyl trenbolone; Allyltrenbolone; Altrenogest; Altrenogestum

$$$$
