
 OpenBabel10282417072D

 16 17  0  0  0  0  0  0  0  0999 V2000
    0.8299   -0.2861    0.0000 N   0  0  0  0  0  0  0  0  0  0  0  0
   -0.6654    1.2031    0.0000 N   0  0  0  0  0  0  0  0  0  0  0  0
   -1.3801   -0.0346    0.0000 N   0  0  0  0  0  0  0  0  0  0  0  0
   -0.6654   -1.2724    0.0000 N   0  0  0  0  0  0  0  0  0  0  0  0
    0.0490   -0.0346    0.0000 C   0  0  0  0  0  0  0  0  0  0  0  0
    0.0490    0.7905    0.0000 C   0  0  0  0  0  0  0  0  0  0  0  0
   -0.6654   -0.4472    0.0000 C   0  0  0  0  0  0  0  0  0  0  0  0
    0.8299    1.0419    0.0000 C   0  0  0  0  0  0  0  0  0  0  0  0
    1.3114    0.3779    0.0000 C   0  0  0  0  0  0  0  0  0  0  0  0
   -1.3801    0.7905    0.0000 C   0  0  0  0  0  0  0  0  0  0  0  0
    1.1358   -1.2219    0.0000 H   0  0  0  0  0  0  0  0  0  0  0  0
   -1.5180   -1.7647    0.0000 H   0  0  0  0  0  0  0  0  0  0  0  0
    0.1872   -1.7647    0.0000 H   0  0  0  0  0  0  0  0  0  0  0  0
    1.1506    2.0228    0.0000 H   0  0  0  0  0  0  0  0  0  0  0  0
    2.3434    0.3779    0.0000 H   0  0  0  0  0  0  0  0  0  0  0  0
   -2.2738    1.3065    0.0000 H   0  0  0  0  0  0  0  0  0  0  0  0
  1  5  1  0  0  0  0
  1  9  1  0  0  0  0
  1 11  1  0  0  0  0
  2  6  1  0  0  0  0
  2 10  2  0  0  0  0
  3  7  2  0  0  0  0
  3 10  1  0  0  0  0
  4  7  1  0  0  0  0
  4 12  1  0  0  0  0
  4 13  1  0  0  0  0
  5  6  2  0  0  0  0
  5  7  1  0  0  0  0
  6  8  1  0  0  0  0
  8  9  2  0  0  0  0
  8 14  1  0  0  0  0
  9 15  1  0  0  0  0
 10 16  1  0  0  0  0
M  END
>  <DRUGBANK_ID>
DB03506

>  <SECONDARY_ACCESSION_NUMBERS>
EXPT00355

>  <COMMON_NAME>
5H-pyrrolo[3,2-d]pyrimidin-4-amine

>  <CAS_NUMBER>
2227-98-7

>  <SYNONYMS>
5H-Pyrrolo[3,2-d]pyrimidin-4-amine; 9-deazaadenine

$$$$
