
 OpenBabel10282417072D

 21 20  0  0  1  0  0  0  0  0999 V2000
    3.1895    2.6664    0.0000 C   0  0  0  0  0  0  0  0  0  0  0  0
    3.9039    1.4289    0.0000 C   0  0  0  0  0  0  0  0  0  0  0  0
    3.1895    1.8414    0.0000 C   0  0  2  0  0  0  0  0  0  0  0  0
    4.6184    1.8414    0.0000 C   0  0  1  0  0  0  0  0  0  0  0  0
    2.4750    1.4289    0.0000 C   0  0  0  0  0  0  0  0  0  0  0  0
    5.3329    1.4289    0.0000 C   0  0  0  0  0  0  0  0  0  0  0  0
    4.6184    2.6664    0.0000 N   0  0  0  0  0  0  0  0  0  0  0  0
    1.7605    1.8414    0.0000 O   0  0  0  0  0  0  0  0  0  0  0  0
    2.4750    0.6039    0.0000 O   0  5  0  0  0  0  0  0  0  0  0  0
    6.0474    1.8414    0.0000 O   0  0  0  0  0  0  0  0  0  0  0  0
    5.3329    0.6039    0.0000 O   0  0  0  0  0  0  0  0  0  0  0  0
    3.9039    2.2539    0.0000 H   0  0  0  0  0  0  0  0  0  0  0  0
    4.6184    1.0164    0.0000 H   0  0  0  0  0  0  0  0  0  0  0  0
    4.1161    3.2014    0.0000 H   0  0  0  0  0  0  0  0  0  0  0  0
    2.2629    3.2014    0.0000 H   0  0  0  0  0  0  0  0  0  0  0  0
    3.1895    3.7364    0.0000 H   0  0  0  0  0  0  0  0  0  0  0  0
    3.9039    0.3589    0.0000 H   0  0  0  0  0  0  0  0  0  0  0  0
    4.8305    0.8939    0.0000 H   0  0  0  0  0  0  0  0  0  0  0  0
    5.5017    3.1764    0.0000 H   0  0  0  0  0  0  0  0  0  0  0  0
    3.7351    3.1764    0.0000 H   0  0  0  0  0  0  0  0  0  0  0  0
    4.5214    0.1354    0.0000 H   0  0  0  0  0  0  0  0  0  0  0  0
  1 14  1  0  0  0  0
  1 15  1  0  0  0  0
  1 16  1  0  0  0  0
  2 17  1  0  0  0  0
  2 18  1  0  0  0  0
  3  1  1  0  0  0  0
  3  2  1  0  0  0  0
  3 12  1  1  0  0  0
  4  2  1  0  0  0  0
  4  7  1  0  0  0  0
  4 13  1  1  0  0  0
  5  3  1  0  0  0  0
  6  4  1  0  0  0  0
  7 19  1  0  0  0  0
  7 20  1  0  0  0  0
  8  5  2  0  0  0  0
  9  5  1  0  0  0  0
 10  6  2  0  0  0  0
 11  6  1  0  0  0  0
 11 21  1  0  0  0  0
M  CHG  1   9  -1
M  END
>  <DRUGBANK_ID>
DB03425

>  <SECONDARY_ACCESSION_NUMBERS>
EXPT02986

>  <COMMON_NAME>
2s,4r-4-Methylglutamate

$$$$
