AT6
 OpenBabel10282417072D

 37 38  0  0  0  0  0  0  0  0999 V2000
   -2.4810    0.2576    0.0000 C   0  0  0  0  0  0  0  0  0  0  0  0
   -2.4810    1.0826    0.0000 C   0  0  0  0  0  0  0  0  0  0  0  0
   -1.7665    1.4951    0.0000 C   0  0  0  0  0  0  0  0  0  0  0  0
   -1.0520    1.0826    0.0000 N   0  0  0  0  0  0  0  0  0  0  0  0
   -1.0520    0.2576    0.0000 C   0  0  0  0  0  0  0  0  0  0  0  0
   -1.7665   -0.1549    0.0000 C   0  0  0  0  0  0  0  0  0  0  0  0
   -0.3376   -0.1549    0.0000 C   0  0  0  0  0  0  0  0  0  0  0  0
    0.3769    0.2576    0.0000 C   0  0  0  0  0  0  0  0  0  0  0  0
    1.0914   -0.1549    0.0000 N   0  0  0  0  0  0  0  0  0  0  0  0
    1.8059    0.2576    0.0000 C   0  0  0  0  0  0  0  0  0  0  0  0
    1.8059    1.0826    0.0000 O   0  0  0  0  0  0  0  0  0  0  0  0
    2.5203   -0.1549    0.0000 C   0  0  0  0  0  0  0  0  0  0  0  0
    3.2348    0.2576    0.0000 C   0  0  0  0  0  0  0  0  0  0  0  0
    3.9493   -0.1549    0.0000 C   0  0  0  0  0  0  0  0  0  0  0  0
    3.9493   -0.9799    0.0000 C   0  0  0  0  0  0  0  0  0  0  0  0
    3.2348   -1.3924    0.0000 C   0  0  0  0  0  0  0  0  0  0  0  0
    2.5203   -0.9799    0.0000 C   0  0  0  0  0  0  0  0  0  0  0  0
    4.6637   -1.3924    0.0000 C   0  0  0  0  0  0  0  0  0  0  0  0
    5.3782   -1.8049    0.0000 N   0  0  0  0  0  0  0  0  0  0  0  0
   -1.7665    2.3201    0.0000 N   0  0  0  0  0  0  0  0  0  0  0  0
   -3.1954   -0.1549    0.0000 C   0  0  0  0  0  0  0  0  0  0  0  0
   -3.3747    1.5986    0.0000 H   0  0  0  0  0  0  0  0  0  0  0  0
   -1.7665   -1.1869    0.0000 H   0  0  0  0  0  0  0  0  0  0  0  0
   -0.3376   -1.2249    0.0000 H   0  0  0  0  0  0  0  0  0  0  0  0
    0.5890   -0.6899    0.0000 H   0  0  0  0  0  0  0  0  0  0  0  0
    0.3769    1.3276    0.0000 H   0  0  0  0  0  0  0  0  0  0  0  0
    1.3035    0.7926    0.0000 H   0  0  0  0  0  0  0  0  0  0  0  0
    1.0914   -1.1394    0.0000 H   0  0  0  0  0  0  0  0  0  0  0  0
    3.2348    1.2896    0.0000 H   0  0  0  0  0  0  0  0  0  0  0  0
    4.8430    0.3611    0.0000 H   0  0  0  0  0  0  0  0  0  0  0  0
    3.2348   -2.4244    0.0000 H   0  0  0  0  0  0  0  0  0  0  0  0
    1.6266   -1.4959    0.0000 H   0  0  0  0  0  0  0  0  0  0  0  0
   -0.9139    2.8124    0.0000 H   0  0  0  0  0  0  0  0  0  0  0  0
   -2.6191    2.8123    0.0000 H   0  0  0  0  0  0  0  0  0  0  0  0
   -4.1221    0.3801    0.0000 H   0  0  0  0  0  0  0  0  0  0  0  0
   -3.1954   -1.2249    0.0000 H   0  0  0  0  0  0  0  0  0  0  0  0
   -4.1220   -0.6899    0.0000 H   0  0  0  0  0  0  0  0  0  0  0  0
  1  2  2  0  0  0  0
  1  6  1  0  0  0  0
  1 21  1  0  0  0  0
  2  3  1  0  0  0  0
  2 22  1  0  0  0  0
  3  4  2  0  0  0  0
  3 20  1  0  0  0  0
  4  5  1  0  0  0  0
  5  6  2  0  0  0  0
  5  7  1  0  0  0  0
  6 23  1  0  0  0  0
  7  8  1  0  0  0  0
  7 24  1  0  0  0  0
  7 25  1  0  0  0  0
  8  9  1  0  0  0  0
  8 26  1  0  0  0  0
  8 27  1  0  0  0  0
  9 10  1  0  0  0  0
  9 28  1  0  0  0  0
 10 11  2  0  0  0  0
 10 12  1  0  0  0  0
 12 13  1  0  0  0  0
 12 17  2  0  0  0  0
 13 14  2  0  0  0  0
 13 29  1  0  0  0  0
 14 15  1  0  0  0  0
 14 30  1  0  0  0  0
 15 16  2  0  0  0  0
 15 18  1  0  0  0  0
 16 17  1  0  0  0  0
 16 31  1  0  0  0  0
 17 32  1  0  0  0  0
 18 19  3  0  0  0  0
 20 33  1  0  0  0  0
 20 34  1  0  0  0  0
 21 35  1  0  0  0  0
 21 36  1  0  0  0  0
 21 37  1  0  0  0  0
M  END
>  <DRUGBANK_ID>
DB07389

>  <COMMON_NAME>
N-[2-(6-AMINO-4-METHYLPYRIDIN-2-YL)ETHYL]-4-CYANOBENZAMIDE

$$$$
