
 OpenBabel10282417072D

  5  4  0  0  0  0  0  0  0  0999 V2000
    1.6500    0.0000    0.0000 N   0  0  0  0  0  0  0  0  0  0  0  0
    2.4750    0.0000    0.0000 C   0  0  0  0  0  0  0  0  0  0  0  0
    3.3000    0.0000    0.0000 N   0  0  0  0  0  0  0  0  0  0  0  0
    1.1577    0.8526    0.0000 H   0  0  0  0  0  0  0  0  0  0  0  0
    1.1578   -0.8526    0.0000 H   0  0  0  0  0  0  0  0  0  0  0  0
  1  2  1  0  0  0  0
  1  4  1  0  0  0  0
  1  5  1  0  0  0  0
  2  3  3  0  0  0  0
M  END
>  <DRUGBANK_ID>
DB02679

>  <SECONDARY_ACCESSION_NUMBERS>
EXPT00971

>  <COMMON_NAME>
Cyanamide

>  <CAS_NUMBER>
420-04-2

>  <UNII>
21CP7826LC

>  <SYNONYMS>
Cyanamide

$$$$
