KY1
 OpenBabel10282417072D

 25 25  0  0  0  0  0  0  0  0999 V2000
    1.6098    0.6586    0.0000 C   0  0  0  0  0  0  0  0  0  0  0  0
    0.8953    0.2461    0.0000 C   0  0  0  0  0  0  0  0  0  0  0  0
   -0.5336   -0.5789    0.0000 C   0  0  0  0  0  0  0  0  0  0  0  0
   -1.2481   -0.9914    0.0000 C   0  0  0  0  0  0  0  0  0  0  0  0
   -1.9625   -0.5789    0.0000 C   0  0  0  0  0  0  0  0  0  0  0  0
   -1.9625    0.2461    0.0000 C   0  0  0  0  0  0  0  0  0  0  0  0
   -1.2481    0.6586    0.0000 C   0  0  0  0  0  0  0  0  0  0  0  0
   -0.5336    0.2461    0.0000 C   0  0  0  0  0  0  0  0  0  0  0  0
    2.3243    0.2461    0.0000 C   0  0  0  0  0  0  0  0  0  0  0  0
    3.0388    0.6586    0.0000 O   0  0  0  0  0  0  0  0  0  0  0  0
    2.3243   -0.5789    0.0000 O   0  0  0  0  0  0  0  0  0  0  0  0
    0.1809    0.6586    0.0000 C   0  0  0  0  0  0  0  0  0  0  0  0
    0.1809    1.4836    0.0000 O   0  0  0  0  0  0  0  0  0  0  0  0
    0.1809   -0.9914    0.0000 N   0  0  0  0  0  0  0  0  0  0  0  0
    1.6098    1.7286    0.0000 H   0  0  0  0  0  0  0  0  0  0  0  0
    2.5364    1.1936    0.0000 H   0  0  0  0  0  0  0  0  0  0  0  0
    0.8953   -0.8239    0.0000 H   0  0  0  0  0  0  0  0  0  0  0  0
   -0.0314   -0.2889    0.0000 H   0  0  0  0  0  0  0  0  0  0  0  0
   -1.2481   -2.0234    0.0000 H   0  0  0  0  0  0  0  0  0  0  0  0
   -2.8562   -1.0949    0.0000 H   0  0  0  0  0  0  0  0  0  0  0  0
   -2.8562    0.7621    0.0000 H   0  0  0  0  0  0  0  0  0  0  0  0
   -1.2481    1.6906    0.0000 H   0  0  0  0  0  0  0  0  0  0  0  0
    1.5128   -1.0474    0.0000 H   0  0  0  0  0  0  0  0  0  0  0  0
    0.1809   -1.9759    0.0000 H   0  0  0  0  0  0  0  0  0  0  0  0
    1.0335   -0.4991    0.0000 H   0  0  0  0  0  0  0  0  0  0  0  0
  1  2  1  0  0  0  0
  1  9  1  0  0  0  0
  1 15  1  0  0  0  0
  1 16  1  0  0  0  0
  2 12  1  0  0  0  0
  2 17  1  0  0  0  0
  2 18  1  0  0  0  0
  3  4  2  0  0  0  0
  3  8  1  0  0  0  0
  3 14  1  0  0  0  0
  4  5  1  0  0  0  0
  4 19  1  0  0  0  0
  5  6  2  0  0  0  0
  5 20  1  0  0  0  0
  6  7  1  0  0  0  0
  6 21  1  0  0  0  0
  7  8  2  0  0  0  0
  7 22  1  0  0  0  0
  8 12  1  0  0  0  0
  9 10  2  0  0  0  0
  9 11  1  0  0  0  0
 11 23  1  0  0  0  0
 12 13  2  0  0  0  0
 14 24  1  0  0  0  0
 14 25  1  0  0  0  0
M  END
>  <DRUGBANK_ID>
DB08060

>  <COMMON_NAME>
4-(2-AMINOPHENYL)-4-OXOBUTANOIC ACID

>  <UNII>
YU3DZ8UH2S

$$$$
