
 OpenBabel10282417072D

 74 77  0  0  0  0  0  0  0  0999 V2000
    0.0552   -0.5384    0.0000 O   0  0  0  0  0  0  0  0  0  0  0  0
    0.0303    2.3570    0.0000 O   0  0  0  0  0  0  0  0  0  0  0  0
   -0.2128    3.1453    0.0000 O   0  0  0  0  0  0  0  0  0  0  0  0
   -5.6747    1.4605    0.0000 O   0  0  0  0  0  0  0  0  0  0  0  0
   -3.4301    3.8796    0.0000 O   0  0  0  0  0  0  0  0  0  0  0  0
   -5.3567    2.8536    0.0000 O   0  0  0  0  0  0  0  0  0  0  0  0
    1.4435   -0.3820    0.0000 N   0  0  0  0  0  0  0  0  0  0  0  0
   -0.2876    0.9638    0.0000 N   0  0  0  0  0  0  0  0  0  0  0  0
   -1.5782    2.7241    0.0000 N   0  0  0  0  0  0  0  0  0  0  0  0
    0.5166    0.7802    0.0000 C   0  0  1  0  0  0  0  0  0  0  0  0
    1.0310    1.4252    0.0000 C   0  0  0  0  0  0  0  0  0  0  0  0
    1.8560    1.4252    0.0000 C   0  0  0  0  0  0  0  0  0  0  0  0
    2.3704    0.7802    0.0000 C   0  0  0  0  0  0  0  0  0  0  0  0
    2.1869   -0.0240    0.0000 C   0  0  0  0  0  0  0  0  0  0  0  0
    0.7002   -0.0240    0.0000 C   0  0  0  0  0  0  0  0  0  0  0  0
    1.4435   -1.2070    0.0000 C   0  0  0  0  0  0  0  0  0  0  0  0
   -1.3351    1.9357    0.0000 C   0  0  2  0  0  0  0  0  0  0  0  0
   -0.5308    1.7522    0.0000 C   0  0  0  0  0  0  0  0  0  0  0  0
    2.1580   -1.6195    0.0000 C   0  0  0  0  0  0  0  0  0  0  0  0
   -1.8963    1.3310    0.0000 C   0  0  0  0  0  0  0  0  0  0  0  0
    2.1580   -2.4445    0.0000 C   0  0  0  0  0  0  0  0  0  0  0  0
    2.8725   -1.2070    0.0000 C   0  0  0  0  0  0  0  0  0  0  0  0
   -2.7006    1.5146    0.0000 C   0  0  0  0  0  0  0  0  0  0  0  0
    2.8725   -2.8570    0.0000 C   0  0  0  0  0  0  0  0  0  0  0  0
    3.5870   -1.6195    0.0000 C   0  0  0  0  0  0  0  0  0  0  0  0
    3.5870   -2.4445    0.0000 C   0  0  0  0  0  0  0  0  0  0  0  0
   -2.9437    2.3029    0.0000 C   0  0  0  0  0  0  0  0  0  0  0  0
   -3.2618    0.9097    0.0000 C   0  0  0  0  0  0  0  0  0  0  0  0
   -1.0172    3.3288    0.0000 C   0  0  0  0  0  0  0  0  0  0  0  0
   -3.7481    2.4865    0.0000 C   0  0  0  0  0  0  0  0  0  0  0  0
    4.3015   -2.8570    0.0000 C   0  0  0  0  0  0  0  0  0  0  0  0
   -4.0661    1.0934    0.0000 C   0  0  0  0  0  0  0  0  0  0  0  0
   -4.3092    1.8817    0.0000 C   0  0  0  0  0  0  0  0  0  0  0  0
   -1.2603    4.1172    0.0000 C   0  0  0  0  0  0  0  0  0  0  0  0
    4.3015   -3.6820    0.0000 C   0  0  0  0  0  0  0  0  0  0  0  0
    5.0159   -2.4445    0.0000 C   0  0  0  0  0  0  0  0  0  0  0  0
   -3.9912    3.2749    0.0000 C   0  0  0  0  0  0  0  0  0  0  0  0
   -5.1136    2.0653    0.0000 C   0  0  0  0  0  0  0  0  0  0  0  0
    5.0159   -4.0945    0.0000 C   0  0  0  0  0  0  0  0  0  0  0  0
    5.7305   -2.8570    0.0000 C   0  0  0  0  0  0  0  0  0  0  0  0
    5.7305   -3.6820    0.0000 C   0  0  0  0  0  0  0  0  0  0  0  0
   -6.5882    1.6689    0.0000 H   0  0  0  0  0  0  0  0  0  0  0  0
   -0.9572    0.2421    0.0000 H   0  0  0  0  0  0  0  0  0  0  0  0
   -2.5380    2.9432    0.0000 H   0  0  0  0  0  0  0  0  0  0  0  0
    0.1632    1.7902    0.0000 H   0  0  0  0  0  0  0  0  0  0  0  0
    0.5668    2.3892    0.0000 H   0  0  0  0  0  0  0  0  0  0  0  0
    1.6003    2.3312    0.0000 H   0  0  0  0  0  0  0  0  0  0  0  0
    2.3202    2.3892    0.0000 H   0  0  0  0  0  0  0  0  0  0  0  0
    2.9193    1.5450    0.0000 H   0  0  0  0  0  0  0  0  0  0  0  0
    3.4136    1.0183    0.0000 H   0  0  0  0  0  0  0  0  0  0  0  0
    3.1270    0.0236    0.0000 H   0  0  0  0  0  0  0  0  0  0  0  0
    3.0235   -0.6911    0.0000 H   0  0  0  0  0  0  0  0  0  0  0  0
    3.1968    0.3294    0.0000 H   0  0  0  0  0  0  0  0  0  0  0  0
    0.5169   -1.7420    0.0000 H   0  0  0  0  0  0  0  0  0  0  0  0
    1.4435   -2.2770    0.0000 H   0  0  0  0  0  0  0  0  0  0  0  0
   -0.6073    2.7201    0.0000 H   0  0  0  0  0  0  0  0  0  0  0  0
   -1.5810    0.3085    0.0000 H   0  0  0  0  0  0  0  0  0  0  0  0
   -2.6241    0.5467    0.0000 H   0  0  0  0  0  0  0  0  0  0  0  0
    1.2643   -2.9605    0.0000 H   0  0  0  0  0  0  0  0  0  0  0  0
    2.8725   -0.1750    0.0000 H   0  0  0  0  0  0  0  0  0  0  0  0
    2.8725   -3.8890    0.0000 H   0  0  0  0  0  0  0  0  0  0  0  0
    4.4807   -1.1035    0.0000 H   0  0  0  0  0  0  0  0  0  0  0  0
   -2.2417    3.0594    0.0000 H   0  0  0  0  0  0  0  0  0  0  0  0
   -2.9577   -0.0765    0.0000 H   0  0  0  0  0  0  0  0  0  0  0  0
   -4.7681    0.3370    0.0000 H   0  0  0  0  0  0  0  0  0  0  0  0
   -0.5324    4.9015    0.0000 H   0  0  0  0  0  0  0  0  0  0  0  0
   -2.3034    4.3554    0.0000 H   0  0  0  0  0  0  0  0  0  0  0  0
   -1.5756    5.1397    0.0000 H   0  0  0  0  0  0  0  0  0  0  0  0
    3.4078   -4.1980    0.0000 H   0  0  0  0  0  0  0  0  0  0  0  0
    5.0158   -1.4125    0.0000 H   0  0  0  0  0  0  0  0  0  0  0  0
   -4.9973    3.5046    0.0000 H   0  0  0  0  0  0  0  0  0  0  0  0
    5.0158   -5.1265    0.0000 H   0  0  0  0  0  0  0  0  0  0  0  0
    6.6242   -2.3410    0.0000 H   0  0  0  0  0  0  0  0  0  0  0  0
    6.6242   -4.1980    0.0000 H   0  0  0  0  0  0  0  0  0  0  0  0
  1 15  2  0  0  0  0
  2 18  2  0  0  0  0
  3 29  2  0  0  0  0
  4 38  1  0  0  0  0
  4 42  1  0  0  0  0
  5 37  2  0  0  0  0
  6 38  2  0  0  0  0
  7 14  1  0  0  0  0
  7 15  1  0  0  0  0
  7 16  1  0  0  0  0
  8 18  1  0  0  0  0
  8 43  1  0  0  0  0
  9 29  1  0  0  0  0
  9 44  1  0  0  0  0
 10  8  1  0  0  0  0
 10 11  1  0  0  0  0
 10 15  1  0  0  0  0
 10 45  1  6  0  0  0
 11 12  1  0  0  0  0
 11 46  1  0  0  0  0
 11 47  1  0  0  0  0
 12 13  1  0  0  0  0
 12 48  1  0  0  0  0
 12 49  1  0  0  0  0
 13 14  1  0  0  0  0
 13 50  1  0  0  0  0
 13 51  1  0  0  0  0
 14 52  1  0  0  0  0
 14 53  1  0  0  0  0
 16 19  1  0  0  0  0
 16 54  1  0  0  0  0
 16 55  1  0  0  0  0
 17  9  1  0  0  0  0
 17 18  1  0  0  0  0
 17 20  1  0  0  0  0
 17 56  1  1  0  0  0
 19 21  2  0  0  0  0
 19 22  1  0  0  0  0
 20 23  1  0  0  0  0
 20 57  1  0  0  0  0
 20 58  1  0  0  0  0
 21 24  1  0  0  0  0
 21 59  1  0  0  0  0
 22 25  2  0  0  0  0
 22 60  1  0  0  0  0
 23 27  2  0  0  0  0
 23 28  1  0  0  0  0
 24 26  2  0  0  0  0
 24 61  1  0  0  0  0
 25 26  1  0  0  0  0
 25 62  1  0  0  0  0
 26 31  1  0  0  0  0
 27 30  1  0  0  0  0
 27 63  1  0  0  0  0
 28 32  2  0  0  0  0
 28 64  1  0  0  0  0
 29 34  1  0  0  0  0
 30 33  2  0  0  0  0
 30 37  1  0  0  0  0
 31 35  2  0  0  0  0
 31 36  1  0  0  0  0
 32 33  1  0  0  0  0
 32 65  1  0  0  0  0
 33 38  1  0  0  0  0
 34 66  1  0  0  0  0
 34 67  1  0  0  0  0
 34 68  1  0  0  0  0
 35 39  1  0  0  0  0
 35 69  1  0  0  0  0
 36 40  2  0  0  0  0
 36 70  1  0  0  0  0
 37 71  1  0  0  0  0
 39 41  2  0  0  0  0
 39 72  1  0  0  0  0
 40 41  1  0  0  0  0
 40 73  1  0  0  0  0
 41 74  1  0  0  0  0
M  END
>  <DRUGBANK_ID>
DB03268

>  <SECONDARY_ACCESSION_NUMBERS>
EXPT00063

>  <COMMON_NAME>
RU82197

>  <SYNONYMS>
4-[2-Acetylamino-2-(1-biphenyl-4-ylmethyl-2-oxo-azepan-3-ylcarbamoyl)-ethyl]-2-formyl-benzoic acid

$$$$
