34154
 OpenBabel10282417072D

 37 38  0  0  0  0  0  0  0  0999 V2000
    3.7935   -0.0160    0.0000 O   0  0  0  0  0  0  0  0  0  0  0  0
    3.8405    1.7065    0.0000 N   0  0  0  0  0  0  0  0  0  0  0  0
    5.1754    1.7065    0.0000 N   0  0  0  0  0  0  0  0  0  0  0  0
    2.3645   -0.8410    0.0000 C   0  0  0  0  0  0  0  0  0  0  0  0
    3.0790   -1.2535    0.0000 C   0  0  0  0  0  0  0  0  0  0  0  0
    3.7935   -0.8410    0.0000 C   0  0  0  0  0  0  0  0  0  0  0  0
    4.5080    1.2215    0.0000 C   0  0  0  0  0  0  0  0  0  0  0  0
    1.6500   -1.2535    0.0000 C   0  0  0  0  0  0  0  0  0  0  0  0
    2.3645   -0.0160    0.0000 C   0  0  0  0  0  0  0  0  0  0  0  0
    4.0955    2.4911    0.0000 C   0  0  0  0  0  0  0  0  0  0  0  0
    3.0790   -2.0786    0.0000 C   0  0  0  0  0  0  0  0  0  0  0  0
    4.5080    0.3965    0.0000 C   0  0  0  0  0  0  0  0  0  0  0  0
    4.9205    2.4911    0.0000 C   0  0  0  0  0  0  0  0  0  0  0  0
    4.5080   -1.2535    0.0000 C   0  0  0  0  0  0  0  0  0  0  0  0
    4.5080   -2.0786    0.0000 C   0  0  0  0  0  0  0  0  0  0  0  0
    3.7935   -2.4911    0.0000 C   0  0  0  0  0  0  0  0  0  0  0  0
    5.2224   -2.4911    0.0000 C   0  0  0  0  0  0  0  0  0  0  0  0
    2.9042    1.4023    0.0000 H   0  0  0  0  0  0  0  0  0  0  0  0
    1.4379   -0.3060    0.0000 H   0  0  0  0  0  0  0  0  0  0  0  0
    0.7234   -0.7185    0.0000 H   0  0  0  0  0  0  0  0  0  0  0  0
    1.6500   -2.3235    0.0000 H   0  0  0  0  0  0  0  0  0  0  0  0
    0.7233   -1.7885    0.0000 H   0  0  0  0  0  0  0  0  0  0  0  0
    3.2911    0.5190    0.0000 H   0  0  0  0  0  0  0  0  0  0  0  0
    1.4379    0.5190    0.0000 H   0  0  0  0  0  0  0  0  0  0  0  0
    2.3645    1.0540    0.0000 H   0  0  0  0  0  0  0  0  0  0  0  0
    3.4666    3.3568    0.0000 H   0  0  0  0  0  0  0  0  0  0  0  0
    4.5813    3.4445    0.0000 H   0  0  0  0  0  0  0  0  0  0  0  0
    2.1853   -2.5946    0.0000 H   0  0  0  0  0  0  0  0  0  0  0  0
    5.4346   -0.1385    0.0000 H   0  0  0  0  0  0  0  0  0  0  0  0
    5.4346    0.9315    0.0000 H   0  0  0  0  0  0  0  0  0  0  0  0
    5.5494    3.3567    0.0000 H   0  0  0  0  0  0  0  0  0  0  0  0
    4.4347    3.4445    0.0000 H   0  0  0  0  0  0  0  0  0  0  0  0
    5.4017   -0.7375    0.0000 H   0  0  0  0  0  0  0  0  0  0  0  0
    3.7935   -3.5231    0.0000 H   0  0  0  0  0  0  0  0  0  0  0  0
    5.2224   -3.5611    0.0000 H   0  0  0  0  0  0  0  0  0  0  0  0
    6.1491   -1.9561    0.0000 H   0  0  0  0  0  0  0  0  0  0  0  0
    6.1490   -3.0261    0.0000 H   0  0  0  0  0  0  0  0  0  0  0  0
  1  6  1  0  0  0  0
  1 12  1  0  0  0  0
  2  7  1  0  0  0  0
  2 10  1  0  0  0  0
  2 18  1  0  0  0  0
  3  7  2  0  0  0  0
  3 13  1  0  0  0  0
  4  5  1  0  0  0  0
  4  8  1  0  0  0  0
  4  9  1  0  0  0  0
  4 19  1  0  0  0  0
  5  6  2  0  0  0  0
  5 11  1  0  0  0  0
  6 14  1  0  0  0  0
  7 12  1  0  0  0  0
  8 20  1  0  0  0  0
  8 21  1  0  0  0  0
  8 22  1  0  0  0  0
  9 23  1  0  0  0  0
  9 24  1  0  0  0  0
  9 25  1  0  0  0  0
 10 13  1  0  0  0  0
 10 26  1  0  0  0  0
 10 27  1  0  0  0  0
 11 16  2  0  0  0  0
 11 28  1  0  0  0  0
 12 29  1  0  0  0  0
 12 30  1  0  0  0  0
 13 31  1  0  0  0  0
 13 32  1  0  0  0  0
 14 15  2  0  0  0  0
 14 33  1  0  0  0  0
 15 16  1  0  0  0  0
 15 17  1  0  0  0  0
 16 34  1  0  0  0  0
 17 35  1  0  0  0  0
 17 36  1  0  0  0  0
 17 37  1  0  0  0  0
M  END
>  <DRUGBANK_ID>
DB08803

>  <COMMON_NAME>
Tymazoline

>  <CAS_NUMBER>
24243-97-8

>  <UNII>
U993RH5585

>  <SYNONYMS>
Tymazoline

$$$$
