
 OpenBabel10282417072D

 49 52  0  0  1  0  0  0  0  0999 V2000
   -4.7121   -6.6343    0.0000 N   0  0  0  0  0  0  0  0  0  0  0  0
   -4.0446   -6.1494    0.0000 C   0  0  0  0  0  0  0  0  0  0  0  0
   -3.2910   -6.4850    0.0000 N   0  0  0  0  0  0  0  0  0  0  0  0
   -4.1309   -5.3289    0.0000 C   0  0  0  0  0  0  0  0  0  0  0  0
   -4.8845   -4.9934    0.0000 C   0  0  0  0  0  0  0  0  0  0  0  0
   -4.9708   -4.1729    0.0000 C   0  0  0  0  0  0  0  0  0  0  0  0
   -4.3033   -3.6880    0.0000 C   0  0  0  0  0  0  0  0  0  0  0  0
   -4.3896   -2.8675    0.0000 O   0  0  0  0  0  0  0  0  0  0  0  0
   -3.5497   -4.0235    0.0000 C   0  0  0  0  0  0  0  0  0  0  0  0
   -2.8822   -3.5386    0.0000 C   0  0  0  0  0  0  0  0  0  0  0  0
   -2.9685   -2.7181    0.0000 N   0  0  0  0  0  0  0  0  0  0  0  0
   -3.6829   -2.3056    0.0000 C   0  0  0  0  0  0  0  0  0  0  0  0
   -3.5114   -1.4986    0.0000 C   0  0  0  0  0  0  0  0  0  0  0  0
   -2.6909   -1.4124    0.0000 C   0  0  2  0  0  0  0  0  0  0  0  0
   -2.2784   -0.6979    0.0000 N   0  0  0  0  0  0  0  0  0  0  0  0
   -1.4534   -0.6979    0.0000 S   0  0  0  0  0  0  0  0  0  0  0  0
   -1.4534   -1.5229    0.0000 O   0  0  0  0  0  0  0  0  0  0  0  0
   -1.4534    0.1271    0.0000 O   0  0  0  0  0  0  0  0  0  0  0  0
   -0.6284   -0.6979    0.0000 C   0  0  0  0  0  0  0  0  0  0  0  0
   -0.1435   -1.3654    0.0000 C   0  0  0  0  0  0  0  0  0  0  0  0
    0.6411   -1.1104    0.0000 C   0  0  0  0  0  0  0  0  0  0  0  0
    0.6411   -0.2854    0.0000 C   0  0  0  0  0  0  0  0  0  0  0  0
   -0.1435   -0.0305    0.0000 S   0  0  0  0  0  0  0  0  0  0  0  0
    1.3556    0.1271    0.0000 C   0  0  0  0  0  0  0  0  0  0  0  0
    2.0701   -0.2854    0.0000 C   0  0  0  0  0  0  0  0  0  0  0  0
    2.0701   -1.1104    0.0000 C   0  0  0  0  0  0  0  0  0  0  0  0
    1.3556   -1.5229    0.0000 N   0  0  0  0  0  0  0  0  0  0  0  0
   -2.3554   -2.1661    0.0000 C   0  0  0  0  0  0  0  0  0  0  0  0
   -1.5484   -2.3376    0.0000 O   0  0  0  0  0  0  0  0  0  0  0  0
   -3.4634   -4.8440    0.0000 C   0  0  0  0  0  0  0  0  0  0  0  0
   -5.6115   -6.2338    0.0000 H   0  0  0  0  0  0  0  0  0  0  0  0
   -4.6093   -7.6134    0.0000 H   0  0  0  0  0  0  0  0  0  0  0  0
   -3.1882   -7.4641    0.0000 H   0  0  0  0  0  0  0  0  0  0  0  0
   -5.7194   -5.6000    0.0000 H   0  0  0  0  0  0  0  0  0  0  0  0
   -5.9136   -3.7532    0.0000 H   0  0  0  0  0  0  0  0  0  0  0  0
   -3.6316   -2.3167    0.0000 H   0  0  0  0  0  0  0  0  0  0  0  0
   -1.9047   -3.9738    0.0000 H   0  0  0  0  0  0  0  0  0  0  0  0
   -2.0166   -2.9096    0.0000 H   0  0  0  0  0  0  0  0  0  0  0  0
   -4.6604   -2.7408    0.0000 H   0  0  0  0  0  0  0  0  0  0  0  0
   -4.5145   -1.6322    0.0000 H   0  0  0  0  0  0  0  0  0  0  0  0
   -4.2274   -0.7034    0.0000 H   0  0  0  0  0  0  0  0  0  0  0  0
   -3.1279   -0.4997    0.0000 H   0  0  0  0  0  0  0  0  0  0  0  0
   -3.2737   -0.5150    0.0000 H   0  0  0  0  0  0  0  0  0  0  0  0
   -2.7884    0.1854    0.0000 H   0  0  0  0  0  0  0  0  0  0  0  0
   -0.4624   -2.3469    0.0000 H   0  0  0  0  0  0  0  0  0  0  0  0
    1.3556    1.1591    0.0000 H   0  0  0  0  0  0  0  0  0  0  0  0
    2.9638    0.2306    0.0000 H   0  0  0  0  0  0  0  0  0  0  0  0
    2.9638   -1.6264    0.0000 H   0  0  0  0  0  0  0  0  0  0  0  0
   -2.5206   -5.2637    0.0000 H   0  0  0  0  0  0  0  0  0  0  0  0
  1  2  1  0  0  0  0
  1 31  1  0  0  0  0
  1 32  1  0  0  0  0
  2  3  2  0  0  0  0
  2  4  1  0  0  0  0
  3 33  1  0  0  0  0
  4  5  2  0  0  0  0
  4 30  1  0  0  0  0
  5  6  1  0  0  0  0
  5 34  1  0  0  0  0
  6  7  2  0  0  0  0
  6 35  1  0  0  0  0
  7  8  1  0  0  0  0
  7  9  1  0  0  0  0
  8 36  1  0  0  0  0
  9 10  1  0  0  0  0
  9 30  2  0  0  0  0
 10 11  1  0  0  0  0
 10 37  1  0  0  0  0
 10 38  1  0  0  0  0
 11 12  1  0  0  0  0
 11 28  1  0  0  0  0
 12 13  1  0  0  0  0
 12 39  1  0  0  0  0
 12 40  1  0  0  0  0
 13 14  1  0  0  0  0
 13 41  1  0  0  0  0
 13 42  1  0  0  0  0
 14 15  1  0  0  0  0
 14 28  1  0  0  0  0
 14 43  1  1  0  0  0
 15 16  1  0  0  0  0
 15 44  1  0  0  0  0
 16 17  2  0  0  0  0
 16 18  2  0  0  0  0
 16 19  1  0  0  0  0
 19 20  2  0  0  0  0
 19 23  1  0  0  0  0
 20 21  1  0  0  0  0
 20 45  1  0  0  0  0
 21 22  2  0  0  0  0
 21 27  1  0  0  0  0
 22 23  1  0  0  0  0
 22 24  1  0  0  0  0
 24 25  2  0  0  0  0
 24 46  1  0  0  0  0
 25 26  1  0  0  0  0
 25 47  1  0  0  0  0
 26 27  2  0  0  0  0
 26 48  1  0  0  0  0
 28 29  2  0  0  0  0
 30 49  1  0  0  0  0
M  END
>  <DRUGBANK_ID>
DB02744

>  <SECONDARY_ACCESSION_NUMBERS>
EXPT02653

>  <COMMON_NAME>
RPR131247

$$$$
