
 OpenBabel10282417072D

 38 40  0  0  1  0  0  0  0  0999 V2000
   15.1257   -5.2681    0.0000 C   0  0  2  0  0  0  0  0  0  0  0  0
   15.1257   -6.0931    0.0000 N   0  0  0  0  0  0  0  0  0  0  0  0
   15.8401   -6.5056    0.0000 C   0  0  0  0  0  0  0  0  0  0  0  0
   16.5546   -6.0931    0.0000 C   0  0  0  0  0  0  0  0  0  0  0  0
   16.5546   -5.2681    0.0000 C   0  0  0  0  0  0  0  0  0  0  0  0
   15.8401   -4.8556    0.0000 S   0  0  0  0  0  0  0  0  0  0  0  0
   14.3007   -5.2681    0.0000 C   0  0  1  0  0  0  0  0  0  0  0  0
   14.3007   -6.0931    0.0000 C   0  0  0  0  0  0  0  0  0  0  0  0
   13.5861   -4.8556    0.0000 N   0  0  0  0  0  0  0  0  0  0  0  0
   12.8716   -5.2681    0.0000 C   0  0  0  0  0  0  0  0  0  0  0  0
   12.8716   -6.0931    0.0000 O   0  0  0  0  0  0  0  0  0  0  0  0
   13.5861   -6.5056    0.0000 O   0  0  0  0  0  0  0  0  0  0  0  0
   12.1570   -4.8556    0.0000 C   0  0  1  0  0  0  0  0  0  0  0  0
   17.2802   -6.5122    0.0000 Cl  0  0  0  0  0  0  0  0  0  0  0  0
   15.8401   -7.3305    0.0000 C   0  0  0  0  0  0  0  0  0  0  0  0
   15.1157   -7.7488    0.0000 O   0  0  0  0  0  0  0  0  0  0  0  0
   16.5447   -7.7373    0.0000 O   0  0  0  0  0  0  0  0  0  0  0  0
   11.4312   -5.2750    0.0000 C   0  0  0  0  0  0  0  0  0  0  0  0
   10.7176   -4.8630    0.0000 C   0  0  0  0  0  0  0  0  0  0  0  0
   10.0040   -5.2750    0.0000 C   0  0  0  0  0  0  0  0  0  0  0  0
   10.0040   -6.0990    0.0000 C   0  0  0  0  0  0  0  0  0  0  0  0
   10.7176   -6.5110    0.0000 C   0  0  0  0  0  0  0  0  0  0  0  0
   11.4312   -6.0990    0.0000 C   0  0  0  0  0  0  0  0  0  0  0  0
   12.1570   -4.0279    0.0000 N   0  0  0  0  0  0  0  0  0  0  0  0
   15.1257   -4.4422    0.0000 H   0  0  0  0  0  0  0  0  0  0  0  0
   17.4812   -4.7331    0.0000 H   0  0  0  0  0  0  0  0  0  0  0  0
   16.5546   -4.1981    0.0000 H   0  0  0  0  0  0  0  0  0  0  0  0
   14.5776   -4.2345    0.0000 H   0  0  0  0  0  0  0  0  0  0  0  0
   13.5861   -3.8711    0.0000 H   0  0  0  0  0  0  0  0  0  0  0  0
   13.0836   -4.3206    0.0000 H   0  0  0  0  0  0  0  0  0  0  0  0
   16.5447   -8.6743    0.0000 H   0  0  0  0  0  0  0  0  0  0  0  0
   10.7176   -3.8310    0.0000 H   0  0  0  0  0  0  0  0  0  0  0  0
    9.1103   -4.7590    0.0000 H   0  0  0  0  0  0  0  0  0  0  0  0
    9.1103   -6.6150    0.0000 H   0  0  0  0  0  0  0  0  0  0  0  0
   10.7176   -7.5430    0.0000 H   0  0  0  0  0  0  0  0  0  0  0  0
   12.3249   -6.6150    0.0000 H   0  0  0  0  0  0  0  0  0  0  0  0
   13.0403   -3.5179    0.0000 H   0  0  0  0  0  0  0  0  0  0  0  0
   11.2737   -3.5179    0.0000 H   0  0  0  0  0  0  0  0  0  0  0  0
  1  2  1  0  0  0  0
  1  6  1  0  0  0  0
  1  7  1  0  0  0  0
  1 25  1  6  0  0  0
  2  3  1  0  0  0  0
  2  8  1  0  0  0  0
  3  4  2  0  0  0  0
  3 15  1  0  0  0  0
  4  5  1  0  0  0  0
  4 14  1  0  0  0  0
  5  6  1  0  0  0  0
  5 26  1  0  0  0  0
  5 27  1  0  0  0  0
  7  8  1  0  0  0  0
  7  9  1  0  0  0  0
  7 28  1  6  0  0  0
  8 12  2  0  0  0  0
  9 10  1  0  0  0  0
  9 29  1  0  0  0  0
 10 11  2  0  0  0  0
 10 13  1  0  0  0  0
 13 18  1  0  0  0  0
 13 24  1  0  0  0  0
 13 30  1  6  0  0  0
 15 16  2  0  0  0  0
 15 17  1  0  0  0  0
 17 31  1  0  0  0  0
 18 19  2  0  0  0  0
 18 23  1  0  0  0  0
 19 20  1  0  0  0  0
 19 32  1  0  0  0  0
 20 21  2  0  0  0  0
 20 33  1  0  0  0  0
 21 22  1  0  0  0  0
 21 34  1  0  0  0  0
 22 23  2  0  0  0  0
 22 35  1  0  0  0  0
 23 36  1  0  0  0  0
 24 37  1  0  0  0  0
 24 38  1  0  0  0  0
M  END
>  <DRUGBANK_ID>
DB00833

>  <SECONDARY_ACCESSION_NUMBERS>
APRD00243

>  <COMMON_NAME>
Cefaclor

>  <CAS_NUMBER>
53994-73-3

>  <UNII>
3Z6FS3IK0K

>  <SYNONYMS>
3-Chloro-7-D-(2-phenylglycinamido)-3-cephem-4-carboxylic acid; CCL; Céfaclor; Cefaclor; Cefaclor anhydrous; Cefaclorum; Céfeaclor; Cephaclor

$$$$
