
 OpenBabel10282417072D

 30 29  0  0  1  0  0  0  0  0999 V2000
    2.2836    2.1434    0.0000 C   0  0  0  0  0  0  0  0  0  0  0  0
    5.8559    2.5559    0.0000 C   0  0  0  0  0  0  0  0  0  0  0  0
    5.1414    2.1434    0.0000 C   0  0  0  0  0  0  0  0  0  0  0  0
    6.5704    2.1434    0.0000 C   0  0  0  0  0  0  0  0  0  0  0  0
    4.4270    2.5559    0.0000 C   0  0  0  0  0  0  0  0  0  0  0  0
    7.2849    2.5559    0.0000 C   0  0  0  0  0  0  0  0  0  0  0  0
    2.9980    2.5559    0.0000 C   0  0  1  0  0  0  0  0  0  0  0  0
    3.7125    2.1434    0.0000 C   0  0  0  0  0  0  0  0  0  0  0  0
    7.9993    2.1434    0.0000 C   0  0  0  0  0  0  0  0  0  0  0  0
    2.9980    3.3809    0.0000 N   0  0  0  0  0  0  0  0  0  0  0  0
    3.7125    1.3184    0.0000 O   0  0  0  0  0  0  0  0  0  0  0  0
    8.7138    2.5559    0.0000 O   0  0  0  0  0  0  0  0  0  0  0  0
    7.9993    1.3184    0.0000 O   0  0  0  0  0  0  0  0  0  0  0  0
    2.9980    1.7309    0.0000 H   0  0  0  0  0  0  0  0  0  0  0  0
    1.3569    2.6784    0.0000 H   0  0  0  0  0  0  0  0  0  0  0  0
    2.2836    1.0734    0.0000 H   0  0  0  0  0  0  0  0  0  0  0  0
    1.3570    1.6084    0.0000 H   0  0  0  0  0  0  0  0  0  0  0  0
    5.8559    3.6259    0.0000 H   0  0  0  0  0  0  0  0  0  0  0  0
    6.7825    3.0909    0.0000 H   0  0  0  0  0  0  0  0  0  0  0  0
    5.1414    1.0734    0.0000 H   0  0  0  0  0  0  0  0  0  0  0  0
    4.2147    1.6084    0.0000 H   0  0  0  0  0  0  0  0  0  0  0  0
    6.5704    1.0734    0.0000 H   0  0  0  0  0  0  0  0  0  0  0  0
    7.4970    1.6084    0.0000 H   0  0  0  0  0  0  0  0  0  0  0  0
    4.4270    3.6259    0.0000 H   0  0  0  0  0  0  0  0  0  0  0  0
    3.5004    3.0909    0.0000 H   0  0  0  0  0  0  0  0  0  0  0  0
    7.2849    3.6259    0.0000 H   0  0  0  0  0  0  0  0  0  0  0  0
    8.2116    3.0909    0.0000 H   0  0  0  0  0  0  0  0  0  0  0  0
    3.8813    3.8909    0.0000 H   0  0  0  0  0  0  0  0  0  0  0  0
    2.1147    3.8909    0.0000 H   0  0  0  0  0  0  0  0  0  0  0  0
    7.1878    0.8499    0.0000 H   0  0  0  0  0  0  0  0  0  0  0  0
  1 15  1  0  0  0  0
  1 16  1  0  0  0  0
  1 17  1  0  0  0  0
  2 18  1  0  0  0  0
  2 19  1  0  0  0  0
  3  2  1  0  0  0  0
  3 20  1  0  0  0  0
  3 21  1  0  0  0  0
  4  2  1  0  0  0  0
  4 22  1  0  0  0  0
  4 23  1  0  0  0  0
  5  3  1  0  0  0  0
  5 24  1  0  0  0  0
  5 25  1  0  0  0  0
  6  4  1  0  0  0  0
  6 26  1  0  0  0  0
  6 27  1  0  0  0  0
  7  1  1  0  0  0  0
  7 10  1  0  0  0  0
  7 14  1  1  0  0  0
  8  5  1  0  0  0  0
  8  7  1  0  0  0  0
  9  6  1  0  0  0  0
 10 28  1  0  0  0  0
 10 29  1  0  0  0  0
 11  8  2  0  0  0  0
 12  9  2  0  0  0  0
 13  9  1  0  0  0  0
 13 30  1  0  0  0  0
M  END
>  <DRUGBANK_ID>
DB02274

>  <SECONDARY_ACCESSION_NUMBERS>
EXPT01962

>  <COMMON_NAME>
7-Keto-8-Aminopelargonic Acid

>  <CAS_NUMBER>
4707-58-8

>  <UNII>
D0SI1JMK5I

$$$$
