IPP
 OpenBabel10282417072D

 26 26  0  0  0  0  0  0  0  0999 V2000
   -2.3822   -0.3676    0.0000 P   0  0  1  0  0  0  0  0  0  0  0  0
   -3.0967   -0.7801    0.0000 O   0  0  0  0  0  0  0  0  0  0  0  0
   -2.3822    0.4574    0.0000 O   0  0  0  0  0  0  0  0  0  0  0  0
   -1.6677   -0.7801    0.0000 C   0  0  0  0  0  0  0  0  0  0  0  0
   -0.9532   -0.3676    0.0000 N   0  0  0  0  0  0  0  0  0  0  0  0
   -0.2388   -0.7801    0.0000 C   0  0  0  0  0  0  0  0  0  0  0  0
   -0.2388   -1.6051    0.0000 O   0  0  0  0  0  0  0  0  0  0  0  0
    0.4757   -0.3676    0.0000 C   0  0  0  0  0  0  0  0  0  0  0  0
    1.1902   -0.7801    0.0000 C   0  0  0  0  0  0  0  0  0  0  0  0
    1.9046   -0.3676    0.0000 C   0  0  0  0  0  0  0  0  0  0  0  0
    2.6191   -0.7801    0.0000 C   0  0  0  0  0  0  0  0  0  0  0  0
    2.6191   -1.6051    0.0000 C   0  0  0  0  0  0  0  0  0  0  0  0
    3.3336   -2.0176    0.0000 I   0  0  0  0  0  0  0  0  0  0  0  0
    1.9046   -2.0176    0.0000 C   0  0  0  0  0  0  0  0  0  0  0  0
    1.1902   -1.6051    0.0000 C   0  0  0  0  0  0  0  0  0  0  0  0
   -3.0132   -0.0033    0.0000 H   0  0  0  0  0  0  0  0  0  0  0  0
   -3.9367   -0.2951    0.0000 H   0  0  0  0  0  0  0  0  0  0  0  0
   -1.6677   -1.8501    0.0000 H   0  0  0  0  0  0  0  0  0  0  0  0
   -0.7411   -1.3151    0.0000 H   0  0  0  0  0  0  0  0  0  0  0  0
   -0.9532    0.6169    0.0000 H   0  0  0  0  0  0  0  0  0  0  0  0
    0.4757    0.7024    0.0000 H   0  0  0  0  0  0  0  0  0  0  0  0
    1.4023    0.1674    0.0000 H   0  0  0  0  0  0  0  0  0  0  0  0
    1.9046    0.6644    0.0000 H   0  0  0  0  0  0  0  0  0  0  0  0
    3.5128   -0.2641    0.0000 H   0  0  0  0  0  0  0  0  0  0  0  0
    1.9046   -3.0496    0.0000 H   0  0  0  0  0  0  0  0  0  0  0  0
    0.2965   -2.1211    0.0000 H   0  0  0  0  0  0  0  0  0  0  0  0
  1  2  1  0  0  0  0
  1  3  2  0  0  0  0
  1  4  1  0  0  0  0
  1 16  1  6  0  0  0
  2 17  1  0  0  0  0
  4  5  1  0  0  0  0
  4 18  1  0  0  0  0
  4 19  1  0  0  0  0
  5  6  1  0  0  0  0
  5 20  1  0  0  0  0
  6  7  2  0  0  0  0
  6  8  1  0  0  0  0
  8  9  1  0  0  0  0
  8 21  1  0  0  0  0
  8 22  1  0  0  0  0
  9 10  2  0  0  0  0
  9 15  1  0  0  0  0
 10 11  1  0  0  0  0
 10 23  1  0  0  0  0
 11 12  2  0  0  0  0
 11 24  1  0  0  0  0
 12 13  1  0  0  0  0
 12 14  1  0  0  0  0
 14 15  2  0  0  0  0
 14 25  1  0  0  0  0
 15 26  1  0  0  0  0
M  END
>  <DRUGBANK_ID>
DB04123

>  <SECONDARY_ACCESSION_NUMBERS>
EXPT01921

>  <COMMON_NAME>
(P-Iodophenylacetylamino)Methylphosphinic Acid

$$$$
