
 OpenBabel10282417072D

 59 59  0  0  1  0  0  0  0  0999 V2000
   -0.5662    5.6452    0.0000 C   0  0  0  0  0  0  0  0  0  0  0  0
    0.1483    6.0577    0.0000 C   0  0  0  0  0  0  0  0  0  0  0  0
    0.8628    5.6452    0.0000 C   0  0  0  0  0  0  0  0  0  0  0  0
    5.6332    8.1467    0.0000 C   0  0  0  0  0  0  0  0  0  0  0  0
    6.4178    8.4017    0.0000 C   0  0  0  0  0  0  0  0  0  0  0  0
    1.5772    6.0577    0.0000 C   0  0  0  0  0  0  0  0  0  0  0  0
    5.4617    7.3398    0.0000 C   0  0  0  0  0  0  0  0  0  0  0  0
    6.5894    9.2087    0.0000 C   0  0  0  0  0  0  0  0  0  0  0  0
    2.2917    5.6452    0.0000 C   0  0  0  0  0  0  0  0  0  0  0  0
    6.0748    6.7877    0.0000 C   0  0  0  0  0  0  0  0  0  0  0  0
    5.9763    9.7607    0.0000 C   0  0  0  0  0  0  0  0  0  0  0  0
    3.7206    5.6452    0.0000 C   0  0  0  0  0  0  0  0  0  0  0  0
    4.4351    6.0577    0.0000 C   0  0  0  0  0  0  0  0  0  0  0  0
    6.0428    4.6532    0.0000 C   0  0  0  0  0  0  0  0  0  0  0  0
    3.0062    6.0577    0.0000 C   0  0  1  0  0  0  0  0  0  0  0  0
    5.9033    5.9808    0.0000 C   0  0  2  0  0  0  0  0  0  0  0  0
    5.1496    5.6452    0.0000 C   0  0  2  0  0  0  0  0  0  0  0  0
    6.4553    5.3677    0.0000 C   0  0  1  0  0  0  0  0  0  0  0  0
    5.2358    4.8247    0.0000 C   0  0  2  0  0  0  0  0  0  0  0  0
    6.1478   10.5677    0.0000 C   0  0  0  0  0  0  0  0  0  0  0  0
    3.0062    6.8827    0.0000 O   0  0  0  0  0  0  0  0  0  0  0  0
    7.2758    5.4539    0.0000 O   0  0  0  0  0  0  0  0  0  0  0  0
    4.6227    4.2727    0.0000 O   0  0  0  0  0  0  0  0  0  0  0  0
    5.5347   11.1197    0.0000 O   0  0  0  0  0  0  0  0  0  0  0  0
    6.9324   10.8226    0.0000 O   0  0  0  0  0  0  0  0  0  0  0  0
    5.0201    8.6988    0.0000 H   0  0  0  0  0  0  0  0  0  0  0  0
    4.6771    7.0848    0.0000 H   0  0  0  0  0  0  0  0  0  0  0  0
    3.7206    4.8202    0.0000 H   0  0  0  0  0  0  0  0  0  0  0  0
    4.4351    6.8827    0.0000 H   0  0  0  0  0  0  0  0  0  0  0  0
    3.0062    5.2327    0.0000 H   0  0  0  0  0  0  0  0  0  0  0  0
    6.7001    6.1943    0.0000 H   0  0  0  0  0  0  0  0  0  0  0  0
    5.1928    6.4691    0.0000 H   0  0  0  0  0  0  0  0  0  0  0  0
    6.9046    4.6758    0.0000 H   0  0  0  0  0  0  0  0  0  0  0  0
    4.4656    5.1204    0.0000 H   0  0  0  0  0  0  0  0  0  0  0  0
   -1.4928    6.1802    0.0000 H   0  0  0  0  0  0  0  0  0  0  0  0
   -0.5662    4.5752    0.0000 H   0  0  0  0  0  0  0  0  0  0  0  0
   -1.4929    5.1102    0.0000 H   0  0  0  0  0  0  0  0  0  0  0  0
    0.1483    7.1277    0.0000 H   0  0  0  0  0  0  0  0  0  0  0  0
    1.0749    6.5927    0.0000 H   0  0  0  0  0  0  0  0  0  0  0  0
    0.8628    4.5752    0.0000 H   0  0  0  0  0  0  0  0  0  0  0  0
    1.7895    5.1102    0.0000 H   0  0  0  0  0  0  0  0  0  0  0  0
    7.2130    7.6857    0.0000 H   0  0  0  0  0  0  0  0  0  0  0  0
    7.4354    8.7323    0.0000 H   0  0  0  0  0  0  0  0  0  0  0  0
    1.5772    7.1277    0.0000 H   0  0  0  0  0  0  0  0  0  0  0  0
    2.5038    6.5927    0.0000 H   0  0  0  0  0  0  0  0  0  0  0  0
    7.6070    9.5393    0.0000 H   0  0  0  0  0  0  0  0  0  0  0  0
    6.8119   10.2553    0.0000 H   0  0  0  0  0  0  0  0  0  0  0  0
    2.2917    4.5752    0.0000 H   0  0  0  0  0  0  0  0  0  0  0  0
    3.2183    5.1102    0.0000 H   0  0  0  0  0  0  0  0  0  0  0  0
    7.0924    7.1183    0.0000 H   0  0  0  0  0  0  0  0  0  0  0  0
    6.8700    6.0717    0.0000 H   0  0  0  0  0  0  0  0  0  0  0  0
    4.9587    9.4300    0.0000 H   0  0  0  0  0  0  0  0  0  0  0  0
    5.1811   10.4766    0.0000 H   0  0  0  0  0  0  0  0  0  0  0  0
    6.4780    3.6757    0.0000 H   0  0  0  0  0  0  0  0  0  0  0  0
    5.3695    3.8216    0.0000 H   0  0  0  0  0  0  0  0  0  0  0  0
    3.8462    7.3677    0.0000 H   0  0  0  0  0  0  0  0  0  0  0  0
    7.8459    4.6691    0.0000 H   0  0  0  0  0  0  0  0  0  0  0  0
    3.7002    4.5725    0.0000 H   0  0  0  0  0  0  0  0  0  0  0  0
    7.6287   10.1956    0.0000 H   0  0  0  0  0  0  0  0  0  0  0  0
  1 35  1  0  0  0  0
  1 36  1  0  0  0  0
  1 37  1  0  0  0  0
  2  1  1  0  0  0  0
  2 38  1  0  0  0  0
  2 39  1  0  0  0  0
  3  2  1  0  0  0  0
  3 40  1  0  0  0  0
  3 41  1  0  0  0  0
  5  4  1  0  0  0  0
  5 42  1  0  0  0  0
  5 43  1  0  0  0  0
  6  3  1  0  0  0  0
  6 44  1  0  0  0  0
  6 45  1  0  0  0  0
  7  4  2  0  0  0  0
  8  5  1  0  0  0  0
  8 46  1  0  0  0  0
  8 47  1  0  0  0  0
  9  6  1  0  0  0  0
  9 48  1  0  0  0  0
  9 49  1  0  0  0  0
 10  7  1  0  0  0  0
 10 50  1  0  0  0  0
 10 51  1  0  0  0  0
 11  8  1  0  0  0  0
 11 52  1  0  0  0  0
 11 53  1  0  0  0  0
 13 12  2  0  0  0  0
 14 54  1  0  0  0  0
 14 55  1  0  0  0  0
 15  9  1  0  0  0  0
 15 12  1  0  0  0  0
 15 21  1  0  0  0  0
 15 30  1  1  0  0  0
 16 10  1  0  0  0  0
 16 31  1  6  0  0  0
 17 13  1  0  0  0  0
 17 16  1  0  0  0  0
 17 32  1  1  0  0  0
 18 14  1  0  0  0  0
 18 16  1  0  0  0  0
 18 22  1  0  0  0  0
 18 33  1  6  0  0  0
 19 14  1  0  0  0  0
 19 17  1  0  0  0  0
 19 23  1  0  0  0  0
 19 34  1  6  0  0  0
 20 11  1  0  0  0  0
 21 56  1  0  0  0  0
 22 57  1  0  0  0  0
 23 58  1  0  0  0  0
 24 20  2  0  0  0  0
 25 20  1  0  0  0  0
 25 59  1  0  0  0  0
 26  4  1  0  0  0  0
 27  7  1  0  0  0  0
 28 12  1  0  0  0  0
 29 13  1  0  0  0  0
M  END
>  <DRUGBANK_ID>
DB12789

>  <COMMON_NAME>
Dinoprost

>  <CAS_NUMBER>
551-11-1

>  <UNII>
B7IN85G1HY

>  <SYNONYMS>
Dinoprost; dinoprosta

$$$$
