
 OpenBabel10282417072D

 69 71  0  0  1  0  0  0  0  0999 V2000
    2.8579   -1.6500    0.0000 C   0  0  0  0  0  0  0  0  0  0  0  0
    2.1434   -1.2375    0.0000 C   0  0  1  0  0  0  0  0  0  0  0  0
    2.1434   -0.4125    0.0000 O   0  0  0  0  0  0  0  0  0  0  0  0
    2.8579    0.0000    0.0000 C   0  0  0  0  0  0  0  0  0  0  0  0
    3.5724   -0.4125    0.0000 C   0  0  2  0  0  0  0  0  0  0  0  0
    4.2868    0.0000    0.0000 O   0  0  0  0  0  0  0  0  0  0  0  0
    3.5724   -1.2375    0.0000 C   0  0  0  0  0  0  0  0  0  0  0  0
    4.2868   -1.6500    0.0000 N   0  0  0  0  0  0  0  0  0  0  0  0
    5.0013   -1.2375    0.0000 C   0  0  0  0  0  0  0  0  0  0  0  0
    4.5888   -0.5230    0.0000 C   0  0  0  0  0  0  0  0  0  0  0  0
    5.4138   -1.9520    0.0000 C   0  0  0  0  0  0  0  0  0  0  0  0
    5.7158   -0.8250    0.0000 C   0  0  0  0  0  0  0  0  0  0  0  0
    6.4302   -1.2375    0.0000 C   0  0  0  0  0  0  0  0  0  0  0  0
    7.1447   -0.8250    0.0000 C   0  0  0  0  0  0  0  0  0  0  0  0
    7.8592   -1.2375    0.0000 C   0  0  0  0  0  0  0  0  0  0  0  0
    7.8592   -2.0625    0.0000 C   0  0  0  0  0  0  0  0  0  0  0  0
    8.5737   -2.4750    0.0000 Cl  0  0  0  0  0  0  0  0  0  0  0  0
    7.1447   -2.4750    0.0000 C   0  0  0  0  0  0  0  0  0  0  0  0
    7.1447   -3.3000    0.0000 F   0  0  0  0  0  0  0  0  0  0  0  0
    6.4302   -2.0625    0.0000 C   0  0  0  0  0  0  0  0  0  0  0  0
    1.4289   -1.6500    0.0000 C   0  0  0  0  0  0  0  0  0  0  0  0
    1.4289   -2.4750    0.0000 C   0  0  0  0  0  0  0  0  0  0  0  0
    0.7145   -2.8875    0.0000 C   0  0  0  0  0  0  0  0  0  0  0  0
    0.0000   -2.4750    0.0000 C   0  0  0  0  0  0  0  0  0  0  0  0
    0.0000   -1.6500    0.0000 C   0  0  0  0  0  0  0  0  0  0  0  0
    0.7145   -1.2375    0.0000 C   0  0  0  0  0  0  0  0  0  0  0  0
    0.7145   -0.4125    0.0000 C   0  0  0  0  0  0  0  0  0  0  0  0
    0.0000    0.0000    0.0000 C   0  0  0  0  0  0  0  0  0  0  0  0
    0.0000    0.8250    0.0000 C   0  0  0  0  0  0  0  0  0  0  0  0
    0.7145    1.2375    0.0000 C   0  0  0  0  0  0  0  0  0  0  0  0
    0.7145    2.0625    0.0000 C   0  0  0  0  0  0  0  0  0  0  0  0
    0.0000    2.4750    0.0000 O   0  0  0  0  0  0  0  0  0  0  0  0
    1.4289    2.4750    0.0000 O   0  0  0  0  0  0  0  0  0  0  0  0
    1.4289    0.8250    0.0000 C   0  0  0  0  0  0  0  0  0  0  0  0
    2.1434    1.2375    0.0000 C   0  0  0  0  0  0  0  0  0  0  0  0
    1.4289    0.0000    0.0000 C   0  0  0  0  0  0  0  0  0  0  0  0
    2.8579   -2.7200    0.0000 H   0  0  0  0  0  0  0  0  0  0  0  0
    3.7845   -1.1150    0.0000 H   0  0  0  0  0  0  0  0  0  0  0  0
    3.7846   -2.1850    0.0000 H   0  0  0  0  0  0  0  0  0  0  0  0
    3.0700   -0.7025    0.0000 H   0  0  0  0  0  0  0  0  0  0  0  0
    2.8579    1.0700    0.0000 H   0  0  0  0  0  0  0  0  0  0  0  0
    3.7845    0.5350    0.0000 H   0  0  0  0  0  0  0  0  0  0  0  0
    3.5724    0.6575    0.0000 H   0  0  0  0  0  0  0  0  0  0  0  0
    5.1269   -0.4850    0.0000 H   0  0  0  0  0  0  0  0  0  0  0  0
    2.6457   -1.7725    0.0000 H   0  0  0  0  0  0  0  0  0  0  0  0
    3.5724   -2.3075    0.0000 H   0  0  0  0  0  0  0  0  0  0  0  0
    4.2868   -2.6700    0.0000 H   0  0  0  0  0  0  0  0  0  0  0  0
    5.1238    0.4036    0.0000 H   0  0  0  0  0  0  0  0  0  0  0  0
    3.5188   -0.5230    0.0000 H   0  0  0  0  0  0  0  0  0  0  0  0
    4.0538    0.4037    0.0000 H   0  0  0  0  0  0  0  0  0  0  0  0
    4.8788   -2.8786    0.0000 H   0  0  0  0  0  0  0  0  0  0  0  0
    6.4838   -1.9520    0.0000 H   0  0  0  0  0  0  0  0  0  0  0  0
    5.9488   -2.8787    0.0000 H   0  0  0  0  0  0  0  0  0  0  0  0
    5.7158    0.2450    0.0000 H   0  0  0  0  0  0  0  0  0  0  0  0
    6.6425   -0.2900    0.0000 H   0  0  0  0  0  0  0  0  0  0  0  0
    7.1447    0.2070    0.0000 H   0  0  0  0  0  0  0  0  0  0  0  0
    8.7529   -0.7215    0.0000 H   0  0  0  0  0  0  0  0  0  0  0  0
    5.5365   -2.5785    0.0000 H   0  0  0  0  0  0  0  0  0  0  0  0
    2.3226   -2.9910    0.0000 H   0  0  0  0  0  0  0  0  0  0  0  0
    0.7145   -3.9195    0.0000 H   0  0  0  0  0  0  0  0  0  0  0  0
   -0.8937   -2.9910    0.0000 H   0  0  0  0  0  0  0  0  0  0  0  0
   -0.8937   -1.1340    0.0000 H   0  0  0  0  0  0  0  0  0  0  0  0
   -0.8937   -0.5160    0.0000 H   0  0  0  0  0  0  0  0  0  0  0  0
   -0.8937    1.3410    0.0000 H   0  0  0  0  0  0  0  0  0  0  0  0
   -0.0000    3.4120    0.0000 H   0  0  0  0  0  0  0  0  0  0  0  0
    3.0700    0.7025    0.0000 H   0  0  0  0  0  0  0  0  0  0  0  0
    2.1434    2.3075    0.0000 H   0  0  0  0  0  0  0  0  0  0  0  0
    3.0701    1.7725    0.0000 H   0  0  0  0  0  0  0  0  0  0  0  0
    2.3226   -0.5160    0.0000 H   0  0  0  0  0  0  0  0  0  0  0  0
  1 37  1  0  0  0  0
  1 38  1  0  0  0  0
  1 39  1  0  0  0  0
  2  1  1  0  0  0  0
  2  3  1  0  0  0  0
  2 21  1  0  0  0  0
  2 40  1  1  0  0  0
  3  4  1  0  0  0  0
  4 41  1  0  0  0  0
  4 42  1  0  0  0  0
  5  4  1  0  0  0  0
  5  6  1  0  0  0  0
  5  7  1  0  0  0  0
  5 43  1  1  0  0  0
  6 44  1  0  0  0  0
  7  8  1  0  0  0  0
  7 45  1  0  0  0  0
  7 46  1  0  0  0  0
  8  9  1  0  0  0  0
  8 47  1  0  0  0  0
  9 10  1  0  0  0  0
  9 11  1  0  0  0  0
  9 12  1  0  0  0  0
 10 48  1  0  0  0  0
 10 49  1  0  0  0  0
 10 50  1  0  0  0  0
 11 51  1  0  0  0  0
 11 52  1  0  0  0  0
 11 53  1  0  0  0  0
 12 13  1  0  0  0  0
 12 54  1  0  0  0  0
 12 55  1  0  0  0  0
 13 14  2  0  0  0  0
 13 20  1  0  0  0  0
 14 15  1  0  0  0  0
 14 56  1  0  0  0  0
 15 16  2  0  0  0  0
 15 57  1  0  0  0  0
 16 17  1  0  0  0  0
 16 18  1  0  0  0  0
 18 19  1  0  0  0  0
 18 20  2  0  0  0  0
 20 58  1  0  0  0  0
 21 22  2  0  0  0  0
 21 26  1  0  0  0  0
 22 23  1  0  0  0  0
 22 59  1  0  0  0  0
 23 24  2  0  0  0  0
 23 60  1  0  0  0  0
 24 25  1  0  0  0  0
 24 61  1  0  0  0  0
 25 26  2  0  0  0  0
 25 62  1  0  0  0  0
 26 27  1  0  0  0  0
 27 28  2  0  0  0  0
 27 36  1  0  0  0  0
 28 29  1  0  0  0  0
 28 63  1  0  0  0  0
 29 30  2  0  0  0  0
 29 64  1  0  0  0  0
 30 31  1  0  0  0  0
 30 34  1  0  0  0  0
 31 32  1  0  0  0  0
 31 33  2  0  0  0  0
 32 65  1  0  0  0  0
 34 35  1  0  0  0  0
 34 36  2  0  0  0  0
 35 66  1  0  0  0  0
 35 67  1  0  0  0  0
 35 68  1  0  0  0  0
 36 69  1  0  0  0  0
M  END
>  <DRUGBANK_ID>
DB18096

>  <COMMON_NAME>
Encaleret

>  <CAS_NUMBER>
787583-71-5

>  <UNII>
EF8081AQ6G

>  <SYNONYMS>
(1,1'-biphenyl)-4-carboxylic acid, 2'-((1r)-1-((2r)-3-((2-(4-chloro-3-fluorophenyl)-1,1-dimethylethyl)amino)-2-hydroxypropoxy)ethyl)-3-methyl-; 2'-((1r)-1-(((1-(4-chloro-3-fluorophenyl)-2-methylpropan-2-yl)amino)-(2r)-2-hydroxypropoxy)ethyl)-3-methyl(1,1'-biphenyl)-4-carboxylic acid; 2'-((1r)-1-(((2r)-3-((1-(4-chloro-3-fluorophenyl)-2-methylpropan-2-yl)amino)-2-hydroxypropyl)oxy)ethyl)-3-methyl-1,1'-biphenyl-4-carboxylic acid; 2'-((1r)-1-((2r)-3-((1-(4-chloro-3-fluorophenyl)-2-methylpropan-2-yl)amino)-2-hydroxypropoxy)ethyl)-3-methyl(1,1'-biphenyl)-4-carboxylic acid; Encaleret

$$$$
