
 OpenBabel10282417072D

 68 72  0  0  0  0  0  0  0  0999 V2000
   -1.3320    1.2853    0.0000 C   0  0  0  0  0  0  0  0  0  0  0  0
   -2.0585    0.8867    0.0000 C   0  0  0  0  0  0  0  0  0  0  0  0
   -2.0757    0.0602    0.0000 C   0  0  0  0  0  0  0  0  0  0  0  0
   -1.3670   -0.3687    0.0000 C   0  0  0  0  0  0  0  0  0  0  0  0
   -0.6261    0.8599    0.0000 C   0  0  0  0  0  0  0  0  0  0  0  0
   -0.6359    0.0350    0.0000 C   0  0  0  0  0  0  0  0  0  0  0  0
    0.1456   -0.2294    0.0000 O   0  0  0  0  0  0  0  0  0  0  0  0
    0.1616    1.1055    0.0000 C   0  0  1  0  0  0  0  0  0  0  0  0
    0.6396    0.4352    0.0000 C   0  0  2  0  0  0  0  0  0  0  0  0
    1.4249    0.6828    0.0000 C   0  0  1  0  0  0  0  0  0  0  0  0
    1.4321    1.5060    0.0000 C   0  0  2  0  0  0  0  0  0  0  0  0
    0.6514    1.7673    0.0000 C   0  0  1  0  0  0  0  0  0  0  0  0
    0.4029    2.5552    0.0000 O   0  0  0  0  0  0  0  0  0  0  0  0
    2.1048    1.9859    0.0000 C   0  0  0  0  0  0  0  0  0  0  0  0
    2.8567    1.6433    0.0000 O   0  0  0  0  0  0  0  0  0  0  0  0
    2.0255    2.8083    0.0000 N   0  0  0  0  0  0  0  0  0  0  0  0
    2.6984    3.2882    0.0000 C   0  0  0  0  0  0  0  0  0  0  0  0
    1.2737    3.1510    0.0000 C   0  0  0  0  0  0  0  0  0  0  0  0
    2.0890    0.1912    0.0000 C   0  0  0  0  0  0  0  0  0  0  0  0
    0.9079   -0.3378    0.0000 C   0  0  0  0  0  0  0  0  0  0  0  0
   -0.2559    1.8242    0.0000 O   0  0  0  0  0  0  0  0  0  0  0  0
   -1.3152    2.1113    0.0000 O   0  0  0  0  0  0  0  0  0  0  0  0
   -2.7996   -0.3379    0.0000 O   0  0  0  0  0  0  0  0  0  0  0  0
   -3.5065    0.0899    0.0000 C   0  0  0  0  0  0  0  0  0  0  0  0
    1.9930   -0.6292    0.0000 C   0  0  0  0  0  0  0  0  0  0  0  0
    2.6562   -1.1204    0.0000 C   0  0  0  0  0  0  0  0  0  0  0  0
    3.4150   -0.7911    0.0000 C   0  0  0  0  0  0  0  0  0  0  0  0
    3.5065    0.0344    0.0000 C   0  0  0  0  0  0  0  0  0  0  0  0
    2.8421    0.5220    0.0000 C   0  0  0  0  0  0  0  0  0  0  0  0
    0.3704   -0.9560    0.0000 C   0  0  0  0  0  0  0  0  0  0  0  0
    0.6388   -1.7281    0.0000 C   0  0  0  0  0  0  0  0  0  0  0  0
    1.4432   -1.8821    0.0000 C   0  0  0  0  0  0  0  0  0  0  0  0
    1.9787   -1.2579    0.0000 C   0  0  0  0  0  0  0  0  0  0  0  0
    1.7075   -0.4883    0.0000 C   0  0  0  0  0  0  0  0  0  0  0  0
    1.7159   -2.6622    0.0000 O   0  0  0  0  0  0  0  0  0  0  0  0
    1.1768   -3.2882    0.0000 C   0  0  0  0  0  0  0  0  0  0  0  0
   -2.0222    2.5389    0.0000 C   0  0  0  0  0  0  0  0  0  0  0  0
   -2.9410    1.4216    0.0000 H   0  0  0  0  0  0  0  0  0  0  0  0
   -1.3875   -1.4005    0.0000 H   0  0  0  0  0  0  0  0  0  0  0  0
    1.2482   -0.3725    0.0000 H   0  0  0  0  0  0  0  0  0  0  0  0
    2.3812    1.0120    0.0000 H   0  0  0  0  0  0  0  0  0  0  0  0
    1.4146    2.5173    0.0000 H   0  0  0  0  0  0  0  0  0  0  0  0
    1.0582    3.2704    0.0000 H   0  0  0  0  0  0  0  0  0  0  0  0
    3.6720    2.8444    0.0000 H   0  0  0  0  0  0  0  0  0  0  0  0
    2.5959    4.3533    0.0000 H   0  0  0  0  0  0  0  0  0  0  0  0
    3.5695    3.9095    0.0000 H   0  0  0  0  0  0  0  0  0  0  0  0
    1.1712    4.2161    0.0000 H   0  0  0  0  0  0  0  0  0  0  0  0
    0.4025    2.5297    0.0000 H   0  0  0  0  0  0  0  0  0  0  0  0
    0.3001    3.5948    0.0000 H   0  0  0  0  0  0  0  0  0  0  0  0
    0.2269    2.6655    0.0000 H   0  0  0  0  0  0  0  0  0  0  0  0
   -3.4844    1.1597    0.0000 H   0  0  0  0  0  0  0  0  0  0  0  0
   -4.4440   -0.4259    0.0000 H   0  0  0  0  0  0  0  0  0  0  0  0
   -4.4219    0.6439    0.0000 H   0  0  0  0  0  0  0  0  0  0  0  0
    1.0459   -1.0391    0.0000 H   0  0  0  0  0  0  0  0  0  0  0  0
    2.5388   -2.1457    0.0000 H   0  0  0  0  0  0  0  0  0  0  0  0
    4.2453   -1.4040    0.0000 H   0  0  0  0  0  0  0  0  0  0  0  0
    4.4515    0.4492    0.0000 H   0  0  0  0  0  0  0  0  0  0  0  0
    2.9550    1.5478    0.0000 H   0  0  0  0  0  0  0  0  0  0  0  0
   -0.6429   -0.7605    0.0000 H   0  0  0  0  0  0  0  0  0  0  0  0
   -0.0360   -2.5089    0.0000 H   0  0  0  0  0  0  0  0  0  0  0  0
    2.9931   -1.4479    0.0000 H   0  0  0  0  0  0  0  0  0  0  0  0
    2.3794    0.2950    0.0000 H   0  0  0  0  0  0  0  0  0  0  0  0
    0.1255   -3.0889    0.0000 H   0  0  0  0  0  0  0  0  0  0  0  0
    1.5298   -4.2983    0.0000 H   0  0  0  0  0  0  0  0  0  0  0  0
    0.4786   -4.0990    0.0000 H   0  0  0  0  0  0  0  0  0  0  0  0
   -2.0004    3.6087    0.0000 H   0  0  0  0  0  0  0  0  0  0  0  0
   -2.9595    2.0229    0.0000 H   0  0  0  0  0  0  0  0  0  0  0  0
   -2.9378    3.0926    0.0000 H   0  0  0  0  0  0  0  0  0  0  0  0
  1  2  2  0  0  0  0
  1 22  1  0  0  0  0
  2  3  1  0  0  0  0
  2 38  1  0  0  0  0
  3  4  2  0  0  0  0
  3 23  1  0  0  0  0
  4  6  1  0  0  0  0
  4 39  1  0  0  0  0
  5  1  1  0  0  0  0
  5  6  2  0  0  0  0
  6  7  1  0  0  0  0
  7  9  1  0  0  0  0
  8  5  1  0  0  0  0
  8  9  1  0  0  0  0
  8 21  1  1  0  0  0
  9 10  1  0  0  0  0
  9 20  1  1  0  0  0
 10 11  1  0  0  0  0
 10 19  1  0  0  0  0
 10 40  1  6  0  0  0
 11 12  1  0  0  0  0
 11 14  1  0  0  0  0
 11 41  1  1  0  0  0
 12  8  1  0  0  0  0
 12 13  1  0  0  0  0
 12 42  1  1  0  0  0
 13 43  1  0  0  0  0
 14 15  2  0  0  0  0
 14 16  1  0  0  0  0
 16 17  1  0  0  0  0
 16 18  1  0  0  0  0
 17 44  1  0  0  0  0
 17 45  1  0  0  0  0
 17 46  1  0  0  0  0
 18 47  1  0  0  0  0
 18 48  1  0  0  0  0
 18 49  1  0  0  0  0
 19 25  2  0  0  0  0
 20 30  2  0  0  0  0
 21 50  1  0  0  0  0
 22 37  1  0  0  0  0
 23 24  1  0  0  0  0
 24 51  1  0  0  0  0
 24 52  1  0  0  0  0
 24 53  1  0  0  0  0
 25 26  1  0  0  0  0
 25 54  1  0  0  0  0
 26 27  2  0  0  0  0
 26 55  1  0  0  0  0
 27 28  1  0  0  0  0
 27 56  1  0  0  0  0
 28 29  2  0  0  0  0
 28 57  1  0  0  0  0
 29 19  1  0  0  0  0
 29 58  1  0  0  0  0
 30 31  1  0  0  0  0
 30 59  1  0  0  0  0
 31 32  2  0  0  0  0
 31 60  1  0  0  0  0
 32 33  1  0  0  0  0
 32 35  1  0  0  0  0
 33 34  2  0  0  0  0
 33 61  1  0  0  0  0
 34 20  1  0  0  0  0
 34 62  1  0  0  0  0
 35 36  1  0  0  0  0
 36 63  1  0  0  0  0
 36 64  1  0  0  0  0
 36 65  1  0  0  0  0
 37 66  1  0  0  0  0
 37 67  1  0  0  0  0
 37 68  1  0  0  0  0
M  END
>  <DRUGBANK_ID>
DB15495

>  <COMMON_NAME>
Rocaglamide

>  <CAS_NUMBER>
84573-16-0

>  <UNII>
FRG4N852F7

$$$$
