
 OpenBabel10282417072D

 28 27  0  0  1  0  0  0  0  0999 V2000
    2.2836   -2.1434    0.0000 C   0  0  0  0  0  0  0  0  0  0  0  0
    2.9980   -1.7309    0.0000 C   0  0  0  0  0  0  0  0  0  0  0  0
    3.7125   -2.1434    0.0000 C   0  0  0  0  0  0  0  0  0  0  0  0
    4.4270   -1.7309    0.0000 C   0  0  0  0  0  0  0  0  0  0  0  0
    5.1414   -2.1434    0.0000 C   0  0  0  0  0  0  0  0  0  0  0  0
    5.8559   -1.7309    0.0000 O   0  0  0  0  0  0  0  0  0  0  0  0
    6.5704   -2.1434    0.0000 P   0  0  2  0  0  0  0  0  0  0  0  0
    6.1579   -2.8579    0.0000 O   0  0  0  0  0  0  0  0  0  0  0  0
    6.9829   -1.4289    0.0000 O   0  0  0  0  0  0  0  0  0  0  0  0
    7.2849   -2.5559    0.0000 O   0  0  0  0  0  0  0  0  0  0  0  0
    7.9993   -2.1434    0.0000 P   0  0  0  0  0  0  0  0  0  0  0  0
    8.7138   -1.7309    0.0000 O   0  0  0  0  0  0  0  0  0  0  0  0
    8.4118   -2.8579    0.0000 O   0  0  0  0  0  0  0  0  0  0  0  0
    7.5868   -1.4289    0.0000 O   0  0  0  0  0  0  0  0  0  0  0  0
    1.3569   -1.6084    0.0000 H   0  0  0  0  0  0  0  0  0  0  0  0
    2.2836   -3.2134    0.0000 H   0  0  0  0  0  0  0  0  0  0  0  0
    1.3570   -2.6784    0.0000 H   0  0  0  0  0  0  0  0  0  0  0  0
    2.9980   -0.6609    0.0000 H   0  0  0  0  0  0  0  0  0  0  0  0
    3.9246   -1.1959    0.0000 H   0  0  0  0  0  0  0  0  0  0  0  0
    3.7125   -3.2134    0.0000 H   0  0  0  0  0  0  0  0  0  0  0  0
    4.6391   -2.6784    0.0000 H   0  0  0  0  0  0  0  0  0  0  0  0
    4.4270   -0.6609    0.0000 H   0  0  0  0  0  0  0  0  0  0  0  0
    5.3537   -1.1959    0.0000 H   0  0  0  0  0  0  0  0  0  0  0  0
    5.1414   -3.2134    0.0000 H   0  0  0  0  0  0  0  0  0  0  0  0
    6.0680   -2.6784    0.0000 H   0  0  0  0  0  0  0  0  0  0  0  0
    5.1879   -2.8579    0.0000 H   0  0  0  0  0  0  0  0  0  0  0  0
    9.5538   -2.2159    0.0000 H   0  0  0  0  0  0  0  0  0  0  0  0
    7.9268   -3.6979    0.0000 H   0  0  0  0  0  0  0  0  0  0  0  0
  1  2  1  0  0  0  0
  1 15  1  0  0  0  0
  1 16  1  0  0  0  0
  1 17  1  0  0  0  0
  2  3  1  0  0  0  0
  2 18  1  0  0  0  0
  2 19  1  0  0  0  0
  3  4  1  0  0  0  0
  3 20  1  0  0  0  0
  3 21  1  0  0  0  0
  4  5  1  0  0  0  0
  4 22  1  0  0  0  0
  4 23  1  0  0  0  0
  5  6  1  0  0  0  0
  5 24  1  0  0  0  0
  5 25  1  0  0  0  0
  7  6  1  0  0  0  0
  7  8  1  0  0  0  0
  7  9  2  1  0  0  0
  7 10  1  0  0  0  0
  8 26  1  0  0  0  0
 10 11  1  0  0  0  0
 11 12  1  0  0  0  0
 11 13  1  0  0  0  0
 11 14  2  0  0  0  0
 12 27  1  0  0  0  0
 13 28  1  0  0  0  0
M  END
>  <DRUGBANK_ID>
DB02707

>  <SECONDARY_ACCESSION_NUMBERS>
EXPT02472

>  <COMMON_NAME>
Pentyl Trihydrogen Diphosphate

$$$$
