
 OpenBabel10282417072D

 90 93  0  0  0  0  0  0  0  0999 V2000
    3.1157    4.3579    0.0000 C   0  0  0  0  0  0  0  0  0  0  0  0
    2.3011    4.3783    0.0000 C   0  0  0  0  0  0  0  0  0  0  0  0
    1.8939    5.0910    0.0000 O   0  0  0  0  0  0  0  0  0  0  0  0
    1.8735    3.6655    0.0000 N   0  0  0  0  0  0  0  0  0  0  0  0
    2.2807    2.9527    0.0000 C   0  0  0  0  0  0  0  0  0  0  0  0
    3.0953    2.9325    0.0000 N   0  0  0  0  0  0  0  0  0  0  0  0
    1.8531    2.2400    0.0000 N   0  0  0  0  0  0  0  0  0  0  0  0
    2.2604    1.5273    0.0000 C   0  0  0  0  0  0  0  0  0  0  0  0
    1.8226    0.8451    0.0000 C   0  0  0  0  0  0  0  0  0  0  0  0
    2.1483    0.0712    0.0000 C   0  0  0  0  0  0  0  0  0  0  0  0
    1.7615   -0.6720    0.0000 C   0  0  2  0  0  0  0  0  0  0  0  0
    0.9978   -0.3971    0.0000 N   0  0  0  0  0  0  0  0  0  0  0  0
    0.2137   -0.4276    0.0000 C   0  0  0  0  0  0  0  0  0  0  0  0
    0.2137    0.3971    0.0000 O   0  0  0  0  0  0  0  0  0  0  0  0
   -0.5192   -0.7839    0.0000 C   0  0  2  0  0  0  0  0  0  0  0  0
   -1.0691   -0.1832    0.0000 C   0  0  0  0  0  0  0  0  0  0  0  0
   -0.9062    0.6007    0.0000 C   0  0  0  0  0  0  0  0  0  0  0  0
   -1.3848    1.2727    0.0000 C   0  0  0  0  0  0  0  0  0  0  0  0
   -1.0386    2.0161    0.0000 C   0  0  0  0  0  0  0  0  0  0  0  0
   -0.2239    2.1382    0.0000 O   0  0  0  0  0  0  0  0  0  0  0  0
   -1.6088    2.6065    0.0000 O   0  0  0  0  0  0  0  0  0  0  0  0
   -1.0181   -1.4356    0.0000 N   0  0  0  0  0  0  0  0  0  0  0  0
   -1.2626   -2.2706    0.0000 C   0  0  0  0  0  0  0  0  0  0  0  0
   -1.9345   -1.9244    0.0000 O   0  0  0  0  0  0  0  0  0  0  0  0
   -1.0996   -3.1259    0.0000 C   0  0  2  0  0  0  0  0  0  0  0  0
   -1.9243   -3.2787    0.0000 C   0  0  0  0  0  0  0  0  0  0  0  0
   -2.6168   -2.8102    0.0000 C   0  0  0  0  0  0  0  0  0  0  0  0
   -2.6880   -2.0363    0.0000 C   0  0  0  0  0  0  0  0  0  0  0  0
   -3.5026   -1.8429    0.0000 N   0  0  0  0  0  0  0  0  0  0  0  0
   -3.9404   -2.5557    0.0000 C   0  0  0  0  0  0  0  0  0  0  0  0
   -3.4211   -3.1463    0.0000 N   0  0  0  0  0  0  0  0  0  0  0  0
   -0.6109   -3.7979    0.0000 N   0  0  0  0  0  0  0  0  0  0  0  0
   -0.8451   -4.5718    0.0000 C   0  0  2  0  0  0  0  0  0  0  0  0
   -1.7004   -5.0096    0.0000 O   0  0  0  0  0  0  0  0  0  0  0  0
    0.1730   -5.0910    0.0000 C   0  0  0  0  0  0  0  0  0  0  0  0
    0.7127   -4.3274    0.0000 C   0  0  2  0  0  0  0  0  0  0  0  0
    1.5578   -4.1543    0.0000 N   0  0  0  0  0  0  0  0  0  0  0  0
    2.2298   -3.5942    0.0000 C   0  0  0  0  0  0  0  0  0  0  0  0
    2.8612   -4.1339    0.0000 O   0  0  0  0  0  0  0  0  0  0  0  0
    2.6270   -2.8408    0.0000 C   0  0  1  0  0  0  0  0  0  0  0  0
    3.4619   -3.0852    0.0000 C   0  0  0  0  0  0  0  0  0  0  0  0
    3.9404   -2.4437    0.0000 C   0  0  0  0  0  0  0  0  0  0  0  0
    3.4619   -1.7716    0.0000 C   0  0  0  0  0  0  0  0  0  0  0  0
    2.6982   -2.0161    0.0000 N   0  0  0  0  0  0  0  0  0  0  0  0
    2.3622   -1.2218    0.0000 C   0  0  0  0  0  0  0  0  0  0  0  0
    3.0547   -0.7229    0.0000 O   0  0  0  0  0  0  0  0  0  0  0  0
    0.1629   -3.6554    0.0000 C   0  0  0  0  0  0  0  0  0  0  0  0
    0.5803   -2.8102    0.0000 O   0  0  0  0  0  0  0  0  0  0  0  0
    3.6273    3.4181    0.0000 H   0  0  0  0  0  0  0  0  0  0  0  0
    3.6737    5.2709    0.0000 H   0  0  0  0  0  0  0  0  0  0  0  0
    4.1854    4.3311    0.0000 H   0  0  0  0  0  0  0  0  0  0  0  0
    0.8891    3.6760    0.0000 H   0  0  0  0  0  0  0  0  0  0  0  0
    3.5663    2.0680    0.0000 H   0  0  0  0  0  0  0  0  0  0  0  0
    0.8687    2.2504    0.0000 H   0  0  0  0  0  0  0  0  0  0  0  0
    3.3300    1.4998    0.0000 H   0  0  0  0  0  0  0  0  0  0  0  0
    2.7614    0.5818    0.0000 H   0  0  0  0  0  0  0  0  0  0  0  0
    0.7566    0.9371    0.0000 H   0  0  0  0  0  0  0  0  0  0  0  0
    1.1928   -0.0199    0.0000 H   0  0  0  0  0  0  0  0  0  0  0  0
    3.2174    0.0276    0.0000 H   0  0  0  0  0  0  0  0  0  0  0  0
    2.6847   -0.8547    0.0000 H   0  0  0  0  0  0  0  0  0  0  0  0
    1.3719    0.3245    0.0000 H   0  0  0  0  0  0  0  0  0  0  0  0
    1.1482    0.5759    0.0000 H   0  0  0  0  0  0  0  0  0  0  0  0
   -0.3187    0.2671    0.0000 H   0  0  0  0  0  0  0  0  0  0  0  0
   -2.1008   -0.4667    0.0000 H   0  0  0  0  0  0  0  0  0  0  0  0
   -1.8493    0.5491    0.0000 H   0  0  0  0  0  0  0  0  0  0  0  0
    0.1410    0.8206    0.0000 H   0  0  0  0  0  0  0  0  0  0  0  0
   -0.5168    1.5973    0.0000 H   0  0  0  0  0  0  0  0  0  0  0  0
   -2.4503    1.1749    0.0000 H   0  0  0  0  0  0  0  0  0  0  0  0
   -2.0006    2.1477    0.0000 H   0  0  0  0  0  0  0  0  0  0  0  0
    0.3597    1.4051    0.0000 H   0  0  0  0  0  0  0  0  0  0  0  0
   -1.8962   -0.9905    0.0000 H   0  0  0  0  0  0  0  0  0  0  0  0
   -1.9829   -2.5221    0.0000 H   0  0  0  0  0  0  0  0  0  0  0  0
   -2.1430   -4.3261    0.0000 H   0  0  0  0  0  0  0  0  0  0  0  0
   -2.9159   -3.6806    0.0000 H   0  0  0  0  0  0  0  0  0  0  0  0
   -1.9086   -1.3599    0.0000 H   0  0  0  0  0  0  0  0  0  0  0  0
   -3.8800   -0.9336    0.0000 H   0  0  0  0  0  0  0  0  0  0  0  0
   -4.9687   -2.6435    0.0000 H   0  0  0  0  0  0  0  0  0  0  0  0
   -1.6664   -3.8859    0.0000 H   0  0  0  0  0  0  0  0  0  0  0  0
   -2.5149   -4.4828    0.0000 H   0  0  0  0  0  0  0  0  0  0  0  0
    0.4294   -6.1298    0.0000 H   0  0  0  0  0  0  0  0  0  0  0  0
    1.2244   -5.2896    0.0000 H   0  0  0  0  0  0  0  0  0  0  0  0
    1.2980   -5.2231    0.0000 H   0  0  0  0  0  0  0  0  0  0  0  0
    1.9846   -5.0415    0.0000 H   0  0  0  0  0  0  0  0  0  0  0  0
    3.0441   -3.8262    0.0000 H   0  0  0  0  0  0  0  0  0  0  0  0
    3.8011   -4.1000    0.0000 H   0  0  0  0  0  0  0  0  0  0  0  0
    4.5184   -3.2548    0.0000 H   0  0  0  0  0  0  0  0  0  0  0  0
    5.0103   -2.4556    0.0000 H   0  0  0  0  0  0  0  0  0  0  0  0
    4.4360   -1.4954    0.0000 H   0  0  0  0  0  0  0  0  0  0  0  0
    3.7996   -0.7563    0.0000 H   0  0  0  0  0  0  0  0  0  0  0  0
    2.7096   -1.0107    0.0000 H   0  0  0  0  0  0  0  0  0  0  0  0
  1  2  1  0  0  0  0
  1 49  1  0  0  0  0
  1 50  1  0  0  0  0
  1 51  1  0  0  0  0
  2  3  2  0  0  0  0
  2  4  1  0  0  0  0
  4  5  1  0  0  0  0
  4 52  1  0  0  0  0
  5  6  2  0  0  0  0
  5  7  1  0  0  0  0
  6 53  1  0  0  0  0
  7  8  1  0  0  0  0
  7 54  1  0  0  0  0
  8  9  1  0  0  0  0
  8 55  1  0  0  0  0
  8 56  1  0  0  0  0
  9 10  1  0  0  0  0
  9 57  1  0  0  0  0
  9 58  1  0  0  0  0
 10 59  1  0  0  0  0
 10 60  1  0  0  0  0
 11 10  1  0  0  0  0
 11 12  1  0  0  0  0
 11 45  1  0  0  0  0
 11 61  1  6  0  0  0
 12 13  1  0  0  0  0
 12 62  1  0  0  0  0
 13 14  2  0  0  0  0
 13 15  1  0  0  0  0
 15 16  1  0  0  0  0
 15 22  1  0  0  0  0
 15 63  1  6  0  0  0
 16 17  1  0  0  0  0
 16 64  1  0  0  0  0
 16 65  1  0  0  0  0
 17 18  1  0  0  0  0
 17 66  1  0  0  0  0
 17 67  1  0  0  0  0
 18 19  1  0  0  0  0
 18 68  1  0  0  0  0
 18 69  1  0  0  0  0
 19 20  1  0  0  0  0
 19 21  2  0  0  0  0
 20 70  1  0  0  0  0
 22 23  1  0  0  0  0
 22 71  1  0  0  0  0
 23 24  2  0  0  0  0
 23 25  1  0  0  0  0
 25 26  1  0  0  0  0
 25 32  1  0  0  0  0
 25 72  1  6  0  0  0
 26 27  1  0  0  0  0
 26 73  1  0  0  0  0
 26 74  1  0  0  0  0
 27 28  2  0  0  0  0
 27 31  1  0  0  0  0
 28 29  1  0  0  0  0
 28 75  1  0  0  0  0
 29 30  1  0  0  0  0
 29 76  1  0  0  0  0
 30 31  2  0  0  0  0
 30 77  1  0  0  0  0
 32 33  1  0  0  0  0
 32 47  1  0  0  0  0
 33 34  1  0  0  0  0
 33 35  1  0  0  0  0
 33 78  1  6  0  0  0
 34 79  1  0  0  0  0
 35 80  1  0  0  0  0
 35 81  1  0  0  0  0
 36 35  1  0  0  0  0
 36 37  1  0  0  0  0
 36 47  1  0  0  0  0
 36 82  1  6  0  0  0
 37 38  1  0  0  0  0
 37 83  1  0  0  0  0
 38 39  2  0  0  0  0
 38 40  1  0  0  0  0
 40 41  1  0  0  0  0
 40 44  1  0  0  0  0
 40 84  1  1  0  0  0
 41 42  1  0  0  0  0
 41 85  1  0  0  0  0
 41 86  1  0  0  0  0
 42 43  1  0  0  0  0
 42 87  1  0  0  0  0
 42 88  1  0  0  0  0
 43 44  1  0  0  0  0
 43 89  1  0  0  0  0
 43 90  1  0  0  0  0
 44 45  1  0  0  0  0
 45 46  2  0  0  0  0
 47 48  2  0  0  0  0
M  END
>  <DRUGBANK_ID>
DB04350

>  <SECONDARY_ACCESSION_NUMBERS>
EXPT02785

>  <COMMON_NAME>
Argadin

>  <CAS_NUMBER>
289665-92-5

$$$$
