
 OpenBabel10282417072D

 41 43  0  0  1  0  0  0  0  0999 V2000
    1.7798    3.9841    0.0000 C   0  0  0  0  0  0  0  0  0  0  0  0
    3.9934    0.8250    0.0000 C   0  0  0  0  0  0  0  0  0  0  0  0
    1.2949    0.4125    0.0000 C   0  0  0  0  0  0  0  0  0  0  0  0
    1.5249    3.1994    0.0000 C   0  0  2  0  0  0  0  0  0  0  0  0
    2.5645    0.0000    0.0000 C   0  0  0  0  0  0  0  0  0  0  0  0
    0.7403    2.9445    0.0000 C   0  0  2  0  0  0  0  0  0  0  0  0
    0.7403    2.1195    0.0000 C   0  0  2  0  0  0  0  0  0  0  0  0
    2.5645    0.8250    0.0000 C   0  0  0  0  0  0  0  0  0  0  0  0
    3.2789   -0.4125    0.0000 C   0  0  0  0  0  0  0  0  0  0  0  0
    1.5249    1.8646    0.0000 C   0  0  2  0  0  0  0  0  0  0  0  0
    3.2789    1.2375    0.0000 N   0  0  0  0  0  0  0  0  0  0  0  0
    3.9934    0.0000    0.0000 N   0  0  0  0  0  0  0  0  0  0  0  0
    1.7798   -0.2549    0.0000 N   0  0  0  0  0  0  0  0  0  0  0  0
    1.7798    1.0799    0.0000 N   0  0  0  0  0  0  0  0  0  0  0  0
    0.0728    3.4294    0.0000 O   0  0  0  0  0  0  0  0  0  0  0  0
    0.0728    1.6346    0.0000 O   0  0  0  0  0  0  0  0  0  0  0  0
    1.7377    6.1664    0.0000 O   0  0  0  0  0  0  0  0  0  0  0  0
    0.6981    5.6367    0.0000 O   0  0  0  0  0  0  0  0  0  0  0  0
    2.2674    5.1268    0.0000 O   0  0  0  0  0  0  0  0  0  0  0  0
    4.7079   -2.0625    0.0000 O   0  0  0  0  0  0  0  0  0  0  0  0
    3.5809   -2.3645    0.0000 O   0  0  0  0  0  0  0  0  0  0  0  0
    4.4059   -0.9355    0.0000 O   0  0  0  0  0  0  0  0  0  0  0  0
    1.2278    4.5972    0.0000 O   0  0  0  0  0  0  0  0  0  0  0  0
    2.0098    2.5320    0.0000 O   0  0  0  0  0  0  0  0  0  0  0  0
    3.2789   -1.2375    0.0000 O   0  0  0  0  0  0  0  0  0  0  0  0
    1.4827    5.3818    0.0000 P   0  0  0  0  0  0  0  0  0  0  0  0
    3.9934   -1.6500    0.0000 P   0  0  0  0  0  0  0  0  0  0  0  0
    0.7772    3.5481    0.0000 H   0  0  0  0  0  0  0  0  0  0  0  0
    0.5829    3.7543    0.0000 H   0  0  0  0  0  0  0  0  0  0  0  0
    0.0052    2.4940    0.0000 H   0  0  0  0  0  0  0  0  0  0  0  0
    0.9415    1.2812    0.0000 H   0  0  0  0  0  0  0  0  0  0  0  0
    2.8264    4.2066    0.0000 H   0  0  0  0  0  0  0  0  0  0  0  0
    2.1105    5.0017    0.0000 H   0  0  0  0  0  0  0  0  0  0  0  0
    4.8871    1.3410    0.0000 H   0  0  0  0  0  0  0  0  0  0  0  0
    0.2629    0.4125    0.0000 H   0  0  0  0  0  0  0  0  0  0  0  0
    0.1741    4.3941    0.0000 H   0  0  0  0  0  0  0  0  0  0  0  0
   -0.8133    2.0292    0.0000 H   0  0  0  0  0  0  0  0  0  0  0  0
    2.6865    6.3680    0.0000 H   0  0  0  0  0  0  0  0  0  0  0  0
    0.4964    6.5855    0.0000 H   0  0  0  0  0  0  0  0  0  0  0  0
    4.7079   -3.0325    0.0000 H   0  0  0  0  0  0  0  0  0  0  0  0
    2.6109   -2.3645    0.0000 H   0  0  0  0  0  0  0  0  0  0  0  0
  1 32  1  0  0  0  0
  1 33  1  0  0  0  0
  2 34  1  0  0  0  0
  3 35  1  0  0  0  0
  4  1  1  0  0  0  0
  4 28  1  6  0  0  0
  6  4  1  0  0  0  0
  6 15  1  0  0  0  0
  6 29  1  1  0  0  0
  7  6  1  0  0  0  0
  7 16  1  0  0  0  0
  7 30  1  1  0  0  0
  8  5  2  0  0  0  0
  9  5  1  0  0  0  0
 10  7  1  0  0  0  0
 10 14  1  0  0  0  0
 10 31  1  6  0  0  0
 11  2  2  0  0  0  0
 11  8  1  0  0  0  0
 12  2  1  0  0  0  0
 12  9  2  0  0  0  0
 13  3  2  0  0  0  0
 13  5  1  0  0  0  0
 14  3  1  0  0  0  0
 14  8  1  0  0  0  0
 15 36  1  0  0  0  0
 16 37  1  0  0  0  0
 17 38  1  0  0  0  0
 18 39  1  0  0  0  0
 20 40  1  0  0  0  0
 21 41  1  0  0  0  0
 23  1  1  0  0  0  0
 24  4  1  0  0  0  0
 24 10  1  0  0  0  0
 25  9  1  0  0  0  0
 26 17  1  0  0  0  0
 26 18  1  0  0  0  0
 26 19  2  0  0  0  0
 26 23  1  0  0  0  0
 27 20  1  0  0  0  0
 27 21  1  0  0  0  0
 27 22  2  0  0  0  0
 27 25  1  0  0  0  0
M  END
>  <DRUGBANK_ID>
DB03510

>  <SECONDARY_ACCESSION_NUMBERS>
EXPT01873

>  <COMMON_NAME>
6-O-Phosphoryl Inosine Monophosphate

$$$$
