
 OpenBabel10282417072D

 43 46  0  0  1  0  0  0  0  0999 V2000
   15.7157  -11.8006    0.0000 C   0  0  2  0  0  0  0  0  0  0  0  0
   15.7157  -12.6255    0.0000 N   0  0  0  0  0  0  0  0  0  0  0  0
   16.4303  -13.0379    0.0000 C   0  0  0  0  0  0  0  0  0  0  0  0
   17.1446  -12.6255    0.0000 C   0  0  0  0  0  0  0  0  0  0  0  0
   17.1446  -11.8006    0.0000 C   0  0  0  0  0  0  0  0  0  0  0  0
   16.4303  -11.3881    0.0000 S   0  0  0  0  0  0  0  0  0  0  0  0
   14.8907  -11.8006    0.0000 C   0  0  1  0  0  0  0  0  0  0  0  0
   14.8907  -12.6255    0.0000 C   0  0  0  0  0  0  0  0  0  0  0  0
   14.1764  -11.3881    0.0000 N   0  0  0  0  0  0  0  0  0  0  0  0
   13.4618  -11.8006    0.0000 C   0  0  0  0  0  0  0  0  0  0  0  0
   13.4618  -12.6255    0.0000 O   0  0  0  0  0  0  0  0  0  0  0  0
   14.1764  -13.0379    0.0000 O   0  0  0  0  0  0  0  0  0  0  0  0
   12.7474  -11.3881    0.0000 C   0  0  0  0  0  0  0  0  0  0  0  0
   17.8700  -13.0445    0.0000 C   0  0  0  0  0  0  0  0  0  0  0  0
   16.4303  -13.8628    0.0000 C   0  0  0  0  0  0  0  0  0  0  0  0
   15.7058  -14.2812    0.0000 O   0  0  0  0  0  0  0  0  0  0  0  0
   17.1346  -14.2696    0.0000 O   0  0  0  0  0  0  0  0  0  0  0  0
   12.0215  -11.8074    0.0000 N   0  0  0  0  0  0  0  0  0  0  0  0
   15.7157  -10.9748    0.0000 H   0  0  0  0  0  0  0  0  0  0  0  0
   18.5874  -12.6305    0.0000 S   0  0  0  0  0  0  0  0  0  0  0  0
   19.3017  -13.0431    0.0000 C   0  0  0  0  0  0  0  0  0  0  0  0
   19.5594  -13.8259    0.0000 N   0  0  0  0  0  0  0  0  0  0  0  0
   20.3849  -13.8252    0.0000 N   0  0  0  0  0  0  0  0  0  0  0  0
   20.6393  -13.0399    0.0000 C   0  0  0  0  0  0  0  0  0  0  0  0
   19.9710  -12.5552    0.0000 S   0  0  0  0  0  0  0  0  0  0  0  0
   21.4642  -13.0213    0.0000 C   0  0  0  0  0  0  0  0  0  0  0  0
   11.3408  -11.3282    0.0000 C   0  0  0  0  0  0  0  0  0  0  0  0
   10.6719  -11.8275    0.0000 N   0  0  0  0  0  0  0  0  0  0  0  0
   10.9401  -12.6180    0.0000 N   0  0  0  0  0  0  0  0  0  0  0  0
   11.7748  -12.6073    0.0000 N   0  0  0  0  0  0  0  0  0  0  0  0
   18.0713  -11.2656    0.0000 H   0  0  0  0  0  0  0  0  0  0  0  0
   17.1447  -10.7306    0.0000 H   0  0  0  0  0  0  0  0  0  0  0  0
   15.1677  -10.7671    0.0000 H   0  0  0  0  0  0  0  0  0  0  0  0
   14.1765  -10.4036    0.0000 H   0  0  0  0  0  0  0  0  0  0  0  0
   12.7473  -10.3181    0.0000 H   0  0  0  0  0  0  0  0  0  0  0  0
   11.8207  -10.8532    0.0000 H   0  0  0  0  0  0  0  0  0  0  0  0
   17.8698  -14.1145    0.0000 H   0  0  0  0  0  0  0  0  0  0  0  0
   18.7965  -13.5797    0.0000 H   0  0  0  0  0  0  0  0  0  0  0  0
   17.1344  -15.2066    0.0000 H   0  0  0  0  0  0  0  0  0  0  0  0
   22.0200  -13.9357    0.0000 H   0  0  0  0  0  0  0  0  0  0  0  0
   21.9782  -12.0828    0.0000 H   0  0  0  0  0  0  0  0  0  0  0  0
   22.5339  -12.9972    0.0000 H   0  0  0  0  0  0  0  0  0  0  0  0
   11.3264  -10.2963    0.0000 H   0  0  0  0  0  0  0  0  0  0  0  0
  1  2  1  0  0  0  0
  1  6  1  0  0  0  0
  1  7  1  0  0  0  0
  1 19  1  6  0  0  0
  2  3  1  0  0  0  0
  2  8  1  0  0  0  0
  3  4  2  0  0  0  0
  3 15  1  0  0  0  0
  4  5  1  0  0  0  0
  4 14  1  0  0  0  0
  5  6  1  0  0  0  0
  5 31  1  0  0  0  0
  5 32  1  0  0  0  0
  7  8  1  0  0  0  0
  7  9  1  0  0  0  0
  7 33  1  6  0  0  0
  8 12  2  0  0  0  0
  9 10  1  0  0  0  0
  9 34  1  0  0  0  0
 10 11  2  0  0  0  0
 10 13  1  0  0  0  0
 13 18  1  0  0  0  0
 13 35  1  0  0  0  0
 13 36  1  0  0  0  0
 14 20  1  0  0  0  0
 14 37  1  0  0  0  0
 14 38  1  0  0  0  0
 15 16  2  0  0  0  0
 15 17  1  0  0  0  0
 17 39  1  0  0  0  0
 18 27  1  0  0  0  0
 18 30  1  0  0  0  0
 20 21  1  0  0  0  0
 21 22  2  0  0  0  0
 21 25  1  0  0  0  0
 22 23  1  0  0  0  0
 23 24  2  0  0  0  0
 24 25  1  0  0  0  0
 24 26  1  0  0  0  0
 26 40  1  0  0  0  0
 26 41  1  0  0  0  0
 26 42  1  0  0  0  0
 27 28  2  0  0  0  0
 27 43  1  0  0  0  0
 28 29  1  0  0  0  0
 29 30  2  0  0  0  0
M  END
>  <DRUGBANK_ID>
DB01327

>  <COMMON_NAME>
Cefazolin

>  <CAS_NUMBER>
25953-19-9

>  <UNII>
IHS69L0Y4T

>  <SYNONYMS>
(6R,7R)-3-{[(5-methyl-1,3,4-thiadiazol-2-yl)sulfanyl]methyl}-8-oxo-7-[(1H-tetrazol-1-ylacetyl)amino]-5-thia-1-azabicyclo[4.2.0]oct-2-ene-2-carboxylic acid; Cefamezin; Cefazolin; Cefazolina; Cefazoline; Cefazolinum; Cephamezine; Cephazolidin; Cephazolin; Cephazoline; CEZ

$$$$
