CP8
 OpenBabel10282417072D

 46 49  0  0  0  0  0  0  0  0999 V2000
   -1.8244   -1.8572    0.0000 C   0  0  0  0  0  0  0  0  0  0  0  0
   -1.8244   -1.0322    0.0000 C   0  0  0  0  0  0  0  0  0  0  0  0
   -2.6090   -2.1122    0.0000 N   0  0  0  0  0  0  0  0  0  0  0  0
   -1.1099   -2.2697    0.0000 C   0  0  0  0  0  0  0  0  0  0  0  0
   -1.1099   -0.6197    0.0000 C   0  0  0  0  0  0  0  0  0  0  0  0
   -2.6090   -0.7773    0.0000 C   0  0  0  0  0  0  0  0  0  0  0  0
   -3.0940   -1.4447    0.0000 S   0  0  0  0  0  0  0  0  0  0  0  0
   -2.8640   -2.8968    0.0000 C   0  0  0  0  0  0  0  0  0  0  0  0
   -0.3955   -1.8572    0.0000 C   0  0  0  0  0  0  0  0  0  0  0  0
   -0.3955   -1.0322    0.0000 C   0  0  0  0  0  0  0  0  0  0  0  0
   -3.8127   -1.8497    0.0000 O   0  0  0  0  0  0  0  0  0  0  0  0
   -3.8127   -1.0398    0.0000 O   0  0  0  0  0  0  0  0  0  0  0  0
    0.3190   -0.6197    0.0000 C   0  0  1  0  0  0  0  0  0  0  0  0
    0.3190    0.2053    0.0000 C   0  0  0  0  0  0  0  0  0  0  0  0
    1.0335   -1.0322    0.0000 O   0  0  0  0  0  0  0  0  0  0  0  0
    1.0335    0.6178    0.0000 N   0  0  0  0  0  0  0  0  0  0  0  0
    1.7479   -0.6197    0.0000 C   0  0  0  0  0  0  0  0  0  0  0  0
    1.0335    1.4428    0.0000 C   0  0  0  0  0  0  0  0  0  0  0  0
    1.7479    0.2053    0.0000 C   0  0  0  0  0  0  0  0  0  0  0  0
    1.7479    1.8553    0.0000 C   0  0  0  0  0  0  0  0  0  0  0  0
    2.4624    0.6178    0.0000 O   0  0  0  0  0  0  0  0  0  0  0  0
    1.7479    2.6803    0.0000 C   0  0  0  0  0  0  0  0  0  0  0  0
    2.4624    1.4428    0.0000 C   0  0  0  0  0  0  0  0  0  0  0  0
    2.4624    3.0928    0.0000 C   0  0  0  0  0  0  0  0  0  0  0  0
    3.1769    1.8553    0.0000 C   0  0  0  0  0  0  0  0  0  0  0  0
    3.1769    2.6803    0.0000 C   0  0  0  0  0  0  0  0  0  0  0  0
   -0.1867   -0.3278    0.0000 H   0  0  0  0  0  0  0  0  0  0  0  0
   -1.1099   -3.3017    0.0000 H   0  0  0  0  0  0  0  0  0  0  0  0
   -1.1099    0.4123    0.0000 H   0  0  0  0  0  0  0  0  0  0  0  0
   -2.9396    0.2403    0.0000 H   0  0  0  0  0  0  0  0  0  0  0  0
   -3.6658   -0.6098    0.0000 H   0  0  0  0  0  0  0  0  0  0  0  0
   -3.9106   -3.1192    0.0000 H   0  0  0  0  0  0  0  0  0  0  0  0
   -2.1481   -3.6920    0.0000 H   0  0  0  0  0  0  0  0  0  0  0  0
   -3.1947   -3.9144    0.0000 H   0  0  0  0  0  0  0  0  0  0  0  0
    0.4982   -2.3732    0.0000 H   0  0  0  0  0  0  0  0  0  0  0  0
   -0.6076    0.7403    0.0000 H   0  0  0  0  0  0  0  0  0  0  0  0
    0.3190    1.2753    0.0000 H   0  0  0  0  0  0  0  0  0  0  0  0
    2.6746   -1.1547    0.0000 H   0  0  0  0  0  0  0  0  0  0  0  0
    2.6745   -0.0847    0.0000 H   0  0  0  0  0  0  0  0  0  0  0  0
    0.1068    1.9778    0.0000 H   0  0  0  0  0  0  0  0  0  0  0  0
    1.0335    2.5128    0.0000 H   0  0  0  0  0  0  0  0  0  0  0  0
    0.8542    3.1963    0.0000 H   0  0  0  0  0  0  0  0  0  0  0  0
    2.4624    0.4108    0.0000 H   0  0  0  0  0  0  0  0  0  0  0  0
    2.4624    4.1248    0.0000 H   0  0  0  0  0  0  0  0  0  0  0  0
    4.0706    1.3393    0.0000 H   0  0  0  0  0  0  0  0  0  0  0  0
    4.0706    3.1963    0.0000 H   0  0  0  0  0  0  0  0  0  0  0  0
  1  2  2  0  0  0  0
  1  3  1  0  0  0  0
  1  4  1  0  0  0  0
  2  5  1  0  0  0  0
  2  6  1  0  0  0  0
  3  7  1  0  0  0  0
  3  8  1  0  0  0  0
  4  9  2  0  0  0  0
  4 28  1  0  0  0  0
  5 10  2  0  0  0  0
  5 29  1  0  0  0  0
  6  7  1  0  0  0  0
  6 30  1  0  0  0  0
  6 31  1  0  0  0  0
  7 11  2  0  0  0  0
  7 12  2  0  0  0  0
  8 32  1  0  0  0  0
  8 33  1  0  0  0  0
  8 34  1  0  0  0  0
  9 10  1  0  0  0  0
  9 35  1  0  0  0  0
 13 10  1  0  0  0  0
 13 14  1  0  0  0  0
 13 15  1  0  0  0  0
 13 27  1  6  0  0  0
 14 16  1  0  0  0  0
 14 36  1  0  0  0  0
 14 37  1  0  0  0  0
 15 17  1  0  0  0  0
 16 18  1  0  0  0  0
 16 19  1  0  0  0  0
 17 19  1  0  0  0  0
 17 38  1  0  0  0  0
 17 39  1  0  0  0  0
 18 20  1  0  0  0  0
 18 40  1  0  0  0  0
 18 41  1  0  0  0  0
 19 21  2  0  0  0  0
 20 22  2  0  0  0  0
 20 23  1  0  0  0  0
 22 24  1  0  0  0  0
 22 42  1  0  0  0  0
 23 25  2  0  0  0  0
 23 43  1  0  0  0  0
 24 26  2  0  0  0  0
 24 44  1  0  0  0  0
 25 26  1  0  0  0  0
 25 45  1  0  0  0  0
 26 46  1  0  0  0  0
M  END
>  <DRUGBANK_ID>
DB02118

>  <SECONDARY_ACCESSION_NUMBERS>
EXPT00996

>  <COMMON_NAME>
CP-271485

>  <CAS_NUMBER>
35580-46-2

>  <SYNONYMS>
(6S)-4-Benzyl-6-(1-methyl-2,2-dioxido-1,3-dihydro-2,1-benzothiazol-5-yl)-3-morpholinone

$$$$
