
 OpenBabel10282417072D

 33 33  0  0  1  0  0  0  0  0999 V2000
    2.1434    1.2375    0.0000 C   0  0  0  0  0  0  0  0  0  0  0  0
    1.4289    0.8250    0.0000 C   0  0  2  0  0  0  0  0  0  0  0  0
    0.0000    0.0000    0.0000 C   0  0  2  0  0  0  0  0  0  0  0  0
    0.7145    1.2375    0.0000 C   0  0  2  0  0  0  0  0  0  0  0  0
    0.0000    0.8250    0.0000 C   0  0  2  0  0  0  0  0  0  0  0  0
    0.7145   -0.4125    0.0000 C   0  0  1  0  0  0  0  0  0  0  0  0
   -0.7145   -0.4125    0.0000 N   0  0  0  0  0  0  0  0  0  0  0  0
    0.7145    2.0625    0.0000 O   0  0  0  0  0  0  0  0  0  0  0  0
   -0.7145    1.2375    0.0000 O   0  0  0  0  0  0  0  0  0  0  0  0
    0.7145   -1.2375    0.0000 O   0  0  0  0  0  0  0  0  0  0  0  0
   -0.7145   -2.0625    0.0000 O   0  0  0  0  0  0  0  0  0  0  0  0
    0.1105   -1.2375    0.0000 O   0  0  0  0  0  0  0  0  0  0  0  0
   -1.5395   -1.2375    0.0000 O   0  0  0  0  0  0  0  0  0  0  0  0
    4.2868    1.6500    0.0000 O   0  0  0  0  0  0  0  0  0  0  0  0
    3.9849    0.5230    0.0000 O   0  0  0  0  0  0  0  0  0  0  0  0
    3.1599    1.9520    0.0000 O   0  0  0  0  0  0  0  0  0  0  0  0
    2.8579    0.8250    0.0000 O   0  0  0  0  0  0  0  0  0  0  0  0
    1.4289   -0.0000    0.0000 O   0  0  0  0  0  0  0  0  0  0  0  0
   -0.7145   -1.2375    0.0000 S   0  0  0  0  0  0  0  0  0  0  0  0
    3.5724    1.2375    0.0000 S   0  0  0  0  0  0  0  0  0  0  0  0
    1.1468    1.6002    0.0000 H   0  0  0  0  0  0  0  0  0  0  0  0
   -0.8125    0.1433    0.0000 H   0  0  0  0  0  0  0  0  0  0  0  0
    1.2448    1.8695    0.0000 H   0  0  0  0  0  0  0  0  0  0  0  0
   -0.8125    0.6817    0.0000 H   0  0  0  0  0  0  0  0  0  0  0  0
   -0.0000   -0.8250    0.0000 H   0  0  0  0  0  0  0  0  0  0  0  0
    2.1434    2.3075    0.0000 H   0  0  0  0  0  0  0  0  0  0  0  0
    3.0700    1.7725    0.0000 H   0  0  0  0  0  0  0  0  0  0  0  0
   -1.5978    0.0975    0.0000 H   0  0  0  0  0  0  0  0  0  0  0  0
    1.5545    2.5475    0.0000 H   0  0  0  0  0  0  0  0  0  0  0  0
   -0.7145    2.2075    0.0000 H   0  0  0  0  0  0  0  0  0  0  0  0
   -0.1255   -1.7225    0.0000 H   0  0  0  0  0  0  0  0  0  0  0  0
   -1.5545   -2.5475    0.0000 H   0  0  0  0  0  0  0  0  0  0  0  0
    5.1269    1.1650    0.0000 H   0  0  0  0  0  0  0  0  0  0  0  0
  1 26  1  0  0  0  0
  1 27  1  0  0  0  0
  2  1  1  0  0  0  0
  2 21  1  6  0  0  0
  3  7  1  0  0  0  0
  3 22  1  1  0  0  0
  4  2  1  0  0  0  0
  4  8  1  0  0  0  0
  4 23  1  1  0  0  0
  5  3  1  0  0  0  0
  5  4  1  0  0  0  0
  5  9  1  0  0  0  0
  5 24  1  6  0  0  0
  6  3  1  0  0  0  0
  6 10  1  0  0  0  0
  6 25  1  1  0  0  0
  7 28  1  0  0  0  0
  8 29  1  0  0  0  0
  9 30  1  0  0  0  0
 10 31  1  0  0  0  0
 11 32  1  0  0  0  0
 14 33  1  0  0  0  0
 17  1  1  0  0  0  0
 18  2  1  0  0  0  0
 18  6  1  0  0  0  0
 19  7  1  0  0  0  0
 19 11  1  0  0  0  0
 19 12  2  0  0  0  0
 19 13  2  0  0  0  0
 20 14  1  0  0  0  0
 20 15  2  0  0  0  0
 20 16  2  0  0  0  0
 20 17  1  0  0  0  0
M  END
>  <DRUGBANK_ID>
DB03959

>  <SECONDARY_ACCESSION_NUMBERS>
EXPT02898

>  <COMMON_NAME>
N,O6-Disulfo-Glucosamine

$$$$
