27A
 OpenBabel10282417072D

 38 39  0  0  0  0  0  0  0  0999 V2000
   -1.5579    2.3008    0.0000 C   0  0  0  0  0  0  0  0  0  0  0  0
   -0.8434    1.8883    0.0000 C   0  0  0  0  0  0  0  0  0  0  0  0
   -0.8434    1.0633    0.0000 C   0  0  0  0  0  0  0  0  0  0  0  0
   -1.5579    0.6508    0.0000 C   0  0  0  0  0  0  0  0  0  0  0  0
   -2.2724    1.0633    0.0000 C   0  0  0  0  0  0  0  0  0  0  0  0
   -2.2724    1.8883    0.0000 C   0  0  0  0  0  0  0  0  0  0  0  0
    0.5855    1.0633    0.0000 C   0  0  0  0  0  0  0  0  0  0  0  0
    1.3000    0.6508    0.0000 C   0  0  0  0  0  0  0  0  0  0  0  0
    0.5855   -0.5867    0.0000 C   0  0  0  0  0  0  0  0  0  0  0  0
   -0.1289   -0.1742    0.0000 C   0  0  0  0  0  0  0  0  0  0  0  0
    2.0145   -0.5867    0.0000 C   0  0  0  0  0  0  0  0  0  0  0  0
   -1.5579   -0.1742    0.0000 C   0  0  0  0  0  0  0  0  0  0  0  0
   -1.5579   -1.8242    0.0000 C   0  0  0  0  0  0  0  0  0  0  0  0
   -1.5579   -2.6492    0.0000 N   0  0  0  0  0  0  0  0  0  0  0  0
   -2.2724   -1.4117    0.0000 S   0  0  0  0  0  0  0  0  0  0  0  0
   -0.8434   -1.4117    0.0000 N   0  0  0  0  0  0  0  0  0  0  0  0
   -0.8434   -0.5867    0.0000 N   0  0  0  0  0  0  0  0  0  0  0  0
   -0.1289    0.6508    0.0000 N   0  0  0  0  0  0  0  0  0  0  0  0
    1.3000   -0.1742    0.0000 N   0  0  0  0  0  0  0  0  0  0  0  0
   -1.5579    3.3328    0.0000 H   0  0  0  0  0  0  0  0  0  0  0  0
    0.0503    2.4043    0.0000 H   0  0  0  0  0  0  0  0  0  0  0  0
   -3.1661    0.5473    0.0000 H   0  0  0  0  0  0  0  0  0  0  0  0
   -3.1661    2.4043    0.0000 H   0  0  0  0  0  0  0  0  0  0  0  0
    0.5855    2.1333    0.0000 H   0  0  0  0  0  0  0  0  0  0  0  0
   -0.3412    1.5983    0.0000 H   0  0  0  0  0  0  0  0  0  0  0  0
    2.2266    1.1858    0.0000 H   0  0  0  0  0  0  0  0  0  0  0  0
    2.2266    0.1158    0.0000 H   0  0  0  0  0  0  0  0  0  0  0  0
    0.5855   -1.6567    0.0000 H   0  0  0  0  0  0  0  0  0  0  0  0
    1.5121   -1.1217    0.0000 H   0  0  0  0  0  0  0  0  0  0  0  0
   -1.0556   -0.7092    0.0000 H   0  0  0  0  0  0  0  0  0  0  0  0
   -1.0555    0.3608    0.0000 H   0  0  0  0  0  0  0  0  0  0  0  0
    2.0145   -1.6567    0.0000 H   0  0  0  0  0  0  0  0  0  0  0  0
    2.9411   -0.0517    0.0000 H   0  0  0  0  0  0  0  0  0  0  0  0
    2.9412   -1.1217    0.0000 H   0  0  0  0  0  0  0  0  0  0  0  0
   -2.4845   -0.7092    0.0000 H   0  0  0  0  0  0  0  0  0  0  0  0
   -1.5579   -1.2442    0.0000 H   0  0  0  0  0  0  0  0  0  0  0  0
   -2.4105   -3.1415    0.0000 H   0  0  0  0  0  0  0  0  0  0  0  0
   -0.7053   -3.1414    0.0000 H   0  0  0  0  0  0  0  0  0  0  0  0
  1  2  2  0  0  0  0
  1  6  1  0  0  0  0
  1 20  1  0  0  0  0
  2  3  1  0  0  0  0
  2 21  1  0  0  0  0
  3  4  2  0  0  0  0
  3 18  1  0  0  0  0
  4  5  1  0  0  0  0
  4 12  1  0  0  0  0
  5  6  2  0  0  0  0
  5 22  1  0  0  0  0
  6 23  1  0  0  0  0
  7  8  1  0  0  0  0
  7 18  1  0  0  0  0
  7 24  1  0  0  0  0
  7 25  1  0  0  0  0
  8 19  1  0  0  0  0
  8 26  1  0  0  0  0
  8 27  1  0  0  0  0
  9 10  1  0  0  0  0
  9 19  1  0  0  0  0
  9 28  1  0  0  0  0
  9 29  1  0  0  0  0
 10 18  1  0  0  0  0
 10 30  1  0  0  0  0
 10 31  1  0  0  0  0
 11 19  1  0  0  0  0
 11 32  1  0  0  0  0
 11 33  1  0  0  0  0
 11 34  1  0  0  0  0
 12 17  1  0  0  0  0
 12 35  1  0  0  0  0
 12 36  1  0  0  0  0
 13 14  1  0  0  0  0
 13 15  2  0  0  0  0
 13 16  1  0  0  0  0
 14 37  1  0  0  0  0
 14 38  1  0  0  0  0
 16 17  2  0  0  0  0
M  END
>  <DRUGBANK_ID>
DB06941

>  <COMMON_NAME>
(Z)-2-[2-(4-methylpiperazin-1-yl)benzyl]diazenecarbothioamide

$$$$
