
 OpenBabel10282417072D

 40 36  0  0  0  0  0  0  0  0999 V2000
    0.2492   -0.8250    0.0000 C   0  0  0  0  0  0  0  0  0  0  0  0
   -0.4651   -1.2375    0.0000 C   0  0  0  0  0  0  0  0  0  0  0  0
   -0.4651   -2.0625    0.0000 O   0  0  0  0  0  0  0  0  0  0  0  0
   -1.1796   -0.8250    0.0000 O   0  0  0  0  0  0  0  0  0  0  0  0
    0.2492    0.0000    0.0000 C   0  0  0  0  0  0  0  0  0  0  0  0
    0.2492    0.8250    0.0000 C   0  0  0  0  0  0  0  0  0  0  0  0
   -0.4651    1.2375    0.0000 C   0  0  0  0  0  0  0  0  0  0  0  0
   -0.4651    2.0625    0.0000 O   0  0  0  0  0  0  0  0  0  0  0  0
   -1.1796    0.8250    0.0000 O   0  0  0  0  0  0  0  0  0  0  0  0
    1.0742    0.0000    0.0000 C   0  0  0  0  0  0  0  0  0  0  0  0
    1.4867    0.7144    0.0000 O   0  0  0  0  0  0  0  0  0  0  0  0
    1.4867   -0.7144    0.0000 O   0  0  0  0  0  0  0  0  0  0  0  0
   -0.5757    0.0000    0.0000 O   0  0  0  0  0  0  0  0  0  0  0  0
    5.9796    0.4760    0.0000 C   0  0  0  0  0  0  0  0  0  0  0  0
    5.5671    1.1905    0.0000 C   0  0  0  0  0  0  0  0  0  0  0  0
    5.9796    1.9049    0.0000 O   0  0  0  0  0  0  0  0  0  0  0  0
    4.7421    1.1905    0.0000 O   0  5  0  0  0  0  0  0  0  0  0  0
    6.8046    0.4760    0.0000 N   0  0  0  0  0  0  0  0  0  0  0  0
    3.2698    0.1190    0.0000 Zn  0  2  0  0  0  0  0  0  0  0  0  0
    5.9350   -1.9123    0.0000 C   0  0  0  0  0  0  0  0  0  0  0  0
    5.5225   -1.1978    0.0000 C   0  0  0  0  0  0  0  0  0  0  0  0
    5.9350   -0.4834    0.0000 O   0  0  0  0  0  0  0  0  0  0  0  0
    4.6975   -1.1978    0.0000 O   0  5  0  0  0  0  0  0  0  0  0  0
    6.7600   -1.9123    0.0000 N   0  0  0  0  0  0  0  0  0  0  0  0
    1.1759   -1.3600    0.0000 H   0  0  0  0  0  0  0  0  0  0  0  0
    1.1758   -0.2900    0.0000 H   0  0  0  0  0  0  0  0  0  0  0  0
   -1.1796    0.1120    0.0000 H   0  0  0  0  0  0  0  0  0  0  0  0
    1.1759    1.3600    0.0000 H   0  0  0  0  0  0  0  0  0  0  0  0
    0.2493    1.8950    0.0000 H   0  0  0  0  0  0  0  0  0  0  0  0
   -1.9911    1.2935    0.0000 H   0  0  0  0  0  0  0  0  0  0  0  0
    1.0182   -1.5259    0.0000 H   0  0  0  0  0  0  0  0  0  0  0  0
   -1.0607    0.8400    0.0000 H   0  0  0  0  0  0  0  0  0  0  0  0
    5.4446   -0.4506    0.0000 H   0  0  0  0  0  0  0  0  0  0  0  0
    6.5146   -0.4506    0.0000 H   0  0  0  0  0  0  0  0  0  0  0  0
    7.3146   -0.4073    0.0000 H   0  0  0  0  0  0  0  0  0  0  0  0
    7.3146    1.3593    0.0000 H   0  0  0  0  0  0  0  0  0  0  0  0
    5.4000   -2.8389    0.0000 H   0  0  0  0  0  0  0  0  0  0  0  0
    6.4700   -2.8389    0.0000 H   0  0  0  0  0  0  0  0  0  0  0  0
    7.2700   -2.7956    0.0000 H   0  0  0  0  0  0  0  0  0  0  0  0
    7.2700   -1.0290    0.0000 H   0  0  0  0  0  0  0  0  0  0  0  0
  1  2  1  0  0  0  0
  1  5  1  0  0  0  0
  1 25  1  0  0  0  0
  1 26  1  0  0  0  0
  2  3  2  0  0  0  0
  2  4  1  0  0  0  0
  4 27  1  0  0  0  0
  5  6  1  0  0  0  0
  5 10  1  0  0  0  0
  5 13  1  0  0  0  0
  6  7  1  0  0  0  0
  6 28  1  0  0  0  0
  6 29  1  0  0  0  0
  7  8  2  0  0  0  0
  7  9  1  0  0  0  0
  9 30  1  0  0  0  0
 10 11  2  0  0  0  0
 10 12  1  0  0  0  0
 12 31  1  0  0  0  0
 13 32  1  0  0  0  0
 14 15  1  0  0  0  0
 14 18  1  0  0  0  0
 14 33  1  0  0  0  0
 14 34  1  0  0  0  0
 15 16  2  0  0  0  0
 15 17  1  0  0  0  0
 18 35  1  0  0  0  0
 18 36  1  0  0  0  0
 20 21  1  0  0  0  0
 20 24  1  0  0  0  0
 20 37  1  0  0  0  0
 20 38  1  0  0  0  0
 21 22  2  0  0  0  0
 21 23  1  0  0  0  0
 24 39  1  0  0  0  0
 24 40  1  0  0  0  0
M  CHG  3  17  -1  19   2  23  -1
M  END
>  <DRUGBANK_ID>
DB15556

>  <COMMON_NAME>
Zinc glycinate citrate

>  <CAS_NUMBER>
955009-96-8

>  <UNII>
H3472PJ7YA

$$$$
