
 OpenBabel10282417072D

 88 90  0  0  1  0  0  0  0  0999 V2000
    8.6645   -3.4276    0.0000 C   0  0  0  0  0  0  0  0  0  0  0  0
    9.2881   -2.8875    0.0000 C   0  0  0  0  0  0  0  0  0  0  0  0
    9.1322   -2.0774    0.0000 C   0  0  0  0  0  0  0  0  0  0  0  0
   10.0677   -3.1575    0.0000 C   0  0  0  0  0  0  0  0  0  0  0  0
   10.2236   -3.9677    0.0000 N   0  0  0  0  0  0  0  0  0  0  0  0
   11.0031   -4.2377    0.0000 C   0  0  0  0  0  0  0  0  0  0  0  0
   11.6268   -3.6976    0.0000 C   0  0  2  0  0  0  0  0  0  0  0  0
   12.4063   -3.9677    0.0000 C   0  0  2  0  0  0  0  0  0  0  0  0
   12.5622   -4.7778    0.0000 C   0  0  0  0  0  0  0  0  0  0  0  0
   11.9386   -5.3179    0.0000 C   0  0  0  0  0  0  0  0  0  0  0  0
   12.0945   -6.1280    0.0000 C   0  0  0  0  0  0  0  0  0  0  0  0
   11.4709   -6.6681    0.0000 C   0  0  0  0  0  0  0  0  0  0  0  0
   10.6913   -6.3981    0.0000 C   0  0  0  0  0  0  0  0  0  0  0  0
   10.5354   -5.5879    0.0000 C   0  0  0  0  0  0  0  0  0  0  0  0
   11.1590   -5.0479    0.0000 C   0  0  0  0  0  0  0  0  0  0  0  0
   13.0300   -3.4276    0.0000 N   0  0  0  0  0  0  0  0  0  0  0  0
   13.8095   -3.6976    0.0000 C   0  0  0  0  0  0  0  0  0  0  0  0
   13.9654   -4.5078    0.0000 O   0  0  0  0  0  0  0  0  0  0  0  0
   14.4332   -3.1575    0.0000 C   0  0  2  0  0  0  0  0  0  0  0  0
   14.2773   -2.3474    0.0000 C   0  0  0  0  0  0  0  0  0  0  0  0
   13.4977   -2.0774    0.0000 C   0  0  0  0  0  0  0  0  0  0  0  0
   12.8741   -2.6175    0.0000 O   0  0  0  0  0  0  0  0  0  0  0  0
   13.3418   -1.2672    0.0000 N   0  0  0  0  0  0  0  0  0  0  0  0
   15.2127   -3.4276    0.0000 N   0  0  0  0  0  0  0  0  0  0  0  0
   15.8364   -2.8875    0.0000 C   0  0  0  0  0  0  0  0  0  0  0  0
   15.6804   -2.0774    0.0000 O   0  0  0  0  0  0  0  0  0  0  0  0
   16.6159   -3.1575    0.0000 C   0  0  0  0  0  0  0  0  0  0  0  0
   17.2396   -2.6175    0.0000 C   0  0  0  0  0  0  0  0  0  0  0  0
   18.0191   -2.8875    0.0000 C   0  0  0  0  0  0  0  0  0  0  0  0
   18.1750   -3.6976    0.0000 C   0  0  0  0  0  0  0  0  0  0  0  0
   18.9546   -3.9677    0.0000 C   0  0  0  0  0  0  0  0  0  0  0  0
   19.1105   -4.7778    0.0000 C   0  0  0  0  0  0  0  0  0  0  0  0
   18.4868   -5.3179    0.0000 C   0  0  0  0  0  0  0  0  0  0  0  0
   17.7073   -5.0479    0.0000 C   0  0  0  0  0  0  0  0  0  0  0  0
   17.5514   -4.2377    0.0000 C   0  0  0  0  0  0  0  0  0  0  0  0
   16.7718   -3.9677    0.0000 N   0  0  0  0  0  0  0  0  0  0  0  0
   11.4709   -2.8875    0.0000 O   0  0  0  0  0  0  0  0  0  0  0  0
    9.5999   -4.5078    0.0000 C   0  0  0  0  0  0  0  0  0  0  0  0
    8.8204   -4.2377    0.0000 O   0  0  0  0  0  0  0  0  0  0  0  0
    9.7559   -5.3179    0.0000 N   0  0  0  0  0  0  0  0  0  0  0  0
    9.1322   -5.8580    0.0000 C   0  0  0  0  0  0  0  0  0  0  0  0
    8.5086   -6.3981    0.0000 C   0  0  0  0  0  0  0  0  0  0  0  0
    8.5921   -5.2343    0.0000 C   0  0  0  0  0  0  0  0  0  0  0  0
    9.6723   -6.4816    0.0000 C   0  0  0  0  0  0  0  0  0  0  0  0
    7.6534   -3.0774    0.0000 H   0  0  0  0  0  0  0  0  0  0  0  0
    8.8668   -4.4783    0.0000 H   0  0  0  0  0  0  0  0  0  0  0  0
    7.8557   -4.1281    0.0000 H   0  0  0  0  0  0  0  0  0  0  0  0
   10.0969   -2.1870    0.0000 H   0  0  0  0  0  0  0  0  0  0  0  0
    9.9410   -1.3769    0.0000 H   0  0  0  0  0  0  0  0  0  0  0  0
    8.1211   -1.7272    0.0000 H   0  0  0  0  0  0  0  0  0  0  0  0
    8.9300   -1.0267    0.0000 H   0  0  0  0  0  0  0  0  0  0  0  0
   10.8765   -2.4570    0.0000 H   0  0  0  0  0  0  0  0  0  0  0  0
   11.0788   -3.5077    0.0000 H   0  0  0  0  0  0  0  0  0  0  0  0
   11.2053   -5.2884    0.0000 H   0  0  0  0  0  0  0  0  0  0  0  0
   12.0141   -4.5880    0.0000 H   0  0  0  0  0  0  0  0  0  0  0  0
   10.6158   -3.3473    0.0000 H   0  0  0  0  0  0  0  0  0  0  0  0
   12.2042   -2.9170    0.0000 H   0  0  0  0  0  0  0  0  0  0  0  0
   13.5733   -5.1280    0.0000 H   0  0  0  0  0  0  0  0  0  0  0  0
   12.7644   -5.8285    0.0000 H   0  0  0  0  0  0  0  0  0  0  0  0
   13.0697   -6.4658    0.0000 H   0  0  0  0  0  0  0  0  0  0  0  0
   11.6660   -7.6815    0.0000 H   0  0  0  0  0  0  0  0  0  0  0  0
    9.9112   -7.0737    0.0000 H   0  0  0  0  0  0  0  0  0  0  0  0
    9.5603   -5.2501    0.0000 H   0  0  0  0  0  0  0  0  0  0  0  0
   10.9640   -4.0345    0.0000 H   0  0  0  0  0  0  0  0  0  0  0  0
   12.8439   -2.4608    0.0000 H   0  0  0  0  0  0  0  0  0  0  0  0
   14.6353   -4.2082    0.0000 H   0  0  0  0  0  0  0  0  0  0  0  0
   15.0861   -1.6469    0.0000 H   0  0  0  0  0  0  0  0  0  0  0  0
   14.0750   -1.2967    0.0000 H   0  0  0  0  0  0  0  0  0  0  0  0
   14.0860   -0.6227    0.0000 H   0  0  0  0  0  0  0  0  0  0  0  0
   12.4115   -0.9449    0.0000 H   0  0  0  0  0  0  0  0  0  0  0  0
   15.3987   -4.3944    0.0000 H   0  0  0  0  0  0  0  0  0  0  0  0
   17.0446   -1.6041    0.0000 H   0  0  0  0  0  0  0  0  0  0  0  0
   18.7992   -2.2119    0.0000 H   0  0  0  0  0  0  0  0  0  0  0  0
   19.7347   -3.2921    0.0000 H   0  0  0  0  0  0  0  0  0  0  0  0
   20.0856   -5.1156    0.0000 H   0  0  0  0  0  0  0  0  0  0  0  0
   18.6818   -6.3313    0.0000 H   0  0  0  0  0  0  0  0  0  0  0  0
   16.9272   -5.7235    0.0000 H   0  0  0  0  0  0  0  0  0  0  0  0
   12.2042   -2.2525    0.0000 H   0  0  0  0  0  0  0  0  0  0  0  0
   10.6862   -5.6401    0.0000 H   0  0  0  0  0  0  0  0  0  0  0  0
    7.4975   -6.0479    0.0000 H   0  0  0  0  0  0  0  0  0  0  0  0
    8.7109   -7.4488    0.0000 H   0  0  0  0  0  0  0  0  0  0  0  0
    7.6998   -7.0986    0.0000 H   0  0  0  0  0  0  0  0  0  0  0  0
    8.9424   -4.2233    0.0000 H   0  0  0  0  0  0  0  0  0  0  0  0
    7.5414   -5.4365    0.0000 H   0  0  0  0  0  0  0  0  0  0  0  0
    7.8917   -4.4254    0.0000 H   0  0  0  0  0  0  0  0  0  0  0  0
    9.3221   -7.4927    0.0000 H   0  0  0  0  0  0  0  0  0  0  0  0
   10.7230   -6.2793    0.0000 H   0  0  0  0  0  0  0  0  0  0  0  0
   10.3728   -7.2904    0.0000 H   0  0  0  0  0  0  0  0  0  0  0  0
  1  2  1  0  0  0  0
  1 45  1  0  0  0  0
  1 46  1  0  0  0  0
  1 47  1  0  0  0  0
  2  3  1  0  0  0  0
  2  4  1  0  0  0  0
  2 48  1  0  0  0  0
  3 49  1  0  0  0  0
  3 50  1  0  0  0  0
  3 51  1  0  0  0  0
  4  5  1  0  0  0  0
  4 52  1  0  0  0  0
  4 53  1  0  0  0  0
  5  6  1  0  0  0  0
  5 38  1  0  0  0  0
  6  7  1  0  0  0  0
  6 54  1  0  0  0  0
  6 55  1  0  0  0  0
  7  8  1  0  0  0  0
  7 37  1  0  0  0  0
  7 56  1  6  0  0  0
  8  9  1  0  0  0  0
  8 16  1  0  0  0  0
  8 57  1  6  0  0  0
  9 10  1  0  0  0  0
  9 58  1  0  0  0  0
  9 59  1  0  0  0  0
 10 11  2  0  0  0  0
 10 15  1  0  0  0  0
 11 12  1  0  0  0  0
 11 60  1  0  0  0  0
 12 13  2  0  0  0  0
 12 61  1  0  0  0  0
 13 14  1  0  0  0  0
 13 62  1  0  0  0  0
 14 15  2  0  0  0  0
 14 63  1  0  0  0  0
 15 64  1  0  0  0  0
 16 17  1  0  0  0  0
 16 65  1  0  0  0  0
 17 18  2  0  0  0  0
 17 19  1  0  0  0  0
 19 20  1  0  0  0  0
 19 24  1  0  0  0  0
 19 66  1  1  0  0  0
 20 21  1  0  0  0  0
 20 67  1  0  0  0  0
 20 68  1  0  0  0  0
 21 22  2  0  0  0  0
 21 23  1  0  0  0  0
 23 69  1  0  0  0  0
 23 70  1  0  0  0  0
 24 25  1  0  0  0  0
 24 71  1  0  0  0  0
 25 26  2  0  0  0  0
 25 27  1  0  0  0  0
 27 28  2  0  0  0  0
 27 36  1  0  0  0  0
 28 29  1  0  0  0  0
 28 72  1  0  0  0  0
 29 30  2  0  0  0  0
 29 73  1  0  0  0  0
 30 31  1  0  0  0  0
 30 35  1  0  0  0  0
 31 32  2  0  0  0  0
 31 74  1  0  0  0  0
 32 33  1  0  0  0  0
 32 75  1  0  0  0  0
 33 34  2  0  0  0  0
 33 76  1  0  0  0  0
 34 35  1  0  0  0  0
 34 77  1  0  0  0  0
 35 36  2  0  0  0  0
 37 78  1  0  0  0  0
 38 39  2  0  0  0  0
 38 40  1  0  0  0  0
 40 41  1  0  0  0  0
 40 79  1  0  0  0  0
 41 42  1  0  0  0  0
 41 43  1  0  0  0  0
 41 44  1  0  0  0  0
 42 80  1  0  0  0  0
 42 81  1  0  0  0  0
 42 82  1  0  0  0  0
 43 83  1  0  0  0  0
 43 84  1  0  0  0  0
 43 85  1  0  0  0  0
 44 86  1  0  0  0  0
 44 87  1  0  0  0  0
 44 88  1  0  0  0  0
M  END
>  <DRUGBANK_ID>
DB12178

>  <COMMON_NAME>
Telinavir

>  <CAS_NUMBER>
143224-34-4

>  <UNII>
IZF55EH3CG

>  <SYNONYMS>
Telinavir

$$$$
