
 OpenBabel10282417072D

 42 43  0  0  0  0  0  0  0  0999 V2000
    4.2868    0.0000    0.0000 C   0  0  0  0  0  0  0  0  0  0  0  0
    5.0013    0.4125    0.0000 C   0  0  0  0  0  0  0  0  0  0  0  0
    5.7158    0.0000    0.0000 N   0  0  0  0  0  0  0  0  0  0  0  0
    5.7158   -0.8250    0.0000 C   0  0  0  0  0  0  0  0  0  0  0  0
    5.0013   -1.2375    0.0000 C   0  0  0  0  0  0  0  0  0  0  0  0
    6.4302    0.4125    0.0000 C   0  0  0  0  0  0  0  0  0  0  0  0
    7.1447    0.0000    0.0000 C   0  0  0  0  0  0  0  0  0  0  0  0
    7.8592    0.4125    0.0000 C   0  0  0  0  0  0  0  0  0  0  0  0
    8.5737    0.0000    0.0000 N   0  0  0  0  0  0  0  0  0  0  0  0
    9.2881    0.4125    0.0000 C   0  0  0  0  0  0  0  0  0  0  0  0
    9.2881    1.2375    0.0000 C   0  0  0  0  0  0  0  0  0  0  0  0
   10.0026    1.6500    0.0000 C   0  0  0  0  0  0  0  0  0  0  0  0
   10.7171    1.2375    0.0000 N   0  0  0  0  0  0  0  0  0  0  0  0
   10.7171    0.4125    0.0000 C   0  0  0  0  0  0  0  0  0  0  0  0
   11.4315    0.0000    0.0000 C   0  0  0  0  0  0  0  0  0  0  0  0
   11.4315   -0.8250    0.0000 C   0  0  0  0  0  0  0  0  0  0  0  0
   12.1460   -1.2375    0.0000 Cl  0  0  0  0  0  0  0  0  0  0  0  0
   10.7171   -1.2375    0.0000 C   0  0  0  0  0  0  0  0  0  0  0  0
   10.0026   -0.8250    0.0000 C   0  0  0  0  0  0  0  0  0  0  0  0
   10.0026    0.0000    0.0000 C   0  0  0  0  0  0  0  0  0  0  0  0
    3.3602    0.5350    0.0000 H   0  0  0  0  0  0  0  0  0  0  0  0
    4.2868   -1.0700    0.0000 H   0  0  0  0  0  0  0  0  0  0  0  0
    3.3601   -0.5350    0.0000 H   0  0  0  0  0  0  0  0  0  0  0  0
    5.0013    1.4825    0.0000 H   0  0  0  0  0  0  0  0  0  0  0  0
    5.9279    0.9475    0.0000 H   0  0  0  0  0  0  0  0  0  0  0  0
    6.6424   -1.3600    0.0000 H   0  0  0  0  0  0  0  0  0  0  0  0
    5.7158   -1.8950    0.0000 H   0  0  0  0  0  0  0  0  0  0  0  0
    4.0747   -0.7025    0.0000 H   0  0  0  0  0  0  0  0  0  0  0  0
    5.0013   -2.3075    0.0000 H   0  0  0  0  0  0  0  0  0  0  0  0
    4.0746   -1.7725    0.0000 H   0  0  0  0  0  0  0  0  0  0  0  0
    6.4302    1.4825    0.0000 H   0  0  0  0  0  0  0  0  0  0  0  0
    7.3568    0.9475    0.0000 H   0  0  0  0  0  0  0  0  0  0  0  0
    7.1447   -1.0700    0.0000 H   0  0  0  0  0  0  0  0  0  0  0  0
    8.0713   -0.5350    0.0000 H   0  0  0  0  0  0  0  0  0  0  0  0
    7.8592    1.4825    0.0000 H   0  0  0  0  0  0  0  0  0  0  0  0
    8.7858    0.9475    0.0000 H   0  0  0  0  0  0  0  0  0  0  0  0
    8.5737   -0.9845    0.0000 H   0  0  0  0  0  0  0  0  0  0  0  0
    8.3944    1.7535    0.0000 H   0  0  0  0  0  0  0  0  0  0  0  0
   10.0026    2.6820    0.0000 H   0  0  0  0  0  0  0  0  0  0  0  0
   12.3252    0.5160    0.0000 H   0  0  0  0  0  0  0  0  0  0  0  0
   10.7171   -2.2695    0.0000 H   0  0  0  0  0  0  0  0  0  0  0  0
    9.1089   -1.3410    0.0000 H   0  0  0  0  0  0  0  0  0  0  0  0
  1  2  1  0  0  0  0
  1 21  1  0  0  0  0
  1 22  1  0  0  0  0
  1 23  1  0  0  0  0
  2  3  1  0  0  0  0
  2 24  1  0  0  0  0
  2 25  1  0  0  0  0
  3  4  1  0  0  0  0
  3  6  1  0  0  0  0
  4  5  1  0  0  0  0
  4 26  1  0  0  0  0
  4 27  1  0  0  0  0
  5 28  1  0  0  0  0
  5 29  1  0  0  0  0
  5 30  1  0  0  0  0
  6  7  1  0  0  0  0
  6 31  1  0  0  0  0
  6 32  1  0  0  0  0
  7  8  1  0  0  0  0
  7 33  1  0  0  0  0
  7 34  1  0  0  0  0
  8  9  1  0  0  0  0
  8 35  1  0  0  0  0
  8 36  1  0  0  0  0
  9 10  1  0  0  0  0
  9 37  1  0  0  0  0
 10 11  2  0  0  0  0
 10 20  1  0  0  0  0
 11 12  1  0  0  0  0
 11 38  1  0  0  0  0
 12 13  2  0  0  0  0
 12 39  1  0  0  0  0
 13 14  1  0  0  0  0
 14 15  2  0  0  0  0
 14 20  1  0  0  0  0
 15 16  1  0  0  0  0
 15 40  1  0  0  0  0
 16 17  1  0  0  0  0
 16 18  2  0  0  0  0
 18 19  1  0  0  0  0
 18 41  1  0  0  0  0
 19 20  2  0  0  0  0
 19 42  1  0  0  0  0
M  END
>  <DRUGBANK_ID>
DB17778

>  <COMMON_NAME>
AQ-13 free base

>  <CAS_NUMBER>
32571-49-6

>  <UNII>
4K7VT5621X

>  <SYNONYMS>
1,3-propanediamine, n'-(7-chloro-4-quinolinyl)-n,n-diethyl-; AQ-13 free base; N'-(7-chloroquinolin-4-yl)-n,n-diethyl-propane-1,3-diamine

$$$$
