
 OpenBabel10282417072D

 76 81  0  0  0  0  0  0  0  0999 V2000
   -5.0971   -2.7085    0.0000 C   0  0  0  0  0  0  0  0  0  0  0  0
   -5.0109   -3.5289    0.0000 C   0  0  0  0  0  0  0  0  0  0  0  0
   -4.2964   -3.9414    0.0000 C   0  0  0  0  0  0  0  0  0  0  0  0
   -4.4679   -4.7484    0.0000 N   0  0  0  0  0  0  0  0  0  0  0  0
   -5.2884   -4.8346    0.0000 C   0  0  0  0  0  0  0  0  0  0  0  0
   -5.6240   -4.0810    0.0000 N   0  0  0  0  0  0  0  0  0  0  0  0
   -3.9159   -5.3615    0.0000 C   0  0  0  0  0  0  0  0  0  0  0  0
   -3.1089   -5.1900    0.0000 C   0  0  0  0  0  0  0  0  0  0  0  0
   -2.5569   -5.8031    0.0000 C   0  0  0  0  0  0  0  0  0  0  0  0
   -1.7499   -5.6315    0.0000 N   0  0  0  0  0  0  0  0  0  0  0  0
   -1.4950   -4.8469    0.0000 C   0  0  0  0  0  0  0  0  0  0  0  0
   -2.0470   -4.2338    0.0000 O   0  0  0  0  0  0  0  0  0  0  0  0
   -0.6880   -4.6754    0.0000 C   0  0  0  0  0  0  0  0  0  0  0  0
   -0.4331   -3.8908    0.0000 C   0  0  0  0  0  0  0  0  0  0  0  0
    0.3739   -3.7192    0.0000 C   0  0  0  0  0  0  0  0  0  0  0  0
    0.6288   -2.9346    0.0000 C   0  0  0  0  0  0  0  0  0  0  0  0
    0.8838   -2.1500    0.0000 C   0  0  0  0  0  0  0  0  0  0  0  0
    1.1387   -1.3654    0.0000 C   0  0  0  0  0  0  0  0  0  0  0  0
    0.6538   -0.6979    0.0000 C   0  0  0  0  0  0  0  0  0  0  0  0
    1.1387   -0.0305    0.0000 N   0  0  0  0  0  0  0  0  0  0  0  0
    1.9233   -0.2854    0.0000 C   0  0  0  0  0  0  0  0  0  0  0  0
    2.6378    0.1271    0.0000 C   0  0  0  0  0  0  0  0  0  0  0  0
    2.6378    0.9521    0.0000 N   0  0  0  0  0  0  0  0  0  0  0  0
    1.9233    1.3646    0.0000 C   0  0  0  0  0  0  0  0  0  0  0  0
    1.1697    1.0290    0.0000 C   0  0  0  0  0  0  0  0  0  0  0  0
    0.6176    1.6421    0.0000 N   0  0  0  0  0  0  0  0  0  0  0  0
    1.0301    2.3566    0.0000 N   0  0  0  0  0  0  0  0  0  0  0  0
    0.6946    3.1102    0.0000 C   0  0  0  0  0  0  0  0  0  0  0  0
    1.8371    2.1850    0.0000 C   0  0  0  0  0  0  0  0  0  0  0  0
    3.3523   -0.2854    0.0000 C   0  0  0  0  0  0  0  0  0  0  0  0
    3.3523   -1.1104    0.0000 C   0  0  0  0  0  0  0  0  0  0  0  0
    2.6378   -1.5229    0.0000 C   0  0  0  0  0  0  0  0  0  0  0  0
    1.9233   -1.1104    0.0000 N   0  0  0  0  0  0  0  0  0  0  0  0
    0.9259   -4.3323    0.0000 C   0  0  0  0  0  0  0  0  0  0  0  0
    1.7329   -4.1608    0.0000 C   0  0  0  0  0  0  0  0  0  0  0  0
    0.6710   -5.1170    0.0000 C   0  0  0  0  0  0  0  0  0  0  0  0
   -0.1360   -5.2885    0.0000 C   0  0  0  0  0  0  0  0  0  0  0  0
   -0.3909   -6.0731    0.0000 F   0  0  0  0  0  0  0  0  0  0  0  0
   -2.8118   -6.5877    0.0000 C   0  0  0  0  0  0  0  0  0  0  0  0
   -3.6188   -6.7592    0.0000 C   0  0  0  0  0  0  0  0  0  0  0  0
   -4.1708   -6.1461    0.0000 C   0  0  0  0  0  0  0  0  0  0  0  0
   -3.8737   -7.5438    0.0000 C   0  0  0  0  0  0  0  0  0  0  0  0
   -4.6584   -7.2889    0.0000 C   0  0  0  0  0  0  0  0  0  0  0  0
   -3.0891   -7.7988    0.0000 C   0  0  0  0  0  0  0  0  0  0  0  0
   -4.1287   -8.3285    0.0000 C   0  0  0  0  0  0  0  0  0  0  0  0
   -4.3836   -9.1131    0.0000 N   0  0  0  0  0  0  0  0  0  0  0  0
   -4.2314   -2.0796    0.0000 H   0  0  0  0  0  0  0  0  0  0  0  0
   -6.0746   -2.2733    0.0000 H   0  0  0  0  0  0  0  0  0  0  0  0
   -5.2089   -1.6444    0.0000 H   0  0  0  0  0  0  0  0  0  0  0  0
   -3.3536   -3.5216    0.0000 H   0  0  0  0  0  0  0  0  0  0  0  0
   -5.8044   -5.7283    0.0000 H   0  0  0  0  0  0  0  0  0  0  0  0
   -2.7900   -4.2085    0.0000 H   0  0  0  0  0  0  0  0  0  0  0  0
   -1.0911   -6.3631    0.0000 H   0  0  0  0  0  0  0  0  0  0  0  0
   -1.1237   -3.1239    0.0000 H   0  0  0  0  0  0  0  0  0  0  0  0
   -0.3782   -0.6979    0.0000 H   0  0  0  0  0  0  0  0  0  0  0  0
    3.4904    1.4444    0.0000 H   0  0  0  0  0  0  0  0  0  0  0  0
    0.9552    0.0195    0.0000 H   0  0  0  0  0  0  0  0  0  0  0  0
    1.3236    3.9758    0.0000 H   0  0  0  0  0  0  0  0  0  0  0  0
   -0.3695    3.2221    0.0000 H   0  0  0  0  0  0  0  0  0  0  0  0
    0.2594    4.0877    0.0000 H   0  0  0  0  0  0  0  0  0  0  0  0
    2.6041    2.8755    0.0000 H   0  0  0  0  0  0  0  0  0  0  0  0
    4.2460    0.2306    0.0000 H   0  0  0  0  0  0  0  0  0  0  0  0
    4.2460   -1.6264    0.0000 H   0  0  0  0  0  0  0  0  0  0  0  0
    2.6378   -2.5549    0.0000 H   0  0  0  0  0  0  0  0  0  0  0  0
    2.4488   -4.9560    0.0000 H   0  0  0  0  0  0  0  0  0  0  0  0
    2.0636   -3.1432    0.0000 H   0  0  0  0  0  0  0  0  0  0  0  0
    2.7795   -3.9384    0.0000 H   0  0  0  0  0  0  0  0  0  0  0  0
    1.3616   -5.8839    0.0000 H   0  0  0  0  0  0  0  0  0  0  0  0
   -2.1213   -7.3546    0.0000 H   0  0  0  0  0  0  0  0  0  0  0  0
   -5.1802   -6.3607    0.0000 H   0  0  0  0  0  0  0  0  0  0  0  0
   -4.8809   -6.2423    0.0000 H   0  0  0  0  0  0  0  0  0  0  0  0
   -5.4535   -8.0049    0.0000 H   0  0  0  0  0  0  0  0  0  0  0  0
   -5.6761   -6.9583    0.0000 H   0  0  0  0  0  0  0  0  0  0  0  0
   -2.8667   -8.8454    0.0000 H   0  0  0  0  0  0  0  0  0  0  0  0
   -2.2939   -7.0829    0.0000 H   0  0  0  0  0  0  0  0  0  0  0  0
   -2.0715   -8.1295    0.0000 H   0  0  0  0  0  0  0  0  0  0  0  0
  1  2  1  0  0  0  0
  1 47  1  0  0  0  0
  1 48  1  0  0  0  0
  1 49  1  0  0  0  0
  2  3  2  0  0  0  0
  2  6  1  0  0  0  0
  3  4  1  0  0  0  0
  3 50  1  0  0  0  0
  4  5  1  0  0  0  0
  4  7  1  0  0  0  0
  5  6  2  0  0  0  0
  5 51  1  0  0  0  0
  7  8  2  0  0  0  0
  7 41  1  0  0  0  0
  8  9  1  0  0  0  0
  8 52  1  0  0  0  0
  9 10  1  0  0  0  0
  9 39  2  0  0  0  0
 10 11  1  0  0  0  0
 10 53  1  0  0  0  0
 11 12  2  0  0  0  0
 11 13  1  0  0  0  0
 13 14  2  0  0  0  0
 13 37  1  0  0  0  0
 14 15  1  0  0  0  0
 14 54  1  0  0  0  0
 15 16  1  0  0  0  0
 15 34  2  0  0  0  0
 16 17  3  0  0  0  0
 17 18  1  0  0  0  0
 18 19  2  0  0  0  0
 18 33  1  0  0  0  0
 19 20  1  0  0  0  0
 19 55  1  0  0  0  0
 20 21  2  0  0  0  0
 21 22  1  0  0  0  0
 21 33  1  0  0  0  0
 22 23  1  0  0  0  0
 22 30  2  0  0  0  0
 23 24  1  0  0  0  0
 23 56  1  0  0  0  0
 24 25  1  0  0  0  0
 24 29  2  0  0  0  0
 25 26  2  0  0  0  0
 25 57  1  0  0  0  0
 26 27  1  0  0  0  0
 27 28  1  0  0  0  0
 27 29  1  0  0  0  0
 28 58  1  0  0  0  0
 28 59  1  0  0  0  0
 28 60  1  0  0  0  0
 29 61  1  0  0  0  0
 30 31  1  0  0  0  0
 30 62  1  0  0  0  0
 31 32  2  0  0  0  0
 31 63  1  0  0  0  0
 32 33  1  0  0  0  0
 32 64  1  0  0  0  0
 34 35  1  0  0  0  0
 34 36  1  0  0  0  0
 35 65  1  0  0  0  0
 35 66  1  0  0  0  0
 35 67  1  0  0  0  0
 36 37  2  0  0  0  0
 36 68  1  0  0  0  0
 37 38  1  0  0  0  0
 39 40  1  0  0  0  0
 39 69  1  0  0  0  0
 40 41  2  0  0  0  0
 40 42  1  0  0  0  0
 41 70  1  0  0  0  0
 42 43  1  0  0  0  0
 42 44  1  0  0  0  0
 42 45  1  0  0  0  0
 43 71  1  0  0  0  0
 43 72  1  0  0  0  0
 43 73  1  0  0  0  0
 44 74  1  0  0  0  0
 44 75  1  0  0  0  0
 44 76  1  0  0  0  0
 45 46  3  0  0  0  0
M  END
>  <DRUGBANK_ID>
DB18297

>  <COMMON_NAME>
KF-1601

>  <CAS_NUMBER>
2699634-21-2

>  <UNII>
A3F7DA3SGX

>  <SYNONYMS>
Benzamide, N-[3-(1-cyano-1-methylethyl)-5-(4-methyl-1H-imidazol-1-yl)phenyl]-2-fluoro-4-methyl-5-[2-[8-[(1-methyl-1H-pyrazol-4-yl)amino]imidazo[1,2-a]pyridin-3-yl]ethynyl]-; N-(3-(2-cyanopropan-2-yl)-5-(4-methyl-1H-imidazol-1-yl)phenyl)-2-fluoro-4-methyl-5-((8-((1-methyl-1H-pyrazol-4-yl)amino)imidazo[1,2-a]pyridin-3-yl)ethynyl)benzamide

$$$$
