471
 OpenBabel10282417072D

 77 81  0  0  1  0  0  0  0  0999 V2000
   14.2938   -1.4637    0.0000 Cl  0  0  0  0  0  0  0  0  0  0  0  0
    5.6655   -1.4438    0.0000 S   0  0  0  0  0  0  0  0  0  0  0  0
    2.0930   -1.0313    0.0000 O   0  0  0  0  0  0  0  0  0  0  0  0
    2.8075   -2.2688    0.0000 O   0  0  0  0  0  0  0  0  0  0  0  0
    3.5220    0.6188    0.0000 O   0  0  0  0  0  0  0  0  0  0  0  0
   11.3814   -1.4438    0.0000 N   0  0  0  0  0  0  0  0  0  0  0  0
    4.2365   -1.4438    0.0000 C   0  0  0  0  0  0  0  0  0  0  0  0
    3.8240   -2.1582    0.0000 C   0  0  0  0  0  0  0  0  0  0  0  0
    4.6490   -2.1582    0.0000 C   0  0  0  0  0  0  0  0  0  0  0  0
    4.9509   -1.0313    0.0000 C   0  0  0  0  0  0  0  0  0  0  0  0
    3.5220   -1.0313    0.0000 C   0  0  0  0  0  0  0  0  0  0  0  0
    2.8075   -1.4438    0.0000 C   0  0  0  0  0  0  0  0  0  0  0  0
    6.3799   -1.0313    0.0000 C   0  0  2  0  0  0  0  0  0  0  0  0
    6.3799   -0.2063    0.0000 C   0  0  0  0  0  0  0  0  0  0  0  0
    7.0944   -1.4438    0.0000 C   0  0  0  0  0  0  0  0  0  0  0  0
    5.6655    0.2063    0.0000 C   0  0  0  0  0  0  0  0  0  0  0  0
    7.8089   -1.0313    0.0000 C   0  0  0  0  0  0  0  0  0  0  0  0
    7.0944   -2.2688    0.0000 C   0  0  0  0  0  0  0  0  0  0  0  0
    5.6655    1.0313    0.0000 C   0  0  0  0  0  0  0  0  0  0  0  0
    4.9509    1.4438    0.0000 C   0  0  0  0  0  0  0  0  0  0  0  0
    8.5234   -1.4438    0.0000 C   0  0  0  0  0  0  0  0  0  0  0  0
    7.8089   -2.6813    0.0000 C   0  0  0  0  0  0  0  0  0  0  0  0
    4.2365    1.0313    0.0000 C   0  0  0  0  0  0  0  0  0  0  0  0
    6.3799    1.4438    0.0000 C   0  0  0  0  0  0  0  0  0  0  0  0
    8.5234   -2.2688    0.0000 C   0  0  0  0  0  0  0  0  0  0  0  0
    4.9509    2.2688    0.0000 C   0  0  0  0  0  0  0  0  0  0  0  0
    6.3799    2.2688    0.0000 C   0  0  0  0  0  0  0  0  0  0  0  0
    9.2379   -1.0313    0.0000 C   0  0  0  0  0  0  0  0  0  0  0  0
    3.8240    1.7457    0.0000 C   0  0  0  0  0  0  0  0  0  0  0  0
    4.6490    0.3168    0.0000 C   0  0  0  0  0  0  0  0  0  0  0  0
    5.6655    2.6813    0.0000 C   0  0  0  0  0  0  0  0  0  0  0  0
    9.9524   -1.4438    0.0000 C   0  0  0  0  0  0  0  0  0  0  0  0
   10.6668   -1.0313    0.0000 C   0  0  0  0  0  0  0  0  0  0  0  0
   10.6668   -0.2063    0.0000 C   0  0  0  0  0  0  0  0  0  0  0  0
   12.0958   -1.0313    0.0000 C   0  0  0  0  0  0  0  0  0  0  0  0
   11.3814    0.2063    0.0000 C   0  0  0  0  0  0  0  0  0  0  0  0
   12.0958   -0.2063    0.0000 C   0  0  0  0  0  0  0  0  0  0  0  0
   12.8333   -1.4724    0.0000 C   0  0  0  0  0  0  0  0  0  0  0  0
   12.8333    0.2349    0.0000 C   0  0  0  0  0  0  0  0  0  0  0  0
   13.5809   -1.0484    0.0000 C   0  0  0  0  0  0  0  0  0  0  0  0
   13.5809   -0.1891    0.0000 C   0  0  0  0  0  0  0  0  0  0  0  0
    2.0930   -0.0943    0.0000 H   0  0  0  0  0  0  0  0  0  0  0  0
    2.6820    1.1038    0.0000 H   0  0  0  0  0  0  0  0  0  0  0  0
    2.8973   -2.6932    0.0000 H   0  0  0  0  0  0  0  0  0  0  0  0
    4.1009   -3.1917    0.0000 H   0  0  0  0  0  0  0  0  0  0  0  0
    5.5757   -2.6932    0.0000 H   0  0  0  0  0  0  0  0  0  0  0  0
    4.3721   -3.1917    0.0000 H   0  0  0  0  0  0  0  0  0  0  0  0
    4.9508    0.0387    0.0000 H   0  0  0  0  0  0  0  0  0  0  0  0
    4.0242   -0.4963    0.0000 H   0  0  0  0  0  0  0  0  0  0  0  0
    3.5220    0.0387    0.0000 H   0  0  0  0  0  0  0  0  0  0  0  0
    2.5954   -0.4963    0.0000 H   0  0  0  0  0  0  0  0  0  0  0  0
    5.4532   -0.4963    0.0000 H   0  0  0  0  0  0  0  0  0  0  0  0
    7.3066    0.3286    0.0000 H   0  0  0  0  0  0  0  0  0  0  0  0
    6.3800    0.8637    0.0000 H   0  0  0  0  0  0  0  0  0  0  0  0
    4.7388   -0.3286    0.0000 H   0  0  0  0  0  0  0  0  0  0  0  0
    4.7389    0.7413    0.0000 H   0  0  0  0  0  0  0  0  0  0  0  0
    7.8089    0.0007    0.0000 H   0  0  0  0  0  0  0  0  0  0  0  0
    6.2007   -2.7848    0.0000 H   0  0  0  0  0  0  0  0  0  0  0  0
    7.8089   -3.7133    0.0000 H   0  0  0  0  0  0  0  0  0  0  0  0
    7.2736    0.9278    0.0000 H   0  0  0  0  0  0  0  0  0  0  0  0
    9.4171   -2.7848    0.0000 H   0  0  0  0  0  0  0  0  0  0  0  0
    4.0572    2.7848    0.0000 H   0  0  0  0  0  0  0  0  0  0  0  0
    7.2736    2.7848    0.0000 H   0  0  0  0  0  0  0  0  0  0  0  0
    9.2379    0.0007    0.0000 H   0  0  0  0  0  0  0  0  0  0  0  0
    4.3590    2.6724    0.0000 H   0  0  0  0  0  0  0  0  0  0  0  0
    2.7540    1.7457    0.0000 H   0  0  0  0  0  0  0  0  0  0  0  0
    3.2890    2.6723    0.0000 H   0  0  0  0  0  0  0  0  0  0  0  0
    4.1140   -0.6098    0.0000 H   0  0  0  0  0  0  0  0  0  0  0  0
    5.7190    0.3168    0.0000 H   0  0  0  0  0  0  0  0  0  0  0  0
    5.1840   -0.6099    0.0000 H   0  0  0  0  0  0  0  0  0  0  0  0
    5.6656    3.7133    0.0000 H   0  0  0  0  0  0  0  0  0  0  0  0
    9.9524   -2.4758    0.0000 H   0  0  0  0  0  0  0  0  0  0  0  0
    9.7731    0.3097    0.0000 H   0  0  0  0  0  0  0  0  0  0  0  0
   11.3815    1.2383    0.0000 H   0  0  0  0  0  0  0  0  0  0  0  0
   12.8214   -2.5043    0.0000 H   0  0  0  0  0  0  0  0  0  0  0  0
   12.8213    1.2668    0.0000 H   0  0  0  0  0  0  0  0  0  0  0  0
   14.4726    0.3303    0.0000 H   0  0  0  0  0  0  0  0  0  0  0  0
  1 40  1  0  0  0  0
  2 10  1  0  0  0  0
  2 13  1  0  0  0  0
  3 12  1  0  0  0  0
  3 42  1  0  0  0  0
  4 12  2  0  0  0  0
  5 23  1  0  0  0  0
  5 43  1  0  0  0  0
  6 33  2  0  0  0  0
  6 35  1  0  0  0  0
  7  8  1  0  0  0  0
  7  9  1  0  0  0  0
  7 10  1  0  0  0  0
  7 11  1  0  0  0  0
  8  9  1  0  0  0  0
  8 44  1  0  0  0  0
  8 45  1  0  0  0  0
  9 46  1  0  0  0  0
  9 47  1  0  0  0  0
 10 48  1  0  0  0  0
 10 49  1  0  0  0  0
 11 12  1  0  0  0  0
 11 50  1  0  0  0  0
 11 51  1  0  0  0  0
 13 14  1  0  0  0  0
 13 15  1  0  0  0  0
 13 52  1  1  0  0  0
 14 16  1  0  0  0  0
 14 53  1  0  0  0  0
 14 54  1  0  0  0  0
 15 17  1  0  0  0  0
 15 18  2  0  0  0  0
 16 19  1  0  0  0  0
 16 55  1  0  0  0  0
 16 56  1  0  0  0  0
 17 21  2  0  0  0  0
 17 57  1  0  0  0  0
 18 22  1  0  0  0  0
 18 58  1  0  0  0  0
 19 20  1  0  0  0  0
 19 24  2  0  0  0  0
 20 23  1  0  0  0  0
 20 26  2  0  0  0  0
 21 25  1  0  0  0  0
 21 28  1  0  0  0  0
 22 25  2  0  0  0  0
 22 59  1  0  0  0  0
 23 29  1  0  0  0  0
 23 30  1  0  0  0  0
 24 27  1  0  0  0  0
 24 60  1  0  0  0  0
 25 61  1  0  0  0  0
 26 31  1  0  0  0  0
 26 62  1  0  0  0  0
 27 31  2  0  0  0  0
 27 63  1  0  0  0  0
 28 32  2  0  0  0  0
 28 64  1  0  0  0  0
 29 65  1  0  0  0  0
 29 66  1  0  0  0  0
 29 67  1  0  0  0  0
 30 68  1  0  0  0  0
 30 69  1  0  0  0  0
 30 70  1  0  0  0  0
 31 71  1  0  0  0  0
 32 33  1  0  0  0  0
 32 72  1  0  0  0  0
 33 34  1  0  0  0  0
 34 36  2  0  0  0  0
 34 73  1  0  0  0  0
 35 37  2  0  0  0  0
 35 38  1  0  0  0  0
 36 37  1  0  0  0  0
 36 74  1  0  0  0  0
 37 39  1  0  0  0  0
 38 40  2  0  0  0  0
 38 75  1  0  0  0  0
 39 41  2  0  0  0  0
 39 76  1  0  0  0  0
 40 41  1  0  0  0  0
 41 77  1  0  0  0  0
M  END
>  <DRUGBANK_ID>
DB00471

>  <SECONDARY_ACCESSION_NUMBERS>
APRD00434

>  <COMMON_NAME>
Montelukast

>  <CAS_NUMBER>
158966-92-8

>  <UNII>
MHM278SD3E

>  <SYNONYMS>
(R-(E))-1-(((1-(3-(2-(7-Chloro-2-quinolinyl)ethenyl)phenyl)-3-(2-(1-hydroxy-1-methylethyl)phenyl)propyl)thio)methyl)cyclopropaneacetic acid; 1-[[[(1 R)-1-[3-[(1E)-2-(7-chloro-2-quinolinyl)ethenyl] phenyl]-3-[2-(1-hydroxy-1-methylethyl)phenyl]propyl]sulfanyl]methyl]cyclopropaneacetic acid; Montelukast; Mont√©lukast; Montelukastum

$$$$
