44U
 OpenBabel10282417072D

 57 59  0  0  0  0  0  0  0  0999 V2000
   -4.0001    0.9058    0.0000 C   0  0  0  0  0  0  0  0  0  0  0  0
   -3.2856    1.3183    0.0000 C   0  0  0  0  0  0  0  0  0  0  0  0
   -2.5712    0.9058    0.0000 C   0  0  0  0  0  0  0  0  0  0  0  0
   -0.4277    1.3183    0.0000 C   0  0  1  0  0  0  0  0  0  0  0  0
   -0.3415    2.1388    0.0000 C   0  0  0  0  0  0  0  0  0  0  0  0
    0.4655    2.3104    0.0000 C   0  0  0  0  0  0  0  0  0  0  0  0
    0.8780    1.5959    0.0000 C   0  0  0  0  0  0  0  0  0  0  0  0
    0.4975    0.1758    0.0000 C   0  0  0  0  0  0  0  0  0  0  0  0
    1.2821   -0.0791    0.0000 C   0  0  1  0  0  0  0  0  0  0  0  0
    0.0559   -1.1832    0.0000 C   0  0  0  0  0  0  0  0  0  0  0  0
   -0.5572   -1.7352    0.0000 C   0  0  0  0  0  0  0  0  0  0  0  0
   -0.3857   -2.5422    0.0000 C   0  0  0  0  0  0  0  0  0  0  0  0
    0.3989   -2.7971    0.0000 C   0  0  0  0  0  0  0  0  0  0  0  0
    2.2382   -1.1410    0.0000 C   0  0  0  0  0  0  0  0  0  0  0  0
    3.8075   -1.6509    0.0000 C   0  0  0  0  0  0  0  0  0  0  0  0
   -1.8567    1.3183    0.0000 N   0  0  0  0  0  0  0  0  0  0  0  0
   -1.1422    0.9058    0.0000 C   0  0  0  0  0  0  0  0  0  0  0  0
   -1.1422    0.0808    0.0000 O   0  0  0  0  0  0  0  0  0  0  0  0
    0.3259    0.9828    0.0000 N   0  0  0  0  0  0  0  0  0  0  0  0
   -0.1156   -0.3762    0.0000 O   0  0  0  0  0  0  0  0  0  0  0  0
    1.4536   -0.8861    0.0000 C   0  0  0  0  0  0  0  0  0  0  0  0
    0.8405   -1.4381    0.0000 C   0  0  0  0  0  0  0  0  0  0  0  0
    1.0120   -2.2451    0.0000 C   0  0  0  0  0  0  0  0  0  0  0  0
    2.4098   -1.9480    0.0000 C   0  0  0  0  0  0  0  0  0  0  0  0
    3.1944   -2.2029    0.0000 C   0  0  0  0  0  0  0  0  0  0  0  0
    3.6359   -0.8439    0.0000 C   0  0  0  0  0  0  0  0  0  0  0  0
    2.8513   -0.5890    0.0000 C   0  0  0  0  0  0  0  0  0  0  0  0
    1.8952    0.4729    0.0000 N   0  0  0  0  0  0  0  0  0  0  0  0
   -0.3972    0.7352    0.0000 H   0  0  0  0  0  0  0  0  0  0  0  0
    0.8481   -0.4698    0.0000 H   0  0  0  0  0  0  0  0  0  0  0  0
   -4.9267    1.4408    0.0000 H   0  0  0  0  0  0  0  0  0  0  0  0
   -4.0001   -0.1642    0.0000 H   0  0  0  0  0  0  0  0  0  0  0  0
   -4.9268    0.3708    0.0000 H   0  0  0  0  0  0  0  0  0  0  0  0
   -3.2856    2.3883    0.0000 H   0  0  0  0  0  0  0  0  0  0  0  0
   -2.3589    1.8533    0.0000 H   0  0  0  0  0  0  0  0  0  0  0  0
   -2.5712   -0.1642    0.0000 H   0  0  0  0  0  0  0  0  0  0  0  0
   -1.6446    0.3708    0.0000 H   0  0  0  0  0  0  0  0  0  0  0  0
   -1.1367    2.8547    0.0000 H   0  0  0  0  0  0  0  0  0  0  0  0
   -0.0646    3.1724    0.0000 H   0  0  0  0  0  0  0  0  0  0  0  0
    0.9007    3.2879    0.0000 H   0  0  0  0  0  0  0  0  0  0  0  0
    1.5340    2.3664    0.0000 H   0  0  0  0  0  0  0  0  0  0  0  0
    1.9421    1.4840    0.0000 H   0  0  0  0  0  0  0  0  0  0  0  0
    1.2614    0.5970    0.0000 H   0  0  0  0  0  0  0  0  0  0  0  0
   -0.1587   -0.1738    0.0000 H   0  0  0  0  0  0  0  0  0  0  0  0
   -1.5387   -1.4163    0.0000 H   0  0  0  0  0  0  0  0  0  0  0  0
   -1.1526   -3.2327    0.0000 H   0  0  0  0  0  0  0  0  0  0  0  0
    0.6135   -3.8065    0.0000 H   0  0  0  0  0  0  0  0  0  0  0  0
    4.7890   -1.9698    0.0000 H   0  0  0  0  0  0  0  0  0  0  0  0
   -1.8567    2.3028    0.0000 H   0  0  0  0  0  0  0  0  0  0  0  0
    1.6761   -1.9327    0.0000 H   0  0  0  0  0  0  0  0  0  0  0  0
    1.9935   -2.5640    0.0000 H   0  0  0  0  0  0  0  0  0  0  0  0
    1.6429   -2.6386    0.0000 H   0  0  0  0  0  0  0  0  0  0  0  0
    3.4090   -3.2123    0.0000 H   0  0  0  0  0  0  0  0  0  0  0  0
    4.4028   -0.1533    0.0000 H   0  0  0  0  0  0  0  0  0  0  0  0
    2.6367    0.4204    0.0000 H   0  0  0  0  0  0  0  0  0  0  0  0
    2.8653    0.1577    0.0000 H   0  0  0  0  0  0  0  0  0  0  0  0
    1.6832    1.4706    0.0000 H   0  0  0  0  0  0  0  0  0  0  0  0
  1  2  1  0  0  0  0
  1 31  1  0  0  0  0
  1 32  1  0  0  0  0
  1 33  1  0  0  0  0
  2  3  1  0  0  0  0
  2 34  1  0  0  0  0
  2 35  1  0  0  0  0
  3 16  1  0  0  0  0
  3 36  1  0  0  0  0
  3 37  1  0  0  0  0
  4 19  1  0  0  0  0
  4 29  1  1  0  0  0
  4 17  1  0  0  0  0
  5  4  1  0  0  0  0
  5  6  1  0  0  0  0
  5 38  1  0  0  0  0
  5 39  1  0  0  0  0
  6  7  1  0  0  0  0
  6 40  1  0  0  0  0
  6 41  1  0  0  0  0
  7 19  1  0  0  0  0
  7 42  1  0  0  0  0
  7 43  1  0  0  0  0
  8 20  2  0  0  0  0
  8  9  1  0  0  0  0
  9 21  1  0  0  0  0
  9 30  1  1  0  0  0
  9 28  1  0  0  0  0
 10 22  2  0  0  0  0
 10 11  1  0  0  0  0
 10 44  1  0  0  0  0
 11 12  2  0  0  0  0
 11 45  1  0  0  0  0
 12 13  1  0  0  0  0
 12 46  1  0  0  0  0
 13 47  1  0  0  0  0
 14 27  1  0  0  0  0
 15 26  1  0  0  0  0
 15 48  1  0  0  0  0
 16 49  1  0  0  0  0
 17 16  1  0  0  0  0
 18 17  2  0  0  0  0
 19  8  1  0  0  0  0
 21 14  1  0  0  0  0
 21 22  1  0  0  0  0
 21 50  1  0  0  0  0
 22 23  1  0  0  0  0
 23 13  2  0  0  0  0
 23 51  1  0  0  0  0
 24 14  2  0  0  0  0
 24 25  1  0  0  0  0
 24 52  1  0  0  0  0
 25 15  2  0  0  0  0
 25 53  1  0  0  0  0
 26 54  1  0  0  0  0
 27 26  2  0  0  0  0
 27 55  1  0  0  0  0
 28 56  1  0  0  0  0
 28 57  1  0  0  0  0
M  END
>  <DRUGBANK_ID>
DB07083

>  <COMMON_NAME>
beta-phenyl-D-phenylalanyl-N-propyl-L-prolinamide

$$$$
