
 OpenBabel10282417072D

 14 15  0  0  0  0  0  0  0  0999 V2000
    1.3492   -0.8250    0.0000 C   0  0  0  0  0  0  0  0  0  0  0  0
   -0.0797   -0.8250    0.0000 C   0  0  0  0  0  0  0  0  0  0  0  0
   -0.0797    0.0000    0.0000 C   0  0  0  0  0  0  0  0  0  0  0  0
   -0.8643   -1.0799    0.0000 N   0  0  0  0  0  0  0  0  0  0  0  0
   -0.8643    0.2549    0.0000 C   0  0  0  0  0  0  0  0  0  0  0  0
   -1.3492   -0.4125    0.0000 N   0  0  0  0  0  0  0  0  0  0  0  0
    0.6347   -1.2375    0.0000 N   0  0  0  0  0  0  0  0  0  0  0  0
    1.3492    0.0000    0.0000 N   0  0  0  0  0  0  0  0  0  0  0  0
    0.6347    0.4125    0.0000 C   0  0  0  0  0  0  0  0  0  0  0  0
    0.6347    1.2375    0.0000 O   0  0  0  0  0  0  0  0  0  0  0  0
    2.2429   -1.3410    0.0000 H   0  0  0  0  0  0  0  0  0  0  0  0
   -1.1685   -2.0162    0.0000 H   0  0  0  0  0  0  0  0  0  0  0  0
   -1.1832    1.2364    0.0000 H   0  0  0  0  0  0  0  0  0  0  0  0
    1.4462    1.7060    0.0000 H   0  0  0  0  0  0  0  0  0  0  0  0
  1  8  1  0  0  0  0
  1 11  1  0  0  0  0
  2  7  1  0  0  0  0
  3  2  2  0  0  0  0
  4  2  1  0  0  0  0
  4 12  1  0  0  0  0
  5  3  1  0  0  0  0
  5  6  2  0  0  0  0
  5 13  1  0  0  0  0
  6  4  1  0  0  0  0
  7  1  2  0  0  0  0
  9  3  1  0  0  0  0
  9  8  2  0  0  0  0
  9 10  1  0  0  0  0
 10 14  1  0  0  0  0
M  END
>  <DRUGBANK_ID>
DB00437

>  <SECONDARY_ACCESSION_NUMBERS>
APRD00435; DB03027

>  <COMMON_NAME>
Allopurinol

>  <CAS_NUMBER>
315-30-0

>  <UNII>
63CZ7GJN5I

>  <SYNONYMS>
1,5-Dihydro-4H-pyrazolo(3,4-d)pyrimidin-4-one; 1,5-Dihydro-4H-pyrazolo(3,4-d)pyrimidine-4-one; 1H-Pyrazolo(3,4-d)pyrimidin-4-ol; 4-HPP; 4-Hydroxy-1H-pyrazolo(3,4-d)pyrimidine; 4-Hydroxy-3,4-pyrazolopyrimidine; 4-Hydroxypyrazolo(3,4-d)pyrimidine; 4-Hydroxypyrazolopyrimidine; 4-Hydroxypyrazolyl(3,4-d)pyrimidine; 4'-Hydroxypyrazolol(3,4-d)pyrimidine; 4H-Pyrazolo(3,4-d)pyrimidin-4-one; Allopurinol; Allopurinolum; Alopurinol

$$$$
