
 OpenBabel10282417072D

 71 73  0  0  0  0  0  0  0  0999 V2000
   -0.7144    2.0624    0.0000 O   0  0  0  0  0  0  0  0  0  0  0  0
    0.7144    2.0624    0.0000 C   0  0  1  0  0  0  0  0  0  0  0  0
    1.4289    2.4749    0.0000 C   0  0  2  0  0  0  0  0  0  0  0  0
    0.7144    1.2375    0.0000 O   0  0  0  0  0  0  0  0  0  0  0  0
    0.0000    2.4749    0.0000 C   0  0  1  0  0  0  0  0  0  0  0  0
    1.4289    3.2999    0.0000 C   0  0  1  0  0  0  0  0  0  0  0  0
    0.0000    3.2999    0.0000 C   0  0  2  0  0  0  0  0  0  0  0  0
    0.7144    3.7124    0.0000 O   0  0  0  0  0  0  0  0  0  0  0  0
    2.1433    3.7124    0.0000 O   0  0  0  0  0  0  0  0  0  0  0  0
   -0.7144    3.7124    0.0000 C   0  0  0  0  0  0  0  0  0  0  0  0
    2.1433    2.0624    0.0000 N   0  0  0  0  0  0  0  0  0  0  0  0
   -1.4289    0.0000    0.0000 C   0  0  2  0  0  0  0  0  0  0  0  0
   -0.7144   -0.4125    0.0000 C   0  0  1  0  0  0  0  0  0  0  0  0
    0.0000    0.8250    0.0000 C   0  0  2  0  0  0  0  0  0  0  0  0
   -0.7144    1.2374    0.0000 O   0  0  0  0  0  0  0  0  0  0  0  0
    0.0000    0.0000    0.0000 C   0  0  2  0  0  0  0  0  0  0  0  0
   -1.4289    0.8250    0.0000 C   0  0  2  0  0  0  0  0  0  0  0  0
    0.7144   -0.4125    0.0000 O   0  0  0  0  0  0  0  0  0  0  0  0
   -0.7144   -1.2374    0.0000 O   0  0  0  0  0  0  0  0  0  0  0  0
   -2.1433   -0.4125    0.0000 O   0  0  0  0  0  0  0  0  0  0  0  0
   -2.1433    1.2374    0.0000 C   0  0  0  0  0  0  0  0  0  0  0  0
    0.0000   -1.6500    0.0000 O   0  0  0  0  0  0  0  0  0  0  0  0
    0.0000   -2.4750    0.0000 C   0  0  2  0  0  0  0  0  0  0  0  0
    0.7144   -1.2375    0.0000 C   0  0  2  0  0  0  0  0  0  0  0  0
    1.4287   -1.6499    0.0000 C   0  0  2  0  0  0  0  0  0  0  0  0
    1.4287   -2.4749    0.0000 C   0  0  1  0  0  0  0  0  0  0  0  0
    0.7144   -2.8875    0.0000 C   0  0  2  0  0  0  0  0  0  0  0  0
    2.1432   -1.2375    0.0000 O   0  0  0  0  0  0  0  0  0  0  0  0
    2.1433   -2.8874    0.0000 O   0  0  0  0  0  0  0  0  0  0  0  0
    0.7144   -3.7124    0.0000 O   0  0  0  0  0  0  0  0  0  0  0  0
   -0.7146   -2.8875    0.0000 C   0  0  0  0  0  0  0  0  0  0  0  0
   -2.8579    0.8249    0.0000 O   0  0  0  0  0  0  0  0  0  0  0  0
   -1.4289    3.2999    0.0000 O   0  0  0  0  0  0  0  0  0  0  0  0
    2.1433    1.2374    0.0000 C   0  0  0  0  0  0  0  0  0  0  0  0
    2.8579    0.8249    0.0000 C   0  0  0  0  0  0  0  0  0  0  0  0
    1.4289    0.8249    0.0000 O   0  0  0  0  0  0  0  0  0  0  0  0
   -1.5545    2.5474    0.0000 H   0  0  0  0  0  0  0  0  0  0  0  0
    1.6410    1.5274    0.0000 H   0  0  0  0  0  0  0  0  0  0  0  0
    1.4289    1.4049    0.0000 H   0  0  0  0  0  0  0  0  0  0  0  0
    0.0000    1.4049    0.0000 H   0  0  0  0  0  0  0  0  0  0  0  0
    2.3556    2.7649    0.0000 H   0  0  0  0  0  0  0  0  0  0  0  0
   -0.9267    2.7649    0.0000 H   0  0  0  0  0  0  0  0  0  0  0  0
    2.9834    3.2274    0.0000 H   0  0  0  0  0  0  0  0  0  0  0  0
   -0.7144    4.7824    0.0000 H   0  0  0  0  0  0  0  0  0  0  0  0
   -1.6410    4.2474    0.0000 H   0  0  0  0  0  0  0  0  0  0  0  0
    2.9959    2.5546    0.0000 H   0  0  0  0  0  0  0  0  0  0  0  0
   -1.4289   -1.0700    0.0000 H   0  0  0  0  0  0  0  0  0  0  0  0
   -1.6410   -0.9475    0.0000 H   0  0  0  0  0  0  0  0  0  0  0  0
   -0.0001    1.8950    0.0000 H   0  0  0  0  0  0  0  0  0  0  0  0
    0.9267    0.5350    0.0000 H   0  0  0  0  0  0  0  0  0  0  0  0
   -2.3555    0.2900    0.0000 H   0  0  0  0  0  0  0  0  0  0  0  0
   -1.5544   -1.7224    0.0000 H   0  0  0  0  0  0  0  0  0  0  0  0
   -2.9834    0.0725    0.0000 H   0  0  0  0  0  0  0  0  0  0  0  0
   -2.1433    2.3074    0.0000 H   0  0  0  0  0  0  0  0  0  0  0  0
   -3.0699    1.7724    0.0000 H   0  0  0  0  0  0  0  0  0  0  0  0
   -0.9266   -1.9400    0.0000 H   0  0  0  0  0  0  0  0  0  0  0  0
   -0.2123   -0.7025    0.0000 H   0  0  0  0  0  0  0  0  0  0  0  0
    1.4288   -0.5799    0.0000 H   0  0  0  0  0  0  0  0  0  0  0  0
    2.3553   -1.9399    0.0000 H   0  0  0  0  0  0  0  0  0  0  0  0
    1.6411   -3.4224    0.0000 H   0  0  0  0  0  0  0  0  0  0  0  0
    2.9832   -1.7226    0.0000 H   0  0  0  0  0  0  0  0  0  0  0  0
    2.1434   -3.8574    0.0000 H   0  0  0  0  0  0  0  0  0  0  0  0
   -0.1256   -4.1974    0.0000 H   0  0  0  0  0  0  0  0  0  0  0  0
   -1.6412   -2.3524    0.0000 H   0  0  0  0  0  0  0  0  0  0  0  0
   -0.7147   -3.9575    0.0000 H   0  0  0  0  0  0  0  0  0  0  0  0
   -1.6413   -3.4224    0.0000 H   0  0  0  0  0  0  0  0  0  0  0  0
   -3.6979    1.3100    0.0000 H   0  0  0  0  0  0  0  0  0  0  0  0
   -2.2689    3.7849    0.0000 H   0  0  0  0  0  0  0  0  0  0  0  0
    2.8580   -0.2451    0.0000 H   0  0  0  0  0  0  0  0  0  0  0  0
    3.7845    1.3600    0.0000 H   0  0  0  0  0  0  0  0  0  0  0  0
    3.7846    0.2900    0.0000 H   0  0  0  0  0  0  0  0  0  0  0  0
  1 37  1  0  0  0  0
  2  3  1  0  0  0  0
  2  4  1  0  0  0  0
  2  5  1  0  0  0  0
  2 38  1  6  0  0  0
  3  6  1  0  0  0  0
  3 11  1  0  0  0  0
  3 39  1  1  0  0  0
  5  7  1  0  0  0  0
  5  1  1  0  0  0  0
  5 40  1  1  0  0  0
  6  8  1  0  0  0  0
  6  9  1  0  0  0  0
  6 41  1  6  0  0  0
  7 10  1  0  0  0  0
  7  8  1  0  0  0  0
  7 42  1  6  0  0  0
  9 43  1  0  0  0  0
 10 33  1  0  0  0  0
 10 44  1  0  0  0  0
 10 45  1  0  0  0  0
 11 34  1  0  0  0  0
 11 46  1  0  0  0  0
 12 20  1  0  0  0  0
 12 47  1  6  0  0  0
 13 12  1  0  0  0  0
 13 19  1  0  0  0  0
 13 48  1  6  0  0  0
 14 15  1  0  0  0  0
 14 16  1  0  0  0  0
 14  4  1  0  0  0  0
 14 49  1  6  0  0  0
 15 17  1  0  0  0  0
 16 13  1  0  0  0  0
 16 18  1  0  0  0  0
 16 50  1  1  0  0  0
 17 12  1  0  0  0  0
 17 21  1  0  0  0  0
 17 51  1  6  0  0  0
 19 52  1  0  0  0  0
 20 53  1  0  0  0  0
 21 32  1  0  0  0  0
 21 54  1  0  0  0  0
 21 55  1  0  0  0  0
 23 22  1  0  0  0  0
 23 31  1  0  0  0  0
 23 56  1  1  0  0  0
 24 22  1  0  0  0  0
 24 25  1  0  0  0  0
 24 18  1  0  0  0  0
 24 57  1  6  0  0  0
 25 28  1  0  0  0  0
 25 26  1  0  0  0  0
 25 58  1  6  0  0  0
 26 29  1  0  0  0  0
 26 27  1  0  0  0  0
 26 59  1  1  0  0  0
 27 23  1  0  0  0  0
 27 30  1  0  0  0  0
 27 60  1  1  0  0  0
 28 61  1  0  0  0  0
 29 62  1  0  0  0  0
 30 63  1  0  0  0  0
 31 64  1  0  0  0  0
 31 65  1  0  0  0  0
 31 66  1  0  0  0  0
 32 67  1  0  0  0  0
 33 68  1  0  0  0  0
 34 35  1  0  0  0  0
 34 36  2  0  0  0  0
 35 69  1  0  0  0  0
 35 70  1  0  0  0  0
 35 71  1  0  0  0  0
M  END
>  <DRUGBANK_ID>
DB04679

>  <COMMON_NAME>
Human blood group H type 1 trisaccharide

>  <SYNONYMS>
alpha-L-Fucp-(1->2)-beta-D-Galp-(1->3)-beta-D-GlcpNAc; globo-H; H type I; H type I epitope; H type I trisaccharide; α-L-Fuc-(1→2)-β-D-Gal-(1→3)-β-D-GlcNAc; αLFuc(1-2)βDGal(1-3)βDGlcNAc

$$$$
