
 OpenBabel10282417072D

102107  0  0  1  0  0  0  0  0999 V2000
   -2.2669    2.1508    0.0000 O   0  0  0  0  0  0  0  0  0  0  0  0
   -1.5873    2.6107    0.0000 C   0  0  0  0  0  0  0  0  0  0  0  0
   -1.6456    3.4293    0.0000 O   0  0  0  0  0  0  0  0  0  0  0  0
   -0.8432    2.2493    0.0000 C   0  0  0  0  0  0  0  0  0  0  0  0
   -0.4377    2.9641    0.0000 C   0  0  0  0  0  0  0  0  0  0  0  0
    0.2454    2.4691    0.0000 C   0  0  0  0  0  0  0  0  0  0  0  0
    0.9630    2.8939    0.0000 C   0  0  0  0  0  0  0  0  0  0  0  0
    1.8462    2.5740    0.0000 C   0  0  0  0  0  0  0  0  0  0  0  0
    2.6661    2.6107    0.0000 C   0  0  0  0  0  0  0  0  0  0  0  0
    2.8542    3.3785    0.0000 C   0  0  0  0  0  0  0  0  0  0  0  0
    3.5357    3.7687    0.0000 C   0  0  0  0  0  0  0  0  0  0  0  0
    4.3178    3.5491    0.0000 C   0  0  2  0  0  0  0  0  0  0  0  0
    5.0713    3.8724    0.0000 O   0  0  0  0  0  0  0  0  0  0  0  0
    5.7049    3.2936    0.0000 Fe  0  0  2  0  0  0  0  0  0  0  0  0
    5.2536    2.5994    0.0000 O   0  0  0  0  0  0  0  0  0  0  0  0
    4.4447    2.7347    0.0000 N   0  0  3  0  0  0  0  0  0  0  0  0
    3.7779    2.2421    0.0000 C   0  0  0  0  0  0  0  0  0  0  0  0
    4.0465    1.4686    0.0000 C   0  0  0  0  0  0  0  0  0  0  0  0
    3.2410    1.4442    0.0000 C   0  0  0  0  0  0  0  0  0  0  0  0
    2.4456    1.6487    0.0000 C   0  0  0  0  0  0  0  0  0  0  0  0
    2.1566    0.8508    0.0000 C   0  0  1  0  0  0  0  0  0  0  0  0
    2.8257    0.2633    0.0000 N   0  0  0  0  0  0  0  0  0  0  0  0
    3.6887   -0.0250    0.0000 C   0  0  0  0  0  0  0  0  0  0  0  0
    3.5235   -0.8479    0.0000 O   0  0  0  0  0  0  0  0  0  0  0  0
    4.5582   -0.1241    0.0000 C   0  0  2  0  0  0  0  0  0  0  0  0
    5.1115   -0.7783    0.0000 C   0  0  0  0  0  0  0  0  0  0  0  0
    5.9073   -0.5398    0.0000 O   0  0  0  0  0  0  0  0  0  0  0  0
    5.9139    0.2961    0.0000 C   0  0  2  0  0  0  0  0  0  0  0  0
    5.1041    0.5095    0.0000 N   0  0  0  0  0  0  0  0  0  0  0  0
    6.3755    1.0052    0.0000 C   0  0  0  0  0  0  0  0  0  0  0  0
    7.0395    0.5230    0.0000 C   0  0  0  0  0  0  0  0  0  0  0  0
    7.7892    0.8568    0.0000 C   0  0  0  0  0  0  0  0  0  0  0  0
    7.8750    1.6729    0.0000 C   0  0  0  0  0  0  0  0  0  0  0  0
    7.2110    2.1553    0.0000 C   0  0  0  0  0  0  0  0  0  0  0  0
    6.4612    1.8214    0.0000 C   0  0  0  0  0  0  0  0  0  0  0  0
    6.2597    2.6836    0.0000 O   0  0  0  0  0  0  0  0  0  0  0  0
    1.5316    1.4661    0.0000 C   0  0  0  0  0  0  0  0  0  0  0  0
    0.8986    0.8851    0.0000 O   0  0  0  0  0  0  0  0  0  0  0  0
    1.3704    2.2827    0.0000 O   0  0  0  0  0  0  0  0  0  0  0  0
    1.5894    3.0879    0.0000 C   0  0  0  0  0  0  0  0  0  0  0  0
    2.0449    3.8013    0.0000 C   0  0  0  0  0  0  0  0  0  0  0  0
    2.6082    4.4019    0.0000 C   0  0  0  0  0  0  0  0  0  0  0  0
    2.1183    5.0906    0.0000 O   0  0  0  0  0  0  0  0  0  0  0  0
    3.2962    4.9331    0.0000 N   0  0  0  0  0  0  0  0  0  0  0  0
    4.0485    5.3656    0.0000 C   0  0  2  0  0  0  0  0  0  0  0  0
    4.1903    6.1783    0.0000 C   0  0  0  0  0  0  0  0  0  0  0  0
    4.8799    6.6603    0.0000 C   0  0  0  0  0  0  0  0  0  0  0  0
    5.6727    6.4129    0.0000 C   0  0  0  0  0  0  0  0  0  0  0  0
    5.9667    5.6567    0.0000 C   0  0  0  0  0  0  0  0  0  0  0  0
    5.5497    4.9238    0.0000 N   0  0  0  0  0  0  0  0  0  0  0  0
    5.9358    4.1620    0.0000 O   0  0  0  0  0  0  0  0  0  0  0  0
    4.7120    4.8535    0.0000 C   0  0  0  0  0  0  0  0  0  0  0  0
    4.0218    4.4604    0.0000 O   0  0  0  0  0  0  0  0  0  0  0  0
   -3.1097    2.5603    0.0000 H   0  0  0  0  0  0  0  0  0  0  0  0
   -0.5256    1.2275    0.0000 H   0  0  0  0  0  0  0  0  0  0  0  0
    0.2206    2.1347    0.0000 H   0  0  0  0  0  0  0  0  0  0  0  0
   -0.6648    4.0097    0.0000 H   0  0  0  0  0  0  0  0  0  0  0  0
    0.4580    3.5494    0.0000 H   0  0  0  0  0  0  0  0  0  0  0  0
    0.1959    1.4002    0.0000 H   0  0  0  0  0  0  0  0  0  0  0  0
    1.1624    1.9178    0.0000 H   0  0  0  0  0  0  0  0  0  0  0  0
    0.8631    3.9592    0.0000 H   0  0  0  0  0  0  0  0  0  0  0  0
    1.8093    3.5486    0.0000 H   0  0  0  0  0  0  0  0  0  0  0  0
    1.6848    1.5162    0.0000 H   0  0  0  0  0  0  0  0  0  0  0  0
    2.5614    1.7781    0.0000 H   0  0  0  0  0  0  0  0  0  0  0  0
    3.3452    1.7839    0.0000 H   0  0  0  0  0  0  0  0  0  0  0  0
    3.7094    2.8481    0.0000 H   0  0  0  0  0  0  0  0  0  0  0  0
    2.0299    3.9994    0.0000 H   0  0  0  0  0  0  0  0  0  0  0  0
    3.4089    4.7929    0.0000 H   0  0  0  0  0  0  0  0  0  0  0  0
    4.2475    4.6168    0.0000 H   0  0  0  0  0  0  0  0  0  0  0  0
    2.7557    2.5585    0.0000 H   0  0  0  0  0  0  0  0  0  0  0  0
    3.0343    1.4727    0.0000 H   0  0  0  0  0  0  0  0  0  0  0  0
    4.9277    0.8617    0.0000 H   0  0  0  0  0  0  0  0  0  0  0  0
    3.7442    0.4422    0.0000 H   0  0  0  0  0  0  0  0  0  0  0  0
    3.1228    0.3807    0.0000 H   0  0  0  0  0  0  0  0  0  0  0  0
    2.3605    0.8363    0.0000 H   0  0  0  0  0  0  0  0  0  0  0  0
    1.9460    2.5949    0.0000 H   0  0  0  0  0  0  0  0  0  0  0  0
    1.3782    1.5748    0.0000 H   0  0  0  0  0  0  0  0  0  0  0  0
    3.1930    1.1169    0.0000 H   0  0  0  0  0  0  0  0  0  0  0  0
    2.3353   -0.5903    0.0000 H   0  0  0  0  0  0  0  0  0  0  0  0
    4.1682    0.8723    0.0000 H   0  0  0  0  0  0  0  0  0  0  0  0
    4.8068   -1.8040    0.0000 H   0  0  0  0  0  0  0  0  0  0  0  0
    5.8690   -1.5340    0.0000 H   0  0  0  0  0  0  0  0  0  0  0  0
    5.0638   -0.3537    0.0000 H   0  0  0  0  0  0  0  0  0  0  0  0
    4.8017    1.4836    0.0000 H   0  0  0  0  0  0  0  0  0  0  0  0
    6.9317   -0.5034    0.0000 H   0  0  0  0  0  0  0  0  0  0  0  0
    8.6241    0.2502    0.0000 H   0  0  0  0  0  0  0  0  0  0  0  0
    8.8178    2.0926    0.0000 H   0  0  0  0  0  0  0  0  0  0  0  0
    7.3188    3.1817    0.0000 H   0  0  0  0  0  0  0  0  0  0  0  0
    0.6110    3.5212    0.0000 H   0  0  0  0  0  0  0  0  0  0  0  0
    1.2805    4.1124    0.0000 H   0  0  0  0  0  0  0  0  0  0  0  0
    1.2001    4.4580    0.0000 H   0  0  0  0  0  0  0  0  0  0  0  0
    1.9612    4.8680    0.0000 H   0  0  0  0  0  0  0  0  0  0  0  0
    2.7488    5.7514    0.0000 H   0  0  0  0  0  0  0  0  0  0  0  0
    3.1720    5.9793    0.0000 H   0  0  0  0  0  0  0  0  0  0  0  0
    3.2876    6.7528    0.0000 H   0  0  0  0  0  0  0  0  0  0  0  0
    4.1672    7.2480    0.0000 H   0  0  0  0  0  0  0  0  0  0  0  0
    4.7160    7.7177    0.0000 H   0  0  0  0  0  0  0  0  0  0  0  0
    5.6906    7.3586    0.0000 H   0  0  0  0  0  0  0  0  0  0  0  0
    6.4030    7.1949    0.0000 H   0  0  0  0  0  0  0  0  0  0  0  0
    6.7234    6.2106    0.0000 H   0  0  0  0  0  0  0  0  0  0  0  0
    7.0338    5.5784    0.0000 H   0  0  0  0  0  0  0  0  0  0  0  0
    6.4704    4.7127    0.0000 H   0  0  0  0  0  0  0  0  0  0  0  0
  1  2  1  0  0  0  0
  1 54  1  0  0  0  0
  2  3  2  0  0  0  0
  2  4  1  0  0  0  0
  4  5  1  0  0  0  0
  4 55  1  0  0  0  0
  4 56  1  0  0  0  0
  5  6  1  0  0  0  0
  5 57  1  0  0  0  0
  5 58  1  0  0  0  0
  6  7  1  0  0  0  0
  6 59  1  0  0  0  0
  6 60  1  0  0  0  0
  7  8  1  0  0  0  0
  7 61  1  0  0  0  0
  7 62  1  0  0  0  0
  8  9  1  0  0  0  0
  8 63  1  0  0  0  0
  8 64  1  0  0  0  0
  9 10  1  0  0  0  0
  9 65  1  0  0  0  0
  9 66  1  0  0  0  0
 10 11  2  0  0  0  0
 10 67  1  0  0  0  0
 11 68  1  0  0  0  0
 12 11  1  0  0  0  0
 12 13  1  0  0  0  0
 12 16  1  0  0  0  0
 12 69  1  1  0  0  0
 14 13  1  1  0  0  0
 14 15  1  0  0  0  0
 14 36  1  0  0  0  0
 14 51  1  0  0  0  0
 15 16  1  0  0  0  0
 16 17  1  0  0  0  0
 17 18  1  0  0  0  0
 17 70  1  0  0  0  0
 17 71  1  0  0  0  0
 18 19  1  0  0  0  0
 18 72  1  0  0  0  0
 18 73  1  0  0  0  0
 19 20  1  0  0  0  0
 19 74  1  0  0  0  0
 19 75  1  0  0  0  0
 20 21  1  0  0  0  0
 20 76  1  0  0  0  0
 20 77  1  0  0  0  0
 21 22  1  0  0  0  0
 21 37  1  0  0  0  0
 21 78  1  6  0  0  0
 22 23  1  0  0  0  0
 22 79  1  0  0  0  0
 23 24  2  0  0  0  0
 23 25  1  0  0  0  0
 25 26  1  0  0  0  0
 25 29  1  0  0  0  0
 25 80  1  6  0  0  0
 26 27  1  0  0  0  0
 26 81  1  0  0  0  0
 26 82  1  0  0  0  0
 27 28  1  0  0  0  0
 28 29  1  0  0  0  0
 28 30  1  0  0  0  0
 28 83  1  1  0  0  0
 29 84  1  0  0  0  0
 30 31  2  0  0  0  0
 30 35  1  0  0  0  0
 31 32  1  0  0  0  0
 31 85  1  0  0  0  0
 32 33  2  0  0  0  0
 32 86  1  0  0  0  0
 33 34  1  0  0  0  0
 33 87  1  0  0  0  0
 34 35  2  0  0  0  0
 34 88  1  0  0  0  0
 35 36  1  0  0  0  0
 37 38  2  0  0  0  0
 37 39  1  0  0  0  0
 39 40  1  0  0  0  0
 40 41  1  0  0  0  0
 40 89  1  0  0  0  0
 40 90  1  0  0  0  0
 41 42  1  0  0  0  0
 41 91  1  0  0  0  0
 41 92  1  0  0  0  0
 42 43  2  0  0  0  0
 42 44  1  0  0  0  0
 44 93  1  0  0  0  0
 45 44  1  0  0  0  0
 45 46  1  0  0  0  0
 45 52  1  0  0  0  0
 45 94  1  1  0  0  0
 46 47  1  0  0  0  0
 46 95  1  0  0  0  0
 46 96  1  0  0  0  0
 47 48  1  0  0  0  0
 47 97  1  0  0  0  0
 47 98  1  0  0  0  0
 48 49  1  0  0  0  0
 48 99  1  0  0  0  0
 48100  1  0  0  0  0
 49 50  1  0  0  0  0
 49101  1  0  0  0  0
 49102  1  0  0  0  0
 50 51  1  0  0  0  0
 50 52  1  0  0  0  0
 52 53  2  0  0  0  0
M  END
>  <DRUGBANK_ID>
DB04043

>  <SECONDARY_ACCESSION_NUMBERS>
EXPT00952

>  <COMMON_NAME>
Carboxymycobactin T

$$$$
