
 OpenBabel10282417072D

 26 28  0  0  0  0  0  0  0  0999 V2000
   -0.0113   -0.5556    0.0000 C   0  0  0  0  0  0  0  0  0  0  0  0
   -0.0113   -1.3806    0.0000 C   0  0  0  0  0  0  0  0  0  0  0  0
   -0.7259   -0.1431    0.0000 C   0  0  0  0  0  0  0  0  0  0  0  0
   -0.7259   -1.7931    0.0000 C   0  0  0  0  0  0  0  0  0  0  0  0
   -1.4403   -0.5556    0.0000 C   0  0  0  0  0  0  0  0  0  0  0  0
   -1.4403   -1.3806    0.0000 C   0  0  0  0  0  0  0  0  0  0  0  0
    1.4176   -0.5556    0.0000 C   0  0  0  0  0  0  0  0  0  0  0  0
    1.4176   -1.3806    0.0000 C   0  0  0  0  0  0  0  0  0  0  0  0
    0.7029   -0.1431    0.0000 C   0  0  2  0  0  0  0  0  0  0  0  0
    0.7029   -1.7931    0.0000 O   0  0  0  0  0  0  0  0  0  0  0  0
    0.0352    0.3411    0.0000 N   0  0  0  0  0  0  0  0  0  0  0  0
    0.2893    1.1260    0.0000 C   0  0  0  0  0  0  0  0  0  0  0  0
    1.3699    0.3422    0.0000 C   0  0  0  0  0  0  0  0  0  0  0  0
    1.1144    1.1267    0.0000 N   0  0  0  0  0  0  0  0  0  0  0  0
   -0.1960    1.7930    0.0000 O   0  0  0  0  0  0  0  0  0  0  0  0
    2.1549    0.0880    0.0000 O   0  0  0  0  0  0  0  0  0  0  0  0
   -2.1549   -0.1431    0.0000 F   0  0  0  0  0  0  0  0  0  0  0  0
   -0.7260    0.8889    0.0000 H   0  0  0  0  0  0  0  0  0  0  0  0
   -0.7260   -2.8251    0.0000 H   0  0  0  0  0  0  0  0  0  0  0  0
   -2.3340   -1.8966    0.0000 H   0  0  0  0  0  0  0  0  0  0  0  0
    2.3442   -0.0205    0.0000 H   0  0  0  0  0  0  0  0  0  0  0  0
    1.4175    0.5144    0.0000 H   0  0  0  0  0  0  0  0  0  0  0  0
    2.3442   -1.9157    0.0000 H   0  0  0  0  0  0  0  0  0  0  0  0
    1.4175   -2.4506    0.0000 H   0  0  0  0  0  0  0  0  0  0  0  0
   -0.9008    0.0360    0.0000 H   0  0  0  0  0  0  0  0  0  0  0  0
    1.6925    1.9236    0.0000 H   0  0  0  0  0  0  0  0  0  0  0  0
  2 10  1  0  0  0  0
  2  1  1  0  0  0  0
  3  1  2  0  0  0  0
  3 18  1  0  0  0  0
  4  2  2  0  0  0  0
  4 19  1  0  0  0  0
  5  3  1  0  0  0  0
  5 17  1  0  0  0  0
  6  4  1  0  0  0  0
  6  5  2  0  0  0  0
  6 20  1  0  0  0  0
  7 21  1  0  0  0  0
  7 22  1  0  0  0  0
  8  7  1  0  0  0  0
  8 23  1  0  0  0  0
  8 24  1  0  0  0  0
  9  7  1  0  0  0  0
  9  1  1  6  0  0  0
  9 11  1  0  0  0  0
  9 13  1  0  0  0  0
 10  8  1  0  0  0  0
 11 25  1  0  0  0  0
 12 11  1  0  0  0  0
 12 15  2  0  0  0  0
 13 16  2  0  0  0  0
 14 12  1  0  0  0  0
 14 13  1  0  0  0  0
 14 26  1  0  0  0  0
M  END
>  <DRUGBANK_ID>
DB02712

>  <SECONDARY_ACCESSION_NUMBERS>
EXPT03309

>  <COMMON_NAME>
Sorbinil

>  <CAS_NUMBER>
68367-52-2

>  <UNII>
G4186B906P

>  <SYNONYMS>
Sorbinil; sorbinilo; Sorbinilum

$$$$
