
 OpenBabel10282417072D

  5  4  0  0  0  0  0  0  0  0999 V2000
    0.8250   -0.8250    0.0000 O   0  5  0  0  0  0  0  0  0  0  0  0
    0.8250    0.0000    0.0000 Cl  0  0  0  0  0  0  0  0  0  0  0  0
    0.8250    0.8250    0.0000 O   0  0  0  0  0  0  0  0  0  0  0  0
    1.6500    0.0000    0.0000 O   0  0  0  0  0  0  0  0  0  0  0  0
    0.0000    0.0000    0.0000 O   0  0  0  0  0  0  0  0  0  0  0  0
  1  2  1  0  0  0  0
  2  3  2  0  0  0  0
  2  4  2  0  0  0  0
  2  5  2  0  0  0  0
M  CHG  1   1  -1
M  END
>  <DRUGBANK_ID>
DB03138

>  <SECONDARY_ACCESSION_NUMBERS>
EXPT02010

>  <COMMON_NAME>
Perchlorate

>  <CAS_NUMBER>
14797-73-0

>  <UNII>
VLA4NZX2P4

>  <SYNONYMS>
Perchlorate Ion

$$$$
