
 OpenBabel10282417072D

 44 47  0  0  0  0  0  0  0  0999 V2000
   -1.4292    1.8434    0.0000 C   0  0  0  0  0  0  0  0  0  0  0  0
   -1.4304    1.0160    0.0000 C   0  0  0  0  0  0  0  0  0  0  0  0
   -0.7168    0.6052    0.0000 C   0  0  0  0  0  0  0  0  0  0  0  0
   -0.7186    2.2584    0.0000 C   0  0  0  0  0  0  0  0  0  0  0  0
   -0.0005    1.8470    0.0000 C   0  0  0  0  0  0  0  0  0  0  0  0
   -0.0016    1.0185    0.0000 C   0  0  0  0  0  0  0  0  0  0  0  0
    0.7099    0.6076    0.0000 O   0  0  0  0  0  0  0  0  0  0  0  0
    1.4313    1.0165    0.0000 C   0  0  0  0  0  0  0  0  0  0  0  0
    1.4324    1.8451    0.0000 C   0  0  0  0  0  0  0  0  0  0  0  0
    0.7124    2.2646    0.0000 N   0  0  0  0  0  0  0  0  0  0  0  0
   -2.1466    2.2579    0.0000 Cl  0  0  0  0  0  0  0  0  0  0  0  0
    2.1466    2.2580    0.0000 O   0  0  0  0  0  0  0  0  0  0  0  0
    0.7124    3.0896    0.0000 C   0  0  0  0  0  0  0  0  0  0  0  0
   -0.7206   -0.2130    0.0000 C   0  0  0  0  0  0  0  0  0  0  0  0
   -0.0053   -0.6276    0.0000 N   0  0  0  0  0  0  0  0  0  0  0  0
   -0.0053   -1.4486    0.0000 C   0  0  3  0  0  0  0  0  0  0  0  0
   -1.4351   -0.6255    0.0000 O   0  0  0  0  0  0  0  0  0  0  0  0
   -0.7208   -1.8599    0.0000 C   0  0  0  0  0  0  0  0  0  0  0  0
   -0.7227   -2.6774    0.0000 N   0  0  3  0  0  0  0  0  0  0  0  0
   -0.0107   -3.0896    0.0000 C   0  0  0  0  0  0  0  0  0  0  0  0
    0.7005   -2.6823    0.0000 C   0  0  0  0  0  0  0  0  0  0  0  0
   -0.0825   -2.5012    0.0000 C   0  0  0  0  0  0  0  0  0  0  0  0
   -0.0825   -1.9729    0.0000 C   0  0  0  0  0  0  0  0  0  0  0  0
    0.7018   -1.8551    0.0000 C   0  0  3  0  0  0  0  0  0  0  0  0
   -2.3242    0.5001    0.0000 H   0  0  0  0  0  0  0  0  0  0  0  0
   -0.7229    3.2904    0.0000 H   0  0  0  0  0  0  0  0  0  0  0  0
    2.3555    0.4772    0.0000 H   0  0  0  0  0  0  0  0  0  0  0  0
    2.3595    1.5487    0.0000 H   0  0  0  0  0  0  0  0  0  0  0  0
    1.6390    3.6246    0.0000 H   0  0  0  0  0  0  0  0  0  0  0  0
   -0.2142    3.6246    0.0000 H   0  0  0  0  0  0  0  0  0  0  0  0
    0.7124    4.1596    0.0000 H   0  0  0  0  0  0  0  0  0  0  0  0
    0.8477   -0.1361    0.0000 H   0  0  0  0  0  0  0  0  0  0  0  0
   -0.9314   -0.9127    0.0000 H   0  0  0  0  0  0  0  0  0  0  0  0
   -1.6463   -1.3230    0.0000 H   0  0  0  0  0  0  0  0  0  0  0  0
   -1.6486   -2.3928    0.0000 H   0  0  0  0  0  0  0  0  0  0  0  0
   -0.0132   -4.1596    0.0000 H   0  0  0  0  0  0  0  0  0  0  0  0
    0.9144   -3.6273    0.0000 H   0  0  0  0  0  0  0  0  0  0  0  0
    1.6258   -3.2196    0.0000 H   0  0  0  0  0  0  0  0  0  0  0  0
    1.6282   -2.1492    0.0000 H   0  0  0  0  0  0  0  0  0  0  0  0
    0.7686   -3.1497    0.0000 H   0  0  0  0  0  0  0  0  0  0  0  0
    0.8764   -2.0263    0.0000 H   0  0  0  0  0  0  0  0  0  0  0  0
   -0.8933   -1.2747    0.0000 H   0  0  0  0  0  0  0  0  0  0  0  0
    0.2141   -0.9448    0.0000 H   0  0  0  0  0  0  0  0  0  0  0  0
   -0.2248   -2.3902    0.0000 H   0  0  0  0  0  0  0  0  0  0  0  0
  1  2  2  0  0  0  0
  1 11  1  0  0  0  0
  2  3  1  0  0  0  0
  2 25  1  0  0  0  0
  3 14  1  0  0  0  0
  3  6  2  0  0  0  0
  4  1  1  0  0  0  0
  4 26  1  0  0  0  0
  5  6  1  0  0  0  0
  5  4  2  0  0  0  0
  5 10  1  0  0  0  0
  6  7  1  0  0  0  0
  7  8  1  0  0  0  0
  8  9  1  0  0  0  0
  8 27  1  0  0  0  0
  8 28  1  0  0  0  0
  9 12  2  0  0  0  0
  9 10  1  0  0  0  0
 10 13  1  0  0  0  0
 13 29  1  0  0  0  0
 13 30  1  0  0  0  0
 13 31  1  0  0  0  0
 14 15  1  0  0  0  0
 14 17  2  0  0  0  0
 15 16  1  0  0  0  0
 15 32  1  0  0  0  0
 16 18  1  0  0  0  0
 16 24  1  0  0  0  0
 16 33  1  0  0  0  0
 18 19  1  0  0  0  0
 18 34  1  0  0  0  0
 18 35  1  0  0  0  0
 19 20  1  0  0  0  0
 19 22  1  0  0  0  0
 20 21  1  0  0  0  0
 20 36  1  0  0  0  0
 20 37  1  0  0  0  0
 21 24  1  0  0  0  0
 21 38  1  0  0  0  0
 21 39  1  0  0  0  0
 22 23  1  0  0  0  0
 22 40  1  0  0  0  0
 22 41  1  0  0  0  0
 23 24  1  0  0  0  0
 23 42  1  0  0  0  0
 23 43  1  0  0  0  0
 24 44  1  0  0  0  0
M  END
>  <DRUGBANK_ID>
DB16837

>  <COMMON_NAME>
Azasetron

>  <CAS_NUMBER>
123040-69-7

>  <UNII>
77HC7URR9Z

>  <SYNONYMS>
Azasetron

$$$$
