
 OpenBabel10282417072D

 56 60  0  0  1  0  0  0  0  0999 V2000
    3.4258    5.1825    0.0000 C   0  0  0  0  0  0  0  0  0  0  0  0
    2.6616    4.8717    0.0000 N   0  0  0  0  0  0  0  0  0  0  0  0
    2.4639    4.0708    0.0000 C   0  0  0  0  0  0  0  0  0  0  0  0
    1.6410    4.0113    0.0000 C   0  0  0  0  0  0  0  0  0  0  0  0
    1.3302    4.7755    0.0000 C   0  0  0  0  0  0  0  0  0  0  0  0
    1.9610    5.3073    0.0000 N   0  0  0  0  0  0  0  0  0  0  0  0
    1.2055    3.3107    0.0000 C   0  0  0  0  0  0  0  0  0  0  0  0
    1.5163    2.5465    0.0000 C   0  0  0  0  0  0  0  0  0  0  0  0
    0.8855    2.0147    0.0000 C   0  0  0  0  0  0  0  0  0  0  0  0
    0.9080    1.1900    0.0000 C   0  0  0  0  0  0  0  0  0  0  0  0
    0.1311    0.8012    0.0000 C   0  0  0  0  0  0  0  0  0  0  0  0
   -0.5696    1.2367    0.0000 C   0  0  0  0  0  0  0  0  0  0  0  0
   -0.5427    2.0613    0.0000 C   0  0  0  0  0  0  0  0  0  0  0  0
    0.1849    2.4503    0.0000 C   0  0  0  0  0  0  0  0  0  0  0  0
    0.3826    3.2512    0.0000 N   0  0  0  0  0  0  0  0  0  0  0  0
   -1.2971    0.8477    0.0000 N   0  0  0  0  0  0  0  0  0  0  0  0
   -1.9977    1.2833    0.0000 C   0  0  0  0  0  0  0  0  0  0  0  0
   -1.9708    2.1079    0.0000 O   0  0  0  0  0  0  0  0  0  0  0  0
   -2.7253    0.8943    0.0000 C   0  0  1  0  0  0  0  0  0  0  0  0
   -3.4259    1.3299    0.0000 C   0  0  0  0  0  0  0  0  0  0  0  0
   -4.1535    0.9409    0.0000 C   0  0  0  0  0  0  0  0  0  0  0  0
   -4.8541    1.3764    0.0000 C   0  0  0  0  0  0  0  0  0  0  0  0
   -4.8272    2.2010    0.0000 C   0  0  0  0  0  0  0  0  0  0  0  0
   -4.0997    2.5900    0.0000 C   0  0  0  0  0  0  0  0  0  0  0  0
   -3.3990    2.1544    0.0000 C   0  0  0  0  0  0  0  0  0  0  0  0
   -2.7522    0.0697    0.0000 N   0  0  0  0  0  0  0  0  0  0  0  0
    1.5668    0.6934    0.0000 C   0  0  0  0  0  0  0  0  0  0  0  0
    1.4052   -0.1156    0.0000 O   0  0  0  0  0  0  0  0  0  0  0  0
    2.3658    0.8988    0.0000 N   0  0  0  0  0  0  0  0  0  0  0  0
    2.7034    1.6516    0.0000 N   0  0  0  0  0  0  0  0  0  0  0  0
    2.3253    2.3849    0.0000 C   0  0  0  0  0  0  0  0  0  0  0  0
    4.2705    4.5257    0.0000 H   0  0  0  0  0  0  0  0  0  0  0  0
    3.5723    6.2424    0.0000 H   0  0  0  0  0  0  0  0  0  0  0  0
    4.4170    5.5856    0.0000 H   0  0  0  0  0  0  0  0  0  0  0  0
    3.1291    3.2818    0.0000 H   0  0  0  0  0  0  0  0  0  0  0  0
    0.3283    5.0229    0.0000 H   0  0  0  0  0  0  0  0  0  0  0  0
    0.0836   -0.2297    0.0000 H   0  0  0  0  0  0  0  0  0  0  0  0
   -1.4191    2.6062    0.0000 H   0  0  0  0  0  0  0  0  0  0  0  0
   -0.2520    4.0039    0.0000 H   0  0  0  0  0  0  0  0  0  0  0  0
   -1.3292   -0.1363    0.0000 H   0  0  0  0  0  0  0  0  0  0  0  0
   -1.8166    0.3294    0.0000 H   0  0  0  0  0  0  0  0  0  0  0  0
   -4.3346    1.8948    0.0000 H   0  0  0  0  0  0  0  0  0  0  0  0
   -4.1884   -0.1285    0.0000 H   0  0  0  0  0  0  0  0  0  0  0  0
   -5.0971    0.4364    0.0000 H   0  0  0  0  0  0  0  0  0  0  0  0
   -5.7977    0.8719    0.0000 H   0  0  0  0  0  0  0  0  0  0  0  0
   -5.7628    1.9413    0.0000 H   0  0  0  0  0  0  0  0  0  0  0  0
   -5.7359    2.7659    0.0000 H   0  0  0  0  0  0  0  0  0  0  0  0
   -4.7923    3.2704    0.0000 H   0  0  0  0  0  0  0  0  0  0  0  0
   -4.0648    3.6594    0.0000 H   0  0  0  0  0  0  0  0  0  0  0  0
   -3.1561    3.0945    0.0000 H   0  0  0  0  0  0  0  0  0  0  0  0
   -2.4554    2.6589    0.0000 H   0  0  0  0  0  0  0  0  0  0  0  0
   -2.4903    1.5895    0.0000 H   0  0  0  0  0  0  0  0  0  0  0  0
   -3.6517   -0.4112    0.0000 H   0  0  0  0  0  0  0  0  0  0  0  0
   -1.8860   -0.4688    0.0000 H   0  0  0  0  0  0  0  0  0  0  0  0
    3.0004    0.1461    0.0000 H   0  0  0  0  0  0  0  0  0  0  0  0
    2.9465    3.2090    0.0000 H   0  0  0  0  0  0  0  0  0  0  0  0
  1  2  1  0  0  0  0
  1 32  1  0  0  0  0
  1 33  1  0  0  0  0
  1 34  1  0  0  0  0
  2  3  1  0  0  0  0
  2  6  1  0  0  0  0
  3  4  2  0  0  0  0
  3 35  1  0  0  0  0
  4  5  1  0  0  0  0
  4  7  1  0  0  0  0
  5  6  2  0  0  0  0
  5 36  1  0  0  0  0
  7  8  2  0  0  0  0
  7 15  1  0  0  0  0
  8  9  1  0  0  0  0
  8 31  1  0  0  0  0
  9 10  2  0  0  0  0
  9 14  1  0  0  0  0
 10 11  1  0  0  0  0
 10 27  1  0  0  0  0
 11 12  2  0  0  0  0
 11 37  1  0  0  0  0
 12 13  1  0  0  0  0
 12 16  1  0  0  0  0
 13 14  2  0  0  0  0
 13 38  1  0  0  0  0
 14 15  1  0  0  0  0
 15 39  1  0  0  0  0
 16 17  1  0  0  0  0
 16 40  1  0  0  0  0
 17 18  2  0  0  0  0
 17 19  1  0  0  0  0
 19 20  1  0  0  0  0
 19 26  1  0  0  0  0
 19 41  1  1  0  0  0
 20 21  1  0  0  0  0
 20 25  1  0  0  0  0
 20 42  1  0  0  0  0
 21 22  1  0  0  0  0
 21 43  1  0  0  0  0
 21 44  1  0  0  0  0
 22 23  1  0  0  0  0
 22 45  1  0  0  0  0
 22 46  1  0  0  0  0
 23 24  1  0  0  0  0
 23 47  1  0  0  0  0
 23 48  1  0  0  0  0
 24 25  1  0  0  0  0
 24 49  1  0  0  0  0
 24 50  1  0  0  0  0
 25 51  1  0  0  0  0
 25 52  1  0  0  0  0
 26 53  1  0  0  0  0
 26 54  1  0  0  0  0
 27 28  2  0  0  0  0
 27 29  1  0  0  0  0
 29 30  1  0  0  0  0
 29 55  1  0  0  0  0
 30 31  2  0  0  0  0
 31 56  1  0  0  0  0
M  END
>  <DRUGBANK_ID>
DB12611

>  <COMMON_NAME>
PF-477736

>  <CAS_NUMBER>
952021-60-2

>  <UNII>
XO23PGZ0SM

$$$$
