2LG
 OpenBabel10282417072D

 48 50  0  0  0  0  0  0  0  0999 V2000
   -3.8714   -1.6239    0.0000 C   0  0  0  0  0  0  0  0  0  0  0  0
   -3.8714   -0.2890    0.0000 C   0  0  0  0  0  0  0  0  0  0  0  0
   -1.8172   -0.9565    0.0000 C   0  0  0  0  0  0  0  0  0  0  0  0
   -2.0472   -2.4085    0.0000 C   0  0  0  0  0  0  0  0  0  0  0  0
    0.2453   -0.2420    0.0000 C   0  0  0  0  0  0  0  0  0  0  0  0
    0.6578    0.4725    0.0000 C   0  0  0  0  0  0  0  0  0  0  0  0
    1.4828    0.4725    0.0000 C   0  0  0  0  0  0  0  0  0  0  0  0
    1.8953   -0.2420    0.0000 C   0  0  0  0  0  0  0  0  0  0  0  0
    3.1328    1.9014    0.0000 C   0  0  0  0  0  0  0  0  0  0  0  0
    3.5453    2.6159    0.0000 C   0  0  0  0  0  0  0  0  0  0  0  0
   -3.0867   -1.3690    0.0000 C   0  0  0  0  0  0  0  0  0  0  0  0
   -3.0867   -0.5440    0.0000 C   0  0  0  0  0  0  0  0  0  0  0  0
   -2.3021   -1.6239    0.0000 C   0  0  0  0  0  0  0  0  0  0  0  0
   -2.3021   -0.2890    0.0000 S   0  0  0  0  0  0  0  0  0  0  0  0
   -4.3563   -0.9565    0.0000 C   0  0  0  0  0  0  0  0  0  0  0  0
   -0.9922   -0.9565    0.0000 N   0  0  0  0  0  0  0  0  0  0  0  0
   -1.7922   -3.1932    0.0000 N   0  0  0  0  0  0  0  0  0  0  0  0
   -0.5797   -0.2420    0.0000 C   0  0  0  0  0  0  0  0  0  0  0  0
   -0.9922    0.4725    0.0000 O   0  0  0  0  0  0  0  0  0  0  0  0
    0.6578   -0.9565    0.0000 C   0  0  0  0  0  0  0  0  0  0  0  0
    1.4828   -0.9565    0.0000 C   0  0  0  0  0  0  0  0  0  0  0  0
    0.2453   -1.6709    0.0000 Cl  0  0  0  0  0  0  0  0  0  0  0  0
    1.8953    1.1869    0.0000 S   0  0  0  0  0  0  0  0  0  0  0  0
    2.3078    1.9014    0.0000 N   0  0  0  0  0  0  0  0  0  0  0  0
    1.1808    1.5994    0.0000 O   0  0  0  0  0  0  0  0  0  0  0  0
    2.6098    0.7744    0.0000 O   0  0  0  0  0  0  0  0  0  0  0  0
    1.8953    2.6159    0.0000 C   0  0  0  0  0  0  0  0  0  0  0  0
    1.0703    2.6159    0.0000 C   0  0  0  0  0  0  0  0  0  0  0  0
   -4.2021   -2.6415    0.0000 H   0  0  0  0  0  0  0  0  0  0  0  0
   -4.9282   -1.7913    0.0000 H   0  0  0  0  0  0  0  0  0  0  0  0
   -4.2021    0.7286    0.0000 H   0  0  0  0  0  0  0  0  0  0  0  0
   -4.9282   -0.1217    0.0000 H   0  0  0  0  0  0  0  0  0  0  0  0
    0.1418    1.3662    0.0000 H   0  0  0  0  0  0  0  0  0  0  0  0
    2.9273   -0.2420    0.0000 H   0  0  0  0  0  0  0  0  0  0  0  0
    3.6678    0.9748    0.0000 H   0  0  0  0  0  0  0  0  0  0  0  0
    2.5978    0.9748    0.0000 H   0  0  0  0  0  0  0  0  0  0  0  0
    4.6153    2.6159    0.0000 H   0  0  0  0  0  0  0  0  0  0  0  0
    3.0103    3.5425    0.0000 H   0  0  0  0  0  0  0  0  0  0  0  0
    4.0803    3.5426    0.0000 H   0  0  0  0  0  0  0  0  0  0  0  0
   -5.4263   -0.9565    0.0000 H   0  0  0  0  0  0  0  0  0  0  0  0
   -4.8421   -0.0031    0.0000 H   0  0  0  0  0  0  0  0  0  0  0  0
   -0.4999   -1.8091    0.0000 H   0  0  0  0  0  0  0  0  0  0  0  0
    1.9988   -1.8502    0.0000 H   0  0  0  0  0  0  0  0  0  0  0  0
    2.4303    3.5425    0.0000 H   0  0  0  0  0  0  0  0  0  0  0  0
    1.3603    3.5425    0.0000 H   0  0  0  0  0  0  0  0  0  0  0  0
    0.5353    3.5425    0.0000 H   0  0  0  0  0  0  0  0  0  0  0  0
    0.5353    1.6893    0.0000 H   0  0  0  0  0  0  0  0  0  0  0  0
    0.0003    2.6159    0.0000 H   0  0  0  0  0  0  0  0  0  0  0  0
  1 11  1  0  0  0  0
  1 15  1  0  0  0  0
  1 29  1  0  0  0  0
  1 30  1  0  0  0  0
  2 12  1  0  0  0  0
  2 15  1  0  0  0  0
  2 31  1  0  0  0  0
  2 32  1  0  0  0  0
  3 13  2  0  0  0  0
  3 14  1  0  0  0  0
  3 16  1  0  0  0  0
  4 13  1  0  0  0  0
  4 17  3  0  0  0  0
  5  6  2  0  0  0  0
  5 18  1  0  0  0  0
  5 20  1  0  0  0  0
  6  7  1  0  0  0  0
  6 33  1  0  0  0  0
  7  8  2  0  0  0  0
  7 23  1  0  0  0  0
  8 21  1  0  0  0  0
  8 34  1  0  0  0  0
  9 10  1  0  0  0  0
  9 24  1  0  0  0  0
  9 35  1  0  0  0  0
  9 36  1  0  0  0  0
 10 37  1  0  0  0  0
 10 38  1  0  0  0  0
 10 39  1  0  0  0  0
 11 12  2  0  0  0  0
 11 13  1  0  0  0  0
 12 14  1  0  0  0  0
 15 40  1  0  0  0  0
 15 41  1  0  0  0  0
 16 18  1  0  0  0  0
 16 42  1  0  0  0  0
 18 19  2  0  0  0  0
 20 21  2  0  0  0  0
 20 22  1  0  0  0  0
 21 43  1  0  0  0  0
 23 24  1  0  0  0  0
 23 25  2  0  0  0  0
 23 26  2  0  0  0  0
 24 27  1  0  0  0  0
 27 28  1  0  0  0  0
 27 44  1  0  0  0  0
 27 45  1  0  0  0  0
 28 46  1  0  0  0  0
 28 47  1  0  0  0  0
 28 48  1  0  0  0  0
M  END
>  <DRUGBANK_ID>
DB06970

>  <COMMON_NAME>
2-CHLORO-N-(3-CYANO-5,6-DIHYDRO-4H-CYCLOPENTA[B]THIOPHEN-2-YL)-5-DIETHYLSULFAMOYL-BENZAMIDE

$$$$
