
 OpenBabel10282417072D

 40 41  0  0  0  0  0  0  0  0999 V2000
    5.8855    4.6993    0.0000 C   0  0  0  0  0  0  0  0  0  0  0  0
    6.2980    3.9849    0.0000 C   0  0  3  0  0  0  0  0  0  0  0  0
    5.4730    3.9849    0.0000 O   0  0  0  0  0  0  0  0  0  0  0  0
    7.0125    3.5724    0.0000 C   0  0  0  0  0  0  0  0  0  0  0  0
    7.7270    3.9849    0.0000 O   0  0  0  0  0  0  0  0  0  0  0  0
    8.4414    3.5724    0.0000 C   0  0  0  0  0  0  0  0  0  0  0  0
    9.1559    3.9849    0.0000 C   0  0  0  0  0  0  0  0  0  0  0  0
    9.8704    3.5724    0.0000 O   0  0  0  0  0  0  0  0  0  0  0  0
   10.5849    3.9849    0.0000 C   0  0  0  0  0  0  0  0  0  0  0  0
   11.2993    3.5724    0.0000 C   0  0  0  0  0  0  0  0  0  0  0  0
   12.0138    3.9849    0.0000 O   0  0  0  0  0  0  0  0  0  0  0  0
   12.7283    3.5724    0.0000 C   0  0  0  0  0  0  0  0  0  0  0  0
   13.4427    3.9849    0.0000 C   0  0  0  0  0  0  0  0  0  0  0  0
   14.1572    3.5724    0.0000 O   0  0  0  0  0  0  0  0  0  0  0  0
   14.8717    3.9849    0.0000 C   0  0  0  0  0  0  0  0  0  0  0  0
   15.5862    3.5724    0.0000 C   0  0  3  0  0  0  0  0  0  0  0  0
   16.4112    3.5724    0.0000 C   0  0  0  0  0  0  0  0  0  0  0  0
   15.9987    2.8579    0.0000 O   0  0  0  0  0  0  0  0  0  0  0  0
    5.8855    5.7693    0.0000 H   0  0  0  0  0  0  0  0  0  0  0  0
    4.8520    4.9763    0.0000 H   0  0  0  0  0  0  0  0  0  0  0  0
    5.3713    4.5199    0.0000 H   0  0  0  0  0  0  0  0  0  0  0  0
    7.0125    2.5024    0.0000 H   0  0  0  0  0  0  0  0  0  0  0  0
    7.9391    3.0374    0.0000 H   0  0  0  0  0  0  0  0  0  0  0  0
    8.4414    2.5024    0.0000 H   0  0  0  0  0  0  0  0  0  0  0  0
    9.3680    3.0374    0.0000 H   0  0  0  0  0  0  0  0  0  0  0  0
    9.1559    5.0549    0.0000 H   0  0  0  0  0  0  0  0  0  0  0  0
   10.0825    4.5199    0.0000 H   0  0  0  0  0  0  0  0  0  0  0  0
   10.5849    5.0549    0.0000 H   0  0  0  0  0  0  0  0  0  0  0  0
   11.5116    4.5199    0.0000 H   0  0  0  0  0  0  0  0  0  0  0  0
   11.2993    2.5024    0.0000 H   0  0  0  0  0  0  0  0  0  0  0  0
   12.2259    3.0374    0.0000 H   0  0  0  0  0  0  0  0  0  0  0  0
   12.7283    2.5024    0.0000 H   0  0  0  0  0  0  0  0  0  0  0  0
   13.6550    3.0374    0.0000 H   0  0  0  0  0  0  0  0  0  0  0  0
   13.4427    5.0549    0.0000 H   0  0  0  0  0  0  0  0  0  0  0  0
   14.3693    4.5199    0.0000 H   0  0  0  0  0  0  0  0  0  0  0  0
   14.8717    5.0549    0.0000 H   0  0  0  0  0  0  0  0  0  0  0  0
   15.7983    4.5199    0.0000 H   0  0  0  0  0  0  0  0  0  0  0  0
   15.8631    4.6059    0.0000 H   0  0  0  0  0  0  0  0  0  0  0  0
   17.3378    4.1074    0.0000 H   0  0  0  0  0  0  0  0  0  0  0  0
   17.1678    2.8158    0.0000 H   0  0  0  0  0  0  0  0  0  0  0  0
  1  2  1  0  0  0  0
  1  3  1  0  0  0  0
  1 19  1  0  0  0  0
  1 20  1  0  0  0  0
  2  3  1  0  0  0  0
  2  4  1  0  0  0  0
  2 21  1  0  0  0  0
  4  5  1  0  0  0  0
  4 22  1  0  0  0  0
  4 23  1  0  0  0  0
  5  6  1  0  0  0  0
  6  7  1  0  0  0  0
  6 24  1  0  0  0  0
  6 25  1  0  0  0  0
  7  8  1  0  0  0  0
  7 26  1  0  0  0  0
  7 27  1  0  0  0  0
  8  9  1  0  0  0  0
  9 10  1  0  0  0  0
  9 28  1  0  0  0  0
  9 29  1  0  0  0  0
 10 11  1  0  0  0  0
 10 30  1  0  0  0  0
 10 31  1  0  0  0  0
 11 12  1  0  0  0  0
 12 13  1  0  0  0  0
 12 32  1  0  0  0  0
 12 33  1  0  0  0  0
 13 14  1  0  0  0  0
 13 34  1  0  0  0  0
 13 35  1  0  0  0  0
 14 15  1  0  0  0  0
 15 16  1  0  0  0  0
 15 36  1  0  0  0  0
 15 37  1  0  0  0  0
 16 17  1  0  0  0  0
 16 18  1  0  0  0  0
 16 38  1  0  0  0  0
 17 18  1  0  0  0  0
 17 39  1  0  0  0  0
 17 40  1  0  0  0  0
M  END
>  <DRUGBANK_ID>
DB13339

>  <COMMON_NAME>
Etoglucid

>  <CAS_NUMBER>
1954-28-5

>  <UNII>
4F9KUA0T4D

>  <SYNONYMS>
Etoglucid

$$$$
