CT1
 OpenBabel10282417072D

 49 49  0  0  0  0  0  0  0  0999 V2000
   -4.5718   -0.7655    0.0000 C   0  0  0  0  0  0  0  0  0  0  0  0
   -3.9773   -0.1934    0.0000 C   0  0  0  0  0  0  0  0  0  0  0  0
   -3.1847   -0.4223    0.0000 C   0  0  0  0  0  0  0  0  0  0  0  0
   -2.5902    0.1498    0.0000 C   0  0  0  0  0  0  0  0  0  0  0  0
   -0.8068   -1.1087    0.0000 O   0  0  0  0  0  0  0  0  0  0  0  0
   -1.2031    0.4930    0.0000 N   0  0  0  0  0  0  0  0  0  0  0  0
   -0.4105    0.2642    0.0000 C   0  0  0  0  0  0  0  0  0  0  0  0
   -0.2123   -0.5367    0.0000 O   0  0  0  0  0  0  0  0  0  0  0  0
    0.1840    0.8362    0.0000 O   0  0  0  0  0  0  0  0  0  0  0  0
    0.9766    0.6074    0.0000 C   0  0  2  0  0  0  0  0  0  0  0  0
    1.5711    1.1794    0.0000 C   0  0  0  0  0  0  0  0  0  0  0  0
    2.3637    0.9506    0.0000 C   0  0  0  0  0  0  0  0  0  0  0  0
    2.9582    1.5227    0.0000 C   0  0  0  0  0  0  0  0  0  0  0  0
    3.7508    1.2938    0.0000 C   0  0  0  0  0  0  0  0  0  0  0  0
    3.9490    0.4930    0.0000 C   0  0  0  0  0  0  0  0  0  0  0  0
    3.3545   -0.0790    0.0000 C   0  0  0  0  0  0  0  0  0  0  0  0
    2.5619    0.1498    0.0000 C   0  0  0  0  0  0  0  0  0  0  0  0
    1.1748   -0.1934    0.0000 C   0  0  0  0  0  0  0  0  0  0  0  0
    1.9674   -0.4223    0.0000 C   0  0  0  0  0  0  0  0  0  0  0  0
    0.5803   -0.7655    0.0000 C   0  0  0  0  0  0  0  0  0  0  0  0
   -1.5994   -0.8799    0.0000 C   0  0  0  0  0  0  0  0  0  0  0  0
   -1.7976   -0.0790    0.0000 C   0  0  2  0  0  0  0  0  0  0  0  0
    0.8364    1.1742    0.0000 H   0  0  0  0  0  0  0  0  0  0  0  0
   -1.9379    0.4878    0.0000 H   0  0  0  0  0  0  0  0  0  0  0  0
   -5.5998   -0.4688    0.0000 H   0  0  0  0  0  0  0  0  0  0  0  0
   -4.3148   -1.8042    0.0000 H   0  0  0  0  0  0  0  0  0  0  0  0
   -5.3428   -1.5074    0.0000 H   0  0  0  0  0  0  0  0  0  0  0  0
   -4.2343    0.8453    0.0000 H   0  0  0  0  0  0  0  0  0  0  0  0
   -3.2062    0.5485    0.0000 H   0  0  0  0  0  0  0  0  0  0  0  0
   -2.9277   -1.4610    0.0000 H   0  0  0  0  0  0  0  0  0  0  0  0
   -2.1567   -0.7191    0.0000 H   0  0  0  0  0  0  0  0  0  0  0  0
   -2.8472    1.1885    0.0000 H   0  0  0  0  0  0  0  0  0  0  0  0
   -1.8192    0.8917    0.0000 H   0  0  0  0  0  0  0  0  0  0  0  0
   -1.4395    1.4487    0.0000 H   0  0  0  0  0  0  0  0  0  0  0  0
    1.3141    2.2181    0.0000 H   0  0  0  0  0  0  0  0  0  0  0  0
    2.3421    1.9213    0.0000 H   0  0  0  0  0  0  0  0  0  0  0  0
    2.7104    2.5245    0.0000 H   0  0  0  0  0  0  0  0  0  0  0  0
    4.4945    2.0093    0.0000 H   0  0  0  0  0  0  0  0  0  0  0  0
    4.9405    0.2068    0.0000 H   0  0  0  0  0  0  0  0  0  0  0  0
    3.6024   -1.0808    0.0000 H   0  0  0  0  0  0  0  0  0  0  0  0
    1.8183   -0.5658    0.0000 H   0  0  0  0  0  0  0  0  0  0  0  0
    1.4318   -1.2321    0.0000 H   0  0  0  0  0  0  0  0  0  0  0  0
    2.2243   -1.4610    0.0000 H   0  0  0  0  0  0  0  0  0  0  0  0
    2.7385    0.3195    0.0000 H   0  0  0  0  0  0  0  0  0  0  0  0
    2.9954   -0.7192    0.0000 H   0  0  0  0  0  0  0  0  0  0  0  0
   -0.4477   -0.4688    0.0000 H   0  0  0  0  0  0  0  0  0  0  0  0
    0.8373   -1.8042    0.0000 H   0  0  0  0  0  0  0  0  0  0  0  0
   -0.1907   -1.5074    0.0000 H   0  0  0  0  0  0  0  0  0  0  0  0
   -2.3430   -1.5955    0.0000 H   0  0  0  0  0  0  0  0  0  0  0  0
  1  2  1  0  0  0  0
  1 25  1  0  0  0  0
  1 26  1  0  0  0  0
  1 27  1  0  0  0  0
  2  3  1  0  0  0  0
  2 28  1  0  0  0  0
  2 29  1  0  0  0  0
  3  4  1  0  0  0  0
  3 30  1  0  0  0  0
  3 31  1  0  0  0  0
  4 22  1  0  0  0  0
  4 32  1  0  0  0  0
  4 33  1  0  0  0  0
  5 21  2  0  0  0  0
  6  7  1  0  0  0  0
  6 34  1  0  0  0  0
  7  8  2  0  0  0  0
  7  9  1  0  0  0  0
 10  9  1  0  0  0  0
 10 11  1  0  0  0  0
 10 18  1  0  0  0  0
 10 23  1  1  0  0  0
 11 12  1  0  0  0  0
 11 35  1  0  0  0  0
 11 36  1  0  0  0  0
 12 13  1  0  0  0  0
 12 17  2  0  0  0  0
 13 14  2  0  0  0  0
 13 37  1  0  0  0  0
 14 15  1  0  0  0  0
 14 38  1  0  0  0  0
 15 16  2  0  0  0  0
 15 39  1  0  0  0  0
 16 17  1  0  0  0  0
 16 40  1  0  0  0  0
 17 41  1  0  0  0  0
 18 19  1  0  0  0  0
 18 20  1  0  0  0  0
 18 42  1  0  0  0  0
 19 43  1  0  0  0  0
 19 44  1  0  0  0  0
 19 45  1  0  0  0  0
 20 46  1  0  0  0  0
 20 47  1  0  0  0  0
 20 48  1  0  0  0  0
 21 22  1  0  0  0  0
 21 49  1  0  0  0  0
 22  6  1  0  0  0  0
 22 24  1  1  0  0  0
M  END
>  <DRUGBANK_ID>
DB07592

>  <COMMON_NAME>
(2R)-3-Methyl-1-phenyl-2-butanyl [(2S)-1-oxo-2-hexanyl]carbamate

$$$$
