
 OpenBabel10282417072D

 14 13  0  0  0  0  0  0  0  0999 V2000
   -1.1270   -1.6501    0.0000 Cl  0  0  0  0  0  0  0  0  0  0  0  0
   -0.4125   -1.2376    0.0000 N   0  0  0  0  0  0  0  0  0  0  0  0
   -0.4125   -0.4125    0.0000 C   0  0  0  0  0  0  0  0  0  0  0  0
    0.3019    0.0000    0.0000 C   0  0  0  0  0  0  0  0  0  0  0  0
    0.3019    0.8251    0.0000 S   0  0  0  0  0  0  0  0  0  0  0  0
    0.3019    1.6501    0.0000 O   0  0  0  0  0  0  0  0  0  0  0  0
    1.1270    0.8251    0.0000 O   0  0  0  0  0  0  0  0  0  0  0  0
   -0.5230    0.8251    0.0000 O   0  0  0  0  0  0  0  0  0  0  0  0
    0.4708   -1.7476    0.0000 H   0  0  0  0  0  0  0  0  0  0  0  0
   -1.3392    0.1225    0.0000 H   0  0  0  0  0  0  0  0  0  0  0  0
   -0.4125    0.6575    0.0000 H   0  0  0  0  0  0  0  0  0  0  0  0
    1.2286   -0.5350    0.0000 H   0  0  0  0  0  0  0  0  0  0  0  0
    1.2285    0.5350    0.0000 H   0  0  0  0  0  0  0  0  0  0  0  0
    1.1419    2.1351    0.0000 H   0  0  0  0  0  0  0  0  0  0  0  0
  1  2  1  0  0  0  0
  2  3  1  0  0  0  0
  2  9  1  0  0  0  0
  3  4  1  0  0  0  0
  3 10  1  0  0  0  0
  3 11  1  0  0  0  0
  4  5  1  0  0  0  0
  4 12  1  0  0  0  0
  4 13  1  0  0  0  0
  5  6  1  0  0  0  0
  5  7  2  0  0  0  0
  5  8  2  0  0  0  0
  6 14  1  0  0  0  0
M  END
>  <DRUGBANK_ID>
DB06633

>  <COMMON_NAME>
N-chlorotaurine

>  <CAS_NUMBER>
51036-13-6

>  <SYNONYMS>
N-chlorotaurine; N-monochlorotaurine; NCT; Taurine chloramine; Taurine monochloramine; Taurochloramine

$$$$
