
 OpenBabel10282417072D

135130  0  0  0  0  0  0  0  0999 V2000
   -9.5290   -2.8206    0.0000 C   0  0  0  0  0  0  0  0  0  0  0  0
  -10.9322    1.2300    0.0000 C   0  0  0  0  0  0  0  0  0  0  0  0
   -3.7603    4.4706    0.0000 C   0  0  0  0  0  0  0  0  0  0  0  0
   -2.3571    0.4199    0.0000 C   0  0  0  0  0  0  0  0  0  0  0  0
   -9.3731   -2.0104    0.0000 C   0  0  0  0  0  0  0  0  0  0  0  0
  -10.3085    0.6899    0.0000 C   0  0  0  0  0  0  0  0  0  0  0  0
   -3.9162    3.6604    0.0000 C   0  0  0  0  0  0  0  0  0  0  0  0
   -2.9807    0.9600    0.0000 C   0  0  0  0  0  0  0  0  0  0  0  0
   -8.4376   -0.9302    0.0000 C   0  0  0  0  0  0  0  0  0  0  0  0
   -8.9053    0.4199    0.0000 C   0  0  0  0  0  0  0  0  0  0  0  0
   -4.8517    2.5802    0.0000 C   0  0  0  0  0  0  0  0  0  0  0  0
   -4.3839    1.2300    0.0000 C   0  0  0  0  0  0  0  0  0  0  0  0
   -7.6580   -0.6602    0.0000 C   0  0  0  0  0  0  0  0  0  0  0  0
   -8.1258    0.6899    0.0000 C   0  0  0  0  0  0  0  0  0  0  0  0
   -5.6312    2.3102    0.0000 C   0  0  0  0  0  0  0  0  0  0  0  0
   -5.1635    0.9600    0.0000 C   0  0  0  0  0  0  0  0  0  0  0  0
   -6.7226    0.4199    0.0000 C   0  0  0  0  0  0  0  0  0  0  0  0
   -6.5667    1.2300    0.0000 C   0  0  0  0  0  0  0  0  0  0  0  0
   -8.5935   -1.7404    0.0000 O   0  0  0  0  0  0  0  0  0  0  0  0
   -9.5290    0.9600    0.0000 O   0  0  0  0  0  0  0  0  0  0  0  0
   -4.6957    3.3904    0.0000 O   0  0  0  0  0  0  0  0  0  0  0  0
   -3.7603    0.6899    0.0000 O   0  0  0  0  0  0  0  0  0  0  0  0
   -7.5021    0.1498    0.0000 P   0  0  0  0  0  0  0  0  0  0  0  0
   -5.7871    1.5001    0.0000 P   0  0  0  0  0  0  0  0  0  0  0  0
    1.4031   -2.8206    0.0000 C   0  0  0  0  0  0  0  0  0  0  0  0
    0.0000    1.2300    0.0000 C   0  0  0  0  0  0  0  0  0  0  0  0
    7.1718    4.4706    0.0000 C   0  0  0  0  0  0  0  0  0  0  0  0
    8.5750    0.4199    0.0000 C   0  0  0  0  0  0  0  0  0  0  0  0
    1.5591   -2.0104    0.0000 C   0  0  0  0  0  0  0  0  0  0  0  0
    0.6236    0.6899    0.0000 C   0  0  0  0  0  0  0  0  0  0  0  0
    7.0159    3.6604    0.0000 C   0  0  0  0  0  0  0  0  0  0  0  0
    7.9514    0.9600    0.0000 C   0  0  0  0  0  0  0  0  0  0  0  0
    2.4945   -0.9302    0.0000 C   0  0  0  0  0  0  0  0  0  0  0  0
    2.0268    0.4199    0.0000 C   0  0  0  0  0  0  0  0  0  0  0  0
    6.0805    2.5802    0.0000 C   0  0  0  0  0  0  0  0  0  0  0  0
    6.5482    1.2300    0.0000 C   0  0  0  0  0  0  0  0  0  0  0  0
    3.2741   -0.6602    0.0000 C   0  0  0  0  0  0  0  0  0  0  0  0
    2.8063    0.6899    0.0000 C   0  0  0  0  0  0  0  0  0  0  0  0
    5.3009    2.3102    0.0000 C   0  0  0  0  0  0  0  0  0  0  0  0
    5.7686    0.9600    0.0000 C   0  0  0  0  0  0  0  0  0  0  0  0
    4.2095    0.4199    0.0000 C   0  0  0  0  0  0  0  0  0  0  0  0
    4.3654    1.2300    0.0000 C   0  0  0  0  0  0  0  0  0  0  0  0
    2.3386   -1.7404    0.0000 O   0  0  0  0  0  0  0  0  0  0  0  0
    1.4031    0.9600    0.0000 O   0  0  0  0  0  0  0  0  0  0  0  0
    6.2364    3.3904    0.0000 O   0  0  0  0  0  0  0  0  0  0  0  0
    7.1718    0.6899    0.0000 O   0  0  0  0  0  0  0  0  0  0  0  0
    3.4300    0.1498    0.0000 P   0  0  0  0  0  0  0  0  0  0  0  0
    5.1450    1.5001    0.0000 P   0  0  0  0  0  0  0  0  0  0  0  0
   10.9322    0.8250    0.0000 O   0  0  0  0  0  0  0  0  0  0  0  0
   -6.6446   -4.4706    0.0000 O   0  0  0  0  0  0  0  0  0  0  0  0
   -4.1696   -4.4706    0.0000 Tc  0  0  0  0  0  0  0  0  0  0  0  0
  -10.5400   -3.1709    0.0000 H   0  0  0  0  0  0  0  0  0  0  0  0
   -8.7201   -3.5211    0.0000 H   0  0  0  0  0  0  0  0  0  0  0  0
   -9.7312   -3.8713    0.0000 H   0  0  0  0  0  0  0  0  0  0  0  0
  -10.7300    2.2807    0.0000 H   0  0  0  0  0  0  0  0  0  0  0  0
  -11.9432    0.8797    0.0000 H   0  0  0  0  0  0  0  0  0  0  0  0
  -11.7411    1.9304    0.0000 H   0  0  0  0  0  0  0  0  0  0  0  0
   -2.7493    4.8209    0.0000 H   0  0  0  0  0  0  0  0  0  0  0  0
   -4.5692    5.1711    0.0000 H   0  0  0  0  0  0  0  0  0  0  0  0
   -3.5581    5.5213    0.0000 H   0  0  0  0  0  0  0  0  0  0  0  0
   -2.5594   -0.6308    0.0000 H   0  0  0  0  0  0  0  0  0  0  0  0
   -1.3460    0.7701    0.0000 H   0  0  0  0  0  0  0  0  0  0  0  0
   -1.5483   -0.2806    0.0000 H   0  0  0  0  0  0  0  0  0  0  0  0
  -10.1819   -1.3099    0.0000 H   0  0  0  0  0  0  0  0  0  0  0  0
   -9.1708   -0.9597    0.0000 H   0  0  0  0  0  0  0  0  0  0  0  0
  -10.5106   -0.3608    0.0000 H   0  0  0  0  0  0  0  0  0  0  0  0
   -9.4996   -0.0105    0.0000 H   0  0  0  0  0  0  0  0  0  0  0  0
   -3.1074    2.9599    0.0000 H   0  0  0  0  0  0  0  0  0  0  0  0
   -4.1184    2.6097    0.0000 H   0  0  0  0  0  0  0  0  0  0  0  0
   -2.7785    2.0107    0.0000 H   0  0  0  0  0  0  0  0  0  0  0  0
   -3.7896    1.6605    0.0000 H   0  0  0  0  0  0  0  0  0  0  0  0
   -9.2464   -0.2297    0.0000 H   0  0  0  0  0  0  0  0  0  0  0  0
   -9.4487   -1.2804    0.0000 H   0  0  0  0  0  0  0  0  0  0  0  0
   -9.1075   -0.6308    0.0000 H   0  0  0  0  0  0  0  0  0  0  0  0
   -9.9163    0.0696    0.0000 H   0  0  0  0  0  0  0  0  0  0  0  0
   -4.0429    1.8797    0.0000 H   0  0  0  0  0  0  0  0  0  0  0  0
   -3.8406    2.9304    0.0000 H   0  0  0  0  0  0  0  0  0  0  0  0
   -4.1816    2.2807    0.0000 H   0  0  0  0  0  0  0  0  0  0  0  0
   -3.3728    1.5802    0.0000 H   0  0  0  0  0  0  0  0  0  0  0  0
   -6.8492   -1.3607    0.0000 H   0  0  0  0  0  0  0  0  0  0  0  0
   -6.6469   -0.3100    0.0000 H   0  0  0  0  0  0  0  0  0  0  0  0
   -7.9236    1.7406    0.0000 H   0  0  0  0  0  0  0  0  0  0  0  0
   -7.1148    1.0402    0.0000 H   0  0  0  0  0  0  0  0  0  0  0  0
   -6.4400    3.0107    0.0000 H   0  0  0  0  0  0  0  0  0  0  0  0
   -6.6423    1.9600    0.0000 H   0  0  0  0  0  0  0  0  0  0  0  0
   -5.3658   -0.0907    0.0000 H   0  0  0  0  0  0  0  0  0  0  0  0
   -6.1746    0.6098    0.0000 H   0  0  0  0  0  0  0  0  0  0  0  0
   -5.9137   -0.2805    0.0000 H   0  0  0  0  0  0  0  0  0  0  0  0
   -6.9247   -0.6308    0.0000 H   0  0  0  0  0  0  0  0  0  0  0  0
   -7.3756    1.9305    0.0000 H   0  0  0  0  0  0  0  0  0  0  0  0
   -6.3645    2.2807    0.0000 H   0  0  0  0  0  0  0  0  0  0  0  0
    0.3920   -3.1707    0.0000 H   0  0  0  0  0  0  0  0  0  0  0  0
    2.2119   -3.5212    0.0000 H   0  0  0  0  0  0  0  0  0  0  0  0
    1.2008   -3.8713    0.0000 H   0  0  0  0  0  0  0  0  0  0  0  0
    0.2023    2.2807    0.0000 H   0  0  0  0  0  0  0  0  0  0  0  0
   -1.0111    0.8798    0.0000 H   0  0  0  0  0  0  0  0  0  0  0  0
   -0.8088    1.9305    0.0000 H   0  0  0  0  0  0  0  0  0  0  0  0
    8.1828    4.8209    0.0000 H   0  0  0  0  0  0  0  0  0  0  0  0
    6.3629    5.1711    0.0000 H   0  0  0  0  0  0  0  0  0  0  0  0
    7.3740    5.5213    0.0000 H   0  0  0  0  0  0  0  0  0  0  0  0
    8.3727   -0.6308    0.0000 H   0  0  0  0  0  0  0  0  0  0  0  0
    9.5861    0.7701    0.0000 H   0  0  0  0  0  0  0  0  0  0  0  0
    9.3838   -0.2806    0.0000 H   0  0  0  0  0  0  0  0  0  0  0  0
    0.7503   -1.3099    0.0000 H   0  0  0  0  0  0  0  0  0  0  0  0
    1.7614   -0.9597    0.0000 H   0  0  0  0  0  0  0  0  0  0  0  0
    0.4214   -0.3608    0.0000 H   0  0  0  0  0  0  0  0  0  0  0  0
    1.4325   -0.0105    0.0000 H   0  0  0  0  0  0  0  0  0  0  0  0
    7.8247    2.9599    0.0000 H   0  0  0  0  0  0  0  0  0  0  0  0
    6.8137    2.6097    0.0000 H   0  0  0  0  0  0  0  0  0  0  0  0
    8.1536    2.0107    0.0000 H   0  0  0  0  0  0  0  0  0  0  0  0
    7.1425    1.6605    0.0000 H   0  0  0  0  0  0  0  0  0  0  0  0
    1.6857   -0.2297    0.0000 H   0  0  0  0  0  0  0  0  0  0  0  0
    1.4834   -1.2804    0.0000 H   0  0  0  0  0  0  0  0  0  0  0  0
    1.8246   -0.6308    0.0000 H   0  0  0  0  0  0  0  0  0  0  0  0
    1.0158    0.0696    0.0000 H   0  0  0  0  0  0  0  0  0  0  0  0
    6.8893    1.8797    0.0000 H   0  0  0  0  0  0  0  0  0  0  0  0
    7.0916    2.9304    0.0000 H   0  0  0  0  0  0  0  0  0  0  0  0
    6.7505    2.2807    0.0000 H   0  0  0  0  0  0  0  0  0  0  0  0
    7.5593    1.5802    0.0000 H   0  0  0  0  0  0  0  0  0  0  0  0
    4.0829   -1.3607    0.0000 H   0  0  0  0  0  0  0  0  0  0  0  0
    4.2852   -0.3100    0.0000 H   0  0  0  0  0  0  0  0  0  0  0  0
    3.0085    1.7406    0.0000 H   0  0  0  0  0  0  0  0  0  0  0  0
    3.8173    1.0402    0.0000 H   0  0  0  0  0  0  0  0  0  0  0  0
    4.4921    3.0107    0.0000 H   0  0  0  0  0  0  0  0  0  0  0  0
    4.2898    1.9600    0.0000 H   0  0  0  0  0  0  0  0  0  0  0  0
    5.5663   -0.0907    0.0000 H   0  0  0  0  0  0  0  0  0  0  0  0
    4.7575    0.6098    0.0000 H   0  0  0  0  0  0  0  0  0  0  0  0
    5.0184   -0.2805    0.0000 H   0  0  0  0  0  0  0  0  0  0  0  0
    4.0074   -0.6308    0.0000 H   0  0  0  0  0  0  0  0  0  0  0  0
    3.5565    1.9305    0.0000 H   0  0  0  0  0  0  0  0  0  0  0  0
    4.5676    2.2807    0.0000 H   0  0  0  0  0  0  0  0  0  0  0  0
   11.9022    0.8250    0.0000 H   0  0  0  0  0  0  0  0  0  0  0  0
   10.4472    1.6650    0.0000 H   0  0  0  0  0  0  0  0  0  0  0  0
   -5.6746   -4.4706    0.0000 H   0  0  0  0  0  0  0  0  0  0  0  0
   -7.1296   -3.6306    0.0000 H   0  0  0  0  0  0  0  0  0  0  0  0
  1 52  1  0  0  0  0
  1 53  1  0  0  0  0
  1 54  1  0  0  0  0
  2 55  1  0  0  0  0
  2 56  1  0  0  0  0
  2 57  1  0  0  0  0
  3 58  1  0  0  0  0
  3 59  1  0  0  0  0
  3 60  1  0  0  0  0
  4 61  1  0  0  0  0
  4 62  1  0  0  0  0
  4 63  1  0  0  0  0
  5  1  1  0  0  0  0
  5 64  1  0  0  0  0
  5 65  1  0  0  0  0
  6  2  1  0  0  0  0
  6 66  1  0  0  0  0
  6 67  1  0  0  0  0
  7  3  1  0  0  0  0
  7 68  1  0  0  0  0
  7 69  1  0  0  0  0
  8  4  1  0  0  0  0
  8 70  1  0  0  0  0
  8 71  1  0  0  0  0
  9 72  1  0  0  0  0
  9 73  1  0  0  0  0
 10 74  1  0  0  0  0
 10 75  1  0  0  0  0
 11 76  1  0  0  0  0
 11 77  1  0  0  0  0
 12 78  1  0  0  0  0
 12 79  1  0  0  0  0
 13  9  1  0  0  0  0
 13 80  1  0  0  0  0
 13 81  1  0  0  0  0
 14 10  1  0  0  0  0
 14 82  1  0  0  0  0
 14 83  1  0  0  0  0
 15 11  1  0  0  0  0
 15 84  1  0  0  0  0
 15 85  1  0  0  0  0
 16 12  1  0  0  0  0
 16 86  1  0  0  0  0
 16 87  1  0  0  0  0
 17 88  1  0  0  0  0
 17 89  1  0  0  0  0
 18 17  1  0  0  0  0
 18 90  1  0  0  0  0
 18 91  1  0  0  0  0
 19  5  1  0  0  0  0
 19  9  1  0  0  0  0
 20  6  1  0  0  0  0
 20 10  1  0  0  0  0
 21  7  1  0  0  0  0
 21 11  1  0  0  0  0
 22  8  1  0  0  0  0
 22 12  1  0  0  0  0
 23 13  1  0  0  0  0
 23 14  1  0  0  0  0
 23 17  1  0  0  0  0
 24 15  1  0  0  0  0
 24 16  1  0  0  0  0
 24 18  1  0  0  0  0
 25 92  1  0  0  0  0
 25 93  1  0  0  0  0
 25 94  1  0  0  0  0
 26 95  1  0  0  0  0
 26 96  1  0  0  0  0
 26 97  1  0  0  0  0
 27 98  1  0  0  0  0
 27 99  1  0  0  0  0
 27100  1  0  0  0  0
 28101  1  0  0  0  0
 28102  1  0  0  0  0
 28103  1  0  0  0  0
 29 25  1  0  0  0  0
 29104  1  0  0  0  0
 29105  1  0  0  0  0
 30 26  1  0  0  0  0
 30106  1  0  0  0  0
 30107  1  0  0  0  0
 31 27  1  0  0  0  0
 31108  1  0  0  0  0
 31109  1  0  0  0  0
 32 28  1  0  0  0  0
 32110  1  0  0  0  0
 32111  1  0  0  0  0
 33112  1  0  0  0  0
 33113  1  0  0  0  0
 34114  1  0  0  0  0
 34115  1  0  0  0  0
 35116  1  0  0  0  0
 35117  1  0  0  0  0
 36118  1  0  0  0  0
 36119  1  0  0  0  0
 37 33  1  0  0  0  0
 37120  1  0  0  0  0
 37121  1  0  0  0  0
 38 34  1  0  0  0  0
 38122  1  0  0  0  0
 38123  1  0  0  0  0
 39 35  1  0  0  0  0
 39124  1  0  0  0  0
 39125  1  0  0  0  0
 40 36  1  0  0  0  0
 40126  1  0  0  0  0
 40127  1  0  0  0  0
 41128  1  0  0  0  0
 41129  1  0  0  0  0
 42 41  1  0  0  0  0
 42130  1  0  0  0  0
 42131  1  0  0  0  0
 43 29  1  0  0  0  0
 43 33  1  0  0  0  0
 44 30  1  0  0  0  0
 44 34  1  0  0  0  0
 45 31  1  0  0  0  0
 45 35  1  0  0  0  0
 46 32  1  0  0  0  0
 46 36  1  0  0  0  0
 47 37  1  0  0  0  0
 47 38  1  0  0  0  0
 47 41  1  0  0  0  0
 48 39  1  0  0  0  0
 48 40  1  0  0  0  0
 48 42  1  0  0  0  0
 49132  1  0  0  0  0
 49133  1  0  0  0  0
 50134  1  0  0  0  0
 50135  1  0  0  0  0
M  ISO  1  51  98
M  END
>  <DRUGBANK_ID>
DB09160

>  <SECONDARY_ACCESSION_NUMBERS>
DB09505

>  <COMMON_NAME>
Technetium Tc-99m tetrofosmin

>  <CAS_NUMBER>
127455-27-0

>  <UNII>
42FOP1YX93

>  <SYNONYMS>
Tc-99m tetrofosmin; Technetium (99mTc) tetrofosmin; Technetium Tc 99m tetrofosmin; Technetium-99 tetrofosmin

$$$$
