
 OpenBabel10282417072D

 59 62  0  0  1  0  0  0  0  0999 V2000
   -8.0591    2.3987    0.0000 N   0  0  0  0  0  0  0  0  0  0  0  0
   -7.3054    2.0632    0.0000 C   0  0  0  0  0  0  0  0  0  0  0  0
   -6.6380    2.5481    0.0000 C   0  0  0  0  0  0  0  0  0  0  0  0
   -6.5518    3.3686    0.0000 N   0  0  0  0  0  0  0  0  0  0  0  0
   -5.7448    3.5401    0.0000 C   0  0  0  0  0  0  0  0  0  0  0  0
   -5.3323    2.8256    0.0000 N   0  0  0  0  0  0  0  0  0  0  0  0
   -4.5118    2.7394    0.0000 C   0  0  2  0  0  0  0  0  0  0  0  0
   -3.9598    3.3525    0.0000 O   0  0  0  0  0  0  0  0  0  0  0  0
   -3.2061    3.0169    0.0000 C   0  0  2  0  0  0  0  0  0  0  0  0
   -2.4916    3.4294    0.0000 C   0  0  0  0  0  0  0  0  0  0  0  0
   -1.7772    3.0169    0.0000 O   0  0  0  0  0  0  0  0  0  0  0  0
   -1.0627    3.4294    0.0000 P   0  0  1  0  0  0  0  0  0  0  0  0
   -0.6502    2.7150    0.0000 O   0  0  0  0  0  0  0  0  0  0  0  0
   -1.4752    4.1439    0.0000 O   0  0  0  0  0  0  0  0  0  0  0  0
   -0.3482    3.8419    0.0000 O   0  0  0  0  0  0  0  0  0  0  0  0
    0.3663    3.4294    0.0000 P   0  0  1  0  0  0  0  0  0  0  0  0
   -0.0462    2.7150    0.0000 O   0  0  0  0  0  0  0  0  0  0  0  0
    0.7788    4.1439    0.0000 O   0  0  0  0  0  0  0  0  0  0  0  0
    1.0807    3.0169    0.0000 O   0  0  0  0  0  0  0  0  0  0  0  0
    1.7952    3.4294    0.0000 C   0  0  0  0  0  0  0  0  0  0  0  0
    2.5097    3.0169    0.0000 C   0  0  1  0  0  0  0  0  0  0  0  0
    3.2634    3.3525    0.0000 O   0  0  0  0  0  0  0  0  0  0  0  0
    3.8154    2.7394    0.0000 C   0  0  2  0  0  0  0  0  0  0  0  0
    4.6359    2.8256    0.0000 O   0  0  0  0  0  0  0  0  0  0  0  0
    3.4029    2.0249    0.0000 C   0  0  2  0  0  0  0  0  0  0  0  0
    3.7384    1.2712    0.0000 O   0  0  0  0  0  0  0  0  0  0  0  0
    2.5959    2.1964    0.0000 C   0  0  2  0  0  0  0  0  0  0  0  0
    1.9828    1.6444    0.0000 O   0  0  0  0  0  0  0  0  0  0  0  0
   -3.2923    2.1964    0.0000 C   0  0  1  0  0  0  0  0  0  0  0  0
   -2.6792    1.6444    0.0000 O   0  0  0  0  0  0  0  0  0  0  0  0
   -4.0993    2.0249    0.0000 C   0  0  1  0  0  0  0  0  0  0  0  0
   -4.4349    1.2712    0.0000 O   0  0  0  0  0  0  0  0  0  0  0  0
   -5.8843    2.2125    0.0000 C   0  0  0  0  0  0  0  0  0  0  0  0
   -5.7981    1.3920    0.0000 N   0  0  0  0  0  0  0  0  0  0  0  0
   -6.4655    0.9071    0.0000 C   0  0  0  0  0  0  0  0  0  0  0  0
   -7.2192    1.2427    0.0000 N   0  0  0  0  0  0  0  0  0  0  0  0
   -8.1621    3.3778    0.0000 H   0  0  0  0  0  0  0  0  0  0  0  0
   -8.8555    1.8200    0.0000 H   0  0  0  0  0  0  0  0  0  0  0  0
   -5.3250    4.4829    0.0000 H   0  0  0  0  0  0  0  0  0  0  0  0
   -4.8953    3.7383    0.0000 H   0  0  0  0  0  0  0  0  0  0  0  0
   -3.2621    4.0854    0.0000 H   0  0  0  0  0  0  0  0  0  0  0  0
   -2.4916    4.4994    0.0000 H   0  0  0  0  0  0  0  0  0  0  0  0
   -1.5649    3.9644    0.0000 H   0  0  0  0  0  0  0  0  0  0  0  0
   -1.1352    1.8749    0.0000 H   0  0  0  0  0  0  0  0  0  0  0  0
   -1.0162    2.7150    0.0000 H   0  0  0  0  0  0  0  0  0  0  0  0
    1.7952    4.4994    0.0000 H   0  0  0  0  0  0  0  0  0  0  0  0
    2.7218    3.9644    0.0000 H   0  0  0  0  0  0  0  0  0  0  0  0
    2.5657    4.0854    0.0000 H   0  0  0  0  0  0  0  0  0  0  0  0
    4.1989    3.7383    0.0000 H   0  0  0  0  0  0  0  0  0  0  0  0
    5.2060    2.0408    0.0000 H   0  0  0  0  0  0  0  0  0  0  0  0
    4.4714    1.9689    0.0000 H   0  0  0  0  0  0  0  0  0  0  0  0
    3.1682    0.4865    0.0000 H   0  0  0  0  0  0  0  0  0  0  0  0
    2.8728    1.1629    0.0000 H   0  0  0  0  0  0  0  0  0  0  0  0
    1.0603    1.9442    0.0000 H   0  0  0  0  0  0  0  0  0  0  0  0
   -2.2934    2.5799    0.0000 H   0  0  0  0  0  0  0  0  0  0  0  0
   -2.8808    0.6956    0.0000 H   0  0  0  0  0  0  0  0  0  0  0  0
   -3.4260    1.1933    0.0000 H   0  0  0  0  0  0  0  0  0  0  0  0
   -5.3996    1.1698    0.0000 H   0  0  0  0  0  0  0  0  0  0  0  0
   -6.3576   -0.1192    0.0000 H   0  0  0  0  0  0  0  0  0  0  0  0
  1  2  1  0  0  0  0
  1 37  1  0  0  0  0
  1 38  1  0  0  0  0
  2  3  2  0  0  0  0
  2 36  1  0  0  0  0
  3  4  1  0  0  0  0
  3 33  1  0  0  0  0
  4  5  2  0  0  0  0
  5  6  1  0  0  0  0
  5 39  1  0  0  0  0
  6 33  1  0  0  0  0
  7  6  1  0  0  0  0
  7  8  1  0  0  0  0
  7 31  1  0  0  0  0
  7 40  1  1  0  0  0
  8  9  1  0  0  0  0
  9 10  1  0  0  0  0
  9 29  1  0  0  0  0
  9 41  1  1  0  0  0
 10 11  1  0  0  0  0
 10 42  1  0  0  0  0
 10 43  1  0  0  0  0
 12 11  1  0  0  0  0
 12 13  1  0  0  0  0
 12 14  2  6  0  0  0
 12 15  1  0  0  0  0
 13 44  1  0  0  0  0
 16 15  1  0  0  0  0
 16 17  1  0  0  0  0
 16 18  2  6  0  0  0
 16 19  1  0  0  0  0
 17 45  1  0  0  0  0
 19 20  1  0  0  0  0
 20 46  1  0  0  0  0
 20 47  1  0  0  0  0
 21 20  1  0  0  0  0
 21 22  1  0  0  0  0
 21 27  1  0  0  0  0
 21 48  1  6  0  0  0
 22 23  1  0  0  0  0
 23 24  1  0  0  0  0
 23 25  1  0  0  0  0
 23 49  1  1  0  0  0
 24 50  1  0  0  0  0
 25 26  1  0  0  0  0
 25 27  1  0  0  0  0
 25 51  1  1  0  0  0
 26 52  1  0  0  0  0
 27 28  1  0  0  0  0
 27 53  1  1  0  0  0
 28 54  1  0  0  0  0
 29 30  1  0  0  0  0
 29 31  1  0  0  0  0
 29 55  1  6  0  0  0
 30 56  1  0  0  0  0
 31 32  1  0  0  0  0
 31 57  1  6  0  0  0
 32 58  1  0  0  0  0
 33 34  2  0  0  0  0
 34 35  1  0  0  0  0
 35 36  2  0  0  0  0
 35 59  1  0  0  0  0
M  END
>  <DRUGBANK_ID>
DB02059

>  <SECONDARY_ACCESSION_NUMBERS>
EXPT00544

>  <COMMON_NAME>
Adenosine-5-Diphosphoribose

>  <SYNONYMS>
ADPR

$$$$
