B32
 OpenBabel10282417072D

 70 72  0  0  0  0  0  0  0  0999 V2000
    7.5269    0.2947    0.0000 C   0  0  0  0  0  0  0  0  0  0  0  0
    6.8124   -0.1178    0.0000 C   0  0  0  0  0  0  0  0  0  0  0  0
    6.0980    0.2947    0.0000 C   0  0  0  0  0  0  0  0  0  0  0  0
    5.3835   -0.1178    0.0000 C   0  0  0  0  0  0  0  0  0  0  0  0
    4.6690    0.2947    0.0000 C   0  0  0  0  0  0  0  0  0  0  0  0
    3.9545   -0.1178    0.0000 C   0  0  0  0  0  0  0  0  0  0  0  0
    3.2401    0.2947    0.0000 C   0  0  0  0  0  0  0  0  0  0  0  0
    2.5256   -0.1178    0.0000 C   0  0  0  0  0  0  0  0  0  0  0  0
    1.8111    0.2947    0.0000 N   0  0  0  0  0  0  0  0  0  0  0  0
    1.0967   -0.1178    0.0000 C   0  0  0  0  0  0  0  0  0  0  0  0
    0.3822    0.2947    0.0000 C   0  0  0  0  0  0  0  0  0  0  0  0
   -0.3323   -0.1178    0.0000 S   0  0  0  0  0  0  0  0  0  0  0  0
   -1.0468    0.2947    0.0000 C   0  0  0  0  0  0  0  0  0  0  0  0
   -1.7612   -0.1178    0.0000 C   0  0  1  0  0  0  0  0  0  0  0  0
   -2.5149    0.2178    0.0000 O   0  0  0  0  0  0  0  0  0  0  0  0
   -1.8475   -0.9383    0.0000 C   0  0  1  0  0  0  0  0  0  0  0  0
   -1.2344   -1.4903    0.0000 O   0  0  0  0  0  0  0  0  0  0  0  0
   -2.6544   -1.1098    0.0000 C   0  0  1  0  0  0  0  0  0  0  0  0
   -2.9900   -1.8635    0.0000 O   0  0  0  0  0  0  0  0  0  0  0  0
   -3.0669   -0.3953    0.0000 C   0  0  2  0  0  0  0  0  0  0  0  0
   -3.8874   -0.3091    0.0000 N   0  0  0  0  0  0  0  0  0  0  0  0
   -4.4394   -0.9222    0.0000 C   0  0  0  0  0  0  0  0  0  0  0  0
   -5.1931   -0.5866    0.0000 N   0  0  0  0  0  0  0  0  0  0  0  0
   -5.1069    0.2338    0.0000 C   0  0  0  0  0  0  0  0  0  0  0  0
   -4.2999    0.4054    0.0000 C   0  0  0  0  0  0  0  0  0  0  0  0
   -4.0450    1.1900    0.0000 N   0  0  0  0  0  0  0  0  0  0  0  0
   -4.5970    1.8031    0.0000 C   0  0  0  0  0  0  0  0  0  0  0  0
   -5.4040    1.6316    0.0000 N   0  0  0  0  0  0  0  0  0  0  0  0
   -5.6589    0.8469    0.0000 C   0  0  0  0  0  0  0  0  0  0  0  0
   -6.4659    0.6754    0.0000 N   0  0  0  0  0  0  0  0  0  0  0  0
    8.9558    0.2947    0.0000 C   0  0  0  0  0  0  0  0  0  0  0  0
    8.2414   -0.1178    0.0000 C   0  0  0  0  0  0  0  0  0  0  0  0
   -1.2715   -0.4358    0.0000 H   0  0  0  0  0  0  0  0  0  0  0  0
   -1.3023   -0.7290    0.0000 H   0  0  0  0  0  0  0  0  0  0  0  0
   -2.2870   -1.5636    0.0000 H   0  0  0  0  0  0  0  0  0  0  0  0
   -3.2762    0.1498    0.0000 H   0  0  0  0  0  0  0  0  0  0  0  0
    7.5269    1.3647    0.0000 H   0  0  0  0  0  0  0  0  0  0  0  0
    8.4535    0.8297    0.0000 H   0  0  0  0  0  0  0  0  0  0  0  0
    6.8124   -1.1878    0.0000 H   0  0  0  0  0  0  0  0  0  0  0  0
    5.8857   -0.6528    0.0000 H   0  0  0  0  0  0  0  0  0  0  0  0
    6.0980    1.3647    0.0000 H   0  0  0  0  0  0  0  0  0  0  0  0
    5.1714    0.8297    0.0000 H   0  0  0  0  0  0  0  0  0  0  0  0
    5.3835   -1.1878    0.0000 H   0  0  0  0  0  0  0  0  0  0  0  0
    4.4569   -0.6528    0.0000 H   0  0  0  0  0  0  0  0  0  0  0  0
    4.6690    1.3647    0.0000 H   0  0  0  0  0  0  0  0  0  0  0  0
    3.7424    0.8297    0.0000 H   0  0  0  0  0  0  0  0  0  0  0  0
    3.9545   -1.1878    0.0000 H   0  0  0  0  0  0  0  0  0  0  0  0
    3.0278   -0.6528    0.0000 H   0  0  0  0  0  0  0  0  0  0  0  0
    3.2401    1.3647    0.0000 H   0  0  0  0  0  0  0  0  0  0  0  0
    2.3135    0.8297    0.0000 H   0  0  0  0  0  0  0  0  0  0  0  0
    2.5256   -1.1878    0.0000 H   0  0  0  0  0  0  0  0  0  0  0  0
    1.5990   -0.6528    0.0000 H   0  0  0  0  0  0  0  0  0  0  0  0
    1.8111    1.3147    0.0000 H   0  0  0  0  0  0  0  0  0  0  0  0
    1.0967   -1.1878    0.0000 H   0  0  0  0  0  0  0  0  0  0  0  0
    0.1701   -0.6528    0.0000 H   0  0  0  0  0  0  0  0  0  0  0  0
    0.3822    1.3647    0.0000 H   0  0  0  0  0  0  0  0  0  0  0  0
   -0.5444    0.8297    0.0000 H   0  0  0  0  0  0  0  0  0  0  0  0
   -1.0468    1.3647    0.0000 H   0  0  0  0  0  0  0  0  0  0  0  0
   -1.9735    0.8297    0.0000 H   0  0  0  0  0  0  0  0  0  0  0  0
   -1.4360   -2.4391    0.0000 H   0  0  0  0  0  0  0  0  0  0  0  0
   -3.9547   -1.9649    0.0000 H   0  0  0  0  0  0  0  0  0  0  0  0
   -4.2248   -1.9316    0.0000 H   0  0  0  0  0  0  0  0  0  0  0  0
   -4.2781    2.7846    0.0000 H   0  0  0  0  0  0  0  0  0  0  0  0
   -7.1246    1.4071    0.0000 H   0  0  0  0  0  0  0  0  0  0  0  0
   -6.7702   -0.2609    0.0000 H   0  0  0  0  0  0  0  0  0  0  0  0
    9.8825   -0.2403    0.0000 H   0  0  0  0  0  0  0  0  0  0  0  0
    8.9558    1.3647    0.0000 H   0  0  0  0  0  0  0  0  0  0  0  0
    9.8824    0.8297    0.0000 H   0  0  0  0  0  0  0  0  0  0  0  0
    8.2414   -1.1878    0.0000 H   0  0  0  0  0  0  0  0  0  0  0  0
    9.1681   -0.6528    0.0000 H   0  0  0  0  0  0  0  0  0  0  0  0
  1  2  1  0  0  0  0
  1 32  1  0  0  0  0
  1 37  1  0  0  0  0
  1 38  1  0  0  0  0
  2  3  1  0  0  0  0
  2 39  1  0  0  0  0
  2 40  1  0  0  0  0
  3  4  1  0  0  0  0
  3 41  1  0  0  0  0
  3 42  1  0  0  0  0
  4  5  1  0  0  0  0
  4 43  1  0  0  0  0
  4 44  1  0  0  0  0
  5  6  1  0  0  0  0
  5 45  1  0  0  0  0
  5 46  1  0  0  0  0
  6  7  1  0  0  0  0
  6 47  1  0  0  0  0
  6 48  1  0  0  0  0
  7  8  1  0  0  0  0
  7 49  1  0  0  0  0
  7 50  1  0  0  0  0
  8  9  1  0  0  0  0
  8 51  1  0  0  0  0
  8 52  1  0  0  0  0
  9 10  1  0  0  0  0
  9 53  1  0  0  0  0
 10 11  1  0  0  0  0
 10 54  1  0  0  0  0
 10 55  1  0  0  0  0
 11 12  1  0  0  0  0
 11 56  1  0  0  0  0
 11 57  1  0  0  0  0
 13 12  1  0  0  0  0
 13 58  1  0  0  0  0
 13 59  1  0  0  0  0
 14 13  1  0  0  0  0
 14 16  1  0  0  0  0
 14 33  1  1  0  0  0
 15 14  1  0  0  0  0
 15 20  1  0  0  0  0
 16 18  1  0  0  0  0
 16 17  1  0  0  0  0
 16 34  1  6  0  0  0
 17 60  1  0  0  0  0
 18 19  1  0  0  0  0
 18 35  1  6  0  0  0
 19 61  1  0  0  0  0
 20 18  1  0  0  0  0
 20 36  1  1  0  0  0
 20 21  1  0  0  0  0
 21 25  1  0  0  0  0
 22 21  1  0  0  0  0
 22 62  1  0  0  0  0
 23 22  2  0  0  0  0
 23 24  1  0  0  0  0
 24 29  2  0  0  0  0
 24 25  1  0  0  0  0
 25 26  2  0  0  0  0
 26 27  1  0  0  0  0
 27 63  1  0  0  0  0
 28 27  2  0  0  0  0
 29 28  1  0  0  0  0
 30 29  1  0  0  0  0
 30 64  1  0  0  0  0
 30 65  1  0  0  0  0
 31 32  1  0  0  0  0
 31 66  1  0  0  0  0
 31 67  1  0  0  0  0
 31 68  1  0  0  0  0
 32 69  1  0  0  0  0
 32 70  1  0  0  0  0
M  END
>  <DRUGBANK_ID>
DB07413

>  <COMMON_NAME>
5'-S-[2-(decylamino)ethyl]-5'-thioadenosine

$$$$
