
 OpenBabel10282417072D

 41 42  0  0  0  0  0  0  0  0999 V2000
    0.4994    1.7597    0.0000 O   0  0  0  0  0  0  0  0  0  0  0  0
    0.6836    0.7152    0.0000 C   0  0  0  0  0  0  0  0  0  0  0  0
    1.4682    0.9702    0.0000 S   0  0  0  0  0  0  0  0  0  0  0  0
    2.7782   -0.5221    0.0000 N   0  0  0  0  0  0  0  0  0  0  0  0
    3.6032    0.3028    0.0000 O   0  0  0  0  0  0  0  0  0  0  0  0
    2.7781    1.1278    0.0000 O   0  0  0  0  0  0  0  0  0  0  0  0
    2.7781    0.3028    0.0000 S   0  0  0  0  0  0  0  0  0  0  0  0
    1.9531    0.3028    0.0000 C   0  0  0  0  0  0  0  0  0  0  0  0
    1.4682   -0.3647    0.0000 C   0  0  0  0  0  0  0  0  0  0  0  0
    0.6836   -0.1097    0.0000 C   0  0  0  0  0  0  0  0  0  0  0  0
   -1.4597   -1.3471    0.0000 C   0  0  0  0  0  0  0  0  0  0  0  0
   -0.7452   -1.7597    0.0000 C   0  0  0  0  0  0  0  0  0  0  0  0
   -0.0307   -1.3471    0.0000 N   0  0  0  0  0  0  0  0  0  0  0  0
   -0.0307   -0.5221    0.0000 C   0  0  1  0  0  0  0  0  0  0  0  0
   -0.7452   -0.1097    0.0000 C   0  0  0  0  0  0  0  0  0  0  0  0
   -3.6032    0.7152    0.0000 C   0  0  0  0  0  0  0  0  0  0  0  0
   -2.8887    1.1278    0.0000 O   0  0  0  0  0  0  0  0  0  0  0  0
   -2.1743    0.7152    0.0000 C   0  0  0  0  0  0  0  0  0  0  0  0
   -1.4597    1.1278    0.0000 C   0  0  0  0  0  0  0  0  0  0  0  0
   -0.7452    0.7152    0.0000 N   0  0  0  0  0  0  0  0  0  0  0  0
   -0.0307    1.1278    0.0000 S   0  0  0  0  0  0  0  0  0  0  0  0
   -0.5610    1.7597    0.0000 O   0  0  0  0  0  0  0  0  0  0  0  0
    1.8949   -1.0322    0.0000 H   0  0  0  0  0  0  0  0  0  0  0  0
    3.6616   -1.0320    0.0000 H   0  0  0  0  0  0  0  0  0  0  0  0
    1.7871   -1.3462    0.0000 H   0  0  0  0  0  0  0  0  0  0  0  0
   -1.4596   -0.2771    0.0000 H   0  0  0  0  0  0  0  0  0  0  0  0
   -2.3864   -1.8820    0.0000 H   0  0  0  0  0  0  0  0  0  0  0  0
   -2.3863   -0.8120    0.0000 H   0  0  0  0  0  0  0  0  0  0  0  0
   -0.7452   -2.8297    0.0000 H   0  0  0  0  0  0  0  0  0  0  0  0
    0.1815   -2.2947    0.0000 H   0  0  0  0  0  0  0  0  0  0  0  0
    0.8527   -1.8571    0.0000 H   0  0  0  0  0  0  0  0  0  0  0  0
    0.8959   -1.0571    0.0000 H   0  0  0  0  0  0  0  0  0  0  0  0
   -1.6718   -0.6448    0.0000 H   0  0  0  0  0  0  0  0  0  0  0  0
   -1.6719    0.4253    0.0000 H   0  0  0  0  0  0  0  0  0  0  0  0
   -4.5299    1.2501    0.0000 H   0  0  0  0  0  0  0  0  0  0  0  0
   -3.6031   -0.3548    0.0000 H   0  0  0  0  0  0  0  0  0  0  0  0
   -4.5298    0.1801    0.0000 H   0  0  0  0  0  0  0  0  0  0  0  0
   -2.1744   -0.3548    0.0000 H   0  0  0  0  0  0  0  0  0  0  0  0
   -1.2477    0.1802    0.0000 H   0  0  0  0  0  0  0  0  0  0  0  0
   -1.4597    2.1978    0.0000 H   0  0  0  0  0  0  0  0  0  0  0  0
   -0.5330    1.6627    0.0000 H   0  0  0  0  0  0  0  0  0  0  0  0
  2 10  2  0  0  0  0
  2  3  1  0  0  0  0
  3  8  1  0  0  0  0
  4 23  1  0  0  0  0
  4 24  1  0  0  0  0
  7  4  1  0  0  0  0
  7  5  2  0  0  0  0
  7  6  2  0  0  0  0
  8  7  1  0  0  0  0
  9  8  2  0  0  0  0
  9 25  1  0  0  0  0
 10  9  1  0  0  0  0
 10 14  1  0  0  0  0
 11 26  1  0  0  0  0
 11 27  1  0  0  0  0
 11 28  1  0  0  0  0
 12 11  1  0  0  0  0
 12 29  1  0  0  0  0
 12 30  1  0  0  0  0
 13 12  1  0  0  0  0
 13 31  1  0  0  0  0
 14 13  1  0  0  0  0
 14 32  1  6  0  0  0
 15 14  1  0  0  0  0
 15 33  1  0  0  0  0
 15 34  1  0  0  0  0
 16 35  1  0  0  0  0
 16 36  1  0  0  0  0
 16 37  1  0  0  0  0
 17 16  1  0  0  0  0
 18 17  1  0  0  0  0
 18 38  1  0  0  0  0
 18 39  1  0  0  0  0
 19 18  1  0  0  0  0
 19 40  1  0  0  0  0
 19 41  1  0  0  0  0
 20 15  1  0  0  0  0
 20 19  1  0  0  0  0
 21  1  2  0  0  0  0
 21  2  1  0  0  0  0
 21 20  1  0  0  0  0
 22 21  2  0  0  0  0
M  END
>  <DRUGBANK_ID>
DB03877

>  <SECONDARY_ACCESSION_NUMBERS>
EXPT00489

>  <COMMON_NAME>
AL-4623

>  <CAS_NUMBER>
138890-59-2

>  <UNII>
1M7AKN51DU

$$$$
