279
 OpenBabel10282417072D

 50 52  0  0  0  0  0  0  0  0999 V2000
    2.5856   -1.3296    0.0000 C   0  0  0  0  0  0  0  0  0  0  0  0
    2.5856   -0.5046    0.0000 C   0  0  0  0  0  0  0  0  0  0  0  0
    1.1567   -1.3296    0.0000 C   0  0  0  0  0  0  0  0  0  0  0  0
   -1.0569    2.2253    0.0000 C   0  0  0  0  0  0  0  0  0  0  0  0
    1.8712   -1.7421    0.0000 C   0  0  0  0  0  0  0  0  0  0  0  0
   -1.5418    1.5579    0.0000 C   0  0  0  0  0  0  0  0  0  0  0  0
    1.8712   -0.0921    0.0000 C   0  0  0  0  0  0  0  0  0  0  0  0
   -1.0569    0.8904    0.0000 C   0  0  0  0  0  0  0  0  0  0  0  0
    1.1567   -0.5046    0.0000 C   0  0  0  0  0  0  0  0  0  0  0  0
   -0.2723    1.1454    0.0000 C   0  0  0  0  0  0  0  0  0  0  0  0
    1.1567    1.9704    0.0000 C   0  0  0  0  0  0  0  0  0  0  0  0
    0.4422    0.7329    0.0000 C   0  0  0  0  0  0  0  0  0  0  0  0
    1.8712   -2.5671    0.0000 C   0  0  0  0  0  0  0  0  0  0  0  0
   -2.3668    1.5579    0.0000 C   0  0  0  0  0  0  0  0  0  0  0  0
    1.8712    0.7329    0.0000 C   0  0  0  0  0  0  0  0  0  0  0  0
   -1.3118    0.1058    0.0000 C   0  0  0  0  0  0  0  0  0  0  0  0
   -4.0168    2.9868    0.0000 C   0  0  0  0  0  0  0  0  0  0  0  0
    3.3001   -4.2171    0.0000 C   0  0  0  0  0  0  0  0  0  0  0  0
   -3.6043    2.2723    0.0000 C   0  0  0  0  0  0  0  0  0  0  0  0
    0.4422    2.3829    0.0000 N   0  0  0  0  0  0  0  0  0  0  0  0
    1.1567    1.1454    0.0000 N   0  0  0  0  0  0  0  0  0  0  0  0
   -0.2723    1.9704    0.0000 N   0  0  0  0  0  0  0  0  0  0  0  0
    0.4422   -0.0921    0.0000 N   0  0  0  0  0  0  0  0  0  0  0  0
   -2.7793    2.2723    0.0000 N   0  0  0  0  0  0  0  0  0  0  0  0
    2.5856   -2.9796    0.0000 N   0  0  0  0  0  0  0  0  0  0  0  0
    1.1567   -2.9796    0.0000 O   0  0  0  0  0  0  0  0  0  0  0  0
   -2.7793    0.8434    0.0000 O   0  0  0  0  0  0  0  0  0  0  0  0
    2.5856   -3.8046    0.0000 O   0  0  0  0  0  0  0  0  0  0  0  0
    3.4793   -1.8456    0.0000 H   0  0  0  0  0  0  0  0  0  0  0  0
    3.4793    0.0114    0.0000 H   0  0  0  0  0  0  0  0  0  0  0  0
    0.2630   -1.8456    0.0000 H   0  0  0  0  0  0  0  0  0  0  0  0
   -1.3758    3.2068    0.0000 H   0  0  0  0  0  0  0  0  0  0  0  0
    2.0504    2.4864    0.0000 H   0  0  0  0  0  0  0  0  0  0  0  0
    2.7978    1.2679    0.0000 H   0  0  0  0  0  0  0  0  0  0  0  0
    0.9446    1.2679    0.0000 H   0  0  0  0  0  0  0  0  0  0  0  0
    1.8712    1.8029    0.0000 H   0  0  0  0  0  0  0  0  0  0  0  0
   -2.3584   -0.1167    0.0000 H   0  0  0  0  0  0  0  0  0  0  0  0
   -0.5958   -0.6893    0.0000 H   0  0  0  0  0  0  0  0  0  0  0  0
   -1.6424   -0.9118    0.0000 H   0  0  0  0  0  0  0  0  0  0  0  0
   -3.4818    3.9134    0.0000 H   0  0  0  0  0  0  0  0  0  0  0  0
   -5.0868    2.9868    0.0000 H   0  0  0  0  0  0  0  0  0  0  0  0
   -4.5518    3.9135    0.0000 H   0  0  0  0  0  0  0  0  0  0  0  0
    3.3001   -5.2871    0.0000 H   0  0  0  0  0  0  0  0  0  0  0  0
    4.2267   -3.6821    0.0000 H   0  0  0  0  0  0  0  0  0  0  0  0
    4.2268   -4.7521    0.0000 H   0  0  0  0  0  0  0  0  0  0  0  0
   -4.1393    1.3457    0.0000 H   0  0  0  0  0  0  0  0  0  0  0  0
   -3.0693    1.3457    0.0000 H   0  0  0  0  0  0  0  0  0  0  0  0
   -0.4104   -0.5844    0.0000 H   0  0  0  0  0  0  0  0  0  0  0  0
   -2.2871    3.1249    0.0000 H   0  0  0  0  0  0  0  0  0  0  0  0
    3.4382   -2.4874    0.0000 H   0  0  0  0  0  0  0  0  0  0  0  0
  1  5  2  0  0  0  0
  1  2  1  0  0  0  0
  1 29  1  0  0  0  0
  2  7  2  0  0  0  0
  2 30  1  0  0  0  0
  3  9  2  0  0  0  0
  3 31  1  0  0  0  0
  4 32  1  0  0  0  0
  5  3  1  0  0  0  0
  6 14  1  0  0  0  0
  6  4  2  0  0  0  0
  7  9  1  0  0  0  0
  7 15  1  0  0  0  0
  8  6  1  0  0  0  0
  9 23  1  0  0  0  0
 10  8  2  0  0  0  0
 10 22  1  0  0  0  0
 11 20  2  0  0  0  0
 11 33  1  0  0  0  0
 12 21  2  0  0  0  0
 12 10  1  0  0  0  0
 13 26  2  0  0  0  0
 13  5  1  0  0  0  0
 14 24  1  0  0  0  0
 15 34  1  0  0  0  0
 15 35  1  0  0  0  0
 15 36  1  0  0  0  0
 16  8  1  0  0  0  0
 16 37  1  0  0  0  0
 16 38  1  0  0  0  0
 16 39  1  0  0  0  0
 17 19  1  0  0  0  0
 17 40  1  0  0  0  0
 17 41  1  0  0  0  0
 17 42  1  0  0  0  0
 18 28  1  0  0  0  0
 18 43  1  0  0  0  0
 18 44  1  0  0  0  0
 18 45  1  0  0  0  0
 19 46  1  0  0  0  0
 19 47  1  0  0  0  0
 21 11  1  0  0  0  0
 22 20  1  0  0  0  0
 22  4  1  0  0  0  0
 23 12  1  0  0  0  0
 23 48  1  0  0  0  0
 24 19  1  0  0  0  0
 24 49  1  0  0  0  0
 25 13  1  0  0  0  0
 25 50  1  0  0  0  0
 27 14  2  0  0  0  0
 28 25  1  0  0  0  0
M  END
>  <DRUGBANK_ID>
DB06940

>  <COMMON_NAME>
N-ethyl-4-{[5-(methoxycarbamoyl)-2-methylphenyl]amino}-5-methylpyrrolo[2,1-f][1,2,4]triazine-6-carboxamide

$$$$
