
 OpenBabel10282417072D

 83 86  0  0  0  0  0  0  0  0999 V2000
   -0.7351   -0.7606    0.0000 Cu  0  3  0  0  0  0  0  0  0  0  0  0
   -0.0568    4.6425    0.0000 O   0  0  0  0  0  0  0  0  0  0  0  0
    4.7195    0.0729    0.0000 O   0  0  0  0  0  0  0  0  0  0  0  0
    1.1588    3.7867    0.0000 O   0  0  0  0  0  0  0  0  0  0  0  0
    3.8190    1.2561    0.0000 O   0  0  0  0  0  0  0  0  0  0  0  0
   -1.9276   -0.7381    0.0000 N   0  0  0  0  0  0  0  0  0  0  0  0
   -0.7310    0.3766    0.0000 N   0  0  0  0  0  0  0  0  0  0  0  0
   -0.7036   -1.8528    0.0000 N   0  0  0  0  0  0  0  0  0  0  0  0
    0.5186   -0.7381    0.0000 N   0  5  0  0  0  0  0  0  0  0  0  0
   -2.3894   -1.3637    0.0000 C   0  0  0  0  0  0  0  0  0  0  0  0
   -2.3894   -0.1126    0.0000 C   0  0  0  0  0  0  0  0  0  0  0  0
   -1.3838    0.8931    0.0000 C   0  0  0  0  0  0  0  0  0  0  0  0
   -1.3564   -2.3695    0.0000 C   0  0  0  0  0  0  0  0  0  0  0  0
   -1.5336    0.0245    0.0000 C   0  0  0  0  0  0  0  0  0  0  0  0
   -0.0509    0.9203    0.0000 C   0  0  0  0  0  0  0  0  0  0  0  0
   -0.0509   -2.3423    0.0000 C   0  0  0  0  0  0  0  0  0  0  0  0
    0.9807   -0.0854    0.0000 C   0  0  0  0  0  0  0  0  0  0  0  0
    1.0081   -1.3364    0.0000 C   0  0  0  0  0  0  0  0  0  0  0  0
   -3.1771   -1.1456    0.0000 C   0  0  0  0  0  0  0  0  0  0  0  0
   -3.1771   -0.3308    0.0000 C   0  0  0  0  0  0  0  0  0  0  0  0
   -2.1442   -2.1241    0.0000 C   0  0  0  0  0  0  0  0  0  0  0  0
   -2.1715    0.6750    0.0000 C   0  0  0  0  0  0  0  0  0  0  0  0
    0.7368    0.6750    0.0000 C   0  0  0  0  0  0  0  0  0  0  0  0
    0.7639   -2.1241    0.0000 C   0  0  0  0  0  0  0  0  0  0  0  0
   -0.3234    1.6807    0.0000 C   0  0  0  0  0  0  0  0  0  0  0  0
   -1.1384    1.6807    0.0000 C   0  0  0  0  0  0  0  0  0  0  0  0
   -1.1112   -3.1300    0.0000 C   0  0  0  0  0  0  0  0  0  0  0  0
   -0.2961   -3.1300    0.0000 C   0  0  0  0  0  0  0  0  0  0  0  0
    1.7698   -0.3034    0.0000 C   0  0  0  0  0  0  0  0  0  0  0  0
    1.7698   -1.1183    0.0000 C   0  0  0  0  0  0  0  0  0  0  0  0
   -3.8603   -1.6655    0.0000 C   0  0  0  0  0  0  0  0  0  0  0  0
   -3.8603    0.1890    0.0000 C   0  0  0  0  0  0  0  0  0  0  0  0
    0.1706    2.3828    0.0000 C   0  0  0  0  0  0  0  0  0  0  0  0
    0.1330   -3.8733    0.0000 C   0  0  0  0  0  0  0  0  0  0  0  0
    2.4528    0.2163    0.0000 C   0  0  0  0  0  0  0  0  0  0  0  0
   -1.6472    2.3722    0.0000 C   0  0  0  0  0  0  0  0  0  0  0  0
   -1.6163   -3.8239    0.0000 C   0  0  0  0  0  0  0  0  0  0  0  0
    2.4551   -1.6351    0.0000 C   0  0  0  0  0  0  0  0  0  0  0  0
   -4.6520   -1.3336    0.0000 C   0  0  0  0  0  0  0  0  0  0  0  0
   -0.1901    3.1616    0.0000 C   0  0  0  0  0  0  0  0  0  0  0  0
    3.2446   -0.1152    0.0000 C   0  0  0  0  0  0  0  0  0  0  0  0
   -0.2961   -4.6168    0.0000 C   0  0  0  0  0  0  0  0  0  0  0  0
    0.3038    3.8635    0.0000 C   0  0  0  0  0  0  0  0  0  0  0  0
    3.9276    0.4046    0.0000 C   0  0  0  0  0  0  0  0  0  0  0  0
    0.4828    5.4085    0.0000 H   0  0  0  0  0  0  0  0  0  0  0  0
    4.8381   -0.8566    0.0000 H   0  0  0  0  0  0  0  0  0  0  0  0
   -0.4648    0.0745    0.0000 H   0  0  0  0  0  0  0  0  0  0  0  0
   -2.1113    0.9252    0.0000 H   0  0  0  0  0  0  0  0  0  0  0  0
   -1.0425    0.9751    0.0000 H   0  0  0  0  0  0  0  0  0  0  0  0
   -2.8703   -2.8575    0.0000 H   0  0  0  0  0  0  0  0  0  0  0  0
   -2.9013    1.4047    0.0000 H   0  0  0  0  0  0  0  0  0  0  0  0
    1.4634    1.4078    0.0000 H   0  0  0  0  0  0  0  0  0  0  0  0
    1.4793   -2.8679    0.0000 H   0  0  0  0  0  0  0  0  0  0  0  0
   -3.7250   -2.7269    0.0000 H   0  0  0  0  0  0  0  0  0  0  0  0
   -4.7119   -2.3133    0.0000 H   0  0  0  0  0  0  0  0  0  0  0  0
   -3.7250    1.2504    0.0000 H   0  0  0  0  0  0  0  0  0  0  0  0
   -4.8472   -0.2245    0.0000 H   0  0  0  0  0  0  0  0  0  0  0  0
   -4.7119    0.8369    0.0000 H   0  0  0  0  0  0  0  0  0  0  0  0
    1.2363    2.2869    0.0000 H   0  0  0  0  0  0  0  0  0  0  0  0
    0.7865    3.2577    0.0000 H   0  0  0  0  0  0  0  0  0  0  0  0
    1.2030   -3.8732    0.0000 H   0  0  0  0  0  0  0  0  0  0  0  0
    0.6681   -4.7999    0.0000 H   0  0  0  0  0  0  0  0  0  0  0  0
    2.3173    1.2777    0.0000 H   0  0  0  0  0  0  0  0  0  0  0  0
    3.3042    0.8644    0.0000 H   0  0  0  0  0  0  0  0  0  0  0  0
   -1.2179    3.3523    0.0000 H   0  0  0  0  0  0  0  0  0  0  0  0
   -2.7106    2.2539    0.0000 H   0  0  0  0  0  0  0  0  0  0  0  0
   -2.2813    3.2340    0.0000 H   0  0  0  0  0  0  0  0  0  0  0  0
   -2.6803   -3.7111    0.0000 H   0  0  0  0  0  0  0  0  0  0  0  0
   -1.1820   -4.8018    0.0000 H   0  0  0  0  0  0  0  0  0  0  0  0
   -2.2460   -4.6890    0.0000 H   0  0  0  0  0  0  0  0  0  0  0  0
    2.3243   -2.6971    0.0000 H   0  0  0  0  0  0  0  0  0  0  0  0
    3.4402   -1.2174    0.0000 H   0  0  0  0  0  0  0  0  0  0  0  0
    3.3094   -2.2794    0.0000 H   0  0  0  0  0  0  0  0  0  0  0  0
   -4.7871   -0.2722    0.0000 H   0  0  0  0  0  0  0  0  0  0  0  0
   -5.5037   -1.9813    0.0000 H   0  0  0  0  0  0  0  0  0  0  0  0
   -5.6388   -0.9199    0.0000 H   0  0  0  0  0  0  0  0  0  0  0  0
   -1.2558    3.2575    0.0000 H   0  0  0  0  0  0  0  0  0  0  0  0
   -0.6400    4.1324    0.0000 H   0  0  0  0  0  0  0  0  0  0  0  0
    3.3801   -1.1766    0.0000 H   0  0  0  0  0  0  0  0  0  0  0  0
    4.2315   -0.5285    0.0000 H   0  0  0  0  0  0  0  0  0  0  0  0
   -1.3661   -4.6170    0.0000 H   0  0  0  0  0  0  0  0  0  0  0  0
    0.2390   -5.5434    0.0000 H   0  0  0  0  0  0  0  0  0  0  0  0
   -0.8310   -5.5435    0.0000 H   0  0  0  0  0  0  0  0  0  0  0  0
  2 43  1  0  0  0  0
  2 45  1  0  0  0  0
  3 44  1  0  0  0  0
  3 46  1  0  0  0  0
  4 43  2  0  0  0  0
  5 44  2  0  0  0  0
  6 10  1  0  0  0  0
  6 11  1  0  0  0  0
  6 14  1  0  0  0  0
  7 12  1  0  0  0  0
  7 15  2  0  0  0  0
  8 13  1  0  0  0  0
  8 16  2  0  0  0  0
  9 17  1  0  0  0  0
  9 18  1  0  0  0  0
 10 19  2  0  0  0  0
 10 21  1  0  0  0  0
 11 20  2  0  0  0  0
 11 22  1  0  0  0  0
 12 22  2  0  0  0  0
 12 26  1  0  0  0  0
 13 21  2  0  0  0  0
 13 27  1  0  0  0  0
 14 47  1  0  0  0  0
 14 48  1  0  0  0  0
 14 49  1  0  0  0  0
 15 23  1  0  0  0  0
 15 25  1  0  0  0  0
 16 24  1  0  0  0  0
 16 28  1  0  0  0  0
 17 23  2  0  0  0  0
 17 29  1  0  0  0  0
 18 24  2  0  0  0  0
 18 30  1  0  0  0  0
 19 20  1  0  0  0  0
 19 31  1  0  0  0  0
 20 32  1  0  0  0  0
 21 50  1  0  0  0  0
 22 51  1  0  0  0  0
 23 52  1  0  0  0  0
 24 53  1  0  0  0  0
 25 26  2  0  0  0  0
 25 33  1  0  0  0  0
 26 36  1  0  0  0  0
 27 28  2  0  0  0  0
 27 37  1  0  0  0  0
 28 34  1  0  0  0  0
 29 30  2  0  0  0  0
 29 35  1  0  0  0  0
 30 38  1  0  0  0  0
 31 39  1  0  0  0  0
 31 54  1  0  0  0  0
 31 55  1  0  0  0  0
 32 56  1  0  0  0  0
 32 57  1  0  0  0  0
 32 58  1  0  0  0  0
 33 40  1  0  0  0  0
 33 59  1  0  0  0  0
 33 60  1  0  0  0  0
 34 42  1  0  0  0  0
 34 61  1  0  0  0  0
 34 62  1  0  0  0  0
 35 41  1  0  0  0  0
 35 63  1  0  0  0  0
 35 64  1  0  0  0  0
 36 65  1  0  0  0  0
 36 66  1  0  0  0  0
 36 67  1  0  0  0  0
 37 68  1  0  0  0  0
 37 69  1  0  0  0  0
 37 70  1  0  0  0  0
 38 71  1  0  0  0  0
 38 72  1  0  0  0  0
 38 73  1  0  0  0  0
 39 74  1  0  0  0  0
 39 75  1  0  0  0  0
 39 76  1  0  0  0  0
 40 43  1  0  0  0  0
 40 77  1  0  0  0  0
 40 78  1  0  0  0  0
 41 44  1  0  0  0  0
 41 79  1  0  0  0  0
 41 80  1  0  0  0  0
 42 81  1  0  0  0  0
 42 82  1  0  0  0  0
 42 83  1  0  0  0  0
M  CHG  2   1   1   9  -1
M  END
>  <DRUGBANK_ID>
DB02188

>  <SECONDARY_ACCESSION_NUMBERS>
EXPT02216

>  <COMMON_NAME>
N-Methylmesoporphyrin containing copper

>  <SYNONYMS>
3-[18-(2-Carboxyethyl)-7,12-diethyl-3,8,13,17,23-pentamethylporphyrin-21-id-2-yl]propanoic acid;copper(1+)

$$$$
