D3E
 OpenBabel10282417072D

 58 61  0  0  0  0  0  0  0  0999 V2000
    4.6241   -2.0081    0.0000 F   0  0  0  0  0  0  0  0  0  0  0  0
    3.9096   -1.5956    0.0000 C   0  0  0  0  0  0  0  0  0  0  0  0
    4.3221   -0.8811    0.0000 F   0  0  0  0  0  0  0  0  0  0  0  0
    3.4971   -2.3100    0.0000 F   0  0  0  0  0  0  0  0  0  0  0  0
    3.1952   -1.1831    0.0000 C   0  0  1  0  0  0  0  0  0  0  0  0
    3.6077   -0.4686    0.0000 C   0  0  0  0  0  0  0  0  0  0  0  0
    2.7827   -1.8975    0.0000 O   0  0  0  0  0  0  0  0  0  0  0  0
    2.4807   -0.7706    0.0000 C   0  0  0  0  0  0  0  0  0  0  0  0
    1.7662   -1.1831    0.0000 C   0  0  0  0  0  0  0  0  0  0  0  0
    1.0517   -0.7706    0.0000 C   0  0  0  0  0  0  0  0  0  0  0  0
    1.0517    0.0544    0.0000 C   0  0  0  0  0  0  0  0  0  0  0  0
    1.7662    0.4669    0.0000 C   0  0  0  0  0  0  0  0  0  0  0  0
    2.4807    0.0544    0.0000 C   0  0  0  0  0  0  0  0  0  0  0  0
    0.3373    0.4669    0.0000 C   0  0  0  0  0  0  0  0  0  0  0  0
    0.3373    1.2919    0.0000 O   0  0  0  0  0  0  0  0  0  0  0  0
   -0.3772    0.0544    0.0000 N   0  0  0  0  0  0  0  0  0  0  0  0
   -0.3772   -0.7706    0.0000 C   0  0  0  0  0  0  0  0  0  0  0  0
    0.0353   -1.4850    0.0000 C   0  0  0  0  0  0  0  0  0  0  0  0
   -0.7897   -1.4850    0.0000 C   0  0  0  0  0  0  0  0  0  0  0  0
   -1.0917    0.4669    0.0000 C   0  0  2  0  0  0  0  0  0  0  0  0
   -1.8061    0.0544    0.0000 C   0  0  0  0  0  0  0  0  0  0  0  0
   -2.5206    0.4669    0.0000 C   0  0  0  0  0  0  0  0  0  0  0  0
   -2.5206    1.2919    0.0000 C   0  0  2  0  0  0  0  0  0  0  0  0
   -1.8061    1.7044    0.0000 C   0  0  0  0  0  0  0  0  0  0  0  0
   -1.0917    1.2919    0.0000 C   0  0  0  0  0  0  0  0  0  0  0  0
   -3.2351    1.7044    0.0000 C   0  0  0  0  0  0  0  0  0  0  0  0
   -3.9495    1.2919    0.0000 C   0  0  0  0  0  0  0  0  0  0  0  0
   -4.6640    1.7044    0.0000 C   0  0  0  0  0  0  0  0  0  0  0  0
   -4.6640    2.5294    0.0000 C   0  0  0  0  0  0  0  0  0  0  0  0
   -3.9495    2.9419    0.0000 N   0  0  0  0  0  0  0  0  0  0  0  0
   -3.2351    2.5294    0.0000 C   0  0  0  0  0  0  0  0  0  0  0  0
   -1.0917   -0.1170    0.0000 H   0  0  0  0  0  0  0  0  0  0  0  0
   -3.0263    1.0000    0.0000 H   0  0  0  0  0  0  0  0  0  0  0  0
    4.6777   -0.4686    0.0000 H   0  0  0  0  0  0  0  0  0  0  0  0
    3.0727    0.4580    0.0000 H   0  0  0  0  0  0  0  0  0  0  0  0
    4.1427    0.4581    0.0000 H   0  0  0  0  0  0  0  0  0  0  0  0
    1.8127   -1.8975    0.0000 H   0  0  0  0  0  0  0  0  0  0  0  0
    1.7662   -2.2151    0.0000 H   0  0  0  0  0  0  0  0  0  0  0  0
    0.1580   -1.2866    0.0000 H   0  0  0  0  0  0  0  0  0  0  0  0
    1.7662    1.4989    0.0000 H   0  0  0  0  0  0  0  0  0  0  0  0
    3.3744    0.5704    0.0000 H   0  0  0  0  0  0  0  0  0  0  0  0
   -0.3772   -1.8406    0.0000 H   0  0  0  0  0  0  0  0  0  0  0  0
    0.9620   -2.0200    0.0000 H   0  0  0  0  0  0  0  0  0  0  0  0
   -0.2416   -2.5185    0.0000 H   0  0  0  0  0  0  0  0  0  0  0  0
   -1.7164   -2.0200    0.0000 H   0  0  0  0  0  0  0  0  0  0  0  0
   -0.5128   -2.5185    0.0000 H   0  0  0  0  0  0  0  0  0  0  0  0
   -1.8061   -1.0156    0.0000 H   0  0  0  0  0  0  0  0  0  0  0  0
   -2.7327   -0.4806    0.0000 H   0  0  0  0  0  0  0  0  0  0  0  0
   -3.4472   -0.0681    0.0000 H   0  0  0  0  0  0  0  0  0  0  0  0
   -3.4472    1.0019    0.0000 H   0  0  0  0  0  0  0  0  0  0  0  0
   -1.8061    2.7744    0.0000 H   0  0  0  0  0  0  0  0  0  0  0  0
   -0.8794    2.2394    0.0000 H   0  0  0  0  0  0  0  0  0  0  0  0
   -0.1650    1.8269    0.0000 H   0  0  0  0  0  0  0  0  0  0  0  0
   -1.0917    2.3619    0.0000 H   0  0  0  0  0  0  0  0  0  0  0  0
   -3.9495    0.2599    0.0000 H   0  0  0  0  0  0  0  0  0  0  0  0
   -5.5577    1.1884    0.0000 H   0  0  0  0  0  0  0  0  0  0  0  0
   -5.5577    3.0454    0.0000 H   0  0  0  0  0  0  0  0  0  0  0  0
   -2.3414    3.0454    0.0000 H   0  0  0  0  0  0  0  0  0  0  0  0
  1  2  1  0  0  0  0
  2  3  1  0  0  0  0
  2  4  1  0  0  0  0
  2  5  1  0  0  0  0
  5  6  1  0  0  0  0
  5  7  1  6  0  0  0
  5  8  1  0  0  0  0
  6 34  1  0  0  0  0
  6 35  1  0  0  0  0
  6 36  1  0  0  0  0
  7 37  1  0  0  0  0
  8  9  2  0  0  0  0
  8 13  1  0  0  0  0
  9 10  1  0  0  0  0
  9 38  1  0  0  0  0
 10 11  2  0  0  0  0
 10 39  1  0  0  0  0
 11 12  1  0  0  0  0
 11 14  1  0  0  0  0
 12 13  2  0  0  0  0
 12 40  1  0  0  0  0
 13 41  1  0  0  0  0
 14 15  2  0  0  0  0
 14 16  1  0  0  0  0
 16 17  1  0  0  0  0
 17 18  1  0  0  0  0
 17 19  1  0  0  0  0
 17 42  1  0  0  0  0
 18 19  1  0  0  0  0
 18 43  1  0  0  0  0
 18 44  1  0  0  0  0
 19 45  1  0  0  0  0
 19 46  1  0  0  0  0
 20 16  1  0  0  0  0
 20 21  1  0  0  0  0
 20 25  1  0  0  0  0
 20 32  1  1  0  0  0
 21 22  1  0  0  0  0
 21 47  1  0  0  0  0
 21 48  1  0  0  0  0
 22 23  1  0  0  0  0
 22 49  1  0  0  0  0
 22 50  1  0  0  0  0
 23 24  1  0  0  0  0
 23 26  1  0  0  0  0
 23 33  1  6  0  0  0
 24 25  1  0  0  0  0
 24 51  1  0  0  0  0
 24 52  1  0  0  0  0
 25 53  1  0  0  0  0
 25 54  1  0  0  0  0
 26 27  2  0  0  0  0
 26 31  1  0  0  0  0
 27 28  1  0  0  0  0
 27 55  1  0  0  0  0
 28 29  2  0  0  0  0
 28 56  1  0  0  0  0
 29 30  1  0  0  0  0
 29 57  1  0  0  0  0
 30 31  2  0  0  0  0
 31 58  1  0  0  0  0
M  END
>  <DRUGBANK_ID>
DB07619

>  <COMMON_NAME>
N-cyclopropyl-N-(trans-4-pyridin-3-ylcyclohexyl)-4-[(1S)-2,2,2-trifluoro-1-hydroxy-1-methylethyl]benzamide

$$$$
