H16
 OpenBabel10282417072D

 44 46  0  0  0  0  0  0  0  0999 V2000
    0.3972    1.0124    0.0000 C   0  0  0  0  0  0  0  0  0  0  0  0
   -0.3173    0.5999    0.0000 C   0  0  0  0  0  0  0  0  0  0  0  0
   -1.0317    1.0124    0.0000 C   0  0  0  0  0  0  0  0  0  0  0  0
   -1.0317    1.8374    0.0000 C   0  0  0  0  0  0  0  0  0  0  0  0
   -0.3173    2.2499    0.0000 C   0  0  0  0  0  0  0  0  0  0  0  0
    0.3972    1.8374    0.0000 C   0  0  0  0  0  0  0  0  0  0  0  0
    1.1117   -1.8751    0.0000 N   0  0  0  0  0  0  0  0  0  0  0  0
    0.3972   -1.4626    0.0000 C   0  0  0  0  0  0  0  0  0  0  0  0
   -0.3173   -1.8751    0.0000 O   0  0  0  0  0  0  0  0  0  0  0  0
    0.3972   -0.6376    0.0000 C   0  0  0  0  0  0  0  0  0  0  0  0
    1.1117   -0.2251    0.0000 C   0  0  0  0  0  0  0  0  0  0  0  0
    1.1117    0.5999    0.0000 S   0  0  0  0  0  0  0  0  0  0  0  0
    1.8262   -1.4626    0.0000 C   0  0  0  0  0  0  0  0  0  0  0  0
    1.8262   -0.6376    0.0000 C   0  0  0  0  0  0  0  0  0  0  0  0
    2.5406   -0.2251    0.0000 C   0  0  0  0  0  0  0  0  0  0  0  0
    3.2551   -0.6376    0.0000 C   0  0  0  0  0  0  0  0  0  0  0  0
    3.2551   -1.4626    0.0000 C   0  0  0  0  0  0  0  0  0  0  0  0
    2.5406   -1.8751    0.0000 C   0  0  0  0  0  0  0  0  0  0  0  0
    3.9696   -0.2251    0.0000 Cl  0  0  0  0  0  0  0  0  0  0  0  0
   -0.3173   -0.2251    0.0000 C   0  0  0  0  0  0  0  0  0  0  0  0
   -1.0317   -0.6376    0.0000 C   0  0  0  0  0  0  0  0  0  0  0  0
   -1.7462   -0.2251    0.0000 C   0  0  0  0  0  0  0  0  0  0  0  0
    1.3238    1.5474    0.0000 H   0  0  0  0  0  0  0  0  0  0  0  0
   -0.3173   -0.4701    0.0000 H   0  0  0  0  0  0  0  0  0  0  0  0
   -1.2440    0.0649    0.0000 H   0  0  0  0  0  0  0  0  0  0  0  0
   -1.9584    0.4774    0.0000 H   0  0  0  0  0  0  0  0  0  0  0  0
   -1.9583    1.5474    0.0000 H   0  0  0  0  0  0  0  0  0  0  0  0
   -1.9584    2.3724    0.0000 H   0  0  0  0  0  0  0  0  0  0  0  0
   -1.0317    2.9074    0.0000 H   0  0  0  0  0  0  0  0  0  0  0  0
   -0.3173    3.3199    0.0000 H   0  0  0  0  0  0  0  0  0  0  0  0
    0.6093    2.7849    0.0000 H   0  0  0  0  0  0  0  0  0  0  0  0
    1.3238    2.3724    0.0000 H   0  0  0  0  0  0  0  0  0  0  0  0
    0.3972    2.9074    0.0000 H   0  0  0  0  0  0  0  0  0  0  0  0
    1.1117   -2.8596    0.0000 H   0  0  0  0  0  0  0  0  0  0  0  0
    2.5406    0.8069    0.0000 H   0  0  0  0  0  0  0  0  0  0  0  0
    4.1488   -1.9786    0.0000 H   0  0  0  0  0  0  0  0  0  0  0  0
    2.5406   -2.9071    0.0000 H   0  0  0  0  0  0  0  0  0  0  0  0
   -0.3173    0.8449    0.0000 H   0  0  0  0  0  0  0  0  0  0  0  0
   -1.2440    0.3099    0.0000 H   0  0  0  0  0  0  0  0  0  0  0  0
   -1.0317   -1.7076    0.0000 H   0  0  0  0  0  0  0  0  0  0  0  0
   -1.9583   -1.1726    0.0000 H   0  0  0  0  0  0  0  0  0  0  0  0
   -1.7462    0.8449    0.0000 H   0  0  0  0  0  0  0  0  0  0  0  0
   -2.6728   -0.7601    0.0000 H   0  0  0  0  0  0  0  0  0  0  0  0
   -2.6729    0.3099    0.0000 H   0  0  0  0  0  0  0  0  0  0  0  0
  1  2  1  0  0  0  0
  1  6  1  0  0  0  0
  1 12  1  0  0  0  0
  1 23  1  0  0  0  0
  2  3  1  0  0  0  0
  2 24  1  0  0  0  0
  2 25  1  0  0  0  0
  3  4  1  0  0  0  0
  3 26  1  0  0  0  0
  3 27  1  0  0  0  0
  4  5  1  0  0  0  0
  4 28  1  0  0  0  0
  4 29  1  0  0  0  0
  5  6  1  0  0  0  0
  5 30  1  0  0  0  0
  5 31  1  0  0  0  0
  6 32  1  0  0  0  0
  6 33  1  0  0  0  0
  7  8  1  0  0  0  0
  7 13  1  0  0  0  0
  7 34  1  0  0  0  0
  8  9  2  0  0  0  0
  8 10  1  0  0  0  0
 10 11  2  0  0  0  0
 10 20  1  0  0  0  0
 11 12  1  0  0  0  0
 11 14  1  0  0  0  0
 13 14  1  0  0  0  0
 13 18  2  0  0  0  0
 14 15  2  0  0  0  0
 15 16  1  0  0  0  0
 15 35  1  0  0  0  0
 16 17  2  0  0  0  0
 16 19  1  0  0  0  0
 17 18  1  0  0  0  0
 17 36  1  0  0  0  0
 18 37  1  0  0  0  0
 20 21  1  0  0  0  0
 20 38  1  0  0  0  0
 20 39  1  0  0  0  0
 21 22  1  0  0  0  0
 21 40  1  0  0  0  0
 21 41  1  0  0  0  0
 22 42  1  0  0  0  0
 22 43  1  0  0  0  0
 22 44  1  0  0  0  0
M  END
>  <DRUGBANK_ID>
DB07868

>  <COMMON_NAME>
6-CHLORO-4-(CYCLOHEXYLSULFANYL)-3-PROPYLQUINOLIN-2(1H)-ONE

$$$$
