2D7
 OpenBabel10282417072D

 40 42  0  0  0  0  0  0  0  0999 V2000
   -0.7019    3.4564    0.0000 O   0  0  0  0  0  0  0  0  0  0  0  0
    0.0126    3.0439    0.0000 C   0  0  0  0  0  0  0  0  0  0  0  0
    0.7270    3.4564    0.0000 C   0  0  0  0  0  0  0  0  0  0  0  0
    0.0126    2.2189    0.0000 C   0  0  0  0  0  0  0  0  0  0  0  0
    0.7270    1.8064    0.0000 C   0  0  0  0  0  0  0  0  0  0  0  0
    0.7270    0.9814    0.0000 C   0  0  0  0  0  0  0  0  0  0  0  0
   -0.7019    1.8064    0.0000 C   0  0  0  0  0  0  0  0  0  0  0  0
   -0.7019    0.9814    0.0000 C   0  0  0  0  0  0  0  0  0  0  0  0
    0.0126    0.5689    0.0000 C   0  0  0  0  0  0  0  0  0  0  0  0
    0.0126   -0.2561    0.0000 N   0  0  0  0  0  0  0  0  0  0  0  0
   -0.7019   -0.6686    0.0000 C   0  0  0  0  0  0  0  0  0  0  0  0
   -1.4164   -0.2561    0.0000 O   0  0  0  0  0  0  0  0  0  0  0  0
   -0.7019   -1.4936    0.0000 C   0  0  0  0  0  0  0  0  0  0  0  0
   -1.3693   -1.9785    0.0000 C   0  0  0  0  0  0  0  0  0  0  0  0
   -1.1144   -2.7631    0.0000 N   0  0  0  0  0  0  0  0  0  0  0  0
   -0.2894   -2.7631    0.0000 N   0  0  0  0  0  0  0  0  0  0  0  0
   -0.0345   -1.9785    0.0000 C   0  0  0  0  0  0  0  0  0  0  0  0
    0.7502   -1.7236    0.0000 C   0  0  0  0  0  0  0  0  0  0  0  0
    0.9217   -0.9166    0.0000 C   0  0  0  0  0  0  0  0  0  0  0  0
    1.7063   -0.6617    0.0000 C   0  0  0  0  0  0  0  0  0  0  0  0
    1.8778    0.1453    0.0000 Cl  0  0  0  0  0  0  0  0  0  0  0  0
    2.3194   -1.2137    0.0000 C   0  0  0  0  0  0  0  0  0  0  0  0
    3.1040   -0.9588    0.0000 O   0  0  0  0  0  0  0  0  0  0  0  0
    2.1479   -2.0207    0.0000 C   0  0  0  0  0  0  0  0  0  0  0  0
    1.3633   -2.2756    0.0000 C   0  0  0  0  0  0  0  0  0  0  0  0
    1.1917   -3.0826    0.0000 O   0  0  0  0  0  0  0  0  0  0  0  0
    1.6537    2.9214    0.0000 H   0  0  0  0  0  0  0  0  0  0  0  0
    0.7270    4.5264    0.0000 H   0  0  0  0  0  0  0  0  0  0  0  0
    1.6536    3.9914    0.0000 H   0  0  0  0  0  0  0  0  0  0  0  0
    1.6207    2.3224    0.0000 H   0  0  0  0  0  0  0  0  0  0  0  0
    1.6207    0.4654    0.0000 H   0  0  0  0  0  0  0  0  0  0  0  0
   -1.5956    2.3224    0.0000 H   0  0  0  0  0  0  0  0  0  0  0  0
   -1.5956    0.4654    0.0000 H   0  0  0  0  0  0  0  0  0  0  0  0
    0.8652   -0.7484    0.0000 H   0  0  0  0  0  0  0  0  0  0  0  0
   -2.3508   -1.6596    0.0000 H   0  0  0  0  0  0  0  0  0  0  0  0
    0.2893   -3.5596    0.0000 H   0  0  0  0  0  0  0  0  0  0  0  0
    0.1548   -0.2261    0.0000 H   0  0  0  0  0  0  0  0  0  0  0  0
    3.8003   -1.5858    0.0000 H   0  0  0  0  0  0  0  0  0  0  0  0
    2.9148   -2.7112    0.0000 H   0  0  0  0  0  0  0  0  0  0  0  0
    0.3005   -3.3721    0.0000 H   0  0  0  0  0  0  0  0  0  0  0  0
  1  2  2  0  0  0  0
  2  3  1  0  0  0  0
  2  4  1  0  0  0  0
  3 27  1  0  0  0  0
  3 28  1  0  0  0  0
  3 29  1  0  0  0  0
  4  5  2  0  0  0  0
  4  7  1  0  0  0  0
  5  6  1  0  0  0  0
  5 30  1  0  0  0  0
  6  9  2  0  0  0  0
  6 31  1  0  0  0  0
  7  8  2  0  0  0  0
  7 32  1  0  0  0  0
  8  9  1  0  0  0  0
  8 33  1  0  0  0  0
  9 10  1  0  0  0  0
 10 11  1  0  0  0  0
 10 34  1  0  0  0  0
 11 12  2  0  0  0  0
 11 13  1  0  0  0  0
 13 14  1  0  0  0  0
 13 17  2  0  0  0  0
 14 15  2  0  0  0  0
 14 35  1  0  0  0  0
 15 16  1  0  0  0  0
 16 17  1  0  0  0  0
 16 36  1  0  0  0  0
 17 18  1  0  0  0  0
 18 19  2  0  0  0  0
 18 25  1  0  0  0  0
 19 20  1  0  0  0  0
 19 37  1  0  0  0  0
 20 21  1  0  0  0  0
 20 22  2  0  0  0  0
 22 23  1  0  0  0  0
 22 24  1  0  0  0  0
 23 38  1  0  0  0  0
 24 25  2  0  0  0  0
 24 39  1  0  0  0  0
 25 26  1  0  0  0  0
 26 40  1  0  0  0  0
M  END
>  <DRUGBANK_ID>
DB06956

>  <COMMON_NAME>
N-(4-ACETYLPHENYL)-5-(5-CHLORO-2,4-DIHYDROXYPHENYL)-1H-PYRAZOLE-4-CARBOXAMIDE

$$$$
