7PY
 OpenBabel10282417072D

 47 50  0  0  0  0  0  0  0  0999 V2000
    3.8260   -0.2096    0.0000 C   0  0  0  0  0  0  0  0  0  0  0  0
    3.1115   -0.6221    0.0000 O   0  0  0  0  0  0  0  0  0  0  0  0
    2.3970   -0.2096    0.0000 C   0  0  0  0  0  0  0  0  0  0  0  0
    1.6826   -0.6221    0.0000 C   0  0  0  0  0  0  0  0  0  0  0  0
    2.3970    0.6154    0.0000 C   0  0  0  0  0  0  0  0  0  0  0  0
    3.1115    1.0279    0.0000 O   0  0  0  0  0  0  0  0  0  0  0  0
    3.1115    1.8529    0.0000 C   0  0  0  0  0  0  0  0  0  0  0  0
    1.6826    1.0279    0.0000 C   0  0  0  0  0  0  0  0  0  0  0  0
    1.6826    1.8529    0.0000 O   0  0  0  0  0  0  0  0  0  0  0  0
    0.9681    2.2654    0.0000 C   0  0  0  0  0  0  0  0  0  0  0  0
    0.9681    0.6154    0.0000 C   0  0  0  0  0  0  0  0  0  0  0  0
    0.9681   -0.2096    0.0000 C   0  0  0  0  0  0  0  0  0  0  0  0
    0.2536   -0.6221    0.0000 N   0  0  0  0  0  0  0  0  0  0  0  0
   -0.4608   -0.2096    0.0000 C   0  0  0  0  0  0  0  0  0  0  0  0
   -1.1753   -0.6221    0.0000 N   0  0  0  0  0  0  0  0  0  0  0  0
   -1.8898   -0.2096    0.0000 C   0  0  0  0  0  0  0  0  0  0  0  0
   -0.4608    0.6154    0.0000 N   0  0  0  0  0  0  0  0  0  0  0  0
   -1.1753    1.0279    0.0000 C   0  0  0  0  0  0  0  0  0  0  0  0
   -1.8898    0.6154    0.0000 C   0  0  0  0  0  0  0  0  0  0  0  0
   -2.6744    0.8703    0.0000 C   0  0  0  0  0  0  0  0  0  0  0  0
   -3.1593    0.2029    0.0000 C   0  0  0  0  0  0  0  0  0  0  0  0
   -2.6744   -0.4645    0.0000 N   0  0  0  0  0  0  0  0  0  0  0  0
   -2.9294   -1.2492    0.0000 C   0  0  0  0  0  0  0  0  0  0  0  0
   -2.3773   -1.8622    0.0000 C   0  0  0  0  0  0  0  0  0  0  0  0
   -2.6323   -2.6469    0.0000 C   0  0  0  0  0  0  0  0  0  0  0  0
   -3.4392   -2.8184    0.0000 C   0  0  0  0  0  0  0  0  0  0  0  0
   -3.9913   -2.2053    0.0000 C   0  0  0  0  0  0  0  0  0  0  0  0
   -3.7363   -1.4207    0.0000 N   0  0  0  0  0  0  0  0  0  0  0  0
    4.7526   -0.7446    0.0000 H   0  0  0  0  0  0  0  0  0  0  0  0
    3.8260    0.8604    0.0000 H   0  0  0  0  0  0  0  0  0  0  0  0
    4.7527    0.3254    0.0000 H   0  0  0  0  0  0  0  0  0  0  0  0
    1.6826   -1.6541    0.0000 H   0  0  0  0  0  0  0  0  0  0  0  0
    4.0381    2.3879    0.0000 H   0  0  0  0  0  0  0  0  0  0  0  0
    2.1849    2.3879    0.0000 H   0  0  0  0  0  0  0  0  0  0  0  0
    3.1115    2.9229    0.0000 H   0  0  0  0  0  0  0  0  0  0  0  0
    0.9681    3.3354    0.0000 H   0  0  0  0  0  0  0  0  0  0  0  0
    0.0415    1.7304    0.0000 H   0  0  0  0  0  0  0  0  0  0  0  0
    0.0414    2.8004    0.0000 H   0  0  0  0  0  0  0  0  0  0  0  0
    0.0744    1.1314    0.0000 H   0  0  0  0  0  0  0  0  0  0  0  0
    0.2536   -1.6066    0.0000 H   0  0  0  0  0  0  0  0  0  0  0  0
   -1.1753    2.0599    0.0000 H   0  0  0  0  0  0  0  0  0  0  0  0
   -2.9933    1.8518    0.0000 H   0  0  0  0  0  0  0  0  0  0  0  0
   -4.1913    0.2029    0.0000 H   0  0  0  0  0  0  0  0  0  0  0  0
   -1.3679   -1.6476    0.0000 H   0  0  0  0  0  0  0  0  0  0  0  0
   -1.9418   -3.4138    0.0000 H   0  0  0  0  0  0  0  0  0  0  0  0
   -3.7581   -3.7999    0.0000 H   0  0  0  0  0  0  0  0  0  0  0  0
   -5.0008   -2.4199    0.0000 H   0  0  0  0  0  0  0  0  0  0  0  0
  1  2  1  0  0  0  0
  1 29  1  0  0  0  0
  1 30  1  0  0  0  0
  1 31  1  0  0  0  0
  2  3  1  0  0  0  0
  3  4  2  0  0  0  0
  3  5  1  0  0  0  0
  4 12  1  0  0  0  0
  4 32  1  0  0  0  0
  5  6  1  0  0  0  0
  5  8  2  0  0  0  0
  6  7  1  0  0  0  0
  7 33  1  0  0  0  0
  7 34  1  0  0  0  0
  7 35  1  0  0  0  0
  8  9  1  0  0  0  0
  8 11  1  0  0  0  0
  9 10  1  0  0  0  0
 10 36  1  0  0  0  0
 10 37  1  0  0  0  0
 10 38  1  0  0  0  0
 11 12  2  0  0  0  0
 11 39  1  0  0  0  0
 12 13  1  0  0  0  0
 13 14  1  0  0  0  0
 13 40  1  0  0  0  0
 14 15  1  0  0  0  0
 14 17  2  0  0  0  0
 15 16  2  0  0  0  0
 16 19  1  0  0  0  0
 16 22  1  0  0  0  0
 17 18  1  0  0  0  0
 18 19  2  0  0  0  0
 18 41  1  0  0  0  0
 19 20  1  0  0  0  0
 20 21  2  0  0  0  0
 20 42  1  0  0  0  0
 21 22  1  0  0  0  0
 21 43  1  0  0  0  0
 22 23  1  0  0  0  0
 23 24  2  0  0  0  0
 23 28  1  0  0  0  0
 24 25  1  0  0  0  0
 24 44  1  0  0  0  0
 25 26  2  0  0  0  0
 25 45  1  0  0  0  0
 26 27  1  0  0  0  0
 26 46  1  0  0  0  0
 27 28  2  0  0  0  0
 27 47  1  0  0  0  0
M  END
>  <DRUGBANK_ID>
DB07248

>  <COMMON_NAME>
7-PYRIDIN-2-YL-N-(3,4,5-TRIMETHOXYPHENYL)-7H-PYRROLO[2,3-D]PYRIMIDIN-2-AMINE

$$$$
