
 OpenBabel10282417072D

 49 49  0  0  0  0  0  0  0  0999 V2000
   -2.8580    0.4124    0.0000 C   0  0  0  0  0  0  0  0  0  0  0  0
   -2.8580   -0.4125    0.0000 C   0  0  0  0  0  0  0  0  0  0  0  0
   -1.4290    0.4124    0.0000 C   0  0  0  0  0  0  0  0  0  0  0  0
   -1.4290   -0.4125    0.0000 C   0  0  0  0  0  0  0  0  0  0  0  0
   -2.1435   -0.8250    0.0000 C   0  0  0  0  0  0  0  0  0  0  0  0
   -2.1435    0.8249    0.0000 C   0  0  0  0  0  0  0  0  0  0  0  0
   -0.7145   -0.8250    0.0000 C   0  0  0  0  0  0  0  0  0  0  0  0
   -2.1435   -1.6500    0.0000 O   0  0  0  0  0  0  0  0  0  0  0  0
   -3.5723   -0.8250    0.0000 O   0  0  0  0  0  0  0  0  0  0  0  0
   -2.1435    1.6500    0.0000 O   0  0  0  0  0  0  0  0  0  0  0  0
   -3.5723    0.8249    0.0000 O   0  0  0  0  0  0  0  0  0  0  0  0
   -3.5723   -1.6500    0.0000 C   0  0  0  0  0  0  0  0  0  0  0  0
   -4.2869    0.4124    0.0000 C   0  0  0  0  0  0  0  0  0  0  0  0
    2.8579    0.4124    0.0000 C   0  0  0  0  0  0  0  0  0  0  0  0
    3.5723    0.8249    0.0000 C   0  0  0  0  0  0  0  0  0  0  0  0
    4.2869    0.4124    0.0000 C   0  0  0  0  0  0  0  0  0  0  0  0
    3.5723    1.6500    0.0000 C   0  0  0  0  0  0  0  0  0  0  0  0
    2.1434    0.8249    0.0000 C   0  0  0  0  0  0  0  0  0  0  0  0
    0.0000    0.4124    0.0000 C   0  0  0  0  0  0  0  0  0  0  0  0
    0.7143    0.8249    0.0000 C   0  0  0  0  0  0  0  0  0  0  0  0
    1.4289    0.4124    0.0000 C   0  0  0  0  0  0  0  0  0  0  0  0
    0.7143    1.6500    0.0000 C   0  0  0  0  0  0  0  0  0  0  0  0
   -0.7145    0.8249    0.0000 C   0  0  0  0  0  0  0  0  0  0  0  0
   -0.7145   -1.8950    0.0000 H   0  0  0  0  0  0  0  0  0  0  0  0
    0.2121   -0.2900    0.0000 H   0  0  0  0  0  0  0  0  0  0  0  0
    0.2122   -1.3600    0.0000 H   0  0  0  0  0  0  0  0  0  0  0  0
   -4.4989   -2.1850    0.0000 H   0  0  0  0  0  0  0  0  0  0  0  0
   -2.6457   -2.1850    0.0000 H   0  0  0  0  0  0  0  0  0  0  0  0
   -3.5723   -2.7200    0.0000 H   0  0  0  0  0  0  0  0  0  0  0  0
   -5.2135    0.9475    0.0000 H   0  0  0  0  0  0  0  0  0  0  0  0
   -4.2870   -0.6576    0.0000 H   0  0  0  0  0  0  0  0  0  0  0  0
   -5.2136   -0.1225    0.0000 H   0  0  0  0  0  0  0  0  0  0  0  0
    2.8579   -0.6196    0.0000 H   0  0  0  0  0  0  0  0  0  0  0  0
    4.2870   -0.6576    0.0000 H   0  0  0  0  0  0  0  0  0  0  0  0
    5.2135    0.9475    0.0000 H   0  0  0  0  0  0  0  0  0  0  0  0
    5.2136   -0.1225    0.0000 H   0  0  0  0  0  0  0  0  0  0  0  0
    4.4989    2.1850    0.0000 H   0  0  0  0  0  0  0  0  0  0  0  0
    2.6457    2.1850    0.0000 H   0  0  0  0  0  0  0  0  0  0  0  0
    3.5723    2.7200    0.0000 H   0  0  0  0  0  0  0  0  0  0  0  0
    2.1434    1.8949    0.0000 H   0  0  0  0  0  0  0  0  0  0  0  0
    1.2168    1.3599    0.0000 H   0  0  0  0  0  0  0  0  0  0  0  0
    0.0001   -0.6196    0.0000 H   0  0  0  0  0  0  0  0  0  0  0  0
    1.4289   -0.6576    0.0000 H   0  0  0  0  0  0  0  0  0  0  0  0
    0.5023   -0.1227    0.0000 H   0  0  0  0  0  0  0  0  0  0  0  0
    1.6409    2.1850    0.0000 H   0  0  0  0  0  0  0  0  0  0  0  0
   -0.2123    2.1850    0.0000 H   0  0  0  0  0  0  0  0  0  0  0  0
    0.7143    2.7200    0.0000 H   0  0  0  0  0  0  0  0  0  0  0  0
   -0.7145    1.8949    0.0000 H   0  0  0  0  0  0  0  0  0  0  0  0
    0.2121    1.3599    0.0000 H   0  0  0  0  0  0  0  0  0  0  0  0
  1 11  1  0  0  0  0
  2  1  2  0  0  0  0
  2  9  1  0  0  0  0
  3 23  1  0  0  0  0
  3  6  1  0  0  0  0
  4  3  2  0  0  0  0
  4  7  1  0  0  0  0
  4  5  1  0  0  0  0
  5  2  1  0  0  0  0
  5  8  2  0  0  0  0
  6  1  1  0  0  0  0
  6 10  2  0  0  0  0
  7 24  1  0  0  0  0
  7 25  1  0  0  0  0
  7 26  1  0  0  0  0
  9 12  1  0  0  0  0
 11 13  1  0  0  0  0
 12 27  1  0  0  0  0
 12 28  1  0  0  0  0
 12 29  1  0  0  0  0
 13 30  1  0  0  0  0
 13 31  1  0  0  0  0
 13 32  1  0  0  0  0
 14 15  2  0  0  0  0
 14 33  1  0  0  0  0
 15 16  1  0  0  0  0
 15 17  1  0  0  0  0
 16 34  1  0  0  0  0
 16 35  1  0  0  0  0
 16 36  1  0  0  0  0
 17 37  1  0  0  0  0
 17 38  1  0  0  0  0
 17 39  1  0  0  0  0
 18 14  1  0  0  0  0
 18 40  1  0  0  0  0
 18 41  1  0  0  0  0
 19 20  2  0  0  0  0
 19 42  1  0  0  0  0
 20 21  1  0  0  0  0
 20 22  1  0  0  0  0
 21 18  1  0  0  0  0
 21 43  1  0  0  0  0
 21 44  1  0  0  0  0
 22 45  1  0  0  0  0
 22 46  1  0  0  0  0
 22 47  1  0  0  0  0
 23 19  1  0  0  0  0
 23 48  1  0  0  0  0
 23 49  1  0  0  0  0
M  END
>  <DRUGBANK_ID>
DB08690

>  <COMMON_NAME>
Ubiquinone Q2

>  <CAS_NUMBER>
606-06-4

>  <UNII>
I7T5V2W47R

>  <SYNONYMS>
Coenzyme Q2; Ubiquinone 10; Ubiquinone-2

$$$$
