1616
 OpenBabel10282417072D

 48 49  0  0  0  0  0  0  0  0999 V2000
    3.7935    0.2063    0.0000 N   0  0  0  0  0  0  0  0  0  0  0  0
    3.7935    1.0313    0.0000 C   0  0  0  0  0  0  0  0  0  0  0  0
    3.0791   -0.2063    0.0000 C   0  0  0  0  0  0  0  0  0  0  0  0
    4.5080    1.4438    0.0000 C   0  0  0  0  0  0  0  0  0  0  0  0
    3.0791   -1.0313    0.0000 C   0  0  0  0  0  0  0  0  0  0  0  0
    4.5080   -0.2063    0.0000 C   0  0  0  0  0  0  0  0  0  0  0  0
    4.5080    2.2688    0.0000 C   0  0  0  0  0  0  0  0  0  0  0  0
    2.3645   -1.4438    0.0000 C   0  0  0  0  0  0  0  0  0  0  0  0
    5.2224    0.2063    0.0000 C   0  0  0  0  0  0  0  0  0  0  0  0
    5.2224    2.6813    0.0000 C   0  0  0  0  0  0  0  0  0  0  0  0
    2.3645   -2.2688    0.0000 C   0  0  0  0  0  0  0  0  0  0  0  0
    5.2224    3.5063    0.0000 C   0  0  0  0  0  0  0  0  0  0  0  0
    3.0791   -2.6813    0.0000 C   0  0  0  0  0  0  0  0  0  0  0  0
    5.9370    2.2688    0.0000 C   0  0  0  0  0  0  0  0  0  0  0  0
    1.6500   -2.6813    0.0000 C   0  0  0  0  0  0  0  0  0  0  0  0
    5.9370    3.9188    0.0000 C   0  0  0  0  0  0  0  0  0  0  0  0
    3.0791   -3.5063    0.0000 C   0  0  0  0  0  0  0  0  0  0  0  0
    6.6515    2.6813    0.0000 C   0  0  0  0  0  0  0  0  0  0  0  0
    1.6500   -3.5063    0.0000 C   0  0  0  0  0  0  0  0  0  0  0  0
    6.6515    3.5063    0.0000 C   0  0  0  0  0  0  0  0  0  0  0  0
    2.3645   -3.9188    0.0000 C   0  0  0  0  0  0  0  0  0  0  0  0
    2.8669    1.5663    0.0000 H   0  0  0  0  0  0  0  0  0  0  0  0
    3.7935    2.1013    0.0000 H   0  0  0  0  0  0  0  0  0  0  0  0
    2.1524    0.3286    0.0000 H   0  0  0  0  0  0  0  0  0  0  0  0
    2.1525   -0.7413    0.0000 H   0  0  0  0  0  0  0  0  0  0  0  0
    5.4346    0.9088    0.0000 H   0  0  0  0  0  0  0  0  0  0  0  0
    5.4346    1.9788    0.0000 H   0  0  0  0  0  0  0  0  0  0  0  0
    4.0057   -1.5663    0.0000 H   0  0  0  0  0  0  0  0  0  0  0  0
    3.0790   -2.1013    0.0000 H   0  0  0  0  0  0  0  0  0  0  0  0
    4.5080   -1.2763    0.0000 H   0  0  0  0  0  0  0  0  0  0  0  0
    5.4347   -0.7412    0.0000 H   0  0  0  0  0  0  0  0  0  0  0  0
    3.5813    2.8038    0.0000 H   0  0  0  0  0  0  0  0  0  0  0  0
    4.5080    3.3388    0.0000 H   0  0  0  0  0  0  0  0  0  0  0  0
    1.4379   -0.9088    0.0000 H   0  0  0  0  0  0  0  0  0  0  0  0
    1.4378   -1.9788    0.0000 H   0  0  0  0  0  0  0  0  0  0  0  0
    6.1491   -0.3286    0.0000 H   0  0  0  0  0  0  0  0  0  0  0  0
    5.2222    1.2763    0.0000 H   0  0  0  0  0  0  0  0  0  0  0  0
    6.1490    0.7414    0.0000 H   0  0  0  0  0  0  0  0  0  0  0  0
    4.3287    4.0223    0.0000 H   0  0  0  0  0  0  0  0  0  0  0  0
    3.9728   -2.1653    0.0000 H   0  0  0  0  0  0  0  0  0  0  0  0
    5.9370    1.2368    0.0000 H   0  0  0  0  0  0  0  0  0  0  0  0
    0.7563   -2.1653    0.0000 H   0  0  0  0  0  0  0  0  0  0  0  0
    5.9370    4.9508    0.0000 H   0  0  0  0  0  0  0  0  0  0  0  0
    3.9728   -4.0223    0.0000 H   0  0  0  0  0  0  0  0  0  0  0  0
    7.5452    2.1653    0.0000 H   0  0  0  0  0  0  0  0  0  0  0  0
    0.7563   -4.0223    0.0000 H   0  0  0  0  0  0  0  0  0  0  0  0
    7.5452    4.0223    0.0000 H   0  0  0  0  0  0  0  0  0  0  0  0
    2.3645   -4.9508    0.0000 H   0  0  0  0  0  0  0  0  0  0  0  0
  1  2  1  0  0  0  0
  1  3  1  0  0  0  0
  1  6  1  0  0  0  0
  2  4  1  0  0  0  0
  2 22  1  0  0  0  0
  2 23  1  0  0  0  0
  3  5  1  0  0  0  0
  3 24  1  0  0  0  0
  3 25  1  0  0  0  0
  4  7  1  0  0  0  0
  4 26  1  0  0  0  0
  4 27  1  0  0  0  0
  5  8  1  0  0  0  0
  5 28  1  0  0  0  0
  5 29  1  0  0  0  0
  6  9  1  0  0  0  0
  6 30  1  0  0  0  0
  6 31  1  0  0  0  0
  7 10  1  0  0  0  0
  7 32  1  0  0  0  0
  7 33  1  0  0  0  0
  8 11  1  0  0  0  0
  8 34  1  0  0  0  0
  8 35  1  0  0  0  0
  9 36  1  0  0  0  0
  9 37  1  0  0  0  0
  9 38  1  0  0  0  0
 10 12  2  0  0  0  0
 10 14  1  0  0  0  0
 11 13  2  0  0  0  0
 11 15  1  0  0  0  0
 12 16  1  0  0  0  0
 12 39  1  0  0  0  0
 13 17  1  0  0  0  0
 13 40  1  0  0  0  0
 14 18  2  0  0  0  0
 14 41  1  0  0  0  0
 15 19  2  0  0  0  0
 15 42  1  0  0  0  0
 16 20  2  0  0  0  0
 16 43  1  0  0  0  0
 17 21  2  0  0  0  0
 17 44  1  0  0  0  0
 18 20  1  0  0  0  0
 18 45  1  0  0  0  0
 19 21  1  0  0  0  0
 19 46  1  0  0  0  0
 20 47  1  0  0  0  0
 21 48  1  0  0  0  0
M  END
>  <DRUGBANK_ID>
DB01616

>  <COMMON_NAME>
Alverine

>  <CAS_NUMBER>
150-59-4

>  <UNII>
46TIR1560O

>  <SYNONYMS>
Alverina; Alverine; Alverinum; Bis(gamma-phenylpropyl)ethylamine; Di(phenylpropyl)ethylamine; N-Ethyl-3-phenyl-N-(3-phenylpropyl)-1-propanamine; N-Ethyl-3,3'-diphenyldipropylamine; N-Ethyl-N-(3-phenylpropyl)benzenepropanamine; N,N-Bis(3-phenylpropyl)ethylamine; Phenopropamine; Phenpropamine

$$$$
