GRR
 OpenBabel10282417072D

 38 39  0  0  0  0  0  0  0  0999 V2000
   -0.0913    3.1168    0.0000 C   0  0  0  0  0  0  0  0  0  0  0  0
   -0.8058    2.7043    0.0000 C   0  0  0  0  0  0  0  0  0  0  0  0
   -0.8058    1.8793    0.0000 C   0  0  0  0  0  0  0  0  0  0  0  0
   -1.5202    1.4668    0.0000 C   0  0  0  0  0  0  0  0  0  0  0  0
   -1.5202    0.6418    0.0000 C   0  0  0  0  0  0  0  0  0  0  0  0
   -0.0913    1.4668    0.0000 C   0  0  0  0  0  0  0  0  0  0  0  0
   -0.0913    0.6418    0.0000 C   0  0  0  0  0  0  0  0  0  0  0  0
   -0.8058    0.2293    0.0000 C   0  0  0  0  0  0  0  0  0  0  0  0
   -0.8058   -0.5957    0.0000 O   0  0  0  0  0  0  0  0  0  0  0  0
   -0.0913   -1.0082    0.0000 C   0  0  2  0  0  0  0  0  0  0  0  0
    0.6232   -0.5957    0.0000 C   0  0  0  0  0  0  0  0  0  0  0  0
    0.6232    0.2293    0.0000 O   0  0  0  0  0  0  0  0  0  0  0  0
    1.3377   -1.0082    0.0000 O   0  0  0  0  0  0  0  0  0  0  0  0
   -0.0913   -1.8332    0.0000 C   0  0  0  0  0  0  0  0  0  0  0  0
    0.6232   -2.2457    0.0000 C   0  0  0  0  0  0  0  0  0  0  0  0
    0.6232   -3.0707    0.0000 C   0  0  0  0  0  0  0  0  0  0  0  0
    1.3377   -3.4832    0.0000 C   0  0  0  0  0  0  0  0  0  0  0  0
    2.0521   -3.0707    0.0000 C   0  0  0  0  0  0  0  0  0  0  0  0
    2.0521   -2.2457    0.0000 C   0  0  0  0  0  0  0  0  0  0  0  0
    1.3377   -1.8332    0.0000 C   0  0  0  0  0  0  0  0  0  0  0  0
   -0.0913   -0.4243    0.0000 H   0  0  0  0  0  0  0  0  0  0  0  0
    0.8353    2.5818    0.0000 H   0  0  0  0  0  0  0  0  0  0  0  0
   -0.0913    4.1868    0.0000 H   0  0  0  0  0  0  0  0  0  0  0  0
    0.8354    3.6518    0.0000 H   0  0  0  0  0  0  0  0  0  0  0  0
   -1.7324    3.2393    0.0000 H   0  0  0  0  0  0  0  0  0  0  0  0
   -1.7324    2.1693    0.0000 H   0  0  0  0  0  0  0  0  0  0  0  0
   -2.4139    1.9828    0.0000 H   0  0  0  0  0  0  0  0  0  0  0  0
   -2.4139    0.1258    0.0000 H   0  0  0  0  0  0  0  0  0  0  0  0
    0.8024    1.9828    0.0000 H   0  0  0  0  0  0  0  0  0  0  0  0
    0.8024    0.1258    0.0000 H   0  0  0  0  0  0  0  0  0  0  0  0
    1.4347    0.6978    0.0000 H   0  0  0  0  0  0  0  0  0  0  0  0
   -1.0179   -2.3682    0.0000 H   0  0  0  0  0  0  0  0  0  0  0  0
   -0.0913   -2.9032    0.0000 H   0  0  0  0  0  0  0  0  0  0  0  0
   -0.2705   -3.5867    0.0000 H   0  0  0  0  0  0  0  0  0  0  0  0
    1.3377   -4.5152    0.0000 H   0  0  0  0  0  0  0  0  0  0  0  0
    2.9458   -3.5867    0.0000 H   0  0  0  0  0  0  0  0  0  0  0  0
    2.9458   -1.7297    0.0000 H   0  0  0  0  0  0  0  0  0  0  0  0
    1.3377   -0.8012    0.0000 H   0  0  0  0  0  0  0  0  0  0  0  0
  1  2  1  0  0  0  0
  1 22  1  0  0  0  0
  1 23  1  0  0  0  0
  1 24  1  0  0  0  0
  2 25  1  0  0  0  0
  2 26  1  0  0  0  0
  3  2  1  0  0  0  0
  3  6  1  0  0  0  0
  4  3  2  0  0  0  0
  4  5  1  0  0  0  0
  4 27  1  0  0  0  0
  5  8  2  0  0  0  0
  5 28  1  0  0  0  0
  6  7  2  0  0  0  0
  6 29  1  0  0  0  0
  7 30  1  0  0  0  0
  8  7  1  0  0  0  0
  8  9  1  0  0  0  0
 10  9  1  0  0  0  0
 10 11  1  0  0  0  0
 10 21  1  1  0  0  0
 11 13  2  0  0  0  0
 11 12  1  0  0  0  0
 12 31  1  0  0  0  0
 14 10  1  0  0  0  0
 14 32  1  0  0  0  0
 14 33  1  0  0  0  0
 15 14  1  0  0  0  0
 16 15  2  0  0  0  0
 16 34  1  0  0  0  0
 17 16  1  0  0  0  0
 17 35  1  0  0  0  0
 18 17  2  0  0  0  0
 18 19  1  0  0  0  0
 18 36  1  0  0  0  0
 19 20  2  0  0  0  0
 19 37  1  0  0  0  0
 20 15  1  0  0  0  0
 20 38  1  0  0  0  0
M  END
>  <DRUGBANK_ID>
DB07842

>  <COMMON_NAME>
(2S)-2-(4-ethylphenoxy)-3-phenylpropanoic acid

$$$$
