
 OpenBabel10282417072D

 14 11  0  0  0  0  0  0  0  0999 V2000
   -0.4190   -0.0017    0.0000 C   0  0  0  0  0  0  0  0  0  0  0  0
   -0.0035    0.7110    0.0000 O   0  5  0  0  0  0  0  0  0  0  0  0
    0.0201   -0.7110    0.0000 O   0  5  0  0  0  0  0  0  0  0  0  0
   -1.1892   -0.0017    0.0000 O   0  0  0  0  0  0  0  0  0  0  0  0
    1.1229    0.6827    0.0000 N   0  3  0  0  0  0  0  0  0  0  0  0
    1.1892   -0.5180    0.0000 N   0  3  0  0  0  0  0  0  0  0  0  0
    2.1429    0.6827    0.0000 H   0  0  0  0  0  0  0  0  0  0  0  0
    0.6129    1.5660    0.0000 H   0  0  0  0  0  0  0  0  0  0  0  0
    0.6129   -0.2006    0.0000 H   0  0  0  0  0  0  0  0  0  0  0  0
    0.1029    0.6827    0.0000 H   0  0  0  0  0  0  0  0  0  0  0  0
    2.2092   -0.5180    0.0000 H   0  0  0  0  0  0  0  0  0  0  0  0
    0.6792    0.3653    0.0000 H   0  0  0  0  0  0  0  0  0  0  0  0
    0.6792   -1.4013    0.0000 H   0  0  0  0  0  0  0  0  0  0  0  0
    0.1692   -0.5180    0.0000 H   0  0  0  0  0  0  0  0  0  0  0  0
  1  2  1  0  0  0  0
  1  3  1  0  0  0  0
  1  4  2  0  0  0  0
  5  7  1  0  0  0  0
  5  8  1  0  0  0  0
  5  9  1  0  0  0  0
  5 10  1  0  0  0  0
  6 11  1  0  0  0  0
  6 12  1  0  0  0  0
  6 13  1  0  0  0  0
  6 14  1  0  0  0  0
M  CHG  4   2  -1   3  -1   5   1   6   1
M  END
>  <DRUGBANK_ID>
DB15926

>  <COMMON_NAME>
Ammonium carbonate

>  <CAS_NUMBER>
506-87-6

>  <UNII>
PDP691CN28

>  <SYNONYMS>
Carbonic acid, diammonium salt; Crystal ammonia; Diammonium carbonate

$$$$
