2S2
 OpenBabel10282417072D

 34 35  0  0  0  0  0  0  0  0999 V2000
   -0.1868   -1.3664    0.0000 O   0  0  0  0  0  0  0  0  0  0  0  0
   -0.5993   -0.6519    0.0000 C   0  0  0  0  0  0  0  0  0  0  0  0
   -1.4243   -0.6519    0.0000 O   0  0  0  0  0  0  0  0  0  0  0  0
   -0.1868    0.0626    0.0000 C   0  0  1  0  0  0  0  0  0  0  0  0
    0.6382    0.0626    0.0000 C   0  0  0  0  0  0  0  0  0  0  0  0
    1.0507   -0.6519    0.0000 C   0  0  0  0  0  0  0  0  0  0  0  0
    1.8757   -0.6519    0.0000 C   0  0  0  0  0  0  0  0  0  0  0  0
    2.2882   -1.3664    0.0000 C   0  0  0  0  0  0  0  0  0  0  0  0
   -0.5993    0.7770    0.0000 C   0  0  0  0  0  0  0  0  0  0  0  0
   -1.4198    0.8633    0.0000 C   0  0  0  0  0  0  0  0  0  0  0  0
   -2.0329    0.3112    0.0000 C   0  0  0  0  0  0  0  0  0  0  0  0
   -2.8175    0.5662    0.0000 C   0  0  0  0  0  0  0  0  0  0  0  0
   -2.9891    1.3732    0.0000 C   0  0  0  0  0  0  0  0  0  0  0  0
   -2.3760    1.9252    0.0000 C   0  0  0  0  0  0  0  0  0  0  0  0
   -1.5913    1.6702    0.0000 C   0  0  0  0  0  0  0  0  0  0  0  0
   -0.8769    2.0827    0.0000 N   0  0  0  0  0  0  0  0  0  0  0  0
   -0.2638    1.5307    0.0000 C   0  0  0  0  0  0  0  0  0  0  0  0
   -0.7708    0.0626    0.0000 H   0  0  0  0  0  0  0  0  0  0  0  0
   -0.6553   -2.1779    0.0000 H   0  0  0  0  0  0  0  0  0  0  0  0
    1.1732    0.9892    0.0000 H   0  0  0  0  0  0  0  0  0  0  0  0
    1.7082    0.0626    0.0000 H   0  0  0  0  0  0  0  0  0  0  0  0
    0.5157   -1.5785    0.0000 H   0  0  0  0  0  0  0  0  0  0  0  0
    1.5857   -1.5785    0.0000 H   0  0  0  0  0  0  0  0  0  0  0  0
    2.4107    0.2747    0.0000 H   0  0  0  0  0  0  0  0  0  0  0  0
    2.9457   -0.6519    0.0000 H   0  0  0  0  0  0  0  0  0  0  0  0
    1.7532   -2.2930    0.0000 H   0  0  0  0  0  0  0  0  0  0  0  0
    3.3582   -1.3664    0.0000 H   0  0  0  0  0  0  0  0  0  0  0  0
    2.8232   -2.2931    0.0000 H   0  0  0  0  0  0  0  0  0  0  0  0
   -1.8183   -0.6983    0.0000 H   0  0  0  0  0  0  0  0  0  0  0  0
   -3.5844   -0.1243    0.0000 H   0  0  0  0  0  0  0  0  0  0  0  0
   -3.9706    1.6921    0.0000 H   0  0  0  0  0  0  0  0  0  0  0  0
   -2.5905    2.9347    0.0000 H   0  0  0  0  0  0  0  0  0  0  0  0
   -0.7740    3.0618    0.0000 H   0  0  0  0  0  0  0  0  0  0  0  0
    0.7456    1.7453    0.0000 H   0  0  0  0  0  0  0  0  0  0  0  0
  1 19  1  0  0  0  0
  2  1  1  0  0  0  0
  3  2  2  0  0  0  0
  4  2  1  0  0  0  0
  4  9  1  0  0  0  0
  4 18  1  1  0  0  0
  4  5  1  0  0  0  0
  5 20  1  0  0  0  0
  5 21  1  0  0  0  0
  6  5  1  0  0  0  0
  6 22  1  0  0  0  0
  6 23  1  0  0  0  0
  7  6  1  0  0  0  0
  7 24  1  0  0  0  0
  7 25  1  0  0  0  0
  8  7  1  0  0  0  0
  8 26  1  0  0  0  0
  8 27  1  0  0  0  0
  8 28  1  0  0  0  0
  9 10  1  0  0  0  0
 10 11  1  0  0  0  0
 11 12  2  0  0  0  0
 11 29  1  0  0  0  0
 12 30  1  0  0  0  0
 13 12  1  0  0  0  0
 13 31  1  0  0  0  0
 14 13  2  0  0  0  0
 14 32  1  0  0  0  0
 15 10  2  0  0  0  0
 15 14  1  0  0  0  0
 16 15  1  0  0  0  0
 16 33  1  0  0  0  0
 17  9  2  0  0  0  0
 17 16  1  0  0  0  0
 17 34  1  0  0  0  0
M  END
>  <DRUGBANK_ID>
DB06980

>  <COMMON_NAME>
(2S)-2-(1H-indol-3-yl)hexanoic acid

$$$$
