
 OpenBabel10282417072D

 43 44  0  0  0  0  0  0  0  0999 V2000
   -0.9691   -2.5310    0.0000 C   0  0  0  0  0  0  0  0  0  0  0  0
   -0.3741   -2.0568    0.0000 C   0  0  0  0  0  0  0  0  0  0  0  0
   -0.3741   -1.2295    0.0000 C   0  0  1  0  0  0  0  0  0  0  0  0
    0.3183   -0.8065    0.0000 N   0  0  0  0  0  0  0  0  0  0  0  0
    1.0249   -1.2572    0.0000 C   0  0  0  0  0  0  0  0  0  0  0  0
    1.0249   -2.1034    0.0000 C   0  0  0  0  0  0  0  0  0  0  0  0
    1.8059   -0.8343    0.0000 C   0  0  0  0  0  0  0  0  0  0  0  0
   -1.0620   -0.7879    0.0000 C   0  0  1  0  0  0  0  0  0  0  0  0
   -1.8151   -1.2248    0.0000 O   0  0  0  0  0  0  0  0  0  0  0  0
   -1.0620   -0.0302    0.0000 C   0  0  0  0  0  0  0  0  0  0  0  0
   -1.7918    0.3741    0.0000 C   0  0  0  0  0  0  0  0  0  0  0  0
   -1.7918    1.1783    0.0000 C   0  0  0  0  0  0  0  0  0  0  0  0
   -1.0900    1.6338    0.0000 C   0  0  0  0  0  0  0  0  0  0  0  0
   -1.0900    2.5310    0.0000 O   0  0  0  0  0  0  0  0  0  0  0  0
   -0.3741    1.2433    0.0000 C   0  0  0  0  0  0  0  0  0  0  0  0
    0.3369    1.6571    0.0000 N   0  0  0  0  0  0  0  0  0  0  0  0
    1.0482    1.2247    0.0000 C   0  0  0  0  0  0  0  0  0  0  0  0
    1.8151    1.6664    0.0000 O   0  0  0  0  0  0  0  0  0  0  0  0
    1.0482    0.3695    0.0000 C   0  0  0  0  0  0  0  0  0  0  0  0
    0.3369   -0.0302    0.0000 C   0  0  0  0  0  0  0  0  0  0  0  0
   -0.3741    0.3881    0.0000 C   0  0  0  0  0  0  0  0  0  0  0  0
   -1.9650   -2.1398    0.0000 H   0  0  0  0  0  0  0  0  0  0  0  0
   -0.8099   -3.5891    0.0000 H   0  0  0  0  0  0  0  0  0  0  0  0
   -1.8059   -3.1979    0.0000 H   0  0  0  0  0  0  0  0  0  0  0  0
    0.5899   -2.5212    0.0000 H   0  0  0  0  0  0  0  0  0  0  0  0
    0.5319   -1.4876    0.0000 H   0  0  0  0  0  0  0  0  0  0  0  0
    0.5591   -1.7530    0.0000 H   0  0  0  0  0  0  0  0  0  0  0  0
    0.3282    0.2135    0.0000 H   0  0  0  0  0  0  0  0  0  0  0  0
    1.9442   -1.8048    0.0000 H   0  0  0  0  0  0  0  0  0  0  0  0
    0.0983   -2.6384    0.0000 H   0  0  0  0  0  0  0  0  0  0  0  0
    1.9515   -2.6384    0.0000 H   0  0  0  0  0  0  0  0  0  0  0  0
    1.0249   -3.1734    0.0000 H   0  0  0  0  0  0  0  0  0  0  0  0
    2.7176   -1.3944    0.0000 H   0  0  0  0  0  0  0  0  0  0  0  0
    1.8351    0.2353    0.0000 H   0  0  0  0  0  0  0  0  0  0  0  0
    2.7468   -0.3248    0.0000 H   0  0  0  0  0  0  0  0  0  0  0  0
   -1.0861   -1.8576    0.0000 H   0  0  0  0  0  0  0  0  0  0  0  0
   -2.6562   -0.7416    0.0000 H   0  0  0  0  0  0  0  0  0  0  0  0
   -2.6809   -0.1498    0.0000 H   0  0  0  0  0  0  0  0  0  0  0  0
   -2.6987    1.6708    0.0000 H   0  0  0  0  0  0  0  0  0  0  0  0
   -0.2785    2.9995    0.0000 H   0  0  0  0  0  0  0  0  0  0  0  0
    0.3463    2.6416    0.0000 H   0  0  0  0  0  0  0  0  0  0  0  0
    1.9389   -0.1517    0.0000 H   0  0  0  0  0  0  0  0  0  0  0  0
    0.3267   -1.0621    0.0000 H   0  0  0  0  0  0  0  0  0  0  0  0
  1  2  1  0  0  0  0
  1 22  1  0  0  0  0
  1 23  1  0  0  0  0
  1 24  1  0  0  0  0
  2  3  1  0  0  0  0
  2 25  1  0  0  0  0
  2 26  1  0  0  0  0
  3  4  1  0  0  0  0
  3  8  1  0  0  0  0
  3 27  1  1  0  0  0
  4 28  1  0  0  0  0
  5  4  1  0  0  0  0
  5 29  1  0  0  0  0
  6  5  1  0  0  0  0
  6 30  1  0  0  0  0
  6 31  1  0  0  0  0
  6 32  1  0  0  0  0
  7  5  1  0  0  0  0
  7 33  1  0  0  0  0
  7 34  1  0  0  0  0
  7 35  1  0  0  0  0
  8  9  1  0  0  0  0
  8 10  1  0  0  0  0
  8 36  1  6  0  0  0
  9 37  1  0  0  0  0
 10 21  1  0  0  0  0
 11 10  2  0  0  0  0
 11 38  1  0  0  0  0
 12 11  1  0  0  0  0
 12 13  2  0  0  0  0
 12 39  1  0  0  0  0
 13 15  1  0  0  0  0
 14 13  1  0  0  0  0
 14 40  1  0  0  0  0
 15 21  2  0  0  0  0
 16 15  1  0  0  0  0
 16 41  1  0  0  0  0
 17 16  1  0  0  0  0
 17 19  1  0  0  0  0
 18 17  2  0  0  0  0
 19 20  2  0  0  0  0
 19 42  1  0  0  0  0
 20 21  1  0  0  0  0
 20 43  1  0  0  0  0
M  END
>  <DRUGBANK_ID>
DB01366

>  <COMMON_NAME>
Procaterol

>  <CAS_NUMBER>
72332-33-3

>  <UNII>
X7I3EMM5K0

>  <SYNONYMS>
Procaterol; Procaterolo; Procaterolum

$$$$
