7CK
 OpenBabel10282417072D

 40 45  0  0  0  0  0  0  0  0999 V2000
    1.5694    2.5747    0.0000 O   0  0  0  0  0  0  0  0  0  0  0  0
    2.0109    1.2157    0.0000 O   0  0  0  0  0  0  0  0  0  0  0  0
    1.3978    1.7678    0.0000 C   0  0  0  0  0  0  0  0  0  0  0  0
    0.6132    1.5128    0.0000 C   0  0  0  0  0  0  0  0  0  0  0  0
   -0.0542    1.9978    0.0000 N   0  0  0  0  0  0  0  0  0  0  0  0
    0.3583    0.7282    0.0000 C   0  0  0  0  0  0  0  0  0  0  0  0
    0.7708    0.0137    0.0000 C   0  0  0  0  0  0  0  0  0  0  0  0
    0.3583   -0.7007    0.0000 C   0  0  0  0  0  0  0  0  0  0  0  0
    0.9103   -1.3138    0.0000 N   0  0  0  0  0  0  0  0  0  0  0  0
    1.6640   -0.9783    0.0000 C   0  0  0  0  0  0  0  0  0  0  0  0
    1.5777   -0.1578    0.0000 C   0  0  0  0  0  0  0  0  0  0  0  0
    2.2452    0.3271    0.0000 C   0  0  0  0  0  0  0  0  0  0  0  0
    2.9989   -0.0084    0.0000 C   0  0  0  0  0  0  0  0  0  0  0  0
    3.0851   -0.8289    0.0000 C   0  0  0  0  0  0  0  0  0  0  0  0
    2.4177   -1.3138    0.0000 C   0  0  0  0  0  0  0  0  0  0  0  0
   -1.5063    1.7678    0.0000 O   0  0  0  0  0  0  0  0  0  0  0  0
   -0.7217    1.5128    0.0000 C   0  0  0  0  0  0  0  0  0  0  0  0
   -0.4667    0.7282    0.0000 C   0  0  0  0  0  0  0  0  0  0  0  0
   -0.8792    0.0137    0.0000 C   0  0  0  0  0  0  0  0  0  0  0  0
   -0.4667   -0.7007    0.0000 C   0  0  0  0  0  0  0  0  0  0  0  0
   -1.0188   -1.3138    0.0000 N   0  0  0  0  0  0  0  0  0  0  0  0
   -1.7724   -0.9783    0.0000 C   0  0  0  0  0  0  0  0  0  0  0  0
   -1.6862   -0.1578    0.0000 C   0  0  0  0  0  0  0  0  0  0  0  0
   -2.3536    0.3271    0.0000 C   0  0  0  0  0  0  0  0  0  0  0  0
   -3.1073   -0.0084    0.0000 C   0  0  0  0  0  0  0  0  0  0  0  0
   -3.1936   -0.8289    0.0000 C   0  0  0  0  0  0  0  0  0  0  0  0
   -2.5261   -1.3138    0.0000 C   0  0  0  0  0  0  0  0  0  0  0  0
    2.4606    2.8642    0.0000 H   0  0  0  0  0  0  0  0  0  0  0  0
   -0.0542    2.9823    0.0000 H   0  0  0  0  0  0  0  0  0  0  0  0
    0.7056   -2.2768    0.0000 H   0  0  0  0  0  0  0  0  0  0  0  0
    2.1373    1.3534    0.0000 H   0  0  0  0  0  0  0  0  0  0  0  0
    3.8338    0.5982    0.0000 H   0  0  0  0  0  0  0  0  0  0  0  0
    4.0279   -1.2487    0.0000 H   0  0  0  0  0  0  0  0  0  0  0  0
    2.5256   -2.3401    0.0000 H   0  0  0  0  0  0  0  0  0  0  0  0
   -1.7010    2.6843    0.0000 H   0  0  0  0  0  0  0  0  0  0  0  0
   -0.8141   -2.2768    0.0000 H   0  0  0  0  0  0  0  0  0  0  0  0
   -2.2457    1.3534    0.0000 H   0  0  0  0  0  0  0  0  0  0  0  0
   -3.9422    0.5983    0.0000 H   0  0  0  0  0  0  0  0  0  0  0  0
   -4.1364   -1.2486    0.0000 H   0  0  0  0  0  0  0  0  0  0  0  0
   -2.6340   -2.3401    0.0000 H   0  0  0  0  0  0  0  0  0  0  0  0
  1  3  1  0  0  0  0
  1 28  1  0  0  0  0
  2  3  2  0  0  0  0
  3  4  1  0  0  0  0
  4  5  1  0  0  0  0
  4  6  2  0  0  0  0
  5 17  1  0  0  0  0
  5 29  1  0  0  0  0
  6  7  1  0  0  0  0
  6 18  1  0  0  0  0
  7 11  1  0  0  0  0
  7  8  2  0  0  0  0
  8 20  1  0  0  0  0
  8  9  1  0  0  0  0
  9 10  1  0  0  0  0
  9 30  1  0  0  0  0
 10 11  2  0  0  0  0
 10 15  1  0  0  0  0
 11 12  1  0  0  0  0
 12 13  2  0  0  0  0
 12 31  1  0  0  0  0
 13 14  1  0  0  0  0
 13 32  1  0  0  0  0
 14 15  2  0  0  0  0
 14 33  1  0  0  0  0
 15 34  1  0  0  0  0
 16 17  1  0  0  0  0
 16 35  1  0  0  0  0
 17 18  2  0  0  0  0
 18 19  1  0  0  0  0
 19 20  2  0  0  0  0
 19 23  1  0  0  0  0
 20 21  1  0  0  0  0
 21 22  1  0  0  0  0
 21 36  1  0  0  0  0
 22 27  1  0  0  0  0
 22 23  2  0  0  0  0
 23 24  1  0  0  0  0
 24 25  2  0  0  0  0
 24 37  1  0  0  0  0
 25 26  1  0  0  0  0
 25 38  1  0  0  0  0
 26 27  2  0  0  0  0
 26 39  1  0  0  0  0
 27 40  1  0  0  0  0
M  END
>  <DRUGBANK_ID>
DB07241

>  <COMMON_NAME>
7-carboxy-5-hydroxy-12,13-dihydro-6H-indolo[2,3-a]pyrrolo[3,4-c]carbazole

$$$$
