
 OpenBabel10282417072D

 69 73  0  0  0  0  0  0  0  0999 V2000
   10.6437    1.9354    0.0000 C   0  0  0  0  0  0  0  0  0  0  0  0
   10.6437    1.1104    0.0000 C   0  0  0  0  0  0  0  0  0  0  0  0
    9.9292    0.6979    0.0000 N   0  0  0  0  0  0  0  0  0  0  0  0
    9.9292   -0.1271    0.0000 C   0  0  0  0  0  0  0  0  0  0  0  0
    9.2148   -0.5396    0.0000 C   0  0  0  0  0  0  0  0  0  0  0  0
    8.5003   -0.1271    0.0000 N   0  0  0  0  0  0  0  0  0  0  0  0
    8.5003    0.6979    0.0000 C   0  0  0  0  0  0  0  0  0  0  0  0
    9.2148    1.1104    0.0000 C   0  0  0  0  0  0  0  0  0  0  0  0
    7.7858   -0.5396    0.0000 C   0  0  0  0  0  0  0  0  0  0  0  0
    7.0714   -0.1271    0.0000 C   0  0  0  0  0  0  0  0  0  0  0  0
    6.3569   -0.5396    0.0000 C   0  0  0  0  0  0  0  0  0  0  0  0
    5.6424   -0.1271    0.0000 C   0  0  0  0  0  0  0  0  0  0  0  0
    5.6424    0.6979    0.0000 C   0  0  0  0  0  0  0  0  0  0  0  0
    6.3569    1.1104    0.0000 N   0  0  0  0  0  0  0  0  0  0  0  0
    7.0714    0.6979    0.0000 C   0  0  0  0  0  0  0  0  0  0  0  0
    4.9279    1.1104    0.0000 N   0  0  0  0  0  0  0  0  0  0  0  0
    4.2135    0.6979    0.0000 C   0  0  0  0  0  0  0  0  0  0  0  0
    4.2135   -0.1271    0.0000 N   0  0  0  0  0  0  0  0  0  0  0  0
    3.4990   -0.5396    0.0000 C   0  0  0  0  0  0  0  0  0  0  0  0
    2.7845   -0.1271    0.0000 C   0  0  0  0  0  0  0  0  0  0  0  0
    2.7845    0.6979    0.0000 C   0  0  0  0  0  0  0  0  0  0  0  0
    3.4990    1.1104    0.0000 N   0  0  0  0  0  0  0  0  0  0  0  0
    2.0701    1.1104    0.0000 C   0  0  0  0  0  0  0  0  0  0  0  0
    1.3556    0.6979    0.0000 C   0  0  0  0  0  0  0  0  0  0  0  0
    0.6411    1.1104    0.0000 C   0  0  0  0  0  0  0  0  0  0  0  0
    0.6411    1.9354    0.0000 C   0  0  0  0  0  0  0  0  0  0  0  0
    1.3556    2.3479    0.0000 C   0  0  0  0  0  0  0  0  0  0  0  0
    2.0701    1.9354    0.0000 C   0  0  0  0  0  0  0  0  0  0  0  0
    1.3556    3.1729    0.0000 F   0  0  0  0  0  0  0  0  0  0  0  0
   -0.1435    2.1904    0.0000 N   0  0  0  0  0  0  0  0  0  0  0  0
   -0.6284    1.5229    0.0000 C   0  0  0  0  0  0  0  0  0  0  0  0
   -0.1435    0.8555    0.0000 N   0  0  0  0  0  0  0  0  0  0  0  0
   -0.3984    0.0709    0.0000 C   0  0  0  0  0  0  0  0  0  0  0  0
    0.1536   -0.5422    0.0000 C   0  0  0  0  0  0  0  0  0  0  0  0
   -1.2054   -0.1006    0.0000 C   0  0  0  0  0  0  0  0  0  0  0  0
   -1.4534    1.5229    0.0000 C   0  0  0  0  0  0  0  0  0  0  0  0
    2.0701   -0.5396    0.0000 F   0  0  0  0  0  0  0  0  0  0  0  0
   11.5703    2.4704    0.0000 H   0  0  0  0  0  0  0  0  0  0  0  0
    9.7171    2.4704    0.0000 H   0  0  0  0  0  0  0  0  0  0  0  0
   10.6437    3.0054    0.0000 H   0  0  0  0  0  0  0  0  0  0  0  0
   11.5703    0.5754    0.0000 H   0  0  0  0  0  0  0  0  0  0  0  0
   10.6437    0.0404    0.0000 H   0  0  0  0  0  0  0  0  0  0  0  0
   10.8559   -0.6621    0.0000 H   0  0  0  0  0  0  0  0  0  0  0  0
    9.9292   -1.1971    0.0000 H   0  0  0  0  0  0  0  0  0  0  0  0
    9.2148   -1.6096    0.0000 H   0  0  0  0  0  0  0  0  0  0  0  0
    8.2882   -1.0746    0.0000 H   0  0  0  0  0  0  0  0  0  0  0  0
    7.5737    1.2329    0.0000 H   0  0  0  0  0  0  0  0  0  0  0  0
    8.5003    1.7679    0.0000 H   0  0  0  0  0  0  0  0  0  0  0  0
    9.2148    2.1804    0.0000 H   0  0  0  0  0  0  0  0  0  0  0  0
   10.1415    1.6454    0.0000 H   0  0  0  0  0  0  0  0  0  0  0  0
    7.7858   -1.6096    0.0000 H   0  0  0  0  0  0  0  0  0  0  0  0
    6.8591   -1.0746    0.0000 H   0  0  0  0  0  0  0  0  0  0  0  0
    6.3569   -1.5716    0.0000 H   0  0  0  0  0  0  0  0  0  0  0  0
    4.7487   -0.6431    0.0000 H   0  0  0  0  0  0  0  0  0  0  0  0
    7.9651    1.2139    0.0000 H   0  0  0  0  0  0  0  0  0  0  0  0
    4.9279    2.0949    0.0000 H   0  0  0  0  0  0  0  0  0  0  0  0
    3.4990   -1.5716    0.0000 H   0  0  0  0  0  0  0  0  0  0  0  0
    1.3556   -0.3341    0.0000 H   0  0  0  0  0  0  0  0  0  0  0  0
    2.9638    2.4514    0.0000 H   0  0  0  0  0  0  0  0  0  0  0  0
   -0.7291   -0.9467    0.0000 H   0  0  0  0  0  0  0  0  0  0  0  0
   -0.1771   -1.5598    0.0000 H   0  0  0  0  0  0  0  0  0  0  0  0
    1.2002   -0.3198    0.0000 H   0  0  0  0  0  0  0  0  0  0  0  0
    0.8695   -1.3374    0.0000 H   0  0  0  0  0  0  0  0  0  0  0  0
   -1.9213    0.6946    0.0000 H   0  0  0  0  0  0  0  0  0  0  0  0
   -1.5361   -1.1182    0.0000 H   0  0  0  0  0  0  0  0  0  0  0  0
   -2.2520   -0.3230    0.0000 H   0  0  0  0  0  0  0  0  0  0  0  0
   -1.9884    2.4495    0.0000 H   0  0  0  0  0  0  0  0  0  0  0  0
   -1.9884    0.5963    0.0000 H   0  0  0  0  0  0  0  0  0  0  0  0
   -2.5234    1.5229    0.0000 H   0  0  0  0  0  0  0  0  0  0  0  0
  1  2  1  0  0  0  0
  1 38  1  0  0  0  0
  1 39  1  0  0  0  0
  1 40  1  0  0  0  0
  2  3  1  0  0  0  0
  2 41  1  0  0  0  0
  2 42  1  0  0  0  0
  3  4  1  0  0  0  0
  3  8  1  0  0  0  0
  4  5  1  0  0  0  0
  4 43  1  0  0  0  0
  4 44  1  0  0  0  0
  5  6  1  0  0  0  0
  5 45  1  0  0  0  0
  5 46  1  0  0  0  0
  6  7  1  0  0  0  0
  6  9  1  0  0  0  0
  7  8  1  0  0  0  0
  7 47  1  0  0  0  0
  7 48  1  0  0  0  0
  8 49  1  0  0  0  0
  8 50  1  0  0  0  0
  9 10  1  0  0  0  0
  9 51  1  0  0  0  0
  9 52  1  0  0  0  0
 10 11  2  0  0  0  0
 10 15  1  0  0  0  0
 11 12  1  0  0  0  0
 11 53  1  0  0  0  0
 12 13  2  0  0  0  0
 12 54  1  0  0  0  0
 13 14  1  0  0  0  0
 13 16  1  0  0  0  0
 14 15  2  0  0  0  0
 15 55  1  0  0  0  0
 16 17  1  0  0  0  0
 16 56  1  0  0  0  0
 17 18  2  0  0  0  0
 17 22  1  0  0  0  0
 18 19  1  0  0  0  0
 19 20  2  0  0  0  0
 19 57  1  0  0  0  0
 20 21  1  0  0  0  0
 20 37  1  0  0  0  0
 21 22  2  0  0  0  0
 21 23  1  0  0  0  0
 23 24  1  0  0  0  0
 23 28  2  0  0  0  0
 24 25  2  0  0  0  0
 24 58  1  0  0  0  0
 25 26  1  0  0  0  0
 25 32  1  0  0  0  0
 26 27  2  0  0  0  0
 26 30  1  0  0  0  0
 27 28  1  0  0  0  0
 27 29  1  0  0  0  0
 28 59  1  0  0  0  0
 30 31  2  0  0  0  0
 31 32  1  0  0  0  0
 31 36  1  0  0  0  0
 32 33  1  0  0  0  0
 33 34  1  0  0  0  0
 33 35  1  0  0  0  0
 33 60  1  0  0  0  0
 34 61  1  0  0  0  0
 34 62  1  0  0  0  0
 34 63  1  0  0  0  0
 35 64  1  0  0  0  0
 35 65  1  0  0  0  0
 35 66  1  0  0  0  0
 36 67  1  0  0  0  0
 36 68  1  0  0  0  0
 36 69  1  0  0  0  0
M  END
>  <DRUGBANK_ID>
DB12001

>  <COMMON_NAME>
Abemaciclib

>  <CAS_NUMBER>
1231929-97-7

>  <UNII>
60UAB198HK

>  <SYNONYMS>
Abemaciclib

$$$$
