
 OpenBabel10282417072D

 63 50  0  0  0  0  0  0  0  0999 V2000
    0.8931    0.6394    0.0000 C   0  0  0  0  0  0  0  0  0  0  0  0
    0.8931   -0.1856    0.0000 C   0  0  0  0  0  0  0  0  0  0  0  0
    0.1786   -0.5981    0.0000 C   0  0  0  0  0  0  0  0  0  0  0  0
   -0.5359   -0.1856    0.0000 C   0  0  0  0  0  0  0  0  0  0  0  0
   -0.5359    0.6394    0.0000 C   0  0  0  0  0  0  0  0  0  0  0  0
    0.1786    1.0519    0.0000 C   0  0  0  0  0  0  0  0  0  0  0  0
    0.1786    1.8769    0.0000 O   0  5  0  0  0  0  0  0  0  0  0  0
   -1.2503    1.0519    0.0000 O   0  5  0  0  0  0  0  0  0  0  0  0
   -1.2503   -0.5981    0.0000 S   0  0  0  0  0  0  0  0  0  0  0  0
   -1.6628    0.1163    0.0000 O   0  0  0  0  0  0  0  0  0  0  0  0
   -0.8378   -1.3126    0.0000 O   0  0  0  0  0  0  0  0  0  0  0  0
   -1.9648   -1.0106    0.0000 O   0  5  0  0  0  0  0  0  0  0  0  0
    1.6076   -0.5981    0.0000 S   0  0  0  0  0  0  0  0  0  0  0  0
    1.1951   -1.3126    0.0000 O   0  0  0  0  0  0  0  0  0  0  0  0
    2.0201    0.1163    0.0000 O   0  0  0  0  0  0  0  0  0  0  0  0
    2.3220   -1.0106    0.0000 O   0  5  0  0  0  0  0  0  0  0  0  0
    8.4872    0.4813    0.0000 C   0  0  0  0  0  0  0  0  0  0  0  0
    8.4872   -0.3438    0.0000 C   0  0  0  0  0  0  0  0  0  0  0  0
    7.7728   -0.7563    0.0000 C   0  0  0  0  0  0  0  0  0  0  0  0
    7.0583   -0.3437    0.0000 C   0  0  0  0  0  0  0  0  0  0  0  0
    7.0583    0.4813    0.0000 C   0  0  0  0  0  0  0  0  0  0  0  0
    7.7728    0.8938    0.0000 C   0  0  0  0  0  0  0  0  0  0  0  0
    7.7728    1.7188    0.0000 O   0  5  0  0  0  0  0  0  0  0  0  0
    6.3438    0.8938    0.0000 O   0  5  0  0  0  0  0  0  0  0  0  0
    6.3438   -0.7562    0.0000 S   0  0  0  0  0  0  0  0  0  0  0  0
    5.6294   -1.1687    0.0000 O   0  0  0  0  0  0  0  0  0  0  0  0
    5.9313   -0.0418    0.0000 O   0  0  0  0  0  0  0  0  0  0  0  0
    6.7563   -1.4707    0.0000 O   0  5  0  0  0  0  0  0  0  0  0  0
    9.2017   -0.7563    0.0000 S   0  0  0  0  0  0  0  0  0  0  0  0
    9.9162   -1.1688    0.0000 O   0  0  0  0  0  0  0  0  0  0  0  0
    9.6142   -0.0418    0.0000 O   0  0  0  0  0  0  0  0  0  0  0  0
    8.7892   -1.4707    0.0000 O   0  5  0  0  0  0  0  0  0  0  0  0
   12.2733    0.0000    0.0000 O   0  0  0  0  0  0  0  0  0  0  0  0
    0.0000   -3.1207    0.0000 O   0  0  0  0  0  0  0  0  0  0  0  0
    2.3571   -3.1207    0.0000 O   0  0  0  0  0  0  0  0  0  0  0  0
    4.7143   -3.1207    0.0000 O   0  0  0  0  0  0  0  0  0  0  0  0
    0.0000   -4.7707    0.0000 O   0  0  0  0  0  0  0  0  0  0  0  0
    2.3571   -4.7707    0.0000 O   0  0  0  0  0  0  0  0  0  0  0  0
    4.7143   -4.7707    0.0000 O   0  0  0  0  0  0  0  0  0  0  0  0
    0.1786    2.7019    0.0000 Na  0  3  0  0  0  0  0  0  0  0  0  0
   -1.9648    1.4644    0.0000 Na  0  3  0  0  0  0  0  0  0  0  0  0
   -2.6793   -1.4231    0.0000 Na  0  3  0  0  0  0  0  0  0  0  0  0
    3.0365   -1.4231    0.0000 Na  0  3  0  0  0  0  0  0  0  0  0  0
    7.7728    2.5438    0.0000 Na  0  3  0  0  0  0  0  0  0  0  0  0
    5.6294    1.3063    0.0000 Sb  0  1  0  0  0  0  0  0  0  0  0  0
    1.7868    1.1554    0.0000 H   0  0  0  0  0  0  0  0  0  0  0  0
    0.1786   -1.6301    0.0000 H   0  0  0  0  0  0  0  0  0  0  0  0
    9.3809    0.9973    0.0000 H   0  0  0  0  0  0  0  0  0  0  0  0
    7.7728   -1.7883    0.0000 H   0  0  0  0  0  0  0  0  0  0  0  0
   13.2433    0.0000    0.0000 H   0  0  0  0  0  0  0  0  0  0  0  0
   11.7883    0.8400    0.0000 H   0  0  0  0  0  0  0  0  0  0  0  0
    0.9700   -3.1207    0.0000 H   0  0  0  0  0  0  0  0  0  0  0  0
   -0.4850   -2.2807    0.0000 H   0  0  0  0  0  0  0  0  0  0  0  0
    3.3271   -3.1207    0.0000 H   0  0  0  0  0  0  0  0  0  0  0  0
    1.8721   -2.2807    0.0000 H   0  0  0  0  0  0  0  0  0  0  0  0
    5.6843   -3.1207    0.0000 H   0  0  0  0  0  0  0  0  0  0  0  0
    4.2293   -2.2807    0.0000 H   0  0  0  0  0  0  0  0  0  0  0  0
    0.9700   -4.7707    0.0000 H   0  0  0  0  0  0  0  0  0  0  0  0
   -0.4850   -3.9307    0.0000 H   0  0  0  0  0  0  0  0  0  0  0  0
    3.3271   -4.7707    0.0000 H   0  0  0  0  0  0  0  0  0  0  0  0
    1.8721   -3.9307    0.0000 H   0  0  0  0  0  0  0  0  0  0  0  0
    5.6843   -4.7707    0.0000 H   0  0  0  0  0  0  0  0  0  0  0  0
    4.2293   -3.9307    0.0000 H   0  0  0  0  0  0  0  0  0  0  0  0
  1  2  2  0  0  0  0
  1  6  1  0  0  0  0
  1 46  1  0  0  0  0
  2  3  1  0  0  0  0
  2 13  1  0  0  0  0
  3  4  2  0  0  0  0
  3 47  1  0  0  0  0
  4  5  1  0  0  0  0
  4  9  1  0  0  0  0
  5  6  2  0  0  0  0
  5  8  1  0  0  0  0
  6  7  1  0  0  0  0
  9 10  2  0  0  0  0
  9 11  2  0  0  0  0
  9 12  1  0  0  0  0
 13 14  2  0  0  0  0
 13 15  2  0  0  0  0
 13 16  1  0  0  0  0
 17 18  2  0  0  0  0
 17 22  1  0  0  0  0
 17 48  1  0  0  0  0
 18 19  1  0  0  0  0
 18 29  1  0  0  0  0
 19 20  2  0  0  0  0
 19 49  1  0  0  0  0
 20 21  1  0  0  0  0
 20 25  1  0  0  0  0
 21 22  2  0  0  0  0
 21 24  1  0  0  0  0
 22 23  1  0  0  0  0
 25 26  2  0  0  0  0
 25 27  2  0  0  0  0
 25 28  1  0  0  0  0
 29 30  2  0  0  0  0
 29 31  2  0  0  0  0
 29 32  1  0  0  0  0
 33 50  1  0  0  0  0
 33 51  1  0  0  0  0
 34 52  1  0  0  0  0
 34 53  1  0  0  0  0
 35 54  1  0  0  0  0
 35 55  1  0  0  0  0
 36 56  1  0  0  0  0
 36 57  1  0  0  0  0
 37 58  1  0  0  0  0
 37 59  1  0  0  0  0
 38 60  1  0  0  0  0
 38 61  1  0  0  0  0
 39 62  1  0  0  0  0
 39 63  1  0  0  0  0
M  CHG  8   7  -1   8  -1  12  -1  16  -1  23  -1  24  -1  28  -1  32  -1
M  CHG  6  40   1  41   1  42   1  43   1  44   1  45   3
M  END
>  <DRUGBANK_ID>
DB13236

>  <COMMON_NAME>
Stibophen

>  <CAS_NUMBER>
15489-16-4

>  <UNII>
6CM08O30EH

$$$$
