
 OpenBabel10282417072D

 45 46  0  0  0  0  0  0  0  0999 V2000
   -3.6355    1.0283    0.0000 C   0  0  0  0  0  0  0  0  0  0  0  0
   -3.6355    0.2024    0.0000 N   0  0  0  0  0  0  0  0  0  0  0  0
   -2.9227   -0.2064    0.0000 C   0  0  0  0  0  0  0  0  0  0  0  0
   -2.2098    0.2024    0.0000 N   0  0  0  0  0  0  0  0  0  0  0  0
   -2.2098    1.0283    0.0000 C   0  0  0  0  0  0  0  0  0  0  0  0
   -2.9227    1.4454    0.0000 N   0  0  0  0  0  0  0  0  0  0  0  0
   -4.3530    1.4413    0.0000 N   0  0  0  0  0  0  0  0  0  0  0  0
   -2.9305   -1.0324    0.0000 N   0  0  0  0  0  0  0  0  0  0  0  0
   -1.4996    1.4454    0.0000 N   0  0  0  0  0  0  0  0  0  0  0  0
   -0.7862    1.0324    0.0000 C   0  0  0  0  0  0  0  0  0  0  0  0
   -0.7901    0.2071    0.0000 C   0  0  0  0  0  0  0  0  0  0  0  0
   -0.0776   -0.2057    0.0000 C   0  0  0  0  0  0  0  0  0  0  0  0
    0.6376    0.2055    0.0000 C   0  0  0  0  0  0  0  0  0  0  0  0
    0.6360    1.0341    0.0000 C   0  0  0  0  0  0  0  0  0  0  0  0
   -0.0771    1.4432    0.0000 C   0  0  0  0  0  0  0  0  0  0  0  0
    1.3495   -0.2064    0.0000 As  0  0  0  0  0  0  0  0  0  0  0  0
    2.2130    0.2857    0.0000 S   0  0  0  0  0  0  0  0  0  0  0  0
    2.9264   -0.1272    0.0000 C   0  0  0  0  0  0  0  0  0  0  0  0
    3.6397    0.2899    0.0000 C   0  0  0  0  0  0  0  0  0  0  0  0
    4.3530   -0.1230    0.0000 N   0  0  0  0  0  0  0  0  0  0  0  0
    1.3453   -1.0324    0.0000 S   0  0  0  0  0  0  0  0  0  0  0  0
    2.0586   -1.4454    0.0000 C   0  0  0  0  0  0  0  0  0  0  0  0
    2.7719   -1.0282    0.0000 C   0  0  0  0  0  0  0  0  0  0  0  0
    3.4853   -1.4412    0.0000 N   0  0  0  0  0  0  0  0  0  0  0  0
   -4.3543    2.4258    0.0000 H   0  0  0  0  0  0  0  0  0  0  0  0
   -5.2050    0.9479    0.0000 H   0  0  0  0  0  0  0  0  0  0  0  0
   -3.7877   -1.5166    0.0000 H   0  0  0  0  0  0  0  0  0  0  0  0
   -2.0826   -1.5327    0.0000 H   0  0  0  0  0  0  0  0  0  0  0  0
   -1.5027    2.4299    0.0000 H   0  0  0  0  0  0  0  0  0  0  0  0
   -1.6854   -0.3061    0.0000 H   0  0  0  0  0  0  0  0  0  0  0  0
   -0.0793   -1.2377    0.0000 H   0  0  0  0  0  0  0  0  0  0  0  0
    1.5285    1.5522    0.0000 H   0  0  0  0  0  0  0  0  0  0  0  0
   -0.0793    2.4752    0.0000 H   0  0  0  0  0  0  0  0  0  0  0  0
    2.9288   -1.1972    0.0000 H   0  0  0  0  0  0  0  0  0  0  0  0
    3.8551   -0.6586    0.0000 H   0  0  0  0  0  0  0  0  0  0  0  0
    3.6373    1.3599    0.0000 H   0  0  0  0  0  0  0  0  0  0  0  0
    4.5661    0.8254    0.0000 H   0  0  0  0  0  0  0  0  0  0  0  0
    4.3518   -1.1430    0.0000 H   0  0  0  0  0  0  0  0  0  0  0  0
    5.2369    0.3860    0.0000 H   0  0  0  0  0  0  0  0  0  0  0  0
    2.0610   -2.5154    0.0000 H   0  0  0  0  0  0  0  0  0  0  0  0
    2.9873   -1.9768    0.0000 H   0  0  0  0  0  0  0  0  0  0  0  0
    2.7695    0.0418    0.0000 H   0  0  0  0  0  0  0  0  0  0  0  0
    3.6983   -0.4927    0.0000 H   0  0  0  0  0  0  0  0  0  0  0  0
    3.4841   -2.4612    0.0000 H   0  0  0  0  0  0  0  0  0  0  0  0
    4.3692   -0.9322    0.0000 H   0  0  0  0  0  0  0  0  0  0  0  0
  1  7  1  0  0  0  0
  1  2  1  0  0  0  0
  1  6  2  0  0  0  0
  2  3  2  0  0  0  0
  3  8  1  0  0  0  0
  3  4  1  0  0  0  0
  4  5  2  0  0  0  0
  5  6  1  0  0  0  0
  5  9  1  0  0  0  0
  7 25  1  0  0  0  0
  7 26  1  0  0  0  0
  8 27  1  0  0  0  0
  8 28  1  0  0  0  0
  9 10  1  0  0  0  0
  9 29  1  0  0  0  0
 10 11  2  0  0  0  0
 11 12  1  0  0  0  0
 11 30  1  0  0  0  0
 12 13  2  0  0  0  0
 12 31  1  0  0  0  0
 13 14  1  0  0  0  0
 13 16  1  0  0  0  0
 14 15  2  0  0  0  0
 14 32  1  0  0  0  0
 15 10  1  0  0  0  0
 15 33  1  0  0  0  0
 16 17  1  0  0  0  0
 16 21  1  0  0  0  0
 17 18  1  0  0  0  0
 18 19  1  0  0  0  0
 18 34  1  0  0  0  0
 18 35  1  0  0  0  0
 19 20  1  0  0  0  0
 19 36  1  0  0  0  0
 19 37  1  0  0  0  0
 20 38  1  0  0  0  0
 20 39  1  0  0  0  0
 21 22  1  0  0  0  0
 22 23  1  0  0  0  0
 22 40  1  0  0  0  0
 22 41  1  0  0  0  0
 23 24  1  0  0  0  0
 23 42  1  0  0  0  0
 23 43  1  0  0  0  0
 24 44  1  0  0  0  0
 24 45  1  0  0  0  0
M  END
>  <DRUGBANK_ID>
DB11528

>  <COMMON_NAME>
Melarsomine

>  <CAS_NUMBER>
128470-15-5

>  <UNII>
374GJ0S41A

>  <SYNONYMS>
Melarsomina; Melarsomine; Melarsominum

$$$$
