
 OpenBabel10282417072D

 38 41  0  0  0  0  0  0  0  0999 V2000
   -2.2286    0.0000    0.0000 C   0  0  0  0  0  0  0  0  0  0  0  0
    3.9934    0.8250    0.0000 C   0  0  0  0  0  0  0  0  0  0  0  0
   -1.5141   -0.4125    0.0000 C   0  0  0  0  0  0  0  0  0  0  0  0
    3.2789    1.2375    0.0000 C   0  0  0  0  0  0  0  0  0  0  0  0
   -1.5141    1.2375    0.0000 C   0  0  0  0  0  0  0  0  0  0  0  0
    3.2789   -0.4125    0.0000 C   0  0  0  0  0  0  0  0  0  0  0  0
   -2.2286    0.8250    0.0000 C   0  0  0  0  0  0  0  0  0  0  0  0
    3.9934    0.0000    0.0000 C   0  0  0  0  0  0  0  0  0  0  0  0
   -0.7996    0.8250    0.0000 C   0  0  0  0  0  0  0  0  0  0  0  0
    2.5645    0.0000    0.0000 C   0  0  0  0  0  0  0  0  0  0  0  0
   -0.7996    0.0000    0.0000 C   0  0  0  0  0  0  0  0  0  0  0  0
    2.5645    0.8250    0.0000 C   0  0  0  0  0  0  0  0  0  0  0  0
    0.4699    0.4125    0.0000 C   0  0  0  0  0  0  0  0  0  0  0  0
    1.2949    0.4125    0.0000 C   0  0  0  0  0  0  0  0  0  0  0  0
   -0.0150    1.0799    0.0000 C   0  0  0  0  0  0  0  0  0  0  0  0
    1.7798   -0.2549    0.0000 C   0  0  0  0  0  0  0  0  0  0  0  0
   -0.0150   -0.2549    0.0000 N   0  0  0  0  0  0  0  0  0  0  0  0
    1.7798    1.0799    0.0000 N   0  0  0  0  0  0  0  0  0  0  0  0
    0.2399    1.8646    0.0000 O   0  0  0  0  0  0  0  0  0  0  0  0
    1.5249   -1.0396    0.0000 O   0  0  0  0  0  0  0  0  0  0  0  0
   -3.6575    1.6500    0.0000 O   0  0  0  0  0  0  0  0  0  0  0  0
   -3.3555    0.5230    0.0000 O   0  0  0  0  0  0  0  0  0  0  0  0
   -2.5305    1.9520    0.0000 O   0  0  0  0  0  0  0  0  0  0  0  0
    5.4223   -0.8250    0.0000 O   0  0  0  0  0  0  0  0  0  0  0  0
    4.2954   -1.1270    0.0000 O   0  0  0  0  0  0  0  0  0  0  0  0
    5.1204    0.3020    0.0000 O   0  0  0  0  0  0  0  0  0  0  0  0
   -2.9430    1.2375    0.0000 S   0  0  0  0  0  0  0  0  0  0  0  0
    4.7079   -0.4125    0.0000 S   0  0  0  0  0  0  0  0  0  0  0  0
   -3.1223   -0.5160    0.0000 H   0  0  0  0  0  0  0  0  0  0  0  0
    4.8871    1.3410    0.0000 H   0  0  0  0  0  0  0  0  0  0  0  0
   -1.5141   -1.4445    0.0000 H   0  0  0  0  0  0  0  0  0  0  0  0
    3.2789    2.2695    0.0000 H   0  0  0  0  0  0  0  0  0  0  0  0
   -1.5141    2.2695    0.0000 H   0  0  0  0  0  0  0  0  0  0  0  0
    3.2789   -1.4445    0.0000 H   0  0  0  0  0  0  0  0  0  0  0  0
    0.2892   -1.1912    0.0000 H   0  0  0  0  0  0  0  0  0  0  0  0
    1.4755    2.0162    0.0000 H   0  0  0  0  0  0  0  0  0  0  0  0
   -3.6575    2.6200    0.0000 H   0  0  0  0  0  0  0  0  0  0  0  0
    5.4223   -1.7950    0.0000 H   0  0  0  0  0  0  0  0  0  0  0  0
  1 29  1  0  0  0  0
  2 30  1  0  0  0  0
  3  1  2  0  0  0  0
  3 31  1  0  0  0  0
  4  2  2  0  0  0  0
  4 32  1  0  0  0  0
  5 33  1  0  0  0  0
  6 34  1  0  0  0  0
  7  1  1  0  0  0  0
  7  5  2  0  0  0  0
  8  2  1  0  0  0  0
  8  6  2  0  0  0  0
  9  5  1  0  0  0  0
 10  6  1  0  0  0  0
 11  3  1  0  0  0  0
 11  9  2  0  0  0  0
 12  4  1  0  0  0  0
 12 10  2  0  0  0  0
 14 13  2  0  0  0  0
 15  9  1  0  0  0  0
 15 13  1  0  0  0  0
 16 10  1  0  0  0  0
 16 14  1  0  0  0  0
 17 11  1  0  0  0  0
 17 13  1  0  0  0  0
 17 35  1  0  0  0  0
 18 12  1  0  0  0  0
 18 14  1  0  0  0  0
 18 36  1  0  0  0  0
 19 15  2  0  0  0  0
 20 16  2  0  0  0  0
 21 37  1  0  0  0  0
 24 38  1  0  0  0  0
 27  7  1  0  0  0  0
 27 21  1  0  0  0  0
 27 22  2  0  0  0  0
 27 23  2  0  0  0  0
 28  8  1  0  0  0  0
 28 24  1  0  0  0  0
 28 25  2  0  0  0  0
 28 26  2  0  0  0  0
M  END
>  <DRUGBANK_ID>
DB11577

>  <COMMON_NAME>
Indigotindisulfonic acid

>  <CAS_NUMBER>
483-20-5

>  <UNII>
X7OI7JF73P

>  <SYNONYMS>
2-(1,3-Dihydro-3-oxo-5-sulpho-2H-indol-2-ylidene)-3-oxoindoline-5-sulphonic acid; 5,5'-indigotindisulfonic Acid; Blue X; FD&C Blue #2; Indigo carmine; Indigo carmine acid; indigo carmine free acid; indigo-5,5'-disulfonic acid; Indigotindisulfonate; Indigotine; Saxon blue

$$$$
