
 OpenBabel10282417072D

 39 40  0  0  0  0  0  0  0  0999 V2000
   -1.7861    3.0937    0.0000 O   0  0  0  0  0  0  0  0  0  0  0  0
   -1.7861    2.2687    0.0000 C   0  0  0  0  0  0  0  0  0  0  0  0
   -2.5006    1.8562    0.0000 O   0  0  0  0  0  0  0  0  0  0  0  0
   -1.0716    1.8562    0.0000 C   0  0  0  0  0  0  0  0  0  0  0  0
   -1.0716    1.0312    0.0000 C   0  0  0  0  0  0  0  0  0  0  0  0
   -0.3572    0.6187    0.0000 C   0  0  0  0  0  0  0  0  0  0  0  0
   -0.3572   -0.2062    0.0000 C   0  0  0  0  0  0  0  0  0  0  0  0
   -1.0716   -0.6187    0.0000 C   0  0  0  0  0  0  0  0  0  0  0  0
   -1.0716   -1.4437    0.0000 O   0  0  0  0  0  0  0  0  0  0  0  0
   -0.3572   -1.8562    0.0000 C   0  0  0  0  0  0  0  0  0  0  0  0
   -0.3572   -2.6812    0.0000 C   0  0  0  0  0  0  0  0  0  0  0  0
    0.3572   -3.0937    0.0000 C   0  0  0  0  0  0  0  0  0  0  0  0
    1.0717   -2.6812    0.0000 C   0  0  0  0  0  0  0  0  0  0  0  0
    1.7861   -3.0937    0.0000 O   0  0  0  0  0  0  0  0  0  0  0  0
    1.0717   -1.8562    0.0000 C   0  0  0  0  0  0  0  0  0  0  0  0
    0.3572   -1.4437    0.0000 C   0  0  0  0  0  0  0  0  0  0  0  0
    1.7861   -1.4437    0.0000 C   0  0  0  0  0  0  0  0  0  0  0  0
    1.7861   -0.6187    0.0000 C   0  0  0  0  0  0  0  0  0  0  0  0
    2.5006   -1.8562    0.0000 C   0  0  0  0  0  0  0  0  0  0  0  0
   -1.7861   -0.2062    0.0000 C   0  0  0  0  0  0  0  0  0  0  0  0
   -1.7861    0.6187    0.0000 C   0  0  0  0  0  0  0  0  0  0  0  0
   -2.5006   -0.6187    0.0000 Cl  0  0  0  0  0  0  0  0  0  0  0  0
    0.3572   -0.6187    0.0000 Cl  0  0  0  0  0  0  0  0  0  0  0  0
   -0.9746    3.5622    0.0000 H   0  0  0  0  0  0  0  0  0  0  0  0
   -0.1450    2.3912    0.0000 H   0  0  0  0  0  0  0  0  0  0  0  0
   -0.1450    1.3212    0.0000 H   0  0  0  0  0  0  0  0  0  0  0  0
    0.5365    1.1347    0.0000 H   0  0  0  0  0  0  0  0  0  0  0  0
   -1.2509   -3.1972    0.0000 H   0  0  0  0  0  0  0  0  0  0  0  0
    0.3572   -4.1257    0.0000 H   0  0  0  0  0  0  0  0  0  0  0  0
    1.7861   -4.0307    0.0000 H   0  0  0  0  0  0  0  0  0  0  0  0
    0.3572   -0.4117    0.0000 H   0  0  0  0  0  0  0  0  0  0  0  0
    2.7127   -0.9087    0.0000 H   0  0  0  0  0  0  0  0  0  0  0  0
    2.7127   -0.0837    0.0000 H   0  0  0  0  0  0  0  0  0  0  0  0
    0.8595   -0.0837    0.0000 H   0  0  0  0  0  0  0  0  0  0  0  0
    1.7861    0.4513    0.0000 H   0  0  0  0  0  0  0  0  0  0  0  0
    2.5006   -2.9262    0.0000 H   0  0  0  0  0  0  0  0  0  0  0  0
    3.4272   -1.3212    0.0000 H   0  0  0  0  0  0  0  0  0  0  0  0
    3.4273   -2.3912    0.0000 H   0  0  0  0  0  0  0  0  0  0  0  0
   -2.6798    1.1347    0.0000 H   0  0  0  0  0  0  0  0  0  0  0  0
  1 24  1  0  0  0  0
  2  1  1  0  0  0  0
  2  3  2  0  0  0  0
  4  2  1  0  0  0  0
  4 25  1  0  0  0  0
  4 26  1  0  0  0  0
  5  4  1  0  0  0  0
  5  6  2  0  0  0  0
  5 21  1  0  0  0  0
  6 27  1  0  0  0  0
  7  6  1  0  0  0  0
  7 23  1  0  0  0  0
  8  7  2  0  0  0  0
  8  9  1  0  0  0  0
 10  9  1  0  0  0  0
 10 16  1  0  0  0  0
 11 10  2  0  0  0  0
 11 28  1  0  0  0  0
 12 11  1  0  0  0  0
 12 13  2  0  0  0  0
 12 29  1  0  0  0  0
 13 14  1  0  0  0  0
 14 30  1  0  0  0  0
 15 13  1  0  0  0  0
 16 15  2  0  0  0  0
 16 31  1  0  0  0  0
 17 15  1  0  0  0  0
 17 18  1  0  0  0  0
 17 19  1  0  0  0  0
 17 32  1  0  0  0  0
 18 33  1  0  0  0  0
 18 34  1  0  0  0  0
 18 35  1  0  0  0  0
 19 36  1  0  0  0  0
 19 37  1  0  0  0  0
 19 38  1  0  0  0  0
 20  8  1  0  0  0  0
 20 22  1  0  0  0  0
 21 20  2  0  0  0  0
 21 39  1  0  0  0  0
M  END
>  <DRUGBANK_ID>
DB03176

>  <SECONDARY_ACCESSION_NUMBERS>
EXPT01852

>  <COMMON_NAME>
KB-141

>  <CAS_NUMBER>
219691-94-8

>  <UNII>
M5P363AFVC

>  <SYNONYMS>
3,5-dichloro-4-(4-hydroxy-3-isopropylphenoxy)phenylacetic acid

$$$$
