
 OpenBabel10282417072D

  5  4  0  0  0  0  0  0  0  0999 V2000
    0.0000   -0.2062    0.0000 Mo  0  0  0  0  0  0  0  0  0  0  0  0
    0.0000    0.6187    0.0000 S   0  0  0  0  0  0  0  0  0  0  0  0
   -0.7145   -0.6187    0.0000 O   0  0  0  0  0  0  0  0  0  0  0  0
    0.7145   -0.6187    0.0000 O   0  0  0  0  0  0  0  0  0  0  0  0
    1.1778    1.2987    0.0000 H   0  0  0  0  0  0  0  0  0  0  0  0
  1  2  1  0  0  0  0
  1  3  2  0  0  0  0
  1  4  2  0  0  0  0
  2  5  1  0  0  0  0
M  END
>  <DRUGBANK_ID>
DB03328

>  <SECONDARY_ACCESSION_NUMBERS>
EXPT02214

>  <COMMON_NAME>
Dioxo(sulfanyl)molybdenum

$$$$
