
 OpenBabel10282417072D

145147  0  0  1  0  0  0  0  0999 V2000
   14.3817   12.2084    0.0000 C   0  0  0  0  0  0  0  0  0  0  0  0
   13.5748   12.0368    0.0000 C   0  0  0  0  0  0  0  0  0  0  0  0
   13.3198   11.2522    0.0000 C   0  0  2  0  0  0  0  0  0  0  0  0
   13.8719   10.6391    0.0000 C   0  0  0  0  0  0  0  0  0  0  0  0
   12.5129   11.0807    0.0000 C   0  0  1  0  0  0  0  0  0  0  0  0
   13.0649   10.4676    0.0000 C   0  0  0  0  0  0  0  0  0  0  0  0
   13.8186   10.1320    0.0000 O   0  0  0  0  0  0  0  0  0  0  0  0
   12.8099    9.6830    0.0000 N   0  0  0  0  0  0  0  0  0  0  0  0
   12.0030    9.5114    0.0000 C   0  0  2  0  0  0  0  0  0  0  0  0
   11.4509   10.1245    0.0000 C   0  0  0  0  0  0  0  0  0  0  0  0
   11.7059   10.9092    0.0000 O   0  0  0  0  0  0  0  0  0  0  0  0
   10.6440    9.9530    0.0000 N   0  0  0  0  0  0  0  0  0  0  0  0
   10.0919   10.5661    0.0000 C   0  0  2  0  0  0  0  0  0  0  0  0
    9.2850   10.3946    0.0000 C   0  0  0  0  0  0  0  0  0  0  0  0
    9.0300    9.6099    0.0000 O   0  0  0  0  0  0  0  0  0  0  0  0
    8.7329   11.0077    0.0000 N   0  0  0  0  0  0  0  0  0  0  0  0
    7.9260   10.8361    0.0000 C   0  0  1  0  0  0  0  0  0  0  0  0
    7.3739   11.4492    0.0000 C   0  0  0  0  0  0  0  0  0  0  0  0
    7.6289   12.2339    0.0000 S   0  0  0  0  0  0  0  0  0  0  0  0
    8.4358   12.4054    0.0000 S   0  0  0  0  0  0  0  0  0  0  0  0
    8.6908   13.1900    0.0000 C   0  0  0  0  0  0  0  0  0  0  0  0
    9.4977   13.3615    0.0000 C   0  0  1  0  0  0  0  0  0  0  0  0
   10.0498   12.7484    0.0000 C   0  0  0  0  0  0  0  0  0  0  0  0
    9.7948   11.9638    0.0000 O   0  0  0  0  0  0  0  0  0  0  0  0
   10.8568   12.9200    0.0000 N   0  0  0  0  0  0  0  0  0  0  0  0
   11.4088   12.3069    0.0000 C   0  0  2  0  0  0  0  0  0  0  0  0
   12.2158   12.4784    0.0000 C   0  0  0  0  0  0  0  0  0  0  0  0
   12.4707   13.2630    0.0000 O   0  0  0  0  0  0  0  0  0  0  0  0
   12.7678   11.8653    0.0000 N   0  0  0  0  0  0  0  0  0  0  0  0
   11.6637   13.0915    0.0000 C   0  0  0  0  0  0  0  0  0  0  0  0
   11.1117   13.7046    0.0000 C   0  0  0  0  0  0  0  0  0  0  0  0
   10.3047   13.5331    0.0000 C   0  0  0  0  0  0  0  0  0  0  0  0
    9.7527   14.1461    0.0000 C   0  0  0  0  0  0  0  0  0  0  0  0
   10.0076   14.9308    0.0000 C   0  0  0  0  0  0  0  0  0  0  0  0
   10.8146   15.1023    0.0000 C   0  0  0  0  0  0  0  0  0  0  0  0
   11.3666   14.4892    0.0000 C   0  0  0  0  0  0  0  0  0  0  0  0
    9.2428   14.1461    0.0000 N   0  0  0  0  0  0  0  0  0  0  0  0
    7.6710   10.0515    0.0000 C   0  0  0  0  0  0  0  0  0  0  0  0
    8.2231    9.4384    0.0000 O   0  0  0  0  0  0  0  0  0  0  0  0
    6.8640    9.8800    0.0000 N   0  0  0  0  0  0  0  0  0  0  0  0
    6.2510   10.4320    0.0000 C   0  0  0  0  0  0  0  0  0  0  0  0
    5.5365   10.0195    0.0000 C   0  0  0  0  0  0  0  0  0  0  0  0
    5.7080    9.2125    0.0000 C   0  0  0  0  0  0  0  0  0  0  0  0
    6.5285    9.1263    0.0000 C   0  0  1  0  0  0  0  0  0  0  0  0
    6.9410    8.4118    0.0000 C   0  0  0  0  0  0  0  0  0  0  0  0
    6.5285    7.6974    0.0000 O   0  0  0  0  0  0  0  0  0  0  0  0
    7.7660    8.4118    0.0000 N   0  0  0  0  0  0  0  0  0  0  0  0
    8.1785    7.6974    0.0000 C   0  0  1  0  0  0  0  0  0  0  0  0
    7.7660    6.9829    0.0000 C   0  0  0  0  0  0  0  0  0  0  0  0
    6.9410    6.9829    0.0000 C   0  0  0  0  0  0  0  0  0  0  0  0
    6.5285    6.2684    0.0000 C   0  0  0  0  0  0  0  0  0  0  0  0
    5.7035    6.2684    0.0000 N   0  0  0  0  0  0  0  0  0  0  0  0
    5.2910    5.5540    0.0000 C   0  0  0  0  0  0  0  0  0  0  0  0
    4.4660    5.5540    0.0000 C   0  0  0  0  0  0  0  0  0  0  0  0
    5.7035    4.8395    0.0000 C   0  0  0  0  0  0  0  0  0  0  0  0
    9.0035    7.6974    0.0000 C   0  0  0  0  0  0  0  0  0  0  0  0
    9.4160    8.4118    0.0000 O   0  0  0  0  0  0  0  0  0  0  0  0
    9.4160    6.9829    0.0000 N   0  0  0  0  0  0  0  0  0  0  0  0
   10.2410    6.9829    0.0000 C   0  0  0  0  0  0  0  0  0  0  0  0
   10.6535    6.2684    0.0000 C   0  0  0  0  0  0  0  0  0  0  0  0
   11.4785    6.2684    0.0000 O   0  0  0  0  0  0  0  0  0  0  0  0
   10.2410    5.5540    0.0000 N   0  0  0  0  0  0  0  0  0  0  0  0
    9.8370    9.7815    0.0000 C   0  0  0  0  0  0  0  0  0  0  0  0
   10.3890    9.1684    0.0000 C   0  0  0  0  0  0  0  0  0  0  0  0
   11.1960    9.3399    0.0000 O   0  0  0  0  0  0  0  0  0  0  0  0
   10.1341    8.3838    0.0000 N   0  0  0  0  0  0  0  0  0  0  0  0
   11.7480    8.7268    0.0000 C   0  0  0  0  0  0  0  0  0  0  0  0
   12.3001    8.1137    0.0000 C   0  0  0  0  0  0  0  0  0  0  0  0
   12.0451    7.3291    0.0000 C   0  0  0  0  0  0  0  0  0  0  0  0
   12.5972    6.7160    0.0000 C   0  0  0  0  0  0  0  0  0  0  0  0
   13.4041    6.8875    0.0000 O   0  0  0  0  0  0  0  0  0  0  0  0
   12.3422    5.9314    0.0000 N   0  0  0  0  0  0  0  0  0  0  0  0
   15.0978   11.4133    0.0000 H   0  0  0  0  0  0  0  0  0  0  0  0
   14.7122   13.2261    0.0000 H   0  0  0  0  0  0  0  0  0  0  0  0
   15.4283   12.4310    0.0000 H   0  0  0  0  0  0  0  0  0  0  0  0
   12.8588   12.8320    0.0000 H   0  0  0  0  0  0  0  0  0  0  0  0
   12.5282   11.8144    0.0000 H   0  0  0  0  0  0  0  0  0  0  0  0
   12.6039   12.0474    0.0000 H   0  0  0  0  0  0  0  0  0  0  0  0
   13.5413    9.6215    0.0000 H   0  0  0  0  0  0  0  0  0  0  0  0
   14.9185   10.8616    0.0000 H   0  0  0  0  0  0  0  0  0  0  0  0
   14.5879    9.8440    0.0000 H   0  0  0  0  0  0  0  0  0  0  0  0
   13.5305   10.7500    0.0000 H   0  0  0  0  0  0  0  0  0  0  0  0
   13.4687    8.9514    0.0000 H   0  0  0  0  0  0  0  0  0  0  0  0
   12.7190    8.7162    0.0000 H   0  0  0  0  0  0  0  0  0  0  0  0
   10.3398    9.0167    0.0000 H   0  0  0  0  0  0  0  0  0  0  0  0
   10.3144    9.5195    0.0000 H   0  0  0  0  0  0  0  0  0  0  0  0
    9.0371   11.9440    0.0000 H   0  0  0  0  0  0  0  0  0  0  0  0
    8.6420   10.0409    0.0000 H   0  0  0  0  0  0  0  0  0  0  0  0
    6.3273   11.2267    0.0000 H   0  0  0  0  0  0  0  0  0  0  0  0
    6.6579   12.2444    0.0000 H   0  0  0  0  0  0  0  0  0  0  0  0
    7.9749   13.9852    0.0000 H   0  0  0  0  0  0  0  0  0  0  0  0
    9.0215   14.2076    0.0000 H   0  0  0  0  0  0  0  0  0  0  0  0
    8.5711   13.8965    0.0000 H   0  0  0  0  0  0  0  0  0  0  0  0
   11.1610   13.8563    0.0000 H   0  0  0  0  0  0  0  0  0  0  0  0
   11.1863   13.3535    0.0000 H   0  0  0  0  0  0  0  0  0  0  0  0
   13.7308   12.0700    0.0000 H   0  0  0  0  0  0  0  0  0  0  0  0
   12.7103   13.3140    0.0000 H   0  0  0  0  0  0  0  0  0  0  0  0
   11.9944   14.1091    0.0000 H   0  0  0  0  0  0  0  0  0  0  0  0
    9.9858   12.5516    0.0000 H   0  0  0  0  0  0  0  0  0  0  0  0
    8.7433   13.9315    0.0000 H   0  0  0  0  0  0  0  0  0  0  0  0
    9.3170   15.6977    0.0000 H   0  0  0  0  0  0  0  0  0  0  0  0
   11.1335   16.0838    0.0000 H   0  0  0  0  0  0  0  0  0  0  0  0
   12.3760   14.7038    0.0000 H   0  0  0  0  0  0  0  0  0  0  0  0
    9.9253   14.9041    0.0000 H   0  0  0  0  0  0  0  0  0  0  0  0
    8.2451   14.3582    0.0000 H   0  0  0  0  0  0  0  0  0  0  0  0
    6.3629   11.4961    0.0000 H   0  0  0  0  0  0  0  0  0  0  0  0
    5.3536   11.0148    0.0000 H   0  0  0  0  0  0  0  0  0  0  0  0
    4.5590   10.4547    0.0000 H   0  0  0  0  0  0  0  0  0  0  0  0
    4.7049    9.3462    0.0000 H   0  0  0  0  0  0  0  0  0  0  0  0
    4.9920    8.4173    0.0000 H   0  0  0  0  0  0  0  0  0  0  0  0
    6.0915    8.2136    0.0000 H   0  0  0  0  0  0  0  0  0  0  0  0
    5.9457    8.2289    0.0000 H   0  0  0  0  0  0  0  0  0  0  0  0
    8.2582    9.2644    0.0000 H   0  0  0  0  0  0  0  0  0  0  0  0
    7.1085    7.6974    0.0000 H   0  0  0  0  0  0  0  0  0  0  0  0
    8.3010    6.0563    0.0000 H   0  0  0  0  0  0  0  0  0  0  0  0
    7.2310    6.0563    0.0000 H   0  0  0  0  0  0  0  0  0  0  0  0
    6.4060    7.9095    0.0000 H   0  0  0  0  0  0  0  0  0  0  0  0
    5.8710    6.9829    0.0000 H   0  0  0  0  0  0  0  0  0  0  0  0
    7.0635    5.3418    0.0000 H   0  0  0  0  0  0  0  0  0  0  0  0
    5.9935    5.3418    0.0000 H   0  0  0  0  0  0  0  0  0  0  0  0
    5.1935    7.1518    0.0000 H   0  0  0  0  0  0  0  0  0  0  0  0
    4.7560    4.6274    0.0000 H   0  0  0  0  0  0  0  0  0  0  0  0
    3.9310    6.4806    0.0000 H   0  0  0  0  0  0  0  0  0  0  0  0
    3.9310    4.6274    0.0000 H   0  0  0  0  0  0  0  0  0  0  0  0
    3.3960    5.5540    0.0000 H   0  0  0  0  0  0  0  0  0  0  0  0
    5.1685    3.9129    0.0000 H   0  0  0  0  0  0  0  0  0  0  0  0
    6.7735    4.8395    0.0000 H   0  0  0  0  0  0  0  0  0  0  0  0
    6.2385    3.9128    0.0000 H   0  0  0  0  0  0  0  0  0  0  0  0
    8.9237    6.1303    0.0000 H   0  0  0  0  0  0  0  0  0  0  0  0
   10.7760    7.9095    0.0000 H   0  0  0  0  0  0  0  0  0  0  0  0
   11.3110    6.9829    0.0000 H   0  0  0  0  0  0  0  0  0  0  0  0
    9.2565    5.5540    0.0000 H   0  0  0  0  0  0  0  0  0  0  0  0
   10.7332    4.7014    0.0000 H   0  0  0  0  0  0  0  0  0  0  0  0
    8.7904    9.5590    0.0000 H   0  0  0  0  0  0  0  0  0  0  0  0
    9.5063    8.7639    0.0000 H   0  0  0  0  0  0  0  0  0  0  0  0
    9.1711    8.1791    0.0000 H   0  0  0  0  0  0  0  0  0  0  0  0
   10.7929    7.6522    0.0000 H   0  0  0  0  0  0  0  0  0  0  0  0
   10.7014    8.5043    0.0000 H   0  0  0  0  0  0  0  0  0  0  0  0
   11.4174    7.7092    0.0000 H   0  0  0  0  0  0  0  0  0  0  0  0
   13.3467    8.3362    0.0000 H   0  0  0  0  0  0  0  0  0  0  0  0
   13.0160    7.3185    0.0000 H   0  0  0  0  0  0  0  0  0  0  0  0
   10.9985    7.1066    0.0000 H   0  0  0  0  0  0  0  0  0  0  0  0
   11.7145    6.3115    0.0000 H   0  0  0  0  0  0  0  0  0  0  0  0
   11.3792    5.7268    0.0000 H   0  0  0  0  0  0  0  0  0  0  0  0
   13.0009    5.1997    0.0000 H   0  0  0  0  0  0  0  0  0  0  0  0
  1  2  1  0  0  0  0
  1 73  1  0  0  0  0
  1 74  1  0  0  0  0
  1 75  1  0  0  0  0
  2  3  1  0  0  0  0
  2 76  1  0  0  0  0
  2 77  1  0  0  0  0
  3  4  1  0  0  0  0
  3 78  1  1  0  0  0
  4 79  1  0  0  0  0
  4 80  1  0  0  0  0
  4 81  1  0  0  0  0
  5  3  1  0  0  0  0
  5  6  1  0  0  0  0
  5 29  1  0  0  0  0
  5 82  1  6  0  0  0
  6  7  2  0  0  0  0
  6  8  1  0  0  0  0
  8  9  1  0  0  0  0
  8 83  1  0  0  0  0
  9 10  1  0  0  0  0
  9 67  1  0  0  0  0
  9 84  1  6  0  0  0
 10 11  2  0  0  0  0
 10 12  1  0  0  0  0
 12 13  1  0  0  0  0
 12 85  1  0  0  0  0
 13 14  1  0  0  0  0
 13 63  1  0  0  0  0
 13 86  1  6  0  0  0
 14 15  2  0  0  0  0
 14 16  1  0  0  0  0
 16 17  1  0  0  0  0
 16 87  1  0  0  0  0
 17 18  1  0  0  0  0
 17 38  1  0  0  0  0
 17 88  1  1  0  0  0
 18 19  1  0  0  0  0
 18 89  1  0  0  0  0
 18 90  1  0  0  0  0
 19 20  1  0  0  0  0
 20 21  1  0  0  0  0
 21 22  1  0  0  0  0
 21 91  1  0  0  0  0
 21 92  1  0  0  0  0
 22 23  1  0  0  0  0
 22 37  1  0  0  0  0
 22 93  1  1  0  0  0
 23 24  2  0  0  0  0
 23 25  1  0  0  0  0
 25 26  1  0  0  0  0
 25 94  1  0  0  0  0
 26 27  1  0  0  0  0
 26 30  1  0  0  0  0
 26 95  1  6  0  0  0
 27 28  2  0  0  0  0
 27 29  1  0  0  0  0
 29 96  1  0  0  0  0
 30 31  1  0  0  0  0
 30 97  1  0  0  0  0
 30 98  1  0  0  0  0
 31 32  2  0  0  0  0
 31 36  1  0  0  0  0
 32 33  1  0  0  0  0
 32 99  1  0  0  0  0
 33 34  2  0  0  0  0
 33100  1  0  0  0  0
 34 35  1  0  0  0  0
 34101  1  0  0  0  0
 35 36  2  0  0  0  0
 35102  1  0  0  0  0
 36103  1  0  0  0  0
 37104  1  0  0  0  0
 37105  1  0  0  0  0
 38 39  2  0  0  0  0
 38 40  1  0  0  0  0
 40 41  1  0  0  0  0
 40 44  1  0  0  0  0
 41 42  1  0  0  0  0
 41106  1  0  0  0  0
 41107  1  0  0  0  0
 42 43  1  0  0  0  0
 42108  1  0  0  0  0
 42109  1  0  0  0  0
 43 44  1  0  0  0  0
 43110  1  0  0  0  0
 43111  1  0  0  0  0
 44 45  1  0  0  0  0
 44112  1  1  0  0  0
 45 46  2  0  0  0  0
 45 47  1  0  0  0  0
 47113  1  0  0  0  0
 48 47  1  0  0  0  0
 48 49  1  0  0  0  0
 48 56  1  0  0  0  0
 48114  1  1  0  0  0
 49 50  1  0  0  0  0
 49115  1  0  0  0  0
 49116  1  0  0  0  0
 50 51  1  0  0  0  0
 50117  1  0  0  0  0
 50118  1  0  0  0  0
 51 52  1  0  0  0  0
 51119  1  0  0  0  0
 51120  1  0  0  0  0
 52 53  1  0  0  0  0
 52121  1  0  0  0  0
 53 54  1  0  0  0  0
 53 55  1  0  0  0  0
 53122  1  0  0  0  0
 54123  1  0  0  0  0
 54124  1  0  0  0  0
 54125  1  0  0  0  0
 55126  1  0  0  0  0
 55127  1  0  0  0  0
 55128  1  0  0  0  0
 56 57  2  0  0  0  0
 56 58  1  0  0  0  0
 58 59  1  0  0  0  0
 58129  1  0  0  0  0
 59 60  1  0  0  0  0
 59130  1  0  0  0  0
 59131  1  0  0  0  0
 60 61  2  0  0  0  0
 60 62  1  0  0  0  0
 62132  1  0  0  0  0
 62133  1  0  0  0  0
 63 64  1  0  0  0  0
 63134  1  0  0  0  0
 63135  1  0  0  0  0
 64 65  2  0  0  0  0
 64 66  1  0  0  0  0
 66136  1  0  0  0  0
 66137  1  0  0  0  0
 67 68  1  0  0  0  0
 67138  1  0  0  0  0
 67139  1  0  0  0  0
 68 69  1  0  0  0  0
 68140  1  0  0  0  0
 68141  1  0  0  0  0
 69 70  1  0  0  0  0
 69142  1  0  0  0  0
 69143  1  0  0  0  0
 70 71  2  0  0  0  0
 70 72  1  0  0  0  0
 72144  1  0  0  0  0
 72145  1  0  0  0  0
M  END
>  <DRUGBANK_ID>
DB12495

>  <COMMON_NAME>
Selepressin

>  <CAS_NUMBER>
876296-47-8

>  <UNII>
8P2T76M0SJ

>  <SYNONYMS>
Selepressin

$$$$
