
 OpenBabel10282417072D

 62 65  0  0  0  0  0  0  0  0999 V2000
    0.3921   -0.2271    0.0000 C   0  0  1  0  0  0  0  0  0  0  0  0
   -1.0452   -1.0438    0.0000 C   0  0  2  0  0  0  0  0  0  0  0  0
   -1.7576   -1.4562    0.0000 C   0  0  2  0  0  0  0  0  0  0  0  0
    0.3879   -1.0520    0.0000 C   0  0  2  0  0  0  0  0  0  0  0  0
   -0.3244   -1.4562    0.0000 C   0  0  2  0  0  0  0  0  0  0  0  0
    1.1879    0.0186    0.0000 C   0  0  2  0  0  0  0  0  0  0  0  0
   -1.7576   -2.2812    0.0000 C   0  0  0  0  0  0  0  0  0  0  0  0
   -1.0369   -0.2147    0.0000 C   0  0  2  0  0  0  0  0  0  0  0  0
   -0.3202    0.1936    0.0000 C   0  0  0  0  0  0  0  0  0  0  0  0
    1.6629   -0.6563    0.0000 C   0  0  1  0  0  0  0  0  0  0  0  0
   -2.4617   -1.0397    0.0000 C   0  0  0  0  0  0  0  0  0  0  0  0
    1.1671   -1.3188    0.0000 C   0  0  0  0  0  0  0  0  0  0  0  0
   -2.4617   -2.6896    0.0000 C   0  0  0  0  0  0  0  0  0  0  0  0
    1.4546    0.7978    0.0000 C   0  0  0  0  0  0  0  0  0  0  0  0
   -0.3328   -2.2812    0.0000 C   0  0  0  0  0  0  0  0  0  0  0  0
   -3.1743   -1.4562    0.0000 C   0  0  0  0  0  0  0  0  0  0  0  0
   -3.1743   -2.2812    0.0000 C   0  0  0  0  0  0  0  0  0  0  0  0
   -1.0452   -2.6937    0.0000 C   0  0  0  0  0  0  0  0  0  0  0  0
   -1.0452   -1.8688    0.0000 F   0  0  0  0  0  0  0  0  0  0  0  0
    0.9046    1.4185    0.0000 O   0  0  0  0  0  0  0  0  0  0  0  0
   -3.8952   -2.6937    0.0000 O   0  0  0  0  0  0  0  0  0  0  0  0
    1.9796    0.2353    0.0000 O   0  0  0  0  0  0  0  0  0  0  0  0
    0.3921    0.6061    0.0000 C   0  0  0  0  0  0  0  0  0  0  0  0
   -1.7494    0.2061    0.0000 O   0  0  0  0  0  0  0  0  0  0  0  0
   -1.7576   -0.6312    0.0000 C   0  0  0  0  0  0  0  0  0  0  0  0
    2.4879   -0.6688    0.0000 C   0  0  0  0  0  0  0  0  0  0  0  0
    2.2628    0.9602    0.0000 C   0  0  0  0  0  0  0  0  0  0  0  0
    2.5296    1.7435    0.0000 O   0  0  0  0  0  0  0  0  0  0  0  0
    0.3797   -1.8688    0.0000 H   0  0  0  0  0  0  0  0  0  0  0  0
   -0.3328   -0.6312    0.0000 H   0  0  0  0  0  0  0  0  0  0  0  0
    3.3465    1.9054    0.0000 C   0  0  0  0  0  0  0  0  0  0  0  0
    3.6150    2.6937    0.0000 O   0  0  0  0  0  0  0  0  0  0  0  0
    3.8952    1.2786    0.0000 C   0  0  0  0  0  0  0  0  0  0  0  0
   -1.9688   -0.7405    0.0000 H   0  0  0  0  0  0  0  0  0  0  0  0
   -0.3118    1.2636    0.0000 H   0  0  0  0  0  0  0  0  0  0  0  0
    0.6112    0.7204    0.0000 H   0  0  0  0  0  0  0  0  0  0  0  0
    2.1630    0.2896    0.0000 H   0  0  0  0  0  0  0  0  0  0  0  0
   -2.4590   -0.0077    0.0000 H   0  0  0  0  0  0  0  0  0  0  0  0
    1.4825   -2.3413    0.0000 H   0  0  0  0  0  0  0  0  0  0  0  0
    2.2214   -1.5015    0.0000 H   0  0  0  0  0  0  0  0  0  0  0  0
   -2.4590   -3.7216    0.0000 H   0  0  0  0  0  0  0  0  0  0  0  0
    0.5915   -2.8203    0.0000 H   0  0  0  0  0  0  0  0  0  0  0  0
   -0.3345   -3.3512    0.0000 H   0  0  0  0  0  0  0  0  0  0  0  0
   -4.0694   -0.9426    0.0000 H   0  0  0  0  0  0  0  0  0  0  0  0
   -1.0452   -3.7637    0.0000 H   0  0  0  0  0  0  0  0  0  0  0  0
   -1.9722   -3.2281    0.0000 H   0  0  0  0  0  0  0  0  0  0  0  0
    2.6692   -0.4469    0.0000 H   0  0  0  0  0  0  0  0  0  0  0  0
    1.3187    1.1411    0.0000 H   0  0  0  0  0  0  0  0  0  0  0  0
   -0.5345    1.1411    0.0000 H   0  0  0  0  0  0  0  0  0  0  0  0
    0.3921    1.6761    0.0000 H   0  0  0  0  0  0  0  0  0  0  0  0
   -1.7398    1.1761    0.0000 H   0  0  0  0  0  0  0  0  0  0  0  0
   -0.8310   -0.0962    0.0000 H   0  0  0  0  0  0  0  0  0  0  0  0
   -2.6842   -0.0962    0.0000 H   0  0  0  0  0  0  0  0  0  0  0  0
   -1.7576    0.4388    0.0000 H   0  0  0  0  0  0  0  0  0  0  0  0
    3.0088   -1.6034    0.0000 H   0  0  0  0  0  0  0  0  0  0  0  0
    3.0369    0.2496    0.0000 H   0  0  0  0  0  0  0  0  0  0  0  0
    3.5578   -0.6850    0.0000 H   0  0  0  0  0  0  0  0  0  0  0  0
    2.9687    0.1561    0.0000 H   0  0  0  0  0  0  0  0  0  0  0  0
    3.3123    1.1686    0.0000 H   0  0  0  0  0  0  0  0  0  0  0  0
    3.5504    0.2657    0.0000 H   0  0  0  0  0  0  0  0  0  0  0  0
    4.9448    1.4864    0.0000 H   0  0  0  0  0  0  0  0  0  0  0  0
    4.6000    0.4735    0.0000 H   0  0  0  0  0  0  0  0  0  0  0  0
  1 23  1  1  0  0  0
  2  8  1  0  0  0  0
  2 19  1  6  0  0  0
  2  5  1  0  0  0  0
  3  2  1  0  0  0  0
  3 25  1  1  0  0  0
  4  1  1  0  0  0  0
  4 29  1  6  0  0  0
  5  4  1  0  0  0  0
  5 30  1  1  0  0  0
  6  1  1  0  0  0  0
  6 14  1  1  0  0  0
  7  3  1  0  0  0  0
  8  9  1  0  0  0  0
  8 24  1  0  0  0  0
  8 34  1  6  0  0  0
  9  1  1  0  0  0  0
  9 35  1  0  0  0  0
  9 36  1  0  0  0  0
 10  6  1  0  0  0  0
 10 26  1  0  0  0  0
 10 12  1  0  0  0  0
 10 37  1  1  0  0  0
 11  3  1  0  0  0  0
 11 38  1  0  0  0  0
 12  4  1  0  0  0  0
 12 39  1  0  0  0  0
 12 40  1  0  0  0  0
 13  7  2  0  0  0  0
 13 41  1  0  0  0  0
 15  5  1  0  0  0  0
 15 42  1  0  0  0  0
 15 43  1  0  0  0  0
 16 11  2  0  0  0  0
 16 44  1  0  0  0  0
 17 16  1  0  0  0  0
 17 13  1  0  0  0  0
 18 15  1  0  0  0  0
 18  7  1  0  0  0  0
 18 45  1  0  0  0  0
 18 46  1  0  0  0  0
 20 14  2  0  0  0  0
 21 17  2  0  0  0  0
 22  6  1  0  0  0  0
 22 47  1  0  0  0  0
 23 48  1  0  0  0  0
 23 49  1  0  0  0  0
 23 50  1  0  0  0  0
 24 51  1  0  0  0  0
 25 52  1  0  0  0  0
 25 53  1  0  0  0  0
 25 54  1  0  0  0  0
 26 55  1  0  0  0  0
 26 56  1  0  0  0  0
 26 57  1  0  0  0  0
 27 14  1  0  0  0  0
 27 58  1  0  0  0  0
 27 59  1  0  0  0  0
 28 27  1  0  0  0  0
 28 31  1  0  0  0  0
 31 32  2  0  0  0  0
 31 33  1  0  0  0  0
 33 60  1  0  0  0  0
 33 61  1  0  0  0  0
 33 62  1  0  0  0  0
M  END
>  <DRUGBANK_ID>
DB14649

>  <SECONDARY_ACCESSION_NUMBERS>
DBSALT000383

>  <COMMON_NAME>
Dexamethasone acetate

>  <CAS_NUMBER>
1177-87-3

>  <UNII>
K7V8P532WP

>  <SYNONYMS>
16alpha-Methyl-9alpha-fluoroprednisolone 21-acetate; 9alpha-Fluoro-16alpha-methylprednisolone acetate; Dexamethasone 21-acetate; Dexamethasone acetate anhydrous; Dexamethasone acetate, anhydrous; Dexamethasoni acetas

$$$$
