PCS
 OpenBabel10282417072D

 25 25  0  0  0  0  0  0  0  0999 V2000
   -0.7675    0.6384    0.0000 N   0  0  0  0  0  0  0  0  0  0  0  0
   -0.7675   -0.1866    0.0000 C   0  0  2  0  0  0  0  0  0  0  0  0
   -1.4820   -0.5991    0.0000 C   0  0  0  0  0  0  0  0  0  0  0  0
   -0.0531   -0.5991    0.0000 C   0  0  0  0  0  0  0  0  0  0  0  0
   -1.4820   -1.4241    0.0000 O   0  0  0  0  0  0  0  0  0  0  0  0
    1.3759   -0.5991    0.0000 C   0  0  0  0  0  0  0  0  0  0  0  0
    0.6614   -0.1866    0.0000 C   0  0  0  0  0  0  0  0  0  0  0  0
    0.6614    0.6384    0.0000 C   0  0  0  0  0  0  0  0  0  0  0  0
    1.3759    1.0509    0.0000 C   0  0  0  0  0  0  0  0  0  0  0  0
    2.0904    0.6384    0.0000 C   0  0  0  0  0  0  0  0  0  0  0  0
    2.0904   -0.1866    0.0000 C   0  0  0  0  0  0  0  0  0  0  0  0
   -2.1965   -0.1866    0.0000 C   0  0  0  0  0  0  0  0  0  0  0  0
   -2.9109   -0.5991    0.0000 Cl  0  0  0  0  0  0  0  0  0  0  0  0
   -1.2732    0.1053    0.0000 H   0  0  0  0  0  0  0  0  0  0  0  0
    0.1158    1.1484    0.0000 H   0  0  0  0  0  0  0  0  0  0  0  0
   -1.6508    1.1484    0.0000 H   0  0  0  0  0  0  0  0  0  0  0  0
   -0.0531   -1.6691    0.0000 H   0  0  0  0  0  0  0  0  0  0  0  0
    0.8735   -1.1341    0.0000 H   0  0  0  0  0  0  0  0  0  0  0  0
    1.3759   -1.6311    0.0000 H   0  0  0  0  0  0  0  0  0  0  0  0
   -0.2323    1.1544    0.0000 H   0  0  0  0  0  0  0  0  0  0  0  0
    1.3759    2.0829    0.0000 H   0  0  0  0  0  0  0  0  0  0  0  0
    2.9841    1.1544    0.0000 H   0  0  0  0  0  0  0  0  0  0  0  0
    2.9841   -0.7026    0.0000 H   0  0  0  0  0  0  0  0  0  0  0  0
   -2.1965    0.8834    0.0000 H   0  0  0  0  0  0  0  0  0  0  0  0
   -3.1232    0.3484    0.0000 H   0  0  0  0  0  0  0  0  0  0  0  0
  1 15  1  0  0  0  0
  1 16  1  0  0  0  0
  2  1  1  0  0  0  0
  2  3  1  0  0  0  0
  2  4  1  0  0  0  0
  2 14  1  6  0  0  0
  3  5  2  0  0  0  0
  3 12  1  0  0  0  0
  4  7  1  0  0  0  0
  4 17  1  0  0  0  0
  4 18  1  0  0  0  0
  6  7  2  0  0  0  0
  6 11  1  0  0  0  0
  6 19  1  0  0  0  0
  7  8  1  0  0  0  0
  8  9  2  0  0  0  0
  8 20  1  0  0  0  0
  9 10  1  0  0  0  0
  9 21  1  0  0  0  0
 10 11  2  0  0  0  0
 10 22  1  0  0  0  0
 11 23  1  0  0  0  0
 12 13  1  0  0  0  0
 12 24  1  0  0  0  0
 12 25  1  0  0  0  0
M  END
>  <DRUGBANK_ID>
DB08374

>  <COMMON_NAME>
Phenylalanylmethylchloride

>  <CAS_NUMBER>
52735-71-4

>  <SYNONYMS>
(3S)-3-Amino-1-chloro-4-phenyl-2-butanone; L-Phenylalanine chloromethyl ketone

$$$$
