
 OpenBabel10282417072D

 47 50  0  0  0  0  0  0  0  0999 V2000
    0.4609    0.9193    0.0000 N   0  0  0  0  0  0  0  0  0  0  0  0
   -0.3260    1.1678    0.0000 C   0  0  0  0  0  0  0  0  0  0  0  0
   -0.5080    1.9608    0.0000 N   0  0  0  0  0  0  0  0  0  0  0  0
    0.1089    2.5447    0.0000 C   0  0  0  0  0  0  0  0  0  0  0  0
    0.8957    2.2963    0.0000 C   0  0  0  0  0  0  0  0  0  0  0  0
    1.0654    1.4639    0.0000 C   0  0  0  0  0  0  0  0  0  0  0  0
    1.8523    1.2153    0.0000 N   0  0  0  0  0  0  0  0  0  0  0  0
    1.5003    2.8407    0.0000 N   0  0  0  0  0  0  0  0  0  0  0  0
   -0.0731    3.3376    0.0000 N   0  0  0  0  0  0  0  0  0  0  0  0
   -0.9305    0.6233    0.0000 C   0  0  0  0  0  0  0  0  0  0  0  0
   -1.3673   -0.6231    0.0000 N   0  0  0  0  0  0  0  0  0  0  0  0
   -2.0010   -0.1634    0.0000 C   0  0  0  0  0  0  0  0  0  0  0  0
   -1.7526    0.6233    0.0000 C   0  0  0  0  0  0  0  0  0  0  0  0
   -0.6574   -0.1552    0.0000 N   0  0  0  0  0  0  0  0  0  0  0  0
   -2.8209   -0.2939    0.0000 N   0  0  0  0  0  0  0  0  0  0  0  0
   -3.3655    0.3107    0.0000 C   0  0  0  0  0  0  0  0  0  0  0  0
   -3.1171    1.0974    0.0000 C   0  0  0  0  0  0  0  0  0  0  0  0
   -2.2847    1.2673    0.0000 C   0  0  0  0  0  0  0  0  0  0  0  0
   -1.1853   -1.4162    0.0000 C   0  0  0  0  0  0  0  0  0  0  0  0
   -1.7898   -1.9607    0.0000 C   0  0  0  0  0  0  0  0  0  0  0  0
   -1.6078   -2.7538    0.0000 C   0  0  0  0  0  0  0  0  0  0  0  0
   -2.2248   -3.3376    0.0000 C   0  0  0  0  0  0  0  0  0  0  0  0
   -3.0116   -3.0891    0.0000 C   0  0  0  0  0  0  0  0  0  0  0  0
   -3.1937   -2.2961    0.0000 C   0  0  0  0  0  0  0  0  0  0  0  0
   -2.5767   -1.7121    0.0000 C   0  0  0  0  0  0  0  0  0  0  0  0
   -3.6526    1.6921    0.0000 F   0  0  0  0  0  0  0  0  0  0  0  0
   -0.8289   -2.9892    0.0000 F   0  0  0  0  0  0  0  0  0  0  0  0
    2.2741    2.5894    0.0000 C   0  0  0  0  0  0  0  0  0  0  0  0
    2.4435    1.7935    0.0000 O   0  0  0  0  0  0  0  0  0  0  0  0
    2.8788    3.1339    0.0000 O   0  0  0  0  0  0  0  0  0  0  0  0
    3.6526    2.8826    0.0000 C   0  0  0  0  0  0  0  0  0  0  0  0
    2.0648    0.2540    0.0000 H   0  0  0  0  0  0  0  0  0  0  0  0
    2.5785    1.8800    0.0000 H   0  0  0  0  0  0  0  0  0  0  0  0
    1.2955    3.8037    0.0000 H   0  0  0  0  0  0  0  0  0  0  0  0
    0.6478    4.0081    0.0000 H   0  0  0  0  0  0  0  0  0  0  0  0
   -1.0142    3.6266    0.0000 H   0  0  0  0  0  0  0  0  0  0  0  0
   -4.3740    0.0918    0.0000 H   0  0  0  0  0  0  0  0  0  0  0  0
   -1.9411    2.2404    0.0000 H   0  0  0  0  0  0  0  0  0  0  0  0
   -0.1650   -1.7385    0.0000 H   0  0  0  0  0  0  0  0  0  0  0  0
   -0.9585   -2.4619    0.0000 H   0  0  0  0  0  0  0  0  0  0  0  0
   -1.9936   -4.3434    0.0000 H   0  0  0  0  0  0  0  0  0  0  0  0
   -3.7700   -3.7890    0.0000 H   0  0  0  0  0  0  0  0  0  0  0  0
   -4.1815   -1.9975    0.0000 H   0  0  0  0  0  0  0  0  0  0  0  0
   -2.8079   -0.7063    0.0000 H   0  0  0  0  0  0  0  0  0  0  0  0
    3.8752    1.8360    0.0000 H   0  0  0  0  0  0  0  0  0  0  0  0
    4.4477    3.5987    0.0000 H   0  0  0  0  0  0  0  0  0  0  0  0
    4.6703    2.5521    0.0000 H   0  0  0  0  0  0  0  0  0  0  0  0
  1  2  1  0  0  0  0
  1  6  2  0  0  0  0
  2  3  2  0  0  0  0
  2 10  1  0  0  0  0
  3  4  1  0  0  0  0
  4  5  2  0  0  0  0
  4  9  1  0  0  0  0
  5  6  1  0  0  0  0
  5  8  1  0  0  0  0
  6  7  1  0  0  0  0
  7 32  1  0  0  0  0
  7 33  1  0  0  0  0
  8 28  1  0  0  0  0
  8 34  1  0  0  0  0
  9 35  1  0  0  0  0
  9 36  1  0  0  0  0
 10 14  2  0  0  0  0
 11 12  1  0  0  0  0
 11 14  1  0  0  0  0
 12 13  2  0  0  0  0
 12 15  1  0  0  0  0
 13 10  1  0  0  0  0
 13 18  1  0  0  0  0
 15 16  2  0  0  0  0
 16 17  1  0  0  0  0
 16 37  1  0  0  0  0
 17 18  2  0  0  0  0
 17 26  1  0  0  0  0
 18 38  1  0  0  0  0
 19 11  1  0  0  0  0
 19 20  1  0  0  0  0
 19 39  1  0  0  0  0
 19 40  1  0  0  0  0
 20 21  1  0  0  0  0
 20 25  2  0  0  0  0
 21 22  2  0  0  0  0
 21 27  1  0  0  0  0
 22 23  1  0  0  0  0
 22 41  1  0  0  0  0
 23 24  2  0  0  0  0
 23 42  1  0  0  0  0
 24 25  1  0  0  0  0
 24 43  1  0  0  0  0
 25 44  1  0  0  0  0
 28 29  2  0  0  0  0
 28 30  1  0  0  0  0
 30 31  1  0  0  0  0
 31 45  1  0  0  0  0
 31 46  1  0  0  0  0
 31 47  1  0  0  0  0
M  END
>  <DRUGBANK_ID>
DB15456

>  <COMMON_NAME>
Vericiguat

>  <CAS_NUMBER>
1350653-20-1

>  <UNII>
LV66ADM269

>  <SYNONYMS>
Vericiguat; VÃ©riciguat; Vericiguatum

$$$$
