
 OpenBabel10282417072D

 74 73  0  0  1  0  0  0  0  0999 V2000
    0.7887   -3.3739    0.0000 C   0  0  0  0  0  0  0  0  0  0  0  0
    0.5905   -4.1747    0.0000 C   0  0  0  0  0  0  0  0  0  0  0  0
    1.1850   -4.7467    0.0000 C   0  0  0  0  0  0  0  0  0  0  0  0
    0.9868   -5.5476    0.0000 C   0  0  0  0  0  0  0  0  0  0  0  0
    1.5813   -6.1196    0.0000 C   0  0  0  0  0  0  0  0  0  0  0  0
    1.3831   -6.9205    0.0000 C   0  0  0  0  0  0  0  0  0  0  0  0
    1.9776   -7.4925    0.0000 C   0  0  0  0  0  0  0  0  0  0  0  0
    2.7703   -7.2637    0.0000 C   0  0  0  0  0  0  0  0  0  0  0  0
    3.3647   -7.8357    0.0000 C   0  0  0  0  0  0  0  0  0  0  0  0
    4.1574   -7.6069    0.0000 C   0  0  0  0  0  0  0  0  0  0  0  0
    4.3555   -6.8061    0.0000 C   0  0  0  0  0  0  0  0  0  0  0  0
    5.1482   -6.5773    0.0000 C   0  0  0  0  0  0  0  0  0  0  0  0
    5.3463   -5.7764    0.0000 C   0  0  0  0  0  0  0  0  0  0  0  0
    6.1390   -5.5476    0.0000 C   0  0  0  0  0  0  0  0  0  0  0  0
    6.3371   -4.7467    0.0000 C   0  0  2  0  0  0  0  0  0  0  0  0
    5.7426   -4.1747    0.0000 C   0  0  2  0  0  0  0  0  0  0  0  0
    5.9408   -3.3739    0.0000 C   0  0  0  0  0  0  0  0  0  0  0  0
    5.3463   -2.8018    0.0000 C   0  0  0  0  0  0  0  0  0  0  0  0
    5.5445   -2.0010    0.0000 C   0  0  0  0  0  0  0  0  0  0  0  0
    4.9500   -1.4289    0.0000 C   0  0  0  0  0  0  0  0  0  0  0  0
    4.1574   -1.6578    0.0000 O   0  0  0  0  0  0  0  0  0  0  0  0
    5.1482   -0.6281    0.0000 O   0  0  0  0  0  0  0  0  0  0  0  0
    4.9500   -4.4035    0.0000 O   0  0  0  0  0  0  0  0  0  0  0  0
    7.1297   -4.5179    0.0000 S   0  0  0  0  0  0  0  0  0  0  0  0
    7.3279   -3.7171    0.0000 C   0  0  0  0  0  0  0  0  0  0  0  0
    8.1205   -3.4883    0.0000 C   0  0  1  0  0  0  0  0  0  0  0  0
    8.3187   -2.6874    0.0000 C   0  0  0  0  0  0  0  0  0  0  0  0
    7.7242   -2.1154    0.0000 O   0  0  0  0  0  0  0  0  0  0  0  0
    9.1113   -2.4586    0.0000 N   0  0  0  0  0  0  0  0  0  0  0  0
    9.3095   -1.6578    0.0000 C   0  0  0  0  0  0  0  0  0  0  0  0
   10.1021   -1.4289    0.0000 C   0  0  0  0  0  0  0  0  0  0  0  0
   10.3003   -0.6281    0.0000 O   0  0  0  0  0  0  0  0  0  0  0  0
   10.6966   -2.0010    0.0000 O   0  0  0  0  0  0  0  0  0  0  0  0
    8.7150   -4.0603    0.0000 N   0  0  0  0  0  0  0  0  0  0  0  0
    1.8167   -3.0772    0.0000 H   0  0  0  0  0  0  0  0  0  0  0  0
    0.0177   -2.6319    0.0000 H   0  0  0  0  0  0  0  0  0  0  0  0
    1.0458   -2.3352    0.0000 H   0  0  0  0  0  0  0  0  0  0  0  0
   -0.4375   -4.4715    0.0000 H   0  0  0  0  0  0  0  0  0  0  0  0
    0.3335   -5.2134    0.0000 H   0  0  0  0  0  0  0  0  0  0  0  0
    2.2130   -4.4499    0.0000 H   0  0  0  0  0  0  0  0  0  0  0  0
    1.9560   -5.4886    0.0000 H   0  0  0  0  0  0  0  0  0  0  0  0
   -0.0412   -5.8444    0.0000 H   0  0  0  0  0  0  0  0  0  0  0  0
    0.7298   -6.5863    0.0000 H   0  0  0  0  0  0  0  0  0  0  0  0
    2.6093   -5.8228    0.0000 H   0  0  0  0  0  0  0  0  0  0  0  0
    2.3523   -6.8615    0.0000 H   0  0  0  0  0  0  0  0  0  0  0  0
    0.3916   -7.2067    0.0000 H   0  0  0  0  0  0  0  0  0  0  0  0
    1.7297   -8.4943    0.0000 H   0  0  0  0  0  0  0  0  0  0  0  0
    3.0273   -6.2250    0.0000 H   0  0  0  0  0  0  0  0  0  0  0  0
    3.7983   -6.9670    0.0000 H   0  0  0  0  0  0  0  0  0  0  0  0
    3.1168   -8.8375    0.0000 H   0  0  0  0  0  0  0  0  0  0  0  0
    4.9010   -8.3225    0.0000 H   0  0  0  0  0  0  0  0  0  0  0  0
    3.6119   -6.0905    0.0000 H   0  0  0  0  0  0  0  0  0  0  0  0
    5.8919   -7.2928    0.0000 H   0  0  0  0  0  0  0  0  0  0  0  0
    4.6026   -5.0609    0.0000 H   0  0  0  0  0  0  0  0  0  0  0  0
    6.8827   -6.2631    0.0000 H   0  0  0  0  0  0  0  0  0  0  0  0
    7.1081   -5.4886    0.0000 H   0  0  0  0  0  0  0  0  0  0  0  0
    5.4856   -5.2134    0.0000 H   0  0  0  0  0  0  0  0  0  0  0  0
    6.9688   -3.0772    0.0000 H   0  0  0  0  0  0  0  0  0  0  0  0
    6.1979   -2.3352    0.0000 H   0  0  0  0  0  0  0  0  0  0  0  0
    4.3183   -3.0985    0.0000 H   0  0  0  0  0  0  0  0  0  0  0  0
    4.5753   -2.0598    0.0000 H   0  0  0  0  0  0  0  0  0  0  0  0
    6.5725   -1.7043    0.0000 H   0  0  0  0  0  0  0  0  0  0  0  0
    5.8016   -0.9623    0.0000 H   0  0  0  0  0  0  0  0  0  0  0  0
    6.0485   -0.3683    0.0000 H   0  0  0  0  0  0  0  0  0  0  0  0
    4.2510   -3.7309    0.0000 H   0  0  0  0  0  0  0  0  0  0  0  0
    6.5569   -2.9752    0.0000 H   0  0  0  0  0  0  0  0  0  0  0  0
    7.5849   -2.6784    0.0000 H   0  0  0  0  0  0  0  0  0  0  0  0
    7.8635   -4.5270    0.0000 H   0  0  0  0  0  0  0  0  0  0  0  0
    9.8207   -3.1413    0.0000 H   0  0  0  0  0  0  0  0  0  0  0  0
    8.5385   -0.9159    0.0000 H   0  0  0  0  0  0  0  0  0  0  0  0
    9.5664   -0.6191    0.0000 H   0  0  0  0  0  0  0  0  0  0  0  0
   10.4715   -2.9106    0.0000 H   0  0  0  0  0  0  0  0  0  0  0  0
    8.4701   -5.0505    0.0000 H   0  0  0  0  0  0  0  0  0  0  0  0
    9.6950   -3.7774    0.0000 H   0  0  0  0  0  0  0  0  0  0  0  0
  1  2  1  0  0  0  0
  1 35  1  0  0  0  0
  1 36  1  0  0  0  0
  1 37  1  0  0  0  0
  2  3  1  0  0  0  0
  2 38  1  0  0  0  0
  2 39  1  0  0  0  0
  3  4  1  0  0  0  0
  3 40  1  0  0  0  0
  3 41  1  0  0  0  0
  4  5  1  0  0  0  0
  4 42  1  0  0  0  0
  4 43  1  0  0  0  0
  5  6  1  0  0  0  0
  5 44  1  0  0  0  0
  5 45  1  0  0  0  0
  6  7  2  0  0  0  0
  6 46  1  0  0  0  0
  7  8  1  0  0  0  0
  7 47  1  0  0  0  0
  8  9  1  0  0  0  0
  8 48  1  0  0  0  0
  8 49  1  0  0  0  0
  9 10  2  0  0  0  0
  9 50  1  0  0  0  0
 10 11  1  0  0  0  0
 10 51  1  0  0  0  0
 11 12  2  0  0  0  0
 11 52  1  0  0  0  0
 12 13  1  0  0  0  0
 12 53  1  0  0  0  0
 13 14  2  0  0  0  0
 13 54  1  0  0  0  0
 14 15  1  0  0  0  0
 14 55  1  0  0  0  0
 15 16  1  0  0  0  0
 15 24  1  0  0  0  0
 15 56  1  1  0  0  0
 16 17  1  0  0  0  0
 16 23  1  0  0  0  0
 16 57  1  6  0  0  0
 17 18  1  0  0  0  0
 17 58  1  0  0  0  0
 17 59  1  0  0  0  0
 18 19  1  0  0  0  0
 18 60  1  0  0  0  0
 18 61  1  0  0  0  0
 19 20  1  0  0  0  0
 19 62  1  0  0  0  0
 19 63  1  0  0  0  0
 20 21  2  0  0  0  0
 20 22  1  0  0  0  0
 22 64  1  0  0  0  0
 23 65  1  0  0  0  0
 24 25  1  0  0  0  0
 25 26  1  0  0  0  0
 25 66  1  0  0  0  0
 25 67  1  0  0  0  0
 26 27  1  0  0  0  0
 26 34  1  0  0  0  0
 26 68  1  6  0  0  0
 27 28  2  0  0  0  0
 27 29  1  0  0  0  0
 29 30  1  0  0  0  0
 29 69  1  0  0  0  0
 30 31  1  0  0  0  0
 30 70  1  0  0  0  0
 30 71  1  0  0  0  0
 31 32  2  0  0  0  0
 31 33  1  0  0  0  0
 33 72  1  0  0  0  0
 34 73  1  0  0  0  0
 34 74  1  0  0  0  0
M  END
>  <DRUGBANK_ID>
DB11858

>  <COMMON_NAME>
Leukotriene D4

>  <CAS_NUMBER>
73836-78-9

>  <UNII>
5FNY4416UE

>  <SYNONYMS>
(R-(R*,S*-(E,E,Z,Z)))-N-(S-(1-(4-Carboxy-1-hydroxybutyl)-2,4,6,9-pentadecatetraenyl)-L-cysteinyl)glycine; 5S-hydroxy-6R-(S-cysteinylglycinyl)-7E,9E,11E,14Z-eicosatetraenoic acid; LTD4; S-{(1R,2E,4E,6Z,9Z)-1-[(1S)-4-carboxy-1-hydroxybutyl]pentadeca-2,4,6,9-tetraen-1-yl}-L-cysteinylglycine

$$$$
