
 OpenBabel10282417072D

 93 95  0  0  1  0  0  0  0  0999 V2000
    8.1807  -13.0763    0.0000 C   0  0  0  0  0  0  0  0  0  0  0  0
    8.8952  -12.6638    0.0000 C   0  0  0  0  0  0  0  0  0  0  0  0
    9.6097  -13.0763    0.0000 S   0  0  0  0  0  0  0  0  0  0  0  0
   10.3241  -12.6638    0.0000 C   0  0  0  0  0  0  0  0  0  0  0  0
   11.0386  -13.0763    0.0000 C   0  0  0  0  0  0  0  0  0  0  0  0
   11.7531  -12.6638    0.0000 N   0  0  0  0  0  0  0  0  0  0  0  0
   12.4675  -13.0763    0.0000 C   0  0  0  0  0  0  0  0  0  0  0  0
   13.1820  -12.6638    0.0000 C   0  0  0  0  0  0  0  0  0  0  0  0
   13.8965  -13.0763    0.0000 C   0  0  0  0  0  0  0  0  0  0  0  0
   14.6110  -12.6638    0.0000 N   0  0  0  0  0  0  0  0  0  0  0  0
   15.3254  -13.0763    0.0000 C   0  0  0  0  0  0  0  0  0  0  0  0
   16.0399  -12.6638    0.0000 C   0  0  1  0  0  0  0  0  0  0  0  0
   16.7544  -13.0763    0.0000 C   0  0  0  0  0  0  0  0  0  0  0  0
   17.4688  -12.6638    0.0000 C   0  0  0  0  0  0  0  0  0  0  0  0
   18.1833  -13.0763    0.0000 O   0  0  0  0  0  0  0  0  0  0  0  0
    8.8952  -11.8389    0.0000 O   0  0  0  0  0  0  0  0  0  0  0  0
   12.4675  -13.9012    0.0000 O   0  0  0  0  0  0  0  0  0  0  0  0
   15.3254  -13.9010    0.0000 O   0  0  0  0  0  0  0  0  0  0  0  0
   16.0399  -11.8388    0.0000 O   0  0  0  0  0  0  0  0  0  0  0  0
   16.7544  -12.2513    0.0000 C   0  0  0  0  0  0  0  0  0  0  0  0
   16.7544  -13.9013    0.0000 C   0  0  0  0  0  0  0  0  0  0  0  0
   19.0083  -13.0763    0.0000 P   0  0  3  0  0  0  0  0  0  0  0  0
   19.8333  -13.0763    0.0000 O   0  0  0  0  0  0  0  0  0  0  0  0
   19.0083  -13.9013    0.0000 O   0  0  0  0  0  0  0  0  0  0  0  0
   15.1800  -10.1475    0.0000 C   0  0  2  0  0  0  0  0  0  0  0  0
   16.0050  -10.1475    0.0000 C   0  0  1  0  0  0  0  0  0  0  0  0
   16.2599   -9.3629    0.0000 C   0  0  2  0  0  0  0  0  0  0  0  0
   15.5925   -8.8779    0.0000 O   0  0  0  0  0  0  0  0  0  0  0  0
   14.9251   -9.3629    0.0000 C   0  0  1  0  0  0  0  0  0  0  0  0
   17.0375   -9.1102    0.0000 C   0  0  0  0  0  0  0  0  0  0  0  0
   14.6951  -10.8149    0.0000 O   0  0  0  0  0  0  0  0  0  0  0  0
   16.4899  -10.8149    0.0000 O   0  0  0  0  0  0  0  0  0  0  0  0
   17.3149  -10.8149    0.0000 P   0  0  0  0  0  0  0  0  0  0  0  0
   17.3149   -9.9899    0.0000 O   0  0  0  0  0  0  0  0  0  0  0  0
   18.1399  -10.8149    0.0000 O   0  0  0  0  0  0  0  0  0  0  0  0
   17.3149  -11.6399    0.0000 O   0  0  0  0  0  0  0  0  0  0  0  0
   12.4988   -8.2913    0.0000 C   0  0  0  0  0  0  0  0  0  0  0  0
   12.4988   -9.1163    0.0000 C   0  0  0  0  0  0  0  0  0  0  0  0
   13.9277   -9.1163    0.0000 N   0  0  0  0  0  0  0  0  0  0  0  0
   13.9277   -8.2913    0.0000 C   0  0  0  0  0  0  0  0  0  0  0  0
   13.2132   -7.8788    0.0000 N   0  0  0  0  0  0  0  0  0  0  0  0
   11.7843   -7.8788    0.0000 C   0  0  0  0  0  0  0  0  0  0  0  0
   11.0698   -8.2913    0.0000 N   0  0  0  0  0  0  0  0  0  0  0  0
   11.0698   -9.1163    0.0000 C   0  0  0  0  0  0  0  0  0  0  0  0
   11.7843   -9.5288    0.0000 N   0  0  0  0  0  0  0  0  0  0  0  0
   11.7843   -7.0539    0.0000 N   0  0  0  0  0  0  0  0  0  0  0  0
   18.2057   -9.3649    0.0000 O   0  0  0  0  0  0  0  0  0  0  0  0
   19.0307   -9.3649    0.0000 P   0  0  3  0  0  0  0  0  0  0  0  0
   19.0307   -8.5399    0.0000 O   0  0  0  0  0  0  0  0  0  0  0  0
   19.8557   -9.3649    0.0000 O   0  0  0  0  0  0  0  0  0  0  0  0
   19.0307  -11.2624    0.0000 O   0  0  0  0  0  0  0  0  0  0  0  0
    7.4564  -12.6580    0.0000 C   0  0  0  0  0  0  0  0  0  0  0  0
    8.1806  -13.9011    0.0000 C   0  0  0  0  0  0  0  0  0  0  0  0
   10.3241  -11.5938    0.0000 H   0  0  0  0  0  0  0  0  0  0  0  0
   11.2507  -12.1288    0.0000 H   0  0  0  0  0  0  0  0  0  0  0  0
   11.0386  -14.1463    0.0000 H   0  0  0  0  0  0  0  0  0  0  0  0
   11.9652  -13.6113    0.0000 H   0  0  0  0  0  0  0  0  0  0  0  0
   11.7531  -11.6793    0.0000 H   0  0  0  0  0  0  0  0  0  0  0  0
   13.1820  -11.5938    0.0000 H   0  0  0  0  0  0  0  0  0  0  0  0
   14.1086  -12.1288    0.0000 H   0  0  0  0  0  0  0  0  0  0  0  0
   13.8965  -14.1463    0.0000 H   0  0  0  0  0  0  0  0  0  0  0  0
   14.8231  -13.6113    0.0000 H   0  0  0  0  0  0  0  0  0  0  0  0
   14.6110  -11.6793    0.0000 H   0  0  0  0  0  0  0  0  0  0  0  0
   15.1133  -12.1288    0.0000 H   0  0  0  0  0  0  0  0  0  0  0  0
   17.4688  -11.5938    0.0000 H   0  0  0  0  0  0  0  0  0  0  0  0
   18.3954  -12.1288    0.0000 H   0  0  0  0  0  0  0  0  0  0  0  0
   16.8799  -11.3538    0.0000 H   0  0  0  0  0  0  0  0  0  0  0  0
   17.6810  -11.7163    0.0000 H   0  0  0  0  0  0  0  0  0  0  0  0
   15.8278  -11.7163    0.0000 H   0  0  0  0  0  0  0  0  0  0  0  0
   16.7544  -11.1813    0.0000 H   0  0  0  0  0  0  0  0  0  0  0  0
   15.8278  -14.4363    0.0000 H   0  0  0  0  0  0  0  0  0  0  0  0
   17.6810  -14.4363    0.0000 H   0  0  0  0  0  0  0  0  0  0  0  0
   16.7544  -14.9713    0.0000 H   0  0  0  0  0  0  0  0  0  0  0  0
   18.1683  -14.3863    0.0000 H   0  0  0  0  0  0  0  0  0  0  0  0
   15.6658  -11.1009    0.0000 H   0  0  0  0  0  0  0  0  0  0  0  0
   15.5192  -11.1009    0.0000 H   0  0  0  0  0  0  0  0  0  0  0  0
   17.0165  -10.1195    0.0000 H   0  0  0  0  0  0  0  0  0  0  0  0
   14.7198   -8.3128    0.0000 H   0  0  0  0  0  0  0  0  0  0  0  0
   16.9843   -8.0415    0.0000 H   0  0  0  0  0  0  0  0  0  0  0  0
   17.8538   -8.4185    0.0000 H   0  0  0  0  0  0  0  0  0  0  0  0
   13.7304  -10.7135    0.0000 H   0  0  0  0  0  0  0  0  0  0  0  0
   18.1549   -9.5049    0.0000 H   0  0  0  0  0  0  0  0  0  0  0  0
   18.6249  -11.6549    0.0000 H   0  0  0  0  0  0  0  0  0  0  0  0
   14.8214   -7.7753    0.0000 H   0  0  0  0  0  0  0  0  0  0  0  0
   10.1761   -9.6323    0.0000 H   0  0  0  0  0  0  0  0  0  0  0  0
   12.6369   -6.5616    0.0000 H   0  0  0  0  0  0  0  0  0  0  0  0
   10.9317   -6.5616    0.0000 H   0  0  0  0  0  0  0  0  0  0  0  0
   19.8707   -8.0549    0.0000 H   0  0  0  0  0  0  0  0  0  0  0  0
    7.4565  -11.5880    0.0000 H   0  0  0  0  0  0  0  0  0  0  0  0
    6.5297  -13.1929    0.0000 H   0  0  0  0  0  0  0  0  0  0  0  0
    6.5298  -12.1229    0.0000 H   0  0  0  0  0  0  0  0  0  0  0  0
    7.2868  -14.4170    0.0000 H   0  0  0  0  0  0  0  0  0  0  0  0
    9.0743  -14.4172    0.0000 H   0  0  0  0  0  0  0  0  0  0  0  0
  1  2  1  0  0  0  0
  1 52  1  0  0  0  0
  1 53  2  0  0  0  0
  2  3  1  0  0  0  0
  2 16  2  0  0  0  0
  3  4  1  0  0  0  0
  4  5  1  0  0  0  0
  4 54  1  0  0  0  0
  4 55  1  0  0  0  0
  5  6  1  0  0  0  0
  5 56  1  0  0  0  0
  5 57  1  0  0  0  0
  6  7  1  0  0  0  0
  6 58  1  0  0  0  0
  7  8  1  0  0  0  0
  7 17  2  0  0  0  0
  8  9  1  0  0  0  0
  8 59  1  0  0  0  0
  8 60  1  0  0  0  0
  9 10  1  0  0  0  0
  9 61  1  0  0  0  0
  9 62  1  0  0  0  0
 10 11  1  0  0  0  0
 10 63  1  0  0  0  0
 11 12  1  0  0  0  0
 11 18  2  0  0  0  0
 12 13  1  0  0  0  0
 12 19  1  0  0  0  0
 12 64  1  1  0  0  0
 13 14  1  0  0  0  0
 13 20  1  0  0  0  0
 13 21  1  0  0  0  0
 14 15  1  0  0  0  0
 14 65  1  0  0  0  0
 14 66  1  0  0  0  0
 15 22  1  0  0  0  0
 19 67  1  0  0  0  0
 20 68  1  0  0  0  0
 20 69  1  0  0  0  0
 20 70  1  0  0  0  0
 21 71  1  0  0  0  0
 21 72  1  0  0  0  0
 21 73  1  0  0  0  0
 22 23  2  0  0  0  0
 22 24  1  0  0  0  0
 22 51  1  0  0  0  0
 24 74  1  0  0  0  0
 25 26  1  0  0  0  0
 25 29  1  0  0  0  0
 25 31  1  0  0  0  0
 25 75  1  6  0  0  0
 26 27  1  0  0  0  0
 26 32  1  0  0  0  0
 26 76  1  6  0  0  0
 27 28  1  0  0  0  0
 27 30  1  0  0  0  0
 27 77  1  1  0  0  0
 28 29  1  0  0  0  0
 29 39  1  0  0  0  0
 29 78  1  1  0  0  0
 30 47  1  0  0  0  0
 30 79  1  0  0  0  0
 30 80  1  0  0  0  0
 31 81  1  0  0  0  0
 32 33  1  0  0  0  0
 33 34  1  0  0  0  0
 33 35  1  0  0  0  0
 33 36  2  0  0  0  0
 34 82  1  0  0  0  0
 35 83  1  0  0  0  0
 37 38  2  0  0  0  0
 37 41  1  0  0  0  0
 37 42  1  0  0  0  0
 38 39  1  0  0  0  0
 38 45  1  0  0  0  0
 39 40  1  0  0  0  0
 40 41  2  0  0  0  0
 40 84  1  0  0  0  0
 42 43  2  0  0  0  0
 42 46  1  0  0  0  0
 43 44  1  0  0  0  0
 44 45  2  0  0  0  0
 44 85  1  0  0  0  0
 46 86  1  0  0  0  0
 46 87  1  0  0  0  0
 47 48  1  0  0  0  0
 48 49  1  0  0  0  0
 48 50  2  0  0  0  0
 48 51  1  0  0  0  0
 49 88  1  0  0  0  0
 52 89  1  0  0  0  0
 52 90  1  0  0  0  0
 52 91  1  0  0  0  0
 53 92  1  0  0  0  0
 53 93  1  0  0  0  0
M  END
>  <DRUGBANK_ID>
DB01675

>  <SECONDARY_ACCESSION_NUMBERS>
EXPT00129

>  <COMMON_NAME>
Methacrylyl-Coenzyme A

>  <CAS_NUMBER>
6008-91-9

>  <UNII>
FZ43RKZ3NL

$$$$
