242
 OpenBabel10282417072D

 31 33  0  0  1  0  0  0  0  0999 V2000
    1.6500   -0.5556    0.0000 Cl  0  0  0  0  0  0  0  0  0  0  0  0
    4.3467    0.7358    0.0000 O   0  0  0  0  0  0  0  0  0  0  0  0
    6.2852    1.6299    0.0000 O   0  0  0  0  0  0  0  0  0  0  0  0
    5.1323    2.7996    0.0000 O   0  0  0  0  0  0  0  0  0  0  0  0
    4.5741   -0.7167    0.0000 N   0  0  0  0  0  0  0  0  0  0  0  0
    4.5741   -2.0446    0.0000 N   0  0  0  0  0  0  0  0  0  0  0  0
    3.0791   -0.5556    0.0000 N   0  0  0  0  0  0  0  0  0  0  0  0
    2.3645   -1.7931    0.0000 N   0  0  0  0  0  0  0  0  0  0  0  0
    3.0791   -3.0306    0.0000 N   0  0  0  0  0  0  0  0  0  0  0  0
    4.8305    0.0675    0.0000 C   0  0  1  0  0  0  0  0  0  0  0  0
    5.6170    1.1461    0.0000 C   0  0  1  0  0  0  0  0  0  0  0  0
    5.6155    0.3211    0.0000 C   0  0  0  0  0  0  0  0  0  0  0  0
    4.8328    1.4024    0.0000 C   0  0  1  0  0  0  0  0  0  0  0  0
    4.5792    2.1875    0.0000 C   0  0  0  0  0  0  0  0  0  0  0  0
    3.7935   -0.9681    0.0000 C   0  0  0  0  0  0  0  0  0  0  0  0
    5.0556   -1.3806    0.0000 C   0  0  0  0  0  0  0  0  0  0  0  0
    3.7935   -1.7931    0.0000 C   0  0  0  0  0  0  0  0  0  0  0  0
    3.0791   -2.2056    0.0000 C   0  0  0  0  0  0  0  0  0  0  0  0
    2.3645   -0.9681    0.0000 C   0  0  0  0  0  0  0  0  0  0  0  0
    7.1707    1.2339    0.0000 H   0  0  0  0  0  0  0  0  0  0  0  0
    6.0807    2.5962    0.0000 H   0  0  0  0  0  0  0  0  0  0  0  0
    2.2265   -3.5229    0.0000 H   0  0  0  0  0  0  0  0  0  0  0  0
    3.9317   -3.5229    0.0000 H   0  0  0  0  0  0  0  0  0  0  0  0
    3.7734   -0.0980    0.0000 H   0  0  0  0  0  0  0  0  0  0  0  0
    6.5695    0.6587    0.0000 H   0  0  0  0  0  0  0  0  0  0  0  0
    6.4800   -0.3093    0.0000 H   0  0  0  0  0  0  0  0  0  0  0  0
    6.5697    0.8052    0.0000 H   0  0  0  0  0  0  0  0  0  0  0  0
    3.7763    1.5716    0.0000 H   0  0  0  0  0  0  0  0  0  0  0  0
    3.5330    2.4118    0.0000 H   0  0  0  0  0  0  0  0  0  0  0  0
    3.8619    1.3936    0.0000 H   0  0  0  0  0  0  0  0  0  0  0  0
    6.0876   -1.3806    0.0000 H   0  0  0  0  0  0  0  0  0  0  0  0
  1 19  1  0  0  0  0
  2 10  1  0  0  0  0
  2 13  1  0  0  0  0
  3 20  1  0  0  0  0
  4 14  1  0  0  0  0
  4 21  1  0  0  0  0
  5 15  1  0  0  0  0
  5 16  1  0  0  0  0
  6 16  2  0  0  0  0
  6 17  1  0  0  0  0
  7 15  2  0  0  0  0
  7 19  1  0  0  0  0
  8 18  1  0  0  0  0
  8 19  2  0  0  0  0
  9 18  1  0  0  0  0
  9 22  1  0  0  0  0
  9 23  1  0  0  0  0
 10  5  1  0  0  0  0
 10 12  1  0  0  0  0
 10 24  1  1  0  0  0
 11  3  1  0  0  0  0
 11 12  1  0  0  0  0
 11 13  1  0  0  0  0
 11 25  1  6  0  0  0
 12 26  1  0  0  0  0
 12 27  1  0  0  0  0
 13 14  1  0  0  0  0
 13 28  1  1  0  0  0
 14 29  1  0  0  0  0
 14 30  1  0  0  0  0
 15 17  1  0  0  0  0
 16 31  1  0  0  0  0
 17 18  2  0  0  0  0
M  END
>  <DRUGBANK_ID>
DB00242

>  <SECONDARY_ACCESSION_NUMBERS>
APRD00260

>  <COMMON_NAME>
Cladribine

>  <CAS_NUMBER>
4291-63-8

>  <UNII>
47M74X9YT5

>  <SYNONYMS>
(2R,3S,5R)-5-(6-amino-2-chloropurin-9-yl)-2-(hydroxymethyl)oxolan-3-ol; 2-CdA; 2-Chloro-2'-deoxy-beta-adenosine; 2-Chloro-2'-deoxyadenosine; 2-chloro-6-amino-9-(2-deoxy-Î²-D-erythro-pentofuranosyl)purine; 2-chloro-deoxyadenosine; 2-Chlorodeoxyadenosine; 2ClAdo; Cladribina; Cladribine; Cladribinum; CldAdo

$$$$
