811
 OpenBabel10282417072D

 29 30  0  0  1  0  0  0  0  0999 V2000
    4.1496   -1.2476    0.0000 O   0  0  0  0  0  0  0  0  0  0  0  0
    2.0301   -0.9926    0.0000 O   0  0  0  0  0  0  0  0  0  0  0  0
    2.5847   -2.6996    0.0000 O   0  0  0  0  0  0  0  0  0  0  0  0
    5.2001   -2.6134    0.0000 O   0  0  0  0  0  0  0  0  0  0  0  0
    5.2001    1.9132    0.0000 O   0  0  0  0  0  0  0  0  0  0  0  0
    3.4822    0.0624    0.0000 N   0  0  0  0  0  0  0  0  0  0  0  0
    4.1496    0.5473    0.0000 N   0  0  0  0  0  0  0  0  0  0  0  0
    3.0697    1.3320    0.0000 N   0  0  0  0  0  0  0  0  0  0  0  0
    4.0441    2.7530    0.0000 N   0  0  0  0  0  0  0  0  0  0  0  0
    3.0697   -2.0322    0.0000 C   0  0  1  0  0  0  0  0  0  0  0  0
    2.8147   -1.2476    0.0000 C   0  0  2  0  0  0  0  0  0  0  0  0
    3.8947   -2.0322    0.0000 C   0  0  1  0  0  0  0  0  0  0  0  0
    3.4822   -0.7626    0.0000 C   0  0  1  0  0  0  0  0  0  0  0  0
    4.3796   -2.6996    0.0000 C   0  0  0  0  0  0  0  0  0  0  0  0
    2.8147    0.5473    0.0000 C   0  0  0  0  0  0  0  0  0  0  0  0
    3.8947    1.3320    0.0000 C   0  0  0  0  0  0  0  0  0  0  0  0
    4.3796    1.9994    0.0000 C   0  0  0  0  0  0  0  0  0  0  0  0
    1.8285   -0.0438    0.0000 H   0  0  0  0  0  0  0  0  0  0  0  0
    1.6200   -2.5981    0.0000 H   0  0  0  0  0  0  0  0  0  0  0  0
    5.7702   -3.3982    0.0000 H   0  0  0  0  0  0  0  0  0  0  0  0
    4.6228    3.5495    0.0000 H   0  0  0  0  0  0  0  0  0  0  0  0
    3.0650    2.8559    0.0000 H   0  0  0  0  0  0  0  0  0  0  0  0
    2.0129   -1.8648    0.0000 H   0  0  0  0  0  0  0  0  0  0  0  0
    2.0581   -2.0042    0.0000 H   0  0  0  0  0  0  0  0  0  0  0  0
    4.9515   -1.8648    0.0000 H   0  0  0  0  0  0  0  0  0  0  0  0
    4.4356   -0.2769    0.0000 H   0  0  0  0  0  0  0  0  0  0  0  0
    3.9444   -3.6771    0.0000 H   0  0  0  0  0  0  0  0  0  0  0  0
    3.3155   -2.8114    0.0000 H   0  0  0  0  0  0  0  0  0  0  0  0
    1.8332    0.2284    0.0000 H   0  0  0  0  0  0  0  0  0  0  0  0
  1 12  1  0  0  0  0
  1 13  1  0  0  0  0
  2 18  1  0  0  0  0
  3 19  1  0  0  0  0
  4 14  1  0  0  0  0
  4 20  1  0  0  0  0
  5 17  2  0  0  0  0
  6  7  1  0  0  0  0
  6 15  1  0  0  0  0
  7 16  2  0  0  0  0
  8 15  2  0  0  0  0
  8 16  1  0  0  0  0
  9 17  1  0  0  0  0
  9 21  1  0  0  0  0
  9 22  1  0  0  0  0
 10  3  1  0  0  0  0
 10 11  1  0  0  0  0
 10 12  1  0  0  0  0
 10 23  1  6  0  0  0
 11  2  1  0  0  0  0
 11 13  1  0  0  0  0
 11 24  1  6  0  0  0
 12 14  1  0  0  0  0
 12 25  1  1  0  0  0
 13  6  1  0  0  0  0
 13 26  1  1  0  0  0
 14 27  1  0  0  0  0
 14 28  1  0  0  0  0
 15 29  1  0  0  0  0
 16 17  1  0  0  0  0
M  END
>  <DRUGBANK_ID>
DB00811

>  <SECONDARY_ACCESSION_NUMBERS>
APRD00081; EXPT02825; DB01693

>  <COMMON_NAME>
Ribavirin

>  <CAS_NUMBER>
36791-04-5

>  <UNII>
49717AWG6K

>  <SYNONYMS>
1-beta-D-Ribofuranosyl-1,2,4-triazole-3-carboxamide; 1-beta-D-Ribofuranosyl-1H-1,2,4-triazole-3-carboxamide; RBV; Ribavirin; Ribavirina; Ribavirine; Ribavirinum; Tribavirin

$$$$
