
 OpenBabel10282417072D

 50 50  0  0  0  0  0  0  0  0999 V2000
   -0.7214    0.8186    0.0000 C   0  0  0  0  0  0  0  0  0  0  0  0
   -1.4259    0.3959    0.0000 C   0  0  0  0  0  0  0  0  0  0  0  0
   -1.4259   -0.4397    0.0000 C   0  0  0  0  0  0  0  0  0  0  0  0
   -2.1351   -0.8623    0.0000 C   0  0  0  0  0  0  0  0  0  0  0  0
   -2.8639   -0.4397    0.0000 C   0  0  0  0  0  0  0  0  0  0  0  0
   -0.7360    1.6347    0.0000 O   0  0  0  0  0  0  0  0  0  0  0  0
   -2.1497    0.8040    0.0000 C   0  0  0  0  0  0  0  0  0  0  0  0
   -2.8639    0.3813    0.0000 C   0  0  0  0  0  0  0  0  0  0  0  0
   -0.0073    0.4056    0.0000 O   0  0  0  0  0  0  0  0  0  0  0  0
   -3.5781   -0.8719    0.0000 N   0  0  0  0  0  0  0  0  0  0  0  0
    2.1351    0.8429    0.0000 N   0  0  0  0  0  0  0  0  0  0  0  0
   -2.1255   -1.6785    0.0000 O   0  0  0  0  0  0  0  0  0  0  0  0
    0.7068    0.8186    0.0000 C   0  0  0  0  0  0  0  0  0  0  0  0
    1.4210    0.4201    0.0000 C   0  0  0  0  0  0  0  0  0  0  0  0
    2.8639    0.4493    0.0000 C   0  0  0  0  0  0  0  0  0  0  0  0
    2.1448    1.6736    0.0000 C   0  0  0  0  0  0  0  0  0  0  0  0
   -1.4113   -2.0865    0.0000 C   0  0  0  0  0  0  0  0  0  0  0  0
   -0.6972   -1.6785    0.0000 C   0  0  0  0  0  0  0  0  0  0  0  0
    0.0073   -2.0865    0.0000 C   0  0  0  0  0  0  0  0  0  0  0  0
    3.5781    0.8623    0.0000 C   0  0  0  0  0  0  0  0  0  0  0  0
    2.8445    2.0865    0.0000 C   0  0  0  0  0  0  0  0  0  0  0  0
    0.7360   -1.6931    0.0000 C   0  0  0  0  0  0  0  0  0  0  0  0
   -0.5286   -0.9495    0.0000 H   0  0  0  0  0  0  0  0  0  0  0  0
   -2.1605    1.8359    0.0000 H   0  0  0  0  0  0  0  0  0  0  0  0
   -3.7604    0.8925    0.0000 H   0  0  0  0  0  0  0  0  0  0  0  0
   -4.4407   -0.3973    0.0000 H   0  0  0  0  0  0  0  0  0  0  0  0
   -3.5578   -1.8562    0.0000 H   0  0  0  0  0  0  0  0  0  0  0  0
    0.6986    1.8886    0.0000 H   0  0  0  0  0  0  0  0  0  0  0  0
    1.6274    1.3639    0.0000 H   0  0  0  0  0  0  0  0  0  0  0  0
    1.4347   -0.6498    0.0000 H   0  0  0  0  0  0  0  0  0  0  0  0
    0.5018   -0.1276    0.0000 H   0  0  0  0  0  0  0  0  0  0  0  0
    2.8795   -0.6206    0.0000 H   0  0  0  0  0  0  0  0  0  0  0  0
    3.7946   -0.0786    0.0000 H   0  0  0  0  0  0  0  0  0  0  0  0
    1.2187    2.2096    0.0000 H   0  0  0  0  0  0  0  0  0  0  0  0
    2.1403    2.7436    0.0000 H   0  0  0  0  0  0  0  0  0  0  0  0
   -1.4113   -3.1565    0.0000 H   0  0  0  0  0  0  0  0  0  0  0  0
   -0.4859   -2.6236    0.0000 H   0  0  0  0  0  0  0  0  0  0  0  0
   -0.6941   -0.6085    0.0000 H   0  0  0  0  0  0  0  0  0  0  0  0
    0.2306   -1.1455    0.0000 H   0  0  0  0  0  0  0  0  0  0  0  0
   -0.0087   -3.1564    0.0000 H   0  0  0  0  0  0  0  0  0  0  0  0
    0.9221   -2.6415    0.0000 H   0  0  0  0  0  0  0  0  0  0  0  0
    4.5051    0.3279    0.0000 H   0  0  0  0  0  0  0  0  0  0  0  0
    3.5774    1.9323    0.0000 H   0  0  0  0  0  0  0  0  0  0  0  0
    4.5044    1.3979    0.0000 H   0  0  0  0  0  0  0  0  0  0  0  0
    3.7762    1.5603    0.0000 H   0  0  0  0  0  0  0  0  0  0  0  0
    2.8343    3.1565    0.0000 H   0  0  0  0  0  0  0  0  0  0  0  0
    3.7660    2.6303    0.0000 H   0  0  0  0  0  0  0  0  0  0  0  0
    1.6470   -2.2544    0.0000 H   0  0  0  0  0  0  0  0  0  0  0  0
    0.7666   -0.6235    0.0000 H   0  0  0  0  0  0  0  0  0  0  0  0
    1.6776   -1.1848    0.0000 H   0  0  0  0  0  0  0  0  0  0  0  0
  2  1  1  0  0  0  0
  3  2  1  0  0  0  0
  3 23  1  0  0  0  0
  4  3  2  0  0  0  0
  5  8  2  0  0  0  0
  5  4  1  0  0  0  0
  6  1  2  0  0  0  0
  7  2  2  0  0  0  0
  7 24  1  0  0  0  0
  8  7  1  0  0  0  0
  8 25  1  0  0  0  0
  9  1  1  0  0  0  0
 10  5  1  0  0  0  0
 10 26  1  0  0  0  0
 10 27  1  0  0  0  0
 11 14  1  0  0  0  0
 12  4  1  0  0  0  0
 13  9  1  0  0  0  0
 13 28  1  0  0  0  0
 13 29  1  0  0  0  0
 14 13  1  0  0  0  0
 14 30  1  0  0  0  0
 14 31  1  0  0  0  0
 15 11  1  0  0  0  0
 15 32  1  0  0  0  0
 15 33  1  0  0  0  0
 16 11  1  0  0  0  0
 16 34  1  0  0  0  0
 16 35  1  0  0  0  0
 17 12  1  0  0  0  0
 17 36  1  0  0  0  0
 17 37  1  0  0  0  0
 18 17  1  0  0  0  0
 18 38  1  0  0  0  0
 18 39  1  0  0  0  0
 19 18  1  0  0  0  0
 19 40  1  0  0  0  0
 19 41  1  0  0  0  0
 20 15  1  0  0  0  0
 20 42  1  0  0  0  0
 20 43  1  0  0  0  0
 20 44  1  0  0  0  0
 21 16  1  0  0  0  0
 21 45  1  0  0  0  0
 21 46  1  0  0  0  0
 21 47  1  0  0  0  0
 22 19  1  0  0  0  0
 22 48  1  0  0  0  0
 22 49  1  0  0  0  0
 22 50  1  0  0  0  0
M  END
>  <DRUGBANK_ID>
DB00892

>  <SECONDARY_ACCESSION_NUMBERS>
APRD00817

>  <COMMON_NAME>
Oxybuprocaine

>  <CAS_NUMBER>
99-43-4

>  <UNII>
AXQ0JYM303

>  <SYNONYMS>
4-Amino-3-butoxy-2-(diethylamino)ethyl ester benzoic acid; 4-Amino-3-butoxy-benzoic acid 2-diethylamino-ethyl ester; 4-Amino-3-n-butoxy-benzoesäure-diäthylaminoäthylester; Benoxinate; BNX; Butoxyaminobenzoyldiethylaminoethanol; Oxibuprocaina; Oxybucaine; Oxybuprocaine; Oxybuprocainum; Oxyriprocaine

$$$$
