
 OpenBabel10282417072D

 74 77  0  0  1  0  0  0  0  0999 V2000
   -5.0686   -0.5786    0.0000 C   0  0  0  0  0  0  0  0  0  0  0  0
   -4.3541    0.6588    0.0000 C   0  0  0  0  0  0  0  0  0  0  0  0
   -1.4962    0.6588    0.0000 C   0  0  0  0  0  0  0  0  0  0  0  0
    1.8407    0.8845    0.0000 C   0  0  0  0  0  0  0  0  0  0  0  0
   -0.6412    0.3089    0.0000 C   0  0  0  0  0  0  0  0  0  0  0  0
   -2.9252   -0.1661    0.0000 C   0  0  0  0  0  0  0  0  0  0  0  0
   -3.6396   -0.5786    0.0000 C   0  0  0  0  0  0  0  0  0  0  0  0
   -2.2107   -0.5786    0.0000 C   0  0  0  0  0  0  0  0  0  0  0  0
    2.6898   -1.1262    0.0000 C   0  0  0  0  0  0  0  0  0  0  0  0
    1.8829   -1.2977    0.0000 C   0  0  0  0  0  0  0  0  0  0  0  0
   -0.6955   -1.3991    0.0000 C   0  0  0  0  0  0  0  0  0  0  0  0
    0.1113   -1.5706    0.0000 C   0  0  0  0  0  0  0  0  0  0  0  0
    3.4546    1.2276    0.0000 C   0  0  0  0  0  0  0  0  0  0  0  0
    1.0337    0.7130    0.0000 C   0  0  0  0  0  0  0  0  0  0  0  0
    2.6477    1.0560    0.0000 C   0  0  0  0  0  0  0  0  0  0  0  0
    0.2268    0.5415    0.0000 C   0  0  0  0  0  0  0  0  0  0  0  0
    3.7517   -0.1700    0.0000 C   0  0  0  0  0  0  0  0  0  0  0  0
   -4.3541   -0.1661    0.0000 C   0  0  0  0  0  0  0  0  0  0  0  0
   -1.4962   -0.1661    0.0000 C   0  0  2  0  0  0  0  0  0  0  0  0
    2.9448   -0.3416    0.0000 C   0  0  0  0  0  0  0  0  0  0  0  0
    4.0067    0.6145    0.0000 C   0  0  0  0  0  0  0  0  0  0  0  0
    1.3308   -0.6846    0.0000 C   0  0  1  0  0  0  0  0  0  0  0  0
   -0.7818   -0.5786    0.0000 C   0  0  2  0  0  0  0  0  0  0  0  0
    0.5238   -0.8562    0.0000 C   0  0  1  0  0  0  0  0  0  0  0  0
    1.5858    0.0999    0.0000 C   0  0  1  0  0  0  0  0  0  0  0  0
    2.3927    0.2714    0.0000 C   0  0  2  0  0  0  0  0  0  0  0  0
   -0.0281   -0.2431    0.0000 C   0  0  1  0  0  0  0  0  0  0  0  0
    4.8136    0.7860    0.0000 N   0  0  0  0  0  0  0  0  0  0  0  0
    5.0686    1.5706    0.0000 O   0  0  0  0  0  0  0  0  0  0  0  0
   -2.2107    0.2463    0.0000 H   0  0  0  0  0  0  0  0  0  0  0  0
    1.0759   -1.4692    0.0000 H   0  0  0  0  0  0  0  0  0  0  0  0
   -1.4737   -1.0279    0.0000 H   0  0  0  0  0  0  0  0  0  0  0  0
    0.7788   -0.0715    0.0000 H   0  0  0  0  0  0  0  0  0  0  0  0
    2.1378   -0.5131    0.0000 H   0  0  0  0  0  0  0  0  0  0  0  0
   -5.9952   -0.0436    0.0000 H   0  0  0  0  0  0  0  0  0  0  0  0
   -5.0686   -1.6486    0.0000 H   0  0  0  0  0  0  0  0  0  0  0  0
   -5.9953   -1.1136    0.0000 H   0  0  0  0  0  0  0  0  0  0  0  0
   -3.4275    1.1938    0.0000 H   0  0  0  0  0  0  0  0  0  0  0  0
   -5.2807    1.1938    0.0000 H   0  0  0  0  0  0  0  0  0  0  0  0
   -4.3541    1.7288    0.0000 H   0  0  0  0  0  0  0  0  0  0  0  0
   -0.5696    1.1938    0.0000 H   0  0  0  0  0  0  0  0  0  0  0  0
   -2.4228    1.1938    0.0000 H   0  0  0  0  0  0  0  0  0  0  0  0
   -1.4962    1.7288    0.0000 H   0  0  0  0  0  0  0  0  0  0  0  0
    2.1714    1.9021    0.0000 H   0  0  0  0  0  0  0  0  0  0  0  0
    0.7941    0.6621    0.0000 H   0  0  0  0  0  0  0  0  0  0  0  0
    1.1248    1.6797    0.0000 H   0  0  0  0  0  0  0  0  0  0  0  0
   -0.4188    1.3555    0.0000 H   0  0  0  0  0  0  0  0  0  0  0  0
   -1.6588   -0.0218    0.0000 H   0  0  0  0  0  0  0  0  0  0  0  0
   -1.4364    1.0248    0.0000 H   0  0  0  0  0  0  0  0  0  0  0  0
   -2.9252    0.9039    0.0000 H   0  0  0  0  0  0  0  0  0  0  0  0
   -1.9986    0.3689    0.0000 H   0  0  0  0  0  0  0  0  0  0  0  0
   -3.6396   -1.6486    0.0000 H   0  0  0  0  0  0  0  0  0  0  0  0
   -4.5662   -1.1136    0.0000 H   0  0  0  0  0  0  0  0  0  0  0  0
   -2.2107   -1.6486    0.0000 H   0  0  0  0  0  0  0  0  0  0  0  0
   -1.2841   -1.1136    0.0000 H   0  0  0  0  0  0  0  0  0  0  0  0
    3.4057   -1.9214    0.0000 H   0  0  0  0  0  0  0  0  0  0  0  0
    3.7364   -0.9038    0.0000 H   0  0  0  0  0  0  0  0  0  0  0  0
    1.5523   -2.3153    0.0000 H   0  0  0  0  0  0  0  0  0  0  0  0
    0.8363   -1.5202    0.0000 H   0  0  0  0  0  0  0  0  0  0  0  0
   -1.4906   -2.1151    0.0000 H   0  0  0  0  0  0  0  0  0  0  0  0
   -1.6945   -1.0157    0.0000 H   0  0  0  0  0  0  0  0  0  0  0  0
    0.5465   -2.5481    0.0000 H   0  0  0  0  0  0  0  0  0  0  0  0
    1.1798   -1.6266    0.0000 H   0  0  0  0  0  0  0  0  0  0  0  0
    3.7852    2.2453    0.0000 H   0  0  0  0  0  0  0  0  0  0  0  0
    4.5012    1.4501    0.0000 H   0  0  0  0  0  0  0  0  0  0  0  0
    1.3643    1.7306    0.0000 H   0  0  0  0  0  0  0  0  0  0  0  0
    2.0803    0.9355    0.0000 H   0  0  0  0  0  0  0  0  0  0  0  0
    1.9317    1.8512    0.0000 H   0  0  0  0  0  0  0  0  0  0  0  0
    1.6011    0.8336    0.0000 H   0  0  0  0  0  0  0  0  0  0  0  0
   -0.4892    1.3367    0.0000 H   0  0  0  0  0  0  0  0  0  0  0  0
   -0.8198    0.3190    0.0000 H   0  0  0  0  0  0  0  0  0  0  0  0
    4.4422   -0.9369    0.0000 H   0  0  0  0  0  0  0  0  0  0  0  0
   -3.4275    0.3689    0.0000 H   0  0  0  0  0  0  0  0  0  0  0  0
    5.9851    1.7653    0.0000 H   0  0  0  0  0  0  0  0  0  0  0  0
  1 35  1  0  0  0  0
  1 36  1  0  0  0  0
  1 37  1  0  0  0  0
  2 38  1  0  0  0  0
  2 39  1  0  0  0  0
  2 40  1  0  0  0  0
  3 41  1  0  0  0  0
  3 42  1  0  0  0  0
  3 43  1  0  0  0  0
  4 44  1  0  0  0  0
  4 45  1  0  0  0  0
  4 46  1  0  0  0  0
  5 47  1  0  0  0  0
  5 48  1  0  0  0  0
  5 49  1  0  0  0  0
  6 50  1  0  0  0  0
  6 51  1  0  0  0  0
  7  6  1  0  0  0  0
  7 52  1  0  0  0  0
  7 53  1  0  0  0  0
  8  6  1  0  0  0  0
  8 54  1  0  0  0  0
  8 55  1  0  0  0  0
  9 56  1  0  0  0  0
  9 57  1  0  0  0  0
 10  9  1  0  0  0  0
 10 58  1  0  0  0  0
 10 59  1  0  0  0  0
 11 60  1  0  0  0  0
 11 61  1  0  0  0  0
 12 11  1  0  0  0  0
 12 62  1  0  0  0  0
 12 63  1  0  0  0  0
 13 64  1  0  0  0  0
 13 65  1  0  0  0  0
 14 66  1  0  0  0  0
 14 67  1  0  0  0  0
 15 13  1  0  0  0  0
 15 68  1  0  0  0  0
 15 69  1  0  0  0  0
 16 14  1  0  0  0  0
 16 70  1  0  0  0  0
 16 71  1  0  0  0  0
 17 72  1  0  0  0  0
 18  1  1  0  0  0  0
 18  2  1  0  0  0  0
 18  7  1  0  0  0  0
 18 73  1  0  0  0  0
 19  3  1  0  0  0  0
 19  8  1  0  0  0  0
 19 30  1  6  0  0  0
 20  9  1  0  0  0  0
 20 17  2  0  0  0  0
 21 13  1  0  0  0  0
 21 17  1  0  0  0  0
 22 10  1  0  0  0  0
 22 24  1  0  0  0  0
 22 25  1  0  0  0  0
 22 31  1  6  0  0  0
 23 11  1  0  0  0  0
 23 19  1  0  0  0  0
 23 32  1  1  0  0  0
 24 12  1  0  0  0  0
 24 27  1  0  0  0  0
 24 33  1  1  0  0  0
 25 14  1  0  0  0  0
 25 26  1  0  0  0  0
 25 34  1  1  0  0  0
 26  4  1  6  0  0  0
 26 15  1  0  0  0  0
 26 20  1  0  0  0  0
 27  5  1  6  0  0  0
 27 16  1  0  0  0  0
 27 23  1  0  0  0  0
 28 21  2  0  0  0  0
 29 28  1  0  0  0  0
 29 74  1  0  0  0  0
M  END
>  <DRUGBANK_ID>
DB05185

>  <COMMON_NAME>
Olesoxime

>  <CAS_NUMBER>
22033-87-0

>  <UNII>
8V8EF6094N

>  <SYNONYMS>
(EZ)-N-(CHOLEST-4-EN-3-YLIDENE)HYDROXYLAMINE; 4-Cholesten-3-one, oxime; cholest-4-en-3-one, oxime

$$$$
