
 OpenBabel10282417072D

 30 30  0  0  0  0  0  0  0  0999 V2000
    1.0717   -0.4125    0.0000 C   0  0  0  0  0  0  0  0  0  0  0  0
    0.3572   -0.8250    0.0000 C   0  0  1  0  0  0  0  0  0  0  0  0
    0.3572   -1.6500    0.0000 O   0  0  0  0  0  0  0  0  0  0  0  0
   -0.3572   -0.4125    0.0000 C   0  0  1  0  0  0  0  0  0  0  0  0
   -1.0717   -0.8250    0.0000 O   0  0  0  0  0  0  0  0  0  0  0  0
    0.3572    0.8250    0.0000 O   0  0  0  0  0  0  0  0  0  0  0  0
   -1.0717    0.8250    0.0000 C   0  0  2  0  0  0  0  0  0  0  0  0
   -1.0717    1.6500    0.0000 O   0  0  0  0  0  0  0  0  0  0  0  0
   -1.7861    0.4125    0.0000 C   0  0  0  0  0  0  0  0  0  0  0  0
   -2.5006    0.8250    0.0000 O   0  0  0  0  0  0  0  0  0  0  0  0
   -0.3572    0.4125    0.0000 C   0  0  2  0  0  0  0  0  0  0  0  0
   -0.3572    1.2374    0.0000 H   0  0  0  0  0  0  0  0  0  0  0  0
    1.7861    1.6500    0.0000 O   0  0  0  0  0  0  0  0  0  0  0  0
    1.7861    0.8250    0.0000 C   0  0  0  0  0  0  0  0  0  0  0  0
    2.5006    0.4125    0.0000 O   0  0  0  0  0  0  0  0  0  0  0  0
    1.0717    0.4125    0.0000 C   0  0  1  0  0  0  0  0  0  0  0  0
    1.0717    1.2374    0.0000 O   0  0  0  0  0  0  0  0  0  0  0  0
    1.9983   -0.9475    0.0000 H   0  0  0  0  0  0  0  0  0  0  0  0
    1.0717   -1.4825    0.0000 H   0  0  0  0  0  0  0  0  0  0  0  0
    1.2838   -1.3600    0.0000 H   0  0  0  0  0  0  0  0  0  0  0  0
   -0.4828   -2.1350    0.0000 H   0  0  0  0  0  0  0  0  0  0  0  0
   -0.3572   -1.4825    0.0000 H   0  0  0  0  0  0  0  0  0  0  0  0
   -1.9117   -0.3400    0.0000 H   0  0  0  0  0  0  0  0  0  0  0  0
   -0.1451    1.3600    0.0000 H   0  0  0  0  0  0  0  0  0  0  0  0
   -0.2317    2.1350    0.0000 H   0  0  0  0  0  0  0  0  0  0  0  0
   -1.7861   -0.6575    0.0000 H   0  0  0  0  0  0  0  0  0  0  0  0
   -2.7127   -0.1225    0.0000 H   0  0  0  0  0  0  0  0  0  0  0  0
   -2.5006    1.7950    0.0000 H   0  0  0  0  0  0  0  0  0  0  0  0
    2.5006   -0.5245    0.0000 H   0  0  0  0  0  0  0  0  0  0  0  0
    1.9117    1.7224    0.0000 H   0  0  0  0  0  0  0  0  0  0  0  0
  1  2  1  0  0  0  0
  1 18  1  0  0  0  0
  1 19  1  0  0  0  0
  2  3  1  0  0  0  0
  2  4  1  0  0  0  0
  2 20  1  6  0  0  0
  3 21  1  0  0  0  0
  4  5  1  0  0  0  0
  4 11  1  0  0  0  0
  4 22  1  6  0  0  0
  5 23  1  0  0  0  0
  7  8  1  0  0  0  0
  7  9  1  0  0  0  0
  7 24  1  6  0  0  0
  8 25  1  0  0  0  0
  9 10  1  0  0  0  0
  9 26  1  0  0  0  0
  9 27  1  0  0  0  0
 10 28  1  0  0  0  0
 11  6  1  0  0  0  0
 11  7  1  0  0  0  0
 11 12  1  6  0  0  0
 14 13  2  0  0  0  0
 14 15  1  0  0  0  0
 15 29  1  0  0  0  0
 16  1  1  0  0  0  0
 16  6  1  0  0  0  0
 16 14  1  1  0  0  0
 16 17  1  0  0  0  0
 17 30  1  0  0  0  0
M  END
>  <DRUGBANK_ID>
DB03548

>  <SECONDARY_ACCESSION_NUMBERS>
EXPT01967

>  <COMMON_NAME>
3-deoxy-alpha-D-manno-oct-2-ulopyranosonic acid

>  <SYNONYMS>
3-deoxy-α-D-manno-oct-2-ulopyranosonic acid; α-2-keto-3-deoxyoctulosonic acid pyranose; α-Kdo; α-KDop

$$$$
