1608
 OpenBabel10282417072D

 49 52  0  0  0  0  0  0  0  0999 V2000
    5.2216   -2.9223    0.0000 S   0  0  0  0  0  0  0  0  0  0  0  0
    1.6498    2.4395    0.0000 O   0  0  0  0  0  0  0  0  0  0  0  0
    3.7929    1.2021    0.0000 N   0  0  0  0  0  0  0  0  0  0  0  0
    5.2216   -1.2725    0.0000 N   0  0  0  0  0  0  0  0  0  0  0  0
    8.8463   -0.8374    0.0000 N   0  0  0  0  0  0  0  0  0  0  0  0
    3.0786    0.7897    0.0000 C   0  0  0  0  0  0  0  0  0  0  0  0
    3.7929    2.0270    0.0000 C   0  0  0  0  0  0  0  0  0  0  0  0
    2.3641    2.0270    0.0000 C   0  0  0  0  0  0  0  0  0  0  0  0
    2.3641    1.2021    0.0000 C   0  0  0  0  0  0  0  0  0  0  0  0
    3.0786    2.4395    0.0000 C   0  0  0  0  0  0  0  0  0  0  0  0
    4.5073    0.7897    0.0000 C   0  0  0  0  0  0  0  0  0  0  0  0
    4.5073   -0.0352    0.0000 C   0  0  0  0  0  0  0  0  0  0  0  0
    5.2216   -0.4476    0.0000 C   0  0  0  0  0  0  0  0  0  0  0  0
    5.9361   -1.6850    0.0000 C   0  0  0  0  0  0  0  0  0  0  0  0
    4.5073   -1.6850    0.0000 C   0  0  0  0  0  0  0  0  0  0  0  0
    5.9361   -2.5099    0.0000 C   0  0  0  0  0  0  0  0  0  0  0  0
    4.5073   -2.5099    0.0000 C   0  0  0  0  0  0  0  0  0  0  0  0
    6.6734   -1.2439    0.0000 C   0  0  0  0  0  0  0  0  0  0  0  0
    3.7699   -1.2439    0.0000 C   0  0  0  0  0  0  0  0  0  0  0  0
    6.6734   -2.9509    0.0000 C   0  0  0  0  0  0  0  0  0  0  0  0
    3.7699   -2.9509    0.0000 C   0  0  0  0  0  0  0  0  0  0  0  0
    7.4209   -1.6679    0.0000 C   0  0  0  0  0  0  0  0  0  0  0  0
    3.0225   -1.6679    0.0000 C   0  0  0  0  0  0  0  0  0  0  0  0
    7.4209   -2.5271    0.0000 C   0  0  0  0  0  0  0  0  0  0  0  0
    3.0225   -2.5271    0.0000 C   0  0  0  0  0  0  0  0  0  0  0  0
    8.1336   -1.2526    0.0000 C   0  0  0  0  0  0  0  0  0  0  0  0
    1.6499    3.4095    0.0000 H   0  0  0  0  0  0  0  0  0  0  0  0
    3.0787   -0.2803    0.0000 H   0  0  0  0  0  0  0  0  0  0  0  0
    2.1520    0.2546    0.0000 H   0  0  0  0  0  0  0  0  0  0  0  0
    4.7196    2.5620    0.0000 H   0  0  0  0  0  0  0  0  0  0  0  0
    3.7930    3.0970    0.0000 H   0  0  0  0  0  0  0  0  0  0  0  0
    3.2907    1.4920    0.0000 H   0  0  0  0  0  0  0  0  0  0  0  0
    1.4375    0.6670    0.0000 H   0  0  0  0  0  0  0  0  0  0  0  0
    1.4374    1.7371    0.0000 H   0  0  0  0  0  0  0  0  0  0  0  0
    3.0787    3.5095    0.0000 H   0  0  0  0  0  0  0  0  0  0  0  0
    2.1520    2.9745    0.0000 H   0  0  0  0  0  0  0  0  0  0  0  0
    5.4339    1.3247    0.0000 H   0  0  0  0  0  0  0  0  0  0  0  0
    5.4340    0.2547    0.0000 H   0  0  0  0  0  0  0  0  0  0  0  0
    3.5807   -0.5702    0.0000 H   0  0  0  0  0  0  0  0  0  0  0  0
    4.5073   -1.1052    0.0000 H   0  0  0  0  0  0  0  0  0  0  0  0
    6.1482    0.0874    0.0000 H   0  0  0  0  0  0  0  0  0  0  0  0
    5.2216    0.6224    0.0000 H   0  0  0  0  0  0  0  0  0  0  0  0
    6.6614   -0.2120    0.0000 H   0  0  0  0  0  0  0  0  0  0  0  0
    3.7818   -0.2120    0.0000 H   0  0  0  0  0  0  0  0  0  0  0  0
    6.6614   -3.9828    0.0000 H   0  0  0  0  0  0  0  0  0  0  0  0
    3.7818   -3.9828    0.0000 H   0  0  0  0  0  0  0  0  0  0  0  0
    2.1307   -1.1485    0.0000 H   0  0  0  0  0  0  0  0  0  0  0  0
    8.3126   -3.0466    0.0000 H   0  0  0  0  0  0  0  0  0  0  0  0
    2.1308   -3.0466    0.0000 H   0  0  0  0  0  0  0  0  0  0  0  0
  1 16  1  0  0  0  0
  1 17  1  0  0  0  0
  2  8  1  0  0  0  0
  2 27  1  0  0  0  0
  3  6  1  0  0  0  0
  3  7  1  0  0  0  0
  3 11  1  0  0  0  0
  4 13  1  0  0  0  0
  4 14  1  0  0  0  0
  4 15  1  0  0  0  0
  5 26  3  0  0  0  0
  6  9  1  0  0  0  0
  6 28  1  0  0  0  0
  6 29  1  0  0  0  0
  7 10  1  0  0  0  0
  7 30  1  0  0  0  0
  7 31  1  0  0  0  0
  8  9  1  0  0  0  0
  8 10  1  0  0  0  0
  8 32  1  0  0  0  0
  9 33  1  0  0  0  0
  9 34  1  0  0  0  0
 10 35  1  0  0  0  0
 10 36  1  0  0  0  0
 11 12  1  0  0  0  0
 11 37  1  0  0  0  0
 11 38  1  0  0  0  0
 12 13  1  0  0  0  0
 12 39  1  0  0  0  0
 12 40  1  0  0  0  0
 13 41  1  0  0  0  0
 13 42  1  0  0  0  0
 14 16  2  0  0  0  0
 14 18  1  0  0  0  0
 15 17  1  0  0  0  0
 15 19  2  0  0  0  0
 16 20  1  0  0  0  0
 17 21  2  0  0  0  0
 18 22  2  0  0  0  0
 18 43  1  0  0  0  0
 19 23  1  0  0  0  0
 19 44  1  0  0  0  0
 20 24  2  0  0  0  0
 20 45  1  0  0  0  0
 21 25  1  0  0  0  0
 21 46  1  0  0  0  0
 22 24  1  0  0  0  0
 22 26  1  0  0  0  0
 23 25  2  0  0  0  0
 23 47  1  0  0  0  0
 24 48  1  0  0  0  0
 25 49  1  0  0  0  0
M  END
>  <DRUGBANK_ID>
DB01608

>  <COMMON_NAME>
Periciazine

>  <CAS_NUMBER>
2622-26-6

>  <UNII>
3405M6FD73

>  <SYNONYMS>
10-(3-(4-Hydroxypiperidino)propyl)phenothiazine-2-carbonitrile; 2-Cyano-10-(3-(4-hydroxy-1-piperidyl)propyl)phenothiazine; 2-Cyano-10-(3-(4-hydroxypiperidino)propyl)phenothiazine; Cyano-3 ((hydroxy-4 piperidyl-1)-3 propyl)-10 phenothiazine; Periciazina; PÃ©riciazine; Periciazine; Periciazinum; Pericyazine; Piperocyanomazine; Propericiazine

$$$$
