
 OpenBabel10282417072D

 36 36  0  0  1  0  0  0  0  0999 V2000
    1.9967    5.2393    0.0000 C   0  0  0  0  0  0  0  0  0  0  0  0
    1.9967    4.4143    0.0000 C   0  0  0  0  0  0  0  0  0  0  0  0
    1.2822    4.0018    0.0000 C   0  0  0  0  0  0  0  0  0  0  0  0
    0.5678    4.4143    0.0000 C   0  0  0  0  0  0  0  0  0  0  0  0
   -0.1467    4.0018    0.0000 C   0  0  0  0  0  0  0  0  0  0  0  0
    1.2822    3.1768    0.0000 C   0  0  1  0  0  0  0  0  0  0  0  0
    1.9967    2.7643    0.0000 C   0  0  0  0  0  0  0  0  0  0  0  0
    2.7112    3.1768    0.0000 O   0  0  0  0  0  0  0  0  0  0  0  0
    0.5678    2.7643    0.0000 N   0  0  0  0  0  0  0  0  0  0  0  0
    0.5678    1.9393    0.0000 S   0  0  0  0  0  0  0  0  0  0  0  0
   -0.2572    1.9393    0.0000 O   0  0  0  0  0  0  0  0  0  0  0  0
    1.3928    1.9393    0.0000 O   0  0  0  0  0  0  0  0  0  0  0  0
    0.5678    1.1143    0.0000 C   0  0  0  0  0  0  0  0  0  0  0  0
    1.2352    0.6294    0.0000 C   0  0  0  0  0  0  0  0  0  0  0  0
    0.9803   -0.1553    0.0000 C   0  0  0  0  0  0  0  0  0  0  0  0
    0.1553   -0.1553    0.0000 C   0  0  0  0  0  0  0  0  0  0  0  0
   -0.0997    0.6294    0.0000 S   0  0  0  0  0  0  0  0  0  0  0  0
   -0.3297   -0.8227    0.0000 Cl  0  0  0  0  0  0  0  0  0  0  0  0
    2.9233    5.7743    0.0000 H   0  0  0  0  0  0  0  0  0  0  0  0
    1.0701    5.7743    0.0000 H   0  0  0  0  0  0  0  0  0  0  0  0
    1.9967    6.3093    0.0000 H   0  0  0  0  0  0  0  0  0  0  0  0
    2.9233    3.8793    0.0000 H   0  0  0  0  0  0  0  0  0  0  0  0
    1.9967    3.3443    0.0000 H   0  0  0  0  0  0  0  0  0  0  0  0
    0.3555    3.4668    0.0000 H   0  0  0  0  0  0  0  0  0  0  0  0
    0.5678    5.4843    0.0000 H   0  0  0  0  0  0  0  0  0  0  0  0
   -0.3588    4.9493    0.0000 H   0  0  0  0  0  0  0  0  0  0  0  0
   -1.0733    4.5368    0.0000 H   0  0  0  0  0  0  0  0  0  0  0  0
   -0.1467    2.9318    0.0000 H   0  0  0  0  0  0  0  0  0  0  0  0
   -1.0734    3.4668    0.0000 H   0  0  0  0  0  0  0  0  0  0  0  0
    0.3555    3.7118    0.0000 H   0  0  0  0  0  0  0  0  0  0  0  0
    1.9967    1.6943    0.0000 H   0  0  0  0  0  0  0  0  0  0  0  0
    2.9233    2.2293    0.0000 H   0  0  0  0  0  0  0  0  0  0  0  0
    3.5512    2.6918    0.0000 H   0  0  0  0  0  0  0  0  0  0  0  0
   -0.3156    3.2743    0.0000 H   0  0  0  0  0  0  0  0  0  0  0  0
    2.2167    0.9483    0.0000 H   0  0  0  0  0  0  0  0  0  0  0  0
    1.5869   -0.9902    0.0000 H   0  0  0  0  0  0  0  0  0  0  0  0
  1  2  1  0  0  0  0
  1 19  1  0  0  0  0
  1 20  1  0  0  0  0
  1 21  1  0  0  0  0
  2  3  1  0  0  0  0
  2 22  1  0  0  0  0
  2 23  1  0  0  0  0
  3  4  1  0  0  0  0
  3  6  1  0  0  0  0
  3 24  1  0  0  0  0
  4  5  1  0  0  0  0
  4 25  1  0  0  0  0
  4 26  1  0  0  0  0
  5 27  1  0  0  0  0
  5 28  1  0  0  0  0
  5 29  1  0  0  0  0
  6  7  1  0  0  0  0
  6  9  1  0  0  0  0
  6 30  1  6  0  0  0
  7  8  1  0  0  0  0
  7 31  1  0  0  0  0
  7 32  1  0  0  0  0
  8 33  1  0  0  0  0
  9 10  1  0  0  0  0
  9 34  1  0  0  0  0
 10 11  2  0  0  0  0
 10 12  2  0  0  0  0
 10 13  1  0  0  0  0
 13 14  2  0  0  0  0
 13 17  1  0  0  0  0
 14 15  1  0  0  0  0
 14 35  1  0  0  0  0
 15 16  2  0  0  0  0
 15 36  1  0  0  0  0
 16 17  1  0  0  0  0
 16 18  1  0  0  0  0
M  END
>  <DRUGBANK_ID>
DB12819

>  <COMMON_NAME>
GSI-136

>  <CAS_NUMBER>
443989-01-3

>  <UNII>
51JV4753AD

$$$$
