
 OpenBabel10282417072D

 56 59  0  0  1  0  0  0  0  0999 V2000
    5.7755   -5.7759    0.0000 C   0  0  0  0  0  0  0  0  0  0  0  0
    5.7755   -6.5707    0.0000 C   0  0  0  0  0  0  0  0  0  0  0  0
    6.4868   -6.9891    0.0000 C   0  0  0  0  0  0  0  0  0  0  0  0
    7.1981   -6.5707    0.0000 C   0  0  0  0  0  0  0  0  0  0  0  0
    7.1981   -5.7759    0.0000 C   0  0  2  0  0  0  0  0  0  0  0  0
    6.4868   -5.3575    0.0000 C   0  0  0  0  0  0  0  0  0  0  0  0
    7.9092   -6.9891    0.0000 C   0  0  2  0  0  0  0  0  0  0  0  0
    8.5786   -6.5707    0.0000 C   0  0  0  0  0  0  0  0  0  0  0  0
    8.5786   -5.7759    0.0000 C   0  0  2  0  0  0  0  0  0  0  0  0
    7.9092   -5.3575    0.0000 C   0  0  2  0  0  0  0  0  0  0  0  0
    9.2898   -5.3575    0.0000 C   0  0  1  0  0  0  0  0  0  0  0  0
    9.2898   -4.5626    0.0000 C   0  0  1  0  0  0  0  0  0  0  0  0
    8.5786   -4.1443    0.0000 C   0  0  0  0  0  0  0  0  0  0  0  0
    7.9092   -4.5626    0.0000 C   0  0  2  0  0  0  0  0  0  0  0  0
    7.9092   -7.8258    0.0000 F   0  0  0  0  0  0  0  0  0  0  0  0
    7.9092   -6.1942    0.0000 Cl  0  0  0  0  0  0  0  0  0  0  0  0
    9.2898   -6.1942    0.0000 H   0  0  0  0  0  0  0  0  0  0  0  0
    9.2480   -3.7260    0.0000 C   0  0  0  0  0  0  0  0  0  0  0  0
    7.1981   -4.9810    0.0000 C   0  0  0  0  0  0  0  0  0  0  0  0
    5.0644   -6.9891    0.0000 O   0  0  0  0  0  0  0  0  0  0  0  0
    7.1981   -4.1443    0.0000 O   0  0  0  0  0  0  0  0  0  0  0  0
    8.5786   -4.9810    0.0000 H   0  0  0  0  0  0  0  0  0  0  0  0
   10.0458   -4.3170    0.0000 C   0  0  2  0  0  0  0  0  0  0  0  0
   10.5129   -4.9601    0.0000 C   0  0  1  0  0  0  0  0  0  0  0  0
   10.0459   -5.6032    0.0000 C   0  0  0  0  0  0  0  0  0  0  0  0
   10.3008   -3.5323    0.0000 C   0  0  0  0  0  0  0  0  0  0  0  0
   11.1079   -3.3607    0.0000 C   0  0  0  0  0  0  0  0  0  0  0  0
    9.7486   -2.9191    0.0000 O   0  0  0  0  0  0  0  0  0  0  0  0
   11.6598   -3.9739    0.0000 O   0  0  0  0  0  0  0  0  0  0  0  0
   11.3381   -4.9600    0.0000 C   0  0  0  0  0  0  0  0  0  0  0  0
    4.8797   -5.2635    0.0000 H   0  0  0  0  0  0  0  0  0  0  0  0
    6.4868   -8.0211    0.0000 H   0  0  0  0  0  0  0  0  0  0  0  0
    6.4868   -4.3255    0.0000 H   0  0  0  0  0  0  0  0  0  0  0  0
    6.9804   -7.5203    0.0000 H   0  0  0  0  0  0  0  0  0  0  0  0
    9.5145   -7.0894    0.0000 H   0  0  0  0  0  0  0  0  0  0  0  0
    9.5005   -6.0276    0.0000 H   0  0  0  0  0  0  0  0  0  0  0  0
    8.5642   -3.0744    0.0000 H   0  0  0  0  0  0  0  0  0  0  0  0
    7.6393   -3.6319    0.0000 H   0  0  0  0  0  0  0  0  0  0  0  0
    7.8949   -3.4927    0.0000 H   0  0  0  0  0  0  0  0  0  0  0  0
   10.1468   -3.1454    0.0000 H   0  0  0  0  0  0  0  0  0  0  0  0
    8.2958   -3.2379    0.0000 H   0  0  0  0  0  0  0  0  0  0  0  0
    9.1946   -2.6573    0.0000 H   0  0  0  0  0  0  0  0  0  0  0  0
    8.1247   -4.4460    0.0000 H   0  0  0  0  0  0  0  0  0  0  0  0
    6.2715   -4.4460    0.0000 H   0  0  0  0  0  0  0  0  0  0  0  0
    7.1981   -3.9110    0.0000 H   0  0  0  0  0  0  0  0  0  0  0  0
    7.2060   -3.1743    0.0000 H   0  0  0  0  0  0  0  0  0  0  0  0
    9.2892   -3.5604    0.0000 H   0  0  0  0  0  0  0  0  0  0  0  0
   10.9987   -4.0067    0.0000 H   0  0  0  0  0  0  0  0  0  0  0  0
   10.3767   -6.6208    0.0000 H   0  0  0  0  0  0  0  0  0  0  0  0
   11.1028   -5.7704    0.0000 H   0  0  0  0  0  0  0  0  0  0  0  0
   11.4386   -2.3431    0.0000 H   0  0  0  0  0  0  0  0  0  0  0  0
   12.1545   -3.1384    0.0000 H   0  0  0  0  0  0  0  0  0  0  0  0
   11.3599   -4.8964    0.0000 H   0  0  0  0  0  0  0  0  0  0  0  0
   11.8732   -5.8866    0.0000 H   0  0  0  0  0  0  0  0  0  0  0  0
   11.8730   -4.0333    0.0000 H   0  0  0  0  0  0  0  0  0  0  0  0
   12.4081   -4.9599    0.0000 H   0  0  0  0  0  0  0  0  0  0  0  0
  1  2  1  0  0  0  0
  1  6  2  0  0  0  0
  1 31  1  0  0  0  0
  2  3  1  0  0  0  0
  2 20  2  0  0  0  0
  3  4  2  0  0  0  0
  3 32  1  0  0  0  0
  4  5  1  0  0  0  0
  4  7  1  0  0  0  0
  5  6  1  0  0  0  0
  5 10  1  0  0  0  0
  5 19  1  1  0  0  0
  6 33  1  0  0  0  0
  7  8  1  0  0  0  0
  7 15  1  0  0  0  0
  7 34  1  1  0  0  0
  8  9  1  0  0  0  0
  8 35  1  0  0  0  0
  8 36  1  0  0  0  0
  9 10  1  0  0  0  0
  9 11  1  0  0  0  0
  9 22  1  1  0  0  0
 10 14  1  0  0  0  0
 10 16  1  6  0  0  0
 11 17  1  6  0  0  0
 11 12  1  0  0  0  0
 12 13  1  0  0  0  0
 12 18  1  1  0  0  0
 13 14  1  0  0  0  0
 13 37  1  0  0  0  0
 13 38  1  0  0  0  0
 14 21  1  0  0  0  0
 14 39  1  6  0  0  0
 18 40  1  0  0  0  0
 18 41  1  0  0  0  0
 18 42  1  0  0  0  0
 19 43  1  0  0  0  0
 19 44  1  0  0  0  0
 19 45  1  0  0  0  0
 21 46  1  0  0  0  0
 23 12  1  0  0  0  0
 23 26  1  0  0  0  0
 23 47  1  6  0  0  0
 24 23  1  0  0  0  0
 24 30  1  0  0  0  0
 24 48  1  1  0  0  0
 25 11  1  0  0  0  0
 25 24  1  0  0  0  0
 25 49  1  0  0  0  0
 25 50  1  0  0  0  0
 26 27  1  0  0  0  0
 26 28  2  0  0  0  0
 27 29  1  0  0  0  0
 27 51  1  0  0  0  0
 27 52  1  0  0  0  0
 29 53  1  0  0  0  0
 30 54  1  0  0  0  0
 30 55  1  0  0  0  0
 30 56  1  0  0  0  0
M  END
>  <DRUGBANK_ID>
DB00838

>  <SECONDARY_ACCESSION_NUMBERS>
APRD00877

>  <COMMON_NAME>
Clocortolone

>  <CAS_NUMBER>
4828-27-7

>  <UNII>
N8ZUB7XE0H

>  <SYNONYMS>
9-chloro-6alpha-Fluoro-11beta,21-dihydroxy-16alpha-methyl-1,4-pregnadien-3,20-dione; 9-chloro-6alpha-Fluoro-16alpha-methyl-1,4-pregnadiene-11beta,21-diol-3,20-dione; Clocortolon; Clocortolona; Clocortolone; Clocortolonum

$$$$
