920
 OpenBabel10282417072D

 41 44  0  0  0  0  0  0  0  0999 V2000
    1.9717    1.6084    0.0000 S   0  0  0  0  0  0  0  0  0  0  0  0
    2.9451    2.9253    0.0000 O   0  0  0  0  0  0  0  0  0  0  0  0
    3.7156   -2.1003    0.0000 N   0  0  0  0  0  0  0  0  0  0  0  0
    3.7156   -0.4503    0.0000 C   0  0  0  0  0  0  0  0  0  0  0  0
    4.4301   -0.8628    0.0000 C   0  0  0  0  0  0  0  0  0  0  0  0
    3.0012   -0.8628    0.0000 C   0  0  0  0  0  0  0  0  0  0  0  0
    4.4301   -1.6878    0.0000 C   0  0  0  0  0  0  0  0  0  0  0  0
    3.0012   -1.6878    0.0000 C   0  0  0  0  0  0  0  0  0  0  0  0
    3.7156    0.3747    0.0000 C   0  0  0  0  0  0  0  0  0  0  0  0
    4.4590    0.7327    0.0000 C   0  0  0  0  0  0  0  0  0  0  0  0
    2.9723    0.7327    0.0000 C   0  0  0  0  0  0  0  0  0  0  0  0
    4.6425    1.5370    0.0000 C   0  0  0  0  0  0  0  0  0  0  0  0
    3.7156   -2.9253    0.0000 C   0  0  0  0  0  0  0  0  0  0  0  0
    2.7887    1.5370    0.0000 C   0  0  0  0  0  0  0  0  0  0  0  0
    4.1281    2.1820    0.0000 C   0  0  0  0  0  0  0  0  0  0  0  0
    3.3031    2.1820    0.0000 C   0  0  0  0  0  0  0  0  0  0  0  0
    5.0798    0.1385    0.0000 C   0  0  0  0  0  0  0  0  0  0  0  0
    2.2671    0.3138    0.0000 C   0  0  0  0  0  0  0  0  0  0  0  0
    5.4597    1.8029    0.0000 C   0  0  0  0  0  0  0  0  0  0  0  0
    1.6500    0.8540    0.0000 C   0  0  0  0  0  0  0  0  0  0  0  0
    5.9029    0.3854    0.0000 C   0  0  0  0  0  0  0  0  0  0  0  0
    6.0941    1.2232    0.0000 C   0  0  0  0  0  0  0  0  0  0  0  0
    5.3567   -0.3278    0.0000 H   0  0  0  0  0  0  0  0  0  0  0  0
    5.3567   -1.3978    0.0000 H   0  0  0  0  0  0  0  0  0  0  0  0
    2.0745   -0.3278    0.0000 H   0  0  0  0  0  0  0  0  0  0  0  0
    2.0746   -1.3978    0.0000 H   0  0  0  0  0  0  0  0  0  0  0  0
    5.3567   -2.2228    0.0000 H   0  0  0  0  0  0  0  0  0  0  0  0
    5.3567   -1.1528    0.0000 H   0  0  0  0  0  0  0  0  0  0  0  0
    2.0745   -2.2228    0.0000 H   0  0  0  0  0  0  0  0  0  0  0  0
    2.0746   -1.1528    0.0000 H   0  0  0  0  0  0  0  0  0  0  0  0
    2.7890   -3.4603    0.0000 H   0  0  0  0  0  0  0  0  0  0  0  0
    4.6422   -3.4603    0.0000 H   0  0  0  0  0  0  0  0  0  0  0  0
    3.7156   -3.9953    0.0000 H   0  0  0  0  0  0  0  0  0  0  0  0
    4.5923    3.1460    0.0000 H   0  0  0  0  0  0  0  0  0  0  0  0
    3.5588    3.0880    0.0000 H   0  0  0  0  0  0  0  0  0  0  0  0
    4.8385   -0.8649    0.0000 H   0  0  0  0  0  0  0  0  0  0  0  0
    2.1728   -0.7139    0.0000 H   0  0  0  0  0  0  0  0  0  0  0  0
    5.6778    2.8116    0.0000 H   0  0  0  0  0  0  0  0  0  0  0  0
    0.6439    0.6244    0.0000 H   0  0  0  0  0  0  0  0  0  0  0  0
    6.6567   -0.3195    0.0000 H   0  0  0  0  0  0  0  0  0  0  0  0
    7.0791    1.5312    0.0000 H   0  0  0  0  0  0  0  0  0  0  0  0
  1 14  1  0  0  0  0
  1 20  1  0  0  0  0
  2 16  2  0  0  0  0
  3  7  1  0  0  0  0
  3  8  1  0  0  0  0
  3 13  1  0  0  0  0
  4  5  1  0  0  0  0
  4  6  1  0  0  0  0
  4  9  2  0  0  0  0
  5  7  1  0  0  0  0
  5 23  1  0  0  0  0
  5 24  1  0  0  0  0
  6  8  1  0  0  0  0
  6 25  1  0  0  0  0
  6 26  1  0  0  0  0
  7 27  1  0  0  0  0
  7 28  1  0  0  0  0
  8 29  1  0  0  0  0
  8 30  1  0  0  0  0
  9 10  1  0  0  0  0
  9 11  1  0  0  0  0
 10 12  1  0  0  0  0
 10 17  2  0  0  0  0
 11 14  2  0  0  0  0
 11 18  1  0  0  0  0
 12 15  1  0  0  0  0
 12 19  2  0  0  0  0
 13 31  1  0  0  0  0
 13 32  1  0  0  0  0
 13 33  1  0  0  0  0
 14 16  1  0  0  0  0
 15 16  1  0  0  0  0
 15 34  1  0  0  0  0
 15 35  1  0  0  0  0
 17 21  1  0  0  0  0
 17 36  1  0  0  0  0
 18 20  2  0  0  0  0
 18 37  1  0  0  0  0
 19 22  1  0  0  0  0
 19 38  1  0  0  0  0
 20 39  1  0  0  0  0
 21 22  2  0  0  0  0
 21 40  1  0  0  0  0
 22 41  1  0  0  0  0
M  END
>  <DRUGBANK_ID>
DB00920

>  <SECONDARY_ACCESSION_NUMBERS>
APRD01061

>  <COMMON_NAME>
Ketotifen

>  <CAS_NUMBER>
34580-13-7

>  <UNII>
X49220T18G

>  <SYNONYMS>
Ketotifen; Ketotifene; Ketotifeno; Ketotifenum

$$$$
