
 OpenBabel10282417072D

 45 43  0  0  0  0  0  0  0  0999 V2000
   -1.0765    1.5502    0.0000 C   0  0  0  0  0  0  0  0  0  0  0  0
   -0.3711    1.9661    0.0000 C   0  0  0  0  0  0  0  0  0  0  0  0
   -1.7962    1.9661    0.0000 C   0  0  0  0  0  0  0  0  0  0  0  0
    0.3412    1.5502    0.0000 C   0  0  1  0  0  0  0  0  0  0  0  0
   -2.5088    1.5502    0.0000 N   0  0  0  0  0  0  0  0  0  0  0  0
    1.0575    1.9661    0.0000 C   0  0  0  0  0  0  0  0  0  0  0  0
    0.3412    0.7328    0.0000 N   0  0  0  0  0  0  0  0  0  0  0  0
   -3.2248    1.9661    0.0000 C   0  0  0  0  0  0  0  0  0  0  0  0
    1.7807    1.5502    0.0000 O   0  0  0  0  0  0  0  0  0  0  0  0
    1.0575    2.8089    0.0000 O   0  0  0  0  0  0  0  0  0  0  0  0
   -3.9374    1.5502    0.0000 N   0  0  0  0  0  0  0  0  0  0  0  0
   -3.2248    2.8089    0.0000 N   0  0  0  0  0  0  0  0  0  0  0  0
    1.7939   -1.5714    0.0000 C   0  0  0  0  0  0  0  0  0  0  0  0
    2.5084   -1.9839    0.0000 C   0  0  1  0  0  0  0  0  0  0  0  0
    1.0795   -1.9839    0.0000 C   0  0  0  0  0  0  0  0  0  0  0  0
    3.2228   -1.5714    0.0000 C   0  0  0  0  0  0  0  0  0  0  0  0
    2.5084   -2.8089    0.0000 N   0  0  0  0  0  0  0  0  0  0  0  0
    0.3649   -1.5714    0.0000 C   0  0  0  0  0  0  0  0  0  0  0  0
    3.9374   -1.9839    0.0000 O   0  0  0  0  0  0  0  0  0  0  0  0
    3.2228   -0.7464    0.0000 O   0  0  0  0  0  0  0  0  0  0  0  0
   -0.3494   -1.9839    0.0000 O   0  0  0  0  0  0  0  0  0  0  0  0
    0.3649   -0.7464    0.0000 O   0  0  0  0  0  0  0  0  0  0  0  0
   -1.0718    0.4802    0.0000 H   0  0  0  0  0  0  0  0  0  0  0  0
   -2.0021    1.0134    0.0000 H   0  0  0  0  0  0  0  0  0  0  0  0
   -0.3734    3.0361    0.0000 H   0  0  0  0  0  0  0  0  0  0  0  0
    0.5563    2.4998    0.0000 H   0  0  0  0  0  0  0  0  0  0  0  0
   -1.7985    3.0361    0.0000 H   0  0  0  0  0  0  0  0  0  0  0  0
   -2.7247    2.4979    0.0000 H   0  0  0  0  0  0  0  0  0  0  0  0
   -0.5868    1.0175    0.0000 H   0  0  0  0  0  0  0  0  0  0  0  0
   -2.5078    0.5657    0.0000 H   0  0  0  0  0  0  0  0  0  0  0  0
   -0.5421    0.2228    0.0000 H   0  0  0  0  0  0  0  0  0  0  0  0
    1.2245    0.2228    0.0000 H   0  0  0  0  0  0  0  0  0  0  0  0
    1.7823    0.6132    0.0000 H   0  0  0  0  0  0  0  0  0  0  0  0
   -4.7923    2.0384    0.0000 H   0  0  0  0  0  0  0  0  0  0  0  0
   -3.9328    0.5657    0.0000 H   0  0  0  0  0  0  0  0  0  0  0  0
   -2.3722    3.3011    0.0000 H   0  0  0  0  0  0  0  0  0  0  0  0
    1.7939   -0.5014    0.0000 H   0  0  0  0  0  0  0  0  0  0  0  0
    0.8672   -1.0364    0.0000 H   0  0  0  0  0  0  0  0  0  0  0  0
    1.5818   -2.5189    0.0000 H   0  0  0  0  0  0  0  0  0  0  0  0
    1.0796   -3.0539    0.0000 H   0  0  0  0  0  0  0  0  0  0  0  0
    0.1529   -2.5190    0.0000 H   0  0  0  0  0  0  0  0  0  0  0  0
    1.6251   -3.3189    0.0000 H   0  0  0  0  0  0  0  0  0  0  0  0
    3.3917   -3.3189    0.0000 H   0  0  0  0  0  0  0  0  0  0  0  0
    3.9375   -2.9209    0.0000 H   0  0  0  0  0  0  0  0  0  0  0  0
   -1.1609   -1.5155    0.0000 H   0  0  0  0  0  0  0  0  0  0  0  0
  1  2  1  0  0  0  0
  1  3  1  0  0  0  0
  1 23  1  0  0  0  0
  1 24  1  0  0  0  0
  2  4  1  0  0  0  0
  2 25  1  0  0  0  0
  2 26  1  0  0  0  0
  3  5  1  0  0  0  0
  3 27  1  0  0  0  0
  3 28  1  0  0  0  0
  4  7  1  0  0  0  0
  4  6  1  0  0  0  0
  4 29  1  6  0  0  0
  5  8  1  0  0  0  0
  5 30  1  0  0  0  0
  6  9  1  0  0  0  0
  6 10  2  0  0  0  0
  7 31  1  0  0  0  0
  7 32  1  0  0  0  0
  8 11  1  0  0  0  0
  8 12  2  0  0  0  0
  9 33  1  0  0  0  0
 11 34  1  0  0  0  0
 11 35  1  0  0  0  0
 12 36  1  0  0  0  0
 13 14  1  0  0  0  0
 13 15  1  0  0  0  0
 13 37  1  0  0  0  0
 13 38  1  0  0  0  0
 14 16  1  0  0  0  0
 14 17  1  0  0  0  0
 14 39  1  6  0  0  0
 15 18  1  0  0  0  0
 15 40  1  0  0  0  0
 15 41  1  0  0  0  0
 16 19  1  0  0  0  0
 16 20  2  0  0  0  0
 17 42  1  0  0  0  0
 17 43  1  0  0  0  0
 18 21  1  0  0  0  0
 18 22  2  0  0  0  0
 19 44  1  0  0  0  0
 21 45  1  0  0  0  0
M  END
>  <DRUGBANK_ID>
DB13207

>  <COMMON_NAME>
Arginine glutamate

>  <CAS_NUMBER>
4320-30-3

>  <UNII>
TU1X77K34Q

>  <SYNONYMS>
2-amino-5-(diaminomethylideneamino)pentanoic acid; 2-amino-5-guanidino-pentanoic acid; 2-aminoglutaric acid; Arginine glutamate; L-Arginine L-glutamate

$$$$
