
 OpenBabel10282417072D

 26 28  0  0  0  0  0  0  0  0999 V2000
   -1.0716   -1.4437    0.0000 C   0  0  0  0  0  0  0  0  0  0  0  0
   -1.7861   -1.0312    0.0000 C   0  0  0  0  0  0  0  0  0  0  0  0
   -1.7861   -0.2062    0.0000 C   0  0  0  0  0  0  0  0  0  0  0  0
   -1.0716    0.2062    0.0000 C   0  0  0  0  0  0  0  0  0  0  0  0
    0.3572    1.0312    0.0000 C   0  0  0  0  0  0  0  0  0  0  0  0
    1.0717    1.4437    0.0000 C   0  0  0  0  0  0  0  0  0  0  0  0
    1.7861    1.0312    0.0000 C   0  0  0  0  0  0  0  0  0  0  0  0
    1.7861    0.2062    0.0000 C   0  0  0  0  0  0  0  0  0  0  0  0
    1.0717   -1.0312    0.0000 C   0  0  0  0  0  0  0  0  0  0  0  0
    0.3572   -1.4437    0.0000 C   0  0  0  0  0  0  0  0  0  0  0  0
   -0.3572   -0.2062    0.0000 C   0  0  0  0  0  0  0  0  0  0  0  0
    0.3572    0.2062    0.0000 C   0  0  0  0  0  0  0  0  0  0  0  0
    1.0717   -0.2062    0.0000 C   0  0  0  0  0  0  0  0  0  0  0  0
   -0.3572   -1.0312    0.0000 C   0  0  0  0  0  0  0  0  0  0  0  0
    1.7861   -1.4437    0.0000 N   0  0  0  0  0  0  0  0  0  0  0  0
   -1.0716   -2.4757    0.0000 H   0  0  0  0  0  0  0  0  0  0  0  0
   -2.6798   -1.5472    0.0000 H   0  0  0  0  0  0  0  0  0  0  0  0
   -2.6798    0.3099    0.0000 H   0  0  0  0  0  0  0  0  0  0  0  0
   -1.0716    1.2382    0.0000 H   0  0  0  0  0  0  0  0  0  0  0  0
   -0.5365    1.5472    0.0000 H   0  0  0  0  0  0  0  0  0  0  0  0
    1.0717    2.4757    0.0000 H   0  0  0  0  0  0  0  0  0  0  0  0
    2.6798    1.5472    0.0000 H   0  0  0  0  0  0  0  0  0  0  0  0
    2.6798   -0.3098    0.0000 H   0  0  0  0  0  0  0  0  0  0  0  0
    0.3572   -2.4757    0.0000 H   0  0  0  0  0  0  0  0  0  0  0  0
    1.7861   -2.4282    0.0000 H   0  0  0  0  0  0  0  0  0  0  0  0
    2.6387   -0.9515    0.0000 H   0  0  0  0  0  0  0  0  0  0  0  0
  1 14  2  0  0  0  0
  1 16  1  0  0  0  0
  2  1  1  0  0  0  0
  2  3  2  0  0  0  0
  2 17  1  0  0  0  0
  3  4  1  0  0  0  0
  3 18  1  0  0  0  0
  4 11  2  0  0  0  0
  4 19  1  0  0  0  0
  5 12  2  0  0  0  0
  5 20  1  0  0  0  0
  6  5  1  0  0  0  0
  6 21  1  0  0  0  0
  7  8  1  0  0  0  0
  7  6  2  0  0  0  0
  7 22  1  0  0  0  0
  8 13  2  0  0  0  0
  8 23  1  0  0  0  0
  9 13  1  0  0  0  0
  9 10  2  0  0  0  0
 10 14  1  0  0  0  0
 10 24  1  0  0  0  0
 12 11  1  0  0  0  0
 13 12  1  0  0  0  0
 14 11  1  0  0  0  0
 15  9  1  0  0  0  0
 15 25  1  0  0  0  0
 15 26  1  0  0  0  0
M  END
>  <DRUGBANK_ID>
DB03369

>  <SECONDARY_ACCESSION_NUMBERS>
EXPT00353

>  <COMMON_NAME>
9-Aminophenanthrene

>  <CAS_NUMBER>
947-73-9

>  <UNII>
7M9M5KM2XY

>  <SYNONYMS>
9-phenanthrenamine; 9-phenanthrylamine; phenanthren-9-amine; Phenanthren-9-ylamine

$$$$
