
 OpenBabel10282417072D

 41 43  0  0  0  0  0  0  0  0999 V2000
   -4.2845    1.4800    0.0000 C   0  0  0  0  0  0  0  0  0  0  0  0
   -4.2845    0.6514    0.0000 C   0  0  0  0  0  0  0  0  0  0  0  0
   -3.5681    0.2433    0.0000 C   0  0  0  0  0  0  0  0  0  0  0  0
   -2.8579    0.6551    0.0000 C   0  0  0  0  0  0  0  0  0  0  0  0
   -2.8579    1.4804    0.0000 C   0  0  0  0  0  0  0  0  0  0  0  0
   -3.5698    1.8924    0.0000 C   0  0  0  0  0  0  0  0  0  0  0  0
   -2.1434    0.2426    0.0000 C   0  0  0  0  0  0  0  0  0  0  0  0
   -1.4290    0.6551    0.0000 C   0  0  0  0  0  0  0  0  0  0  0  0
   -0.7145    0.2426    0.0000 C   0  0  0  0  0  0  0  0  0  0  0  0
    0.0001    0.6550    0.0000 C   0  0  0  0  0  0  0  0  0  0  0  0
    0.7120    0.2430    0.0000 C   0  0  0  0  0  0  0  0  0  0  0  0
    0.7120   -0.5821    0.0000 C   0  0  0  0  0  0  0  0  0  0  0  0
    0.0019   -0.9940    0.0000 C   0  0  0  0  0  0  0  0  0  0  0  0
   -0.7145   -0.5858    0.0000 N   0  0  0  0  0  0  0  0  0  0  0  0
   -1.3240   -1.1411    0.0000 N   0  0  0  0  0  0  0  0  0  0  0  0
   -0.9841   -1.8924    0.0000 C   0  0  0  0  0  0  0  0  0  0  0  0
   -0.1647   -1.8014    0.0000 N   0  0  0  0  0  0  0  0  0  0  0  0
    1.4266   -0.9946    0.0000 C   0  0  0  0  0  0  0  0  0  0  0  0
    2.1410   -0.5821    0.0000 N   0  0  0  0  0  0  0  0  0  0  0  0
    2.8554   -0.9946    0.0000 C   0  0  0  0  0  0  0  0  0  0  0  0
    3.5700   -0.5821    0.0000 C   0  0  0  0  0  0  0  0  0  0  0  0
    4.2845   -0.9946    0.0000 O   0  0  0  0  0  0  0  0  0  0  0  0
    3.5700    0.2427    0.0000 O   0  0  0  0  0  0  0  0  0  0  0  0
    1.4266   -1.8197    0.0000 O   0  0  0  0  0  0  0  0  0  0  0  0
    1.4266    0.6555    0.0000 O   0  0  0  0  0  0  0  0  0  0  0  0
   -5.1782    1.9961    0.0000 H   0  0  0  0  0  0  0  0  0  0  0  0
   -5.1767    0.1328    0.0000 H   0  0  0  0  0  0  0  0  0  0  0  0
   -3.5642   -0.7887    0.0000 H   0  0  0  0  0  0  0  0  0  0  0  0
   -1.9639    1.9959    0.0000 H   0  0  0  0  0  0  0  0  0  0  0  0
   -3.5691    2.9244    0.0000 H   0  0  0  0  0  0  0  0  0  0  0  0
   -2.1434   -0.8274    0.0000 H   0  0  0  0  0  0  0  0  0  0  0  0
   -1.2167   -0.2924    0.0000 H   0  0  0  0  0  0  0  0  0  0  0  0
   -1.4290    1.7251    0.0000 H   0  0  0  0  0  0  0  0  0  0  0  0
   -0.5024    1.1901    0.0000 H   0  0  0  0  0  0  0  0  0  0  0  0
    0.0007    1.6870    0.0000 H   0  0  0  0  0  0  0  0  0  0  0  0
   -1.4948   -2.7892    0.0000 H   0  0  0  0  0  0  0  0  0  0  0  0
    2.1410    0.4024    0.0000 H   0  0  0  0  0  0  0  0  0  0  0  0
    2.8553   -2.0646    0.0000 H   0  0  0  0  0  0  0  0  0  0  0  0
    3.7820   -1.5297    0.0000 H   0  0  0  0  0  0  0  0  0  0  0  0
    4.2845   -1.9316    0.0000 H   0  0  0  0  0  0  0  0  0  0  0  0
    2.2380    0.1869    0.0000 H   0  0  0  0  0  0  0  0  0  0  0  0
  1  2  1  0  0  0  0
  1 26  1  0  0  0  0
  2  3  2  0  0  0  0
  2 27  1  0  0  0  0
  3  4  1  0  0  0  0
  3 28  1  0  0  0  0
  4  5  2  0  0  0  0
  4  7  1  0  0  0  0
  5  6  1  0  0  0  0
  5 29  1  0  0  0  0
  6  1  2  0  0  0  0
  6 30  1  0  0  0  0
  7  8  1  0  0  0  0
  7 31  1  0  0  0  0
  7 32  1  0  0  0  0
  8  9  1  0  0  0  0
  8 33  1  0  0  0  0
  8 34  1  0  0  0  0
  9 14  1  0  0  0  0
 10  9  2  0  0  0  0
 10 35  1  0  0  0  0
 11 10  1  0  0  0  0
 11 25  1  0  0  0  0
 12 11  2  0  0  0  0
 12 18  1  0  0  0  0
 13 12  1  0  0  0  0
 13 17  2  0  0  0  0
 14 13  1  0  0  0  0
 14 15  1  0  0  0  0
 15 16  2  0  0  0  0
 16 17  1  0  0  0  0
 16 36  1  0  0  0  0
 18 19  1  0  0  0  0
 18 24  2  0  0  0  0
 19 20  1  0  0  0  0
 19 37  1  0  0  0  0
 20 21  1  0  0  0  0
 20 38  1  0  0  0  0
 20 39  1  0  0  0  0
 21 22  1  0  0  0  0
 21 23  2  0  0  0  0
 22 40  1  0  0  0  0
 25 41  1  0  0  0  0
M  END
>  <DRUGBANK_ID>
DB14985

>  <COMMON_NAME>
Enarodustat

>  <CAS_NUMBER>
1262132-81-9

>  <UNII>
JSK7TUA223

>  <SYNONYMS>
Ã©narodustat; Enarodustat; Enarodustatum

$$$$
