
 OpenBabel10282417072D

 34 33  0  0  0  0  0  0  0  0999 V2000
    2.1434    2.3966    0.0000 O   0  0  0  0  0  0  0  0  0  0  0  0
    1.4289    3.6341    0.0000 O   0  0  0  0  0  0  0  0  0  0  0  0
   -0.7145   -0.0784    0.0000 N   0  3  0  0  0  0  0  0  0  0  0  0
    0.0000    2.8091    0.0000 N   0  0  0  0  0  0  0  0  0  0  0  0
   -1.4290   -1.3158    0.0000 N   0  0  0  0  0  0  0  0  0  0  0  0
    0.0000   -1.3158    0.0000 N   0  0  0  0  0  0  0  0  0  0  0  0
    0.7144    1.5716    0.0000 C   0  0  0  0  0  0  0  0  0  0  0  0
    0.0000    1.1591    0.0000 C   0  0  0  0  0  0  0  0  0  0  0  0
    0.7144    2.3966    0.0000 C   0  0  1  0  0  0  0  0  0  0  0  0
    0.0000    0.3341    0.0000 C   0  0  0  0  0  0  0  0  0  0  0  0
    1.4289    2.8091    0.0000 C   0  0  0  0  0  0  0  0  0  0  0  0
   -0.7145   -0.9034    0.0000 C   0  0  0  0  0  0  0  0  0  0  0  0
   -1.4290   -2.1408    0.0000 C   0  0  0  0  0  0  0  0  0  0  0  0
   -2.1434   -2.5534    0.0000 C   0  0  0  0  0  0  0  0  0  0  0  0
   -2.1434   -3.3784    0.0000 C   0  0  0  0  0  0  0  0  0  0  0  0
    2.1434    1.4596    0.0000 H   0  0  0  0  0  0  0  0  0  0  0  0
   -1.5671    0.4139    0.0000 H   0  0  0  0  0  0  0  0  0  0  0  0
    0.0000    3.8291    0.0000 H   0  0  0  0  0  0  0  0  0  0  0  0
   -0.8834    2.2991    0.0000 H   0  0  0  0  0  0  0  0  0  0  0  0
   -2.2816   -0.8235    0.0000 H   0  0  0  0  0  0  0  0  0  0  0  0
    0.0001   -2.3003    0.0000 H   0  0  0  0  0  0  0  0  0  0  0  0
    0.8525   -0.8234    0.0000 H   0  0  0  0  0  0  0  0  0  0  0  0
    1.6411    1.0366    0.0000 H   0  0  0  0  0  0  0  0  0  0  0  0
    1.6410    2.1066    0.0000 H   0  0  0  0  0  0  0  0  0  0  0  0
   -0.9267    1.6941    0.0000 H   0  0  0  0  0  0  0  0  0  0  0  0
   -0.9266    0.6241    0.0000 H   0  0  0  0  0  0  0  0  0  0  0  0
   -0.2123    1.8616    0.0000 H   0  0  0  0  0  0  0  0  0  0  0  0
    0.9266   -0.2009    0.0000 H   0  0  0  0  0  0  0  0  0  0  0  0
    0.9266    0.8691    0.0000 H   0  0  0  0  0  0  0  0  0  0  0  0
   -0.5023   -2.6757    0.0000 H   0  0  0  0  0  0  0  0  0  0  0  0
   -1.4289   -3.2108    0.0000 H   0  0  0  0  0  0  0  0  0  0  0  0
   -3.0372   -2.0375    0.0000 H   0  0  0  0  0  0  0  0  0  0  0  0
   -3.0371   -3.8944    0.0000 H   0  0  0  0  0  0  0  0  0  0  0  0
   -1.2497   -3.8944    0.0000 H   0  0  0  0  0  0  0  0  0  0  0  0
  1 11  1  0  0  0  0
  1 16  1  0  0  0  0
  2 11  2  0  0  0  0
  3 10  1  0  0  0  0
  3 12  2  0  0  0  0
  3 17  1  0  0  0  0
  4 18  1  0  0  0  0
  4 19  1  0  0  0  0
  5 12  1  0  0  0  0
  5 13  1  0  0  0  0
  5 20  1  0  0  0  0
  6 12  1  0  0  0  0
  6 21  1  0  0  0  0
  6 22  1  0  0  0  0
  7  8  1  0  0  0  0
  7  9  1  0  0  0  0
  7 23  1  0  0  0  0
  7 24  1  0  0  0  0
  8 10  1  0  0  0  0
  8 25  1  0  0  0  0
  8 26  1  0  0  0  0
  9  4  1  0  0  0  0
  9 11  1  0  0  0  0
  9 27  1  1  0  0  0
 10 28  1  0  0  0  0
 10 29  1  0  0  0  0
 13 14  1  0  0  0  0
 13 30  1  0  0  0  0
 13 31  1  0  0  0  0
 14 15  2  0  0  0  0
 14 32  1  0  0  0  0
 15 33  1  0  0  0  0
 15 34  1  0  0  0  0
M  CHG  1   3   1
M  END
>  <DRUGBANK_ID>
DB03892

>  <SECONDARY_ACCESSION_NUMBERS>
EXPT00563

>  <COMMON_NAME>
5-N-Allyl-arginine

$$$$
