DSC
 OpenBabel10282417072D

 41 40  0  0  0  0  0  0  0  0999 V2000
   -3.1696    0.2365    0.0000 S   0  0  0  0  0  0  0  0  0  0  0  0
   -3.8841    0.6490    0.0000 O   0  0  0  0  0  0  0  0  0  0  0  0
   -3.5822   -0.4780    0.0000 O   0  0  0  0  0  0  0  0  0  0  0  0
   -2.7571    0.9511    0.0000 O   0  5  0  0  0  0  0  0  0  0  0  0
   -2.4551   -0.1760    0.0000 C   0  0  0  0  0  0  0  0  0  0  0  0
   -1.7405    0.2365    0.0000 C   0  0  0  0  0  0  0  0  0  0  0  0
   -1.0261   -0.1760    0.0000 C   0  0  0  0  0  0  0  0  0  0  0  0
   -0.3115    0.2365    0.0000 C   0  0  0  0  0  0  0  0  0  0  0  0
    0.4030   -0.1760    0.0000 C   0  0  0  0  0  0  0  0  0  0  0  0
    1.1176    0.2365    0.0000 C   0  0  0  0  0  0  0  0  0  0  0  0
    1.8320   -0.1760    0.0000 C   0  0  0  0  0  0  0  0  0  0  0  0
    2.5466    0.2365    0.0000 C   0  0  0  0  0  0  0  0  0  0  0  0
    3.2611   -0.1760    0.0000 C   0  0  0  0  0  0  0  0  0  0  0  0
    3.9756    0.2365    0.0000 C   0  0  0  0  0  0  0  0  0  0  0  0
    4.6901   -0.1760    0.0000 C   0  0  0  0  0  0  0  0  0  0  0  0
    5.4047    0.2365    0.0000 C   0  0  0  0  0  0  0  0  0  0  0  0
   -2.4551   -1.2460    0.0000 H   0  0  0  0  0  0  0  0  0  0  0  0
   -1.5285   -0.7111    0.0000 H   0  0  0  0  0  0  0  0  0  0  0  0
   -1.7404    1.3065    0.0000 H   0  0  0  0  0  0  0  0  0  0  0  0
   -0.8138    0.7715    0.0000 H   0  0  0  0  0  0  0  0  0  0  0  0
   -1.0262   -1.2460    0.0000 H   0  0  0  0  0  0  0  0  0  0  0  0
   -0.0995   -0.7111    0.0000 H   0  0  0  0  0  0  0  0  0  0  0  0
   -0.3115    1.3065    0.0000 H   0  0  0  0  0  0  0  0  0  0  0  0
    0.6152    0.7715    0.0000 H   0  0  0  0  0  0  0  0  0  0  0  0
    0.4030   -1.2460    0.0000 H   0  0  0  0  0  0  0  0  0  0  0  0
    1.3296   -0.7111    0.0000 H   0  0  0  0  0  0  0  0  0  0  0  0
    1.1177    1.3065    0.0000 H   0  0  0  0  0  0  0  0  0  0  0  0
    2.0443    0.7715    0.0000 H   0  0  0  0  0  0  0  0  0  0  0  0
    1.8319   -1.2460    0.0000 H   0  0  0  0  0  0  0  0  0  0  0  0
    2.7586   -0.7111    0.0000 H   0  0  0  0  0  0  0  0  0  0  0  0
    2.5466    1.3065    0.0000 H   0  0  0  0  0  0  0  0  0  0  0  0
    3.4733    0.7715    0.0000 H   0  0  0  0  0  0  0  0  0  0  0  0
    3.2611   -1.2460    0.0000 H   0  0  0  0  0  0  0  0  0  0  0  0
    4.1877   -0.7110    0.0000 H   0  0  0  0  0  0  0  0  0  0  0  0
    3.9756    1.3065    0.0000 H   0  0  0  0  0  0  0  0  0  0  0  0
    4.9022    0.7715    0.0000 H   0  0  0  0  0  0  0  0  0  0  0  0
    4.6901   -1.2460    0.0000 H   0  0  0  0  0  0  0  0  0  0  0  0
    5.6167   -0.7111    0.0000 H   0  0  0  0  0  0  0  0  0  0  0  0
    6.3313   -0.2986    0.0000 H   0  0  0  0  0  0  0  0  0  0  0  0
    5.4048    1.3065    0.0000 H   0  0  0  0  0  0  0  0  0  0  0  0
    6.3314    0.7714    0.0000 H   0  0  0  0  0  0  0  0  0  0  0  0
  1  2  2  0  0  0  0
  1  3  2  0  0  0  0
  1  4  1  0  0  0  0
  1  5  1  0  0  0  0
  5  6  1  0  0  0  0
  5 17  1  0  0  0  0
  5 18  1  0  0  0  0
  6  7  1  0  0  0  0
  6 19  1  0  0  0  0
  6 20  1  0  0  0  0
  7  8  1  0  0  0  0
  7 21  1  0  0  0  0
  7 22  1  0  0  0  0
  8  9  1  0  0  0  0
  8 23  1  0  0  0  0
  8 24  1  0  0  0  0
  9 10  1  0  0  0  0
  9 25  1  0  0  0  0
  9 26  1  0  0  0  0
 10 11  1  0  0  0  0
 10 27  1  0  0  0  0
 10 28  1  0  0  0  0
 11 12  1  0  0  0  0
 11 29  1  0  0  0  0
 11 30  1  0  0  0  0
 12 13  1  0  0  0  0
 12 31  1  0  0  0  0
 12 32  1  0  0  0  0
 13 14  1  0  0  0  0
 13 33  1  0  0  0  0
 13 34  1  0  0  0  0
 14 15  1  0  0  0  0
 14 35  1  0  0  0  0
 14 36  1  0  0  0  0
 15 16  1  0  0  0  0
 15 37  1  0  0  0  0
 15 38  1  0  0  0  0
 16 39  1  0  0  0  0
 16 40  1  0  0  0  0
 16 41  1  0  0  0  0
M  CHG  1   4  -1
M  END
>  <DRUGBANK_ID>
DB07681

>  <COMMON_NAME>
DODECANESULFONATE ION

$$$$
