
 OpenBabel10282417072D

  3  2  0  0  0  0  0  0  0  0999 V2000
   -0.0824    0.0042    0.0000 Ca  0  0  0  0  0  0  0  0  0  0  0  0
   -0.8250   -0.0042    0.0000 F   0  0  0  0  0  0  0  0  0  0  0  0
    0.8250   -0.0042    0.0000 F   0  0  0  0  0  0  0  0  0  0  0  0
  1  2  1  0  0  0  0
  1  3  1  0  0  0  0
M  END
>  <DRUGBANK_ID>
DB15962

>  <COMMON_NAME>
Calcium fluoride

>  <CAS_NUMBER>
7789-75-5

>  <UNII>
O3B55K4YKI

>  <SYNONYMS>
Fluorspar

$$$$
