
 OpenBabel10282417072D

 92 93  0  0  0  0  0  0  0  0999 V2000
   -1.4098    0.8244    0.0000 C   0  0  0  0  0  0  0  0  0  0  0  0
    0.0041    0.8244    0.0000 C   0  0  0  0  0  0  0  0  0  0  0  0
   -1.4098    1.6395    0.0000 C   0  0  0  0  0  0  0  0  0  0  0  0
   -0.7028    0.4218    0.0000 C   0  0  0  0  0  0  0  0  0  0  0  0
    0.7113    0.4218    0.0000 N   0  0  0  0  0  0  0  0  0  0  0  0
    0.0041    1.6395    0.0000 C   0  0  0  0  0  0  0  0  0  0  0  0
   -0.7028    2.0521    0.0000 C   0  0  0  0  0  0  0  0  0  0  0  0
    1.4185    0.8244    0.0000 C   0  0  0  0  0  0  0  0  0  0  0  0
    0.7506   -2.8877    0.0000 C   0  0  0  0  0  0  0  0  0  0  0  0
    0.0338   -3.2904    0.0000 C   0  0  0  0  0  0  0  0  0  0  0  0
    2.1451   -2.8877    0.0000 C   0  0  2  0  0  0  0  0  0  0  0  0
    3.5888   -2.8975    0.0000 C   0  0  0  0  0  0  0  0  0  0  0  0
    2.1451    0.4218    0.0000 C   0  0  0  0  0  0  0  0  0  0  0  0
   -0.7028   -2.8778    0.0000 C   0  0  1  0  0  0  0  0  0  0  0  0
    2.8620   -3.3001    0.0000 O   0  0  0  0  0  0  0  0  0  0  0  0
   -2.1267    0.4218    0.0000 C   0  0  0  0  0  0  0  0  0  0  0  0
   -0.7125   -2.0627    0.0000 C   0  0  2  0  0  0  0  0  0  0  0  0
   -1.4098   -1.6503    0.0000 C   0  0  2  0  0  0  0  0  0  0  0  0
    2.8522   -0.8253    0.0000 C   0  0  0  0  0  0  0  0  0  0  0  0
   -0.7028   -0.3836    0.0000 O   0  0  0  0  0  0  0  0  0  0  0  0
    2.1451   -0.4129    0.0000 C   0  0  0  0  0  0  0  0  0  0  0  0
    1.4185    1.6395    0.0000 O   0  0  0  0  0  0  0  0  0  0  0  0
   -0.7028    2.8770    0.0000 O   0  0  0  0  0  0  0  0  0  0  0  0
    2.1451   -2.0627    0.0000 C   0  0  2  0  0  0  0  0  0  0  0  0
   -1.4098   -0.8253    0.0000 C   0  0  0  0  0  0  0  0  0  0  0  0
   -2.1267    2.0618    0.0000 N   0  0  0  0  0  0  0  0  0  0  0  0
    3.5888   -2.0627    0.0000 O   0  0  0  0  0  0  0  0  0  0  0  0
    2.8522   -1.6503    0.0000 C   0  0  0  0  0  0  0  0  0  0  0  0
   -2.1267   -0.4129    0.0000 C   0  0  2  0  0  0  0  0  0  0  0  0
    4.3057   -3.3200    0.0000 N   0  0  0  0  0  0  0  0  0  0  0  0
    0.0338   -1.6503    0.0000 O   0  0  0  0  0  0  0  0  0  0  0  0
   -2.1267   -2.0726    0.0000 O   0  0  0  0  0  0  0  0  0  0  0  0
    0.7603   -2.0627    0.0000 C   0  0  0  0  0  0  0  0  0  0  0  0
    1.4185   -1.6404    0.0000 O   0  0  0  0  0  0  0  0  0  0  0  0
    2.8522    0.8244    0.0000 C   0  0  0  0  0  0  0  0  0  0  0  0
   -1.4295   -3.2806    0.0000 C   0  0  0  0  0  0  0  0  0  0  0  0
   -2.8436   -0.8352    0.0000 C   0  0  0  0  0  0  0  0  0  0  0  0
   -2.8731   -1.6503    0.0000 C   0  0  0  0  0  0  0  0  0  0  0  0
    1.4185   -0.8253    0.0000 C   0  0  0  0  0  0  0  0  0  0  0  0
   -2.1267    2.9005    0.0000 C   0  0  0  0  0  0  0  0  0  0  0  0
   -2.8531    3.3200    0.0000 C   0  0  0  0  0  0  0  0  0  0  0  0
   -3.5793    2.9005    0.0000 N   0  0  0  0  0  0  0  0  0  0  0  0
   -4.3057    3.3200    0.0000 C   0  0  0  0  0  0  0  0  0  0  0  0
   -3.5793    2.0618    0.0000 C   0  0  0  0  0  0  0  0  0  0  0  0
    0.7113   -0.5627    0.0000 H   0  0  0  0  0  0  0  0  0  0  0  0
    0.8991    2.1534    0.0000 H   0  0  0  0  0  0  0  0  0  0  0  0
    0.0345   -4.3224    0.0000 H   0  0  0  0  0  0  0  0  0  0  0  0
    1.8690   -3.9215    0.0000 H   0  0  0  0  0  0  0  0  0  0  0  0
   -0.7052   -3.9478    0.0000 H   0  0  0  0  0  0  0  0  0  0  0  0
   -3.0501    0.9623    0.0000 H   0  0  0  0  0  0  0  0  0  0  0  0
   -3.0549   -0.1104    0.0000 H   0  0  0  0  0  0  0  0  0  0  0  0
    0.2123   -2.6009    0.0000 H   0  0  0  0  0  0  0  0  0  0  0  0
   -1.4107   -2.7203    0.0000 H   0  0  0  0  0  0  0  0  0  0  0  0
    3.7471   -0.3113    0.0000 H   0  0  0  0  0  0  0  0  0  0  0  0
    1.2502   -0.9269    0.0000 H   0  0  0  0  0  0  0  0  0  0  0  0
    1.2177   -2.5964    0.0000 H   0  0  0  0  0  0  0  0  0  0  0  0
   -0.4836   -0.2896    0.0000 H   0  0  0  0  0  0  0  0  0  0  0  0
   -1.4111    0.2447    0.0000 H   0  0  0  0  0  0  0  0  0  0  0  0
   -2.9814    1.5733    0.0000 H   0  0  0  0  0  0  0  0  0  0  0  0
    3.7471   -2.1643    0.0000 H   0  0  0  0  0  0  0  0  0  0  0  0
   -3.0557    0.1180    0.0000 H   0  0  0  0  0  0  0  0  0  0  0  0
    4.2969   -4.3045    0.0000 H   0  0  0  0  0  0  0  0  0  0  0  0
    5.1627   -2.8354    0.0000 H   0  0  0  0  0  0  0  0  0  0  0  0
    0.8646   -2.1510    0.0000 H   0  0  0  0  0  0  0  0  0  0  0  0
    1.6932   -1.5386    0.0000 H   0  0  0  0  0  0  0  0  0  0  0  0
   -0.1600   -1.5168    0.0000 H   0  0  0  0  0  0  0  0  0  0  0  0
    0.7729   -0.9928    0.0000 H   0  0  0  0  0  0  0  0  0  0  0  0
    3.7756    0.2838    0.0000 H   0  0  0  0  0  0  0  0  0  0  0  0
    2.8586    1.8944    0.0000 H   0  0  0  0  0  0  0  0  0  0  0  0
    3.7820    1.3538    0.0000 H   0  0  0  0  0  0  0  0  0  0  0  0
   -2.3467   -2.7295    0.0000 H   0  0  0  0  0  0  0  0  0  0  0  0
   -1.4482   -4.3504    0.0000 H   0  0  0  0  0  0  0  0  0  0  0  0
   -2.3654   -3.7993    0.0000 H   0  0  0  0  0  0  0  0  0  0  0  0
   -3.7749   -0.3083    0.0000 H   0  0  0  0  0  0  0  0  0  0  0  0
   -2.8342   -1.9052    0.0000 H   0  0  0  0  0  0  0  0  0  0  0  0
   -3.7655   -1.3783    0.0000 H   0  0  0  0  0  0  0  0  0  0  0  0
   -2.8824   -0.5803    0.0000 H   0  0  0  0  0  0  0  0  0  0  0  0
   -3.7950   -2.1934    0.0000 H   0  0  0  0  0  0  0  0  0  0  0  0
   -3.8044   -1.1234    0.0000 H   0  0  0  0  0  0  0  0  0  0  0  0
    2.3451   -0.2903    0.0000 H   0  0  0  0  0  0  0  0  0  0  0  0
    0.4919   -0.2903    0.0000 H   0  0  0  0  0  0  0  0  0  0  0  0
    1.4185    0.2447    0.0000 H   0  0  0  0  0  0  0  0  0  0  0  0
   -1.2000    3.4354    0.0000 H   0  0  0  0  0  0  0  0  0  0  0  0
   -2.1266    3.9705    0.0000 H   0  0  0  0  0  0  0  0  0  0  0  0
   -2.8532    4.3900    0.0000 H   0  0  0  0  0  0  0  0  0  0  0  0
   -3.7798    3.8549    0.0000 H   0  0  0  0  0  0  0  0  0  0  0  0
   -4.3056    4.3900    0.0000 H   0  0  0  0  0  0  0  0  0  0  0  0
   -5.2324    2.7851    0.0000 H   0  0  0  0  0  0  0  0  0  0  0  0
   -5.2323    3.8551    0.0000 H   0  0  0  0  0  0  0  0  0  0  0  0
   -4.5059    1.5268    0.0000 H   0  0  0  0  0  0  0  0  0  0  0  0
   -2.6527    1.5268    0.0000 H   0  0  0  0  0  0  0  0  0  0  0  0
   -3.5793    0.9918    0.0000 H   0  0  0  0  0  0  0  0  0  0  0  0
  2  4  1  0  0  0  0
  3  1  2  0  0  0  0
  4  1  1  0  0  0  0
  5  2  1  0  0  0  0
  5 45  1  0  0  0  0
  6  2  2  0  0  0  0
  6 46  1  0  0  0  0
  7  3  1  0  0  0  0
  7  6  1  0  0  0  0
  8  5  1  0  0  0  0
  9 10  2  0  0  0  0
 10 14  1  0  0  0  0
 10 47  1  0  0  0  0
 11  9  1  0  0  0  0
 11 15  1  0  0  0  0
 11 24  1  0  0  0  0
 11 48  1  6  0  0  0
 12 15  1  0  0  0  0
 13  8  1  0  0  0  0
 14 17  1  0  0  0  0
 14 36  1  0  0  0  0
 14 49  1  1  0  0  0
 16  1  1  0  0  0  0
 16 50  1  0  0  0  0
 16 51  1  0  0  0  0
 17 18  1  0  0  0  0
 17 31  1  0  0  0  0
 17 52  1  1  0  0  0
 18 25  1  0  0  0  0
 18 32  1  0  0  0  0
 18 53  1  6  0  0  0
 19 21  1  0  0  0  0
 19 54  1  0  0  0  0
 20  4  2  0  0  0  0
 21 13  2  0  0  0  0
 21 55  1  0  0  0  0
 22  8  2  0  0  0  0
 23  7  2  0  0  0  0
 24 28  1  0  0  0  0
 24 34  1  0  0  0  0
 24 56  1  6  0  0  0
 25 29  1  0  0  0  0
 25 57  1  0  0  0  0
 25 58  1  0  0  0  0
 26  3  1  0  0  0  0
 26 40  1  0  0  0  0
 26 59  1  0  0  0  0
 27 12  2  0  0  0  0
 28 19  2  0  0  0  0
 28 60  1  0  0  0  0
 29 16  1  0  0  0  0
 29 37  1  0  0  0  0
 29 61  1  1  0  0  0
 30 12  1  0  0  0  0
 30 62  1  0  0  0  0
 30 63  1  0  0  0  0
 31 64  1  0  0  0  0
 33  9  1  0  0  0  0
 33 65  1  0  0  0  0
 33 66  1  0  0  0  0
 33 67  1  0  0  0  0
 35 13  1  0  0  0  0
 35 68  1  0  0  0  0
 35 69  1  0  0  0  0
 35 70  1  0  0  0  0
 36 71  1  0  0  0  0
 36 72  1  0  0  0  0
 36 73  1  0  0  0  0
 37 74  1  0  0  0  0
 37 75  1  0  0  0  0
 37 76  1  0  0  0  0
 38 32  1  0  0  0  0
 38 77  1  0  0  0  0
 38 78  1  0  0  0  0
 38 79  1  0  0  0  0
 39 34  1  0  0  0  0
 39 80  1  0  0  0  0
 39 81  1  0  0  0  0
 39 82  1  0  0  0  0
 40 41  1  0  0  0  0
 40 83  1  0  0  0  0
 40 84  1  0  0  0  0
 41 42  1  0  0  0  0
 41 85  1  0  0  0  0
 41 86  1  0  0  0  0
 42 43  1  0  0  0  0
 42 44  1  0  0  0  0
 43 87  1  0  0  0  0
 43 88  1  0  0  0  0
 43 89  1  0  0  0  0
 44 90  1  0  0  0  0
 44 91  1  0  0  0  0
 44 92  1  0  0  0  0
M  END
>  <DRUGBANK_ID>
DB12442

>  <COMMON_NAME>
Alvespimycin

>  <CAS_NUMBER>
467214-20-6

>  <UNII>
001L2FE0M3

>  <SYNONYMS>
17-(dimethylaminoethylamino)-17-demethoxygeldanamycin; 17-DMAG; Alvespimycin; DMAG

$$$$
