
 OpenBabel10282417072D

124128  0  0  1  0  0  0  0  0999 V2000
    2.1853    3.5897    0.0000 C   0  0  0  0  0  0  0  0  0  0  0  0
    1.5556    3.0568    0.0000 C   0  0  2  0  0  0  0  0  0  0  0  0
    1.7023    2.2449    0.0000 C   0  0  1  0  0  0  0  0  0  0  0  0
    1.0726    1.7119    0.0000 C   0  0  0  0  0  0  0  0  0  0  0  0
    0.2962    1.9908    0.0000 O   0  0  0  0  0  0  0  0  0  0  0  0
    1.2193    0.9001    0.0000 N   0  0  0  0  0  0  0  0  0  0  0  0
    2.4788    1.9660    0.0000 N   0  0  0  0  0  0  0  0  0  0  0  0
    3.1085    2.4990    0.0000 C   0  0  0  0  0  0  0  0  0  0  0  0
    2.9618    3.3109    0.0000 O   0  0  0  0  0  0  0  0  0  0  0  0
    3.8849    2.2202    0.0000 C   0  0  2  0  0  0  0  0  0  0  0  0
    3.8849    3.0452    0.0000 C   0  0  0  0  0  0  0  0  0  0  0  0
    4.6695    3.3001    0.0000 S   0  0  0  0  0  0  0  0  0  0  0  0
    5.1544    2.6327    0.0000 S   0  0  0  0  0  0  0  0  0  0  0  0
    6.0285    2.4068    0.0000 C   0  0  0  0  0  0  0  0  0  0  0  0
    6.2835    1.6222    0.0000 C   0  0  1  0  0  0  0  0  0  0  0  0
    7.0905    1.4507    0.0000 C   0  0  0  0  0  0  0  0  0  0  0  0
    7.6425    2.0638    0.0000 O   0  0  0  0  0  0  0  0  0  0  0  0
    7.3454    0.6660    0.0000 N   0  0  0  0  0  0  0  0  0  0  0  0
    6.7934    0.0530    0.0000 C   0  0  2  0  0  0  0  0  0  0  0  0
    7.0483   -0.7317    0.0000 C   0  0  0  0  0  0  0  0  0  0  0  0
    7.8553   -0.9032    0.0000 O   0  0  0  0  0  0  0  0  0  0  0  0
    6.4963   -1.3448    0.0000 N   0  0  0  0  0  0  0  0  0  0  0  0
    5.6893   -1.1732    0.0000 C   0  0  1  0  0  0  0  0  0  0  0  0
    5.4344   -0.3886    0.0000 C   0  0  0  0  0  0  0  0  0  0  0  0
    5.9864    0.2245    0.0000 O   0  0  0  0  0  0  0  0  0  0  0  0
    4.6274   -0.2171    0.0000 N   0  0  0  0  0  0  0  0  0  0  0  0
    4.3724    0.5675    0.0000 C   0  0  2  0  0  0  0  0  0  0  0  0
    3.5655    0.7391    0.0000 C   0  0  0  0  0  0  0  0  0  0  0  0
    3.0134    0.1260    0.0000 O   0  0  0  0  0  0  0  0  0  0  0  0
    3.3105    1.5237    0.0000 N   0  0  0  0  0  0  0  0  0  0  0  0
    3.8204   -0.0456    0.0000 C   0  0  0  0  0  0  0  0  0  0  0  0
    4.0753   -0.8302    0.0000 C   0  0  0  0  0  0  0  0  0  0  0  0
    3.5233   -1.4433    0.0000 C   0  0  0  0  0  0  0  0  0  0  0  0
    3.7783   -2.2279    0.0000 C   0  0  0  0  0  0  0  0  0  0  0  0
    3.2262   -2.8410    0.0000 N   0  0  0  0  0  0  0  0  0  0  0  0
    5.1373   -1.7863    0.0000 C   0  0  0  0  0  0  0  0  0  0  0  0
    5.3922   -2.5710    0.0000 C   0  0  0  0  0  0  0  0  0  0  0  0
    4.9073   -3.2384    0.0000 C   0  0  0  0  0  0  0  0  0  0  0  0
    5.3922   -3.9058    0.0000 N   0  0  0  0  0  0  0  0  0  0  0  0
    6.1768   -3.6509    0.0000 C   0  0  0  0  0  0  0  0  0  0  0  0
    6.1768   -2.8259    0.0000 C   0  0  0  0  0  0  0  0  0  0  0  0
    6.8913   -2.4134    0.0000 C   0  0  0  0  0  0  0  0  0  0  0  0
    7.6058   -2.8259    0.0000 C   0  0  0  0  0  0  0  0  0  0  0  0
    7.6058   -3.6509    0.0000 C   0  0  0  0  0  0  0  0  0  0  0  0
    6.8913   -4.0634    0.0000 C   0  0  0  0  0  0  0  0  0  0  0  0
    7.6003   -0.1186    0.0000 C   0  0  0  0  0  0  0  0  0  0  0  0
    8.1524    0.4945    0.0000 C   0  0  0  0  0  0  0  0  0  0  0  0
    7.8974    1.2791    0.0000 C   0  0  0  0  0  0  0  0  0  0  0  0
    8.4495    1.8922    0.0000 C   0  0  0  0  0  0  0  0  0  0  0  0
    9.2564    1.7207    0.0000 C   0  0  0  0  0  0  0  0  0  0  0  0
    9.5114    0.9361    0.0000 C   0  0  0  0  0  0  0  0  0  0  0  0
    8.9593    0.3230    0.0000 C   0  0  0  0  0  0  0  0  0  0  0  0
    9.8085    2.3338    0.0000 O   0  0  0  0  0  0  0  0  0  0  0  0
    6.8355    2.2353    0.0000 N   0  0  0  0  0  0  0  0  0  0  0  0
    6.5806    3.0199    0.0000 C   0  0  0  0  0  0  0  0  0  0  0  0
    5.7736    3.1914    0.0000 O   0  0  0  0  0  0  0  0  0  0  0  0
    7.1326    3.6330    0.0000 C   0  0  1  0  0  0  0  0  0  0  0  0
    6.8777    4.4176    0.0000 C   0  0  0  0  0  0  0  0  0  0  0  0
    6.0707    4.5892    0.0000 C   0  0  0  0  0  0  0  0  0  0  0  0
    5.5187    3.9761    0.0000 C   0  0  0  0  0  0  0  0  0  0  0  0
    4.7117    4.1476    0.0000 C   0  0  0  0  0  0  0  0  0  0  0  0
    4.4568    4.9322    0.0000 C   0  0  0  0  0  0  0  0  0  0  0  0
    5.0088    5.5453    0.0000 C   0  0  0  0  0  0  0  0  0  0  0  0
    5.8158    5.3738    0.0000 C   0  0  0  0  0  0  0  0  0  0  0  0
    7.9396    3.4615    0.0000 N   0  0  0  0  0  0  0  0  0  0  0  0
    0.7792    3.3356    0.0000 O   0  0  0  0  0  0  0  0  0  0  0  0
    3.1923    3.2280    0.0000 H   0  0  0  0  0  0  0  0  0  0  0  0
    1.9951    4.6427    0.0000 H   0  0  0  0  0  0  0  0  0  0  0  0
    3.0021    4.2809    0.0000 H   0  0  0  0  0  0  0  0  0  0  0  0
    1.3653    4.1097    0.0000 H   0  0  0  0  0  0  0  0  0  0  0  0
    2.5190    2.9361    0.0000 H   0  0  0  0  0  0  0  0  0  0  0  0
    0.4678    0.2641    0.0000 H   0  0  0  0  0  0  0  0  0  0  0  0
    2.1458    0.5673    0.0000 H   0  0  0  0  0  0  0  0  0  0  0  0
    2.6539    0.9972    0.0000 H   0  0  0  0  0  0  0  0  0  0  0  0
    3.2693    3.0954    0.0000 H   0  0  0  0  0  0  0  0  0  0  0  0
    3.0193    3.6741    0.0000 H   0  0  0  0  0  0  0  0  0  0  0  0
    4.0523    4.1020    0.0000 H   0  0  0  0  0  0  0  0  0  0  0  0
    6.7615    3.1862    0.0000 H   0  0  0  0  0  0  0  0  0  0  0  0
    7.0727    2.1730    0.0000 H   0  0  0  0  0  0  0  0  0  0  0  0
    6.5059    2.6688    0.0000 H   0  0  0  0  0  0  0  0  0  0  0  0
    8.3084    0.4613    0.0000 H   0  0  0  0  0  0  0  0  0  0  0  0
    7.8111    0.3836    0.0000 H   0  0  0  0  0  0  0  0  0  0  0  0
    6.8005   -2.2811    0.0000 H   0  0  0  0  0  0  0  0  0  0  0  0
    6.0199   -2.1908    0.0000 H   0  0  0  0  0  0  0  0  0  0  0  0
    3.9687   -0.9488    0.0000 H   0  0  0  0  0  0  0  0  0  0  0  0
    4.1500   -0.4791    0.0000 H   0  0  0  0  0  0  0  0  0  0  0  0
    2.3433    1.7074    0.0000 H   0  0  0  0  0  0  0  0  0  0  0  0
    2.7738    0.1769    0.0000 H   0  0  0  0  0  0  0  0  0  0  0  0
    3.1044   -0.8408    0.0000 H   0  0  0  0  0  0  0  0  0  0  0  0
    5.1219   -1.0527    0.0000 H   0  0  0  0  0  0  0  0  0  0  0  0
    4.4060   -1.8478    0.0000 H   0  0  0  0  0  0  0  0  0  0  0  0
    2.4767   -1.2209    0.0000 H   0  0  0  0  0  0  0  0  0  0  0  0
    2.8074   -2.2385    0.0000 H   0  0  0  0  0  0  0  0  0  0  0  0
    4.8249   -2.4504    0.0000 H   0  0  0  0  0  0  0  0  0  0  0  0
    4.1089   -3.2455    0.0000 H   0  0  0  0  0  0  0  0  0  0  0  0
    2.2285   -2.6289    0.0000 H   0  0  0  0  0  0  0  0  0  0  0  0
    3.5413   -3.8111    0.0000 H   0  0  0  0  0  0  0  0  0  0  0  0
    4.0907   -1.5638    0.0000 H   0  0  0  0  0  0  0  0  0  0  0  0
    4.4213   -2.5814    0.0000 H   0  0  0  0  0  0  0  0  0  0  0  0
    3.8753   -3.2384    0.0000 H   0  0  0  0  0  0  0  0  0  0  0  0
    5.0880   -4.8421    0.0000 H   0  0  0  0  0  0  0  0  0  0  0  0
    6.8913   -1.3814    0.0000 H   0  0  0  0  0  0  0  0  0  0  0  0
    8.4995   -2.3099    0.0000 H   0  0  0  0  0  0  0  0  0  0  0  0
    8.4995   -4.1669    0.0000 H   0  0  0  0  0  0  0  0  0  0  0  0
    6.8913   -5.0954    0.0000 H   0  0  0  0  0  0  0  0  0  0  0  0
    7.9309   -1.1363    0.0000 H   0  0  0  0  0  0  0  0  0  0  0  0
    8.6469   -0.3411    0.0000 H   0  0  0  0  0  0  0  0  0  0  0  0
    6.8879    1.4937    0.0000 H   0  0  0  0  0  0  0  0  0  0  0  0
    8.1306    2.8737    0.0000 H   0  0  0  0  0  0  0  0  0  0  0  0
   10.5209    0.7215    0.0000 H   0  0  0  0  0  0  0  0  0  0  0  0
    9.2782   -0.6585    0.0000 H   0  0  0  0  0  0  0  0  0  0  0  0
   10.7250    2.1389    0.0000 H   0  0  0  0  0  0  0  0  0  0  0  0
    7.7985    2.0306    0.0000 H   0  0  0  0  0  0  0  0  0  0  0  0
    7.4633    2.6154    0.0000 H   0  0  0  0  0  0  0  0  0  0  0  0
    7.5937    5.2127    0.0000 H   0  0  0  0  0  0  0  0  0  0  0  0
    6.5471    5.4353    0.0000 H   0  0  0  0  0  0  0  0  0  0  0  0
    5.8376    2.9946    0.0000 H   0  0  0  0  0  0  0  0  0  0  0  0
    4.0212    3.3807    0.0000 H   0  0  0  0  0  0  0  0  0  0  0  0
    3.4474    5.1468    0.0000 H   0  0  0  0  0  0  0  0  0  0  0  0
    4.6899    6.5268    0.0000 H   0  0  0  0  0  0  0  0  0  0  0  0
    6.5063    6.1407    0.0000 H   0  0  0  0  0  0  0  0  0  0  0  0
    8.2548    2.4914    0.0000 H   0  0  0  0  0  0  0  0  0  0  0  0
    8.6221    4.2195    0.0000 H   0  0  0  0  0  0  0  0  0  0  0  0
    0.6066    4.2901    0.0000 H   0  0  0  0  0  0  0  0  0  0  0  0
  1  2  1  0  0  0  0
  1 67  1  0  0  0  0
  1 68  1  0  0  0  0
  1 69  1  0  0  0  0
  2  3  1  0  0  0  0
  2 66  1  0  0  0  0
  2 70  1  1  0  0  0
  3  4  1  0  0  0  0
  3  7  1  0  0  0  0
  3 71  1  1  0  0  0
  4  5  2  0  0  0  0
  4  6  1  0  0  0  0
  6 72  1  0  0  0  0
  6 73  1  0  0  0  0
  7  8  1  0  0  0  0
  7 74  1  0  0  0  0
  8  9  2  0  0  0  0
 10  8  1  0  0  0  0
 10 11  1  0  0  0  0
 10 30  1  0  0  0  0
 10 75  1  1  0  0  0
 11 12  1  0  0  0  0
 11 76  1  0  0  0  0
 11 77  1  0  0  0  0
 12 13  1  0  0  0  0
 13 14  1  0  0  0  0
 14 15  1  0  0  0  0
 14 78  1  0  0  0  0
 14 79  1  0  0  0  0
 15 16  1  0  0  0  0
 15 54  1  0  0  0  0
 15 80  1  1  0  0  0
 16 17  2  0  0  0  0
 16 18  1  0  0  0  0
 18 19  1  0  0  0  0
 18 81  1  0  0  0  0
 19 20  1  0  0  0  0
 19 46  1  0  0  0  0
 19 82  1  6  0  0  0
 20 21  2  0  0  0  0
 20 22  1  0  0  0  0
 22 23  1  0  0  0  0
 22 83  1  0  0  0  0
 23 24  1  0  0  0  0
 23 36  1  0  0  0  0
 23 84  1  1  0  0  0
 24 25  2  0  0  0  0
 24 26  1  0  0  0  0
 26 27  1  0  0  0  0
 26 85  1  0  0  0  0
 27 28  1  0  0  0  0
 27 31  1  0  0  0  0
 27 86  1  6  0  0  0
 28 29  2  0  0  0  0
 28 30  1  0  0  0  0
 30 87  1  0  0  0  0
 31 32  1  0  0  0  0
 31 88  1  0  0  0  0
 31 89  1  0  0  0  0
 32 33  1  0  0  0  0
 32 90  1  0  0  0  0
 32 91  1  0  0  0  0
 33 34  1  0  0  0  0
 33 92  1  0  0  0  0
 33 93  1  0  0  0  0
 34 35  1  0  0  0  0
 34 94  1  0  0  0  0
 34 95  1  0  0  0  0
 35 96  1  0  0  0  0
 35 97  1  0  0  0  0
 36 37  1  0  0  0  0
 36 98  1  0  0  0  0
 36 99  1  0  0  0  0
 37 38  2  0  0  0  0
 37 41  1  0  0  0  0
 38 39  1  0  0  0  0
 38100  1  0  0  0  0
 39 40  1  0  0  0  0
 39101  1  0  0  0  0
 40 41  1  0  0  0  0
 40 45  2  0  0  0  0
 41 42  2  0  0  0  0
 42 43  1  0  0  0  0
 42102  1  0  0  0  0
 43 44  2  0  0  0  0
 43103  1  0  0  0  0
 44 45  1  0  0  0  0
 44104  1  0  0  0  0
 45105  1  0  0  0  0
 46 47  1  0  0  0  0
 46106  1  0  0  0  0
 46107  1  0  0  0  0
 47 48  2  0  0  0  0
 47 52  1  0  0  0  0
 48 49  1  0  0  0  0
 48108  1  0  0  0  0
 49 50  2  0  0  0  0
 49109  1  0  0  0  0
 50 51  1  0  0  0  0
 50 53  1  0  0  0  0
 51 52  2  0  0  0  0
 51110  1  0  0  0  0
 52111  1  0  0  0  0
 53112  1  0  0  0  0
 54 55  1  0  0  0  0
 54113  1  0  0  0  0
 55 56  2  0  0  0  0
 55 57  1  0  0  0  0
 57 58  1  0  0  0  0
 57 65  1  0  0  0  0
 57114  1  6  0  0  0
 58 59  1  0  0  0  0
 58115  1  0  0  0  0
 58116  1  0  0  0  0
 59 60  2  0  0  0  0
 59 64  1  0  0  0  0
 60 61  1  0  0  0  0
 60117  1  0  0  0  0
 61 62  2  0  0  0  0
 61118  1  0  0  0  0
 62 63  1  0  0  0  0
 62119  1  0  0  0  0
 63 64  2  0  0  0  0
 63120  1  0  0  0  0
 64121  1  0  0  0  0
 65122  1  0  0  0  0
 65123  1  0  0  0  0
 66124  1  0  0  0  0
M  END
>  <DRUGBANK_ID>
DB12088

>  <COMMON_NAME>
TT-232

>  <CAS_NUMBER>
147159-51-1

>  <UNII>
49D4Q4254Z

>  <SYNONYMS>
D-Phe-Cys-Tyr-D-Trp-Lys-Cys-Thr-NH2 (disulfide bridge: 2-6)

$$$$
