
 OpenBabel10282417072D

 79 81  0  0  0  0  0  0  0  0999 V2000
   -1.2957    1.6251    0.0000 C   0  0  1  0  0  0  0  0  0  0  0  0
   -2.7267   -1.6817    0.0000 C   0  0  0  0  0  0  0  0  0  0  0  0
   -2.0112   -2.0940    0.0000 C   0  0  0  0  0  0  0  0  0  0  0  0
   -1.2957    0.7924    0.0000 C   0  0  2  0  0  0  0  0  0  0  0  0
   -0.5276    1.8839    0.0000 C   0  0  2  0  0  0  0  0  0  0  0  0
   -2.7267   -0.8490    0.0000 C   0  0  0  0  0  0  0  0  0  0  0  0
   -2.0112   -2.9187    0.0000 C   0  0  2  0  0  0  0  0  0  0  0  0
   -2.0112    0.3881    0.0000 C   0  0  0  0  0  0  0  0  0  0  0  0
   -2.0112   -0.4366    0.0000 C   0  0  0  0  0  0  0  0  0  0  0  0
   -0.5316    0.5579    0.0000 C   0  0  0  0  0  0  0  0  0  0  0  0
   -0.0424    1.2249    0.0000 C   0  0  0  0  0  0  0  0  0  0  0  0
   -2.7267   -3.3351    0.0000 C   0  0  0  0  0  0  0  0  0  0  0  0
   -3.4423   -2.0940    0.0000 C   0  0  0  0  0  0  0  0  0  0  0  0
   -3.4423   -2.9107    0.0000 C   0  0  1  0  0  0  0  0  0  0  0  0
   -1.3442   -1.6736    0.0000 C   0  0  0  0  0  0  0  0  0  0  0  0
    1.6392    2.0132    0.0000 C   0  0  0  0  0  0  0  0  0  0  0  0
    0.8429    1.9404    0.0000 C   0  0  0  0  0  0  0  0  0  0  0  0
    2.0516    1.3381    0.0000 C   0  0  0  0  0  0  0  0  0  0  0  0
    2.9126    1.3947    0.0000 C   0  0  0  0  0  0  0  0  0  0  0  0
    0.5477    2.7045    0.0000 C   0  0  0  0  0  0  0  0  0  0  0  0
   -0.2770    2.6722    0.0000 C   0  0  1  0  0  0  0  0  0  0  0  0
   -2.0112    2.0374    0.0000 C   0  0  0  0  0  0  0  0  0  0  0  0
   -1.3037   -3.3351    0.0000 O   0  0  0  0  0  0  0  0  0  0  0  0
   -1.2188    2.4417    0.0000 C   0  0  0  0  0  0  0  0  0  0  0  0
    3.6929    1.9162    0.0000 O   0  0  0  0  0  0  0  0  0  0  0  0
   -4.1659   -3.3311    0.0000 O   0  0  0  0  0  0  0  0  0  0  0  0
   -2.7267    0.7924    0.0000 C   0  0  0  0  0  0  0  0  0  0  0  0
   -2.7267    1.6251    0.0000 C   0  0  0  0  0  0  0  0  0  0  0  0
    3.3654    0.7155    0.0000 C   0  0  0  0  0  0  0  0  0  0  0  0
    3.0016    2.1870    0.0000 C   0  0  0  0  0  0  0  0  0  0  0  0
   -0.7742    3.3351    0.0000 C   0  0  0  0  0  0  0  0  0  0  0  0
    2.4154    2.7772    0.0000 C   0  0  0  0  0  0  0  0  0  0  0  0
    4.1659    0.9096    0.0000 C   0  0  0  0  0  0  0  0  0  0  0  0
   -1.2552    0.1213    0.0000 H   0  0  0  0  0  0  0  0  0  0  0  0
    0.2693    2.0974    0.0000 H   0  0  0  0  0  0  0  0  0  0  0  0
   -3.6203   -0.3327    0.0000 H   0  0  0  0  0  0  0  0  0  0  0  0
   -1.0823   -2.3876    0.0000 H   0  0  0  0  0  0  0  0  0  0  0  0
   -1.1176   -0.9529    0.0000 H   0  0  0  0  0  0  0  0  0  0  0  0
   -0.1949   -0.4577    0.0000 H   0  0  0  0  0  0  0  0  0  0  0  0
    0.5253    0.3913    0.0000 H   0  0  0  0  0  0  0  0  0  0  0  0
    1.0276    1.2259    0.0000 H   0  0  0  0  0  0  0  0  0  0  0  0
    0.4417    0.2707    0.0000 H   0  0  0  0  0  0  0  0  0  0  0  0
   -2.7311   -4.4051    0.0000 H   0  0  0  0  0  0  0  0  0  0  0  0
   -1.8002   -3.8704    0.0000 H   0  0  0  0  0  0  0  0  0  0  0  0
   -4.3687   -1.5586    0.0000 H   0  0  0  0  0  0  0  0  0  0  0  0
   -4.3691   -2.6288    0.0000 H   0  0  0  0  0  0  0  0  0  0  0  0
   -3.4471   -3.9807    0.0000 H   0  0  0  0  0  0  0  0  0  0  0  0
   -0.4311   -2.1546    0.0000 H   0  0  0  0  0  0  0  0  0  0  0  0
   -1.3842   -0.6424    0.0000 H   0  0  0  0  0  0  0  0  0  0  0  0
    2.1025    2.9353    0.0000 H   0  0  0  0  0  0  0  0  0  0  0  0
    0.2987    1.0636    0.0000 H   0  0  0  0  0  0  0  0  0  0  0  0
    1.5765    0.4220    0.0000 H   0  0  0  0  0  0  0  0  0  0  0  0
    1.1145    3.5669    0.0000 H   0  0  0  0  0  0  0  0  0  0  0  0
    0.1827    3.6384    0.0000 H   0  0  0  0  0  0  0  0  0  0  0  0
   -2.0112    3.1074    0.0000 H   0  0  0  0  0  0  0  0  0  0  0  0
   -2.9376    2.5728    0.0000 H   0  0  0  0  0  0  0  0  0  0  0  0
   -1.3118   -4.3051    0.0000 H   0  0  0  0  0  0  0  0  0  0  0  0
   -0.2461    2.8875    0.0000 H   0  0  0  0  0  0  0  0  0  0  0  0
   -2.0912    3.0612    0.0000 H   0  0  0  0  0  0  0  0  0  0  0  0
   -1.1185    3.5070    0.0000 H   0  0  0  0  0  0  0  0  0  0  0  0
    4.5629    1.4873    0.0000 H   0  0  0  0  0  0  0  0  0  0  0  0
   -5.0073   -2.8484    0.0000 H   0  0  0  0  0  0  0  0  0  0  0  0
   -3.6509    0.2531    0.0000 H   0  0  0  0  0  0  0  0  0  0  0  0
   -2.7193   -0.2776    0.0000 H   0  0  0  0  0  0  0  0  0  0  0  0
   -3.6531    2.1605    0.0000 H   0  0  0  0  0  0  0  0  0  0  0  0
   -2.7260    2.6951    0.0000 H   0  0  0  0  0  0  0  0  0  0  0  0
    2.9760   -0.2811    0.0000 H   0  0  0  0  0  0  0  0  0  0  0  0
    4.0694   -0.0903    0.0000 H   0  0  0  0  0  0  0  0  0  0  0  0
    4.0121    2.5389    0.0000 H   0  0  0  0  0  0  0  0  0  0  0  0
    3.2423    3.2296    0.0000 H   0  0  0  0  0  0  0  0  0  0  0  0
   -0.3539    4.3191    0.0000 H   0  0  0  0  0  0  0  0  0  0  0  0
   -1.8365    3.2071    0.0000 H   0  0  0  0  0  0  0  0  0  0  0  0
   -1.4162    4.1911    0.0000 H   0  0  0  0  0  0  0  0  0  0  0  0
    2.6958    3.8098    0.0000 H   0  0  0  0  0  0  0  0  0  0  0  0
    1.3809    2.5038    0.0000 H   0  0  0  0  0  0  0  0  0  0  0  0
    1.6614    3.5364    0.0000 H   0  0  0  0  0  0  0  0  0  0  0  0
    4.9042    0.1351    0.0000 H   0  0  0  0  0  0  0  0  0  0  0  0
    4.4675    1.9362    0.0000 H   0  0  0  0  0  0  0  0  0  0  0  0
    5.2058    1.1617    0.0000 H   0  0  0  0  0  0  0  0  0  0  0  0
  1 24  1  1  0  0  0
  2  6  2  0  0  0  0
  3  2  1  0  0  0  0
  4  1  1  0  0  0  0
  4 34  1  6  0  0  0
  5  1  1  0  0  0  0
  5 11  1  0  0  0  0
  5 35  1  6  0  0  0
  6  9  1  0  0  0  0
  6 36  1  0  0  0  0
  7  3  1  0  0  0  0
  7 23  1  0  0  0  0
  7 12  1  0  0  0  0
  7 37  1  6  0  0  0
  8  4  1  0  0  0  0
  8 27  1  0  0  0  0
  9  8  2  0  0  0  0
  9 38  1  0  0  0  0
 10  4  1  0  0  0  0
 10 11  1  0  0  0  0
 10 39  1  0  0  0  0
 10 40  1  0  0  0  0
 11 41  1  0  0  0  0
 11 42  1  0  0  0  0
 12 14  1  0  0  0  0
 12 43  1  0  0  0  0
 12 44  1  0  0  0  0
 13  2  1  0  0  0  0
 13 45  1  0  0  0  0
 13 46  1  0  0  0  0
 14 13  1  0  0  0  0
 14 26  1  0  0  0  0
 14 47  1  1  0  0  0
 15  3  2  0  0  0  0
 15 48  1  0  0  0  0
 15 49  1  0  0  0  0
 16 17  1  0  0  0  0
 16 50  1  0  0  0  0
 17 20  2  0  0  0  0
 17 51  1  0  0  0  0
 18 16  2  0  0  0  0
 18 52  1  0  0  0  0
 19 18  1  0  0  0  0
 20 21  1  0  0  0  0
 20 53  1  0  0  0  0
 21  5  1  0  0  0  0
 21 31  1  0  0  0  0
 21 54  1  1  0  0  0
 22  1  1  0  0  0  0
 22 55  1  0  0  0  0
 22 56  1  0  0  0  0
 23 57  1  0  0  0  0
 24 58  1  0  0  0  0
 24 59  1  0  0  0  0
 24 60  1  0  0  0  0
 25 19  1  0  0  0  0
 25 61  1  0  0  0  0
 26 62  1  0  0  0  0
 27 28  1  0  0  0  0
 27 63  1  0  0  0  0
 27 64  1  0  0  0  0
 28 22  1  0  0  0  0
 28 65  1  0  0  0  0
 28 66  1  0  0  0  0
 29 19  1  0  0  0  0
 29 67  1  0  0  0  0
 29 68  1  0  0  0  0
 30 19  1  0  0  0  0
 30 69  1  0  0  0  0
 30 70  1  0  0  0  0
 31 71  1  0  0  0  0
 31 72  1  0  0  0  0
 31 73  1  0  0  0  0
 32 30  1  0  0  0  0
 32 74  1  0  0  0  0
 32 75  1  0  0  0  0
 32 76  1  0  0  0  0
 33 29  1  0  0  0  0
 33 77  1  0  0  0  0
 33 78  1  0  0  0  0
 33 79  1  0  0  0  0
M  END
>  <DRUGBANK_ID>
DB04258

>  <SECONDARY_ACCESSION_NUMBERS>
EXPT01322

>  <COMMON_NAME>
Seocalcitol

>  <CAS_NUMBER>
134404-52-7

>  <UNII>
Q0OZ0D9223

>  <SYNONYMS>
(5Z,7E,22E,24E)-(1S,3R)-26,27-dimethyl-24a-homo-9,10-seco-5,7,10(19),22,24-cholestapentaene-1,3,25-triol; Seocalcitol

$$$$
