
 OpenBabel10282417072D

 48 50  0  0  0  0  0  0  0  0999 V2000
   -0.5145   -1.2657    0.0000 O   0  0  0  0  0  0  0  0  0  0  0  0
    1.6288   -1.6782    0.0000 O   0  0  0  0  0  0  0  0  0  0  0  0
    0.1998   -1.6782    0.0000 O   0  0  0  0  0  0  0  0  0  0  0  0
   -1.2290   -0.0282    0.0000 N   0  0  0  0  0  0  0  0  0  0  0  0
   -2.1222    0.9637    0.0000 C   0  0  1  0  0  0  0  0  0  0  0  0
   -2.5347    0.2492    0.0000 C   0  0  2  0  0  0  0  0  0  0  0  0
   -1.3153    0.7922    0.0000 C   0  0  0  0  0  0  0  0  0  0  0  0
   -1.9827   -0.3638    0.0000 C   0  0  0  0  0  0  0  0  0  0  0  0
   -2.5347    1.6782    0.0000 C   0  0  0  0  0  0  0  0  0  0  0  0
   -3.3597    0.2492    0.0000 C   0  0  0  0  0  0  0  0  0  0  0  0
   -0.5145   -0.4407    0.0000 C   0  0  0  0  0  0  0  0  0  0  0  0
   -3.3597    1.6782    0.0000 C   0  0  0  0  0  0  0  0  0  0  0  0
   -3.7722    0.9637    0.0000 C   0  0  0  0  0  0  0  0  0  0  0  0
    0.1998   -0.0282    0.0000 C   0  0  0  0  0  0  0  0  0  0  0  0
    0.9143   -0.4407    0.0000 C   0  0  1  0  0  0  0  0  0  0  0  0
    0.9143   -1.2657    0.0000 C   0  0  0  0  0  0  0  0  0  0  0  0
    1.6288   -0.0282    0.0000 C   0  0  0  0  0  0  0  0  0  0  0  0
    2.3432   -0.4407    0.0000 C   0  0  0  0  0  0  0  0  0  0  0  0
    3.0577   -0.0282    0.0000 C   0  0  0  0  0  0  0  0  0  0  0  0
    2.3432   -1.2657    0.0000 C   0  0  0  0  0  0  0  0  0  0  0  0
    3.7722   -0.4407    0.0000 C   0  0  0  0  0  0  0  0  0  0  0  0
    3.0577   -1.6782    0.0000 C   0  0  0  0  0  0  0  0  0  0  0  0
    3.7722   -1.2657    0.0000 C   0  0  0  0  0  0  0  0  0  0  0  0
   -1.6373    1.6311    0.0000 H   0  0  0  0  0  0  0  0  0  0  0  0
   -2.8703   -0.5044    0.0000 H   0  0  0  0  0  0  0  0  0  0  0  0
    1.6288   -0.8532    0.0000 H   0  0  0  0  0  0  0  0  0  0  0  0
    1.6288   -2.6152    0.0000 H   0  0  0  0  0  0  0  0  0  0  0  0
   -0.5202    1.5082    0.0000 H   0  0  0  0  0  0  0  0  0  0  0  0
   -1.5923    1.8257    0.0000 H   0  0  0  0  0  0  0  0  0  0  0  0
   -2.2051   -1.4104    0.0000 H   0  0  0  0  0  0  0  0  0  0  0  0
   -3.0162   -0.6408    0.0000 H   0  0  0  0  0  0  0  0  0  0  0  0
   -1.9997    2.6048    0.0000 H   0  0  0  0  0  0  0  0  0  0  0  0
   -3.0697    2.6048    0.0000 H   0  0  0  0  0  0  0  0  0  0  0  0
   -3.8947   -0.6774    0.0000 H   0  0  0  0  0  0  0  0  0  0  0  0
   -4.4297    0.2492    0.0000 H   0  0  0  0  0  0  0  0  0  0  0  0
   -3.8947    2.6048    0.0000 H   0  0  0  0  0  0  0  0  0  0  0  0
   -4.4297    1.6782    0.0000 H   0  0  0  0  0  0  0  0  0  0  0  0
   -4.8422    0.9637    0.0000 H   0  0  0  0  0  0  0  0  0  0  0  0
   -4.3072    1.8903    0.0000 H   0  0  0  0  0  0  0  0  0  0  0  0
    0.1997    1.0418    0.0000 H   0  0  0  0  0  0  0  0  0  0  0  0
    1.1264    0.5068    0.0000 H   0  0  0  0  0  0  0  0  0  0  0  0
    1.6288    1.0418    0.0000 H   0  0  0  0  0  0  0  0  0  0  0  0
    2.5555    0.5068    0.0000 H   0  0  0  0  0  0  0  0  0  0  0  0
    3.0577    1.0038    0.0000 H   0  0  0  0  0  0  0  0  0  0  0  0
    1.4495   -1.7817    0.0000 H   0  0  0  0  0  0  0  0  0  0  0  0
    4.6659    0.0753    0.0000 H   0  0  0  0  0  0  0  0  0  0  0  0
    3.0577   -2.7102    0.0000 H   0  0  0  0  0  0  0  0  0  0  0  0
    4.6659   -1.7817    0.0000 H   0  0  0  0  0  0  0  0  0  0  0  0
  1 11  2  0  0  0  0
  2 16  1  0  0  0  0
  2 27  1  0  0  0  0
  3 16  2  0  0  0  0
  4  7  1  0  0  0  0
  4  8  1  0  0  0  0
  4 11  1  0  0  0  0
  5  6  1  0  0  0  0
  5  7  1  0  0  0  0
  5  9  1  0  0  0  0
  5 24  1  1  0  0  0
  6  8  1  0  0  0  0
  6 10  1  0  0  0  0
  6 25  1  1  0  0  0
  7 28  1  0  0  0  0
  7 29  1  0  0  0  0
  8 30  1  0  0  0  0
  8 31  1  0  0  0  0
  9 12  1  0  0  0  0
  9 32  1  0  0  0  0
  9 33  1  0  0  0  0
 10 13  1  0  0  0  0
 10 34  1  0  0  0  0
 10 35  1  0  0  0  0
 11 14  1  0  0  0  0
 12 13  1  0  0  0  0
 12 36  1  0  0  0  0
 12 37  1  0  0  0  0
 13 38  1  0  0  0  0
 13 39  1  0  0  0  0
 14 15  1  0  0  0  0
 14 40  1  0  0  0  0
 14 41  1  0  0  0  0
 15 16  1  0  0  0  0
 15 17  1  0  0  0  0
 15 26  1  1  0  0  0
 17 18  1  0  0  0  0
 17 42  1  0  0  0  0
 17 43  1  0  0  0  0
 18 19  2  0  0  0  0
 18 20  1  0  0  0  0
 19 21  1  0  0  0  0
 19 44  1  0  0  0  0
 20 22  2  0  0  0  0
 20 45  1  0  0  0  0
 21 23  2  0  0  0  0
 21 46  1  0  0  0  0
 22 23  1  0  0  0  0
 22 47  1  0  0  0  0
 23 48  1  0  0  0  0
M  END
>  <DRUGBANK_ID>
DB01252

>  <COMMON_NAME>
Mitiglinide

>  <CAS_NUMBER>
145375-43-5

>  <UNII>
D86I0XLB13

>  <SYNONYMS>
Mitiglinide

$$$$
