GVK
 OpenBabel10282417072D

 48 52  0  0  0  0  0  0  0  0999 V2000
    3.6967    2.7346    0.0000 Cl  0  0  0  0  0  0  0  0  0  0  0  0
    2.8843    2.8778    0.0000 C   0  0  0  0  0  0  0  0  0  0  0  0
    2.3540    2.2459    0.0000 C   0  0  0  0  0  0  0  0  0  0  0  0
    1.5415    2.3891    0.0000 C   0  0  0  0  0  0  0  0  0  0  0  0
    1.2593    3.1644    0.0000 C   0  0  0  0  0  0  0  0  0  0  0  0
    1.7896    3.7964    0.0000 C   0  0  0  0  0  0  0  0  0  0  0  0
    2.6021    3.6531    0.0000 C   0  0  0  0  0  0  0  0  0  0  0  0
    0.4469    3.3076    0.0000 C   0  0  0  0  0  0  0  0  0  0  0  0
   -0.3656    3.1644    0.0000 C   0  0  0  0  0  0  0  0  0  0  0  0
   -0.8959    3.7964    0.0000 C   0  0  0  0  0  0  0  0  0  0  0  0
   -0.6137    4.5716    0.0000 N   0  0  0  0  0  0  0  0  0  0  0  0
    0.1987    4.7149    0.0000 C   0  0  0  0  0  0  0  0  0  0  0  0
    0.7290    4.0829    0.0000 C   0  0  0  0  0  0  0  0  0  0  0  0
    0.4469    2.4826    0.0000 C   0  0  0  0  0  0  0  0  0  0  0  0
    1.1613    2.0701    0.0000 C   0  0  0  0  0  0  0  0  0  0  0  0
    1.1613    1.2451    0.0000 C   0  0  0  0  0  0  0  0  0  0  0  0
    0.4469    0.8326    0.0000 C   0  0  0  0  0  0  0  0  0  0  0  0
   -0.2676    1.2451    0.0000 C   0  0  0  0  0  0  0  0  0  0  0  0
   -0.2676    2.0701    0.0000 C   0  0  0  0  0  0  0  0  0  0  0  0
    0.4469    0.0076    0.0000 C   0  0  0  0  0  0  0  0  0  0  0  0
    1.1613   -0.4049    0.0000 N   0  0  0  0  0  0  0  0  0  0  0  0
    1.1613   -1.2299    0.0000 C   0  0  0  0  0  0  0  0  0  0  0  0
    0.4469   -1.6424    0.0000 N   0  0  0  0  0  0  0  0  0  0  0  0
   -0.2676   -1.2299    0.0000 C   0  0  0  0  0  0  0  0  0  0  0  0
   -1.0522   -1.4848    0.0000 N   0  0  0  0  0  0  0  0  0  0  0  0
   -1.5372   -0.8174    0.0000 C   0  0  0  0  0  0  0  0  0  0  0  0
   -1.0522   -0.1499    0.0000 N   0  0  0  0  0  0  0  0  0  0  0  0
   -0.2676   -0.4049    0.0000 C   0  0  0  0  0  0  0  0  0  0  0  0
    2.7070    1.2761    0.0000 H   0  0  0  0  0  0  0  0  0  0  0  0
    0.8782    1.5985    0.0000 H   0  0  0  0  0  0  0  0  0  0  0  0
    1.4367    4.7662    0.0000 H   0  0  0  0  0  0  0  0  0  0  0  0
    3.2655    4.4436    0.0000 H   0  0  0  0  0  0  0  0  0  0  0  0
   -0.7316    2.1589    0.0000 H   0  0  0  0  0  0  0  0  0  0  0  0
   -1.4193    2.9786    0.0000 H   0  0  0  0  0  0  0  0  0  0  0  0
   -1.9497    3.6106    0.0000 H   0  0  0  0  0  0  0  0  0  0  0  0
   -1.5836    4.6161    0.0000 H   0  0  0  0  0  0  0  0  0  0  0  0
   -1.2693    5.3530    0.0000 H   0  0  0  0  0  0  0  0  0  0  0  0
    0.5646    5.7204    0.0000 H   0  0  0  0  0  0  0  0  0  0  0  0
    1.2524    4.9007    0.0000 H   0  0  0  0  0  0  0  0  0  0  0  0
    1.7827    4.2687    0.0000 H   0  0  0  0  0  0  0  0  0  0  0  0
    1.0949    5.0884    0.0000 H   0  0  0  0  0  0  0  0  0  0  0  0
    2.0550    2.5861    0.0000 H   0  0  0  0  0  0  0  0  0  0  0  0
    2.0550    0.7291    0.0000 H   0  0  0  0  0  0  0  0  0  0  0  0
   -1.1613    0.7291    0.0000 H   0  0  0  0  0  0  0  0  0  0  0  0
   -1.1613    2.5861    0.0000 H   0  0  0  0  0  0  0  0  0  0  0  0
    2.0550   -1.7459    0.0000 H   0  0  0  0  0  0  0  0  0  0  0  0
   -1.3564   -2.4211    0.0000 H   0  0  0  0  0  0  0  0  0  0  0  0
   -2.5692   -0.8174    0.0000 H   0  0  0  0  0  0  0  0  0  0  0  0
  1  2  1  0  0  0  0
  2  3  1  0  0  0  0
  2  7  2  0  0  0  0
  3  4  2  0  0  0  0
  3 29  1  0  0  0  0
  4  5  1  0  0  0  0
  4 30  1  0  0  0  0
  5  6  2  0  0  0  0
  5  8  1  0  0  0  0
  6  7  1  0  0  0  0
  6 31  1  0  0  0  0
  7 32  1  0  0  0  0
  8  9  1  0  0  0  0
  8 13  1  0  0  0  0
  8 14  1  0  0  0  0
  9 10  1  0  0  0  0
  9 33  1  0  0  0  0
  9 34  1  0  0  0  0
 10 11  1  0  0  0  0
 10 35  1  0  0  0  0
 10 36  1  0  0  0  0
 11 12  1  0  0  0  0
 11 37  1  0  0  0  0
 12 13  1  0  0  0  0
 12 38  1  0  0  0  0
 12 39  1  0  0  0  0
 13 40  1  0  0  0  0
 13 41  1  0  0  0  0
 14 15  1  0  0  0  0
 14 19  2  0  0  0  0
 15 16  2  0  0  0  0
 15 42  1  0  0  0  0
 16 17  1  0  0  0  0
 16 43  1  0  0  0  0
 17 18  2  0  0  0  0
 17 20  1  0  0  0  0
 18 19  1  0  0  0  0
 18 44  1  0  0  0  0
 19 45  1  0  0  0  0
 20 21  1  0  0  0  0
 20 28  2  0  0  0  0
 21 22  2  0  0  0  0
 22 23  1  0  0  0  0
 22 46  1  0  0  0  0
 23 24  2  0  0  0  0
 24 25  1  0  0  0  0
 24 28  1  0  0  0  0
 25 26  1  0  0  0  0
 25 47  1  0  0  0  0
 26 27  2  0  0  0  0
 26 48  1  0  0  0  0
 27 28  1  0  0  0  0
M  END
>  <DRUGBANK_ID>
DB07856

>  <COMMON_NAME>
6-{4-[4-(4-CHLOROPHENYL)PIPERIDIN-4-YL]PHENYL}-9H-PURINE

$$$$
