P83
 OpenBabel10282417072D

 36 38  0  0  0  0  0  0  0  0999 V2000
   65.9807   55.5840    0.0000 C   0  0  0  0  0  0  0  0  0  0  0  0
   65.4287   56.1971    0.0000 C   0  0  0  0  0  0  0  0  0  0  0  0
   65.6836   56.9817    0.0000 C   0  0  0  0  0  0  0  0  0  0  0  0
   66.4906   57.1532    0.0000 C   0  0  0  0  0  0  0  0  0  0  0  0
   67.0426   56.5401    0.0000 C   0  0  0  0  0  0  0  0  0  0  0  0
   67.8676   56.5401    0.0000 C   0  0  0  0  0  0  0  0  0  0  0  0
   68.4196   57.1532    0.0000 C   0  0  0  0  0  0  0  0  0  0  0  0
   69.2266   56.9817    0.0000 C   0  0  0  0  0  0  0  0  0  0  0  0
   69.4816   56.1971    0.0000 C   0  0  0  0  0  0  0  0  0  0  0  0
   68.9295   55.5840    0.0000 C   0  0  0  0  0  0  0  0  0  0  0  0
   68.1226   55.7555    0.0000 C   0  0  0  0  0  0  0  0  0  0  0  0
   67.4551   55.2706    0.0000 N   0  0  0  0  0  0  0  0  0  0  0  0
   66.7877   55.7555    0.0000 C   0  0  0  0  0  0  0  0  0  0  0  0
   67.4551   54.4456    0.0000 C   0  0  0  0  0  0  0  0  0  0  0  0
   66.7406   54.0331    0.0000 C   0  0  0  0  0  0  0  0  0  0  0  0
   65.1316   57.5948    0.0000 C   0  0  0  0  0  0  0  0  0  0  0  0
   65.3865   58.3794    0.0000 N   0  0  0  0  0  0  0  0  0  0  0  0
   64.8345   58.9925    0.0000 C   0  0  0  0  0  0  0  0  0  0  0  0
   65.6618   54.6025    0.0000 H   0  0  0  0  0  0  0  0  0  0  0  0
   64.4193   55.9825    0.0000 H   0  0  0  0  0  0  0  0  0  0  0  0
   66.8095   58.1347    0.0000 H   0  0  0  0  0  0  0  0  0  0  0  0
   68.1007   58.1347    0.0000 H   0  0  0  0  0  0  0  0  0  0  0  0
   69.9171   57.7487    0.0000 H   0  0  0  0  0  0  0  0  0  0  0  0
   70.4911   55.9825    0.0000 H   0  0  0  0  0  0  0  0  0  0  0  0
   69.2484   54.6025    0.0000 H   0  0  0  0  0  0  0  0  0  0  0  0
   68.3817   53.9106    0.0000 H   0  0  0  0  0  0  0  0  0  0  0  0
   67.4551   53.3756    0.0000 H   0  0  0  0  0  0  0  0  0  0  0  0
   65.8140   54.5681    0.0000 H   0  0  0  0  0  0  0  0  0  0  0  0
   66.7406   52.9631    0.0000 H   0  0  0  0  0  0  0  0  0  0  0  0
   65.8139   53.4981    0.0000 H   0  0  0  0  0  0  0  0  0  0  0  0
   64.0850   57.3723    0.0000 H   0  0  0  0  0  0  0  0  0  0  0  0
   64.4156   58.3900    0.0000 H   0  0  0  0  0  0  0  0  0  0  0  0
   66.3842   58.5915    0.0000 H   0  0  0  0  0  0  0  0  0  0  0  0
   65.1652   60.0101    0.0000 H   0  0  0  0  0  0  0  0  0  0  0  0
   63.7879   58.7701    0.0000 H   0  0  0  0  0  0  0  0  0  0  0  0
   64.1186   59.7877    0.0000 H   0  0  0  0  0  0  0  0  0  0  0  0
  1  2  1  0  0  0  0
  1 13  2  0  0  0  0
  1 19  1  0  0  0  0
  2  3  2  0  0  0  0
  2 20  1  0  0  0  0
  3  4  1  0  0  0  0
  3 16  1  0  0  0  0
  4  5  2  0  0  0  0
  4 21  1  0  0  0  0
  5  6  1  0  0  0  0
  5 13  1  0  0  0  0
  6  7  1  0  0  0  0
  6 11  2  0  0  0  0
  7  8  2  0  0  0  0
  7 22  1  0  0  0  0
  8  9  1  0  0  0  0
  8 23  1  0  0  0  0
  9 10  2  0  0  0  0
  9 24  1  0  0  0  0
 10 11  1  0  0  0  0
 10 25  1  0  0  0  0
 11 12  1  0  0  0  0
 12 13  1  0  0  0  0
 12 14  1  0  0  0  0
 14 15  1  0  0  0  0
 14 26  1  0  0  0  0
 14 27  1  0  0  0  0
 15 28  1  0  0  0  0
 15 29  1  0  0  0  0
 15 30  1  0  0  0  0
 16 17  1  0  0  0  0
 16 31  1  0  0  0  0
 16 32  1  0  0  0  0
 17 18  1  0  0  0  0
 17 33  1  0  0  0  0
 18 34  1  0  0  0  0
 18 35  1  0  0  0  0
 18 36  1  0  0  0  0
M  END
>  <DRUGBANK_ID>
DB08363

>  <COMMON_NAME>
1-(9-ethyl-9H-carbazol-3-yl)-N-methylmethanamine

$$$$
