
 OpenBabel10282417072D

  9  9  0  0  0  0  0  0  0  0999 V2000
   -0.4124   -0.5834    0.0000 C   0  0  0  0  0  0  0  0  0  0  0  0
   -0.9958    0.0000    0.0000 C   0  0  0  0  0  0  0  0  0  0  0  0
   -0.4124    0.5834    0.0000 O   0  0  0  0  0  0  0  0  0  0  0  0
    0.1709    0.0000    0.0000 C   0  0  0  0  0  0  0  0  0  0  0  0
    0.9958    0.0000    0.0000 O   0  0  0  0  0  0  0  0  0  0  0  0
   -0.4124   -1.6534    0.0000 H   0  0  0  0  0  0  0  0  0  0  0  0
    0.5762   -0.9928    0.0000 H   0  0  0  0  0  0  0  0  0  0  0  0
   -2.0658    0.0000    0.0000 H   0  0  0  0  0  0  0  0  0  0  0  0
   -1.4053    0.9886    0.0000 H   0  0  0  0  0  0  0  0  0  0  0  0
  1  2  1  0  0  0  0
  1  4  1  0  0  0  0
  1  6  1  0  0  0  0
  1  7  1  0  0  0  0
  2  3  1  0  0  0  0
  2  8  1  0  0  0  0
  2  9  1  0  0  0  0
  3  4  1  0  0  0  0
  4  5  2  0  0  0  0
M  END
>  <DRUGBANK_ID>
DB09348

>  <COMMON_NAME>
Propiolactone

>  <CAS_NUMBER>
57-57-8

>  <UNII>
6RC3ZT4HB0

>  <SYNONYMS>
1,3-propiolactone; 3-propanolide; beta-Propiolactone; betapron; Propiolactona; Propiolactone; Î²-propiolactone

$$$$
