DI5
 OpenBabel10282417072D

 61 62  0  0  0  0  0  0  0  0999 V2000
   -2.2309    0.4459    0.0000 B   0  0  0  0  0  0  0  0  0  0  0  0
   -2.2309   -0.3791    0.0000 C   0  0  2  0  0  0  0  0  0  0  0  0
   -2.9454   -0.7916    0.0000 C   0  0  0  0  0  0  0  0  0  0  0  0
   -3.6598   -0.3791    0.0000 C   0  0  0  0  0  0  0  0  0  0  0  0
   -4.3743   -0.7916    0.0000 C   0  0  0  0  0  0  0  0  0  0  0  0
   -0.8020   -0.3791    0.0000 C   0  0  0  0  0  0  0  0  0  0  0  0
   -0.0875   -0.7916    0.0000 C   0  0  2  0  0  0  0  0  0  0  0  0
   -0.0012   -1.6121    0.0000 C   0  0  0  0  0  0  0  0  0  0  0  0
    0.8057   -1.7836    0.0000 C   0  0  0  0  0  0  0  0  0  0  0  0
    1.2182   -1.0692    0.0000 C   0  0  0  0  0  0  0  0  0  0  0  0
    0.8377    0.3509    0.0000 C   0  0  0  0  0  0  0  0  0  0  0  0
    2.2354    0.0538    0.0000 C   0  0  0  0  0  0  0  0  0  0  0  0
    1.6223    0.6058    0.0000 C   0  0  1  0  0  0  0  0  0  0  0  0
    1.1808    1.9648    0.0000 C   0  0  0  0  0  0  0  0  0  0  0  0
    0.3961    1.7099    0.0000 C   0  0  0  0  0  0  0  0  0  0  0  0
    3.9762    1.3707    0.0000 C   0  0  0  0  0  0  0  0  0  0  0  0
    4.5893    0.8186    0.0000 C   0  0  0  0  0  0  0  0  0  0  0  0
    4.4178    0.0117    0.0000 C   0  0  0  0  0  0  0  0  0  0  0  0
    3.6331   -0.2433    0.0000 C   0  0  0  0  0  0  0  0  0  0  0  0
    3.0201    0.3087    0.0000 C   0  0  0  0  0  0  0  0  0  0  0  0
    3.1916    1.1157    0.0000 C   0  0  0  0  0  0  0  0  0  0  0  0
   -1.5164   -0.7916    0.0000 N   0  0  0  0  0  0  0  0  0  0  0  0
   -5.0888   -0.3791    0.0000 N   0  0  0  0  0  0  0  0  0  0  0  0
    0.6662   -0.4561    0.0000 N   0  0  0  0  0  0  0  0  0  0  0  0
    1.7939    1.4128    0.0000 N   0  0  0  0  0  0  0  0  0  0  0  0
   -1.5164    0.8584    0.0000 O   0  0  0  0  0  0  0  0  0  0  0  0
   -2.9454    0.8584    0.0000 O   0  0  0  0  0  0  0  0  0  0  0  0
   -0.8020    0.4459    0.0000 O   0  0  0  0  0  0  0  0  0  0  0  0
    0.2246    0.9029    0.0000 O   0  0  0  0  0  0  0  0  0  0  0  0
    1.3523    2.7718    0.0000 O   0  0  0  0  0  0  0  0  0  0  0  0
   -2.7366   -0.0872    0.0000 H   0  0  0  0  0  0  0  0  0  0  0  0
   -0.5772   -1.1097    0.0000 H   0  0  0  0  0  0  0  0  0  0  0  0
    1.5009    0.0347    0.0000 H   0  0  0  0  0  0  0  0  0  0  0  0
   -2.9454   -1.8616    0.0000 H   0  0  0  0  0  0  0  0  0  0  0  0
   -3.8721   -1.3266    0.0000 H   0  0  0  0  0  0  0  0  0  0  0  0
   -3.6598    0.6909    0.0000 H   0  0  0  0  0  0  0  0  0  0  0  0
   -4.5864    0.1559    0.0000 H   0  0  0  0  0  0  0  0  0  0  0  0
   -4.3743   -1.8616    0.0000 H   0  0  0  0  0  0  0  0  0  0  0  0
   -5.3009   -1.3266    0.0000 H   0  0  0  0  0  0  0  0  0  0  0  0
   -0.7963   -2.3281    0.0000 H   0  0  0  0  0  0  0  0  0  0  0  0
    0.2758   -2.6456    0.0000 H   0  0  0  0  0  0  0  0  0  0  0  0
    1.2409   -2.7611    0.0000 H   0  0  0  0  0  0  0  0  0  0  0  0
    1.8742   -1.8396    0.0000 H   0  0  0  0  0  0  0  0  0  0  0  0
    2.2823   -0.9574    0.0000 H   0  0  0  0  0  0  0  0  0  0  0  0
    1.6017   -0.0703    0.0000 H   0  0  0  0  0  0  0  0  0  0  0  0
    2.0129   -0.9928    0.0000 H   0  0  0  0  0  0  0  0  0  0  0  0
    3.0305   -0.6622    0.0000 H   0  0  0  0  0  0  0  0  0  0  0  0
   -0.3990    2.4259    0.0000 H   0  0  0  0  0  0  0  0  0  0  0  0
    0.1736    0.6633    0.0000 H   0  0  0  0  0  0  0  0  0  0  0  0
   -0.6216    1.3793    0.0000 H   0  0  0  0  0  0  0  0  0  0  0  0
    4.1908    2.3802    0.0000 H   0  0  0  0  0  0  0  0  0  0  0  0
    5.5708    1.1375    0.0000 H   0  0  0  0  0  0  0  0  0  0  0  0
    5.1847   -0.6788    0.0000 H   0  0  0  0  0  0  0  0  0  0  0  0
    3.4185   -1.2527    0.0000 H   0  0  0  0  0  0  0  0  0  0  0  0
    2.4246    1.8062    0.0000 H   0  0  0  0  0  0  0  0  0  0  0  0
   -1.5164   -1.7761    0.0000 H   0  0  0  0  0  0  0  0  0  0  0  0
   -5.0888    0.6409    0.0000 H   0  0  0  0  0  0  0  0  0  0  0  0
   -5.9721   -0.8891    0.0000 H   0  0  0  0  0  0  0  0  0  0  0  0
    2.7302    1.7170    0.0000 H   0  0  0  0  0  0  0  0  0  0  0  0
   -0.6764    0.3734    0.0000 H   0  0  0  0  0  0  0  0  0  0  0  0
   -2.9454    1.8284    0.0000 H   0  0  0  0  0  0  0  0  0  0  0  0
  1 26  1  0  0  0  0
  1 27  1  0  0  0  0
  2  1  1  0  0  0  0
  2  3  1  0  0  0  0
  2 22  1  0  0  0  0
  2 31  1  6  0  0  0
  3  4  1  0  0  0  0
  3 34  1  0  0  0  0
  3 35  1  0  0  0  0
  4  5  1  0  0  0  0
  4 36  1  0  0  0  0
  4 37  1  0  0  0  0
  5 23  1  0  0  0  0
  5 38  1  0  0  0  0
  5 39  1  0  0  0  0
  6 22  1  0  0  0  0
  6 28  2  0  0  0  0
  7  6  1  0  0  0  0
  7  8  1  0  0  0  0
  7 24  1  0  0  0  0
  7 32  1  6  0  0  0
  8  9  1  0  0  0  0
  8 40  1  0  0  0  0
  8 41  1  0  0  0  0
  9 10  1  0  0  0  0
  9 42  1  0  0  0  0
  9 43  1  0  0  0  0
 10 24  1  0  0  0  0
 10 44  1  0  0  0  0
 10 45  1  0  0  0  0
 11 13  1  0  0  0  0
 11 24  1  0  0  0  0
 11 29  2  0  0  0  0
 12 13  1  0  0  0  0
 12 20  1  0  0  0  0
 12 46  1  0  0  0  0
 12 47  1  0  0  0  0
 13 25  1  0  0  0  0
 13 33  1  1  0  0  0
 14 15  1  0  0  0  0
 14 25  1  0  0  0  0
 14 30  2  0  0  0  0
 15 48  1  0  0  0  0
 15 49  1  0  0  0  0
 15 50  1  0  0  0  0
 16 17  2  0  0  0  0
 16 21  1  0  0  0  0
 16 51  1  0  0  0  0
 17 18  1  0  0  0  0
 17 52  1  0  0  0  0
 18 19  2  0  0  0  0
 18 53  1  0  0  0  0
 19 20  1  0  0  0  0
 19 54  1  0  0  0  0
 20 21  2  0  0  0  0
 21 55  1  0  0  0  0
 22 56  1  0  0  0  0
 23 57  1  0  0  0  0
 23 58  1  0  0  0  0
 25 59  1  0  0  0  0
 26 60  1  0  0  0  0
 27 61  1  0  0  0  0
M  END
>  <DRUGBANK_ID>
DB07660

>  <COMMON_NAME>
AC-(D)PHE-PRO-BOROHOMOORNITHINE-OH

$$$$
