
 OpenBabel10282417072D

 57 59  0  0  0  0  0  0  0  0999 V2000
    3.6939   -0.0923    0.0000 O   0  0  0  0  0  0  0  0  0  0  0  0
    2.9659   -0.4762    0.0000 O   0  0  0  0  0  0  0  0  0  0  0  0
   -2.7499   -1.3013    0.0000 O   0  0  0  0  0  0  0  0  0  0  0  0
   -5.6079   -0.4762    0.0000 O   0  0  0  0  0  0  0  0  0  0  0  0
   -4.8934    0.7612    0.0000 O   0  0  0  0  0  0  0  0  0  0  0  0
   -5.6079   -2.9513    0.0000 O   0  0  0  0  0  0  0  0  0  0  0  0
   -4.1789   -2.9513    0.0000 O   0  0  0  0  0  0  0  0  0  0  0  0
    2.2514    0.7612    0.0000 N   0  0  0  0  0  0  0  0  0  0  0  0
    2.2514    2.4113    0.0000 N   0  0  0  0  0  0  0  0  0  0  0  0
    0.1079    1.1737    0.0000 N   0  0  0  0  0  0  0  0  0  0  0  0
    3.7035    2.4399    0.0000 N   0  0  0  0  0  0  0  0  0  0  0  0
    4.4510    1.1566    0.0000 N   0  0  0  0  0  0  0  0  0  0  0  0
   -3.4644   -0.0637    0.0000 N   0  0  0  0  0  0  0  0  0  0  0  0
    5.1639    2.4311    0.0000 N   0  0  0  0  0  0  0  0  0  0  0  0
    1.5370    1.1737    0.0000 C   0  0  1  0  0  0  0  0  0  0  0  0
    1.5370    1.9987    0.0000 C   0  0  0  0  0  0  0  0  0  0  0  0
    0.8225    0.7612    0.0000 C   0  0  0  0  0  0  0  0  0  0  0  0
    2.9659    1.1737    0.0000 C   0  0  0  0  0  0  0  0  0  0  0  0
    2.9659    1.9987    0.0000 C   0  0  0  0  0  0  0  0  0  0  0  0
    3.7035    0.7326    0.0000 C   0  0  0  0  0  0  0  0  0  0  0  0
    2.2514   -0.0637    0.0000 C   0  0  0  0  0  0  0  0  0  0  0  0
   -0.6064    0.7612    0.0000 C   0  0  0  0  0  0  0  0  0  0  0  0
    4.4510    2.0159    0.0000 C   0  0  0  0  0  0  0  0  0  0  0  0
   -1.3209    1.1737    0.0000 C   0  0  0  0  0  0  0  0  0  0  0  0
   -0.6064   -0.0637    0.0000 C   0  0  0  0  0  0  0  0  0  0  0  0
   -4.1789   -0.4762    0.0000 C   0  0  1  0  0  0  0  0  0  0  0  0
   -4.1789   -1.3013    0.0000 C   0  0  0  0  0  0  0  0  0  0  0  0
   -2.0354   -0.0637    0.0000 C   0  0  0  0  0  0  0  0  0  0  0  0
   -2.0354    0.7612    0.0000 C   0  0  0  0  0  0  0  0  0  0  0  0
   -1.3209   -0.4762    0.0000 C   0  0  0  0  0  0  0  0  0  0  0  0
   -2.7499   -0.4762    0.0000 C   0  0  0  0  0  0  0  0  0  0  0  0
   -4.8934   -1.7138    0.0000 C   0  0  0  0  0  0  0  0  0  0  0  0
   -4.8934   -0.0637    0.0000 C   0  0  0  0  0  0  0  0  0  0  0  0
   -4.8934   -2.5388    0.0000 C   0  0  0  0  0  0  0  0  0  0  0  0
    2.2514    2.9228    0.0000 H   0  0  0  0  0  0  0  0  0  0  0  0
    0.1079    1.6852    0.0000 H   0  0  0  0  0  0  0  0  0  0  0  0
    3.6976    2.9513    0.0000 H   0  0  0  0  0  0  0  0  0  0  0  0
   -3.4644    0.4477    0.0000 H   0  0  0  0  0  0  0  0  0  0  0  0
    5.1620    2.9427    0.0000 H   0  0  0  0  0  0  0  0  0  0  0  0
    5.6079    2.1771    0.0000 H   0  0  0  0  0  0  0  0  0  0  0  0
   -6.4194   -0.0077    0.0000 H   0  0  0  0  0  0  0  0  0  0  0  0
   -6.4194   -2.4828    0.0000 H   0  0  0  0  0  0  0  0  0  0  0  0
    1.5370    0.1037    0.0000 H   0  0  0  0  0  0  0  0  0  0  0  0
    0.6103    2.5336    0.0000 H   0  0  0  0  0  0  0  0  0  0  0  0
    0.6104    1.4637    0.0000 H   0  0  0  0  0  0  0  0  0  0  0  0
    0.8225   -0.3088    0.0000 H   0  0  0  0  0  0  0  0  0  0  0  0
    1.7492    0.2262    0.0000 H   0  0  0  0  0  0  0  0  0  0  0  0
    1.3577   -0.5797    0.0000 H   0  0  0  0  0  0  0  0  0  0  0  0
   -1.3209    2.2057    0.0000 H   0  0  0  0  0  0  0  0  0  0  0  0
    0.2873   -0.5797    0.0000 H   0  0  0  0  0  0  0  0  0  0  0  0
   -3.2523   -1.0112    0.0000 H   0  0  0  0  0  0  0  0  0  0  0  0
   -3.2523   -1.8363    0.0000 H   0  0  0  0  0  0  0  0  0  0  0  0
   -4.1789   -2.3713    0.0000 H   0  0  0  0  0  0  0  0  0  0  0  0
   -2.9291    1.2772    0.0000 H   0  0  0  0  0  0  0  0  0  0  0  0
   -1.3209   -1.5082    0.0000 H   0  0  0  0  0  0  0  0  0  0  0  0
   -5.8200   -1.1788    0.0000 H   0  0  0  0  0  0  0  0  0  0  0  0
   -5.8200   -2.2488    0.0000 H   0  0  0  0  0  0  0  0  0  0  0  0
  1 20  2  0  0  0  0
  2 21  2  0  0  0  0
  3 31  2  0  0  0  0
  4 33  1  0  0  0  0
  4 41  1  0  0  0  0
  5 33  2  0  0  0  0
  6 34  1  0  0  0  0
  6 42  1  0  0  0  0
  7 34  2  0  0  0  0
  8 15  1  0  0  0  0
  8 18  1  0  0  0  0
  8 21  1  0  0  0  0
  9 16  1  0  0  0  0
  9 19  1  0  0  0  0
  9 35  1  0  0  0  0
 10 17  1  0  0  0  0
 10 22  1  0  0  0  0
 10 36  1  0  0  0  0
 11 19  1  0  0  0  0
 11 23  1  0  0  0  0
 11 37  1  0  0  0  0
 12 20  1  0  0  0  0
 12 23  2  0  0  0  0
 13 31  1  0  0  0  0
 13 38  1  0  0  0  0
 14 23  1  0  0  0  0
 14 39  1  0  0  0  0
 14 40  1  0  0  0  0
 15 16  1  0  0  0  0
 15 17  1  0  0  0  0
 15 43  1  1  0  0  0
 16 44  1  0  0  0  0
 16 45  1  0  0  0  0
 17 46  1  0  0  0  0
 17 47  1  0  0  0  0
 18 19  2  0  0  0  0
 18 20  1  0  0  0  0
 21 48  1  0  0  0  0
 22 24  2  0  0  0  0
 22 25  1  0  0  0  0
 24 29  1  0  0  0  0
 24 49  1  0  0  0  0
 25 30  2  0  0  0  0
 25 50  1  0  0  0  0
 26 13  1  0  0  0  0
 26 27  1  0  0  0  0
 26 33  1  0  0  0  0
 26 51  1  6  0  0  0
 27 32  1  0  0  0  0
 27 52  1  0  0  0  0
 27 53  1  0  0  0  0
 28 29  2  0  0  0  0
 28 30  1  0  0  0  0
 28 31  1  0  0  0  0
 29 54  1  0  0  0  0
 30 55  1  0  0  0  0
 32 34  1  0  0  0  0
 32 56  1  0  0  0  0
 32 57  1  0  0  0  0
M  END
>  <DRUGBANK_ID>
DB03256

>  <SECONDARY_ACCESSION_NUMBERS>
EXPT01470

>  <COMMON_NAME>
(6R)-Folinic acid

>  <CAS_NUMBER>
73951-54-9

>  <SYNONYMS>
(6R,2'S)-Folinic acid; (6R)-Leucovorin; [6R]-5-formyl-5,6,7,8-tetrahydrofolate ; 6R-Leucovorin; Dextrofolinic acid; L-Glutamic acid, N-[4-[[[(6R)-2-amino-5-formyl-3,4,5,6,7,8-hexahydro-4-oxo-6-pteridinyl]methyl]amino]benzoyl]-; N-{[4-({[(6R)-2-amino-5-formyl-4-oxo-1,4,5,6,7,8-hexahydropteridin-6-yl]methyl}amino)phenyl]carbonyl}-L-glutamic acid

$$$$
