
 OpenBabel10282417072D

178187  0  0  1  0  0  0  0  0999 V2000
    4.8269   -1.0671    0.0000 H   0  0  0  0  0  0  0  0  0  0  0  0
    5.0030   -1.8731    0.0000 C   0  0  1  0  0  0  0  0  0  0  0  0
    5.7151   -1.4566    0.0000 C   0  0  0  0  0  0  0  0  0  0  0  0
    6.3313   -2.0052    0.0000 C   0  0  1  0  0  0  0  0  0  0  0  0
    6.8200   -2.6699    0.0000 H   0  0  0  0  0  0  0  0  0  0  0  0
    7.1513   -1.9143    0.0000 C   0  0  2  0  0  0  0  0  0  0  0  0
    6.6626   -1.2496    0.0000 H   0  0  0  0  0  0  0  0  0  0  0  0
    7.4826   -1.1588    0.0000 C   0  0  0  0  0  0  0  0  0  0  0  0
    8.3026   -1.0679    0.0000 C   0  0  0  0  0  0  0  0  0  0  0  0
    8.7913   -1.7326    0.0000 C   0  0  1  0  0  0  0  0  0  0  0  0
    9.2799   -2.3973    0.0000 H   0  0  0  0  0  0  0  0  0  0  0  0
    9.6112   -1.6417    0.0000 C   0  0  0  0  0  0  0  0  0  0  0  0
   10.0999   -2.3064    0.0000 C   0  0  2  0  0  0  0  0  0  0  0  0
    9.7686   -3.0620    0.0000 C   0  0  0  0  0  0  0  0  0  0  0  0
    8.9486   -3.1529    0.0000 C   0  0  0  0  0  0  0  0  0  0  0  0
    8.4600   -2.4882    0.0000 C   0  0  1  0  0  0  0  0  0  0  0  0
    8.1286   -3.2437    0.0000 C   0  0  0  0  0  0  0  0  0  0  0  0
    7.6400   -2.5790    0.0000 C   0  0  1  0  0  0  0  0  0  0  0  0
    7.9713   -1.8235    0.0000 H   0  0  0  0  0  0  0  0  0  0  0  0
    7.3087   -3.3346    0.0000 C   0  0  0  0  0  0  0  0  0  0  0  0
    6.4887   -3.4254    0.0000 C   0  0  0  0  0  0  0  0  0  0  0  0
    6.0000   -2.7607    0.0000 C   0  0  1  0  0  0  0  0  0  0  0  0
    5.5915   -3.4775    0.0000 C   0  0  0  0  0  0  0  0  0  0  0  0
    5.1791   -2.6791    0.0000 C   0  0  1  0  0  0  0  0  0  0  0  0
    4.4235   -2.3478    0.0000 H   0  0  0  0  0  0  0  0  0  0  0  0
    4.4669   -3.0956    0.0000 C   0  0  2  0  0  0  0  0  0  0  0  0
    4.3853   -3.9166    0.0000 C   0  0  0  0  0  0  0  0  0  0  0  0
    3.8507   -2.5471    0.0000 C   0  0  1  0  0  0  0  0  0  0  0  0
    3.3696   -3.2172    0.0000 O   0  0  0  0  0  0  0  0  0  0  0  0
    3.1339   -2.1386    0.0000 C   0  0  0  0  0  0  0  0  0  0  0  0
    2.4218   -2.5551    0.0000 C   0  0  0  0  0  0  0  0  0  0  0  0
    1.7050   -2.1467    0.0000 C   0  0  1  0  0  0  0  0  0  0  0  0
    1.7004   -1.3217    0.0000 C   0  0  0  0  0  0  0  0  0  0  0  0
    0.9929   -2.5632    0.0000 C   0  0  0  0  0  0  0  0  0  0  0  0
    0.2761   -2.1547    0.0000 O   0  0  0  0  0  0  0  0  0  0  0  0
   -0.4360   -2.5712    0.0000 C   0  0  2  0  0  0  0  0  0  0  0  0
   -0.4314   -3.3962    0.0000 O   0  0  0  0  0  0  0  0  0  0  0  0
   -1.1435   -3.8127    0.0000 C   0  0  2  0  0  0  0  0  0  0  0  0
   -1.1389   -4.6377    0.0000 C   0  0  0  0  0  0  0  0  0  0  0  0
   -1.8510   -5.0542    0.0000 O   0  0  0  0  0  0  0  0  0  0  0  0
   -1.8603   -3.4043    0.0000 C   0  0  1  0  0  0  0  0  0  0  0  0
   -2.5724   -3.8208    0.0000 O   0  0  0  0  0  0  0  0  0  0  0  0
   -1.8650   -2.5793    0.0000 C   0  0  2  0  0  0  0  0  0  0  0  0
   -2.5817   -2.1708    0.0000 O   0  0  0  0  0  0  0  0  0  0  0  0
   -1.1528   -2.1628    0.0000 C   0  0  1  0  0  0  0  0  0  0  0  0
   -1.1575   -1.3378    0.0000 O   0  0  0  0  0  0  0  0  0  0  0  0
    4.1820   -1.7915    0.0000 O   0  0  0  0  0  0  0  0  0  0  0  0
   10.9199   -2.2156    0.0000 O   0  0  0  0  0  0  0  0  0  0  0  0
   11.4086   -2.8803    0.0000 C   0  0  2  0  0  0  0  0  0  0  0  0
   11.7399   -2.1247    0.0000 H   0  0  0  0  0  0  0  0  0  0  0  0
   11.0773   -3.6358    0.0000 O   0  0  0  0  0  0  0  0  0  0  0  0
   11.5659   -4.3005    0.0000 C   0  0  2  0  0  0  0  0  0  0  0  0
   11.2346   -5.0561    0.0000 C   0  0  0  0  0  0  0  0  0  0  0  0
   10.4147   -5.1469    0.0000 O   0  0  0  0  0  0  0  0  0  0  0  0
   12.3859   -4.2097    0.0000 C   0  0  2  0  0  0  0  0  0  0  0  0
   12.8746   -4.8744    0.0000 O   0  0  0  0  0  0  0  0  0  0  0  0
   13.6946   -4.7835    0.0000 C   0  0  2  0  0  0  0  0  0  0  0  0
   13.3633   -5.5391    0.0000 H   0  0  0  0  0  0  0  0  0  0  0  0
   14.0259   -4.0279    0.0000 O   0  0  0  0  0  0  0  0  0  0  0  0
   14.8459   -3.9371    0.0000 C   0  0  2  0  0  0  0  0  0  0  0  0
   15.1772   -3.1815    0.0000 C   0  0  0  0  0  0  0  0  0  0  0  0
   15.9972   -3.0907    0.0000 O   0  0  0  0  0  0  0  0  0  0  0  0
   15.3345   -4.6018    0.0000 C   0  0  1  0  0  0  0  0  0  0  0  0
   16.1545   -4.5109    0.0000 O   0  0  0  0  0  0  0  0  0  0  0  0
   15.0032   -5.3573    0.0000 C   0  0  2  0  0  0  0  0  0  0  0  0
   15.4919   -6.0220    0.0000 O   0  0  0  0  0  0  0  0  0  0  0  0
   16.3119   -5.9312    0.0000 C   0  0  2  0  0  0  0  0  0  0  0  0
   15.8232   -5.2665    0.0000 H   0  0  0  0  0  0  0  0  0  0  0  0
   16.8006   -6.5959    0.0000 O   0  0  0  0  0  0  0  0  0  0  0  0
   17.6206   -6.5050    0.0000 C   0  0  0  0  0  0  0  0  0  0  0  0
   17.9519   -5.7495    0.0000 C   0  0  1  0  0  0  0  0  0  0  0  0
   18.7718   -5.6586    0.0000 O   0  0  0  0  0  0  0  0  0  0  0  0
   17.4632   -5.0848    0.0000 C   0  0  2  0  0  0  0  0  0  0  0  0
   17.7945   -4.3292    0.0000 O   0  0  0  0  0  0  0  0  0  0  0  0
   16.6432   -5.1756    0.0000 C   0  0  1  0  0  0  0  0  0  0  0  0
   16.6386   -4.3506    0.0000 O   0  0  0  0  0  0  0  0  0  0  0  0
   14.1833   -5.4482    0.0000 C   0  0  1  0  0  0  0  0  0  0  0  0
   13.8520   -6.2038    0.0000 O   0  0  0  0  0  0  0  0  0  0  0  0
   14.3406   -6.8684    0.0000 C   0  0  2  0  0  0  0  0  0  0  0  0
   13.5207   -6.9593    0.0000 H   0  0  0  0  0  0  0  0  0  0  0  0
   15.1606   -6.7776    0.0000 O   0  0  0  0  0  0  0  0  0  0  0  0
   15.6493   -7.4423    0.0000 C   0  0  2  0  0  0  0  0  0  0  0  0
   16.4693   -7.3514    0.0000 C   0  0  0  0  0  0  0  0  0  0  0  0
   16.9580   -8.0161    0.0000 O   0  0  0  0  0  0  0  0  0  0  0  0
   15.3180   -8.1978    0.0000 C   0  0  1  0  0  0  0  0  0  0  0  0
   15.8067   -8.8625    0.0000 O   0  0  0  0  0  0  0  0  0  0  0  0
   14.4980   -8.2887    0.0000 C   0  0  2  0  0  0  0  0  0  0  0  0
   14.1667   -9.0443    0.0000 O   0  0  0  0  0  0  0  0  0  0  0  0
   14.0093   -7.6240    0.0000 C   0  0  1  0  0  0  0  0  0  0  0  0
   13.1893   -7.7149    0.0000 O   0  0  0  0  0  0  0  0  0  0  0  0
   12.7172   -3.4541    0.0000 C   0  0  2  0  0  0  0  0  0  0  0  0
   13.5372   -3.3633    0.0000 O   0  0  0  0  0  0  0  0  0  0  0  0
   12.2286   -2.7894    0.0000 C   0  0  1  0  0  0  0  0  0  0  0  0
   12.5599   -2.0339    0.0000 O   0  0  0  0  0  0  0  0  0  0  0  0
    5.8210   -0.3918    0.0000 H   0  0  0  0  0  0  0  0  0  0  0  0
    6.7119   -1.0675    0.0000 H   0  0  0  0  0  0  0  0  0  0  0  0
    6.8488   -0.2967    0.0000 H   0  0  0  0  0  0  0  0  0  0  0  0
    7.9123   -0.1789    0.0000 H   0  0  0  0  0  0  0  0  0  0  0  0
    8.7323   -0.0880    0.0000 H   0  0  0  0  0  0  0  0  0  0  0  0
    9.3661   -0.9500    0.0000 H   0  0  0  0  0  0  0  0  0  0  0  0
   10.0409   -0.6618    0.0000 H   0  0  0  0  0  0  0  0  0  0  0  0
   10.6747   -1.5238    0.0000 H   0  0  0  0  0  0  0  0  0  0  0  0
   10.5296   -1.3265    0.0000 H   0  0  0  0  0  0  0  0  0  0  0  0
   10.4024   -3.9241    0.0000 H   0  0  0  0  0  0  0  0  0  0  0  0
    9.3389   -4.0419    0.0000 H   0  0  0  0  0  0  0  0  0  0  0  0
    8.5189   -4.1328    0.0000 H   0  0  0  0  0  0  0  0  0  0  0  0
    7.8851   -3.2707    0.0000 H   0  0  0  0  0  0  0  0  0  0  0  0
    7.0651   -3.3614    0.0000 H   0  0  0  0  0  0  0  0  0  0  0  0
    8.7623   -4.1059    0.0000 H   0  0  0  0  0  0  0  0  0  0  0  0
    7.6988   -4.2236    0.0000 H   0  0  0  0  0  0  0  0  0  0  0  0
    7.9425   -4.1967    0.0000 H   0  0  0  0  0  0  0  0  0  0  0  0
    6.8790   -4.3145    0.0000 H   0  0  0  0  0  0  0  0  0  0  0  0
    6.0590   -4.4053    0.0000 H   0  0  0  0  0  0  0  0  0  0  0  0
    5.4252   -3.5432    0.0000 H   0  0  0  0  0  0  0  0  0  0  0  0
    4.5215   -3.4835    0.0000 H   0  0  0  0  0  0  0  0  0  0  0  0
    6.1317   -4.4011    0.0000 H   0  0  0  0  0  0  0  0  0  0  0  0
    5.0617   -4.4071    0.0000 H   0  0  0  0  0  0  0  0  0  0  0  0
    5.3675   -3.6733    0.0000 H   0  0  0  0  0  0  0  0  0  0  0  0
    3.4103   -4.3573    0.0000 H   0  0  0  0  0  0  0  0  0  0  0  0
    5.2545   -4.5406    0.0000 H   0  0  0  0  0  0  0  0  0  0  0  0
    4.2795   -4.9814    0.0000 H   0  0  0  0  0  0  0  0  0  0  0  0
    2.4044   -3.1213    0.0000 H   0  0  0  0  0  0  0  0  0  0  0  0
    3.1279   -1.0686    0.0000 H   0  0  0  0  0  0  0  0  0  0  0  0
    2.2043   -1.6088    0.0000 H   0  0  0  0  0  0  0  0  0  0  0  0
    2.4279   -3.6251    0.0000 H   0  0  0  0  0  0  0  0  0  0  0  0
    1.4982   -3.0954    0.0000 H   0  0  0  0  0  0  0  0  0  0  0  0
    2.6286   -1.6065    0.0000 H   0  0  0  0  0  0  0  0  0  0  0  0
    2.6240   -0.7815    0.0000 H   0  0  0  0  0  0  0  0  0  0  0  0
    0.7708   -0.7919    0.0000 H   0  0  0  0  0  0  0  0  0  0  0  0
    1.6944   -0.2517    0.0000 H   0  0  0  0  0  0  0  0  0  0  0  0
    0.9989   -3.6332    0.0000 H   0  0  0  0  0  0  0  0  0  0  0  0
    0.0693   -3.1034    0.0000 H   0  0  0  0  0  0  0  0  0  0  0  0
    0.4936   -3.1010    0.0000 H   0  0  0  0  0  0  0  0  0  0  0  0
   -0.2139   -4.3425    0.0000 H   0  0  0  0  0  0  0  0  0  0  0  0
   -0.2093   -5.1675    0.0000 H   0  0  0  0  0  0  0  0  0  0  0  0
   -1.1329   -5.7077    0.0000 H   0  0  0  0  0  0  0  0  0  0  0  0
   -2.6938   -4.5739    0.0000 H   0  0  0  0  0  0  0  0  0  0  0  0
   -1.8542   -4.4743    0.0000 H   0  0  0  0  0  0  0  0  0  0  0  0
   -3.4152   -3.3405    0.0000 H   0  0  0  0  0  0  0  0  0  0  0  0
   -2.7886   -3.1195    0.0000 H   0  0  0  0  0  0  0  0  0  0  0  0
   -2.5871   -1.2008    0.0000 H   0  0  0  0  0  0  0  0  0  0  0  0
   -2.0824   -1.6330    0.0000 H   0  0  0  0  0  0  0  0  0  0  0  0
   -0.3202   -0.8480    0.0000 H   0  0  0  0  0  0  0  0  0  0  0  0
   10.5024   -4.4183    0.0000 H   0  0  0  0  0  0  0  0  0  0  0  0
   11.8684   -5.9182    0.0000 H   0  0  0  0  0  0  0  0  0  0  0  0
   10.8049   -6.0360    0.0000 H   0  0  0  0  0  0  0  0  0  0  0  0
    9.8402   -4.3653    0.0000 H   0  0  0  0  0  0  0  0  0  0  0  0
   11.9562   -5.1896    0.0000 H   0  0  0  0  0  0  0  0  0  0  0  0
   14.2121   -3.0750    0.0000 H   0  0  0  0  0  0  0  0  0  0  0  0
   14.5434   -2.3194    0.0000 H   0  0  0  0  0  0  0  0  0  0  0  0
   15.6069   -2.2016    0.0000 H   0  0  0  0  0  0  0  0  0  0  0  0
   16.5717   -3.8723    0.0000 H   0  0  0  0  0  0  0  0  0  0  0  0
   15.7642   -3.6219    0.0000 H   0  0  0  0  0  0  0  0  0  0  0  0
   16.7291   -5.2924    0.0000 H   0  0  0  0  0  0  0  0  0  0  0  0
   16.0667   -5.2395    0.0000 H   0  0  0  0  0  0  0  0  0  0  0  0
   18.2544   -7.3671    0.0000 H   0  0  0  0  0  0  0  0  0  0  0  0
   18.6841   -6.3872    0.0000 H   0  0  0  0  0  0  0  0  0  0  0  0
   18.5857   -6.6116    0.0000 H   0  0  0  0  0  0  0  0  0  0  0  0
   19.3464   -6.4401    0.0000 H   0  0  0  0  0  0  0  0  0  0  0  0
   18.5267   -4.9669    0.0000 H   0  0  0  0  0  0  0  0  0  0  0  0
   18.7586   -4.2223    0.0000 H   0  0  0  0  0  0  0  0  0  0  0  0
   17.3547   -4.3765    0.0000 H   0  0  0  0  0  0  0  0  0  0  0  0
   17.4759   -3.8609    0.0000 H   0  0  0  0  0  0  0  0  0  0  0  0
   14.8171   -6.3103    0.0000 H   0  0  0  0  0  0  0  0  0  0  0  0
   16.0790   -6.4624    0.0000 H   0  0  0  0  0  0  0  0  0  0  0  0
   16.8990   -6.3715    0.0000 H   0  0  0  0  0  0  0  0  0  0  0  0
   17.5328   -7.2335    0.0000 H   0  0  0  0  0  0  0  0  0  0  0  0
   16.5685   -8.9045    0.0000 H   0  0  0  0  0  0  0  0  0  0  0  0
   16.3815   -8.0800    0.0000 H   0  0  0  0  0  0  0  0  0  0  0  0
   15.4172   -9.7509    0.0000 H   0  0  0  0  0  0  0  0  0  0  0  0
   15.1318   -9.1508    0.0000 H   0  0  0  0  0  0  0  0  0  0  0  0
   13.2026   -9.1512    0.0000 H   0  0  0  0  0  0  0  0  0  0  0  0
   13.5796   -8.6039    0.0000 H   0  0  0  0  0  0  0  0  0  0  0  0
   12.6147   -6.9334    0.0000 H   0  0  0  0  0  0  0  0  0  0  0  0
   13.3510   -4.3162    0.0000 H   0  0  0  0  0  0  0  0  0  0  0  0
   14.1117   -4.1449    0.0000 H   0  0  0  0  0  0  0  0  0  0  0  0
   13.2921   -2.6716    0.0000 H   0  0  0  0  0  0  0  0  0  0  0  0
   13.5240   -1.9271    0.0000 H   0  0  0  0  0  0  0  0  0  0  0  0
  2  1  1  6  0  0  0
  2  3  1  0  0  0  0
  2 47  1  0  0  0  0
  3 95  1  0  0  0  0
  3 96  1  0  0  0  0
  4  3  1  0  0  0  0
  4  5  1  6  0  0  0
  4  6  1  0  0  0  0
  6  7  1  1  0  0  0
  6  8  1  0  0  0  0
  6 18  1  0  0  0  0
  8  9  1  0  0  0  0
  8 97  1  0  0  0  0
  8 98  1  0  0  0  0
  9 99  1  0  0  0  0
  9100  1  0  0  0  0
 10  9  1  0  0  0  0
 10 11  1  6  0  0  0
 10 12  1  0  0  0  0
 12101  1  0  0  0  0
 12102  1  0  0  0  0
 13 12  1  0  0  0  0
 13 14  1  0  0  0  0
 13 48  1  0  0  0  0
 13103  1  6  0  0  0
 14 15  1  0  0  0  0
 14104  1  0  0  0  0
 14105  1  0  0  0  0
 15106  1  0  0  0  0
 15107  1  0  0  0  0
 16 15  1  0  0  0  0
 16 10  1  0  0  0  0
 16 17  1  1  0  0  0
 17108  1  0  0  0  0
 17109  1  0  0  0  0
 17110  1  0  0  0  0
 18 16  1  0  0  0  0
 18 19  1  6  0  0  0
 18 20  1  0  0  0  0
 20 21  1  0  0  0  0
 20111  1  0  0  0  0
 20112  1  0  0  0  0
 21113  1  0  0  0  0
 21114  1  0  0  0  0
 22 21  1  0  0  0  0
 22  4  1  0  0  0  0
 22 23  1  1  0  0  0
 23115  1  0  0  0  0
 23116  1  0  0  0  0
 23117  1  0  0  0  0
 24 22  1  0  0  0  0
 24  2  1  0  0  0  0
 24 25  1  6  0  0  0
 24 26  1  0  0  0  0
 26 27  1  0  0  0  0
 26 28  1  0  0  0  0
 26118  1  1  0  0  0
 27119  1  0  0  0  0
 27120  1  0  0  0  0
 27121  1  0  0  0  0
 28 29  1  6  0  0  0
 28 30  1  0  0  0  0
 28 47  1  0  0  0  0
 29122  1  0  0  0  0
 30 31  1  0  0  0  0
 30123  1  0  0  0  0
 30124  1  0  0  0  0
 31125  1  0  0  0  0
 31126  1  0  0  0  0
 32 31  1  0  0  0  0
 32 33  1  0  0  0  0
 32 34  1  0  0  0  0
 32127  1  1  0  0  0
 33128  1  0  0  0  0
 33129  1  0  0  0  0
 33130  1  0  0  0  0
 34 35  1  0  0  0  0
 34131  1  0  0  0  0
 34132  1  0  0  0  0
 36 35  1  0  0  0  0
 36 37  1  0  0  0  0
 36133  1  1  0  0  0
 38 37  1  0  0  0  0
 38 39  1  0  0  0  0
 38134  1  1  0  0  0
 39 40  1  0  0  0  0
 39135  1  0  0  0  0
 39136  1  0  0  0  0
 40137  1  0  0  0  0
 41 38  1  0  0  0  0
 41 42  1  0  0  0  0
 41 43  1  0  0  0  0
 41138  1  6  0  0  0
 42139  1  0  0  0  0
 43 44  1  0  0  0  0
 43 45  1  0  0  0  0
 43140  1  1  0  0  0
 44141  1  0  0  0  0
 45 36  1  0  0  0  0
 45 46  1  0  0  0  0
 45142  1  6  0  0  0
 46143  1  0  0  0  0
 49 48  1  0  0  0  0
 49 50  1  6  0  0  0
 49 51  1  0  0  0  0
 52 51  1  0  0  0  0
 52 53  1  0  0  0  0
 52144  1  6  0  0  0
 53 54  1  0  0  0  0
 53145  1  0  0  0  0
 53146  1  0  0  0  0
 54147  1  0  0  0  0
 55 52  1  0  0  0  0
 55 56  1  0  0  0  0
 55 91  1  0  0  0  0
 55148  1  6  0  0  0
 57 56  1  0  0  0  0
 57 58  1  1  0  0  0
 57 59  1  0  0  0  0
 60 59  1  0  0  0  0
 60 61  1  0  0  0  0
 60149  1  1  0  0  0
 61 62  1  0  0  0  0
 61150  1  0  0  0  0
 61151  1  0  0  0  0
 62152  1  0  0  0  0
 63 60  1  0  0  0  0
 63 64  1  0  0  0  0
 63 65  1  0  0  0  0
 63153  1  6  0  0  0
 64154  1  0  0  0  0
 65 66  1  0  0  0  0
 65 77  1  0  0  0  0
 65155  1  1  0  0  0
 67 66  1  0  0  0  0
 67 68  1  6  0  0  0
 67 69  1  0  0  0  0
 69 70  1  0  0  0  0
 70156  1  0  0  0  0
 70157  1  0  0  0  0
 71 70  1  0  0  0  0
 71 72  1  0  0  0  0
 71158  1  1  0  0  0
 72159  1  0  0  0  0
 73 71  1  0  0  0  0
 73 74  1  0  0  0  0
 73 75  1  0  0  0  0
 73160  1  6  0  0  0
 74161  1  0  0  0  0
 75 67  1  0  0  0  0
 75 76  1  0  0  0  0
 75162  1  1  0  0  0
 76163  1  0  0  0  0
 77 57  1  0  0  0  0
 77 78  1  0  0  0  0
 77164  1  6  0  0  0
 79 78  1  0  0  0  0
 79 80  1  1  0  0  0
 79 81  1  0  0  0  0
 82 81  1  0  0  0  0
 82 83  1  0  0  0  0
 82165  1  1  0  0  0
 83 84  1  0  0  0  0
 83166  1  0  0  0  0
 83167  1  0  0  0  0
 84168  1  0  0  0  0
 85 82  1  0  0  0  0
 85 86  1  0  0  0  0
 85 87  1  0  0  0  0
 85169  1  6  0  0  0
 86170  1  0  0  0  0
 87 88  1  0  0  0  0
 87 89  1  0  0  0  0
 87171  1  1  0  0  0
 88172  1  0  0  0  0
 89 79  1  0  0  0  0
 89 90  1  0  0  0  0
 89173  1  6  0  0  0
 90174  1  0  0  0  0
 91 92  1  0  0  0  0
 91 93  1  0  0  0  0
 91175  1  6  0  0  0
 92176  1  0  0  0  0
 93 49  1  0  0  0  0
 93 94  1  0  0  0  0
 93177  1  1  0  0  0
 94178  1  0  0  0  0
M  END
>  <DRUGBANK_ID>
DB18633

>  <COMMON_NAME>
Uttroside B

>  <CAS_NUMBER>
88048-09-3

>  <UNII>
QK6VN86E3T

>  <SYNONYMS>
.beta.-d-galactopyranoside, (3.beta.,5.alpha.,22.alpha.,25r)-26-(.beta.-d-glucopyranosyloxy)-22-hydroxyfurostan-3-yl o-.beta.-d-glucopyranosyl-(1->2)-o-(.beta.-d-xylopyranosyl-(1->3))-o-.beta.-d-glucopyranosyl-(1->4)-

$$$$
