491
 OpenBabel10282417072D

 31 31  0  0  1  0  0  0  0  0999 V2000
    4.9509   -1.4438    0.0000 O   0  0  0  0  0  0  0  0  0  0  0  0
    3.5220   -2.2688    0.0000 O   0  0  0  0  0  0  0  0  0  0  0  0
    2.0930   -1.4438    0.0000 O   0  0  0  0  0  0  0  0  0  0  0  0
    4.9509    1.0313    0.0000 O   0  0  0  0  0  0  0  0  0  0  0  0
    2.8075    2.2688    0.0000 O   0  0  0  0  0  0  0  0  0  0  0  0
    3.5220    0.2063    0.0000 N   0  0  0  0  0  0  0  0  0  0  0  0
    4.2365   -0.2063    0.0000 C   0  0  1  0  0  0  0  0  0  0  0  0
    4.2365   -1.0313    0.0000 C   0  0  2  0  0  0  0  0  0  0  0  0
    3.5220   -1.4438    0.0000 C   0  0  1  0  0  0  0  0  0  0  0  0
    2.8075   -1.0313    0.0000 C   0  0  2  0  0  0  0  0  0  0  0  0
    2.8075   -0.2063    0.0000 C   0  0  0  0  0  0  0  0  0  0  0  0
    4.9509    0.2063    0.0000 C   0  0  0  0  0  0  0  0  0  0  0  0
    3.5220    1.0313    0.0000 C   0  0  0  0  0  0  0  0  0  0  0  0
    2.8075    1.4438    0.0000 C   0  0  0  0  0  0  0  0  0  0  0  0
    4.9509   -2.4138    0.0000 H   0  0  0  0  0  0  0  0  0  0  0  0
    2.6820   -2.7538    0.0000 H   0  0  0  0  0  0  0  0  0  0  0  0
    1.2530   -0.9588    0.0000 H   0  0  0  0  0  0  0  0  0  0  0  0
    5.7909    1.5163    0.0000 H   0  0  0  0  0  0  0  0  0  0  0  0
    3.6475    2.7538    0.0000 H   0  0  0  0  0  0  0  0  0  0  0  0
    4.2365    0.8637    0.0000 H   0  0  0  0  0  0  0  0  0  0  0  0
    5.1632   -0.4963    0.0000 H   0  0  0  0  0  0  0  0  0  0  0  0
    4.4486   -1.9788    0.0000 H   0  0  0  0  0  0  0  0  0  0  0  0
    2.8075   -2.1013    0.0000 H   0  0  0  0  0  0  0  0  0  0  0  0
    1.8808    0.3287    0.0000 H   0  0  0  0  0  0  0  0  0  0  0  0
    1.8809   -0.7413    0.0000 H   0  0  0  0  0  0  0  0  0  0  0  0
    5.8776   -0.3286    0.0000 H   0  0  0  0  0  0  0  0  0  0  0  0
    4.9510   -0.8637    0.0000 H   0  0  0  0  0  0  0  0  0  0  0  0
    4.4486    1.5663    0.0000 H   0  0  0  0  0  0  0  0  0  0  0  0
    3.5220    2.1013    0.0000 H   0  0  0  0  0  0  0  0  0  0  0  0
    1.8809    0.9088    0.0000 H   0  0  0  0  0  0  0  0  0  0  0  0
    2.8075    0.3738    0.0000 H   0  0  0  0  0  0  0  0  0  0  0  0
  1 15  1  0  0  0  0
  2 16  1  0  0  0  0
  3 17  1  0  0  0  0
  4 12  1  0  0  0  0
  4 18  1  0  0  0  0
  5 14  1  0  0  0  0
  5 19  1  0  0  0  0
  6  7  1  0  0  0  0
  6 11  1  0  0  0  0
  6 13  1  0  0  0  0
  7  8  1  0  0  0  0
  7 12  1  0  0  0  0
  7 20  1  1  0  0  0
  8  1  1  0  0  0  0
  8  9  1  0  0  0  0
  8 21  1  6  0  0  0
  9  2  1  0  0  0  0
  9 10  1  0  0  0  0
  9 22  1  1  0  0  0
 10  3  1  0  0  0  0
 10 11  1  0  0  0  0
 10 23  1  6  0  0  0
 11 24  1  0  0  0  0
 11 25  1  0  0  0  0
 12 26  1  0  0  0  0
 12 27  1  0  0  0  0
 13 14  1  0  0  0  0
 13 28  1  0  0  0  0
 13 29  1  0  0  0  0
 14 30  1  0  0  0  0
 14 31  1  0  0  0  0
M  END
>  <DRUGBANK_ID>
DB00491

>  <SECONDARY_ACCESSION_NUMBERS>
APRD01117

>  <COMMON_NAME>
Miglitol

>  <CAS_NUMBER>
72432-03-2

>  <UNII>
0V5436JAQW

>  <SYNONYMS>
Miglitol; Miglitolum

$$$$
