
 OpenBabel10282417072D

 56 59  0  0  0  0  0  0  0  0999 V2000
    0.3452   -0.0868    0.0000 C   0  0  1  0  0  0  0  0  0  0  0  0
    1.0569   -0.5047    0.0000 C   0  0  2  0  0  0  0  0  0  0  0  0
   -0.3735   -0.4976    0.0000 C   0  0  2  0  0  0  0  0  0  0  0  0
    0.3523    0.7382    0.0000 C   0  0  0  0  0  0  0  0  0  0  0  0
    1.7686   -0.0939    0.0000 C   0  0  1  0  0  0  0  0  0  0  0  0
    1.0569   -1.3297    0.0000 C   0  0  0  0  0  0  0  0  0  0  0  0
   -0.3770   -1.3226    0.0000 C   0  0  1  0  0  0  0  0  0  0  0  0
   -1.0853   -0.0832    0.0000 C   0  0  0  0  0  0  0  0  0  0  0  0
    1.0711    1.1453    0.0000 C   0  0  0  0  0  0  0  0  0  0  0  0
    1.7793    0.7275    0.0000 C   0  0  2  0  0  0  0  0  0  0  0  0
    3.2345   -0.1115    0.0000 C   0  0  0  0  0  0  0  0  0  0  0  0
    0.3381   -1.7369    0.0000 C   0  0  0  0  0  0  0  0  0  0  0  0
   -1.0853   -1.7333    0.0000 C   0  0  0  0  0  0  0  0  0  0  0  0
   -1.8040   -0.4976    0.0000 C   0  0  0  0  0  0  0  0  0  0  0  0
    2.4946    1.1311    0.0000 C   0  0  1  0  0  0  0  0  0  0  0  0
    3.2027    0.7099    0.0000 C   0  0  0  0  0  0  0  0  0  0  0  0
   -1.8040   -1.3226    0.0000 C   0  0  0  0  0  0  0  0  0  0  0  0
   -2.5158   -0.0832    0.0000 C   0  0  0  0  0  0  0  0  0  0  0  0
    3.1744    1.5879    0.0000 C   0  0  0  0  0  0  0  0  0  0  0  0
    2.5052    2.1722    0.0000 O   0  0  0  0  0  0  0  0  0  0  0  0
   -2.5158   -1.7333    0.0000 O   0  0  0  0  0  0  0  0  0  0  0  0
   -3.2345   -0.4976    0.0000 O   0  0  0  0  0  0  0  0  0  0  0  0
    1.7793    1.5772    0.0000 C   0  0  0  0  0  0  0  0  0  0  0  0
    1.0569    0.3449    0.0000 H   0  0  0  0  0  0  0  0  0  0  0  0
   -0.3735    0.3519    0.0000 C   0  0  0  0  0  0  0  0  0  0  0  0
   -0.3770   -2.1722    0.0000 H   0  0  0  0  0  0  0  0  0  0  0  0
    0.3452   -0.9364    0.0000 H   0  0  0  0  0  0  0  0  0  0  0  0
    1.7686   -0.9435    0.0000 H   0  0  0  0  0  0  0  0  0  0  0  0
   -0.5698    1.2810    0.0000 H   0  0  0  0  0  0  0  0  0  0  0  0
    0.3612    1.8082    0.0000 H   0  0  0  0  0  0  0  0  0  0  0  0
    1.9814   -1.8685    0.0000 H   0  0  0  0  0  0  0  0  0  0  0  0
    1.0503   -2.3997    0.0000 H   0  0  0  0  0  0  0  0  0  0  0  0
   -1.0831    0.9868    0.0000 H   0  0  0  0  0  0  0  0  0  0  0  0
   -2.0112    0.4530    0.0000 H   0  0  0  0  0  0  0  0  0  0  0  0
    1.0806    2.2153    0.0000 H   0  0  0  0  0  0  0  0  0  0  0  0
    2.0026    1.6718    0.0000 H   0  0  0  0  0  0  0  0  0  0  0  0
    4.0011   -0.8579    0.0000 H   0  0  0  0  0  0  0  0  0  0  0  0
    4.2121    0.3236    0.0000 H   0  0  0  0  0  0  0  0  0  0  0  0
    0.3329   -2.8069    0.0000 H   0  0  0  0  0  0  0  0  0  0  0  0
   -0.5902   -2.2690    0.0000 H   0  0  0  0  0  0  0  0  0  0  0  0
   -1.0819   -2.8033    0.0000 H   0  0  0  0  0  0  0  0  0  0  0  0
   -2.0099   -2.2718    0.0000 H   0  0  0  0  0  0  0  0  0  0  0  0
    4.1224    1.2568    0.0000 H   0  0  0  0  0  0  0  0  0  0  0  0
    3.2028    1.7799    0.0000 H   0  0  0  0  0  0  0  0  0  0  0  0
   -2.5136    0.9488    0.0000 H   0  0  0  0  0  0  0  0  0  0  0  0
    4.1353    1.1172    0.0000 H   0  0  0  0  0  0  0  0  0  0  0  0
    3.1016    2.6554    0.0000 H   0  0  0  0  0  0  0  0  0  0  0  0
    4.0625    2.1847    0.0000 H   0  0  0  0  0  0  0  0  0  0  0  0
    3.3501    2.6486    0.0000 H   0  0  0  0  0  0  0  0  0  0  0  0
   -4.0457   -0.0286    0.0000 H   0  0  0  0  0  0  0  0  0  0  0  0
    2.7059    2.1122    0.0000 H   0  0  0  0  0  0  0  0  0  0  0  0
    0.8527    2.1122    0.0000 H   0  0  0  0  0  0  0  0  0  0  0  0
    1.7793    2.6472    0.0000 H   0  0  0  0  0  0  0  0  0  0  0  0
    0.5531    0.8869    0.0000 H   0  0  0  0  0  0  0  0  0  0  0  0
   -1.3001    0.8869    0.0000 H   0  0  0  0  0  0  0  0  0  0  0  0
   -0.3735    1.4219    0.0000 H   0  0  0  0  0  0  0  0  0  0  0  0
  1  2  1  0  0  0  0
  1  3  1  0  0  0  0
  1  4  1  0  0  0  0
  1 27  1  6  0  0  0
  2  5  1  0  0  0  0
  2  6  1  0  0  0  0
  2 24  1  1  0  0  0
  3  7  1  0  0  0  0
  3  8  1  0  0  0  0
  3 25  1  1  0  0  0
  4  9  1  0  0  0  0
  4 29  1  0  0  0  0
  4 30  1  0  0  0  0
  5 10  1  0  0  0  0
  5 11  1  0  0  0  0
  5 28  1  6  0  0  0
  6 12  1  0  0  0  0
  6 31  1  0  0  0  0
  6 32  1  0  0  0  0
  7 13  1  0  0  0  0
  7 12  1  0  0  0  0
  7 26  1  6  0  0  0
  8 14  1  0  0  0  0
  8 33  1  0  0  0  0
  8 34  1  0  0  0  0
  9 10  1  0  0  0  0
  9 35  1  0  0  0  0
  9 36  1  0  0  0  0
 10 15  1  0  0  0  0
 10 23  1  1  0  0  0
 11 16  1  0  0  0  0
 11 37  1  0  0  0  0
 11 38  1  0  0  0  0
 12 39  1  0  0  0  0
 12 40  1  0  0  0  0
 13 17  1  0  0  0  0
 13 41  1  0  0  0  0
 13 42  1  0  0  0  0
 14 18  2  0  0  0  0
 14 17  1  0  0  0  0
 15 19  1  0  0  0  0
 15 20  1  1  0  0  0
 15 16  1  0  0  0  0
 16 43  1  0  0  0  0
 16 44  1  0  0  0  0
 17 21  2  0  0  0  0
 18 22  1  0  0  0  0
 18 45  1  0  0  0  0
 19 46  1  0  0  0  0
 19 47  1  0  0  0  0
 19 48  1  0  0  0  0
 20 49  1  0  0  0  0
 22 50  1  0  0  0  0
 23 51  1  0  0  0  0
 23 52  1  0  0  0  0
 23 53  1  0  0  0  0
 25 54  1  0  0  0  0
 25 55  1  0  0  0  0
 25 56  1  0  0  0  0
M  END
>  <DRUGBANK_ID>
DB06412

>  <COMMON_NAME>
Oxymetholone

>  <CAS_NUMBER>
434-07-1

>  <UNII>
L76T0ZCA8K

>  <SYNONYMS>
17β-Hydroxy-2-hydroxymethylidene-17α-methyl-3-androstanone; Oximetolona; Oxymetholon; Oxymétholone; Oxymetholone; Oxymetholonum

$$$$
