
 OpenBabel10282417072D

 73 77  0  0  0  0  0  0  0  0999 V2000
    0.9356   -1.6292    0.0000 C   0  0  0  0  0  0  0  0  0  0  0  0
    0.9325   -2.4495    0.0000 C   0  0  0  0  0  0  0  0  0  0  0  0
    1.6473   -1.2148    0.0000 O   0  0  0  0  0  0  0  0  0  0  0  0
    0.2236   -1.2094    0.0000 C   0  0  0  0  0  0  0  0  0  0  0  0
    1.6408   -2.8728    0.0000 C   0  0  0  0  0  0  0  0  0  0  0  0
    0.2173   -2.8675    0.0000 C   0  0  0  0  0  0  0  0  0  0  0  0
    2.3696   -1.6347    0.0000 C   0  0  1  0  0  0  0  0  0  0  0  0
   -0.4949   -1.6238    0.0000 C   0  0  0  0  0  0  0  0  0  0  0  0
    2.3664   -2.4550    0.0000 C   0  0  0  0  0  0  0  0  0  0  0  0
    1.6377   -3.7036    0.0000 O   0  0  0  0  0  0  0  0  0  0  0  0
   -0.4980   -2.4441    0.0000 C   0  0  0  0  0  0  0  0  0  0  0  0
    0.2141   -3.6983    0.0000 O   0  0  0  0  0  0  0  0  0  0  0  0
    3.0917   -1.2203    0.0000 C   0  0  0  0  0  0  0  0  0  0  0  0
   -1.2033   -1.2039    0.0000 O   0  0  0  0  0  0  0  0  0  0  0  0
    3.0948   -0.3896    0.0000 C   0  0  0  0  0  0  0  0  0  0  0  0
    3.8002   -1.6400    0.0000 C   0  0  0  0  0  0  0  0  0  0  0  0
   -2.0962   -1.2246    0.0000 C   0  0  1  0  0  0  0  0  0  0  0  0
    3.8065    0.0179    0.0000 C   0  0  0  0  0  0  0  0  0  0  0  0
    4.5221   -1.2258    0.0000 C   0  0  0  0  0  0  0  0  0  0  0  0
   -2.5175   -0.5129    0.0000 C   0  0  2  0  0  0  0  0  0  0  0  0
   -2.5126   -1.9366    0.0000 O   0  0  0  0  0  0  0  0  0  0  0  0
    4.5252   -0.3951    0.0000 C   0  0  0  0  0  0  0  0  0  0  0  0
   -2.1648    0.5493    0.0000 O   0  0  0  0  0  0  0  0  0  0  0  0
   -3.3415   -0.5167    0.0000 C   0  0  2  0  0  0  0  0  0  0  0  0
   -3.3364   -1.9403    0.0000 C   0  0  1  0  0  0  0  0  0  0  0  0
    5.2404    0.0124    0.0000 O   0  0  0  0  0  0  0  0  0  0  0  0
   -3.1521    1.5401    0.0000 C   0  0  1  0  0  0  0  0  0  0  0  0
   -3.7474   -1.2320    0.0000 C   0  0  1  0  0  0  0  0  0  0  0  0
   -3.7592    0.1950    0.0000 O   0  0  0  0  0  0  0  0  0  0  0  0
   -3.7460   -2.6560    0.0000 C   0  0  0  0  0  0  0  0  0  0  0  0
   -3.9759    1.5115    0.0000 C   0  0  1  0  0  0  0  0  0  0  0  0
   -2.7735    2.2740    0.0000 O   0  0  0  0  0  0  0  0  0  0  0  0
   -4.5714   -1.2359    0.0000 O   0  0  0  0  0  0  0  0  0  0  0  0
   -3.3316   -3.3710    0.0000 O   0  0  0  0  0  0  0  0  0  0  0  0
   -4.4171    2.2072    0.0000 C   0  0  1  0  0  0  0  0  0  0  0  0
   -4.3580    0.7809    0.0000 O   0  0  0  0  0  0  0  0  0  0  0  0
   -3.2148    2.9697    0.0000 C   0  0  2  0  0  0  0  0  0  0  0  0
   -4.0347    2.9347    0.0000 C   0  0  2  0  0  0  0  0  0  0  0  0
   -5.2404    2.1720    0.0000 O   0  0  0  0  0  0  0  0  0  0  0  0
   -2.8362    3.7036    0.0000 C   0  0  0  0  0  0  0  0  0  0  0  0
   -4.4794    3.6299    0.0000 O   0  0  0  0  0  0  0  0  0  0  0  0
   -3.3656    0.7434    0.0000 H   0  0  0  0  0  0  0  0  0  0  0  0
    0.2285   -0.1774    0.0000 H   0  0  0  0  0  0  0  0  0  0  0  0
    2.3726   -0.5647    0.0000 H   0  0  0  0  0  0  0  0  0  0  0  0
    3.2917   -2.9923    0.0000 H   0  0  0  0  0  0  0  0  0  0  0  0
    3.2948   -1.9230    0.0000 H   0  0  0  0  0  0  0  0  0  0  0  0
   -1.3955   -2.9535    0.0000 H   0  0  0  0  0  0  0  0  0  0  0  0
   -0.5992   -4.1637    0.0000 H   0  0  0  0  0  0  0  0  0  0  0  0
    2.2030    0.1297    0.0000 H   0  0  0  0  0  0  0  0  0  0  0  0
    3.7930   -2.6720    0.0000 H   0  0  0  0  0  0  0  0  0  0  0  0
   -1.5771   -0.2890    0.0000 H   0  0  0  0  0  0  0  0  0  0  0  0
    3.8073    1.0499    0.0000 H   0  0  0  0  0  0  0  0  0  0  0  0
    5.4142   -1.7447    0.0000 H   0  0  0  0  0  0  0  0  0  0  0  0
   -1.4536   -0.3987    0.0000 H   0  0  0  0  0  0  0  0  0  0  0  0
   -2.8120    0.4131    0.0000 H   0  0  0  0  0  0  0  0  0  0  0  0
   -2.7976   -2.8647    0.0000 H   0  0  0  0  0  0  0  0  0  0  0  0
    6.0492   -0.4607    0.0000 H   0  0  0  0  0  0  0  0  0  0  0  0
   -4.2880   -0.3086    0.0000 H   0  0  0  0  0  0  0  0  0  0  0  0
   -3.2802    1.0385    0.0000 H   0  0  0  0  0  0  0  0  0  0  0  0
   -4.8160   -2.6589    0.0000 H   0  0  0  0  0  0  0  0  0  0  0  0
   -4.2790   -3.5838    0.0000 H   0  0  0  0  0  0  0  0  0  0  0  0
   -3.4059    0.6060    0.0000 H   0  0  0  0  0  0  0  0  0  0  0  0
   -5.0604   -0.3982    0.0000 H   0  0  0  0  0  0  0  0  0  0  0  0
   -3.8152   -4.2119    0.0000 H   0  0  0  0  0  0  0  0  0  0  0  0
   -4.9126    1.2588    0.0000 H   0  0  0  0  0  0  0  0  0  0  0  0
   -5.3272    0.7404    0.0000 H   0  0  0  0  0  0  0  0  0  0  0  0
   -2.1459    3.0173    0.0000 H   0  0  0  0  0  0  0  0  0  0  0  0
   -5.1037    2.8892    0.0000 H   0  0  0  0  0  0  0  0  0  0  0  0
   -5.7608    2.9906    0.0000 H   0  0  0  0  0  0  0  0  0  0  0  0
   -1.7674    3.7542    0.0000 H   0  0  0  0  0  0  0  0  0  0  0  0
   -3.4144    4.6039    0.0000 H   0  0  0  0  0  0  0  0  0  0  0  0
   -2.3456    4.6545    0.0000 H   0  0  0  0  0  0  0  0  0  0  0  0
   -4.0331    4.4911    0.0000 H   0  0  0  0  0  0  0  0  0  0  0  0
  1  2  2  0  0  0  0
  1  3  1  0  0  0  0
  1  4  1  0  0  0  0
  2  5  1  0  0  0  0
  2  6  1  0  0  0  0
  3  7  1  0  0  0  0
  4  8  2  0  0  0  0
  4 43  1  0  0  0  0
  5  9  1  0  0  0  0
  5 10  2  0  0  0  0
  6 11  2  0  0  0  0
  6 12  1  0  0  0  0
  7 13  1  0  0  0  0
  7  9  1  0  0  0  0
  7 44  1  1  0  0  0
  8 14  1  0  0  0  0
  8 11  1  0  0  0  0
  9 45  1  0  0  0  0
  9 46  1  0  0  0  0
 11 47  1  0  0  0  0
 12 48  1  0  0  0  0
 13 15  2  0  0  0  0
 13 16  1  0  0  0  0
 15 18  1  0  0  0  0
 15 49  1  0  0  0  0
 16 19  2  0  0  0  0
 16 50  1  0  0  0  0
 17 14  1  0  0  0  0
 17 20  1  0  0  0  0
 17 21  1  0  0  0  0
 17 51  1  1  0  0  0
 18 22  2  0  0  0  0
 18 52  1  0  0  0  0
 19 22  1  0  0  0  0
 19 53  1  0  0  0  0
 20 23  1  0  0  0  0
 20 24  1  0  0  0  0
 20 54  1  6  0  0  0
 21 25  1  0  0  0  0
 22 26  1  0  0  0  0
 24 28  1  0  0  0  0
 24 29  1  0  0  0  0
 24 55  1  1  0  0  0
 25 30  1  0  0  0  0
 25 28  1  0  0  0  0
 25 56  1  1  0  0  0
 26 57  1  0  0  0  0
 27 23  1  0  0  0  0
 27 31  1  0  0  0  0
 27 32  1  0  0  0  0
 27 42  1  6  0  0  0
 28 33  1  0  0  0  0
 28 58  1  6  0  0  0
 29 59  1  0  0  0  0
 30 34  1  0  0  0  0
 30 60  1  0  0  0  0
 30 61  1  0  0  0  0
 31 35  1  0  0  0  0
 31 36  1  0  0  0  0
 31 62  1  1  0  0  0
 32 37  1  0  0  0  0
 33 63  1  0  0  0  0
 34 64  1  0  0  0  0
 35 38  1  0  0  0  0
 35 39  1  0  0  0  0
 35 65  1  1  0  0  0
 36 66  1  0  0  0  0
 37 40  1  0  0  0  0
 37 38  1  0  0  0  0
 37 67  1  1  0  0  0
 38 41  1  0  0  0  0
 38 68  1  6  0  0  0
 39 69  1  0  0  0  0
 40 70  1  0  0  0  0
 40 71  1  0  0  0  0
 40 72  1  0  0  0  0
 41 73  1  0  0  0  0
M  END
>  <DRUGBANK_ID>
DB16859

>  <COMMON_NAME>
Naringin

>  <CAS_NUMBER>
10236-47-2

>  <UNII>
N7TD9J649B

>  <SYNONYMS>
Aurantiin; Naringoside

$$$$
