
 OpenBabel10282417072D

 25 24  0  0  0  0  0  0  0  0999 V2000
    6.9903   -5.6602    0.0000 Co  0  7  0  0  0  0  0  0  0  0  0  0
    6.9903   -4.6257    0.0000 N   0  3  0  0  0  0  0  0  0  0  0  0
    6.9903   -6.5987    0.0000 N   0  3  0  0  0  0  0  0  0  0  0  0
    7.7366   -5.3129    0.0000 N   0  3  0  0  0  0  0  0  0  0  0  0
    6.3253   -5.2982    0.0000 N   0  3  0  0  0  0  0  0  0  0  0  0
    7.7440   -6.0001    0.0000 N   0  3  0  0  0  0  0  0  0  0  0  0
    6.3179   -5.9410    0.0000 N   0  3  0  0  0  0  0  0  0  0  0  0
    7.8736   -4.1157    0.0000 H   0  0  0  0  0  0  0  0  0  0  0  0
    6.1070   -4.1157    0.0000 H   0  0  0  0  0  0  0  0  0  0  0  0
    6.9903   -3.6057    0.0000 H   0  0  0  0  0  0  0  0  0  0  0  0
    6.1070   -7.1087    0.0000 H   0  0  0  0  0  0  0  0  0  0  0  0
    7.8736   -7.1087    0.0000 H   0  0  0  0  0  0  0  0  0  0  0  0
    6.9903   -7.6187    0.0000 H   0  0  0  0  0  0  0  0  0  0  0  0
    8.5717   -5.8986    0.0000 H   0  0  0  0  0  0  0  0  0  0  0  0
    7.8263   -4.2969    0.0000 H   0  0  0  0  0  0  0  0  0  0  0  0
    8.6614   -4.8825    0.0000 H   0  0  0  0  0  0  0  0  0  0  0  0
    6.2997   -4.2785    0.0000 H   0  0  0  0  0  0  0  0  0  0  0  0
    5.4550   -5.8302    0.0000 H   0  0  0  0  0  0  0  0  0  0  0  0
    5.4294   -4.8105    0.0000 H   0  0  0  0  0  0  0  0  0  0  0  0
    7.8458   -7.0150    0.0000 H   0  0  0  0  0  0  0  0  0  0  0  0
    8.5721   -5.4045    0.0000 H   0  0  0  0  0  0  0  0  0  0  0  0
    8.6738   -6.4194    0.0000 H   0  0  0  0  0  0  0  0  0  0  0  0
    5.5069   -5.3224    0.0000 H   0  0  0  0  0  0  0  0  0  0  0  0
    6.1877   -6.9527    0.0000 H   0  0  0  0  0  0  0  0  0  0  0  0
    5.3767   -6.3341    0.0000 H   0  0  0  0  0  0  0  0  0  0  0  0
  1  2  1  0  0  0  0
  1  3  1  0  0  0  0
  1  4  1  0  0  0  0
  1  5  1  0  0  0  0
  1  6  1  0  0  0  0
  1  7  1  0  0  0  0
  2  8  1  0  0  0  0
  2  9  1  0  0  0  0
  2 10  1  0  0  0  0
  3 11  1  0  0  0  0
  3 12  1  0  0  0  0
  3 13  1  0  0  0  0
  4 14  1  0  0  0  0
  4 15  1  0  0  0  0
  4 16  1  0  0  0  0
  5 17  1  0  0  0  0
  5 18  1  0  0  0  0
  5 19  1  0  0  0  0
  6 20  1  0  0  0  0
  6 21  1  0  0  0  0
  6 22  1  0  0  0  0
  7 23  1  0  0  0  0
  7 24  1  0  0  0  0
  7 25  1  0  0  0  0
M  CHG  7   1  -3   2   1   3   1   4   1   5   1   6   1   7   1
M  END
>  <DRUGBANK_ID>
DB03350

>  <SECONDARY_ACCESSION_NUMBERS>
EXPT02313

>  <COMMON_NAME>
Cobalt hexammine ion

>  <SYNONYMS>
Cobalt Hexammine(III); hexaamminecobalt(3+)

$$$$
