SCJ
 OpenBabel10282417072D

 38 41  0  0  0  0  0  0  0  0999 V2000
   -2.2438    1.0631    0.0000 C   0  0  0  0  0  0  0  0  0  0  0  0
   -1.4591    0.8082    0.0000 C   0  0  0  0  0  0  0  0  0  0  0  0
   -1.4591   -0.0168    0.0000 N   0  0  0  0  0  0  0  0  0  0  0  0
   -2.2438   -0.2718    0.0000 N   0  0  0  0  0  0  0  0  0  0  0  0
   -2.7287    0.3957    0.0000 C   0  0  0  0  0  0  0  0  0  0  0  0
   -0.7447    1.2207    0.0000 N   0  0  0  0  0  0  0  0  0  0  0  0
   -0.0302    0.8082    0.0000 C   0  0  0  0  0  0  0  0  0  0  0  0
   -0.0302   -0.0168    0.0000 C   0  0  0  0  0  0  0  0  0  0  0  0
   -0.7447   -0.4293    0.0000 C   0  0  0  0  0  0  0  0  0  0  0  0
   -0.7447   -1.2543    0.0000 N   0  0  0  0  0  0  0  0  0  0  0  0
    0.6843    1.2207    0.0000 C   0  0  0  0  0  0  0  0  0  0  0  0
   -1.4591   -1.6668    0.0000 C   0  0  0  0  0  0  0  0  0  0  0  0
   -1.4591   -2.4918    0.0000 C   0  0  0  0  0  0  0  0  0  0  0  0
   -0.7447   -2.9043    0.0000 C   0  0  0  0  0  0  0  0  0  0  0  0
   -0.7447   -3.7293    0.0000 N   0  0  0  0  0  0  0  0  0  0  0  0
   -1.4591   -4.1418    0.0000 C   0  0  0  0  0  0  0  0  0  0  0  0
   -2.1736   -3.7293    0.0000 C   0  0  0  0  0  0  0  0  0  0  0  0
   -2.1736   -2.9043    0.0000 C   0  0  0  0  0  0  0  0  0  0  0  0
    0.6843    2.0457    0.0000 C   0  0  0  0  0  0  0  0  0  0  0  0
    1.3988    2.4582    0.0000 C   0  0  0  0  0  0  0  0  0  0  0  0
    2.1132    2.0457    0.0000 C   0  0  0  0  0  0  0  0  0  0  0  0
    2.1132    1.2207    0.0000 C   0  0  0  0  0  0  0  0  0  0  0  0
    1.3988    0.8082    0.0000 C   0  0  0  0  0  0  0  0  0  0  0  0
   -2.4987    1.8477    0.0000 Br  0  0  0  0  0  0  0  0  0  0  0  0
   -3.7607    0.3957    0.0000 H   0  0  0  0  0  0  0  0  0  0  0  0
    0.8635   -0.5328    0.0000 H   0  0  0  0  0  0  0  0  0  0  0  0
    0.1079   -1.7465    0.0000 H   0  0  0  0  0  0  0  0  0  0  0  0
   -2.3858   -1.1318    0.0000 H   0  0  0  0  0  0  0  0  0  0  0  0
   -2.3857   -2.2018    0.0000 H   0  0  0  0  0  0  0  0  0  0  0  0
    0.1490   -2.3883    0.0000 H   0  0  0  0  0  0  0  0  0  0  0  0
   -1.4591   -5.1738    0.0000 H   0  0  0  0  0  0  0  0  0  0  0  0
   -3.0673   -4.2453    0.0000 H   0  0  0  0  0  0  0  0  0  0  0  0
   -3.0673   -2.3883    0.0000 H   0  0  0  0  0  0  0  0  0  0  0  0
   -0.2094    2.5617    0.0000 H   0  0  0  0  0  0  0  0  0  0  0  0
    1.3988    3.4902    0.0000 H   0  0  0  0  0  0  0  0  0  0  0  0
    3.0069    2.5617    0.0000 H   0  0  0  0  0  0  0  0  0  0  0  0
    3.0069    0.7047    0.0000 H   0  0  0  0  0  0  0  0  0  0  0  0
    1.3988   -0.2238    0.0000 H   0  0  0  0  0  0  0  0  0  0  0  0
  1  2  2  0  0  0  0
  1 24  1  0  0  0  0
  2  6  1  0  0  0  0
  3  9  1  0  0  0  0
  3  2  1  0  0  0  0
  4  5  2  0  0  0  0
  4  3  1  0  0  0  0
  5  1  1  0  0  0  0
  5 25  1  0  0  0  0
  6  7  2  0  0  0  0
  7 11  1  0  0  0  0
  8  7  1  0  0  0  0
  8 26  1  0  0  0  0
  9  8  2  0  0  0  0
 10 12  1  0  0  0  0
 10  9  1  0  0  0  0
 10 27  1  0  0  0  0
 11 19  1  0  0  0  0
 12 28  1  0  0  0  0
 12 29  1  0  0  0  0
 13 14  1  0  0  0  0
 13 12  1  0  0  0  0
 14 30  1  0  0  0  0
 15 14  2  0  0  0  0
 16 15  1  0  0  0  0
 16 31  1  0  0  0  0
 17 16  2  0  0  0  0
 17 18  1  0  0  0  0
 17 32  1  0  0  0  0
 18 13  2  0  0  0  0
 18 33  1  0  0  0  0
 19 20  2  0  0  0  0
 19 34  1  0  0  0  0
 20 35  1  0  0  0  0
 21 20  1  0  0  0  0
 21 36  1  0  0  0  0
 22 21  2  0  0  0  0
 22 37  1  0  0  0  0
 23 11  2  0  0  0  0
 23 22  1  0  0  0  0
 23 38  1  0  0  0  0
M  END
>  <DRUGBANK_ID>
DB08535

>  <COMMON_NAME>
3-bromo-5-phenyl-N-(pyridin-3-ylmethyl)pyrazolo[1,5-a]pyrimidin-7-amine

$$$$
