581
 OpenBabel10282417072D

 12 11  0  0  1  0  0  0  0  0999 V2000
   -2.1803    1.0717    0.0000 C   0  0  0  0  0  0  0  0  0  0  0  0
   -1.7678    0.3572    0.0000 C   0  0  2  0  0  0  0  0  0  0  0  0
   -2.1803   -0.3572    0.0000 C   0  0  0  0  0  0  0  0  0  0  0  0
   -0.9428    0.3572    0.0000 O   0  0  0  0  0  0  0  0  0  0  0  0
   -1.7678   -1.0717    0.0000 O   0  0  0  0  0  0  0  0  0  0  0  0
   -3.0053   -0.3572    0.0000 O   0  0  0  0  0  0  0  0  0  0  0  0
   -2.5928    0.3572    0.0000 H   0  0  0  0  0  0  0  0  0  0  0  0
   -1.6453    1.9983    0.0000 H   0  0  0  0  0  0  0  0  0  0  0  0
   -3.2503    1.0717    0.0000 H   0  0  0  0  0  0  0  0  0  0  0  0
   -2.7153    1.9984    0.0000 H   0  0  0  0  0  0  0  0  0  0  0  0
   -0.4578   -0.4828    0.0000 H   0  0  0  0  0  0  0  0  0  0  0  0
   -3.4738    0.4543    0.0000 H   0  0  0  0  0  0  0  0  0  0  0  0
  1  8  1  0  0  0  0
  1  9  1  0  0  0  0
  1 10  1  0  0  0  0
  2  1  1  0  0  0  0
  2  3  1  0  0  0  0
  2  4  1  0  0  0  0
  2  7  1  6  0  0  0
  4 11  1  0  0  0  0
  5  3  2  0  0  0  0
  6  3  1  0  0  0  0
  6 12  1  0  0  0  0
M  END
>  <DRUGBANK_ID>
DB03066

>  <SECONDARY_ACCESSION_NUMBERS>
EXPT01215

>  <COMMON_NAME>
D-Lactic acid

>  <CAS_NUMBER>
10326-41-7

>  <UNII>
3Q6M5SET7W

>  <SYNONYMS>
(−)-lactic acid; (R)-(−)-lactic acid; (R)-lactic acid; D-2-Hydroxypropanoic acid; D-2-Hydroxypropionic acid; D-Milchsäure

$$$$
