
 OpenBabel10282417072D

 58 61  0  0  0  0  0  0  0  0999 V2000
   -2.8579    6.9417    0.0000 O   0  0  0  0  0  0  0  0  0  0  0  0
   -2.8579    7.7667    0.0000 C   0  0  0  0  0  0  0  0  0  0  0  0
   -3.5724    8.1792    0.0000 C   0  0  0  0  0  0  0  0  0  0  0  0
   -4.2868    7.7667    0.0000 N   0  0  0  0  0  0  0  0  0  0  0  0
   -4.2868    6.9417    0.0000 C   0  0  0  0  0  0  0  0  0  0  0  0
   -5.0013    6.5292    0.0000 C   0  0  0  0  0  0  0  0  0  0  0  0
   -5.7158    6.9417    0.0000 O   0  0  0  0  0  0  0  0  0  0  0  0
   -5.7158    7.7667    0.0000 C   0  0  0  0  0  0  0  0  0  0  0  0
   -5.0013    8.1792    0.0000 C   0  0  0  0  0  0  0  0  0  0  0  0
   -2.1434    8.1792    0.0000 N   0  0  0  0  0  0  0  0  0  0  0  0
   -1.4289    7.7667    0.0000 C   0  0  0  0  0  0  0  0  0  0  0  0
   -0.7145    8.1792    0.0000 C   0  0  0  0  0  0  0  0  0  0  0  0
   -0.0000    7.7667    0.0000 C   0  0  0  0  0  0  0  0  0  0  0  0
   -0.0000    6.9417    0.0000 C   0  0  0  0  0  0  0  0  0  0  0  0
    0.7145    6.5292    0.0000 O   0  0  0  0  0  0  0  0  0  0  0  0
    0.7145    5.7042    0.0000 C   0  0  3  0  0  0  0  0  0  0  0  0
    1.4289    5.2917    0.0000 C   0  0  0  0  0  0  0  0  0  0  0  0
    1.4289    4.4667    0.0000 C   0  0  0  0  0  0  0  0  0  0  0  0
    0.7145    4.0542    0.0000 N   0  0  3  0  0  0  0  0  0  0  0  0
   -0.0000    4.4667    0.0000 C   0  0  0  0  0  0  0  0  0  0  0  0
   -0.0000    5.2917    0.0000 C   0  0  0  0  0  0  0  0  0  0  0  0
    0.7145    3.2292    0.0000 C   0  0  0  0  0  0  0  0  0  0  0  0
    1.2978    2.6459    0.0000 C   0  0  0  0  0  0  0  0  0  0  0  0
    0.7145    2.0625    0.0000 C   0  0  0  0  0  0  0  0  0  0  0  0
    0.1311    2.6459    0.0000 C   0  0  0  0  0  0  0  0  0  0  0  0
   -0.7145    6.5292    0.0000 C   0  0  0  0  0  0  0  0  0  0  0  0
   -1.4289    6.9417    0.0000 C   0  0  0  0  0  0  0  0  0  0  0  0
   -3.5724    9.2492    0.0000 H   0  0  0  0  0  0  0  0  0  0  0  0
   -4.4991    8.7142    0.0000 H   0  0  0  0  0  0  0  0  0  0  0  0
   -3.3602    6.4067    0.0000 H   0  0  0  0  0  0  0  0  0  0  0  0
   -4.2868    5.8717    0.0000 H   0  0  0  0  0  0  0  0  0  0  0  0
   -5.0013    5.4592    0.0000 H   0  0  0  0  0  0  0  0  0  0  0  0
   -5.9279    5.9942    0.0000 H   0  0  0  0  0  0  0  0  0  0  0  0
   -6.6424    8.3017    0.0000 H   0  0  0  0  0  0  0  0  0  0  0  0
   -5.7158    8.8367    0.0000 H   0  0  0  0  0  0  0  0  0  0  0  0
   -5.0013    9.2492    0.0000 H   0  0  0  0  0  0  0  0  0  0  0  0
   -4.0747    8.7142    0.0000 H   0  0  0  0  0  0  0  0  0  0  0  0
   -2.1434    9.1637    0.0000 H   0  0  0  0  0  0  0  0  0  0  0  0
   -0.7145    9.2112    0.0000 H   0  0  0  0  0  0  0  0  0  0  0  0
    0.8937    8.2827    0.0000 H   0  0  0  0  0  0  0  0  0  0  0  0
    1.6412    6.2392    0.0000 H   0  0  0  0  0  0  0  0  0  0  0  0
    2.3556    5.8267    0.0000 H   0  0  0  0  0  0  0  0  0  0  0  0
    2.3555    4.7567    0.0000 H   0  0  0  0  0  0  0  0  0  0  0  0
    2.3556    3.9317    0.0000 H   0  0  0  0  0  0  0  0  0  0  0  0
    1.4289    3.3967    0.0000 H   0  0  0  0  0  0  0  0  0  0  0  0
   -0.9266    3.9317    0.0000 H   0  0  0  0  0  0  0  0  0  0  0  0
   -0.9266    5.0017    0.0000 H   0  0  0  0  0  0  0  0  0  0  0  0
   -0.9266    5.8267    0.0000 H   0  0  0  0  0  0  0  0  0  0  0  0
    0.0000    6.3617    0.0000 H   0  0  0  0  0  0  0  0  0  0  0  0
    0.7145    2.1592    0.0000 H   0  0  0  0  0  0  0  0  0  0  0  0
    2.3678    2.6459    0.0000 H   0  0  0  0  0  0  0  0  0  0  0  0
    1.7073    1.6574    0.0000 H   0  0  0  0  0  0  0  0  0  0  0  0
    0.7145    0.9925    0.0000 H   0  0  0  0  0  0  0  0  0  0  0  0
   -0.2740    1.6530    0.0000 H   0  0  0  0  0  0  0  0  0  0  0  0
   -0.9389    2.6459    0.0000 H   0  0  0  0  0  0  0  0  0  0  0  0
   -0.2783    3.6345    0.0000 H   0  0  0  0  0  0  0  0  0  0  0  0
   -0.7145    5.4972    0.0000 H   0  0  0  0  0  0  0  0  0  0  0  0
   -2.3226    6.4257    0.0000 H   0  0  0  0  0  0  0  0  0  0  0  0
  1  2  2  0  0  0  0
  2  3  1  0  0  0  0
  2 10  1  0  0  0  0
  3  4  1  0  0  0  0
  3 28  1  0  0  0  0
  3 29  1  0  0  0  0
  4  5  1  0  0  0  0
  4  9  1  0  0  0  0
  5  6  1  0  0  0  0
  5 30  1  0  0  0  0
  5 31  1  0  0  0  0
  6  7  1  0  0  0  0
  6 32  1  0  0  0  0
  6 33  1  0  0  0  0
  7  8  1  0  0  0  0
  8  9  1  0  0  0  0
  8 34  1  0  0  0  0
  8 35  1  0  0  0  0
  9 36  1  0  0  0  0
  9 37  1  0  0  0  0
 10 11  1  0  0  0  0
 10 38  1  0  0  0  0
 11 12  2  0  0  0  0
 11 27  1  0  0  0  0
 12 13  1  0  0  0  0
 12 39  1  0  0  0  0
 13 14  2  0  0  0  0
 13 40  1  0  0  0  0
 14 15  1  0  0  0  0
 14 26  1  0  0  0  0
 15 16  1  0  0  0  0
 16 17  1  0  0  0  0
 16 21  1  0  0  0  0
 16 41  1  0  0  0  0
 17 18  1  0  0  0  0
 17 42  1  0  0  0  0
 17 43  1  0  0  0  0
 18 19  1  0  0  0  0
 18 44  1  0  0  0  0
 18 45  1  0  0  0  0
 19 20  1  0  0  0  0
 19 22  1  0  0  0  0
 20 21  1  0  0  0  0
 20 46  1  0  0  0  0
 20 47  1  0  0  0  0
 21 48  1  0  0  0  0
 21 49  1  0  0  0  0
 22 23  1  0  0  0  0
 22 25  1  0  0  0  0
 22 50  1  0  0  0  0
 23 24  1  0  0  0  0
 23 51  1  0  0  0  0
 23 52  1  0  0  0  0
 24 25  1  0  0  0  0
 24 53  1  0  0  0  0
 24 54  1  0  0  0  0
 25 55  1  0  0  0  0
 25 56  1  0  0  0  0
 26 27  2  0  0  0  0
 26 57  1  0  0  0  0
 27 58  1  0  0  0  0
M  END
>  <DRUGBANK_ID>
DB14835

>  <COMMON_NAME>
SUVN-G3031

>  <CAS_NUMBER>
1394808-82-2

>  <UNII>
65V47O9NOP

$$$$
