
 OpenBabel10282417072D

 64 68  0  0  0  0  0  0  0  0999 V2000
   -0.8723   -2.8854    0.0000 F   0  0  0  0  0  0  0  0  0  0  0  0
    2.1324    1.2302    0.0000 O   0  0  0  0  0  0  0  0  0  0  0  0
    2.8929    0.3951    0.0000 O   0  0  0  0  0  0  0  0  0  0  0  0
   -1.5656    0.8425    0.0000 O   0  0  0  0  0  0  0  0  0  0  0  0
    2.0206    2.0428    0.0000 O   0  0  0  0  0  0  0  0  0  0  0  0
    0.5965    2.8854    0.0000 O   0  0  0  0  0  0  0  0  0  0  0  0
   -3.7279   -2.0578    0.0000 O   0  0  0  0  0  0  0  0  0  0  0  0
    0.5667   -0.4175    0.0000 C   0  0  2  0  0  0  0  0  0  0  0  0
    0.5741    0.4026    0.0000 C   0  0  1  0  0  0  0  0  0  0  0  0
   -0.1491   -0.8201    0.0000 C   0  0  1  0  0  0  0  0  0  0  0  0
    1.2899    0.8127    0.0000 C   0  0  1  0  0  0  0  0  0  0  0  0
   -0.8648   -0.4026    0.0000 C   0  0  1  0  0  0  0  0  0  0  0  0
    1.9982    0.3876    0.0000 C   0  0  1  0  0  0  0  0  0  0  0  0
   -1.5807   -0.8127    0.0000 C   0  0  2  0  0  0  0  0  0  0  0  0
    1.9908   -0.4324    0.0000 C   0  0  0  0  0  0  0  0  0  0  0  0
   -0.8574    0.4175    0.0000 C   0  0  2  0  0  0  0  0  0  0  0  0
   -0.1415    0.8275    0.0000 C   0  0  0  0  0  0  0  0  0  0  0  0
   -0.1491   -1.6478    0.0000 C   0  0  0  0  0  0  0  0  0  0  0  0
    1.2973    1.6403    0.0000 C   0  0  0  0  0  0  0  0  0  0  0  0
   -1.5807   -1.6403    0.0000 C   0  0  0  0  0  0  0  0  0  0  0  0
    2.9302    1.2302    0.0000 C   0  0  0  0  0  0  0  0  0  0  0  0
    0.5517    1.2749    0.0000 C   0  0  0  0  0  0  0  0  0  0  0  0
   -0.8723   -2.0578    0.0000 C   0  0  1  0  0  0  0  0  0  0  0  0
   -2.2964   -0.4026    0.0000 C   0  0  0  0  0  0  0  0  0  0  0  0
   -1.5807   -0.0671    0.0000 C   0  0  0  0  0  0  0  0  0  0  0  0
   -2.2964   -2.0578    0.0000 C   0  0  0  0  0  0  0  0  0  0  0  0
    0.5891    2.0578    0.0000 C   0  0  0  0  0  0  0  0  0  0  0  0
   -3.0122   -0.8127    0.0000 C   0  0  0  0  0  0  0  0  0  0  0  0
    2.8929    1.9459    0.0000 C   0  0  0  0  0  0  0  0  0  0  0  0
    3.7279    1.2302    0.0000 C   0  0  0  0  0  0  0  0  0  0  0  0
   -3.0122   -1.6403    0.0000 C   0  0  0  0  0  0  0  0  0  0  0  0
   -1.5492    1.8124    0.0000 H   0  0  0  0  0  0  0  0  0  0  0  0
    1.4408    3.3629    0.0000 H   0  0  0  0  0  0  0  0  0  0  0  0
    1.3306    0.3317    0.0000 H   0  0  0  0  0  0  0  0  0  0  0  0
    0.7745   -1.3603    0.0000 H   0  0  0  0  0  0  0  0  0  0  0  0
    0.0654    0.1261    0.0000 H   0  0  0  0  0  0  0  0  0  0  0  0
    2.7546   -0.3692    0.0000 H   0  0  0  0  0  0  0  0  0  0  0  0
    2.7400   -1.1963    0.0000 H   0  0  0  0  0  0  0  0  0  0  0  0
    2.9831   -0.0322    0.0000 H   0  0  0  0  0  0  0  0  0  0  0  0
   -0.8465    1.4874    0.0000 H   0  0  0  0  0  0  0  0  0  0  0  0
   -0.1331    1.8975    0.0000 H   0  0  0  0  0  0  0  0  0  0  0  0
   -1.0651    1.3677    0.0000 H   0  0  0  0  0  0  0  0  0  0  0  0
    0.7754   -2.1864    0.0000 H   0  0  0  0  0  0  0  0  0  0  0  0
   -0.1554   -2.7178    0.0000 H   0  0  0  0  0  0  0  0  0  0  0  0
    1.4643    1.8335    0.0000 H   0  0  0  0  0  0  0  0  0  0  0  0
   -0.3884    1.7859    0.0000 H   0  0  0  0  0  0  0  0  0  0  0  0
    0.5242    2.3445    0.0000 H   0  0  0  0  0  0  0  0  0  0  0  0
    0.0522   -2.5964    0.0000 H   0  0  0  0  0  0  0  0  0  0  0  0
   -2.2964    0.6674    0.0000 H   0  0  0  0  0  0  0  0  0  0  0  0
   -3.2221    0.1340    0.0000 H   0  0  0  0  0  0  0  0  0  0  0  0
   -0.6541    0.4679    0.0000 H   0  0  0  0  0  0  0  0  0  0  0  0
   -2.5073    0.4679    0.0000 H   0  0  0  0  0  0  0  0  0  0  0  0
   -1.5807    1.0029    0.0000 H   0  0  0  0  0  0  0  0  0  0  0  0
   -2.2964   -3.0898    0.0000 H   0  0  0  0  0  0  0  0  0  0  0  0
   -0.3423    1.5312    0.0000 H   0  0  0  0  0  0  0  0  0  0  0  0
    0.5794    0.9878    0.0000 H   0  0  0  0  0  0  0  0  0  0  0  0
   -3.9380   -0.2762    0.0000 H   0  0  0  0  0  0  0  0  0  0  0  0
   -3.9393   -1.3469    0.0000 H   0  0  0  0  0  0  0  0  0  0  0  0
    3.7904    2.5284    0.0000 H   0  0  0  0  0  0  0  0  0  0  0  0
    1.9397    2.4319    0.0000 H   0  0  0  0  0  0  0  0  0  0  0  0
    2.8372    3.0144    0.0000 H   0  0  0  0  0  0  0  0  0  0  0  0
    4.2629    0.3036    0.0000 H   0  0  0  0  0  0  0  0  0  0  0  0
    4.2629    2.1568    0.0000 H   0  0  0  0  0  0  0  0  0  0  0  0
    4.7979    1.2302    0.0000 H   0  0  0  0  0  0  0  0  0  0  0  0
  2 11  1  0  0  0  0
  2 21  1  0  0  0  0
  3 13  1  0  0  0  0
  3 21  1  0  0  0  0
  4 32  1  0  0  0  0
  5 19  2  0  0  0  0
  6 27  1  0  0  0  0
  6 33  1  0  0  0  0
  7 31  2  0  0  0  0
  8  9  1  0  0  0  0
  8 10  1  0  0  0  0
  8 15  1  0  0  0  0
  8 34  1  6  0  0  0
  9 11  1  0  0  0  0
  9 17  1  0  0  0  0
  9 22  1  1  0  0  0
 10 12  1  0  0  0  0
 10 18  1  0  0  0  0
 10 35  1  1  0  0  0
 11 13  1  0  0  0  0
 11 19  1  1  0  0  0
 12 14  1  0  0  0  0
 12 16  1  0  0  0  0
 12 36  1  6  0  0  0
 13 15  1  0  0  0  0
 13 37  1  1  0  0  0
 14 20  1  0  0  0  0
 14 24  1  0  0  0  0
 14 25  1  1  0  0  0
 15 38  1  0  0  0  0
 15 39  1  0  0  0  0
 16  4  1  0  0  0  0
 16 17  1  0  0  0  0
 16 40  1  6  0  0  0
 17 41  1  0  0  0  0
 17 42  1  0  0  0  0
 18 23  1  0  0  0  0
 18 43  1  0  0  0  0
 18 44  1  0  0  0  0
 19 27  1  0  0  0  0
 20 23  1  0  0  0  0
 20 26  2  0  0  0  0
 21 29  1  0  0  0  0
 21 30  1  0  0  0  0
 22 45  1  0  0  0  0
 22 46  1  0  0  0  0
 22 47  1  0  0  0  0
 23  1  1  0  0  0  0
 23 48  1  1  0  0  0
 24 28  1  0  0  0  0
 24 49  1  0  0  0  0
 24 50  1  0  0  0  0
 25 51  1  0  0  0  0
 25 52  1  0  0  0  0
 25 53  1  0  0  0  0
 26 31  1  0  0  0  0
 26 54  1  0  0  0  0
 27 55  1  0  0  0  0
 27 56  1  0  0  0  0
 28 31  1  0  0  0  0
 28 57  1  0  0  0  0
 28 58  1  0  0  0  0
 29 59  1  0  0  0  0
 29 60  1  0  0  0  0
 29 61  1  0  0  0  0
 30 62  1  0  0  0  0
 30 63  1  0  0  0  0
 30 64  1  0  0  0  0
M  END
>  <DRUGBANK_ID>
DB00846

>  <SECONDARY_ACCESSION_NUMBERS>
APRD00982

>  <COMMON_NAME>
Flurandrenolide

>  <CAS_NUMBER>
1524-88-5

>  <UNII>
8EUL29XUQT

>  <SYNONYMS>
Fludroxicortida; Fludroxicortide; Fludroxycortid; Fludroxycortide; Fludroxycortidum; Flurandrenolide; Flurandrenolone

$$$$
