
 OpenBabel10282417072D

 53 54  0  0  0  0  0  0  0  0999 V2000
   13.5749   -7.0125    0.0000 C   0  0  0  0  0  0  0  0  0  0  0  0
   14.2894   -5.7750    0.0000 C   0  0  0  0  0  0  0  0  0  0  0  0
    5.0013   -2.0625    0.0000 C   0  0  0  0  0  0  0  0  0  0  0  0
   12.1460   -2.8875    0.0000 C   0  0  0  0  0  0  0  0  0  0  0  0
   12.8605   -6.6000    0.0000 C   0  0  0  0  0  0  0  0  0  0  0  0
   13.5749   -5.3625    0.0000 C   0  0  0  0  0  0  0  0  0  0  0  0
    5.7158   -1.6500    0.0000 C   0  0  0  0  0  0  0  0  0  0  0  0
   10.0026   -1.6500    0.0000 C   0  0  0  0  0  0  0  0  0  0  0  0
   10.7171   -2.0625    0.0000 C   0  0  0  0  0  0  0  0  0  0  0  0
   12.1460   -4.5375    0.0000 C   0  0  0  0  0  0  0  0  0  0  0  0
   12.1460   -5.3625    0.0000 C   0  0  0  0  0  0  0  0  0  0  0  0
    9.2881   -2.8875    0.0000 C   0  0  0  0  0  0  0  0  0  0  0  0
    7.8592   -2.0625    0.0000 C   0  0  0  0  0  0  0  0  0  0  0  0
   11.4315   -3.3000    0.0000 C   0  0  0  0  0  0  0  0  0  0  0  0
    9.2881   -2.0625    0.0000 C   0  0  0  0  0  0  0  0  0  0  0  0
   10.7171   -2.8875    0.0000 C   0  0  0  0  0  0  0  0  0  0  0  0
   11.4315   -4.1250    0.0000 C   0  0  0  0  0  0  0  0  0  0  0  0
   10.0026   -3.3000    0.0000 C   0  0  0  0  0  0  0  0  0  0  0  0
    7.1447   -1.6500    0.0000 C   0  0  0  0  0  0  0  0  0  0  0  0
   10.7171   -4.5375    0.0000 C   0  0  0  0  0  0  0  0  0  0  0  0
   12.8605   -5.7750    0.0000 N   0  0  0  0  0  0  0  0  0  0  0  0
    7.1447   -0.8250    0.0000 O   0  0  0  0  0  0  0  0  0  0  0  0
   10.7171   -5.3625    0.0000 O   0  0  0  0  0  0  0  0  0  0  0  0
    6.4302   -2.0625    0.0000 O   0  0  0  0  0  0  0  0  0  0  0  0
    8.5737   -1.6500    0.0000 O   0  0  0  0  0  0  0  0  0  0  0  0
   10.0026   -4.1250    0.0000 O   0  0  0  0  0  0  0  0  0  0  0  0
   13.5749   -8.0825    0.0000 H   0  0  0  0  0  0  0  0  0  0  0  0
   14.5016   -6.4775    0.0000 H   0  0  0  0  0  0  0  0  0  0  0  0
   14.5015   -7.5475    0.0000 H   0  0  0  0  0  0  0  0  0  0  0  0
   14.2894   -6.8450    0.0000 H   0  0  0  0  0  0  0  0  0  0  0  0
   15.2160   -5.2400    0.0000 H   0  0  0  0  0  0  0  0  0  0  0  0
   15.2161   -6.3100    0.0000 H   0  0  0  0  0  0  0  0  0  0  0  0
    4.0747   -1.5275    0.0000 H   0  0  0  0  0  0  0  0  0  0  0  0
    5.0013   -3.1325    0.0000 H   0  0  0  0  0  0  0  0  0  0  0  0
    4.0746   -2.5975    0.0000 H   0  0  0  0  0  0  0  0  0  0  0  0
   13.0726   -3.4225    0.0000 H   0  0  0  0  0  0  0  0  0  0  0  0
   12.1460   -1.8175    0.0000 H   0  0  0  0  0  0  0  0  0  0  0  0
   13.0727   -2.3525    0.0000 H   0  0  0  0  0  0  0  0  0  0  0  0
   11.9338   -7.1350    0.0000 H   0  0  0  0  0  0  0  0  0  0  0  0
   11.9339   -6.0650    0.0000 H   0  0  0  0  0  0  0  0  0  0  0  0
   13.5749   -4.2925    0.0000 H   0  0  0  0  0  0  0  0  0  0  0  0
   12.6482   -4.8275    0.0000 H   0  0  0  0  0  0  0  0  0  0  0  0
    5.7158   -0.5800    0.0000 H   0  0  0  0  0  0  0  0  0  0  0  0
    6.6425   -1.1150    0.0000 H   0  0  0  0  0  0  0  0  0  0  0  0
   10.0026   -0.6180    0.0000 H   0  0  0  0  0  0  0  0  0  0  0  0
   11.6108   -1.5465    0.0000 H   0  0  0  0  0  0  0  0  0  0  0  0
   13.0726   -4.0025    0.0000 H   0  0  0  0  0  0  0  0  0  0  0  0
   12.1460   -3.4675    0.0000 H   0  0  0  0  0  0  0  0  0  0  0  0
   11.2194   -5.8975    0.0000 H   0  0  0  0  0  0  0  0  0  0  0  0
   12.1460   -6.4325    0.0000 H   0  0  0  0  0  0  0  0  0  0  0  0
    8.3944   -3.4035    0.0000 H   0  0  0  0  0  0  0  0  0  0  0  0
    7.8592   -3.1325    0.0000 H   0  0  0  0  0  0  0  0  0  0  0  0
    8.7858   -2.5975    0.0000 H   0  0  0  0  0  0  0  0  0  0  0  0
  1 27  1  0  0  0  0
  1 28  1  0  0  0  0
  1 29  1  0  0  0  0
  2 30  1  0  0  0  0
  2 31  1  0  0  0  0
  2 32  1  0  0  0  0
  3 33  1  0  0  0  0
  3 34  1  0  0  0  0
  3 35  1  0  0  0  0
  4 36  1  0  0  0  0
  4 37  1  0  0  0  0
  4 38  1  0  0  0  0
  5  1  1  0  0  0  0
  5 39  1  0  0  0  0
  5 40  1  0  0  0  0
  6  2  1  0  0  0  0
  6 41  1  0  0  0  0
  6 42  1  0  0  0  0
  7  3  1  0  0  0  0
  7 43  1  0  0  0  0
  7 44  1  0  0  0  0
  8 45  1  0  0  0  0
  9  8  2  0  0  0  0
  9 46  1  0  0  0  0
 10 47  1  0  0  0  0
 10 48  1  0  0  0  0
 11 10  1  0  0  0  0
 11 49  1  0  0  0  0
 11 50  1  0  0  0  0
 12 51  1  0  0  0  0
 13 52  1  0  0  0  0
 13 53  1  0  0  0  0
 14  4  1  0  0  0  0
 15  8  1  0  0  0  0
 15 12  2  0  0  0  0
 16  9  1  0  0  0  0
 16 14  1  0  0  0  0
 17 10  1  0  0  0  0
 17 14  2  0  0  0  0
 18 12  1  0  0  0  0
 18 16  2  0  0  0  0
 19 13  1  0  0  0  0
 20 17  1  0  0  0  0
 21  5  1  0  0  0  0
 21  6  1  0  0  0  0
 21 11  1  0  0  0  0
 22 19  2  0  0  0  0
 23 20  2  0  0  0  0
 24  7  1  0  0  0  0
 24 19  1  0  0  0  0
 25 13  1  0  0  0  0
 25 15  1  0  0  0  0
 26 18  1  0  0  0  0
 26 20  1  0  0  0  0
M  END
>  <DRUGBANK_ID>
DB13279

>  <COMMON_NAME>
Carbocromen

>  <CAS_NUMBER>
804-10-4

>  <UNII>
R0C9NIE5JJ

>  <SYNONYMS>
Carbocromen; Chromonar

$$$$
