[NO NAME]
 OpenBabel10282417072D
Created with ChemWriter - http://chemwriter.com
 73 76  0  0  1  0  0  0  0  0999 V2000
   -0.7145    0.4125    0.0000 C   0  0  1  0  0  0  0  0  0  0  0  0
   -0.7145   -0.4125    0.0000 C   0  0  0  0  0  0  0  0  0  0  0  0
    0.7145   -0.4125    0.0000 C   0  0  0  0  0  0  0  0  0  0  0  0
    0.0000   -0.8250    0.0000 C   0  0  0  0  0  0  0  0  0  0  0  0
    0.0000    0.8250    0.0000 C   0  0  2  0  0  0  0  0  0  0  0  0
    0.7145    0.4125    0.0000 C   0  0  2  0  0  0  0  0  0  0  0  0
    2.6985    1.2375    0.0000 C   0  0  2  0  0  0  0  0  0  0  0  0
    2.2135    0.5700    0.0000 C   0  0  0  0  0  0  0  0  0  0  0  0
    3.5235    1.2375    0.0000 C   0  0  0  0  0  0  0  0  0  0  0  0
    0.0000    1.6500    0.0000 C   0  0  1  0  0  0  0  0  0  0  0  0
   -0.7145    2.0625    0.0000 O   0  0  0  0  0  0  0  0  0  0  0  0
   -1.4290    0.8250    0.0000 C   0  0  0  0  0  0  0  0  0  0  0  0
   -1.4290   -0.8250    0.0000 C   0  0  0  0  0  0  0  0  0  0  0  0
   -2.1434    0.4125    0.0000 C   0  0  0  0  0  0  0  0  0  0  0  0
   -2.1434   -0.4125    0.0000 C   0  0  0  0  0  0  0  0  0  0  0  0
   -2.8579   -0.8250    0.0000 O   0  0  0  0  0  0  0  0  0  0  0  0
    0.0000    0.0000    0.0000 Cl  0  0  0  0  0  0  0  0  0  0  0  0
    0.7145    1.2375    0.0000 H   0  0  0  0  0  0  0  0  0  0  0  0
    1.4289    1.6500    0.0000 C   0  0  1  0  0  0  0  0  0  0  0  0
    1.4289    2.4750    0.0000 C   0  0  0  0  0  0  0  0  0  0  0  0
    1.4289    0.8250    0.0000 C   0  0  2  0  0  0  0  0  0  0  0  0
   -0.7145    1.2375    0.0000 C   0  0  0  0  0  0  0  0  0  0  0  0
    0.7145    2.0625    0.0000 C   0  0  0  0  0  0  0  0  0  0  0  0
    1.4289    0.0000    0.0000 H   0  0  0  0  0  0  0  0  0  0  0  0
    3.6424    1.9049    0.0000 C   0  0  0  0  0  0  0  0  0  0  0  0
    2.9280    2.3174    0.0000 C   0  0  0  0  0  0  0  0  0  0  0  0
    2.9280    3.1424    0.0000 O   0  0  0  0  0  0  0  0  0  0  0  0
    5.0714    1.9049    0.0000 C   0  0  0  0  0  0  0  0  0  0  0  0
    5.7859    2.3174    0.0000 C   0  0  0  0  0  0  0  0  0  0  0  0
    5.0714    1.0799    0.0000 O   0  0  0  0  0  0  0  0  0  0  0  0
    6.5004    1.9049    0.0000 C   0  0  0  0  0  0  0  0  0  0  0  0
    4.3569    2.3174    0.0000 O   0  0  0  0  0  0  0  0  0  0  0  0
    0.0001    3.3000    0.0000 C   0  0  0  0  0  0  0  0  0  0  0  0
    2.2135    1.9049    0.0000 C   0  0  1  0  0  0  0  0  0  0  0  0
    2.2135    2.8875    0.0000 O   0  0  0  0  0  0  0  0  0  0  0  0
    1.4289    3.3000    0.0000 C   0  0  0  0  0  0  0  0  0  0  0  0
    1.4289    4.1250    0.0000 O   0  0  0  0  0  0  0  0  0  0  0  0
    0.7145    2.8875    0.0000 C   0  0  0  0  0  0  0  0  0  0  0  0
    1.6411   -0.9475    0.0000 H   0  0  0  0  0  0  0  0  0  0  0  0
    1.6411    0.1225    0.0000 H   0  0  0  0  0  0  0  0  0  0  0  0
    0.0000   -1.8950    0.0000 H   0  0  0  0  0  0  0  0  0  0  0  0
    0.9266   -1.3600    0.0000 H   0  0  0  0  0  0  0  0  0  0  0  0
    3.1842    2.1909    0.0000 H   0  0  0  0  0  0  0  0  0  0  0  0
    2.5441   -0.4476    0.0000 H   0  0  0  0  0  0  0  0  0  0  0  0
    1.4568   -0.1866    0.0000 H   0  0  0  0  0  0  0  0  0  0  0  0
    4.0585    0.3109    0.0000 H   0  0  0  0  0  0  0  0  0  0  0  0
    4.0585    2.1641    0.0000 H   0  0  0  0  0  0  0  0  0  0  0  0
    4.5935    1.2375    0.0000 H   0  0  0  0  0  0  0  0  0  0  0  0
   -0.9266    1.1150    0.0000 H   0  0  0  0  0  0  0  0  0  0  0  0
   -0.7145    3.0325    0.0000 H   0  0  0  0  0  0  0  0  0  0  0  0
   -1.4290    1.8570    0.0000 H   0  0  0  0  0  0  0  0  0  0  0  0
   -1.4290   -1.8570    0.0000 H   0  0  0  0  0  0  0  0  0  0  0  0
   -3.0371    0.9285    0.0000 H   0  0  0  0  0  0  0  0  0  0  0  0
    2.3555    3.0100    0.0000 H   0  0  0  0  0  0  0  0  0  0  0  0
    0.5023    3.0100    0.0000 H   0  0  0  0  0  0  0  0  0  0  0  0
    1.4289    3.5450    0.0000 H   0  0  0  0  0  0  0  0  0  0  0  0
    0.2121    1.7725    0.0000 H   0  0  0  0  0  0  0  0  0  0  0  0
   -1.6411    1.7725    0.0000 H   0  0  0  0  0  0  0  0  0  0  0  0
   -0.7145    2.3075    0.0000 H   0  0  0  0  0  0  0  0  0  0  0  0
    0.7145    3.1325    0.0000 H   0  0  0  0  0  0  0  0  0  0  0  0
    1.6412    2.5975    0.0000 H   0  0  0  0  0  0  0  0  0  0  0  0
    3.6424    0.8349    0.0000 H   0  0  0  0  0  0  0  0  0  0  0  0
    4.5690    1.3699    0.0000 H   0  0  0  0  0  0  0  0  0  0  0  0
    5.7859    3.3874    0.0000 H   0  0  0  0  0  0  0  0  0  0  0  0
    6.7125    2.8524    0.0000 H   0  0  0  0  0  0  0  0  0  0  0  0
    6.5004    0.8349    0.0000 H   0  0  0  0  0  0  0  0  0  0  0  0
    7.4270    2.4399    0.0000 H   0  0  0  0  0  0  0  0  0  0  0  0
    7.4271    1.3699    0.0000 H   0  0  0  0  0  0  0  0  0  0  0  0
    0.0001    4.3700    0.0000 H   0  0  0  0  0  0  0  0  0  0  0  0
   -0.9266    2.7650    0.0000 H   0  0  0  0  0  0  0  0  0  0  0  0
   -0.9265    3.8350    0.0000 H   0  0  0  0  0  0  0  0  0  0  0  0
    0.7145    1.8175    0.0000 H   0  0  0  0  0  0  0  0  0  0  0  0
   -0.2122    2.3525    0.0000 H   0  0  0  0  0  0  0  0  0  0  0  0
  1 12  1  0  0  0  0
  1 22  1  1  0  0  0
  1  2  1  0  0  0  0
  2 13  2  0  0  0  0
  3  4  1  0  0  0  0
  3 39  1  0  0  0  0
  3 40  1  0  0  0  0
  4  2  1  0  0  0  0
  4 41  1  0  0  0  0
  4 42  1  0  0  0  0
  5  1  1  0  0  0  0
  5 10  1  0  0  0  0
  5 17  1  6  0  0  0
  6  5  1  0  0  0  0
  6  3  1  0  0  0  0
  6 18  1  1  0  0  0
  7  8  1  0  0  0  0
  7  9  1  0  0  0  0
  7 43  1  6  0  0  0
  8 44  1  0  0  0  0
  8 45  1  0  0  0  0
  9 46  1  0  0  0  0
  9 47  1  0  0  0  0
  9 48  1  0  0  0  0
 10 23  1  0  0  0  0
 10 11  1  0  0  0  0
 10 49  1  6  0  0  0
 11 50  1  0  0  0  0
 12 14  2  0  0  0  0
 12 51  1  0  0  0  0
 13 15  1  0  0  0  0
 13 52  1  0  0  0  0
 14 15  1  0  0  0  0
 14 53  1  0  0  0  0
 15 16  2  0  0  0  0
 19 34  1  0  0  0  0
 19 23  1  0  0  0  0
 19 20  1  1  0  0  0
 20 54  1  0  0  0  0
 20 55  1  0  0  0  0
 20 56  1  0  0  0  0
 21  6  1  0  0  0  0
 21  8  1  0  0  0  0
 21 19  1  0  0  0  0
 21 24  1  6  0  0  0
 22 57  1  0  0  0  0
 22 58  1  0  0  0  0
 22 59  1  0  0  0  0
 23 60  1  0  0  0  0
 23 61  1  0  0  0  0
 25 32  1  0  0  0  0
 25 62  1  0  0  0  0
 25 63  1  0  0  0  0
 26 25  1  0  0  0  0
 26 27  2  0  0  0  0
 28 29  1  0  0  0  0
 28 30  2  0  0  0  0
 29 31  1  0  0  0  0
 29 64  1  0  0  0  0
 29 65  1  0  0  0  0
 31 66  1  0  0  0  0
 31 67  1  0  0  0  0
 31 68  1  0  0  0  0
 32 28  1  0  0  0  0
 33 69  1  0  0  0  0
 33 70  1  0  0  0  0
 33 71  1  0  0  0  0
 34  7  1  0  0  0  0
 34 26  1  1  0  0  0
 34 35  1  0  0  0  0
 35 36  1  0  0  0  0
 36 38  1  0  0  0  0
 36 37  2  0  0  0  0
 38 33  1  0  0  0  0
 38 72  1  0  0  0  0
 38 73  1  0  0  0  0
M  END
>  <DRUGBANK_ID>
DB00394

>  <SECONDARY_ACCESSION_NUMBERS>
APRD00564; DB11897

>  <COMMON_NAME>
Beclomethasone dipropionate

>  <CAS_NUMBER>
5534-09-8

>  <UNII>
5B307S63B2

>  <SYNONYMS>
(11β,16β)-9-chloro-11-hydroxy-16-methyl-17,21-bis(1-oxopropoxy)pregna-1,4-diene-3,20-dione; 9-chloro-11β-hydroxy-16β-methylpregna-1,4-diene-3,20-dione 17,21-dipropionate; 9-chloro-16β-methyl-11β,17,21-trihydroxypregna-1,4-diene-3,20-dione 17,21-dipropionate; beclometasone 17,21-dipropionate; Beclometasone dipropionate; Beclometasone dipropionate anhydrous; Beclometasone dipropionato; Beclomethasone dipropionate

$$$$
