
 OpenBabel10282417072D

 61 66  0  0  0  0  0  0  0  0999 V2000
    9.5541    6.5568    0.0000 C   0  0  0  0  0  0  0  0  0  0  0  0
    9.2186    5.8031    0.0000 C   0  0  0  0  0  0  0  0  0  0  0  0
    9.7035    5.1357    0.0000 C   0  0  0  0  0  0  0  0  0  0  0  0
    8.3981    5.7169    0.0000 N   0  0  0  0  0  0  0  0  0  0  0  0
    8.0625    4.9632    0.0000 C   0  0  0  0  0  0  0  0  0  0  0  0
    7.2420    4.8770    0.0000 C   0  0  0  0  0  0  0  0  0  0  0  0
    6.7571    5.5444    0.0000 N   0  0  0  0  0  0  0  0  0  0  0  0
    5.9366    5.4582    0.0000 C   0  0  0  0  0  0  0  0  0  0  0  0
    5.6011    4.7045    0.0000 C   0  0  0  0  0  0  0  0  0  0  0  0
    6.0136    3.9900    0.0000 C   0  0  0  0  0  0  0  0  0  0  0  0
    5.4615    3.3769    0.0000 N   0  0  0  0  0  0  0  0  0  0  0  0
    4.7079    3.7125    0.0000 C   0  0  0  0  0  0  0  0  0  0  0  0
    4.7941    4.5330    0.0000 O   0  0  0  0  0  0  0  0  0  0  0  0
    3.9934    3.3000    0.0000 C   0  0  0  0  0  0  0  0  0  0  0  0
    3.9934    2.4750    0.0000 C   0  0  0  0  0  0  0  0  0  0  0  0
    3.2789    2.0625    0.0000 C   0  0  0  0  0  0  0  0  0  0  0  0
    2.5645    2.4750    0.0000 C   0  0  0  0  0  0  0  0  0  0  0  0
    2.5645    3.3000    0.0000 C   0  0  0  0  0  0  0  0  0  0  0  0
    3.2789    3.7125    0.0000 C   0  0  0  0  0  0  0  0  0  0  0  0
    3.1074    4.5195    0.0000 C   0  0  0  0  0  0  0  0  0  0  0  0
    2.2869    4.6057    0.0000 N   0  0  0  0  0  0  0  0  0  0  0  0
    1.9514    3.8520    0.0000 N   0  0  0  0  0  0  0  0  0  0  0  0
    3.2789    1.2375    0.0000 C   0  0  0  0  0  0  0  0  0  0  0  0
    3.9934    0.8250    0.0000 C   0  0  0  0  0  0  0  0  0  0  0  0
    3.9934    0.0000    0.0000 C   0  0  0  0  0  0  0  0  0  0  0  0
    3.2789   -0.4125    0.0000 C   0  0  0  0  0  0  0  0  0  0  0  0
    2.5645    0.0000    0.0000 C   0  0  0  0  0  0  0  0  0  0  0  0
    2.5645    0.8250    0.0000 C   0  0  0  0  0  0  0  0  0  0  0  0
    1.7798    1.0799    0.0000 C   0  0  0  0  0  0  0  0  0  0  0  0
    1.2949    0.4125    0.0000 C   0  0  0  0  0  0  0  0  0  0  0  0
    1.7798   -0.2549    0.0000 N   0  0  0  0  0  0  0  0  0  0  0  0
    7.0927    6.2981    0.0000 C   0  0  0  0  0  0  0  0  0  0  0  0
    7.9132    6.3843    0.0000 C   0  0  0  0  0  0  0  0  0  0  0  0
   10.6182    6.6687    0.0000 H   0  0  0  0  0  0  0  0  0  0  0  0
    8.9251    7.4224    0.0000 H   0  0  0  0  0  0  0  0  0  0  0  0
    9.9892    7.5343    0.0000 H   0  0  0  0  0  0  0  0  0  0  0  0
    8.7834    4.8256    0.0000 H   0  0  0  0  0  0  0  0  0  0  0  0
    9.2683    4.1582    0.0000 H   0  0  0  0  0  0  0  0  0  0  0  0
   10.7676    5.2476    0.0000 H   0  0  0  0  0  0  0  0  0  0  0  0
   10.3324    4.2701    0.0000 H   0  0  0  0  0  0  0  0  0  0  0  0
    8.6914    4.0975    0.0000 H   0  0  0  0  0  0  0  0  0  0  0  0
    7.6272    3.9857    0.0000 H   0  0  0  0  0  0  0  0  0  0  0  0
    6.8068    3.8995    0.0000 H   0  0  0  0  0  0  0  0  0  0  0  0
    6.1779    4.7652    0.0000 H   0  0  0  0  0  0  0  0  0  0  0  0
    5.3077    6.3238    0.0000 H   0  0  0  0  0  0  0  0  0  0  0  0
    4.8725    5.3463    0.0000 H   0  0  0  0  0  0  0  0  0  0  0  0
    7.0399    3.8821    0.0000 H   0  0  0  0  0  0  0  0  0  0  0  0
    4.8871    1.9590    0.0000 H   0  0  0  0  0  0  0  0  0  0  0  0
    1.6708    1.9590    0.0000 H   0  0  0  0  0  0  0  0  0  0  0  0
    3.7979    5.2864    0.0000 H   0  0  0  0  0  0  0  0  0  0  0  0
    0.9884    3.6473    0.0000 H   0  0  0  0  0  0  0  0  0  0  0  0
    4.8871    1.3410    0.0000 H   0  0  0  0  0  0  0  0  0  0  0  0
    4.8871   -0.5160    0.0000 H   0  0  0  0  0  0  0  0  0  0  0  0
    3.2789   -1.4445    0.0000 H   0  0  0  0  0  0  0  0  0  0  0  0
    1.4609    2.0614    0.0000 H   0  0  0  0  0  0  0  0  0  0  0  0
    0.2629    0.4125    0.0000 H   0  0  0  0  0  0  0  0  0  0  0  0
    1.4755   -1.1912    0.0000 H   0  0  0  0  0  0  0  0  0  0  0  0
    6.4638    7.1638    0.0000 H   0  0  0  0  0  0  0  0  0  0  0  0
    7.5280    7.2756    0.0000 H   0  0  0  0  0  0  0  0  0  0  0  0
    8.3484    7.3618    0.0000 H   0  0  0  0  0  0  0  0  0  0  0  0
    8.9773    6.4961    0.0000 H   0  0  0  0  0  0  0  0  0  0  0  0
  1  2  1  0  0  0  0
  1 34  1  0  0  0  0
  1 35  1  0  0  0  0
  1 36  1  0  0  0  0
  2  3  1  0  0  0  0
  2  4  1  0  0  0  0
  2 37  1  0  0  0  0
  3 38  1  0  0  0  0
  3 39  1  0  0  0  0
  3 40  1  0  0  0  0
  4  5  1  0  0  0  0
  4 33  1  0  0  0  0
  5  6  1  0  0  0  0
  5 41  1  0  0  0  0
  5 42  1  0  0  0  0
  6  7  1  0  0  0  0
  6 43  1  0  0  0  0
  6 44  1  0  0  0  0
  7  8  1  0  0  0  0
  7 32  1  0  0  0  0
  8  9  1  0  0  0  0
  8 45  1  0  0  0  0
  8 46  1  0  0  0  0
  9 10  2  0  0  0  0
  9 13  1  0  0  0  0
 10 11  1  0  0  0  0
 10 47  1  0  0  0  0
 11 12  2  0  0  0  0
 12 13  1  0  0  0  0
 12 14  1  0  0  0  0
 14 15  2  0  0  0  0
 14 19  1  0  0  0  0
 15 16  1  0  0  0  0
 15 48  1  0  0  0  0
 16 17  2  0  0  0  0
 16 23  1  0  0  0  0
 17 18  1  0  0  0  0
 17 49  1  0  0  0  0
 18 19  2  0  0  0  0
 18 22  1  0  0  0  0
 19 20  1  0  0  0  0
 20 21  2  0  0  0  0
 20 50  1  0  0  0  0
 21 22  1  0  0  0  0
 22 51  1  0  0  0  0
 23 24  2  0  0  0  0
 23 28  1  0  0  0  0
 24 25  1  0  0  0  0
 24 52  1  0  0  0  0
 25 26  2  0  0  0  0
 25 53  1  0  0  0  0
 26 27  1  0  0  0  0
 26 54  1  0  0  0  0
 27 28  2  0  0  0  0
 27 31  1  0  0  0  0
 28 29  1  0  0  0  0
 29 30  2  0  0  0  0
 29 55  1  0  0  0  0
 30 31  1  0  0  0  0
 30 56  1  0  0  0  0
 31 57  1  0  0  0  0
 32 33  1  0  0  0  0
 32 58  1  0  0  0  0
 32 59  1  0  0  0  0
 33 60  1  0  0  0  0
 33 61  1  0  0  0  0
M  END
>  <DRUGBANK_ID>
DB16253

>  <COMMON_NAME>
Nemiralisib

>  <CAS_NUMBER>
1254036-71-9

>  <UNII>
OEP8JJ3OZR

>  <SYNONYMS>
Nemiralisib

$$$$
