
 OpenBabel10282417072D

 52 48  0  0  0  0  0  0  0  0999 V2000
   -5.1728    0.2868    0.0000 Fe  0  1  0  0  0  0  0  0  0  0  0  0
    3.8178   -0.1456    0.0000 O   0  0  0  0  0  0  0  0  0  0  0  0
    2.3883   -0.9707    0.0000 O   0  0  0  0  0  0  0  0  0  0  0  0
    0.9633   -0.1457    0.0000 O   0  0  0  0  0  0  0  0  0  0  0  0
    0.3343   -0.6793    0.0000 O   0  0  0  0  0  0  0  0  0  0  0  0
   -0.3781   -0.2668    0.0000 C   0  0  2  0  0  0  0  0  0  0  0  0
   -1.0951   -1.5046    0.0000 O   0  0  0  0  0  0  0  0  0  0  0  0
   -1.0951   -0.6794    0.0000 C   0  0  1  0  0  0  0  0  0  0  0  0
   -2.5200   -0.6794    0.0000 O   0  0  0  0  0  0  0  0  0  0  0  0
   -1.8075   -0.2669    0.0000 C   0  0  2  0  0  0  0  0  0  0  0  0
   -3.1491    0.4372    0.0000 O   0  0  0  0  0  0  0  0  0  0  0  0
   -2.5200    0.9707    0.0000 C   0  0  0  0  0  0  0  0  0  0  0  0
   -1.8075    0.5581    0.0000 C   0  0  1  0  0  0  0  0  0  0  0  0
   -1.0951    0.9708    0.0000 O   0  0  0  0  0  0  0  0  0  0  0  0
   -0.3781    0.5582    0.0000 C   0  0  2  0  0  0  0  0  0  0  0  0
    0.3343    0.9708    0.0000 O   0  0  0  0  0  0  0  0  0  0  0  0
    0.9633    1.5045    0.0000 C   0  0  0  0  0  0  0  0  0  0  0  0
    2.3883    1.5046    0.0000 O   0  0  0  0  0  0  0  0  0  0  0  0
    1.6758    1.0919    0.0000 C   0  0  1  0  0  0  0  0  0  0  0  0
    1.6758    0.2669    0.0000 C   0  0  2  0  0  0  0  0  0  0  0  0
    2.3883   -0.1457    0.0000 C   0  0  1  0  0  0  0  0  0  0  0  0
    3.1053    0.2670    0.0000 C   0  0  2  0  0  0  0  0  0  0  0  0
    3.1053    1.0920    0.0000 C   0  0  0  0  0  0  0  0  0  0  0  0
    3.8178    1.5046    0.0000 O   0  0  0  0  0  0  0  0  0  0  0  0
    5.4142    0.0779    0.0000 O   0  5  0  0  0  0  0  0  0  0  0  0
    5.3696    1.0136    0.0000 O   0  5  0  0  0  0  0  0  0  0  0  0
    5.4587   -0.9023    0.0000 O   0  5  0  0  0  0  0  0  0  0  0  0
    3.8165   -1.1156    0.0000 H   0  0  0  0  0  0  0  0  0  0  0  0
    1.5483   -1.4557    0.0000 H   0  0  0  0  0  0  0  0  0  0  0  0
    0.1226    0.3382    0.0000 H   0  0  0  0  0  0  0  0  0  0  0  0
    0.3331   -1.6493    0.0000 H   0  0  0  0  0  0  0  0  0  0  0  0
    0.5489    0.2676    0.0000 H   0  0  0  0  0  0  0  0  0  0  0  0
   -1.9351   -1.9896    0.0000 H   0  0  0  0  0  0  0  0  0  0  0  0
   -0.1688   -1.2151    0.0000 H   0  0  0  0  0  0  0  0  0  0  0  0
   -3.3606   -0.1954    0.0000 H   0  0  0  0  0  0  0  0  0  0  0  0
   -1.8075   -1.3369    0.0000 H   0  0  0  0  0  0  0  0  0  0  0  0
   -4.0623    0.7642    0.0000 H   0  0  0  0  0  0  0  0  0  0  0  0
   -2.6153    2.0364    0.0000 H   0  0  0  0  0  0  0  0  0  0  0  0
   -1.6178    1.5459    0.0000 H   0  0  0  0  0  0  0  0  0  0  0  0
   -2.7345    0.0237    0.0000 H   0  0  0  0  0  0  0  0  0  0  0  0
    0.5489    0.0238    0.0000 H   0  0  0  0  0  0  0  0  0  0  0  0
    0.8678    2.5702    0.0000 H   0  0  0  0  0  0  0  0  0  0  0  0
    1.8655    2.0798    0.0000 H   0  0  0  0  0  0  0  0  0  0  0  0
    3.2290    1.0208    0.0000 H   0  0  0  0  0  0  0  0  0  0  0  0
    1.6757    2.1619    0.0000 H   0  0  0  0  0  0  0  0  0  0  0  0
    0.7488    0.8013    0.0000 H   0  0  0  0  0  0  0  0  0  0  0  0
    1.4613   -0.6801    0.0000 H   0  0  0  0  0  0  0  0  0  0  0  0
    3.1039   -0.8030    0.0000 H   0  0  0  0  0  0  0  0  0  0  0  0
    2.2112    1.6074    0.0000 H   0  0  0  0  0  0  0  0  0  0  0  0
    6.3842    0.0779    0.0000 H   0  0  0  0  0  0  0  0  0  0  0  0
    6.3396    1.0136    0.0000 H   0  0  0  0  0  0  0  0  0  0  0  0
    6.4287   -0.9023    0.0000 H   0  0  0  0  0  0  0  0  0  0  0  0
  2 28  1  0  0  0  0
  3 29  1  0  0  0  0
  4 30  1  0  0  0  0
  5 31  1  0  0  0  0
  6  5  1  0  0  0  0
  6  8  1  0  0  0  0
  6 32  1  1  0  0  0
  7 33  1  0  0  0  0
  8  7  1  0  0  0  0
  8 10  1  0  0  0  0
  8 34  1  6  0  0  0
  9 35  1  0  0  0  0
 10  9  1  0  0  0  0
 10 13  1  0  0  0  0
 10 36  1  1  0  0  0
 11 12  1  0  0  0  0
 11 37  1  0  0  0  0
 12 38  1  0  0  0  0
 12 39  1  0  0  0  0
 13 12  1  0  0  0  0
 13 14  1  0  0  0  0
 13 40  1  6  0  0  0
 14 15  1  0  0  0  0
 15  6  1  0  0  0  0
 15 16  1  0  0  0  0
 15 41  1  1  0  0  0
 16 17  1  0  0  0  0
 17 42  1  0  0  0  0
 17 43  1  0  0  0  0
 18 44  1  0  0  0  0
 19 17  1  0  0  0  0
 19 18  1  0  0  0  0
 19 45  1  6  0  0  0
 20  4  1  0  0  0  0
 20 19  1  0  0  0  0
 20 46  1  1  0  0  0
 21  3  1  0  0  0  0
 21 20  1  0  0  0  0
 21 47  1  6  0  0  0
 22  2  1  0  0  0  0
 22 21  1  0  0  0  0
 22 48  1  1  0  0  0
 23 22  1  0  0  0  0
 23 24  2  0  0  0  0
 23 49  1  0  0  0  0
 25 50  1  0  0  0  0
 26 51  1  0  0  0  0
 27 52  1  0  0  0  0
M  CHG  4   1   3  25  -1  26  -1  27  -1
M  END
>  <DRUGBANK_ID>
DB15763

>  <COMMON_NAME>
Iron polymaltose

>  <CAS_NUMBER>
53858-86-9

>  <UNII>
UM5219H89V

>  <SYNONYMS>
Ferric hydroxide polymaltose complex; Ferromaltose; Iron polymaltose; Iron polymaltose complex; Iron(III)-hydroxide polymaltose complex

$$$$
