
 OpenBabel10282417072D

211218  0  0  1  0  0  0  0  0999 V2000
  -11.6784   -0.4024    0.0000 C   0  0  0  0  0  0  0  0  0  0  0  0
  -11.3039   -1.1375    0.0000 C   0  0  0  0  0  0  0  0  0  0  0  0
  -11.7533   -1.8294    0.0000 C   0  0  0  0  0  0  0  0  0  0  0  0
  -12.5771   -1.7861    0.0000 C   0  0  0  0  0  0  0  0  0  0  0  0
  -12.9516   -1.0510    0.0000 C   0  0  0  0  0  0  0  0  0  0  0  0
  -12.5022   -0.3591    0.0000 C   0  0  0  0  0  0  0  0  0  0  0  0
  -13.0265   -2.4780    0.0000 C   0  0  0  0  0  0  0  0  0  0  0  0
  -13.8504   -2.4347    0.0000 C   0  0  0  0  0  0  0  0  0  0  0  0
  -14.2998   -3.1266    0.0000 C   0  0  0  0  0  0  0  0  0  0  0  0
  -15.1236   -3.0834    0.0000 C   0  0  0  0  0  0  0  0  0  0  0  0
  -15.4981   -2.3483    0.0000 C   0  0  0  0  0  0  0  0  0  0  0  0
  -15.0487   -1.6564    0.0000 C   0  0  0  0  0  0  0  0  0  0  0  0
  -14.2249   -1.6996    0.0000 C   0  0  0  0  0  0  0  0  0  0  0  0
  -12.6520   -3.2131    0.0000 C   0  0  1  0  0  0  0  0  0  0  0  0
  -13.1014   -3.9050    0.0000 C   0  0  0  0  0  0  0  0  0  0  0  0
  -12.7269   -4.6401    0.0000 O   0  0  0  0  0  0  0  0  0  0  0  0
  -13.9253   -3.8617    0.0000 N   0  0  0  0  0  0  0  0  0  0  0  0
  -14.3747   -4.5536    0.0000 C   0  0  1  0  0  0  0  0  0  0  0  0
  -15.1985   -4.5103    0.0000 C   0  0  0  0  0  0  0  0  0  0  0  0
  -15.6479   -5.2022    0.0000 C   0  0  0  0  0  0  0  0  0  0  0  0
  -16.4718   -5.1590    0.0000 C   0  0  0  0  0  0  0  0  0  0  0  0
  -16.9211   -5.8508    0.0000 C   0  0  0  0  0  0  0  0  0  0  0  0
  -17.7450   -5.8076    0.0000 N   0  0  0  0  0  0  0  0  0  0  0  0
  -14.0002   -5.2887    0.0000 C   0  0  0  0  0  0  0  0  0  0  0  0
  -13.1763   -5.3319    0.0000 O   0  0  0  0  0  0  0  0  0  0  0  0
  -14.4496   -5.9806    0.0000 N   0  0  0  0  0  0  0  0  0  0  0  0
  -11.8282   -3.2563    0.0000 N   0  0  0  0  0  0  0  0  0  0  0  0
  -11.3788   -2.5645    0.0000 C   0  0  0  0  0  0  0  0  0  0  0  0
  -11.2497   -1.7496    0.0000 O   0  0  0  0  0  0  0  0  0  0  0  0
  -10.5549   -2.6077    0.0000 C   0  0  2  0  0  0  0  0  0  0  0  0
  -10.1804   -3.3428    0.0000 C   0  0  0  0  0  0  0  0  0  0  0  0
  -10.6298   -4.0347    0.0000 C   0  0  0  0  0  0  0  0  0  0  0  0
  -11.4537   -4.0778    0.0000 C   0  0  0  0  0  0  0  0  0  0  0  0
  -11.6673   -4.8747    0.0000 N   0  0  0  0  0  0  0  0  0  0  0  0
  -10.9754   -5.3241    0.0000 C   0  0  0  0  0  0  0  0  0  0  0  0
  -10.3342   -4.8049    0.0000 C   0  0  0  0  0  0  0  0  0  0  0  0
   -9.5640   -5.1006    0.0000 C   0  0  0  0  0  0  0  0  0  0  0  0
   -9.4350   -5.9155    0.0000 C   0  0  0  0  0  0  0  0  0  0  0  0
  -10.0762   -6.4346    0.0000 C   0  0  0  0  0  0  0  0  0  0  0  0
  -10.8464   -6.1389    0.0000 C   0  0  0  0  0  0  0  0  0  0  0  0
  -10.1055   -1.9158    0.0000 N   0  0  0  0  0  0  0  0  0  0  0  0
   -9.2817   -1.9591    0.0000 C   0  0  0  0  0  0  0  0  0  0  0  0
   -8.9072   -2.6942    0.0000 O   0  0  0  0  0  0  0  0  0  0  0  0
   -8.8323   -1.2672    0.0000 C   0  0  2  0  0  0  0  0  0  0  0  0
   -9.2068   -0.5321    0.0000 C   0  0  0  0  0  0  0  0  0  0  0  0
  -10.0306   -0.4889    0.0000 C   0  0  0  0  0  0  0  0  0  0  0  0
  -10.4051    0.2462    0.0000 C   0  0  0  0  0  0  0  0  0  0  0  0
  -11.2290    0.2895    0.0000 C   0  0  0  0  0  0  0  0  0  0  0  0
  -11.6035    1.0246    0.0000 N   0  0  0  0  0  0  0  0  0  0  0  0
   -8.0084   -1.3105    0.0000 N   0  0  0  0  0  0  0  0  0  0  0  0
   -7.5590   -0.6186    0.0000 C   0  0  0  0  0  0  0  0  0  0  0  0
   -7.9335    0.1165    0.0000 O   0  0  0  0  0  0  0  0  0  0  0  0
   -6.7352   -0.6618    0.0000 C   0  0  2  0  0  0  0  0  0  0  0  0
   -6.3607   -1.3969    0.0000 C   0  0  0  0  0  0  0  0  0  0  0  0
   -6.8101   -2.0888    0.0000 C   0  0  0  0  0  0  0  0  0  0  0  0
   -7.6339   -2.0456    0.0000 C   0  0  0  0  0  0  0  0  0  0  0  0
   -8.0833   -2.7374    0.0000 C   0  0  0  0  0  0  0  0  0  0  0  0
   -7.7088   -3.4725    0.0000 N   0  0  0  0  0  0  0  0  0  0  0  0
   -6.2858    0.0300    0.0000 N   0  0  0  0  0  0  0  0  0  0  0  0
   -5.4619   -0.0132    0.0000 C   0  0  0  0  0  0  0  0  0  0  0  0
   -5.0874   -0.7483    0.0000 O   0  0  0  0  0  0  0  0  0  0  0  0
   -5.0125    0.6787    0.0000 C   0  0  2  0  0  0  0  0  0  0  0  0
   -5.3870    1.4138    0.0000 C   0  0  0  0  0  0  0  0  0  0  0  0
   -6.2109    1.4570    0.0000 C   0  0  0  0  0  0  0  0  0  0  0  0
   -6.7301    0.8159    0.0000 C   0  0  0  0  0  0  0  0  0  0  0  0
   -7.5003    1.1116    0.0000 N   0  0  0  0  0  0  0  0  0  0  0  0
   -7.4571    1.9355    0.0000 C   0  0  0  0  0  0  0  0  0  0  0  0
   -6.6602    2.1490    0.0000 C   0  0  0  0  0  0  0  0  0  0  0  0
   -6.4466    2.9458    0.0000 C   0  0  0  0  0  0  0  0  0  0  0  0
   -7.0299    3.5292    0.0000 C   0  0  0  0  0  0  0  0  0  0  0  0
   -7.8268    3.3158    0.0000 C   0  0  0  0  0  0  0  0  0  0  0  0
   -8.0404    2.5189    0.0000 C   0  0  0  0  0  0  0  0  0  0  0  0
   -4.1887    0.6354    0.0000 N   0  0  0  0  0  0  0  0  0  0  0  0
   -3.7393    1.3273    0.0000 C   0  0  0  0  0  0  0  0  0  0  0  0
   -4.1138    2.0624    0.0000 O   0  0  0  0  0  0  0  0  0  0  0  0
   -2.9154    1.2840    0.0000 C   0  0  2  0  0  0  0  0  0  0  0  0
   -2.4660    1.9759    0.0000 C   0  0  0  0  0  0  0  0  0  0  0  0
   -1.6422    1.9327    0.0000 C   0  0  0  0  0  0  0  0  0  0  0  0
   -1.1929    1.2407    0.0000 C   0  0  0  0  0  0  0  0  0  0  0  0
   -0.3960    1.4542    0.0000 N   0  0  0  0  0  0  0  0  0  0  0  0
   -0.3528    2.2781    0.0000 C   0  0  0  0  0  0  0  0  0  0  0  0
   -1.1229    2.5738    0.0000 C   0  0  0  0  0  0  0  0  0  0  0  0
   -1.2519    3.3886    0.0000 C   0  0  0  0  0  0  0  0  0  0  0  0
   -0.6107    3.9078    0.0000 C   0  0  0  0  0  0  0  0  0  0  0  0
    0.1594    3.6121    0.0000 C   0  0  0  0  0  0  0  0  0  0  0  0
    0.2884    2.7972    0.0000 C   0  0  0  0  0  0  0  0  0  0  0  0
   -2.5409    0.5489    0.0000 N   0  0  0  0  0  0  0  0  0  0  0  0
   -2.9903   -0.1429    0.0000 C   0  0  0  0  0  0  0  0  0  0  0  0
   -3.8142   -0.0997    0.0000 O   0  0  0  0  0  0  0  0  0  0  0  0
   -2.6158   -0.8780    0.0000 C   0  0  2  0  0  0  0  0  0  0  0  0
   -1.7920   -0.9213    0.0000 C   0  0  0  0  0  0  0  0  0  0  0  0
   -1.3426   -0.2294    0.0000 C   0  0  0  0  0  0  0  0  0  0  0  0
   -0.5187   -0.2727    0.0000 C   0  0  0  0  0  0  0  0  0  0  0  0
   -0.0693    0.4192    0.0000 C   0  0  0  0  0  0  0  0  0  0  0  0
    0.7545    0.3760    0.0000 N   0  0  0  0  0  0  0  0  0  0  0  0
   -3.0652   -1.5699    0.0000 N   0  0  0  0  0  0  0  0  0  0  0  0
   -2.6907   -2.3050    0.0000 C   0  0  0  0  0  0  0  0  0  0  0  0
   -1.8669   -2.3483    0.0000 O   0  0  0  0  0  0  0  0  0  0  0  0
   -3.1401   -2.9969    0.0000 C   0  0  2  0  0  0  0  0  0  0  0  0
   -2.7656   -3.7320    0.0000 C   0  0  0  0  0  0  0  0  0  0  0  0
   -3.2150   -4.4239    0.0000 C   0  0  0  0  0  0  0  0  0  0  0  0
   -2.8405   -5.1590    0.0000 C   0  0  0  0  0  0  0  0  0  0  0  0
   -3.2899   -5.8508    0.0000 C   0  0  0  0  0  0  0  0  0  0  0  0
   -2.9154   -6.5860    0.0000 N   0  0  0  0  0  0  0  0  0  0  0  0
   -3.9640   -2.9536    0.0000 N   0  0  0  0  0  0  0  0  0  0  0  0
  -11.1162    0.4630    0.0000 H   0  0  0  0  0  0  0  0  0  0  0  0
  -10.2733   -1.1916    0.0000 H   0  0  0  0  0  0  0  0  0  0  0  0
  -11.2849   -2.7490    0.0000 H   0  0  0  0  0  0  0  0  0  0  0  0
  -13.9822   -0.9969    0.0000 H   0  0  0  0  0  0  0  0  0  0  0  0
  -12.9706    0.5605    0.0000 H   0  0  0  0  0  0  0  0  0  0  0  0
  -13.6094   -3.3753    0.0000 H   0  0  0  0  0  0  0  0  0  0  0  0
  -13.8313   -4.0461    0.0000 H   0  0  0  0  0  0  0  0  0  0  0  0
  -15.6857   -3.9489    0.0000 H   0  0  0  0  0  0  0  0  0  0  0  0
  -16.5287   -2.2942    0.0000 H   0  0  0  0  0  0  0  0  0  0  0  0
  -15.5172   -0.7369    0.0000 H   0  0  0  0  0  0  0  0  0  0  0  0
  -13.6628   -0.8341    0.0000 H   0  0  0  0  0  0  0  0  0  0  0  0
  -12.0692   -2.3157    0.0000 H   0  0  0  0  0  0  0  0  0  0  0  0
  -14.3722   -2.9845    0.0000 H   0  0  0  0  0  0  0  0  0  0  0  0
  -14.8604   -3.6002    0.0000 H   0  0  0  0  0  0  0  0  0  0  0  0
  -15.6842   -3.5569    0.0000 H   0  0  0  0  0  0  0  0  0  0  0  0
  -16.2670   -4.4542    0.0000 H   0  0  0  0  0  0  0  0  0  0  0  0
  -15.1622   -6.1556    0.0000 H   0  0  0  0  0  0  0  0  0  0  0  0
  -16.2307   -6.0996    0.0000 H   0  0  0  0  0  0  0  0  0  0  0  0
  -16.9575   -4.2056    0.0000 H   0  0  0  0  0  0  0  0  0  0  0  0
  -17.5403   -5.1030    0.0000 H   0  0  0  0  0  0  0  0  0  0  0  0
  -16.4354   -6.8042    0.0000 H   0  0  0  0  0  0  0  0  0  0  0  0
  -17.5039   -6.7482    0.0000 H   0  0  0  0  0  0  0  0  0  0  0  0
  -18.2080   -4.8988    0.0000 H   0  0  0  0  0  0  0  0  0  0  0  0
  -18.3006   -6.6630    0.0000 H   0  0  0  0  0  0  0  0  0  0  0  0
  -15.4327   -5.9290    0.0000 H   0  0  0  0  0  0  0  0  0  0  0  0
  -14.0027   -6.8578    0.0000 H   0  0  0  0  0  0  0  0  0  0  0  0
  -11.3813   -4.1335    0.0000 H   0  0  0  0  0  0  0  0  0  0  0  0
  -11.0406   -1.6543    0.0000 H   0  0  0  0  0  0  0  0  0  0  0  0
   -9.1119   -3.3989    0.0000 H   0  0  0  0  0  0  0  0  0  0  0  0
   -9.6947   -4.2962    0.0000 H   0  0  0  0  0  0  0  0  0  0  0  0
  -12.1031   -3.2757    0.0000 H   0  0  0  0  0  0  0  0  0  0  0  0
  -12.5864   -5.2274    0.0000 H   0  0  0  0  0  0  0  0  0  0  0  0
   -8.7619   -4.4512    0.0000 H   0  0  0  0  0  0  0  0  0  0  0  0
   -8.4716   -6.2854    0.0000 H   0  0  0  0  0  0  0  0  0  0  0  0
   -9.9149   -7.4539    0.0000 H   0  0  0  0  0  0  0  0  0  0  0  0
  -11.6485   -6.7883    0.0000 H   0  0  0  0  0  0  0  0  0  0  0  0
  -10.5524   -1.0386    0.0000 H   0  0  0  0  0  0  0  0  0  0  0  0
   -8.3466   -2.2206    0.0000 H   0  0  0  0  0  0  0  0  0  0  0  0
   -8.6240    0.3653    0.0000 H   0  0  0  0  0  0  0  0  0  0  0  0
   -9.6925    0.4213    0.0000 H   0  0  0  0  0  0  0  0  0  0  0  0
  -10.6134   -1.3863    0.0000 H   0  0  0  0  0  0  0  0  0  0  0  0
  -11.0991   -0.4328    0.0000 H   0  0  0  0  0  0  0  0  0  0  0  0
   -9.8222    1.1435    0.0000 H   0  0  0  0  0  0  0  0  0  0  0  0
  -10.8908    1.1996    0.0000 H   0  0  0  0  0  0  0  0  0  0  0  0
  -11.8119   -0.6078    0.0000 H   0  0  0  0  0  0  0  0  0  0  0  0
  -12.2975    0.3456    0.0000 H   0  0  0  0  0  0  0  0  0  0  0  0
  -11.0479    1.8800    0.0000 H   0  0  0  0  0  0  0  0  0  0  0  0
  -12.6221    1.0780    0.0000 H   0  0  0  0  0  0  0  0  0  0  0  0
   -7.5615   -2.1877    0.0000 H   0  0  0  0  0  0  0  0  0  0  0  0
   -7.2209    0.2916    0.0000 H   0  0  0  0  0  0  0  0  0  0  0  0
   -5.2922   -1.4530    0.0000 H   0  0  0  0  0  0  0  0  0  0  0  0
   -5.8750   -2.3503    0.0000 H   0  0  0  0  0  0  0  0  0  0  0  0
   -6.3244   -3.0422    0.0000 H   0  0  0  0  0  0  0  0  0  0  0  0
   -7.3929   -2.9862    0.0000 H   0  0  0  0  0  0  0  0  0  0  0  0
   -8.1196   -1.0922    0.0000 H   0  0  0  0  0  0  0  0  0  0  0  0
   -8.7024   -1.9895    0.0000 H   0  0  0  0  0  0  0  0  0  0  0  0
   -9.1518   -2.6813    0.0000 H   0  0  0  0  0  0  0  0  0  0  0  0
   -8.6661   -3.6347    0.0000 H   0  0  0  0  0  0  0  0  0  0  0  0
   -8.2644   -4.3279    0.0000 H   0  0  0  0  0  0  0  0  0  0  0  0
   -6.6902   -3.5259    0.0000 H   0  0  0  0  0  0  0  0  0  0  0  0
   -6.7327    0.9072    0.0000 H   0  0  0  0  0  0  0  0  0  0  0  0
   -4.5268   -0.2747    0.0000 H   0  0  0  0  0  0  0  0  0  0  0  0
   -4.8042    2.3112    0.0000 H   0  0  0  0  0  0  0  0  0  0  0  0
   -5.8727    2.3672    0.0000 H   0  0  0  0  0  0  0  0  0  0  0  0
   -6.4630   -0.1809    0.0000 H   0  0  0  0  0  0  0  0  0  0  0  0
   -8.3260    0.5754    0.0000 H   0  0  0  0  0  0  0  0  0  0  0  0
   -5.4497    3.2128    0.0000 H   0  0  0  0  0  0  0  0  0  0  0  0
   -6.7627    4.5260    0.0000 H   0  0  0  0  0  0  0  0  0  0  0  0
   -8.5564    4.0456    0.0000 H   0  0  0  0  0  0  0  0  0  0  0  0
   -9.0373    2.2519    0.0000 H   0  0  0  0  0  0  0  0  0  0  0  0
   -3.7418   -0.2418    0.0000 H   0  0  0  0  0  0  0  0  0  0  0  0
   -3.4983    0.3867    0.0000 H   0  0  0  0  0  0  0  0  0  0  0  0
   -2.9517    2.9293    0.0000 H   0  0  0  0  0  0  0  0  0  0  0  0
   -1.8832    2.8733    0.0000 H   0  0  0  0  0  0  0  0  0  0  0  0
   -1.5628    0.2773    0.0000 H   0  0  0  0  0  0  0  0  0  0  0  0
    0.3691    0.8346    0.0000 H   0  0  0  0  0  0  0  0  0  0  0  0
   -2.2153    3.7585    0.0000 H   0  0  0  0  0  0  0  0  0  0  0  0
   -0.7721    4.9271    0.0000 H   0  0  0  0  0  0  0  0  0  0  0  0
    0.9615    4.2615    0.0000 H   0  0  0  0  0  0  0  0  0  0  0  0
    1.2518    2.4273    0.0000 H   0  0  0  0  0  0  0  0  0  0  0  0
   -1.5578    0.4973    0.0000 H   0  0  0  0  0  0  0  0  0  0  0  0
   -3.6843   -0.8219    0.0000 H   0  0  0  0  0  0  0  0  0  0  0  0
   -1.3063   -1.8747    0.0000 H   0  0  0  0  0  0  0  0  0  0  0  0
   -0.7235   -0.9774    0.0000 H   0  0  0  0  0  0  0  0  0  0  0  0
   -1.8283    0.7240    0.0000 H   0  0  0  0  0  0  0  0  0  0  0  0
   -0.7597    0.6679    0.0000 H   0  0  0  0  0  0  0  0  0  0  0  0
   -0.0330   -1.2261    0.0000 H   0  0  0  0  0  0  0  0  0  0  0  0
    0.5498   -0.3288    0.0000 H   0  0  0  0  0  0  0  0  0  0  0  0
   -0.5550    1.3726    0.0000 H   0  0  0  0  0  0  0  0  0  0  0  0
    0.5135    1.3166    0.0000 H   0  0  0  0  0  0  0  0  0  0  0  0
    1.2175   -0.5328    0.0000 H   0  0  0  0  0  0  0  0  0  0  0  0
    1.3101    1.2314    0.0000 H   0  0  0  0  0  0  0  0  0  0  0  0
   -4.0483   -1.5183    0.0000 H   0  0  0  0  0  0  0  0  0  0  0  0
   -3.6258   -2.0435    0.0000 H   0  0  0  0  0  0  0  0  0  0  0  0
   -1.6971   -3.7881    0.0000 H   0  0  0  0  0  0  0  0  0  0  0  0
   -2.2799   -4.6854    0.0000 H   0  0  0  0  0  0  0  0  0  0  0  0
   -4.2835   -4.3678    0.0000 H   0  0  0  0  0  0  0  0  0  0  0  0
   -3.7978   -5.3212    0.0000 H   0  0  0  0  0  0  0  0  0  0  0  0
   -1.7720   -5.2151    0.0000 H   0  0  0  0  0  0  0  0  0  0  0  0
   -2.3548   -6.1124    0.0000 H   0  0  0  0  0  0  0  0  0  0  0  0
   -4.3584   -5.7947    0.0000 H   0  0  0  0  0  0  0  0  0  0  0  0
   -3.8728   -6.7481    0.0000 H   0  0  0  0  0  0  0  0  0  0  0  0
   -3.4710   -7.4414    0.0000 H   0  0  0  0  0  0  0  0  0  0  0  0
   -1.8968   -6.6395    0.0000 H   0  0  0  0  0  0  0  0  0  0  0  0
   -4.4269   -2.0447    0.0000 H   0  0  0  0  0  0  0  0  0  0  0  0
   -4.5197   -3.8090    0.0000 H   0  0  0  0  0  0  0  0  0  0  0  0
  1  2  2  0  0  0  0
  1  6  1  0  0  0  0
  1106  1  0  0  0  0
  2  3  1  0  0  0  0
  2107  1  0  0  0  0
  3  4  2  0  0  0  0
  3108  1  0  0  0  0
  4  5  1  0  0  0  0
  4  7  1  0  0  0  0
  5  6  2  0  0  0  0
  5109  1  0  0  0  0
  6110  1  0  0  0  0
  7  8  1  0  0  0  0
  7 14  1  0  0  0  0
  7111  1  0  0  0  0
  8  9  2  0  0  0  0
  8 13  1  0  0  0  0
  9 10  1  0  0  0  0
  9112  1  0  0  0  0
 10 11  2  0  0  0  0
 10113  1  0  0  0  0
 11 12  1  0  0  0  0
 11114  1  0  0  0  0
 12 13  2  0  0  0  0
 12115  1  0  0  0  0
 13116  1  0  0  0  0
 14 15  1  0  0  0  0
 14 27  1  0  0  0  0
 14117  1  1  0  0  0
 15 16  2  0  0  0  0
 15 17  1  0  0  0  0
 17118  1  0  0  0  0
 18 17  1  0  0  0  0
 18 19  1  0  0  0  0
 18 24  1  0  0  0  0
 18119  1  1  0  0  0
 19 20  1  0  0  0  0
 19120  1  0  0  0  0
 19121  1  0  0  0  0
 20 21  1  0  0  0  0
 20122  1  0  0  0  0
 20123  1  0  0  0  0
 21 22  1  0  0  0  0
 21124  1  0  0  0  0
 21125  1  0  0  0  0
 22 23  1  0  0  0  0
 22126  1  0  0  0  0
 22127  1  0  0  0  0
 23128  1  0  0  0  0
 23129  1  0  0  0  0
 24 25  2  0  0  0  0
 24 26  1  0  0  0  0
 26130  1  0  0  0  0
 26131  1  0  0  0  0
 27 28  1  0  0  0  0
 27132  1  0  0  0  0
 28 29  2  0  0  0  0
 28 30  1  0  0  0  0
 30 31  1  0  0  0  0
 30 41  1  0  0  0  0
 30133  1  6  0  0  0
 31 32  1  0  0  0  0
 31134  1  0  0  0  0
 31135  1  0  0  0  0
 32 33  2  0  0  0  0
 32 36  1  0  0  0  0
 33 34  1  0  0  0  0
 33136  1  0  0  0  0
 34 35  1  0  0  0  0
 34137  1  0  0  0  0
 35 36  1  0  0  0  0
 35 40  2  0  0  0  0
 36 37  2  0  0  0  0
 37 38  1  0  0  0  0
 37138  1  0  0  0  0
 38 39  2  0  0  0  0
 38139  1  0  0  0  0
 39 40  1  0  0  0  0
 39140  1  0  0  0  0
 40141  1  0  0  0  0
 41 42  1  0  0  0  0
 41142  1  0  0  0  0
 42 43  2  0  0  0  0
 42 44  1  0  0  0  0
 44 45  1  0  0  0  0
 44 50  1  0  0  0  0
 44143  1  1  0  0  0
 45 46  1  0  0  0  0
 45144  1  0  0  0  0
 45145  1  0  0  0  0
 46 47  1  0  0  0  0
 46146  1  0  0  0  0
 46147  1  0  0  0  0
 47 48  1  0  0  0  0
 47148  1  0  0  0  0
 47149  1  0  0  0  0
 48 49  1  0  0  0  0
 48150  1  0  0  0  0
 48151  1  0  0  0  0
 49152  1  0  0  0  0
 49153  1  0  0  0  0
 50 51  1  0  0  0  0
 50154  1  0  0  0  0
 51 52  2  0  0  0  0
 51 53  1  0  0  0  0
 53 54  1  0  0  0  0
 53 59  1  0  0  0  0
 53155  1  6  0  0  0
 54 55  1  0  0  0  0
 54156  1  0  0  0  0
 54157  1  0  0  0  0
 55 56  1  0  0  0  0
 55158  1  0  0  0  0
 55159  1  0  0  0  0
 56 57  1  0  0  0  0
 56160  1  0  0  0  0
 56161  1  0  0  0  0
 57 58  1  0  0  0  0
 57162  1  0  0  0  0
 57163  1  0  0  0  0
 58164  1  0  0  0  0
 58165  1  0  0  0  0
 59 60  1  0  0  0  0
 59166  1  0  0  0  0
 60 61  2  0  0  0  0
 60 62  1  0  0  0  0
 62 63  1  0  0  0  0
 62 73  1  0  0  0  0
 62167  1  1  0  0  0
 63 64  1  0  0  0  0
 63168  1  0  0  0  0
 63169  1  0  0  0  0
 64 65  2  0  0  0  0
 64 68  1  0  0  0  0
 65 66  1  0  0  0  0
 65170  1  0  0  0  0
 66 67  1  0  0  0  0
 66171  1  0  0  0  0
 67 68  1  0  0  0  0
 67 72  2  0  0  0  0
 68 69  2  0  0  0  0
 69 70  1  0  0  0  0
 69172  1  0  0  0  0
 70 71  2  0  0  0  0
 70173  1  0  0  0  0
 71 72  1  0  0  0  0
 71174  1  0  0  0  0
 72175  1  0  0  0  0
 73 74  1  0  0  0  0
 73176  1  0  0  0  0
 74 75  2  0  0  0  0
 74 76  1  0  0  0  0
 76 77  1  0  0  0  0
 76 87  1  0  0  0  0
 76177  1  1  0  0  0
 77 78  1  0  0  0  0
 77178  1  0  0  0  0
 77179  1  0  0  0  0
 78 79  2  0  0  0  0
 78 82  1  0  0  0  0
 79 80  1  0  0  0  0
 79180  1  0  0  0  0
 80 81  1  0  0  0  0
 80181  1  0  0  0  0
 81 82  1  0  0  0  0
 81 86  2  0  0  0  0
 82 83  2  0  0  0  0
 83 84  1  0  0  0  0
 83182  1  0  0  0  0
 84 85  2  0  0  0  0
 84183  1  0  0  0  0
 85 86  1  0  0  0  0
 85184  1  0  0  0  0
 86185  1  0  0  0  0
 87 88  1  0  0  0  0
 87186  1  0  0  0  0
 88 89  2  0  0  0  0
 88 90  1  0  0  0  0
 90 91  1  0  0  0  0
 90 96  1  0  0  0  0
 90187  1  1  0  0  0
 91 92  1  0  0  0  0
 91188  1  0  0  0  0
 91189  1  0  0  0  0
 92 93  1  0  0  0  0
 92190  1  0  0  0  0
 92191  1  0  0  0  0
 93 94  1  0  0  0  0
 93192  1  0  0  0  0
 93193  1  0  0  0  0
 94 95  1  0  0  0  0
 94194  1  0  0  0  0
 94195  1  0  0  0  0
 95196  1  0  0  0  0
 95197  1  0  0  0  0
 96 97  1  0  0  0  0
 96198  1  0  0  0  0
 97 98  2  0  0  0  0
 97 99  1  0  0  0  0
 99100  1  0  0  0  0
 99105  1  0  0  0  0
 99199  1  1  0  0  0
100101  1  0  0  0  0
100200  1  0  0  0  0
100201  1  0  0  0  0
101102  1  0  0  0  0
101202  1  0  0  0  0
101203  1  0  0  0  0
102103  1  0  0  0  0
102204  1  0  0  0  0
102205  1  0  0  0  0
103104  1  0  0  0  0
103206  1  0  0  0  0
103207  1  0  0  0  0
104208  1  0  0  0  0
104209  1  0  0  0  0
105210  1  0  0  0  0
105211  1  0  0  0  0
M  END
>  <DRUGBANK_ID>
DB12748

>  <COMMON_NAME>
LTX-315

>  <CAS_NUMBER>
1345407-05-7

>  <UNII>
75FBL12IZ7

$$$$
