
 OpenBabel10282417072D

120126  0  0  1  0  0  0  0  0999 V2000
   -6.8161    0.5033    0.0000 C   0  0  0  0  0  0  0  0  0  0  0  0
   -6.1016    0.9158    0.0000 C   0  0  0  0  0  0  0  0  0  0  0  0
   -6.1016    1.7408    0.0000 C   0  0  0  0  0  0  0  0  0  0  0  0
   -5.3872    0.5033    0.0000 O   0  0  0  0  0  0  0  0  0  0  0  0
   -4.6727    0.9158    0.0000 C   0  0  0  0  0  0  0  0  0  0  0  0
   -4.6727    1.7408    0.0000 O   0  0  0  0  0  0  0  0  0  0  0  0
   -3.9582    0.5033    0.0000 N   0  0  0  0  0  0  0  0  0  0  0  0
   -3.2437    0.9158    0.0000 C   0  0  2  0  0  0  0  0  0  0  0  0
   -2.5293    0.5033    0.0000 C   0  0  1  0  0  0  0  0  0  0  0  0
   -2.5293   -0.3217    0.0000 O   0  0  0  0  0  0  0  0  0  0  0  0
   -1.8148    0.9158    0.0000 C   0  0  0  0  0  0  0  0  0  0  0  0
   -1.8148    1.7408    0.0000 O   0  0  0  0  0  0  0  0  0  0  0  0
   -1.1003    0.5033    0.0000 O   0  0  0  0  0  0  0  0  0  0  0  0
   -0.3859    0.9158    0.0000 C   0  0  1  0  0  0  0  0  0  0  0  0
    0.3783    0.5288    0.0000 C   0  0  0  0  0  0  0  0  0  0  0  0
    1.1584    0.9418    0.0000 C   0  0  1  0  0  0  0  0  0  0  0  0
    1.4244    0.1608    0.0000 O   0  0  0  0  0  0  0  0  0  0  0  0
    2.0233    1.0898    0.0000 C   0  0  1  0  0  0  0  0  0  0  0  0
    2.4308    0.3725    0.0000 O   0  0  0  0  0  0  0  0  0  0  0  0
    2.0132   -0.3391    0.0000 C   0  0  0  0  0  0  0  0  0  0  0  0
    1.1882   -0.3333    0.0000 O   0  0  0  0  0  0  0  0  0  0  0  0
    2.4207   -1.0564    0.0000 C   0  0  0  0  0  0  0  0  0  0  0  0
    3.2457   -1.0623    0.0000 C   0  0  0  0  0  0  0  0  0  0  0  0
    3.6531   -1.7796    0.0000 C   0  0  0  0  0  0  0  0  0  0  0  0
    3.2356   -2.4912    0.0000 C   0  0  0  0  0  0  0  0  0  0  0  0
    2.4106   -2.4853    0.0000 C   0  0  0  0  0  0  0  0  0  0  0  0
    2.0031   -1.7680    0.0000 C   0  0  0  0  0  0  0  0  0  0  0  0
    2.5827    1.7443    0.0000 C   0  0  2  0  0  0  0  0  0  0  0  0
    3.3396    1.4160    0.0000 C   0  0  2  0  0  0  0  0  0  0  0  0
    3.8309    0.7532    0.0000 C   0  0  0  0  0  0  0  0  0  0  0  0
    4.4936    1.2445    0.0000 O   0  0  0  0  0  0  0  0  0  0  0  0
    4.0023    1.9073    0.0000 C   0  0  2  0  0  0  0  0  0  0  0  0
    3.9083    2.7269    0.0000 C   0  0  0  0  0  0  0  0  0  0  0  0
    3.1514    3.0552    0.0000 C   0  0  2  0  0  0  0  0  0  0  0  0
    3.0573    3.8748    0.0000 O   0  0  0  0  0  0  0  0  0  0  0  0
    2.4886    2.5639    0.0000 C   0  0  2  0  0  0  0  0  0  0  0  0
    2.4925    3.3889    0.0000 C   0  0  0  0  0  0  0  0  0  0  0  0
    1.8159    3.0725    0.0000 C   0  0  0  0  0  0  0  0  0  0  0  0
    2.0055    3.8754    0.0000 O   0  0  0  0  0  0  0  0  0  0  0  0
    0.9694    2.9152    0.0000 C   0  0  2  0  0  0  0  0  0  0  0  0
    0.5519    3.6268    0.0000 O   0  0  0  0  0  0  0  0  0  0  0  0
   -0.2731    3.6209    0.0000 C   0  0  0  0  0  0  0  0  0  0  0  0
   -0.6805    2.9036    0.0000 O   0  0  0  0  0  0  0  0  0  0  0  0
   -0.6906    4.3325    0.0000 C   0  0  0  0  0  0  0  0  0  0  0  0
   -1.5117    4.4129    0.0000 C   0  0  0  0  0  0  0  0  0  0  0  0
   -1.6889    5.2187    0.0000 C   0  0  0  0  0  0  0  0  0  0  0  0
   -0.9774    5.6362    0.0000 C   0  0  0  0  0  0  0  0  0  0  0  0
   -0.3604    5.0885    0.0000 C   0  0  0  0  0  0  0  0  0  0  0  0
    0.4088    2.2402    0.0000 C   0  0  0  0  0  0  0  0  0  0  0  0
   -0.3390    1.7712    0.0000 C   0  0  0  0  0  0  0  0  0  0  0  0
   -1.0497    2.1901    0.0000 C   0  0  0  0  0  0  0  0  0  0  0  0
    0.8282    1.6168    0.0000 C   0  0  0  0  0  0  0  0  0  0  0  0
    1.3371    2.2662    0.0000 C   0  0  0  0  0  0  0  0  0  0  0  0
    1.6451    1.7328    0.0000 C   0  0  0  0  0  0  0  0  0  0  0  0
    2.8266    0.7699    0.0000 O   0  0  0  0  0  0  0  0  0  0  0  0
    3.1296    0.0025    0.0000 C   0  0  0  0  0  0  0  0  0  0  0  0
    3.9456   -0.1187    0.0000 C   0  0  0  0  0  0  0  0  0  0  0  0
    2.6165   -0.6435    0.0000 O   0  0  0  0  0  0  0  0  0  0  0  0
   -3.2437    1.7408    0.0000 C   0  0  0  0  0  0  0  0  0  0  0  0
   -3.9112    2.2257    0.0000 C   0  0  0  0  0  0  0  0  0  0  0  0
   -3.6562    3.0104    0.0000 C   0  0  0  0  0  0  0  0  0  0  0  0
   -2.8312    3.0104    0.0000 C   0  0  0  0  0  0  0  0  0  0  0  0
   -2.5763    2.2257    0.0000 S   0  0  0  0  0  0  0  0  0  0  0  0
   -7.7427    1.0383    0.0000 H   0  0  0  0  0  0  0  0  0  0  0  0
   -6.8161   -0.5667    0.0000 H   0  0  0  0  0  0  0  0  0  0  0  0
   -7.7428   -0.0317    0.0000 H   0  0  0  0  0  0  0  0  0  0  0  0
   -5.1749    1.4508    0.0000 H   0  0  0  0  0  0  0  0  0  0  0  0
   -5.1750    2.2758    0.0000 H   0  0  0  0  0  0  0  0  0  0  0  0
   -7.0282    2.2758    0.0000 H   0  0  0  0  0  0  0  0  0  0  0  0
   -6.1016    2.8108    0.0000 H   0  0  0  0  0  0  0  0  0  0  0  0
   -3.9582   -0.4812    0.0000 H   0  0  0  0  0  0  0  0  0  0  0  0
   -3.2437   -0.1542    0.0000 H   0  0  0  0  0  0  0  0  0  0  0  0
   -3.4560   -0.0317    0.0000 H   0  0  0  0  0  0  0  0  0  0  0  0
   -3.3693   -0.8067    0.0000 H   0  0  0  0  0  0  0  0  0  0  0  0
   -0.3565   -0.1538    0.0000 H   0  0  0  0  0  0  0  0  0  0  0  0
    0.3880   -0.5412    0.0000 H   0  0  0  0  0  0  0  0  0  0  0  0
    1.2975   -0.0189    0.0000 H   0  0  0  0  0  0  0  0  0  0  0  0
    0.7856   -0.5691    0.0000 H   0  0  0  0  0  0  0  0  0  0  0  0
    1.5653    0.1228    0.0000 H   0  0  0  0  0  0  0  0  0  0  0  0
    3.7680   -0.1723    0.0000 H   0  0  0  0  0  0  0  0  0  0  0  0
    4.6851   -1.7869    0.0000 H   0  0  0  0  0  0  0  0  0  0  0  0
    3.7453   -3.3886    0.0000 H   0  0  0  0  0  0  0  0  0  0  0  0
    1.8883   -3.3754    0.0000 H   0  0  0  0  0  0  0  0  0  0  0  0
    0.9711   -1.7607    0.0000 H   0  0  0  0  0  0  0  0  0  0  0  0
    2.8237    0.7018    0.0000 H   0  0  0  0  0  0  0  0  0  0  0  0
    3.6737   -0.3052    0.0000 H   0  0  0  0  0  0  0  0  0  0  0  0
    4.7486    0.2029    0.0000 H   0  0  0  0  0  0  0  0  0  0  0  0
    3.8451    0.8489    0.0000 H   0  0  0  0  0  0  0  0  0  0  0  0
    4.7679    3.3641    0.0000 H   0  0  0  0  0  0  0  0  0  0  0  0
    3.7863    3.7899    0.0000 H   0  0  0  0  0  0  0  0  0  0  0  0
    4.0110    3.6924    0.0000 H   0  0  0  0  0  0  0  0  0  0  0  0
    3.8365    4.4525    0.0000 H   0  0  0  0  0  0  0  0  0  0  0  0
    3.4217    3.9195    0.0000 H   0  0  0  0  0  0  0  0  0  0  0  0
    1.5684    3.9283    0.0000 H   0  0  0  0  0  0  0  0  0  0  0  0
    2.4976    4.4589    0.0000 H   0  0  0  0  0  0  0  0  0  0  0  0
    1.4137    3.8886    0.0000 H   0  0  0  0  0  0  0  0  0  0  0  0
   -1.2322    5.2553    0.0000 H   0  0  0  0  0  0  0  0  0  0  0  0
   -2.2220    3.6127    0.0000 H   0  0  0  0  0  0  0  0  0  0  0  0
   -2.5472    4.6825    0.0000 H   0  0  0  0  0  0  0  0  0  0  0  0
   -2.6694    5.6470    0.0000 H   0  0  0  0  0  0  0  0  0  0  0  0
   -1.7524    6.2868    0.0000 H   0  0  0  0  0  0  0  0  0  0  0  0
   -0.8731    6.7011    0.0000 H   0  0  0  0  0  0  0  0  0  0  0  0
    0.0188    6.0267    0.0000 H   0  0  0  0  0  0  0  0  0  0  0  0
    0.6846    5.3184    0.0000 H   0  0  0  0  0  0  0  0  0  0  0  0
    0.3188    4.2617    0.0000 H   0  0  0  0  0  0  0  0  0  0  0  0
   -1.0401    3.2601    0.0000 H   0  0  0  0  0  0  0  0  0  0  0  0
   -1.9811    1.6635    0.0000 H   0  0  0  0  0  0  0  0  0  0  0  0
   -1.9715    2.7334    0.0000 H   0  0  0  0  0  0  0  0  0  0  0  0
    2.3965    2.1157    0.0000 H   0  0  0  0  0  0  0  0  0  0  0  0
    0.9377    3.2589    0.0000 H   0  0  0  0  0  0  0  0  0  0  0  0
    1.9971    3.1084    0.0000 H   0  0  0  0  0  0  0  0  0  0  0  0
    2.3051    0.8906    0.0000 H   0  0  0  0  0  0  0  0  0  0  0  0
    2.0445    2.7255    0.0000 H   0  0  0  0  0  0  0  0  0  0  0  0
    2.7045    1.8832    0.0000 H   0  0  0  0  0  0  0  0  0  0  0  0
    4.3387   -1.1139    0.0000 H   0  0  0  0  0  0  0  0  0  0  0  0
    4.6109    0.7193    0.0000 H   0  0  0  0  0  0  0  0  0  0  0  0
    5.0040   -0.2759    0.0000 H   0  0  0  0  0  0  0  0  0  0  0  0
   -4.8927    1.9068    0.0000 H   0  0  0  0  0  0  0  0  0  0  0  0
   -4.2628    3.8453    0.0000 H   0  0  0  0  0  0  0  0  0  0  0  0
   -2.2246    3.8453    0.0000 H   0  0  0  0  0  0  0  0  0  0  0  0
  1  2  1  0  0  0  0
  1 64  1  0  0  0  0
  1 65  1  0  0  0  0
  1 66  1  0  0  0  0
  2  3  1  0  0  0  0
  2  4  1  0  0  0  0
  2 67  1  0  0  0  0
  3 68  1  0  0  0  0
  3 69  1  0  0  0  0
  3 70  1  0  0  0  0
  4  5  1  0  0  0  0
  5  6  2  0  0  0  0
  5  7  1  0  0  0  0
  7 71  1  0  0  0  0
  8  7  1  0  0  0  0
  8  9  1  0  0  0  0
  8 59  1  0  0  0  0
  8 72  1  6  0  0  0
  9 10  1  0  0  0  0
  9 11  1  0  0  0  0
  9 73  1  1  0  0  0
 10 74  1  0  0  0  0
 11 12  2  0  0  0  0
 11 13  1  0  0  0  0
 14 13  1  0  0  0  0
 14 15  1  0  0  0  0
 14 50  1  0  0  0  0
 14 75  1  1  0  0  0
 15 76  1  0  0  0  0
 15 77  1  0  0  0  0
 16 15  1  0  0  0  0
 16 17  1  1  0  0  0
 16 52  1  0  0  0  0
 17 78  1  0  0  0  0
 18 16  1  0  0  0  0
 18 19  1  0  0  0  0
 18 79  1  1  0  0  0
 19 20  1  0  0  0  0
 20 21  2  0  0  0  0
 20 22  1  0  0  0  0
 22 23  2  0  0  0  0
 22 27  1  0  0  0  0
 23 24  1  0  0  0  0
 23 80  1  0  0  0  0
 24 25  2  0  0  0  0
 24 81  1  0  0  0  0
 25 26  1  0  0  0  0
 25 82  1  0  0  0  0
 26 27  2  0  0  0  0
 26 83  1  0  0  0  0
 27 84  1  0  0  0  0
 28 18  1  0  0  0  0
 28 29  1  0  0  0  0
 28 36  1  0  0  0  0
 28 85  1  6  0  0  0
 29 30  1  0  0  0  0
 29 32  1  0  0  0  0
 29 55  1  6  0  0  0
 30 31  1  0  0  0  0
 30 86  1  0  0  0  0
 30 87  1  0  0  0  0
 32 31  1  0  0  0  0
 32 33  1  0  0  0  0
 32 88  1  6  0  0  0
 33 89  1  0  0  0  0
 33 90  1  0  0  0  0
 34 33  1  0  0  0  0
 34 35  1  0  0  0  0
 34 91  1  6  0  0  0
 35 92  1  0  0  0  0
 36 34  1  0  0  0  0
 36 37  1  1  0  0  0
 36 38  1  0  0  0  0
 37 93  1  0  0  0  0
 37 94  1  0  0  0  0
 37 95  1  0  0  0  0
 38 39  2  0  0  0  0
 40 38  1  0  0  0  0
 40 41  1  0  0  0  0
 40 49  1  0  0  0  0
 40 96  1  6  0  0  0
 41 42  1  0  0  0  0
 42 43  2  0  0  0  0
 42 44  1  0  0  0  0
 44 45  1  0  0  0  0
 44 48  1  0  0  0  0
 44 97  1  0  0  0  0
 45 46  1  0  0  0  0
 45 98  1  0  0  0  0
 45 99  1  0  0  0  0
 46 47  1  0  0  0  0
 46100  1  0  0  0  0
 46101  1  0  0  0  0
 47 48  1  0  0  0  0
 47102  1  0  0  0  0
 47103  1  0  0  0  0
 48104  1  0  0  0  0
 48105  1  0  0  0  0
 49 50  2  0  0  0  0
 49 52  1  0  0  0  0
 50 51  1  0  0  0  0
 51106  1  0  0  0  0
 51107  1  0  0  0  0
 51108  1  0  0  0  0
 52 53  1  0  0  0  0
 52 54  1  0  0  0  0
 53109  1  0  0  0  0
 53110  1  0  0  0  0
 53111  1  0  0  0  0
 54112  1  0  0  0  0
 54113  1  0  0  0  0
 54114  1  0  0  0  0
 55 56  1  0  0  0  0
 56 57  1  0  0  0  0
 56 58  2  0  0  0  0
 57115  1  0  0  0  0
 57116  1  0  0  0  0
 57117  1  0  0  0  0
 59 60  2  0  0  0  0
 59 63  1  0  0  0  0
 60 61  1  0  0  0  0
 60118  1  0  0  0  0
 61 62  2  0  0  0  0
 61119  1  0  0  0  0
 62 63  1  0  0  0  0
 62120  1  0  0  0  0
M  END
>  <DRUGBANK_ID>
DB15384

>  <COMMON_NAME>
Simotaxel

>  <CAS_NUMBER>
791635-59-1

>  <UNII>
E1M30YOE59

>  <SYNONYMS>
Simotaxel

$$$$
