
 OpenBabel10282417072D

 21 20  0  0  1  0  0  0  0  0999 V2000
    4.6184    2.6664    0.0000 N   0  0  0  0  0  0  0  0  0  0  0  0
    4.6184    1.8414    0.0000 C   0  0  1  0  0  0  0  0  0  0  0  0
    3.9039    1.4289    0.0000 C   0  0  0  0  0  0  0  0  0  0  0  0
    3.1895    1.8414    0.0000 C   0  0  0  0  0  0  0  0  0  0  0  0
    3.1895    2.6664    0.0000 O   0  0  0  0  0  0  0  0  0  0  0  0
    2.4750    1.4289    0.0000 O   0  0  0  0  0  0  0  0  0  0  0  0
    1.7605    1.8414    0.0000 P   0  0  0  0  0  0  0  0  0  0  0  0
    1.0461    2.2539    0.0000 O   0  0  0  0  0  0  0  0  0  0  0  0
    1.3480    1.1270    0.0000 O   0  0  0  0  0  0  0  0  0  0  0  0
    2.1730    2.5559    0.0000 O   0  0  0  0  0  0  0  0  0  0  0  0
    5.3329    1.4289    0.0000 C   0  0  0  0  0  0  0  0  0  0  0  0
    6.0474    1.8414    0.0000 O   0  0  0  0  0  0  0  0  0  0  0  0
    5.3329    0.6039    0.0000 O   0  0  0  0  0  0  0  0  0  0  0  0
    5.5017    3.1764    0.0000 H   0  0  0  0  0  0  0  0  0  0  0  0
    3.7351    3.1764    0.0000 H   0  0  0  0  0  0  0  0  0  0  0  0
    3.6918    2.3764    0.0000 H   0  0  0  0  0  0  0  0  0  0  0  0
    3.9039    0.3589    0.0000 H   0  0  0  0  0  0  0  0  0  0  0  0
    2.9772    0.8939    0.0000 H   0  0  0  0  0  0  0  0  0  0  0  0
    1.0461    3.2239    0.0000 H   0  0  0  0  0  0  0  0  0  0  0  0
    0.3780    1.1270    0.0000 H   0  0  0  0  0  0  0  0  0  0  0  0
    6.8589    1.3729    0.0000 H   0  0  0  0  0  0  0  0  0  0  0  0
  1 14  1  0  0  0  0
  1 15  1  0  0  0  0
  2  1  1  0  0  0  0
  2  3  1  0  0  0  0
  2 11  1  0  0  0  0
  2 16  1  1  0  0  0
  3  4  1  0  0  0  0
  3 17  1  0  0  0  0
  3 18  1  0  0  0  0
  4  5  2  0  0  0  0
  4  6  1  0  0  0  0
  6  7  1  0  0  0  0
  7  8  1  0  0  0  0
  7  9  1  0  0  0  0
  7 10  2  0  0  0  0
  8 19  1  0  0  0  0
  9 20  1  0  0  0  0
 11 12  1  0  0  0  0
 11 13  2  0  0  0  0
 12 21  1  0  0  0  0
M  END
>  <DRUGBANK_ID>
DB01857

>  <SECONDARY_ACCESSION_NUMBERS>
EXPT00574; DB03713; DB04247

>  <COMMON_NAME>
Phosphoaspartate

$$$$
