AUP
 OpenBabel10282417072D

 48 52  0  0  0  0  0  0  0  0999 V2000
    0.9733   -0.4914    0.0000 C   0  0  0  0  0  0  0  0  0  0  0  0
    0.9733    0.3336    0.0000 C   0  0  0  0  0  0  0  0  0  0  0  0
    1.6877    0.7461    0.0000 C   0  0  0  0  0  0  0  0  0  0  0  0
    2.4022    0.3336    0.0000 C   0  0  0  0  0  0  0  0  0  0  0  0
    2.4022   -0.4914    0.0000 C   0  0  0  0  0  0  0  0  0  0  0  0
    1.6877   -0.9039    0.0000 C   0  0  0  0  0  0  0  0  0  0  0  0
    0.1886   -0.7463    0.0000 C   0  0  0  0  0  0  0  0  0  0  0  0
   -0.2963   -0.0789    0.0000 P   0  0  0  0  0  0  0  0  0  0  0  0
    0.1886    0.5885    0.0000 C   0  0  0  0  0  0  0  0  0  0  0  0
   -0.8733    1.5447    0.0000 N   0  0  0  0  0  0  0  0  0  0  0  0
   -1.1282    2.3293    0.0000 C   0  0  0  0  0  0  0  0  0  0  0  0
   -0.5762    2.9424    0.0000 C   0  0  0  0  0  0  0  0  0  0  0  0
    0.2308    2.7709    0.0000 C   0  0  0  0  0  0  0  0  0  0  0  0
    0.4857    1.9863    0.0000 C   0  0  0  0  0  0  0  0  0  0  0  0
   -0.0663    1.3732    0.0000 C   0  0  0  0  0  0  0  0  0  0  0  0
   -2.7713   -0.0789    0.0000 C   0  0  0  0  0  0  0  0  0  0  0  0
   -2.3588    0.6356    0.0000 C   0  0  0  0  0  0  0  0  0  0  0  0
   -1.5338    0.6356    0.0000 C   0  0  0  0  0  0  0  0  0  0  0  0
   -1.1213   -0.0789    0.0000 C   0  0  0  0  0  0  0  0  0  0  0  0
   -1.5338   -0.7934    0.0000 C   0  0  0  0  0  0  0  0  0  0  0  0
   -2.3588   -0.7934    0.0000 C   0  0  0  0  0  0  0  0  0  0  0  0
   -0.8733   -1.7025    0.0000 N   0  0  0  0  0  0  0  0  0  0  0  0
   -0.0663   -1.5310    0.0000 C   0  0  0  0  0  0  0  0  0  0  0  0
    0.4857   -2.1441    0.0000 C   0  0  0  0  0  0  0  0  0  0  0  0
    0.2308   -2.9287    0.0000 C   0  0  0  0  0  0  0  0  0  0  0  0
   -0.5762   -3.1002    0.0000 C   0  0  0  0  0  0  0  0  0  0  0  0
   -1.1282   -2.4871    0.0000 C   0  0  0  0  0  0  0  0  0  0  0  0
    1.6877    1.8161    0.0000 H   0  0  0  0  0  0  0  0  0  0  0  0
    2.6143    1.2811    0.0000 H   0  0  0  0  0  0  0  0  0  0  0  0
    3.3288    0.8686    0.0000 H   0  0  0  0  0  0  0  0  0  0  0  0
    3.3288   -0.2014    0.0000 H   0  0  0  0  0  0  0  0  0  0  0  0
    3.3288   -1.0264    0.0000 H   0  0  0  0  0  0  0  0  0  0  0  0
    2.4022   -1.5614    0.0000 H   0  0  0  0  0  0  0  0  0  0  0  0
    1.6877   -1.9739    0.0000 H   0  0  0  0  0  0  0  0  0  0  0  0
    2.6143   -1.4389    0.0000 H   0  0  0  0  0  0  0  0  0  0  0  0
   -2.1376    2.5439    0.0000 H   0  0  0  0  0  0  0  0  0  0  0  0
   -0.8951    3.9239    0.0000 H   0  0  0  0  0  0  0  0  0  0  0  0
    0.9213    3.5378    0.0000 H   0  0  0  0  0  0  0  0  0  0  0  0
    1.4951    1.7717    0.0000 H   0  0  0  0  0  0  0  0  0  0  0  0
   -3.8033   -0.0789    0.0000 H   0  0  0  0  0  0  0  0  0  0  0  0
   -2.8748    1.5293    0.0000 H   0  0  0  0  0  0  0  0  0  0  0  0
   -1.0178    1.5293    0.0000 H   0  0  0  0  0  0  0  0  0  0  0  0
   -1.0178   -1.6871    0.0000 H   0  0  0  0  0  0  0  0  0  0  0  0
   -2.8748   -1.6871    0.0000 H   0  0  0  0  0  0  0  0  0  0  0  0
    1.4951   -1.9295    0.0000 H   0  0  0  0  0  0  0  0  0  0  0  0
    0.9213   -3.6956    0.0000 H   0  0  0  0  0  0  0  0  0  0  0  0
   -0.8951   -4.0817    0.0000 H   0  0  0  0  0  0  0  0  0  0  0  0
   -2.1376   -2.7017    0.0000 H   0  0  0  0  0  0  0  0  0  0  0  0
  1  2  1  0  0  0  0
  1  6  1  0  0  0  0
  1  7  2  0  0  0  0
  2  3  1  0  0  0  0
  2  9  2  0  0  0  0
  3  4  1  0  0  0  0
  3 28  1  0  0  0  0
  3 29  1  0  0  0  0
  4  5  1  0  0  0  0
  4 30  1  0  0  0  0
  4 31  1  0  0  0  0
  5  6  1  0  0  0  0
  5 32  1  0  0  0  0
  5 33  1  0  0  0  0
  6 34  1  0  0  0  0
  6 35  1  0  0  0  0
  7  8  1  0  0  0  0
  7 23  1  0  0  0  0
  8  9  1  0  0  0  0
  8 19  1  0  0  0  0
  9 15  1  0  0  0  0
 10 11  1  0  0  0  0
 10 15  2  0  0  0  0
 11 12  2  0  0  0  0
 11 36  1  0  0  0  0
 12 13  1  0  0  0  0
 12 37  1  0  0  0  0
 13 14  2  0  0  0  0
 13 38  1  0  0  0  0
 14 15  1  0  0  0  0
 14 39  1  0  0  0  0
 16 17  2  0  0  0  0
 16 21  1  0  0  0  0
 16 40  1  0  0  0  0
 17 18  1  0  0  0  0
 17 41  1  0  0  0  0
 18 19  2  0  0  0  0
 18 42  1  0  0  0  0
 19 20  1  0  0  0  0
 20 21  2  0  0  0  0
 20 43  1  0  0  0  0
 21 44  1  0  0  0  0
 22 23  2  0  0  0  0
 22 27  1  0  0  0  0
 23 24  1  0  0  0  0
 24 25  2  0  0  0  0
 24 45  1  0  0  0  0
 25 26  1  0  0  0  0
 25 46  1  0  0  0  0
 26 27  2  0  0  0  0
 26 47  1  0  0  0  0
 27 48  1  0  0  0  0
M  END
>  <DRUGBANK_ID>
DB07393

>  <COMMON_NAME>
2-(2-PHENYL-3-PYRIDIN-2-YL-4,5,6,7-TETRAHYDRO-2H-ISOPHOSPHINDOL-1-YL)PYRIDINE

$$$$
