
 OpenBabel10282417072D

  9  9  0  0  0  0  0  0  0  0999 V2000
    1.2352    0.6294    0.0000 N   0  0  0  0  0  0  0  0  0  0  0  0
    0.9803   -0.1553    0.0000 C   0  0  0  0  0  0  0  0  0  0  0  0
    0.1553   -0.1553    0.0000 C   0  0  0  0  0  0  0  0  0  0  0  0
   -0.0997    0.6294    0.0000 C   0  0  0  0  0  0  0  0  0  0  0  0
    0.5678    1.1143    0.0000 N   0  0  0  0  0  0  0  0  0  0  0  0
    2.1715    0.9337    0.0000 H   0  0  0  0  0  0  0  0  0  0  0  0
    1.5869   -0.9902    0.0000 H   0  0  0  0  0  0  0  0  0  0  0  0
   -0.4513   -0.9902    0.0000 H   0  0  0  0  0  0  0  0  0  0  0  0
   -1.0812    0.9483    0.0000 H   0  0  0  0  0  0  0  0  0  0  0  0
  1  2  1  0  0  0  0
  1  5  1  0  0  0  0
  1  6  1  0  0  0  0
  2  3  2  0  0  0  0
  2  7  1  0  0  0  0
  3  4  1  0  0  0  0
  3  8  1  0  0  0  0
  4  5  2  0  0  0  0
  4  9  1  0  0  0  0
M  END
>  <DRUGBANK_ID>
DB02757

>  <SECONDARY_ACCESSION_NUMBERS>
EXPT02727

>  <COMMON_NAME>
Pyrazole

>  <CAS_NUMBER>
288-13-1

>  <UNII>
3QD5KJZ7ZJ

>  <SYNONYMS>
1,2-Diazole; 1H-Pyrazol; 1H-pyrazole

$$$$
