
 OpenBabel10282417072D

 74 73  0  0  0  0  0  0  0  0999 V2000
   -5.0324    0.0134    0.0000 C   0  0  3  0  0  0  0  0  0  0  0  0
   -4.3136    0.4109    0.0000 C   0  0  0  0  0  0  0  0  0  0  0  0
   -5.7603    0.4109    0.0000 C   0  0  0  0  0  0  0  0  0  0  0  0
   -5.0324   -0.8216    0.0000 C   0  0  0  0  0  0  0  0  0  0  0  0
   -3.5990    0.0134    0.0000 O   0  0  0  0  0  0  0  0  0  0  0  0
   -4.3136    1.2324    0.0000 O   0  0  0  0  0  0  0  0  0  0  0  0
   -6.4658    0.0224    0.0000 C   0  0  0  0  0  0  0  0  0  0  0  0
   -5.7603   -1.2324    0.0000 C   0  0  0  0  0  0  0  0  0  0  0  0
   -2.8757    0.4109    0.0000 C   0  0  0  0  0  0  0  0  0  0  0  0
   -7.2250    0.4198    0.0000 C   0  0  0  0  0  0  0  0  0  0  0  0
   -2.1656    0.0224    0.0000 C   0  0  0  0  0  0  0  0  0  0  0  0
   -7.9485    0.0224    0.0000 C   0  0  0  0  0  0  0  0  0  0  0  0
   -1.4378    0.4198    0.0000 C   0  0  0  0  0  0  0  0  0  0  0  0
   -0.7010    0.0224    0.0000 C   0  0  0  0  0  0  0  0  0  0  0  0
    0.0000    0.4198    0.0000 C   0  0  0  0  0  0  0  0  0  0  0  0
    0.7189    0.0268    0.0000 C   0  0  0  0  0  0  0  0  0  0  0  0
    1.4424    0.4599    0.0000 C   0  0  0  0  0  0  0  0  0  0  0  0
    2.1702    0.0714    0.0000 C   0  0  0  0  0  0  0  0  0  0  0  0
    2.8981    0.4778    0.0000 C   0  0  0  0  0  0  0  0  0  0  0  0
    3.6304    0.0803    0.0000 C   0  0  0  0  0  0  0  0  0  0  0  0
    4.3360    0.4778    0.0000 C   0  0  0  0  0  0  0  0  0  0  0  0
    5.0817    0.0937    0.0000 C   0  0  0  0  0  0  0  0  0  0  0  0
    5.7917    0.4956    0.0000 C   0  0  0  0  0  0  0  0  0  0  0  0
    6.5196    0.1116    0.0000 C   0  0  0  0  0  0  0  0  0  0  0  0
    7.2294    0.5269    0.0000 C   0  0  0  0  0  0  0  0  0  0  0  0
    7.9485    0.1429    0.0000 C   0  0  0  0  0  0  0  0  0  0  0  0
   -5.0352    1.0834    0.0000 H   0  0  0  0  0  0  0  0  0  0  0  0
   -5.7622    1.4809    0.0000 H   0  0  0  0  0  0  0  0  0  0  0  0
   -6.6820    0.9544    0.0000 H   0  0  0  0  0  0  0  0  0  0  0  0
   -4.1084   -1.3611    0.0000 H   0  0  0  0  0  0  0  0  0  0  0  0
   -5.0403   -1.8916    0.0000 H   0  0  0  0  0  0  0  0  0  0  0  0
   -6.4545   -1.0475    0.0000 H   0  0  0  0  0  0  0  0  0  0  0  0
   -7.3782   -0.5365    0.0000 H   0  0  0  0  0  0  0  0  0  0  0  0
   -6.6817   -0.6883    0.0000 H   0  0  0  0  0  0  0  0  0  0  0  0
   -5.7708   -2.3023    0.0000 H   0  0  0  0  0  0  0  0  0  0  0  0
   -6.6921   -1.7583    0.0000 H   0  0  0  0  0  0  0  0  0  0  0  0
   -2.8767    1.4809    0.0000 H   0  0  0  0  0  0  0  0  0  0  0  0
   -1.9555    0.9569    0.0000 H   0  0  0  0  0  0  0  0  0  0  0  0
   -7.2357    1.4897    0.0000 H   0  0  0  0  0  0  0  0  0  0  0  0
   -8.1486    0.9600    0.0000 H   0  0  0  0  0  0  0  0  0  0  0  0
   -2.1660   -1.0476    0.0000 H   0  0  0  0  0  0  0  0  0  0  0  0
   -1.2455   -0.5238    0.0000 H   0  0  0  0  0  0  0  0  0  0  0  0
   -8.8635    0.5770    0.0000 H   0  0  0  0  0  0  0  0  0  0  0  0
   -7.9713   -1.0474    0.0000 H   0  0  0  0  0  0  0  0  0  0  0  0
   -8.8863   -0.4927    0.0000 H   0  0  0  0  0  0  0  0  0  0  0  0
   -1.4406    1.4898    0.0000 H   0  0  0  0  0  0  0  0  0  0  0  0
   -0.5197    0.9693    0.0000 H   0  0  0  0  0  0  0  0  0  0  0  0
   -0.6897   -1.0475    0.0000 H   0  0  0  0  0  0  0  0  0  0  0  0
    0.2264   -0.5114    0.0000 H   0  0  0  0  0  0  0  0  0  0  0  0
   -0.0083    1.4898    0.0000 H   0  0  0  0  0  0  0  0  0  0  0  0
    0.9182    0.9691    0.0000 H   0  0  0  0  0  0  0  0  0  0  0  0
    0.7398   -1.0430    0.0000 H   0  0  0  0  0  0  0  0  0  0  0  0
    1.6549   -0.4917    0.0000 H   0  0  0  0  0  0  0  0  0  0  0  0
    1.4161    1.5296    0.0000 H   0  0  0  0  0  0  0  0  0  0  0  0
    2.3532    1.0215    0.0000 H   0  0  0  0  0  0  0  0  0  0  0  0
    2.1803   -0.9986    0.0000 H   0  0  0  0  0  0  0  0  0  0  0  0
    3.0955   -0.4659    0.0000 H   0  0  0  0  0  0  0  0  0  0  0  0
    2.8917    1.5478    0.0000 H   0  0  0  0  0  0  0  0  0  0  0  0
    3.8160    1.0277    0.0000 H   0  0  0  0  0  0  0  0  0  0  0  0
    3.6388   -0.9897    0.0000 H   0  0  0  0  0  0  0  0  0  0  0  0
    4.5563   -0.4560    0.0000 H   0  0  0  0  0  0  0  0  0  0  0  0
    4.3160    1.5476    0.0000 H   0  0  0  0  0  0  0  0  0  0  0  0
    5.2443    1.0434    0.0000 H   0  0  0  0  0  0  0  0  0  0  0  0
    5.1028   -0.9761    0.0000 H   0  0  0  0  0  0  0  0  0  0  0  0
    6.0113   -0.4361    0.0000 H   0  0  0  0  0  0  0  0  0  0  0  0
    5.7758    1.5655    0.0000 H   0  0  0  0  0  0  0  0  0  0  0  0
    6.7039    1.0550    0.0000 H   0  0  0  0  0  0  0  0  0  0  0  0
    6.5431   -0.9581    0.0000 H   0  0  0  0  0  0  0  0  0  0  0  0
    7.4536   -0.4105    0.0000 H   0  0  0  0  0  0  0  0  0  0  0  0
    7.2086    1.5967    0.0000 H   0  0  0  0  0  0  0  0  0  0  0  0
    8.1417    1.0861    0.0000 H   0  0  0  0  0  0  0  0  0  0  0  0
    7.9839   -0.9265    0.0000 H   0  0  0  0  0  0  0  0  0  0  0  0
    8.8569    0.7083    0.0000 H   0  0  0  0  0  0  0  0  0  0  0  0
    8.8924   -0.3611    0.0000 H   0  0  0  0  0  0  0  0  0  0  0  0
  1  2  1  0  0  0  0
  1  3  1  0  0  0  0
  1  4  1  0  0  0  0
  1 27  1  0  0  0  0
  2  5  1  0  0  0  0
  2  6  2  0  0  0  0
  3  7  1  0  0  0  0
  3 28  1  0  0  0  0
  3 29  1  0  0  0  0
  4  8  1  0  0  0  0
  4 30  1  0  0  0  0
  4 31  1  0  0  0  0
  5  9  1  0  0  0  0
  7 10  1  0  0  0  0
  7 32  1  0  0  0  0
  7 33  1  0  0  0  0
  8 34  1  0  0  0  0
  8 35  1  0  0  0  0
  8 36  1  0  0  0  0
  9 11  1  0  0  0  0
  9 37  1  0  0  0  0
  9 38  1  0  0  0  0
 10 12  1  0  0  0  0
 10 39  1  0  0  0  0
 10 40  1  0  0  0  0
 11 13  1  0  0  0  0
 11 41  1  0  0  0  0
 11 42  1  0  0  0  0
 12 43  1  0  0  0  0
 12 44  1  0  0  0  0
 12 45  1  0  0  0  0
 13 14  1  0  0  0  0
 13 46  1  0  0  0  0
 13 47  1  0  0  0  0
 14 15  1  0  0  0  0
 14 48  1  0  0  0  0
 14 49  1  0  0  0  0
 15 16  1  0  0  0  0
 15 50  1  0  0  0  0
 15 51  1  0  0  0  0
 16 17  1  0  0  0  0
 16 52  1  0  0  0  0
 16 53  1  0  0  0  0
 17 18  1  0  0  0  0
 17 54  1  0  0  0  0
 17 55  1  0  0  0  0
 18 19  1  0  0  0  0
 18 56  1  0  0  0  0
 18 57  1  0  0  0  0
 19 20  1  0  0  0  0
 19 58  1  0  0  0  0
 19 59  1  0  0  0  0
 20 21  1  0  0  0  0
 20 60  1  0  0  0  0
 20 61  1  0  0  0  0
 21 22  1  0  0  0  0
 21 62  1  0  0  0  0
 21 63  1  0  0  0  0
 22 23  1  0  0  0  0
 22 64  1  0  0  0  0
 22 65  1  0  0  0  0
 23 24  1  0  0  0  0
 23 66  1  0  0  0  0
 23 67  1  0  0  0  0
 24 25  1  0  0  0  0
 24 68  1  0  0  0  0
 24 69  1  0  0  0  0
 25 26  1  0  0  0  0
 25 70  1  0  0  0  0
 25 71  1  0  0  0  0
 26 72  1  0  0  0  0
 26 73  1  0  0  0  0
 26 74  1  0  0  0  0
M  END
>  <DRUGBANK_ID>
DB11349

>  <COMMON_NAME>
Cetyl ethylhexanoate

>  <CAS_NUMBER>
59130-69-7

>  <UNII>
134647WMX4

>  <SYNONYMS>
Cetyl 2-ethylhexanoate; Hexadecyl 2-ethylhexanoate; Perceline oil

$$$$
