
 OpenBabel10282417072D

104109  0  0  0  0  0  0  0  0999 V2000
    5.7366    3.5773    0.0000 O   0  0  0  0  0  0  0  0  0  0  0  0
   -5.7238   -3.5902    0.0000 O   0  0  0  0  0  0  0  0  0  0  0  0
    3.6354    0.6768    0.0000 O   0  0  0  0  0  0  0  0  0  0  0  0
   -3.5967   -0.6896    0.0000 O   0  0  0  0  0  0  0  0  0  0  0  0
    5.0405    0.6768    0.0000 O   0  0  0  0  0  0  0  0  0  0  0  0
   -5.0277   -0.6768    0.0000 O   0  0  0  0  0  0  0  0  0  0  0  0
    4.3315    3.5773    0.0000 N   0  0  0  0  0  0  0  0  0  0  0  0
   -4.3186   -3.5902    0.0000 N   0  0  0  0  0  0  0  0  0  0  0  0
   -2.5009   -2.3011    0.0000 N   0  0  0  0  0  0  0  0  0  0  0  0
    2.5137    2.2495    0.0000 N   0  0  0  0  0  0  0  0  0  0  0  0
   -3.7772   -1.8885    0.0000 N   0  0  0  0  0  0  0  0  0  0  0  0
    3.7900    1.8757    0.0000 N   0  0  0  0  0  0  0  0  0  0  0  0
    4.3315    1.9273    0.0000 N   0  0  0  0  0  0  0  0  0  0  0  0
   -4.3058   -1.9273    0.0000 N   0  0  0  0  0  0  0  0  0  0  0  0
    3.5451    3.3325    0.0000 C   0  0  2  0  0  0  0  0  0  0  0  0
   -3.5323   -3.3325    0.0000 C   0  0  2  0  0  0  0  0  0  0  0  0
   -3.2872   -2.5460    0.0000 C   0  0  0  0  0  0  0  0  0  0  0  0
    3.3002    2.5460    0.0000 C   0  0  0  0  0  0  0  0  0  0  0  0
    5.0405    3.1648    0.0000 C   0  0  0  0  0  0  0  0  0  0  0  0
   -5.0277   -3.1648    0.0000 C   0  0  0  0  0  0  0  0  0  0  0  0
    5.0405    2.3398    0.0000 C   0  0  2  0  0  0  0  0  0  0  0  0
   -5.0277   -2.3398    0.0000 C   0  0  2  0  0  0  0  0  0  0  0  0
    3.0553    3.9898    0.0000 C   0  0  0  0  0  0  0  0  0  0  0  0
   -3.0295   -4.0028    0.0000 C   0  0  0  0  0  0  0  0  0  0  0  0
    4.3315    4.4024    0.0000 C   0  0  0  0  0  0  0  0  0  0  0  0
   -4.3186   -4.4153    0.0000 C   0  0  0  0  0  0  0  0  0  0  0  0
   -2.5009   -1.4760    0.0000 C   0  0  0  0  0  0  0  0  0  0  0  0
    2.5137    1.4244    0.0000 C   0  0  0  0  0  0  0  0  0  0  0  0
    3.5451    4.6603    0.0000 C   0  0  0  0  0  0  0  0  0  0  0  0
   -3.5323   -4.6603    0.0000 C   0  0  0  0  0  0  0  0  0  0  0  0
    5.7366    1.9273    0.0000 C   0  0  0  0  0  0  0  0  0  0  0  0
   -5.7367   -1.9273    0.0000 C   0  0  0  0  0  0  0  0  0  0  0  0
   -3.2872   -1.2181    0.0000 C   0  0  0  0  0  0  0  0  0  0  0  0
    3.3002    1.1796    0.0000 C   0  0  0  0  0  0  0  0  0  0  0  0
   -1.7919   -1.0634    0.0000 C   0  0  0  0  0  0  0  0  0  0  0  0
    1.8048    1.0120    0.0000 C   0  0  0  0  0  0  0  0  0  0  0  0
    4.3315    1.0892    0.0000 C   0  0  0  0  0  0  0  0  0  0  0  0
   -4.3058   -1.1022    0.0000 C   0  0  0  0  0  0  0  0  0  0  0  0
   -0.3480   -0.2255    0.0000 C   0  0  0  0  0  0  0  0  0  0  0  0
    0.3609    0.1869    0.0000 C   0  0  0  0  0  0  0  0  0  0  0  0
   -1.7919   -0.2255    0.0000 C   0  0  0  0  0  0  0  0  0  0  0  0
    1.8048    0.1869    0.0000 C   0  0  0  0  0  0  0  0  0  0  0  0
   -1.0829   -1.4760    0.0000 C   0  0  0  0  0  0  0  0  0  0  0  0
    1.1086    1.4244    0.0000 C   0  0  0  0  0  0  0  0  0  0  0  0
    6.4457    2.3398    0.0000 C   0  0  0  0  0  0  0  0  0  0  0  0
    5.7366    1.0892    0.0000 C   0  0  0  0  0  0  0  0  0  0  0  0
   -6.4457   -2.3398    0.0000 C   0  0  0  0  0  0  0  0  0  0  0  0
   -5.7367   -1.1022    0.0000 C   0  0  0  0  0  0  0  0  0  0  0  0
   -1.0829    0.1869    0.0000 C   0  0  0  0  0  0  0  0  0  0  0  0
    1.0699   -0.2255    0.0000 C   0  0  0  0  0  0  0  0  0  0  0  0
   -0.3480   -1.0634    0.0000 C   0  0  0  0  0  0  0  0  0  0  0  0
    0.3609    1.0120    0.0000 C   0  0  0  0  0  0  0  0  0  0  0  0
    3.6354   -0.1482    0.0000 C   0  0  0  0  0  0  0  0  0  0  0  0
   -3.5967    0.1354    0.0000 C   0  0  0  0  0  0  0  0  0  0  0  0
   -1.7080   -2.8846    0.0000 H   0  0  0  0  0  0  0  0  0  0  0  0
    1.7040    2.8096    0.0000 H   0  0  0  0  0  0  0  0  0  0  0  0
    3.4781    2.4181    0.0000 H   0  0  0  0  0  0  0  0  0  0  0  0
   -3.4543   -2.4215    0.0000 H   0  0  0  0  0  0  0  0  0  0  0  0
    4.3017    2.5759    0.0000 H   0  0  0  0  0  0  0  0  0  0  0  0
   -4.2944   -2.5814    0.0000 H   0  0  0  0  0  0  0  0  0  0  0  0
    5.0362    1.2698    0.0000 H   0  0  0  0  0  0  0  0  0  0  0  0
   -5.0235   -1.2698    0.0000 H   0  0  0  0  0  0  0  0  0  0  0  0
    1.9853    3.9847    0.0000 H   0  0  0  0  0  0  0  0  0  0  0  0
    2.5685    4.9427    0.0000 H   0  0  0  0  0  0  0  0  0  0  0  0
   -1.9595   -4.0078    0.0000 H   0  0  0  0  0  0  0  0  0  0  0  0
   -2.5577   -4.9632    0.0000 H   0  0  0  0  0  0  0  0  0  0  0  0
    5.1980    5.0301    0.0000 H   0  0  0  0  0  0  0  0  0  0  0  0
    4.1663    5.4596    0.0000 H   0  0  0  0  0  0  0  0  0  0  0  0
   -5.1804   -5.0495    0.0000 H   0  0  0  0  0  0  0  0  0  0  0  0
   -4.1416   -5.4706    0.0000 H   0  0  0  0  0  0  0  0  0  0  0  0
    3.2172    5.6788    0.0000 H   0  0  0  0  0  0  0  0  0  0  0  0
    4.3037    5.4149    0.0000 H   0  0  0  0  0  0  0  0  0  0  0  0
   -3.2080   -5.6800    0.0000 H   0  0  0  0  0  0  0  0  0  0  0  0
   -4.2867   -5.4191    0.0000 H   0  0  0  0  0  0  0  0  0  0  0  0
    6.6641    1.3938    0.0000 H   0  0  0  0  0  0  0  0  0  0  0  0
   -6.6642   -1.3938    0.0000 H   0  0  0  0  0  0  0  0  0  0  0  0
   -3.6033   -0.2357    0.0000 H   0  0  0  0  0  0  0  0  0  0  0  0
    3.6326    0.2026    0.0000 H   0  0  0  0  0  0  0  0  0  0  0  0
   -2.6865    0.2891    0.0000 H   0  0  0  0  0  0  0  0  0  0  0  0
    2.6954   -0.3346    0.0000 H   0  0  0  0  0  0  0  0  0  0  0  0
   -1.0909   -2.5080    0.0000 H   0  0  0  0  0  0  0  0  0  0  0  0
    1.1245    2.4563    0.0000 H   0  0  0  0  0  0  0  0  0  0  0  0
    7.3741    1.8078    0.0000 H   0  0  0  0  0  0  0  0  0  0  0  0
    6.4422    3.4098    0.0000 H   0  0  0  0  0  0  0  0  0  0  0  0
    7.3706    2.8778    0.0000 H   0  0  0  0  0  0  0  0  0  0  0  0
    4.8100    0.5542    0.0000 H   0  0  0  0  0  0  0  0  0  0  0  0
    6.6632    0.5542    0.0000 H   0  0  0  0  0  0  0  0  0  0  0  0
    5.7366    0.0192    0.0000 H   0  0  0  0  0  0  0  0  0  0  0  0
   -7.3741   -1.8079    0.0000 H   0  0  0  0  0  0  0  0  0  0  0  0
   -6.4421   -3.4098    0.0000 H   0  0  0  0  0  0  0  0  0  0  0  0
   -7.3706   -2.8779    0.0000 H   0  0  0  0  0  0  0  0  0  0  0  0
   -4.8101   -0.5672    0.0000 H   0  0  0  0  0  0  0  0  0  0  0  0
   -6.6633   -0.5672    0.0000 H   0  0  0  0  0  0  0  0  0  0  0  0
   -5.7367   -0.0322    0.0000 H   0  0  0  0  0  0  0  0  0  0  0  0
   -1.0909    1.2189    0.0000 H   0  0  0  0  0  0  0  0  0  0  0  0
    1.0619   -1.2575    0.0000 H   0  0  0  0  0  0  0  0  0  0  0  0
    0.5426   -1.5848    0.0000 H   0  0  0  0  0  0  0  0  0  0  0  0
   -0.5277    1.5367    0.0000 H   0  0  0  0  0  0  0  0  0  0  0  0
    2.7088   -0.6832    0.0000 H   0  0  0  0  0  0  0  0  0  0  0  0
    4.5620   -0.6832    0.0000 H   0  0  0  0  0  0  0  0  0  0  0  0
    3.6354   -1.2182    0.0000 H   0  0  0  0  0  0  0  0  0  0  0  0
   -2.6701    0.6704    0.0000 H   0  0  0  0  0  0  0  0  0  0  0  0
   -4.5233    0.6704    0.0000 H   0  0  0  0  0  0  0  0  0  0  0  0
   -3.5967    1.2054    0.0000 H   0  0  0  0  0  0  0  0  0  0  0  0
  1 19  2  0  0  0  0
  2 20  2  0  0  0  0
  3 37  1  0  0  0  0
  3 53  1  0  0  0  0
  4 38  1  0  0  0  0
  4 54  1  0  0  0  0
  5 37  2  0  0  0  0
  6 38  2  0  0  0  0
  7 15  1  0  0  0  0
  7 19  1  0  0  0  0
  7 25  1  0  0  0  0
  8 16  1  0  0  0  0
  8 20  1  0  0  0  0
  8 26  1  0  0  0  0
  9 17  1  0  0  0  0
  9 27  1  0  0  0  0
  9 55  1  0  0  0  0
 10 18  1  0  0  0  0
 10 28  1  0  0  0  0
 10 56  1  0  0  0  0
 11 17  2  0  0  0  0
 11 33  1  0  0  0  0
 12 18  2  0  0  0  0
 12 34  1  0  0  0  0
 13 21  1  0  0  0  0
 13 37  1  0  0  0  0
 13 57  1  0  0  0  0
 14 22  1  0  0  0  0
 14 38  1  0  0  0  0
 14 58  1  0  0  0  0
 15 18  1  0  0  0  0
 15 23  1  0  0  0  0
 15 59  1  1  0  0  0
 16 17  1  0  0  0  0
 16 24  1  0  0  0  0
 16 60  1  1  0  0  0
 19 21  1  0  0  0  0
 20 22  1  0  0  0  0
 21 31  1  0  0  0  0
 21 61  1  1  0  0  0
 22 32  1  0  0  0  0
 22 62  1  1  0  0  0
 23 29  1  0  0  0  0
 23 63  1  0  0  0  0
 23 64  1  0  0  0  0
 24 30  1  0  0  0  0
 24 65  1  0  0  0  0
 24 66  1  0  0  0  0
 25 29  1  0  0  0  0
 25 67  1  0  0  0  0
 25 68  1  0  0  0  0
 26 30  1  0  0  0  0
 26 69  1  0  0  0  0
 26 70  1  0  0  0  0
 27 33  2  0  0  0  0
 27 35  1  0  0  0  0
 28 34  2  0  0  0  0
 28 36  1  0  0  0  0
 29 71  1  0  0  0  0
 29 72  1  0  0  0  0
 30 73  1  0  0  0  0
 30 74  1  0  0  0  0
 31 45  1  0  0  0  0
 31 46  1  0  0  0  0
 31 75  1  0  0  0  0
 32 47  1  0  0  0  0
 32 48  1  0  0  0  0
 32 76  1  0  0  0  0
 33 77  1  0  0  0  0
 34 78  1  0  0  0  0
 35 41  2  0  0  0  0
 35 43  1  0  0  0  0
 36 42  2  0  0  0  0
 36 44  1  0  0  0  0
 39 40  1  0  0  0  0
 39 49  2  0  0  0  0
 39 51  1  0  0  0  0
 40 50  2  0  0  0  0
 40 52  1  0  0  0  0
 41 49  1  0  0  0  0
 41 79  1  0  0  0  0
 42 50  1  0  0  0  0
 42 80  1  0  0  0  0
 43 51  2  0  0  0  0
 43 81  1  0  0  0  0
 44 52  2  0  0  0  0
 44 82  1  0  0  0  0
 45 83  1  0  0  0  0
 45 84  1  0  0  0  0
 45 85  1  0  0  0  0
 46 86  1  0  0  0  0
 46 87  1  0  0  0  0
 46 88  1  0  0  0  0
 47 89  1  0  0  0  0
 47 90  1  0  0  0  0
 47 91  1  0  0  0  0
 48 92  1  0  0  0  0
 48 93  1  0  0  0  0
 48 94  1  0  0  0  0
 49 95  1  0  0  0  0
 50 96  1  0  0  0  0
 51 97  1  0  0  0  0
 52 98  1  0  0  0  0
 53 99  1  0  0  0  0
 53100  1  0  0  0  0
 53101  1  0  0  0  0
 54102  1  0  0  0  0
 54103  1  0  0  0  0
 54104  1  0  0  0  0
M  END
>  <DRUGBANK_ID>
DB09102

>  <COMMON_NAME>
Daclatasvir

>  <CAS_NUMBER>
1009119-64-5

>  <UNII>
LI2427F9CI

>  <SYNONYMS>
BMS-790052; Daclatasvir

$$$$
