468
 OpenBabel10282417072D

 46 48  0  0  0  0  0  0  0  0999 V2000
    4.1437    0.7736    0.0000 C   0  0  0  0  0  0  0  0  0  0  0  0
    3.6588    1.4410    0.0000 C   0  0  0  0  0  0  0  0  0  0  0  0
    2.8383    1.3548    0.0000 C   0  0  0  0  0  0  0  0  0  0  0  0
    2.5028    0.6011    0.0000 C   0  0  0  0  0  0  0  0  0  0  0  0
    2.9877   -0.0663    0.0000 C   0  0  0  0  0  0  0  0  0  0  0  0
    3.8082    0.0199    0.0000 C   0  0  0  0  0  0  0  0  0  0  0  0
    2.6084    2.8069    0.0000 C   0  0  0  0  0  0  0  0  0  0  0  0
    1.9409    3.2918    0.0000 C   0  0  0  0  0  0  0  0  0  0  0  0
    1.2735    2.8069    0.0000 C   0  0  1  0  0  0  0  0  0  0  0  0
    1.5284    2.0222    0.0000 C   0  0  0  0  0  0  0  0  0  0  0  0
    2.3534    2.0222    0.0000 N   0  0  0  0  0  0  0  0  0  0  0  0
    0.4889    3.0618    0.0000 C   0  0  0  0  0  0  0  0  0  0  0  0
    0.3173    3.8688    0.0000 N   0  0  0  0  0  0  0  0  0  0  0  0
   -0.1242    2.5098    0.0000 O   0  0  0  0  0  0  0  0  0  0  0  0
    3.3930    3.0618    0.0000 O   0  0  0  0  0  0  0  0  0  0  0  0
   -0.4673    4.1237    0.0000 C   0  0  0  0  0  0  0  0  0  0  0  0
   -0.6388    4.9307    0.0000 C   0  0  0  0  0  0  0  0  0  0  0  0
   -1.4234    5.1856    0.0000 C   0  0  0  0  0  0  0  0  0  0  0  0
   -2.0365    4.6336    0.0000 C   0  0  0  0  0  0  0  0  0  0  0  0
   -1.8650    3.8266    0.0000 C   0  0  0  0  0  0  0  0  0  0  0  0
   -1.0804    3.5717    0.0000 C   0  0  0  0  0  0  0  0  0  0  0  0
   -0.9089    2.7647    0.0000 C   0  0  0  0  0  0  0  0  0  0  0  0
   -2.4781    3.2746    0.0000 Cl  0  0  0  0  0  0  0  0  0  0  0  0
    1.1821    3.3836    0.0000 H   0  0  0  0  0  0  0  0  0  0  0  0
    5.2078    0.8855    0.0000 H   0  0  0  0  0  0  0  0  0  0  0  0
    4.5789    1.7511    0.0000 H   0  0  0  0  0  0  0  0  0  0  0  0
    4.0940    2.4185    0.0000 H   0  0  0  0  0  0  0  0  0  0  0  0
    3.0299    2.3067    0.0000 H   0  0  0  0  0  0  0  0  0  0  0  0
    1.7742    1.2429    0.0000 H   0  0  0  0  0  0  0  0  0  0  0  0
    1.4387    0.4892    0.0000 H   0  0  0  0  0  0  0  0  0  0  0  0
    2.0676   -0.3764    0.0000 H   0  0  0  0  0  0  0  0  0  0  0  0
    2.5525   -1.0438    0.0000 H   0  0  0  0  0  0  0  0  0  0  0  0
    3.6166   -0.9320    0.0000 H   0  0  0  0  0  0  0  0  0  0  0  0
    4.4371   -0.8457    0.0000 H   0  0  0  0  0  0  0  0  0  0  0  0
    3.3730   -0.9576    0.0000 H   0  0  0  0  0  0  0  0  0  0  0  0
    1.9409    4.3618    0.0000 H   0  0  0  0  0  0  0  0  0  0  0  0
    0.9875    3.7776    0.0000 H   0  0  0  0  0  0  0  0  0  0  0  0
    0.8994    1.1566    0.0000 H   0  0  0  0  0  0  0  0  0  0  0  0
    2.0142    1.0688    0.0000 H   0  0  0  0  0  0  0  0  0  0  0  0
    1.0489    4.5276    0.0000 H   0  0  0  0  0  0  0  0  0  0  0  0
    0.1281    5.6212    0.0000 H   0  0  0  0  0  0  0  0  0  0  0  0
   -1.6380    6.1950    0.0000 H   0  0  0  0  0  0  0  0  0  0  0  0
   -3.0180    4.9525    0.0000 H   0  0  0  0  0  0  0  0  0  0  0  0
   -1.7041    2.0488    0.0000 H   0  0  0  0  0  0  0  0  0  0  0  0
    0.1087    2.4340    0.0000 H   0  0  0  0  0  0  0  0  0  0  0  0
   -0.6865    1.7181    0.0000 H   0  0  0  0  0  0  0  0  0  0  0  0
  1  6  1  0  0  0  0
  1  2  1  0  0  0  0
  1 25  1  0  0  0  0
  1 26  1  0  0  0  0
  2  3  1  0  0  0  0
  2 27  1  0  0  0  0
  2 28  1  0  0  0  0
  3 11  1  0  0  0  0
  3  4  1  0  0  0  0
  3 29  1  0  0  0  0
  4  5  1  0  0  0  0
  4 30  1  0  0  0  0
  4 31  1  0  0  0  0
  5  6  1  0  0  0  0
  5 32  1  0  0  0  0
  5 33  1  0  0  0  0
  6 34  1  0  0  0  0
  6 35  1  0  0  0  0
  7 11  1  0  0  0  0
  7 15  2  0  0  0  0
  7  8  1  0  0  0  0
  8  9  1  0  0  0  0
  8 36  1  0  0  0  0
  8 37  1  0  0  0  0
  9 12  1  0  0  0  0
  9 24  1  6  0  0  0
  9 10  1  0  0  0  0
 10 11  1  0  0  0  0
 10 38  1  0  0  0  0
 10 39  1  0  0  0  0
 12 13  1  0  0  0  0
 12 14  2  0  0  0  0
 13 16  1  0  0  0  0
 13 40  1  0  0  0  0
 16 21  2  0  0  0  0
 16 17  1  0  0  0  0
 17 18  2  0  0  0  0
 17 41  1  0  0  0  0
 18 19  1  0  0  0  0
 18 42  1  0  0  0  0
 19 20  2  0  0  0  0
 19 43  1  0  0  0  0
 20 21  1  0  0  0  0
 20 23  1  0  0  0  0
 21 22  1  0  0  0  0
 22 44  1  0  0  0  0
 22 45  1  0  0  0  0
 22 46  1  0  0  0  0
M  END
>  <DRUGBANK_ID>
DB07090

>  <COMMON_NAME>
(3S)-N-(3-CHLORO-2-METHYLPHENYL)-1-CYCLOHEXYL-5-OXOPYRROLIDINE-3-CARBOXAMIDE

$$$$
