KMP
 OpenBabel10282417072D

 31 33  0  0  0  0  0  0  0  0999 V2000
   -2.4633   -0.7684    0.0000 C   0  0  0  0  0  0  0  0  0  0  0  0
   -1.7488   -1.1809    0.0000 C   0  0  0  0  0  0  0  0  0  0  0  0
   -1.0344   -0.7684    0.0000 C   0  0  0  0  0  0  0  0  0  0  0  0
   -1.0344    0.0566    0.0000 C   0  0  0  0  0  0  0  0  0  0  0  0
   -1.7488    0.4691    0.0000 C   0  0  0  0  0  0  0  0  0  0  0  0
   -2.4633    0.0566    0.0000 C   0  0  0  0  0  0  0  0  0  0  0  0
   -0.3199   -1.1809    0.0000 C   0  0  0  0  0  0  0  0  0  0  0  0
    0.3946   -0.7684    0.0000 C   0  0  0  0  0  0  0  0  0  0  0  0
    0.3946    0.0566    0.0000 C   0  0  0  0  0  0  0  0  0  0  0  0
    1.1091    0.4691    0.0000 C   0  0  0  0  0  0  0  0  0  0  0  0
    1.1091    1.2941    0.0000 C   0  0  0  0  0  0  0  0  0  0  0  0
    1.8235    1.7066    0.0000 C   0  0  0  0  0  0  0  0  0  0  0  0
    2.5380    1.2941    0.0000 C   0  0  0  0  0  0  0  0  0  0  0  0
    2.5380    0.4691    0.0000 C   0  0  0  0  0  0  0  0  0  0  0  0
    1.8235    0.0566    0.0000 C   0  0  0  0  0  0  0  0  0  0  0  0
   -0.3199    0.4691    0.0000 O   0  0  0  0  0  0  0  0  0  0  0  0
   -0.3199   -2.0059    0.0000 O   0  0  0  0  0  0  0  0  0  0  0  0
    3.2525    1.7066    0.0000 O   0  0  0  0  0  0  0  0  0  0  0  0
    1.1091   -1.1809    0.0000 O   0  0  0  0  0  0  0  0  0  0  0  0
   -3.1778    0.4691    0.0000 O   0  0  0  0  0  0  0  0  0  0  0  0
   -1.7488   -2.0059    0.0000 O   0  0  0  0  0  0  0  0  0  0  0  0
   -3.3570   -1.2844    0.0000 H   0  0  0  0  0  0  0  0  0  0  0  0
   -1.7488    1.5011    0.0000 H   0  0  0  0  0  0  0  0  0  0  0  0
    0.2154    1.8101    0.0000 H   0  0  0  0  0  0  0  0  0  0  0  0
    1.8235    2.7386    0.0000 H   0  0  0  0  0  0  0  0  0  0  0  0
    3.4317   -0.0469    0.0000 H   0  0  0  0  0  0  0  0  0  0  0  0
    1.8235   -0.9754    0.0000 H   0  0  0  0  0  0  0  0  0  0  0  0
    4.0640    1.2381    0.0000 H   0  0  0  0  0  0  0  0  0  0  0  0
    1.1091   -2.1179    0.0000 H   0  0  0  0  0  0  0  0  0  0  0  0
   -3.1778    1.4061    0.0000 H   0  0  0  0  0  0  0  0  0  0  0  0
   -2.5603   -2.4744    0.0000 H   0  0  0  0  0  0  0  0  0  0  0  0
  1  2  2  0  0  0  0
  1  6  1  0  0  0  0
  1 22  1  0  0  0  0
  2  3  1  0  0  0  0
  2 21  1  0  0  0  0
  3  4  2  0  0  0  0
  3  7  1  0  0  0  0
  4  5  1  0  0  0  0
  4 16  1  0  0  0  0
  5  6  2  0  0  0  0
  5 23  1  0  0  0  0
  6 20  1  0  0  0  0
  7  8  1  0  0  0  0
  7 17  2  0  0  0  0
  8  9  2  0  0  0  0
  8 19  1  0  0  0  0
  9 10  1  0  0  0  0
  9 16  1  0  0  0  0
 10 11  2  0  0  0  0
 10 15  1  0  0  0  0
 11 12  1  0  0  0  0
 11 24  1  0  0  0  0
 12 13  2  0  0  0  0
 12 25  1  0  0  0  0
 13 14  1  0  0  0  0
 13 18  1  0  0  0  0
 14 15  2  0  0  0  0
 14 26  1  0  0  0  0
 15 27  1  0  0  0  0
 18 28  1  0  0  0  0
 19 29  1  0  0  0  0
 20 30  1  0  0  0  0
 21 31  1  0  0  0  0
M  END
>  <DRUGBANK_ID>
DB01852

>  <SECONDARY_ACCESSION_NUMBERS>
EXPT01976

>  <COMMON_NAME>
Kaempherol

>  <CAS_NUMBER>
520-18-3

>  <UNII>
731P2LE49E

$$$$
