
 OpenBabel10282417072D

 19 17  0  0  0  0  0  0  0  0999 V2000
    4.0954    0.1105    0.0000 Ga  0  1  0  0  0  0  0  0  0  0  0  0
    1.6500   -1.4289    0.0000 O   0  0  0  0  0  0  0  0  0  0  0  0
    1.2375   -0.7145    0.0000 C   0  0  0  0  0  0  0  0  0  0  0  0
    1.9520   -0.3020    0.0000 C   0  0  0  0  0  0  0  0  0  0  0  0
    2.6664   -0.7145    0.0000 C   0  0  0  0  0  0  0  0  0  0  0  0
    3.3809   -0.3020    0.0000 O   0  5  0  0  0  0  0  0  0  0  0  0
    2.6664   -1.5395    0.0000 O   0  0  0  0  0  0  0  0  0  0  0  0
    0.5230   -1.1270    0.0000 C   0  0  0  0  0  0  0  0  0  0  0  0
    0.5230   -1.9520    0.0000 C   0  0  0  0  0  0  0  0  0  0  0  0
   -0.1914   -2.3645    0.0000 O   0  5  0  0  0  0  0  0  0  0  0  0
    1.2375   -2.3645    0.0000 O   0  0  0  0  0  0  0  0  0  0  0  0
    0.8250    0.0000    0.0000 C   0  0  0  0  0  0  0  0  0  0  0  0
    1.2375    0.7145    0.0000 O   0  5  0  0  0  0  0  0  0  0  0  0
    0.0000    0.0000    0.0000 O   0  0  0  0  0  0  0  0  0  0  0  0
    1.1650   -2.2690    0.0000 H   0  0  0  0  0  0  0  0  0  0  0  0
    1.9520    0.7680    0.0000 H   0  0  0  0  0  0  0  0  0  0  0  0
    2.8787    0.2330    0.0000 H   0  0  0  0  0  0  0  0  0  0  0  0
   -0.4036   -0.5920    0.0000 H   0  0  0  0  0  0  0  0  0  0  0  0
   -0.4036   -1.6620    0.0000 H   0  0  0  0  0  0  0  0  0  0  0  0
  2  3  1  0  0  0  0
  2 15  1  0  0  0  0
  3  4  1  0  0  0  0
  3  8  1  0  0  0  0
  3 12  1  0  0  0  0
  4  5  1  0  0  0  0
  4 16  1  0  0  0  0
  4 17  1  0  0  0  0
  5  6  1  0  0  0  0
  5  7  2  0  0  0  0
  8  9  1  0  0  0  0
  8 18  1  0  0  0  0
  8 19  1  0  0  0  0
  9 10  1  0  0  0  0
  9 11  2  0  0  0  0
 12 13  1  0  0  0  0
 12 14  2  0  0  0  0
M  CHG  4   1   3   6  -1  10  -1  13  -1
M  END
>  <DRUGBANK_ID>
DB17893

>  <COMMON_NAME>
Gallium citrate

>  <CAS_NUMBER>
27905-02-8

>  <UNII>
HT6C49L0ZP

>  <SYNONYMS>
2-hydroxy-1,2,3-propanetricarboxylic acid gallium salt (1:1); Citric acid, gallium salt (1:1); Gallium citrate

$$$$
