779
 OpenBabel10282417072D

 29 30  0  0  0  0  0  0  0  0999 V2000
    4.2364    1.8563    0.0000 O   0  0  0  0  0  0  0  0  0  0  0  0
    2.0930    0.6188    0.0000 O   0  0  0  0  0  0  0  0  0  0  0  0
    2.8075    1.8563    0.0000 O   0  0  0  0  0  0  0  0  0  0  0  0
    4.2364   -0.6188    0.0000 N   0  0  0  0  0  0  0  0  0  0  0  0
    5.6885   -0.6474    0.0000 N   0  0  0  0  0  0  0  0  0  0  0  0
    4.9509   -0.2063    0.0000 C   0  0  0  0  0  0  0  0  0  0  0  0
    4.9509    0.6188    0.0000 C   0  0  0  0  0  0  0  0  0  0  0  0
    4.2364   -1.4438    0.0000 C   0  0  0  0  0  0  0  0  0  0  0  0
    3.5220   -0.2063    0.0000 C   0  0  0  0  0  0  0  0  0  0  0  0
    3.5220    0.6188    0.0000 C   0  0  0  0  0  0  0  0  0  0  0  0
    4.2364    1.0313    0.0000 C   0  0  0  0  0  0  0  0  0  0  0  0
    5.6885    1.0599    0.0000 C   0  0  0  0  0  0  0  0  0  0  0  0
    6.4359   -0.2234    0.0000 C   0  0  0  0  0  0  0  0  0  0  0  0
    3.5220   -1.8563    0.0000 C   0  0  0  0  0  0  0  0  0  0  0  0
    6.4359    0.6359    0.0000 C   0  0  0  0  0  0  0  0  0  0  0  0
    2.8075    1.0313    0.0000 C   0  0  0  0  0  0  0  0  0  0  0  0
    7.1488   -0.6386    0.0000 C   0  0  0  0  0  0  0  0  0  0  0  0
    1.2815    1.0873    0.0000 H   0  0  0  0  0  0  0  0  0  0  0  0
    5.1631   -1.9788    0.0000 H   0  0  0  0  0  0  0  0  0  0  0  0
    4.2364   -2.5138    0.0000 H   0  0  0  0  0  0  0  0  0  0  0  0
    2.6283   -0.7223    0.0000 H   0  0  0  0  0  0  0  0  0  0  0  0
    5.6767    2.0918    0.0000 H   0  0  0  0  0  0  0  0  0  0  0  0
    2.5953   -1.3213    0.0000 H   0  0  0  0  0  0  0  0  0  0  0  0
    3.5220   -2.9263    0.0000 H   0  0  0  0  0  0  0  0  0  0  0  0
    2.5954   -2.3913    0.0000 H   0  0  0  0  0  0  0  0  0  0  0  0
    7.3277    1.1553    0.0000 H   0  0  0  0  0  0  0  0  0  0  0  0
    7.1447   -1.7086    0.0000 H   0  0  0  0  0  0  0  0  0  0  0  0
    8.0775   -0.1071    0.0000 H   0  0  0  0  0  0  0  0  0  0  0  0
    8.0734   -1.1771    0.0000 H   0  0  0  0  0  0  0  0  0  0  0  0
  1 11  2  0  0  0  0
  2 16  1  0  0  0  0
  2 18  1  0  0  0  0
  3 16  2  0  0  0  0
  4  6  1  0  0  0  0
  4  8  1  0  0  0  0
  4  9  1  0  0  0  0
  5  6  1  0  0  0  0
  5 13  2  0  0  0  0
  6  7  2  0  0  0  0
  7 11  1  0  0  0  0
  7 12  1  0  0  0  0
  8 14  1  0  0  0  0
  8 19  1  0  0  0  0
  8 20  1  0  0  0  0
  9 10  2  0  0  0  0
  9 21  1  0  0  0  0
 10 11  1  0  0  0  0
 10 16  1  0  0  0  0
 12 15  2  0  0  0  0
 12 22  1  0  0  0  0
 13 15  1  0  0  0  0
 13 17  1  0  0  0  0
 14 23  1  0  0  0  0
 14 24  1  0  0  0  0
 14 25  1  0  0  0  0
 15 26  1  0  0  0  0
 17 27  1  0  0  0  0
 17 28  1  0  0  0  0
 17 29  1  0  0  0  0
M  END
>  <DRUGBANK_ID>
DB00779

>  <SECONDARY_ACCESSION_NUMBERS>
APRD01133

>  <COMMON_NAME>
Nalidixic acid

>  <CAS_NUMBER>
389-08-2

>  <UNII>
3B91HWA56M

>  <SYNONYMS>
1-Aethyl-7-methyl-1,8-naphthyridin-4-on-3-karbonsaeure; 1-ethyl-1,4-dihydro-7-methyl-4-oxo-1,8-naphthyridine-3-carboxylic acid; 1-ethyl-7-methyl-1,4-dihydro-1,8-naphthyridin-4-one-3-carboxylic acid; 1-Ethyl-7-methyl-4-oxo-1,4-dihydro-[1,8]naphthyridine-3-carboxylic acid; 1,4-dihydro-1-ethyl-7-methyl-4-oxo-1,8-naphthyridine-3-carboxylic acid; 3-carboxy-1-ethyl-7-methyl-1,8-naphthyridin-4-one; Acide nalidixique; Acido nalidixico; Acidum nalidixicum; Nalidixic acid; Nalidixins√§ure

$$$$
