
 OpenBabel10282417072D

 14 13  0  0  1  0  0  0  0  0999 V2000
   -0.4125   -2.1434    0.0000 C   0  0  0  0  0  0  0  0  0  0  0  0
   -0.4125    0.7145    0.0000 C   0  0  0  0  0  0  0  0  0  0  0  0
   -0.4125   -0.7145    0.0000 C   0  0  0  0  0  0  0  0  0  0  0  0
    0.8250    0.0000    0.0000 O   0  0  0  0  0  0  0  0  0  0  0  0
    0.0000   -1.4289    0.0000 S   0  0  0  0  0  0  0  0  0  0  0  0
    0.0000    0.0000    0.0000 S   0  0  1  0  0  0  0  0  0  0  0  0
   -1.4825   -2.1434    0.0000 H   0  0  0  0  0  0  0  0  0  0  0  0
    0.1225   -3.0700    0.0000 H   0  0  0  0  0  0  0  0  0  0  0  0
   -0.9475   -3.0701    0.0000 H   0  0  0  0  0  0  0  0  0  0  0  0
    0.1225    1.6411    0.0000 H   0  0  0  0  0  0  0  0  0  0  0  0
   -1.4825    0.7145    0.0000 H   0  0  0  0  0  0  0  0  0  0  0  0
   -0.9475    1.6412    0.0000 H   0  0  0  0  0  0  0  0  0  0  0  0
   -1.4825   -0.7145    0.0000 H   0  0  0  0  0  0  0  0  0  0  0  0
   -0.9475    0.2121    0.0000 H   0  0  0  0  0  0  0  0  0  0  0  0
  1  7  1  0  0  0  0
  1  8  1  0  0  0  0
  1  9  1  0  0  0  0
  2 10  1  0  0  0  0
  2 11  1  0  0  0  0
  2 12  1  0  0  0  0
  3 13  1  0  0  0  0
  3 14  1  0  0  0  0
  5  1  1  0  0  0  0
  5  3  1  0  0  0  0
  6  2  1  0  0  0  0
  6  3  1  0  0  0  0
  6  4  2  6  0  0  0
M  END
>  <DRUGBANK_ID>
DB02311

>  <SECONDARY_ACCESSION_NUMBERS>
EXPT01278

>  <COMMON_NAME>
Methyl Methylsulfinylmethyl Sulfide

>  <CAS_NUMBER>
33577-16-1

$$$$
