52P
 OpenBabel10282417072D

 37 40  0  0  0  0  0  0  0  0999 V2000
   -1.6833   -4.0755    0.0000 F   0  0  0  0  0  0  0  0  0  0  0  0
   -1.6833   -3.2505    0.0000 C   0  0  0  0  0  0  0  0  0  0  0  0
   -2.3978   -2.8380    0.0000 C   0  0  0  0  0  0  0  0  0  0  0  0
   -2.3978   -2.0130    0.0000 C   0  0  0  0  0  0  0  0  0  0  0  0
   -1.6833   -1.6005    0.0000 C   0  0  0  0  0  0  0  0  0  0  0  0
   -1.6833   -0.7755    0.0000 S   0  0  0  0  0  0  0  0  0  0  0  0
   -0.9688   -0.3630    0.0000 C   0  0  0  0  0  0  0  0  0  0  0  0
   -0.9688    0.4620    0.0000 C   0  0  0  0  0  0  0  0  0  0  0  0
   -0.2544    0.8745    0.0000 C   0  0  0  0  0  0  0  0  0  0  0  0
    0.4601    0.4620    0.0000 C   0  0  0  0  0  0  0  0  0  0  0  0
    1.1746    0.8745    0.0000 C   0  0  0  0  0  0  0  0  0  0  0  0
    1.1746    1.6995    0.0000 C   0  0  0  0  0  0  0  0  0  0  0  0
    0.4601    2.1120    0.0000 C   0  0  0  0  0  0  0  0  0  0  0  0
   -0.2544    1.6995    0.0000 Cl  0  0  0  0  0  0  0  0  0  0  0  0
    0.4601    2.9370    0.0000 C   0  0  0  0  0  0  0  0  0  0  0  0
    1.1746    3.3495    0.0000 C   0  0  0  0  0  0  0  0  0  0  0  0
    1.8891    2.9370    0.0000 C   0  0  0  0  0  0  0  0  0  0  0  0
    1.8891    2.1120    0.0000 C   0  0  0  0  0  0  0  0  0  0  0  0
    2.6035    1.6995    0.0000 Cl  0  0  0  0  0  0  0  0  0  0  0  0
    1.8891    0.4620    0.0000 C   0  0  0  0  0  0  0  0  0  0  0  0
    2.6035    0.8745    0.0000 O   0  0  0  0  0  0  0  0  0  0  0  0
    1.8891   -0.3630    0.0000 N   0  0  0  0  0  0  0  0  0  0  0  0
    1.1746   -0.7755    0.0000 C   0  0  0  0  0  0  0  0  0  0  0  0
    0.4601   -0.3630    0.0000 N   0  0  0  0  0  0  0  0  0  0  0  0
   -0.2544   -0.7755    0.0000 N   0  0  0  0  0  0  0  0  0  0  0  0
   -0.9688   -2.0130    0.0000 C   0  0  0  0  0  0  0  0  0  0  0  0
   -0.2544   -1.6005    0.0000 F   0  0  0  0  0  0  0  0  0  0  0  0
   -0.9688   -2.8380    0.0000 C   0  0  0  0  0  0  0  0  0  0  0  0
   -3.2915   -3.3540    0.0000 H   0  0  0  0  0  0  0  0  0  0  0  0
   -3.2915   -1.4970    0.0000 H   0  0  0  0  0  0  0  0  0  0  0  0
   -1.8625    0.9780    0.0000 H   0  0  0  0  0  0  0  0  0  0  0  0
   -0.2544    1.9065    0.0000 H   0  0  0  0  0  0  0  0  0  0  0  0
   -0.4336    3.4530    0.0000 H   0  0  0  0  0  0  0  0  0  0  0  0
    1.1746    4.3815    0.0000 H   0  0  0  0  0  0  0  0  0  0  0  0
    2.7828    3.4530    0.0000 H   0  0  0  0  0  0  0  0  0  0  0  0
    1.1746   -1.8075    0.0000 H   0  0  0  0  0  0  0  0  0  0  0  0
   -0.0751   -3.3540    0.0000 H   0  0  0  0  0  0  0  0  0  0  0  0
  2  1  1  0  0  0  0
  2  3  1  0  0  0  0
  3 29  1  0  0  0  0
  4  3  2  0  0  0  0
  4 30  1  0  0  0  0
  5  4  1  0  0  0  0
  6  5  1  0  0  0  0
  6  7  1  0  0  0  0
  7 25  2  0  0  0  0
  8  7  1  0  0  0  0
  8  9  2  0  0  0  0
  8 31  1  0  0  0  0
  9 10  1  0  0  0  0
  9 32  1  0  0  0  0
 10 11  2  0  0  0  0
 10 24  1  0  0  0  0
 11 20  1  0  0  0  0
 12 11  1  0  0  0  0
 12 13  1  0  0  0  0
 13 14  1  0  0  0  0
 15 13  2  0  0  0  0
 15 33  1  0  0  0  0
 16 15  1  0  0  0  0
 16 34  1  0  0  0  0
 17 16  2  0  0  0  0
 17 18  1  0  0  0  0
 17 35  1  0  0  0  0
 18 12  2  0  0  0  0
 19 18  1  0  0  0  0
 20 21  2  0  0  0  0
 20 22  1  0  0  0  0
 23 22  2  0  0  0  0
 23 36  1  0  0  0  0
 24 23  1  0  0  0  0
 25 24  1  0  0  0  0
 26  5  2  0  0  0  0
 26 28  1  0  0  0  0
 27 26  1  0  0  0  0
 28  2  2  0  0  0  0
 28 37  1  0  0  0  0
M  END
>  <DRUGBANK_ID>
DB07138

>  <SECONDARY_ACCESSION_NUMBERS>
DB12790

>  <COMMON_NAME>
Neflamapimod

>  <CAS_NUMBER>
209410-46-8

>  <UNII>
TYL52QM320

>  <SYNONYMS>
Neflamapimod

$$$$
