
 OpenBabel10282417072D

191196  0  0  1  0  0  0  0  0999 V2000
    2.0133   -8.0642    0.0000 C   0  0  0  0  0  0  0  0  0  0  0  0
    2.2682   -7.2796    0.0000 C   0  0  1  0  0  0  0  0  0  0  0  0
    1.7162   -6.6665    0.0000 O   0  0  0  0  0  0  0  0  0  0  0  0
    3.0752   -7.1081    0.0000 C   0  0  1  0  0  0  0  0  0  0  0  0
    3.6272   -7.7212    0.0000 C   0  0  0  0  0  0  0  0  0  0  0  0
    3.3723   -8.5058    0.0000 O   0  0  0  0  0  0  0  0  0  0  0  0
    3.3301   -6.3235    0.0000 N   0  0  0  0  0  0  0  0  0  0  0  0
    2.7781   -5.7104    0.0000 C   0  0  0  0  0  0  0  0  0  0  0  0
    1.9711   -5.8819    0.0000 O   0  0  0  0  0  0  0  0  0  0  0  0
    3.0330   -4.9258    0.0000 C   0  0  0  0  0  0  0  0  0  0  0  0
    2.2261   -5.0973    0.0000 C   0  0  0  0  0  0  0  0  0  0  0  0
    1.6740   -4.4842    0.0000 S   0  0  0  0  0  0  0  0  0  0  0  0
    1.9290   -3.6996    0.0000 S   0  0  0  0  0  0  0  0  0  0  0  0
    2.7359   -3.5280    0.0000 C   0  0  0  0  0  0  0  0  0  0  0  0
    2.9909   -2.7434    0.0000 C   0  0  2  0  0  0  0  0  0  0  0  0
    2.1839   -2.5719    0.0000 N   0  0  0  0  0  0  0  0  0  0  0  0
    1.6319   -3.1850    0.0000 C   0  0  0  0  0  0  0  0  0  0  0  0
    1.6319   -4.0100    0.0000 O   0  0  0  0  0  0  0  0  0  0  0  0
    0.8249   -3.0135    0.0000 C   0  0  1  0  0  0  0  0  0  0  0  0
    0.5700   -2.2288    0.0000 C   0  0  0  0  0  0  0  0  0  0  0  0
   -0.2370   -2.0573    0.0000 C   0  0  0  0  0  0  0  0  0  0  0  0
   -0.7890   -2.6704    0.0000 C   0  0  0  0  0  0  0  0  0  0  0  0
   -1.5960   -2.4989    0.0000 C   0  0  0  0  0  0  0  0  0  0  0  0
   -1.8510   -1.7143    0.0000 C   0  0  0  0  0  0  0  0  0  0  0  0
   -1.2989   -1.1012    0.0000 C   0  0  0  0  0  0  0  0  0  0  0  0
   -0.4920   -1.2727    0.0000 C   0  0  0  0  0  0  0  0  0  0  0  0
    0.2729   -3.6266    0.0000 N   0  0  0  0  0  0  0  0  0  0  0  0
   -0.5341   -3.4550    0.0000 C   0  0  0  0  0  0  0  0  0  0  0  0
   -1.2015   -2.9701    0.0000 O   0  0  0  0  0  0  0  0  0  0  0  0
   -1.0861   -4.0681    0.0000 C   0  0  0  0  0  0  0  0  0  0  0  0
   -1.8931   -3.8966    0.0000 N   0  0  0  0  0  0  0  0  0  0  0  0
   -1.5186   -3.1615    0.0000 C   0  0  0  0  0  0  0  0  0  0  0  0
   -1.9679   -2.4696    0.0000 C   0  0  0  0  0  0  0  0  0  0  0  0
   -2.7918   -2.5128    0.0000 N   0  0  0  0  0  0  0  0  0  0  0  0
   -2.6202   -1.7058    0.0000 C   0  0  0  0  0  0  0  0  0  0  0  0
   -3.2333   -1.1538    0.0000 C   0  0  0  0  0  0  0  0  0  0  0  0
   -4.0180   -1.4087    0.0000 O   0  0  0  0  0  0  0  0  0  0  0  0
   -3.0618   -0.3468    0.0000 O   0  0  0  0  0  0  0  0  0  0  0  0
   -3.5268   -2.1383    0.0000 C   0  0  0  0  0  0  0  0  0  0  0  0
   -4.2187   -2.5876    0.0000 C   0  0  0  0  0  0  0  0  0  0  0  0
   -4.1756   -3.4114    0.0000 N   0  0  0  0  0  0  0  0  0  0  0  0
   -4.9825   -3.2399    0.0000 C   0  0  0  0  0  0  0  0  0  0  0  0
   -5.5346   -3.8530    0.0000 C   0  0  0  0  0  0  0  0  0  0  0  0
   -6.3415   -3.6815    0.0000 O   0  0  0  0  0  0  0  0  0  0  0  0
   -5.2796   -4.6376    0.0000 O   0  0  0  0  0  0  0  0  0  0  0  0
   -4.5501   -4.1465    0.0000 C   0  0  0  0  0  0  0  0  0  0  0  0
   -4.1008   -4.8384    0.0000 C   0  0  0  0  0  0  0  0  0  0  0  0
   -3.2769   -4.7953    0.0000 N   0  0  0  0  0  0  0  0  0  0  0  0
   -3.4484   -5.6022    0.0000 C   0  0  0  0  0  0  0  0  0  0  0  0
   -4.2331   -5.8572    0.0000 C   0  0  0  0  0  0  0  0  0  0  0  0
   -4.4046   -6.6641    0.0000 O   0  0  0  0  0  0  0  0  0  0  0  0
   -4.8462   -5.3051    0.0000 O   0  0  0  0  0  0  0  0  0  0  0  0
   -2.5418   -5.1698    0.0000 C   0  0  0  0  0  0  0  0  0  0  0  0
   -1.8499   -4.7205    0.0000 C   0  0  0  0  0  0  0  0  0  0  0  0
    3.7978   -2.5719    0.0000 C   0  0  0  0  0  0  0  0  0  0  0  0
    4.3499   -3.1850    0.0000 O   0  0  0  0  0  0  0  0  0  0  0  0
    4.0528   -1.7873    0.0000 N   0  0  0  0  0  0  0  0  0  0  0  0
    4.8598   -1.6157    0.0000 C   0  0  0  0  0  0  0  0  0  0  0  0
    4.3077   -1.0027    0.0000 C   0  0  0  0  0  0  0  0  0  0  0  0
    3.5008   -1.1742    0.0000 C   0  0  0  0  0  0  0  0  0  0  0  0
    3.2458   -1.9588    0.0000 C   0  0  0  0  0  0  0  0  0  0  0  0
    2.4388   -2.1303    0.0000 C   0  0  0  0  0  0  0  0  0  0  0  0
    1.8868   -1.5172    0.0000 C   0  0  0  0  0  0  0  0  0  0  0  0
    1.0798   -1.6888    0.0000 O   0  0  0  0  0  0  0  0  0  0  0  0
    2.1417   -0.7326    0.0000 C   0  0  0  0  0  0  0  0  0  0  0  0
    2.9487   -0.5611    0.0000 C   0  0  0  0  0  0  0  0  0  0  0  0
    5.1147   -0.8311    0.0000 C   0  0  0  0  0  0  0  0  0  0  0  0
    4.5627   -0.2180    0.0000 O   0  0  0  0  0  0  0  0  0  0  0  0
    5.9217   -0.6596    0.0000 N   0  0  0  0  0  0  0  0  0  0  0  0
    6.4737   -1.2727    0.0000 C   0  0  2  0  0  0  0  0  0  0  0  0
    7.2807   -1.1012    0.0000 C   0  0  0  0  0  0  0  0  0  0  0  0
    7.5356   -0.3165    0.0000 C   0  0  0  0  0  0  0  0  0  0  0  0
    7.0507    0.3509    0.0000 C   0  0  0  0  0  0  0  0  0  0  0  0
    7.5356    1.0183    0.0000 N   0  0  0  0  0  0  0  0  0  0  0  0
    8.3202    0.7634    0.0000 C   0  0  0  0  0  0  0  0  0  0  0  0
    9.0347    1.1759    0.0000 C   0  0  0  0  0  0  0  0  0  0  0  0
    9.7492    0.7634    0.0000 C   0  0  0  0  0  0  0  0  0  0  0  0
    9.7492   -0.0616    0.0000 C   0  0  0  0  0  0  0  0  0  0  0  0
    9.0347   -0.4741    0.0000 C   0  0  0  0  0  0  0  0  0  0  0  0
    8.3202   -0.0616    0.0000 C   0  0  0  0  0  0  0  0  0  0  0  0
    6.2188   -2.0573    0.0000 C   0  0  0  0  0  0  0  0  0  0  0  0
    5.4118   -2.2288    0.0000 O   0  0  0  0  0  0  0  0  0  0  0  0
    6.7708   -2.6704    0.0000 N   0  0  0  0  0  0  0  0  0  0  0  0
    6.5159   -3.4550    0.0000 C   0  0  1  0  0  0  0  0  0  0  0  0
    7.0679   -4.0681    0.0000 C   0  0  0  0  0  0  0  0  0  0  0  0
    7.8749   -3.8966    0.0000 C   0  0  0  0  0  0  0  0  0  0  0  0
    8.1298   -3.1120    0.0000 C   0  0  0  0  0  0  0  0  0  0  0  0
    8.9368   -2.9405    0.0000 C   0  0  0  0  0  0  0  0  0  0  0  0
    9.4888   -3.5535    0.0000 N   0  0  0  0  0  0  0  0  0  0  0  0
    5.7089   -3.6266    0.0000 C   0  0  0  0  0  0  0  0  0  0  0  0
    5.1569   -3.0135    0.0000 O   0  0  0  0  0  0  0  0  0  0  0  0
    5.4539   -4.4112    0.0000 N   0  0  0  0  0  0  0  0  0  0  0  0
    4.6470   -4.5827    0.0000 C   0  0  0  0  0  0  0  0  0  0  0  0
    5.1990   -5.1958    0.0000 C   0  0  1  0  0  0  0  0  0  0  0  0
    4.9441   -5.9804    0.0000 C   0  0  0  0  0  0  0  0  0  0  0  0
    6.0060   -5.0243    0.0000 O   0  0  0  0  0  0  0  0  0  0  0  0
    4.3920   -5.3673    0.0000 C   0  0  0  0  0  0  0  0  0  0  0  0
    4.4783   -6.1878    0.0000 O   0  0  0  0  0  0  0  0  0  0  0  0
    3.5851   -5.5389    0.0000 N   0  0  0  0  0  0  0  0  0  0  0  0
    0.9667   -8.2867    0.0000 H   0  0  0  0  0  0  0  0  0  0  0  0
    2.7293   -8.8593    0.0000 H   0  0  0  0  0  0  0  0  0  0  0  0
    1.6827   -9.0818    0.0000 H   0  0  0  0  0  0  0  0  0  0  0  0
    1.2216   -7.5021    0.0000 H   0  0  0  0  0  0  0  0  0  0  0  0
    2.0160   -5.7440    0.0000 H   0  0  0  0  0  0  0  0  0  0  0  0
    2.3592   -6.3129    0.0000 H   0  0  0  0  0  0  0  0  0  0  0  0
    4.6738   -7.4987    0.0000 H   0  0  0  0  0  0  0  0  0  0  0  0
    4.3432   -8.5164    0.0000 H   0  0  0  0  0  0  0  0  0  0  0  0
    2.4235   -8.7075    0.0000 H   0  0  0  0  0  0  0  0  0  0  0  0
    4.2931   -6.1188    0.0000 H   0  0  0  0  0  0  0  0  0  0  0  0
    2.7024   -5.9434    0.0000 H   0  0  0  0  0  0  0  0  0  0  0  0
    1.8955   -6.1149    0.0000 H   0  0  0  0  0  0  0  0  0  0  0  0
    1.1795   -5.3198    0.0000 H   0  0  0  0  0  0  0  0  0  0  0  0
    3.4519   -4.3232    0.0000 H   0  0  0  0  0  0  0  0  0  0  0  0
    3.7825   -3.3056    0.0000 H   0  0  0  0  0  0  0  0  0  0  0  0
    2.0642   -3.2784    0.0000 H   0  0  0  0  0  0  0  0  0  0  0  0
    1.8796   -1.6356    0.0000 H   0  0  0  0  0  0  0  0  0  0  0  0
    1.1556   -4.0311    0.0000 H   0  0  0  0  0  0  0  0  0  0  0  0
    1.2860   -1.4336    0.0000 H   0  0  0  0  0  0  0  0  0  0  0  0
    0.2393   -1.2112    0.0000 H   0  0  0  0  0  0  0  0  0  0  0  0
   -0.4701   -3.6519    0.0000 H   0  0  0  0  0  0  0  0  0  0  0  0
   -2.2865   -3.2659    0.0000 H   0  0  0  0  0  0  0  0  0  0  0  0
   -2.8605   -1.4997    0.0000 H   0  0  0  0  0  0  0  0  0  0  0  0
   -1.6178   -0.1197    0.0000 H   0  0  0  0  0  0  0  0  0  0  0  0
    0.1985   -0.5057    0.0000 H   0  0  0  0  0  0  0  0  0  0  0  0
    0.5771   -4.5629    0.0000 H   0  0  0  0  0  0  0  0  0  0  0  0
   -0.7554   -5.0857    0.0000 H   0  0  0  0  0  0  0  0  0  0  0  0
   -1.8020   -4.8633    0.0000 H   0  0  0  0  0  0  0  0  0  0  0  0
   -0.4501   -3.1055    0.0000 H   0  0  0  0  0  0  0  0  0  0  0  0
   -1.0328   -2.2081    0.0000 H   0  0  0  0  0  0  0  0  0  0  0  0
   -1.4821   -1.5162    0.0000 H   0  0  0  0  0  0  0  0  0  0  0  0
   -2.5507   -1.5722    0.0000 H   0  0  0  0  0  0  0  0  0  0  0  0
   -1.6026   -1.3752    0.0000 H   0  0  0  0  0  0  0  0  0  0  0  0
   -2.3977   -0.6592    0.0000 H   0  0  0  0  0  0  0  0  0  0  0  0
   -4.7143   -0.7817    0.0000 H   0  0  0  0  0  0  0  0  0  0  0  0
   -3.5828   -1.0698    0.0000 H   0  0  0  0  0  0  0  0  0  0  0  0
   -4.4802   -1.6525    0.0000 H   0  0  0  0  0  0  0  0  0  0  0  0
   -5.1720   -2.1018    0.0000 H   0  0  0  0  0  0  0  0  0  0  0  0
   -5.1161   -3.1703    0.0000 H   0  0  0  0  0  0  0  0  0  0  0  0
   -5.3131   -2.2223    0.0000 H   0  0  0  0  0  0  0  0  0  0  0  0
   -6.0291   -3.0174    0.0000 H   0  0  0  0  0  0  0  0  0  0  0  0
   -6.6311   -2.7904    0.0000 H   0  0  0  0  0  0  0  0  0  0  0  0
   -5.6186   -4.2025    0.0000 H   0  0  0  0  0  0  0  0  0  0  0  0
   -5.0359   -5.0999    0.0000 H   0  0  0  0  0  0  0  0  0  0  0  0
   -4.5866   -5.7917    0.0000 H   0  0  0  0  0  0  0  0  0  0  0  0
   -3.5181   -5.7358    0.0000 H   0  0  0  0  0  0  0  0  0  0  0  0
   -2.6532   -6.3181    0.0000 H   0  0  0  0  0  0  0  0  0  0  0  0
   -3.6708   -6.6488    0.0000 H   0  0  0  0  0  0  0  0  0  0  0  0
   -5.2957   -6.9537    0.0000 H   0  0  0  0  0  0  0  0  0  0  0  0
   -2.4858   -6.2383    0.0000 H   0  0  0  0  0  0  0  0  0  0  0  0
   -1.5884   -5.6556    0.0000 H   0  0  0  0  0  0  0  0  0  0  0  0
   -0.8965   -5.2063    0.0000 H   0  0  0  0  0  0  0  0  0  0  0  0
   -0.9525   -4.1377    0.0000 H   0  0  0  0  0  0  0  0  0  0  0  0
    3.3940   -1.0557    0.0000 H   0  0  0  0  0  0  0  0  0  0  0  0
    4.6372   -0.5691    0.0000 H   0  0  0  0  0  0  0  0  0  0  0  0
    4.6383    0.0150    0.0000 H   0  0  0  0  0  0  0  0  0  0  0  0
    3.5917   -0.2076    0.0000 H   0  0  0  0  0  0  0  0  0  0  0  0
    3.9363   -2.7258    0.0000 H   0  0  0  0  0  0  0  0  0  0  0  0
    2.1199   -3.1118    0.0000 H   0  0  0  0  0  0  0  0  0  0  0  0
    0.4528   -0.9925    0.0000 H   0  0  0  0  0  0  0  0  0  0  0  0
    1.4512    0.0343    0.0000 H   0  0  0  0  0  0  0  0  0  0  0  0
    3.2676    0.4204    0.0000 H   0  0  0  0  0  0  0  0  0  0  0  0
    6.2260    0.2767    0.0000 H   0  0  0  0  0  0  0  0  0  0  0  0
    6.8044   -0.2551    0.0000 H   0  0  0  0  0  0  0  0  0  0  0  0
    7.9967   -1.8964    0.0000 H   0  0  0  0  0  0  0  0  0  0  0  0
    8.3273   -0.8787    0.0000 H   0  0  0  0  0  0  0  0  0  0  0  0
    6.0187    0.3509    0.0000 H   0  0  0  0  0  0  0  0  0  0  0  0
    7.2314    1.9546    0.0000 H   0  0  0  0  0  0  0  0  0  0  0  0
    9.0347    2.2079    0.0000 H   0  0  0  0  0  0  0  0  0  0  0  0
   10.6429    1.2794    0.0000 H   0  0  0  0  0  0  0  0  0  0  0  0
   10.6429   -0.5776    0.0000 H   0  0  0  0  0  0  0  0  0  0  0  0
    9.0347   -1.5061    0.0000 H   0  0  0  0  0  0  0  0  0  0  0  0
    7.7338   -2.4657    0.0000 H   0  0  0  0  0  0  0  0  0  0  0  0
    7.5625   -3.2325    0.0000 H   0  0  0  0  0  0  0  0  0  0  0  0
    6.7372   -5.0857    0.0000 H   0  0  0  0  0  0  0  0  0  0  0  0
    7.7838   -4.8633    0.0000 H   0  0  0  0  0  0  0  0  0  0  0  0
    8.5909   -4.6918    0.0000 H   0  0  0  0  0  0  0  0  0  0  0  0
    8.9215   -3.6741    0.0000 H   0  0  0  0  0  0  0  0  0  0  0  0
    7.4138   -2.3168    0.0000 H   0  0  0  0  0  0  0  0  0  0  0  0
    8.4605   -2.0944    0.0000 H   0  0  0  0  0  0  0  0  0  0  0  0
    9.2674   -1.9229    0.0000 H   0  0  0  0  0  0  0  0  0  0  0  0
    9.9834   -2.7180    0.0000 H   0  0  0  0  0  0  0  0  0  0  0  0
    9.1736   -4.5236    0.0000 H   0  0  0  0  0  0  0  0  0  0  0  0
   10.4865   -3.3414    0.0000 H   0  0  0  0  0  0  0  0  0  0  0  0
    6.1126   -5.1429    0.0000 H   0  0  0  0  0  0  0  0  0  0  0  0
    4.8694   -5.6293    0.0000 H   0  0  0  0  0  0  0  0  0  0  0  0
    4.1524   -5.4183    0.0000 H   0  0  0  0  0  0  0  0  0  0  0  0
    3.8975   -6.2029    0.0000 H   0  0  0  0  0  0  0  0  0  0  0  0
    5.6601   -6.7755    0.0000 H   0  0  0  0  0  0  0  0  0  0  0  0
    4.6135   -6.9980    0.0000 H   0  0  0  0  0  0  0  0  0  0  0  0
    6.6550   -5.7452    0.0000 H   0  0  0  0  0  0  0  0  0  0  0  0
    3.2809   -6.4752    0.0000 H   0  0  0  0  0  0  0  0  0  0  0  0
  1100  1  0  0  0  0
  1101  1  0  0  0  0
  1102  1  0  0  0  0
  2  1  1  0  0  0  0
  2  3  1  0  0  0  0
  2  4  1  0  0  0  0
  2103  1  6  0  0  0
  3104  1  0  0  0  0
  4  5  1  0  0  0  0
  4  7  1  0  0  0  0
  4105  1  1  0  0  0
  5  6  1  0  0  0  0
  5106  1  0  0  0  0
  5107  1  0  0  0  0
  6108  1  0  0  0  0
  7  8  1  0  0  0  0
  7109  1  0  0  0  0
  8  9  2  0  0  0  0
 10  8  1  0  0  0  0
 10 11  1  0  0  0  0
 10 99  1  0  0  0  0
 10110  1  0  0  0  0
 11 12  1  0  0  0  0
 11111  1  0  0  0  0
 11112  1  0  0  0  0
 12 13  1  0  0  0  0
 13 14  1  0  0  0  0
 14113  1  0  0  0  0
 14114  1  0  0  0  0
 15 14  1  0  0  0  0
 15 16  1  0  0  0  0
 15 55  1  0  0  0  0
 15115  1  1  0  0  0
 16 17  1  0  0  0  0
 16116  1  0  0  0  0
 17 18  2  0  0  0  0
 19 17  1  0  0  0  0
 19 20  1  0  0  0  0
 19 27  1  0  0  0  0
 19117  1  1  0  0  0
 20 21  1  0  0  0  0
 20118  1  0  0  0  0
 20119  1  0  0  0  0
 21 22  2  0  0  0  0
 21 26  1  0  0  0  0
 22 23  1  0  0  0  0
 22120  1  0  0  0  0
 23 24  2  0  0  0  0
 23121  1  0  0  0  0
 24 25  1  0  0  0  0
 24122  1  0  0  0  0
 25 26  2  0  0  0  0
 25123  1  0  0  0  0
 26124  1  0  0  0  0
 27 28  1  0  0  0  0
 27125  1  0  0  0  0
 28 29  2  0  0  0  0
 28 30  1  0  0  0  0
 30 31  1  0  0  0  0
 30126  1  0  0  0  0
 30127  1  0  0  0  0
 31 32  1  0  0  0  0
 31 54  1  0  0  0  0
 32 33  1  0  0  0  0
 32128  1  0  0  0  0
 32129  1  0  0  0  0
 33 34  1  0  0  0  0
 33130  1  0  0  0  0
 33131  1  0  0  0  0
 34 35  1  0  0  0  0
 34 39  1  0  0  0  0
 35 36  1  0  0  0  0
 35132  1  0  0  0  0
 35133  1  0  0  0  0
 36 37  1  0  0  0  0
 36 38  2  0  0  0  0
 37134  1  0  0  0  0
 39 40  1  0  0  0  0
 39135  1  0  0  0  0
 39136  1  0  0  0  0
 40 41  1  0  0  0  0
 40137  1  0  0  0  0
 40138  1  0  0  0  0
 41 42  1  0  0  0  0
 41 46  1  0  0  0  0
 42 43  1  0  0  0  0
 42139  1  0  0  0  0
 42140  1  0  0  0  0
 43 44  1  0  0  0  0
 43 45  2  0  0  0  0
 44141  1  0  0  0  0
 46 47  1  0  0  0  0
 46142  1  0  0  0  0
 46143  1  0  0  0  0
 47 48  1  0  0  0  0
 47144  1  0  0  0  0
 47145  1  0  0  0  0
 48 49  1  0  0  0  0
 48 53  1  0  0  0  0
 49 50  1  0  0  0  0
 49146  1  0  0  0  0
 49147  1  0  0  0  0
 50 51  1  0  0  0  0
 50 52  2  0  0  0  0
 51148  1  0  0  0  0
 53 54  1  0  0  0  0
 53149  1  0  0  0  0
 53150  1  0  0  0  0
 54151  1  0  0  0  0
 54152  1  0  0  0  0
 55 56  2  0  0  0  0
 55 57  1  0  0  0  0
 57153  1  0  0  0  0
 58 57  1  0  0  0  0
 58 59  1  0  0  0  0
 58 67  1  0  0  0  0
 58154  1  0  0  0  0
 59 60  1  0  0  0  0
 59155  1  0  0  0  0
 59156  1  0  0  0  0
 60 61  2  0  0  0  0
 60 66  1  0  0  0  0
 61 62  1  0  0  0  0
 61157  1  0  0  0  0
 62 63  2  0  0  0  0
 62158  1  0  0  0  0
 63 64  1  0  0  0  0
 63 65  1  0  0  0  0
 64159  1  0  0  0  0
 65 66  2  0  0  0  0
 65160  1  0  0  0  0
 66161  1  0  0  0  0
 67 68  2  0  0  0  0
 67 69  1  0  0  0  0
 69162  1  0  0  0  0
 70 69  1  0  0  0  0
 70 71  1  0  0  0  0
 70 81  1  0  0  0  0
 70163  1  1  0  0  0
 71 72  1  0  0  0  0
 71164  1  0  0  0  0
 71165  1  0  0  0  0
 72 73  2  0  0  0  0
 72 80  1  0  0  0  0
 73 74  1  0  0  0  0
 73166  1  0  0  0  0
 74 75  1  0  0  0  0
 74167  1  0  0  0  0
 75 76  2  0  0  0  0
 75 80  1  0  0  0  0
 76 77  1  0  0  0  0
 76168  1  0  0  0  0
 77 78  2  0  0  0  0
 77169  1  0  0  0  0
 78 79  1  0  0  0  0
 78170  1  0  0  0  0
 79 80  2  0  0  0  0
 79171  1  0  0  0  0
 81 82  2  0  0  0  0
 81 83  1  0  0  0  0
 83172  1  0  0  0  0
 84 83  1  0  0  0  0
 84 85  1  0  0  0  0
 84 90  1  0  0  0  0
 84173  1  6  0  0  0
 85 86  1  0  0  0  0
 85174  1  0  0  0  0
 85175  1  0  0  0  0
 86 87  1  0  0  0  0
 86176  1  0  0  0  0
 86177  1  0  0  0  0
 87 88  1  0  0  0  0
 87178  1  0  0  0  0
 87179  1  0  0  0  0
 88 89  1  0  0  0  0
 88180  1  0  0  0  0
 88181  1  0  0  0  0
 89182  1  0  0  0  0
 89183  1  0  0  0  0
 90 91  2  0  0  0  0
 90 92  1  0  0  0  0
 92184  1  0  0  0  0
 93 92  1  0  0  0  0
 93 94  1  0  0  0  0
 93 97  1  0  0  0  0
 93185  1  0  0  0  0
 94 95  1  0  0  0  0
 94 96  1  0  0  0  0
 94186  1  1  0  0  0
 95187  1  0  0  0  0
 95188  1  0  0  0  0
 95189  1  0  0  0  0
 96190  1  0  0  0  0
 97 98  2  0  0  0  0
 97 99  1  0  0  0  0
 99191  1  0  0  0  0
M  END
>  <DRUGBANK_ID>
DB17969

>  <COMMON_NAME>
Edotreotide

>  <CAS_NUMBER>
204318-14-9

>  <UNII>
U194AS08HZ

>  <SYNONYMS>
Dotatoc; L-cysteinamide, n-((4,7,10-tris(carboxymetnyl)-1,4,7,10-tetraazacyclodec-1-yl)acetyl)-d-phenylalanyl-l-cysteinyl-l-tyrosyl-d-tryptophyl-l-lysyl-l-threonyl-n-((1r,2r)-2-hydroxy-1-(hydroxymethyl)propyl)-, cyclic(2->7)-disulfide; N-((4,7,10-tris(carboxymethyl)-1,4,7,10-tetraazacycoldodec-1-yl)acetyl-d-phenylalanyl-l-cysteinyl-l-tyrosyl-d-tryprophyl-l-lysyl-l-threonyl-n-((1r,2r)-2-hydroxy-1-(hydroxymethyl)propyl)-l-cysteinamide cyclic (2->7)-disulfide

$$$$
