1437
 OpenBabel10282417072D

 31 32  0  0  1  0  0  0  0  0999 V2000
    1.6500    0.1658    0.0000 O   0  0  0  0  0  0  0  0  0  0  0  0
    3.0791   -2.3092    0.0000 O   0  0  0  0  0  0  0  0  0  0  0  0
    2.3645   -1.0717    0.0000 N   0  0  0  0  0  0  0  0  0  0  0  0
    3.0791    0.1658    0.0000 C   0  0  3  0  0  0  0  0  0  0  0  0
    3.7935   -0.2467    0.0000 C   0  0  0  0  0  0  0  0  0  0  0  0
    2.6665    0.8803    0.0000 C   0  0  0  0  0  0  0  0  0  0  0  0
    3.4916    0.8803    0.0000 C   0  0  0  0  0  0  0  0  0  0  0  0
    3.7935   -1.0717    0.0000 C   0  0  0  0  0  0  0  0  0  0  0  0
    2.3645   -0.2467    0.0000 C   0  0  0  0  0  0  0  0  0  0  0  0
    3.0791   -1.4842    0.0000 C   0  0  0  0  0  0  0  0  0  0  0  0
    1.8415    0.8803    0.0000 C   0  0  0  0  0  0  0  0  0  0  0  0
    3.0791    1.5948    0.0000 C   0  0  0  0  0  0  0  0  0  0  0  0
    4.3166    0.8803    0.0000 C   0  0  0  0  0  0  0  0  0  0  0  0
    3.4916    2.3092    0.0000 C   0  0  0  0  0  0  0  0  0  0  0  0
    4.7291    1.5948    0.0000 C   0  0  0  0  0  0  0  0  0  0  0  0
    4.3166    2.3092    0.0000 C   0  0  0  0  0  0  0  0  0  0  0  0
    1.5119   -1.5640    0.0000 H   0  0  0  0  0  0  0  0  0  0  0  0
    4.7202    0.2883    0.0000 H   0  0  0  0  0  0  0  0  0  0  0  0
    4.7201   -0.7817    0.0000 H   0  0  0  0  0  0  0  0  0  0  0  0
    3.2015    1.8070    0.0000 H   0  0  0  0  0  0  0  0  0  0  0  0
    2.1315    1.8069    0.0000 H   0  0  0  0  0  0  0  0  0  0  0  0
    4.7202   -1.6067    0.0000 H   0  0  0  0  0  0  0  0  0  0  0  0
    3.7935   -2.1417    0.0000 H   0  0  0  0  0  0  0  0  0  0  0  0
    1.3065    1.8069    0.0000 H   0  0  0  0  0  0  0  0  0  0  0  0
    1.3065   -0.0463    0.0000 H   0  0  0  0  0  0  0  0  0  0  0  0
    0.7715    0.8803    0.0000 H   0  0  0  0  0  0  0  0  0  0  0  0
    2.0471    1.5948    0.0000 H   0  0  0  0  0  0  0  0  0  0  0  0
    4.8326   -0.0134    0.0000 H   0  0  0  0  0  0  0  0  0  0  0  0
    2.9756    3.2029    0.0000 H   0  0  0  0  0  0  0  0  0  0  0  0
    5.7611    1.5948    0.0000 H   0  0  0  0  0  0  0  0  0  0  0  0
    4.8326    3.2029    0.0000 H   0  0  0  0  0  0  0  0  0  0  0  0
  1  9  2  0  0  0  0
  2 10  2  0  0  0  0
  3  9  1  0  0  0  0
  3 10  1  0  0  0  0
  3 17  1  0  0  0  0
  4  5  1  0  0  0  0
  4  6  1  0  0  0  0
  4  7  1  0  0  0  0
  4  9  1  0  0  0  0
  5  8  1  0  0  0  0
  5 18  1  0  0  0  0
  5 19  1  0  0  0  0
  6 11  1  0  0  0  0
  6 20  1  0  0  0  0
  6 21  1  0  0  0  0
  7 12  2  0  0  0  0
  7 13  1  0  0  0  0
  8 10  1  0  0  0  0
  8 22  1  0  0  0  0
  8 23  1  0  0  0  0
 11 24  1  0  0  0  0
 11 25  1  0  0  0  0
 11 26  1  0  0  0  0
 12 14  1  0  0  0  0
 12 27  1  0  0  0  0
 13 15  2  0  0  0  0
 13 28  1  0  0  0  0
 14 16  2  0  0  0  0
 14 29  1  0  0  0  0
 15 16  1  0  0  0  0
 15 30  1  0  0  0  0
 16 31  1  0  0  0  0
M  END
>  <DRUGBANK_ID>
DB01437

>  <COMMON_NAME>
Glutethimide

>  <CAS_NUMBER>
77-21-4

>  <UNII>
C8I4BVN78E

>  <SYNONYMS>
2-Ethyl-2-phenylglutarimide; Glutethimide; Glutetimida

$$$$
