
 OpenBabel10282417072D

 39 40  0  0  0  0  0  0  0  0999 V2000
   -7.5441    7.1680    0.0000 C   0  0  0  0  0  0  0  0  0  0  0  0
   -7.0591    6.5005    0.0000 C   0  0  0  0  0  0  0  0  0  0  0  0
   -6.2387    6.5868    0.0000 N   0  0  0  0  0  0  0  0  0  0  0  0
   -5.7537    5.9193    0.0000 C   0  0  0  0  0  0  0  0  0  0  0  0
   -6.0893    5.1657    0.0000 C   0  0  0  0  0  0  0  0  0  0  0  0
   -5.6044    4.4982    0.0000 C   0  0  0  0  0  0  0  0  0  0  0  0
   -4.7839    4.5845    0.0000 N   0  3  0  0  0  0  0  0  0  0  0  0
   -4.3714    5.2989    0.0000 C   0  0  0  0  0  0  0  0  0  0  0  0
   -3.5644    5.1274    0.0000 S   0  0  0  0  0  0  0  0  0  0  0  0
   -3.4782    4.3069    0.0000 C   0  0  0  0  0  0  0  0  0  0  0  0
   -2.7637    3.8944    0.0000 C   0  0  0  0  0  0  0  0  0  0  0  0
   -2.0492    4.3069    0.0000 C   0  0  0  0  0  0  0  0  0  0  0  0
   -1.3348    3.8944    0.0000 O   0  0  0  0  0  0  0  0  0  0  0  0
   -0.6203    4.3069    0.0000 P   0  0  2  0  0  0  0  0  0  0  0  0
    0.0942    4.7194    0.0000 O   0  0  0  0  0  0  0  0  0  0  0  0
   -0.2078    3.5924    0.0000 O   0  5  0  0  0  0  0  0  0  0  0  0
   -1.0328    5.0214    0.0000 O   0  0  0  0  0  0  0  0  0  0  0  0
   -4.2319    3.9714    0.0000 C   0  0  0  0  0  0  0  0  0  0  0  0
   -4.4034    3.1644    0.0000 C   0  0  0  0  0  0  0  0  0  0  0  0
   -6.9098    5.0794    0.0000 C   0  0  0  0  0  0  0  0  0  0  0  0
   -7.2453    4.3257    0.0000 N   0  0  0  0  0  0  0  0  0  0  0  0
   -7.3947    5.7469    0.0000 N   0  0  0  0  0  0  0  0  0  0  0  0
   -7.1089    8.1455    0.0000 H   0  0  0  0  0  0  0  0  0  0  0  0
   -8.6082    7.0561    0.0000 H   0  0  0  0  0  0  0  0  0  0  0  0
   -8.1731    8.0336    0.0000 H   0  0  0  0  0  0  0  0  0  0  0  0
   -4.7274    6.0271    0.0000 H   0  0  0  0  0  0  0  0  0  0  0  0
   -6.0396    3.5207    0.0000 H   0  0  0  0  0  0  0  0  0  0  0  0
   -4.9754    3.6326    0.0000 H   0  0  0  0  0  0  0  0  0  0  0  0
   -4.7912    6.2417    0.0000 H   0  0  0  0  0  0  0  0  0  0  0  0
   -2.7637    2.8244    0.0000 H   0  0  0  0  0  0  0  0  0  0  0  0
   -1.8371    3.3594    0.0000 H   0  0  0  0  0  0  0  0  0  0  0  0
   -2.0492    5.3769    0.0000 H   0  0  0  0  0  0  0  0  0  0  0  0
   -1.1225    4.8419    0.0000 H   0  0  0  0  0  0  0  0  0  0  0  0
    0.9342    4.2344    0.0000 H   0  0  0  0  0  0  0  0  0  0  0  0
   -5.4210    2.8337    0.0000 H   0  0  0  0  0  0  0  0  0  0  0  0
   -3.6082    2.4485    0.0000 H   0  0  0  0  0  0  0  0  0  0  0  0
   -4.6258    2.1178    0.0000 H   0  0  0  0  0  0  0  0  0  0  0  0
   -8.2244    4.2227    0.0000 H   0  0  0  0  0  0  0  0  0  0  0  0
   -6.6666    3.5293    0.0000 H   0  0  0  0  0  0  0  0  0  0  0  0
  1  2  1  0  0  0  0
  1 23  1  0  0  0  0
  1 24  1  0  0  0  0
  1 25  1  0  0  0  0
  2  3  2  0  0  0  0
  2 22  1  0  0  0  0
  3  4  1  0  0  0  0
  4  5  2  0  0  0  0
  4 26  1  0  0  0  0
  5  6  1  0  0  0  0
  5 20  1  0  0  0  0
  6  7  1  0  0  0  0
  6 27  1  0  0  0  0
  6 28  1  0  0  0  0
  7  8  2  0  0  0  0
  7 18  1  0  0  0  0
  8  9  1  0  0  0  0
  8 29  1  0  0  0  0
  9 10  1  0  0  0  0
 10 11  1  0  0  0  0
 10 18  2  0  0  0  0
 11 12  1  0  0  0  0
 11 30  1  0  0  0  0
 11 31  1  0  0  0  0
 12 13  1  0  0  0  0
 12 32  1  0  0  0  0
 12 33  1  0  0  0  0
 13 14  1  0  0  0  0
 14 15  1  0  0  0  0
 14 16  1  1  0  0  0
 14 17  2  0  0  0  0
 15 34  1  0  0  0  0
 18 19  1  0  0  0  0
 19 35  1  0  0  0  0
 19 36  1  0  0  0  0
 19 37  1  0  0  0  0
 20 21  1  0  0  0  0
 20 22  2  0  0  0  0
 21 38  1  0  0  0  0
 21 39  1  0  0  0  0
M  CHG  2   7   1  16  -1
M  END
>  <DRUGBANK_ID>
DB03416

>  <SECONDARY_ACCESSION_NUMBERS>
EXPT03096

>  <COMMON_NAME>
Thiamine(1+) monophosphate

>  <CAS_NUMBER>
10023-48-0

>  <UNII>
71F2V60NN0

$$$$
