
 OpenBabel10282417072D

 33 32  0  0  1  0  0  0  0  0999 V2000
    9.9513    4.0954    0.0000 C   0  0  0  0  0  0  0  0  0  0  0  0
    9.9513    3.2704    0.0000 C   0  0  1  0  0  0  0  0  0  0  0  0
    9.2368    2.8579    0.0000 N   0  0  0  0  0  0  0  0  0  0  0  0
    8.5224    3.2704    0.0000 C   0  0  0  0  0  0  0  0  0  0  0  0
    7.8079    2.8579    0.0000 C   0  0  0  0  0  0  0  0  0  0  0  0
    7.0934    3.2704    0.0000 C   0  0  0  0  0  0  0  0  0  0  0  0
    6.3789    2.8579    0.0000 C   0  0  0  0  0  0  0  0  0  0  0  0
    5.6645    3.2704    0.0000 C   0  0  2  0  0  0  0  0  0  0  0  0
    5.6645    4.0954    0.0000 N   0  0  0  0  0  0  0  0  0  0  0  0
    4.9500    2.8579    0.0000 C   0  0  0  0  0  0  0  0  0  0  0  0
    4.2355    3.2704    0.0000 O   0  0  0  0  0  0  0  0  0  0  0  0
    4.9500    2.0329    0.0000 O   0  0  0  0  0  0  0  0  0  0  0  0
   10.6658    2.8579    0.0000 C   0  0  0  0  0  0  0  0  0  0  0  0
   11.3802    3.2704    0.0000 O   0  0  0  0  0  0  0  0  0  0  0  0
   10.6658    2.0329    0.0000 O   0  0  0  0  0  0  0  0  0  0  0  0
   10.8779    4.6304    0.0000 H   0  0  0  0  0  0  0  0  0  0  0  0
    9.0247    4.6304    0.0000 H   0  0  0  0  0  0  0  0  0  0  0  0
    9.9513    5.1654    0.0000 H   0  0  0  0  0  0  0  0  0  0  0  0
    9.0247    3.8054    0.0000 H   0  0  0  0  0  0  0  0  0  0  0  0
    9.2368    1.8379    0.0000 H   0  0  0  0  0  0  0  0  0  0  0  0
    8.5224    4.3404    0.0000 H   0  0  0  0  0  0  0  0  0  0  0  0
    7.5958    3.8054    0.0000 H   0  0  0  0  0  0  0  0  0  0  0  0
    7.8079    1.7879    0.0000 H   0  0  0  0  0  0  0  0  0  0  0  0
    6.8813    2.3229    0.0000 H   0  0  0  0  0  0  0  0  0  0  0  0
    7.0934    4.3404    0.0000 H   0  0  0  0  0  0  0  0  0  0  0  0
    6.1668    3.8054    0.0000 H   0  0  0  0  0  0  0  0  0  0  0  0
    6.3789    1.7879    0.0000 H   0  0  0  0  0  0  0  0  0  0  0  0
    5.4522    2.3229    0.0000 H   0  0  0  0  0  0  0  0  0  0  0  0
    6.5912    3.8054    0.0000 H   0  0  0  0  0  0  0  0  0  0  0  0
    6.5478    4.6054    0.0000 H   0  0  0  0  0  0  0  0  0  0  0  0
    4.7812    4.6054    0.0000 H   0  0  0  0  0  0  0  0  0  0  0  0
    4.2355    4.2074    0.0000 H   0  0  0  0  0  0  0  0  0  0  0  0
   12.1917    2.8019    0.0000 H   0  0  0  0  0  0  0  0  0  0  0  0
  1 16  1  0  0  0  0
  1 17  1  0  0  0  0
  1 18  1  0  0  0  0
  2  1  1  0  0  0  0
  2  3  1  0  0  0  0
  2 13  1  0  0  0  0
  2 19  1  1  0  0  0
  3  4  1  0  0  0  0
  3 20  1  0  0  0  0
  4  5  1  0  0  0  0
  4 21  1  0  0  0  0
  4 22  1  0  0  0  0
  5  6  1  0  0  0  0
  5 23  1  0  0  0  0
  5 24  1  0  0  0  0
  6  7  1  0  0  0  0
  6 25  1  0  0  0  0
  6 26  1  0  0  0  0
  7  8  1  0  0  0  0
  7 27  1  0  0  0  0
  7 28  1  0  0  0  0
  8  9  1  0  0  0  0
  8 10  1  0  0  0  0
  8 29  1  6  0  0  0
  9 30  1  0  0  0  0
  9 31  1  0  0  0  0
 10 11  1  0  0  0  0
 10 12  2  0  0  0  0
 11 32  1  0  0  0  0
 13 14  1  0  0  0  0
 13 15  2  0  0  0  0
 14 33  1  0  0  0  0
M  END
>  <DRUGBANK_ID>
DB02370

>  <SECONDARY_ACCESSION_NUMBERS>
EXPT02135

>  <COMMON_NAME>
Nz-(1-Carboxyethyl)-Lysine

$$$$
