BL4
 OpenBabel10282417072D

 38 41  0  0  0  0  0  0  0  0999 V2000
   -0.4442   -1.9965    0.0000 O   0  0  0  0  0  0  0  0  0  0  0  0
   -0.4442   -1.1715    0.0000 C   0  0  0  0  0  0  0  0  0  0  0  0
    0.2703   -0.7590    0.0000 C   0  0  2  0  0  0  0  0  0  0  0  0
    0.3566   -1.5795    0.0000 O   0  0  0  0  0  0  0  0  0  0  0  0
    1.0549   -1.0140    0.0000 C   0  0  0  0  0  0  0  0  0  0  0  0
    1.5399   -0.3465    0.0000 C   0  0  0  0  0  0  0  0  0  0  0  0
    1.0549    0.3209    0.0000 N   0  0  0  0  0  0  0  0  0  0  0  0
    1.3099    1.1055    0.0000 C   0  0  0  0  0  0  0  0  0  0  0  0
    2.1168    1.2770    0.0000 C   0  0  0  0  0  0  0  0  0  0  0  0
    2.3718    2.0617    0.0000 C   0  0  0  0  0  0  0  0  0  0  0  0
    1.8198    2.6748    0.0000 C   0  0  0  0  0  0  0  0  0  0  0  0
    1.0128    2.5032    0.0000 C   0  0  0  0  0  0  0  0  0  0  0  0
    0.7578    1.7186    0.0000 C   0  0  0  0  0  0  0  0  0  0  0  0
    0.2703    0.0660    0.0000 C   0  0  0  0  0  0  0  0  0  0  0  0
   -0.4442    0.4785    0.0000 N   0  0  0  0  0  0  0  0  0  0  0  0
   -1.1586    0.0660    0.0000 C   0  0  0  0  0  0  0  0  0  0  0  0
   -1.1586   -0.7590    0.0000 C   0  0  0  0  0  0  0  0  0  0  0  0
   -1.8731    0.4785    0.0000 C   0  0  0  0  0  0  0  0  0  0  0  0
   -2.5876    0.0660    0.0000 C   0  0  0  0  0  0  0  0  0  0  0  0
   -2.5876   -0.7590    0.0000 C   0  0  0  0  0  0  0  0  0  0  0  0
   -1.8731   -1.1715    0.0000 C   0  0  0  0  0  0  0  0  0  0  0  0
   -1.8731   -1.9965    0.0000 C   0  0  0  0  0  0  0  0  0  0  0  0
   -0.4281   -2.1497    0.0000 H   0  0  0  0  0  0  0  0  0  0  0  0
    1.3855   -2.0316    0.0000 H   0  0  0  0  0  0  0  0  0  0  0  0
    2.1117   -1.1814    0.0000 H   0  0  0  0  0  0  0  0  0  0  0  0
    2.6099   -0.3465    0.0000 H   0  0  0  0  0  0  0  0  0  0  0  0
    2.0256    0.6069    0.0000 H   0  0  0  0  0  0  0  0  0  0  0  0
    2.8073    0.5101    0.0000 H   0  0  0  0  0  0  0  0  0  0  0  0
    3.3813    2.2762    0.0000 H   0  0  0  0  0  0  0  0  0  0  0  0
    2.1387    3.6563    0.0000 H   0  0  0  0  0  0  0  0  0  0  0  0
    0.3223    3.2701    0.0000 H   0  0  0  0  0  0  0  0  0  0  0  0
   -0.2517    1.5040    0.0000 H   0  0  0  0  0  0  0  0  0  0  0  0
   -1.8731    1.5105    0.0000 H   0  0  0  0  0  0  0  0  0  0  0  0
   -3.4813    0.5820    0.0000 H   0  0  0  0  0  0  0  0  0  0  0  0
   -3.4813   -1.2750    0.0000 H   0  0  0  0  0  0  0  0  0  0  0  0
   -2.7997   -2.5315    0.0000 H   0  0  0  0  0  0  0  0  0  0  0  0
   -0.9465   -2.5315    0.0000 H   0  0  0  0  0  0  0  0  0  0  0  0
   -1.8731   -3.0665    0.0000 H   0  0  0  0  0  0  0  0  0  0  0  0
  2  1  2  0  0  0  0
  3  2  1  0  0  0  0
  3  5  1  0  0  0  0
  3  4  1  6  0  0  0
  4 23  1  0  0  0  0
  5 24  1  0  0  0  0
  5 25  1  0  0  0  0
  6  5  1  0  0  0  0
  6 26  1  0  0  0  0
  6 27  1  0  0  0  0
  7  6  1  0  0  0  0
  7 14  1  0  0  0  0
  8  7  1  0  0  0  0
  9  8  1  0  0  0  0
  9 28  1  0  0  0  0
 10  9  2  0  0  0  0
 10 29  1  0  0  0  0
 11 10  1  0  0  0  0
 11 12  2  0  0  0  0
 11 30  1  0  0  0  0
 12 13  1  0  0  0  0
 12 31  1  0  0  0  0
 13  8  2  0  0  0  0
 13 32  1  0  0  0  0
 14  3  1  0  0  0  0
 15 14  2  0  0  0  0
 15 16  1  0  0  0  0
 16 17  1  0  0  0  0
 17  2  1  0  0  0  0
 17 21  2  0  0  0  0
 18 16  2  0  0  0  0
 18 19  1  0  0  0  0
 18 33  1  0  0  0  0
 19 20  2  0  0  0  0
 19 34  1  0  0  0  0
 20 21  1  0  0  0  0
 20 35  1  0  0  0  0
 21 22  1  0  0  0  0
 22 36  1  0  0  0  0
 22 37  1  0  0  0  0
 22 38  1  0  0  0  0
M  END
>  <DRUGBANK_ID>
DB07468

>  <COMMON_NAME>
(3aS)-3a-hydroxy-5-methyl-1-phenyl-1,2,3,3a-tetrahydro-4H-pyrrolo[2,3-b]quinolin-4-one

$$$$
