
 OpenBabel10282417072D

 29 30  0  0  0  0  0  0  0  0999 V2000
   -1.0728    1.6450    0.0000 C   0  0  0  0  0  0  0  0  0  0  0  0
   -1.7873    1.2325    0.0000 C   0  0  0  0  0  0  0  0  0  0  0  0
   -1.7873    0.4075    0.0000 C   0  0  0  0  0  0  0  0  0  0  0  0
   -1.0728   -0.0049    0.0000 N   0  0  0  0  0  0  0  0  0  0  0  0
   -0.3583    0.4075    0.0000 C   0  0  0  0  0  0  0  0  0  0  0  0
   -0.3583    1.2325    0.0000 C   0  0  0  0  0  0  0  0  0  0  0  0
   -0.3584   -1.2424    0.0000 C   0  0  0  0  0  0  0  0  0  0  0  0
    0.3560   -0.8299    0.0000 C   0  0  0  0  0  0  0  0  0  0  0  0
    0.3560   -0.0049    0.0000 N   0  0  0  0  0  0  0  0  0  0  0  0
   -0.3584   -2.0674    0.0000 C   0  0  0  0  0  0  0  0  0  0  0  0
    0.3559   -2.4799    0.0000 C   0  0  0  0  0  0  0  0  0  0  0  0
    1.0704   -2.0675    0.0000 C   0  0  0  0  0  0  0  0  0  0  0  0
    1.0705   -1.2425    0.0000 C   0  0  0  0  0  0  0  0  0  0  0  0
    0.3559    1.6449    0.0000 C   0  0  0  0  0  0  0  0  0  0  0  0
    0.3561    2.4814    0.0000 O   0  0  0  0  0  0  0  0  0  0  0  0
    1.0605    1.2382    0.0000 O   0  0  0  0  0  0  0  0  0  0  0  0
    1.7848   -0.8301    0.0000 C   0  0  0  0  0  0  0  0  0  0  0  0
    1.7873   -2.4814    0.0000 Cl  0  0  0  0  0  0  0  0  0  0  0  0
   -1.0728    2.6770    0.0000 H   0  0  0  0  0  0  0  0  0  0  0  0
   -2.6810    1.7485    0.0000 H   0  0  0  0  0  0  0  0  0  0  0  0
   -2.6810   -0.1086    0.0000 H   0  0  0  0  0  0  0  0  0  0  0  0
   -1.2521   -0.7264    0.0000 H   0  0  0  0  0  0  0  0  0  0  0  0
    1.2086    0.4874    0.0000 H   0  0  0  0  0  0  0  0  0  0  0  0
   -1.2522   -2.5834    0.0000 H   0  0  0  0  0  0  0  0  0  0  0  0
    0.3558   -3.5119    0.0000 H   0  0  0  0  0  0  0  0  0  0  0  0
    1.0606    0.3012    0.0000 H   0  0  0  0  0  0  0  0  0  0  0  0
    2.7114   -1.3651    0.0000 H   0  0  0  0  0  0  0  0  0  0  0  0
    1.7848    0.2399    0.0000 H   0  0  0  0  0  0  0  0  0  0  0  0
    2.7114   -0.2951    0.0000 H   0  0  0  0  0  0  0  0  0  0  0  0
  1  2  2  0  0  0  0
  1  6  1  0  0  0  0
  1 19  1  0  0  0  0
  2  3  1  0  0  0  0
  2 20  1  0  0  0  0
  3  4  2  0  0  0  0
  3 21  1  0  0  0  0
  4  5  1  0  0  0  0
  5  6  2  0  0  0  0
  5  9  1  0  0  0  0
  6 14  1  0  0  0  0
  7  8  1  0  0  0  0
  7 10  2  0  0  0  0
  7 22  1  0  0  0  0
  8  9  1  0  0  0  0
  8 13  2  0  0  0  0
  9 23  1  0  0  0  0
 10 11  1  0  0  0  0
 10 24  1  0  0  0  0
 11 12  2  0  0  0  0
 11 25  1  0  0  0  0
 12 13  1  0  0  0  0
 12 18  1  0  0  0  0
 13 17  1  0  0  0  0
 14 15  2  0  0  0  0
 14 16  1  0  0  0  0
 16 26  1  0  0  0  0
 17 27  1  0  0  0  0
 17 28  1  0  0  0  0
 17 29  1  0  0  0  0
M  END
>  <DRUGBANK_ID>
DB09218

>  <COMMON_NAME>
Clonixin

>  <CAS_NUMBER>
17737-65-4

>  <UNII>
V7DXN0M42R

>  <SYNONYMS>
Clonixin; clonixino

$$$$
