
 OpenBabel10282417072D

 91 96  0  0  0  0  0  0  0  0999 V2000
   -3.4060   -3.7923    0.0000 C   0  0  0  0  0  0  0  0  0  0  0  0
   -2.5990   -3.6207    0.0000 N   0  0  0  0  0  0  0  0  0  0  0  0
   -2.3441   -2.8361    0.0000 C   0  0  0  0  0  0  0  0  0  0  0  0
   -1.5371   -2.6646    0.0000 C   0  0  0  0  0  0  0  0  0  0  0  0
   -0.9851   -3.2777    0.0000 N   0  0  0  0  0  0  0  0  0  0  0  0
   -0.1781   -3.1062    0.0000 C   0  0  0  0  0  0  0  0  0  0  0  0
    0.0768   -2.3215    0.0000 C   0  0  0  0  0  0  0  0  0  0  0  0
    0.8838   -2.1500    0.0000 C   0  0  0  0  0  0  0  0  0  0  0  0
    1.1387   -1.3654    0.0000 N   0  0  0  0  0  0  0  0  0  0  0  0
    0.6538   -0.6979    0.0000 C   0  0  0  0  0  0  0  0  0  0  0  0
   -0.1712   -0.6979    0.0000 C   0  0  0  0  0  0  0  0  0  0  0  0
    1.1387   -0.0305    0.0000 C   0  0  0  0  0  0  0  0  0  0  0  0
    0.8838    0.7541    0.0000 C   0  0  0  0  0  0  0  0  0  0  0  0
    1.9233   -0.2854    0.0000 C   0  0  0  0  0  0  0  0  0  0  0  0
    2.6378    0.1271    0.0000 C   0  0  0  0  0  0  0  0  0  0  0  0
    3.3523   -0.2854    0.0000 C   0  0  0  0  0  0  0  0  0  0  0  0
    4.0668    0.1271    0.0000 O   0  0  0  0  0  0  0  0  0  0  0  0
    4.7812   -0.2854    0.0000 C   0  0  0  0  0  0  0  0  0  0  0  0
    5.4957    0.1271    0.0000 C   0  0  0  0  0  0  0  0  0  0  0  0
    6.2102   -0.2854    0.0000 C   0  0  0  0  0  0  0  0  0  0  0  0
    6.2102   -1.1104    0.0000 C   0  0  0  0  0  0  0  0  0  0  0  0
    5.4957   -1.5229    0.0000 C   0  0  0  0  0  0  0  0  0  0  0  0
    4.7812   -1.1104    0.0000 C   0  0  0  0  0  0  0  0  0  0  0  0
    6.9246    0.1271    0.0000 C   0  0  0  0  0  0  0  0  0  0  0  0
    6.9246    0.9521    0.0000 O   0  0  0  0  0  0  0  0  0  0  0  0
    7.6391   -0.2854    0.0000 N   0  0  0  0  0  0  0  0  0  0  0  0
    8.3536    0.1271    0.0000 C   0  0  0  0  0  0  0  0  0  0  0  0
    9.0681   -0.2854    0.0000 C   0  0  0  0  0  0  0  0  0  0  0  0
    9.0681   -1.1104    0.0000 N   0  0  0  0  0  0  0  0  0  0  0  0
    9.7825   -1.5229    0.0000 C   0  0  0  0  0  0  0  0  0  0  0  0
   10.4970   -1.1104    0.0000 C   0  0  0  0  0  0  0  0  0  0  0  0
   11.2115   -1.5229    0.0000 C   0  0  0  0  0  0  0  0  0  0  0  0
   11.9259   -1.1104    0.0000 C   0  0  0  0  0  0  0  0  0  0  0  0
   12.6404   -1.5229    0.0000 C   0  0  0  0  0  0  0  0  0  0  0  0
   12.6404   -2.3479    0.0000 C   0  0  0  0  0  0  0  0  0  0  0  0
   13.3549   -2.7604    0.0000 F   0  0  0  0  0  0  0  0  0  0  0  0
   11.9259   -2.7604    0.0000 C   0  0  0  0  0  0  0  0  0  0  0  0
   11.2115   -2.3479    0.0000 C   0  0  0  0  0  0  0  0  0  0  0  0
    8.3536   -1.5229    0.0000 C   0  0  0  0  0  0  0  0  0  0  0  0
    7.6391   -1.1104    0.0000 C   0  0  0  0  0  0  0  0  0  0  0  0
    3.3523   -1.1104    0.0000 C   0  0  0  0  0  0  0  0  0  0  0  0
    2.6378   -1.5229    0.0000 C   0  0  0  0  0  0  0  0  0  0  0  0
    1.9233   -1.1104    0.0000 C   0  0  0  0  0  0  0  0  0  0  0  0
   -1.2400   -4.0623    0.0000 C   0  0  0  0  0  0  0  0  0  0  0  0
   -2.0470   -4.2338    0.0000 C   0  0  0  0  0  0  0  0  0  0  0  0
   -4.1220   -2.9972    0.0000 H   0  0  0  0  0  0  0  0  0  0  0  0
   -3.7366   -4.8100    0.0000 H   0  0  0  0  0  0  0  0  0  0  0  0
   -4.4526   -4.0148    0.0000 H   0  0  0  0  0  0  0  0  0  0  0  0
   -3.0601   -2.0409    0.0000 H   0  0  0  0  0  0  0  0  0  0  0  0
   -2.0134   -1.8185    0.0000 H   0  0  0  0  0  0  0  0  0  0  0  0
   -1.2064   -1.6470    0.0000 H   0  0  0  0  0  0  0  0  0  0  0  0
   -0.4905   -2.4422    0.0000 H   0  0  0  0  0  0  0  0  0  0  0  0
    0.5379   -3.9014    0.0000 H   0  0  0  0  0  0  0  0  0  0  0  0
    0.8685   -2.8837    0.0000 H   0  0  0  0  0  0  0  0  0  0  0  0
   -0.6392   -1.5263    0.0000 H   0  0  0  0  0  0  0  0  0  0  0  0
    0.4075   -1.3039    0.0000 H   0  0  0  0  0  0  0  0  0  0  0  0
    1.5998   -2.9452    0.0000 H   0  0  0  0  0  0  0  0  0  0  0  0
    1.9304   -1.9275    0.0000 H   0  0  0  0  0  0  0  0  0  0  0  0
   -0.7062    0.2287    0.0000 H   0  0  0  0  0  0  0  0  0  0  0  0
   -0.7062   -1.6245    0.0000 H   0  0  0  0  0  0  0  0  0  0  0  0
   -1.2412   -0.6979    0.0000 H   0  0  0  0  0  0  0  0  0  0  0  0
    1.5998    1.5492    0.0000 H   0  0  0  0  0  0  0  0  0  0  0  0
   -0.1628    0.9766    0.0000 H   0  0  0  0  0  0  0  0  0  0  0  0
    0.5532    1.7717    0.0000 H   0  0  0  0  0  0  0  0  0  0  0  0
    2.6378    1.1591    0.0000 H   0  0  0  0  0  0  0  0  0  0  0  0
    5.4957    1.1591    0.0000 H   0  0  0  0  0  0  0  0  0  0  0  0
    7.1039   -1.6264    0.0000 H   0  0  0  0  0  0  0  0  0  0  0  0
    5.4957   -2.5549    0.0000 H   0  0  0  0  0  0  0  0  0  0  0  0
    3.8875   -1.6264    0.0000 H   0  0  0  0  0  0  0  0  0  0  0  0
    8.3536    1.1971    0.0000 H   0  0  0  0  0  0  0  0  0  0  0  0
    9.2802    0.6621    0.0000 H   0  0  0  0  0  0  0  0  0  0  0  0
    9.9947    0.2496    0.0000 H   0  0  0  0  0  0  0  0  0  0  0  0
    9.9947   -0.8204    0.0000 H   0  0  0  0  0  0  0  0  0  0  0  0
    9.7825   -2.5929    0.0000 H   0  0  0  0  0  0  0  0  0  0  0  0
   10.7091   -2.0579    0.0000 H   0  0  0  0  0  0  0  0  0  0  0  0
   10.4970   -0.0404    0.0000 H   0  0  0  0  0  0  0  0  0  0  0  0
   11.4236   -0.5754    0.0000 H   0  0  0  0  0  0  0  0  0  0  0  0
   11.9259   -0.0784    0.0000 H   0  0  0  0  0  0  0  0  0  0  0  0
   13.5341   -1.0069    0.0000 H   0  0  0  0  0  0  0  0  0  0  0  0
   11.9259   -3.7924    0.0000 H   0  0  0  0  0  0  0  0  0  0  0  0
   10.3178   -2.8639    0.0000 H   0  0  0  0  0  0  0  0  0  0  0  0
    8.3536   -2.5929    0.0000 H   0  0  0  0  0  0  0  0  0  0  0  0
    7.4270   -2.0579    0.0000 H   0  0  0  0  0  0  0  0  0  0  0  0
    6.7125   -1.6454    0.0000 H   0  0  0  0  0  0  0  0  0  0  0  0
    6.7125   -0.5754    0.0000 H   0  0  0  0  0  0  0  0  0  0  0  0
    4.2460   -1.6264    0.0000 H   0  0  0  0  0  0  0  0  0  0  0  0
    2.6378   -2.5549    0.0000 H   0  0  0  0  0  0  0  0  0  0  0  0
   -0.5240   -4.8575    0.0000 H   0  0  0  0  0  0  0  0  0  0  0  0
   -1.5707   -5.0799    0.0000 H   0  0  0  0  0  0  0  0  0  0  0  0
   -2.3777   -5.2514    0.0000 H   0  0  0  0  0  0  0  0  0  0  0  0
   -3.0936   -4.4562    0.0000 H   0  0  0  0  0  0  0  0  0  0  0  0
  1  2  1  0  0  0  0
  1 46  1  0  0  0  0
  1 47  1  0  0  0  0
  1 48  1  0  0  0  0
  2  3  1  0  0  0  0
  2 45  1  0  0  0  0
  3  4  1  0  0  0  0
  3 49  1  0  0  0  0
  3 50  1  0  0  0  0
  4  5  1  0  0  0  0
  4 51  1  0  0  0  0
  4 52  1  0  0  0  0
  5  6  1  0  0  0  0
  5 44  1  0  0  0  0
  6  7  1  0  0  0  0
  6 53  1  0  0  0  0
  6 54  1  0  0  0  0
  7  8  1  0  0  0  0
  7 55  1  0  0  0  0
  7 56  1  0  0  0  0
  8  9  1  0  0  0  0
  8 57  1  0  0  0  0
  8 58  1  0  0  0  0
  9 10  1  0  0  0  0
  9 43  1  0  0  0  0
 10 11  1  0  0  0  0
 10 12  2  0  0  0  0
 11 59  1  0  0  0  0
 11 60  1  0  0  0  0
 11 61  1  0  0  0  0
 12 13  1  0  0  0  0
 12 14  1  0  0  0  0
 13 62  1  0  0  0  0
 13 63  1  0  0  0  0
 13 64  1  0  0  0  0
 14 15  2  0  0  0  0
 14 43  1  0  0  0  0
 15 16  1  0  0  0  0
 15 65  1  0  0  0  0
 16 17  1  0  0  0  0
 16 41  2  0  0  0  0
 17 18  1  0  0  0  0
 18 19  2  0  0  0  0
 18 23  1  0  0  0  0
 19 20  1  0  0  0  0
 19 66  1  0  0  0  0
 20 21  2  0  0  0  0
 20 24  1  0  0  0  0
 21 22  1  0  0  0  0
 21 67  1  0  0  0  0
 22 23  2  0  0  0  0
 22 68  1  0  0  0  0
 23 69  1  0  0  0  0
 24 25  2  0  0  0  0
 24 26  1  0  0  0  0
 26 27  1  0  0  0  0
 26 40  1  0  0  0  0
 27 28  1  0  0  0  0
 27 70  1  0  0  0  0
 27 71  1  0  0  0  0
 28 29  1  0  0  0  0
 28 72  1  0  0  0  0
 28 73  1  0  0  0  0
 29 30  1  0  0  0  0
 29 39  1  0  0  0  0
 30 31  1  0  0  0  0
 30 74  1  0  0  0  0
 30 75  1  0  0  0  0
 31 32  1  0  0  0  0
 31 76  1  0  0  0  0
 31 77  1  0  0  0  0
 32 33  2  0  0  0  0
 32 38  1  0  0  0  0
 33 34  1  0  0  0  0
 33 78  1  0  0  0  0
 34 35  2  0  0  0  0
 34 79  1  0  0  0  0
 35 36  1  0  0  0  0
 35 37  1  0  0  0  0
 37 38  2  0  0  0  0
 37 80  1  0  0  0  0
 38 81  1  0  0  0  0
 39 40  1  0  0  0  0
 39 82  1  0  0  0  0
 39 83  1  0  0  0  0
 40 84  1  0  0  0  0
 40 85  1  0  0  0  0
 41 42  1  0  0  0  0
 41 86  1  0  0  0  0
 42 43  2  0  0  0  0
 42 87  1  0  0  0  0
 44 45  1  0  0  0  0
 44 88  1  0  0  0  0
 44 89  1  0  0  0  0
 45 90  1  0  0  0  0
 45 91  1  0  0  0  0
M  END
>  <DRUGBANK_ID>
DB17198

>  <COMMON_NAME>
ATM-3507

>  <CAS_NUMBER>
1861449-70-8

>  <UNII>
MC4FSR36T2

>  <SYNONYMS>
(3-((2,3-dimethyl-1-(3-(4-methylpiperazin-1-yl)propyl)-1h-indol-5-yl)oxy)phenyl)(4-(4-fluorophenethyl)piperazin-1-yl)methanone; Anisina; Methanone, (3-((2,3-dimethyl-1-(3-(4-methyl-1-piperazinyl)propyl)-1h-indol-5-yl)oxy)phenyl)(4-(2-(4-fluorophenyl)ethyl)-1-piperazinyl)-

$$$$
