
 OpenBabel10282417072D

 69 73  0  0  1  0  0  0  0  0999 V2000
    2.9559   -1.0942    0.0000 C   0  0  0  0  0  0  0  0  0  0  0  0
    2.4256   -2.0127    0.0000 C   0  0  0  0  0  0  0  0  0  0  0  0
   -1.4289   -2.4749    0.0000 C   0  0  0  0  0  0  0  0  0  0  0  0
    4.2868    0.8250    0.0000 C   0  0  0  0  0  0  0  0  0  0  0  0
    3.5724    1.2374    0.0000 C   0  0  0  0  0  0  0  0  0  0  0  0
    4.2868    0.0000    0.0000 C   0  0  0  0  0  0  0  0  0  0  0  0
   -0.8932    5.9420    0.0000 C   0  0  0  0  0  0  0  0  0  0  0  0
   -1.3057    5.2275    0.0000 C   0  0  0  0  0  0  0  0  0  0  0  0
    2.8579    0.8250    0.0000 C   0  0  0  0  0  0  0  0  0  0  0  0
    3.5724   -0.4125    0.0000 C   0  0  0  0  0  0  0  0  0  0  0  0
    2.1434    1.2374    0.0000 C   0  0  0  0  0  0  0  0  0  0  0  0
    0.7145    1.2374    0.0000 C   0  0  0  0  0  0  0  0  0  0  0  0
    2.1434    2.0625    0.0000 C   0  0  0  0  0  0  0  0  0  0  0  0
    0.7145    2.0625    0.0000 C   0  0  0  0  0  0  0  0  0  0  0  0
   -0.7145   -0.4125    0.0000 C   0  0  0  0  0  0  0  0  0  0  0  0
    0.0000    0.0000    0.0000 C   0  0  0  0  0  0  0  0  0  0  0  0
   -0.0862    5.7705    0.0000 C   0  0  0  0  0  0  0  0  0  0  0  0
   -0.7537    4.6143    0.0000 C   0  0  0  0  0  0  0  0  0  0  0  0
    0.7145    4.5375    0.0000 C   0  0  0  0  0  0  0  0  0  0  0  0
    0.7145    3.7125    0.0000 C   0  0  0  0  0  0  0  0  0  0  0  0
    0.0000   -1.6500    0.0000 C   0  0  0  0  0  0  0  0  0  0  0  0
    1.4289    0.8250    0.0000 C   0  0  0  0  0  0  0  0  0  0  0  0
    2.8579    0.0000    0.0000 C   0  0  0  0  0  0  0  0  0  0  0  0
    1.4289    2.4749    0.0000 C   0  0  0  0  0  0  0  0  0  0  0  0
   -0.7145   -1.2374    0.0000 C   0  0  0  0  0  0  0  0  0  0  0  0
    0.7145   -0.4125    0.0000 C   0  0  0  0  0  0  0  0  0  0  0  0
    0.7145   -1.2374    0.0000 C   0  0  0  0  0  0  0  0  0  0  0  0
    1.4289    0.0000    0.0000 C   0  0  2  0  0  0  0  0  0  0  0  0
    2.1434   -0.4125    0.0000 C   0  0  1  0  0  0  0  0  0  0  0  0
    2.1434   -1.2374    0.0000 C   0  0  0  0  0  0  0  0  0  0  0  0
    0.0000    4.9499    0.0000 N   0  0  0  0  0  0  0  0  0  0  0  0
   -1.4289   -1.6500    0.0000 O   0  0  0  0  0  0  0  0  0  0  0  0
    1.4289    3.3000    0.0000 O   0  0  0  0  0  0  0  0  0  0  0  0
    1.4289   -1.6500    0.0000 O   0  0  0  0  0  0  0  0  0  0  0  0
    2.1434    0.4125    0.0000 H   0  0  0  0  0  0  0  0  0  0  0  0
    2.8579   -0.8250    0.0000 H   0  0  0  0  0  0  0  0  0  0  0  0
    3.6436   -1.9139    0.0000 H   0  0  0  0  0  0  0  0  0  0  0  0
    3.3219   -0.0888    0.0000 H   0  0  0  0  0  0  0  0  0  0  0  0
    4.0097   -0.9085    0.0000 H   0  0  0  0  0  0  0  0  0  0  0  0
    1.7378   -2.8324    0.0000 H   0  0  0  0  0  0  0  0  0  0  0  0
    3.4793   -2.1985    0.0000 H   0  0  0  0  0  0  0  0  0  0  0  0
    2.7916   -3.0182    0.0000 H   0  0  0  0  0  0  0  0  0  0  0  0
   -2.3555   -3.0099    0.0000 H   0  0  0  0  0  0  0  0  0  0  0  0
   -0.5023   -3.0099    0.0000 H   0  0  0  0  0  0  0  0  0  0  0  0
   -1.4289   -3.5449    0.0000 H   0  0  0  0  0  0  0  0  0  0  0  0
    5.1805    1.3410    0.0000 H   0  0  0  0  0  0  0  0  0  0  0  0
    3.5724    2.2694    0.0000 H   0  0  0  0  0  0  0  0  0  0  0  0
    5.1805   -0.5160    0.0000 H   0  0  0  0  0  0  0  0  0  0  0  0
   -1.3284    6.9195    0.0000 H   0  0  0  0  0  0  0  0  0  0  0  0
   -0.2199    6.7736    0.0000 H   0  0  0  0  0  0  0  0  0  0  0  0
   -2.3698    5.1157    0.0000 H   0  0  0  0  0  0  0  0  0  0  0  0
   -1.6892    4.2286    0.0000 H   0  0  0  0  0  0  0  0  0  0  0  0
    1.9642    1.3411    0.0000 H   0  0  0  0  0  0  0  0  0  0  0  0
    3.5724   -1.4445    0.0000 H   0  0  0  0  0  0  0  0  0  0  0  0
    3.0371    0.7213    0.0000 H   0  0  0  0  0  0  0  0  0  0  0  0
   -0.1792    0.7214    0.0000 H   0  0  0  0  0  0  0  0  0  0  0  0
    3.0371    2.5786    0.0000 H   0  0  0  0  0  0  0  0  0  0  0  0
   -0.1792    2.5785    0.0000 H   0  0  0  0  0  0  0  0  0  0  0  0
   -1.6082    0.1035    0.0000 H   0  0  0  0  0  0  0  0  0  0  0  0
    0.0000    1.0320    0.0000 H   0  0  0  0  0  0  0  0  0  0  0  0
    0.7090    6.4865    0.0000 H   0  0  0  0  0  0  0  0  0  0  0  0
    0.9127    5.3870    0.0000 H   0  0  0  0  0  0  0  0  0  0  0  0
   -0.9762    3.5677    0.0000 H   0  0  0  0  0  0  0  0  0  0  0  0
    0.0778    3.9409    0.0000 H   0  0  0  0  0  0  0  0  0  0  0  0
    1.6411    5.0726    0.0000 H   0  0  0  0  0  0  0  0  0  0  0  0
    0.7144    5.6075    0.0000 H   0  0  0  0  0  0  0  0  0  0  0  0
   -0.2122    3.1775    0.0000 H   0  0  0  0  0  0  0  0  0  0  0  0
    0.7145    2.6425    0.0000 H   0  0  0  0  0  0  0  0  0  0  0  0
    0.0000   -2.6820    0.0000 H   0  0  0  0  0  0  0  0  0  0  0  0
  1 37  1  0  0  0  0
  1 38  1  0  0  0  0
  1 39  1  0  0  0  0
  2 40  1  0  0  0  0
  2 41  1  0  0  0  0
  2 42  1  0  0  0  0
  3 43  1  0  0  0  0
  3 44  1  0  0  0  0
  3 45  1  0  0  0  0
  4 46  1  0  0  0  0
  5  4  2  0  0  0  0
  5 47  1  0  0  0  0
  6  4  1  0  0  0  0
  6 48  1  0  0  0  0
  7 49  1  0  0  0  0
  7 50  1  0  0  0  0
  8  7  1  0  0  0  0
  8 51  1  0  0  0  0
  8 52  1  0  0  0  0
  9  5  1  0  0  0  0
  9 53  1  0  0  0  0
 10  6  2  0  0  0  0
 10 54  1  0  0  0  0
 11 55  1  0  0  0  0
 12 56  1  0  0  0  0
 13 11  1  0  0  0  0
 13 57  1  0  0  0  0
 14 12  2  0  0  0  0
 14 58  1  0  0  0  0
 15 59  1  0  0  0  0
 16 15  2  0  0  0  0
 16 60  1  0  0  0  0
 17  7  1  0  0  0  0
 17 61  1  0  0  0  0
 17 62  1  0  0  0  0
 18  8  1  0  0  0  0
 18 63  1  0  0  0  0
 18 64  1  0  0  0  0
 19 65  1  0  0  0  0
 19 66  1  0  0  0  0
 20 19  1  0  0  0  0
 20 67  1  0  0  0  0
 20 68  1  0  0  0  0
 21 69  1  0  0  0  0
 22 11  2  0  0  0  0
 22 12  1  0  0  0  0
 23  9  2  0  0  0  0
 23 10  1  0  0  0  0
 24 13  2  0  0  0  0
 24 14  1  0  0  0  0
 25 15  1  0  0  0  0
 25 21  2  0  0  0  0
 26 16  1  0  0  0  0
 27 21  1  0  0  0  0
 27 26  2  0  0  0  0
 28 22  1  0  0  0  0
 28 26  1  0  0  0  0
 28 35  1  6  0  0  0
 29 23  1  0  0  0  0
 29 28  1  0  0  0  0
 29 36  1  1  0  0  0
 30  1  1  0  0  0  0
 30  2  1  0  0  0  0
 30 29  1  0  0  0  0
 31 17  1  0  0  0  0
 31 18  1  0  0  0  0
 31 19  1  0  0  0  0
 32  3  1  0  0  0  0
 32 25  1  0  0  0  0
 33 20  1  0  0  0  0
 33 24  1  0  0  0  0
 34 27  1  0  0  0  0
 34 30  1  0  0  0  0
M  END
>  <DRUGBANK_ID>
DB13310

>  <COMMON_NAME>
Ormeloxifene

>  <CAS_NUMBER>
31477-60-8

>  <UNII>
44AXY5VE90

>  <SYNONYMS>
Centchroman; Ormeloxifene

$$$$
