
 OpenBabel10282417072D

 44 45  0  0  0  0  0  0  0  0999 V2000
    0.7144    0.4125    0.0000 O   0  0  0  0  0  0  0  0  0  0  0  0
    0.0000   -0.8250    0.0000 O   0  0  0  0  0  0  0  0  0  0  0  0
    2.1434   -0.4125    0.0000 O   0  0  0  0  0  0  0  0  0  0  0  0
    2.1434   -2.0625    0.0000 O   0  0  0  0  0  0  0  0  0  0  0  0
   -0.7144   -0.4125    0.0000 O   0  0  0  0  0  0  0  0  0  0  0  0
    0.7144   -2.8875    0.0000 O   0  0  0  0  0  0  0  0  0  0  0  0
   -2.1434    0.4125    0.0000 O   0  0  0  0  0  0  0  0  0  0  0  0
    0.7144    2.8875    0.0000 O   0  0  0  0  0  0  0  0  0  0  0  0
   -1.4289   -1.6500    0.0000 O   0  0  0  0  0  0  0  0  0  0  0  0
   -2.1434    2.0625    0.0000 O   0  0  0  0  0  0  0  0  0  0  0  0
   -0.7144    2.0625    0.0000 N   0  0  0  0  0  0  0  0  0  0  0  0
    0.0000    0.8250    0.0000 C   0  0  2  0  0  0  0  0  0  0  0  0
    0.7144   -0.4125    0.0000 C   0  0  2  0  0  0  0  0  0  0  0  0
    1.4290   -0.8250    0.0000 C   0  0  1  0  0  0  0  0  0  0  0  0
    0.0000    1.6500    0.0000 C   0  0  1  0  0  0  0  0  0  0  0  0
    1.4290   -1.6500    0.0000 C   0  0  2  0  0  0  0  0  0  0  0  0
   -0.7144    0.4125    0.0000 C   0  0  1  0  0  0  0  0  0  0  0  0
    0.7144   -2.0625    0.0000 C   0  0  1  0  0  0  0  0  0  0  0  0
    0.0000   -1.6500    0.0000 C   0  0  1  0  0  0  0  0  0  0  0  0
   -1.4289    0.8250    0.0000 C   0  0  2  0  0  0  0  0  0  0  0  0
    0.7144    2.0625    0.0000 C   0  0  0  0  0  0  0  0  0  0  0  0
   -1.4289    1.6500    0.0000 C   0  0  0  0  0  0  0  0  0  0  0  0
   -0.7144   -2.0625    0.0000 C   0  0  0  0  0  0  0  0  0  0  0  0
   -0.7144    2.5740    0.0000 H   0  0  0  0  0  0  0  0  0  0  0  0
    2.9835   -0.8975    0.0000 H   0  0  0  0  0  0  0  0  0  0  0  0
    2.1434   -3.0325    0.0000 H   0  0  0  0  0  0  0  0  0  0  0  0
   -1.5544   -0.8975    0.0000 H   0  0  0  0  0  0  0  0  0  0  0  0
   -0.1256   -3.3725    0.0000 H   0  0  0  0  0  0  0  0  0  0  0  0
   -2.9834    0.8975    0.0000 H   0  0  0  0  0  0  0  0  0  0  0  0
    1.5544    3.3725    0.0000 H   0  0  0  0  0  0  0  0  0  0  0  0
   -1.4289   -0.6800    0.0000 H   0  0  0  0  0  0  0  0  0  0  0  0
    0.9267    1.3600    0.0000 H   0  0  0  0  0  0  0  0  0  0  0  0
   -0.2123    0.1225    0.0000 H   0  0  0  0  0  0  0  0  0  0  0  0
    1.4289    0.2450    0.0000 H   0  0  0  0  0  0  0  0  0  0  0  0
    0.0000    2.7200    0.0000 H   0  0  0  0  0  0  0  0  0  0  0  0
    2.3557   -1.1150    0.0000 H   0  0  0  0  0  0  0  0  0  0  0  0
    0.2123   -0.1225    0.0000 H   0  0  0  0  0  0  0  0  0  0  0  0
    1.6410   -2.5975    0.0000 H   0  0  0  0  0  0  0  0  0  0  0  0
   -0.9267   -1.1150    0.0000 H   0  0  0  0  0  0  0  0  0  0  0  0
   -1.4289   -0.2450    0.0000 H   0  0  0  0  0  0  0  0  0  0  0  0
    1.6411    1.5275    0.0000 H   0  0  0  0  0  0  0  0  0  0  0  0
    0.7144    0.9925    0.0000 H   0  0  0  0  0  0  0  0  0  0  0  0
   -0.7144   -3.1325    0.0000 H   0  0  0  0  0  0  0  0  0  0  0  0
    0.2123   -2.5975    0.0000 H   0  0  0  0  0  0  0  0  0  0  0  0
  2 13  1  0  0  0  0
  2 19  1  0  0  0  0
  3 25  1  0  0  0  0
  4 26  1  0  0  0  0
  5 27  1  0  0  0  0
  6 28  1  0  0  0  0
  7 29  1  0  0  0  0
  8 21  1  0  0  0  0
  8 30  1  0  0  0  0
  9 23  1  0  0  0  0
  9 31  1  0  0  0  0
 10 22  2  0  0  0  0
 11 15  1  0  0  0  0
 11 22  1  0  0  0  0
 11 24  1  0  0  0  0
 12  1  1  0  0  0  0
 12 15  1  0  0  0  0
 12 17  1  0  0  0  0
 12 32  1  6  0  0  0
 13  1  1  0  0  0  0
 13 14  1  0  0  0  0
 13 33  1  6  0  0  0
 14  3  1  0  0  0  0
 14 16  1  0  0  0  0
 14 34  1  1  0  0  0
 15 21  1  0  0  0  0
 15 35  1  1  0  0  0
 16  4  1  0  0  0  0
 16 18  1  0  0  0  0
 16 36  1  6  0  0  0
 17  5  1  0  0  0  0
 17 20  1  0  0  0  0
 17 37  1  1  0  0  0
 18  6  1  0  0  0  0
 18 19  1  0  0  0  0
 18 38  1  1  0  0  0
 19 23  1  0  0  0  0
 19 39  1  6  0  0  0
 20  7  1  0  0  0  0
 20 22  1  0  0  0  0
 20 40  1  6  0  0  0
 21 41  1  0  0  0  0
 21 42  1  0  0  0  0
 23 43  1  0  0  0  0
 23 44  1  0  0  0  0
M  END
>  <DRUGBANK_ID>
DB04096

>  <SECONDARY_ACCESSION_NUMBERS>
EXPT00398

>  <COMMON_NAME>
(2R,3R,4R,5R)-4,5-Dihydroxy-2-(hydroxymethyl)-6-oxo-3-piperidinyl beta-D-glucopyranoside

$$$$
