
 OpenBabel10282417072D

 93 94  0  0  0  0  0  0  0  0999 V2000
   -3.9295   -1.1822    0.0000 O   0  0  0  0  0  0  0  0  0  0  0  0
   -3.9295   -0.3572    0.0000 C   0  0  0  0  0  0  0  0  0  0  0  0
   -4.6440    0.0552    0.0000 O   0  0  0  0  0  0  0  0  0  0  0  0
   -5.3585   -0.3572    0.0000 C   0  0  0  0  0  0  0  0  0  0  0  0
   -6.0730    0.0552    0.0000 C   0  0  0  0  0  0  0  0  0  0  0  0
   -6.7874   -0.3572    0.0000 C   0  0  0  0  0  0  0  0  0  0  0  0
   -7.5019    0.0552    0.0000 C   0  0  0  0  0  0  0  0  0  0  0  0
   -7.5019    0.8802    0.0000 C   0  0  0  0  0  0  0  0  0  0  0  0
   -6.7874    1.2927    0.0000 C   0  0  0  0  0  0  0  0  0  0  0  0
   -6.0730    0.8802    0.0000 C   0  0  0  0  0  0  0  0  0  0  0  0
   -3.2151    0.0552    0.0000 N   0  0  0  0  0  0  0  0  0  0  0  0
   -2.5006   -0.3572    0.0000 C   0  0  0  0  0  0  0  0  0  0  0  0
   -1.7861    0.0552    0.0000 C   0  0  0  0  0  0  0  0  0  0  0  0
   -1.0717   -0.3572    0.0000 C   0  0  0  0  0  0  0  0  0  0  0  0
   -0.3572    0.0552    0.0000 C   0  0  0  0  0  0  0  0  0  0  0  0
    0.3572   -0.3572    0.0000 C   0  0  2  0  0  0  0  0  0  0  0  0
    1.0717    0.0552    0.0000 N   0  0  0  0  0  0  0  0  0  0  0  0
    1.7861   -0.3572    0.0000 C   0  0  0  0  0  0  0  0  0  0  0  0
    2.5006    0.0552    0.0000 C   0  0  2  0  0  0  0  0  0  0  0  0
    3.2151   -0.3572    0.0000 C   0  0  0  0  0  0  0  0  0  0  0  0
    3.9295    0.0552    0.0000 C   0  0  0  0  0  0  0  0  0  0  0  0
    4.6440   -0.3572    0.0000 O   0  0  0  0  0  0  0  0  0  0  0  0
    5.3585    0.0552    0.0000 C   0  0  0  0  0  0  0  0  0  0  0  0
    6.0730   -0.3572    0.0000 C   0  0  0  0  0  0  0  0  0  0  0  0
    6.7874    0.0552    0.0000 C   0  0  0  0  0  0  0  0  0  0  0  0
    7.5019   -0.3572    0.0000 C   0  0  0  0  0  0  0  0  0  0  0  0
    7.5019   -1.1822    0.0000 C   0  0  0  0  0  0  0  0  0  0  0  0
    6.7874   -1.5947    0.0000 C   0  0  0  0  0  0  0  0  0  0  0  0
    6.0730   -1.1822    0.0000 C   0  0  0  0  0  0  0  0  0  0  0  0
    3.9295    0.8802    0.0000 O   0  0  0  0  0  0  0  0  0  0  0  0
    2.5006    0.8802    0.0000 N   0  0  0  0  0  0  0  0  0  0  0  0
    1.7861    1.2927    0.0000 C   0  0  0  0  0  0  0  0  0  0  0  0
    1.7861    2.1177    0.0000 O   0  0  0  0  0  0  0  0  0  0  0  0
    2.5006    2.5302    0.0000 C   0  0  0  0  0  0  0  0  0  0  0  0
    2.9131    1.8157    0.0000 C   0  0  0  0  0  0  0  0  0  0  0  0
    2.0881    3.2447    0.0000 C   0  0  0  0  0  0  0  0  0  0  0  0
    3.2151    2.9427    0.0000 C   0  0  0  0  0  0  0  0  0  0  0  0
    1.0717    0.8802    0.0000 O   0  0  0  0  0  0  0  0  0  0  0  0
    1.7861   -1.1822    0.0000 O   0  0  0  0  0  0  0  0  0  0  0  0
    0.3572   -1.1822    0.0000 C   0  0  0  0  0  0  0  0  0  0  0  0
   -0.3572   -1.5947    0.0000 O   0  0  0  0  0  0  0  0  0  0  0  0
   -0.3572   -2.4197    0.0000 C   0  0  0  0  0  0  0  0  0  0  0  0
   -1.1822   -2.4197    0.0000 C   0  0  0  0  0  0  0  0  0  0  0  0
    0.4677   -2.4197    0.0000 C   0  0  0  0  0  0  0  0  0  0  0  0
   -0.3572   -3.2447    0.0000 C   0  0  0  0  0  0  0  0  0  0  0  0
    1.0717   -1.5947    0.0000 O   0  0  0  0  0  0  0  0  0  0  0  0
   -5.3585   -1.4272    0.0000 H   0  0  0  0  0  0  0  0  0  0  0  0
   -6.2851   -0.8923    0.0000 H   0  0  0  0  0  0  0  0  0  0  0  0
   -6.7874   -1.3892    0.0000 H   0  0  0  0  0  0  0  0  0  0  0  0
   -8.3956   -0.4609    0.0000 H   0  0  0  0  0  0  0  0  0  0  0  0
   -8.3956    1.3962    0.0000 H   0  0  0  0  0  0  0  0  0  0  0  0
   -6.7874    2.3247    0.0000 H   0  0  0  0  0  0  0  0  0  0  0  0
   -5.1793    1.3962    0.0000 H   0  0  0  0  0  0  0  0  0  0  0  0
   -3.2151    1.0397    0.0000 H   0  0  0  0  0  0  0  0  0  0  0  0
   -2.5006   -1.4272    0.0000 H   0  0  0  0  0  0  0  0  0  0  0  0
   -1.5740   -0.8923    0.0000 H   0  0  0  0  0  0  0  0  0  0  0  0
   -1.7861    1.1252    0.0000 H   0  0  0  0  0  0  0  0  0  0  0  0
   -0.8595    0.5902    0.0000 H   0  0  0  0  0  0  0  0  0  0  0  0
   -1.0717   -1.4272    0.0000 H   0  0  0  0  0  0  0  0  0  0  0  0
   -0.1451   -0.8923    0.0000 H   0  0  0  0  0  0  0  0  0  0  0  0
   -0.3572    1.1252    0.0000 H   0  0  0  0  0  0  0  0  0  0  0  0
    0.5694    0.5902    0.0000 H   0  0  0  0  0  0  0  0  0  0  0  0
    0.3572    0.7128    0.0000 H   0  0  0  0  0  0  0  0  0  0  0  0
    1.0717    1.0397    0.0000 H   0  0  0  0  0  0  0  0  0  0  0  0
    1.5740    0.5903    0.0000 H   0  0  0  0  0  0  0  0  0  0  0  0
    3.2151   -1.4272    0.0000 H   0  0  0  0  0  0  0  0  0  0  0  0
    4.1417   -0.8922    0.0000 H   0  0  0  0  0  0  0  0  0  0  0  0
    5.3585    1.1252    0.0000 H   0  0  0  0  0  0  0  0  0  0  0  0
    6.2851    0.5903    0.0000 H   0  0  0  0  0  0  0  0  0  0  0  0
    6.7874    1.0872    0.0000 H   0  0  0  0  0  0  0  0  0  0  0  0
    8.3956    0.1589    0.0000 H   0  0  0  0  0  0  0  0  0  0  0  0
    8.3956   -1.6982    0.0000 H   0  0  0  0  0  0  0  0  0  0  0  0
    6.7874   -2.6267    0.0000 H   0  0  0  0  0  0  0  0  0  0  0  0
    5.1793   -1.6982    0.0000 H   0  0  0  0  0  0  0  0  0  0  0  0
    3.3532    1.3725    0.0000 H   0  0  0  0  0  0  0  0  0  0  0  0
    2.3781    0.8891    0.0000 H   0  0  0  0  0  0  0  0  0  0  0  0
    3.9831    1.8157    0.0000 H   0  0  0  0  0  0  0  0  0  0  0  0
    3.4481    0.8890    0.0000 H   0  0  0  0  0  0  0  0  0  0  0  0
    2.6231    4.1713    0.0000 H   0  0  0  0  0  0  0  0  0  0  0  0
    1.0181    3.2447    0.0000 H   0  0  0  0  0  0  0  0  0  0  0  0
    1.5531    4.1714    0.0000 H   0  0  0  0  0  0  0  0  0  0  0  0
    4.1417    2.4077    0.0000 H   0  0  0  0  0  0  0  0  0  0  0  0
    3.2151    4.0127    0.0000 H   0  0  0  0  0  0  0  0  0  0  0  0
    4.1418    3.4777    0.0000 H   0  0  0  0  0  0  0  0  0  0  0  0
   -1.7172   -1.4931    0.0000 H   0  0  0  0  0  0  0  0  0  0  0  0
   -1.7172   -3.3463    0.0000 H   0  0  0  0  0  0  0  0  0  0  0  0
   -2.2522   -2.4197    0.0000 H   0  0  0  0  0  0  0  0  0  0  0  0
    1.0027   -3.3463    0.0000 H   0  0  0  0  0  0  0  0  0  0  0  0
    1.0027   -1.4931    0.0000 H   0  0  0  0  0  0  0  0  0  0  0  0
    1.5377   -2.4197    0.0000 H   0  0  0  0  0  0  0  0  0  0  0  0
   -1.2838   -3.7797    0.0000 H   0  0  0  0  0  0  0  0  0  0  0  0
    0.5694   -3.7797    0.0000 H   0  0  0  0  0  0  0  0  0  0  0  0
   -0.3572   -4.3147    0.0000 H   0  0  0  0  0  0  0  0  0  0  0  0
  1  2  2  0  0  0  0
  2  3  1  0  0  0  0
  2 11  1  0  0  0  0
  3  4  1  0  0  0  0
  4  5  1  0  0  0  0
  4 47  1  0  0  0  0
  4 48  1  0  0  0  0
  5  6  2  0  0  0  0
  5 10  1  0  0  0  0
  6  7  1  0  0  0  0
  6 49  1  0  0  0  0
  7  8  2  0  0  0  0
  7 50  1  0  0  0  0
  8  9  1  0  0  0  0
  8 51  1  0  0  0  0
  9 10  2  0  0  0  0
  9 52  1  0  0  0  0
 10 53  1  0  0  0  0
 11 12  1  0  0  0  0
 11 54  1  0  0  0  0
 12 13  1  0  0  0  0
 12 55  1  0  0  0  0
 12 56  1  0  0  0  0
 13 14  1  0  0  0  0
 13 57  1  0  0  0  0
 13 58  1  0  0  0  0
 14 15  1  0  0  0  0
 14 59  1  0  0  0  0
 14 60  1  0  0  0  0
 15 61  1  0  0  0  0
 15 62  1  0  0  0  0
 16 15  1  0  0  0  0
 16 17  1  0  0  0  0
 16 40  1  0  0  0  0
 16 63  1  1  0  0  0
 17 18  1  0  0  0  0
 17 64  1  0  0  0  0
 18 39  2  0  0  0  0
 19 18  1  0  0  0  0
 19 20  1  0  0  0  0
 19 31  1  0  0  0  0
 19 65  1  6  0  0  0
 20 21  1  0  0  0  0
 20 66  1  0  0  0  0
 20 67  1  0  0  0  0
 21 22  1  0  0  0  0
 21 30  2  0  0  0  0
 22 23  1  0  0  0  0
 23 24  1  0  0  0  0
 23 68  1  0  0  0  0
 23 69  1  0  0  0  0
 24 25  2  0  0  0  0
 24 29  1  0  0  0  0
 25 26  1  0  0  0  0
 25 70  1  0  0  0  0
 26 27  2  0  0  0  0
 26 71  1  0  0  0  0
 27 28  1  0  0  0  0
 27 72  1  0  0  0  0
 28 29  2  0  0  0  0
 28 73  1  0  0  0  0
 29 74  1  0  0  0  0
 31 32  1  0  0  0  0
 31 75  1  0  0  0  0
 32 33  1  0  0  0  0
 32 38  2  0  0  0  0
 33 34  1  0  0  0  0
 34 35  1  0  0  0  0
 34 36  1  0  0  0  0
 34 37  1  0  0  0  0
 35 76  1  0  0  0  0
 35 77  1  0  0  0  0
 35 78  1  0  0  0  0
 36 79  1  0  0  0  0
 36 80  1  0  0  0  0
 36 81  1  0  0  0  0
 37 82  1  0  0  0  0
 37 83  1  0  0  0  0
 37 84  1  0  0  0  0
 40 41  1  0  0  0  0
 40 46  2  0  0  0  0
 41 42  1  0  0  0  0
 42 43  1  0  0  0  0
 42 44  1  0  0  0  0
 42 45  1  0  0  0  0
 43 85  1  0  0  0  0
 43 86  1  0  0  0  0
 43 87  1  0  0  0  0
 44 88  1  0  0  0  0
 44 89  1  0  0  0  0
 44 90  1  0  0  0  0
 45 91  1  0  0  0  0
 45 92  1  0  0  0  0
 45 93  1  0  0  0  0
M  END
>  <DRUGBANK_ID>
DB14072

>  <COMMON_NAME>
Reversin 121

>  <CAS_NUMBER>
174630-04-7

$$$$
