
 OpenBabel10282417072D

183193  0  0  0  0  0  0  0  0999 V2000
   -7.5738   -6.3553    0.0000 Cl  0  0  0  0  0  0  0  0  0  0  0  0
  -10.0543   -4.9359    0.0000 Cl  0  0  0  0  0  0  0  0  0  0  0  0
   -2.1584   -1.2861    0.0000 O   0  0  0  0  0  0  0  0  0  0  0  0
   -2.1636    0.0487    0.0000 O   0  0  0  0  0  0  0  0  0  0  0  0
    7.8882    2.8643    0.0000 O   0  0  0  0  0  0  0  0  0  0  0  0
    6.7347    3.5361    0.0000 O   0  0  0  0  0  0  0  0  0  0  0  0
    8.3806    3.6161    0.0000 O   0  0  0  0  0  0  0  0  0  0  0  0
    0.1068   -0.1803    0.0000 O   0  0  0  0  0  0  0  0  0  0  0  0
   -3.0557   -1.3366    0.0000 O   0  0  0  0  0  0  0  0  0  0  0  0
    6.3447    4.5110    0.0000 O   0  0  0  0  0  0  0  0  0  0  0  0
    7.0130    5.6583    0.0000 O   0  0  0  0  0  0  0  0  0  0  0  0
    0.8246   -1.4521    0.0000 O   0  0  0  0  0  0  0  0  0  0  0  0
    5.7978    1.4554    0.0000 O   0  0  0  0  0  0  0  0  0  0  0  0
    8.3893    5.8700    0.0000 O   0  0  0  0  0  0  0  0  0  0  0  0
   -5.1209   -0.6300    0.0000 O   0  0  0  0  0  0  0  0  0  0  0  0
    6.5404    0.1978    0.0000 O   0  0  0  0  0  0  0  0  0  0  0  0
    8.0006    1.0484    0.0000 O   0  0  0  0  0  0  0  0  0  0  0  0
   -4.3015    0.8020    0.0000 O   0  0  0  0  0  0  0  0  0  0  0  0
    2.9680   -0.2146    0.0000 O   0  0  0  0  0  0  0  0  0  0  0  0
    3.6824   -1.4521    0.0000 O   0  0  0  0  0  0  0  0  0  0  0  0
    5.1114    0.1978    0.0000 O   0  0  0  0  0  0  0  0  0  0  0  0
    0.8246    0.1978    0.0000 O   0  0  0  0  0  0  0  0  0  0  0  0
    2.2536   -2.2771    0.0000 O   0  0  0  0  0  0  0  0  0  0  0  0
    9.8150    5.0395    0.0000 O   0  0  0  0  0  0  0  0  0  0  0  0
   -6.3556   -1.3493    0.0000 O   0  0  0  0  0  0  0  0  0  0  0  0
    6.5404   -1.4521    0.0000 O   0  0  0  0  0  0  0  0  0  0  0  0
    5.1114   -2.2771    0.0000 O   0  0  0  0  0  0  0  0  0  0  0  0
    3.6824    1.0228    0.0000 O   0  0  0  0  0  0  0  0  0  0  0  0
   -5.1099   -3.4880    0.0000 O   0  0  0  0  0  0  0  0  0  0  0  0
   -6.7598   -3.4943    0.0000 O   0  0  0  0  0  0  0  0  0  0  0  0
    8.7054    2.2914    0.0000 O   0  0  0  0  0  0  0  0  0  0  0  0
   -8.0002   -2.7846    0.0000 O   0  0  0  0  0  0  0  0  0  0  0  0
   -9.2349   -3.5039    0.0000 O   0  0  0  0  0  0  0  0  0  0  0  0
   -9.2238   -6.3617    0.0000 O   0  0  0  0  0  0  0  0  0  0  0  0
   -1.3749   -1.0281    0.0000 C   0  0  1  0  0  0  0  0  0  0  0  0
   -1.3780   -0.2031    0.0000 C   0  0  1  0  0  0  0  0  0  0  0  0
   -2.6459   -0.6205    0.0000 C   0  0  3  0  0  0  0  0  0  0  0  0
    7.5556    3.6192    0.0000 C   0  0  1  0  0  0  0  0  0  0  0  0
   -0.6356   -1.4664    0.0000 C   0  0  0  0  0  0  0  0  0  0  0  0
    7.1458    4.3354    0.0000 C   0  0  1  0  0  0  0  0  0  0  0  0
   -0.6421    0.2407    0.0000 C   0  0  1  0  0  0  0  0  0  0  0  0
    7.5610    5.0482    0.0000 C   0  0  2  0  0  0  0  0  0  0  0  0
    8.3860    5.0450    0.0000 C   0  0  2  0  0  0  0  0  0  0  0  0
    7.2730    2.3146    0.0000 C   0  0  2  0  0  0  0  0  0  0  0  0
    0.1101   -1.0396    0.0000 C   0  0  1  0  0  0  0  0  0  0  0  0
    6.5601    2.7299    0.0000 C   0  0  2  0  0  0  0  0  0  0  0  0
   -3.0612    0.0922    0.0000 C   0  0  0  0  0  0  0  0  0  0  0  0
    8.7958    4.3290    0.0000 C   0  0  1  0  0  0  0  0  0  0  0  0
   -1.3717   -1.8531    0.0000 C   0  0  0  0  0  0  0  0  0  0  0  0
   -3.8862    0.0891    0.0000 C   0  0  2  0  0  0  0  0  0  0  0  0
    7.2829    1.4554    0.0000 C   0  0  2  0  0  0  0  0  0  0  0  0
   -4.2959   -0.6269    0.0000 C   0  0  1  0  0  0  0  0  0  0  0  0
   -3.8807   -1.3398    0.0000 C   0  0  1  0  0  0  0  0  0  0  0  0
    5.8077    2.3146    0.0000 C   0  0  0  0  0  0  0  0  0  0  0  0
    6.5404    1.0228    0.0000 C   0  0  3  0  0  0  0  0  0  0  0  0
   -0.6549    1.0656    0.0000 C   0  0  0  0  0  0  0  0  0  0  0  0
    1.5391   -1.0396    0.0000 C   0  0  2  0  0  0  0  0  0  0  0  0
    6.2629    5.3270    0.0000 C   0  0  0  0  0  0  0  0  0  0  0  0
    9.1021    5.4548    0.0000 C   0  0  0  0  0  0  0  0  0  0  0  0
    9.6207    4.3258    0.0000 C   0  0  0  0  0  0  0  0  0  0  0  0
    2.2536   -1.4521    0.0000 C   0  0  2  0  0  0  0  0  0  0  0  0
    1.5391   -0.2146    0.0000 C   0  0  2  0  0  0  0  0  0  0  0  0
   -4.2904   -2.0558    0.0000 C   0  0  0  0  0  0  0  0  0  0  0  0
    2.9680   -1.0396    0.0000 C   0  0  1  0  0  0  0  0  0  0  0  0
    2.2536    0.1978    0.0000 C   0  0  1  0  0  0  0  0  0  0  0  0
    5.8259   -0.2146    0.0000 C   0  0  2  0  0  0  0  0  0  0  0  0
    4.3970   -1.0396    0.0000 C   0  0  1  0  0  0  0  0  0  0  0  0
    5.8259   -1.0396    0.0000 C   0  0  2  0  0  0  0  0  0  0  0  0
    5.1114   -1.4521    0.0000 C   0  0  1  0  0  0  0  0  0  0  0  0
    4.3970   -0.2146    0.0000 C   0  0  1  0  0  0  0  0  0  0  0  0
   -5.5307   -1.3462    0.0000 C   0  0  2  0  0  0  0  0  0  0  0  0
    9.1052    6.2797    0.0000 C   0  0  0  0  0  0  0  0  0  0  0  0
   -5.1154   -2.0590    0.0000 C   0  0  0  0  0  0  0  0  0  0  0  0
    2.2536    1.0228    0.0000 C   0  0  0  0  0  0  0  0  0  0  0  0
   -5.5252   -2.7750    0.0000 C   0  0  2  0  0  0  0  0  0  0  0  0
    8.7118    1.4664    0.0000 C   0  0  0  0  0  0  0  0  0  0  0  0
    3.6824    0.1978    0.0000 C   0  0  0  0  0  0  0  0  0  0  0  0
   -6.3502   -2.7782    0.0000 C   0  0  1  0  0  0  0  0  0  0  0  0
   -6.7654   -2.0654    0.0000 C   0  0  1  0  0  0  0  0  0  0  0  0
    9.4295    1.0594    0.0000 C   0  0  0  0  0  0  0  0  0  0  0  0
    0.8246    1.0228    0.0000 C   0  0  0  0  0  0  0  0  0  0  0  0
   -7.5903   -2.0685    0.0000 C   0  0  0  0  0  0  0  0  0  0  0  0
    7.2549   -1.0396    0.0000 C   0  0  0  0  0  0  0  0  0  0  0  0
   10.1407    1.4774    0.0000 C   0  0  0  0  0  0  0  0  0  0  0  0
    9.4359    0.2345    0.0000 C   0  0  0  0  0  0  0  0  0  0  0  0
    2.9680    1.4354    0.0000 C   0  0  0  0  0  0  0  0  0  0  0  0
   -7.5848   -3.4975    0.0000 C   0  0  0  0  0  0  0  0  0  0  0  0
   -7.9946   -4.2135    0.0000 C   0  0  0  0  0  0  0  0  0  0  0  0
   -7.5794   -4.9264    0.0000 C   0  0  0  0  0  0  0  0  0  0  0  0
   -8.8196   -4.2167    0.0000 C   0  0  0  0  0  0  0  0  0  0  0  0
   -7.9891   -5.6424    0.0000 C   0  0  0  0  0  0  0  0  0  0  0  0
   -9.2293   -4.9327    0.0000 C   0  0  0  0  0  0  0  0  0  0  0  0
   -6.7544   -4.9232    0.0000 C   0  0  0  0  0  0  0  0  0  0  0  0
   -8.8141   -5.6456    0.0000 C   0  0  0  0  0  0  0  0  0  0  0  0
  -10.0598   -3.5070    0.0000 C   0  0  0  0  0  0  0  0  0  0  0  0
   -1.3780    0.6217    0.0000 H   0  0  0  0  0  0  0  0  0  0  0  0
    5.8984    3.2225    0.0000 H   0  0  0  0  0  0  0  0  0  0  0  0
    8.0279    1.9820    0.0000 H   0  0  0  0  0  0  0  0  0  0  0  0
    6.4314    3.9229    0.0000 H   0  0  0  0  0  0  0  0  0  0  0  0
    7.8985    5.8009    0.0000 H   0  0  0  0  0  0  0  0  0  0  0  0
    9.2313    6.3516    0.0000 H   0  0  0  0  0  0  0  0  0  0  0  0
   -3.8198    1.6439    0.0000 H   0  0  0  0  0  0  0  0  0  0  0  0
    1.4136   -2.7621    0.0000 H   0  0  0  0  0  0  0  0  0  0  0  0
    4.2714   -2.7621    0.0000 H   0  0  0  0  0  0  0  0  0  0  0  0
   -5.5917   -4.3299    0.0000 H   0  0  0  0  0  0  0  0  0  0  0  0
  -10.1608   -6.3654    0.0000 H   0  0  0  0  0  0  0  0  0  0  0  0
   -0.6438   -2.5364    0.0000 H   0  0  0  0  0  0  0  0  0  0  0  0
    0.2880   -2.0067    0.0000 H   0  0  0  0  0  0  0  0  0  0  0  0
    0.2772    0.7882    0.0000 H   0  0  0  0  0  0  0  0  0  0  0  0
    1.0357   -0.5028    0.0000 H   0  0  0  0  0  0  0  0  0  0  0  0
   -2.5298    1.0209    0.0000 H   0  0  0  0  0  0  0  0  0  0  0  0
   -3.5997    1.0168    0.0000 H   0  0  0  0  0  0  0  0  0  0  0  0
    9.3272    3.4003    0.0000 H   0  0  0  0  0  0  0  0  0  0  0  0
   -2.2963   -2.3917    0.0000 H   0  0  0  0  0  0  0  0  0  0  0  0
   -0.4430   -2.3845    0.0000 H   0  0  0  0  0  0  0  0  0  0  0  0
   -1.3675   -2.9231    0.0000 H   0  0  0  0  0  0  0  0  0  0  0  0
   -3.3547    1.0178    0.0000 H   0  0  0  0  0  0  0  0  0  0  0  0
    8.2044    1.9993    0.0000 H   0  0  0  0  0  0  0  0  0  0  0  0
   -4.8344    0.2977    0.0000 H   0  0  0  0  0  0  0  0  0  0  0  0
   -3.3421   -2.2644    0.0000 H   0  0  0  0  0  0  0  0  0  0  0  0
    4.8894    2.8638    0.0000 H   0  0  0  0  0  0  0  0  0  0  0  0
    5.8262    3.3844    0.0000 H   0  0  0  0  0  0  0  0  0  0  0  0
    5.6127    0.4896    0.0000 H   0  0  0  0  0  0  0  0  0  0  0  0
    0.2633    1.6149    0.0000 H   0  0  0  0  0  0  0  0  0  0  0  0
   -1.5897    1.5862    0.0000 H   0  0  0  0  0  0  0  0  0  0  0  0
   -0.6715    2.1355    0.0000 H   0  0  0  0  0  0  0  0  0  0  0  0
    1.5391   -2.1096    0.0000 H   0  0  0  0  0  0  0  0  0  0  0  0
    5.3383    5.8656    0.0000 H   0  0  0  0  0  0  0  0  0  0  0  0
    6.3226    6.3953    0.0000 H   0  0  0  0  0  0  0  0  0  0  0  0
   10.1521    3.3971    0.0000 H   0  0  0  0  0  0  0  0  0  0  0  0
   10.1593    5.2504    0.0000 H   0  0  0  0  0  0  0  0  0  0  0  0
   10.6907    4.3216    0.0000 H   0  0  0  0  0  0  0  0  0  0  0  0
    1.3270   -1.9871    0.0000 H   0  0  0  0  0  0  0  0  0  0  0  0
    0.6125   -0.7497    0.0000 H   0  0  0  0  0  0  0  0  0  0  0  0
   -5.3604   -2.0599    0.0000 H   0  0  0  0  0  0  0  0  0  0  0  0
   -3.7518   -2.9804    0.0000 H   0  0  0  0  0  0  0  0  0  0  0  0
   -4.8218   -2.9845    0.0000 H   0  0  0  0  0  0  0  0  0  0  0  0
    3.8947   -0.5046    0.0000 H   0  0  0  0  0  0  0  0  0  0  0  0
    3.1802    0.7328    0.0000 H   0  0  0  0  0  0  0  0  0  0  0  0
    5.8259    0.8554    0.0000 H   0  0  0  0  0  0  0  0  0  0  0  0
    4.3969   -2.1096    0.0000 H   0  0  0  0  0  0  0  0  0  0  0  0
    6.7525   -0.5046    0.0000 H   0  0  0  0  0  0  0  0  0  0  0  0
    4.1847   -1.9871    0.0000 H   0  0  0  0  0  0  0  0  0  0  0  0
    4.3969    0.8554    0.0000 H   0  0  0  0  0  0  0  0  0  0  0  0
   -6.0692   -0.4216    0.0000 H   0  0  0  0  0  0  0  0  0  0  0  0
   10.0339    6.8112    0.0000 H   0  0  0  0  0  0  0  0  0  0  0  0
    8.1806    6.8182    0.0000 H   0  0  0  0  0  0  0  0  0  0  0  0
    9.1092    7.3497    0.0000 H   0  0  0  0  0  0  0  0  0  0  0  0
   -4.0454   -2.0549    0.0000 H   0  0  0  0  0  0  0  0  0  0  0  0
   -4.5769   -2.9836    0.0000 H   0  0  0  0  0  0  0  0  0  0  0  0
    3.1802    1.5578    0.0000 H   0  0  0  0  0  0  0  0  0  0  0  0
    1.3270    1.5578    0.0000 H   0  0  0  0  0  0  0  0  0  0  0  0
    2.2536    2.0928    0.0000 H   0  0  0  0  0  0  0  0  0  0  0  0
   -4.4552   -2.7709    0.0000 H   0  0  0  0  0  0  0  0  0  0  0  0
    2.7558   -0.3373    0.0000 H   0  0  0  0  0  0  0  0  0  0  0  0
    3.6825   -0.8722    0.0000 H   0  0  0  0  0  0  0  0  0  0  0  0
   -5.8115   -3.7027    0.0000 H   0  0  0  0  0  0  0  0  0  0  0  0
   -7.3039   -1.1408    0.0000 H   0  0  0  0  0  0  0  0  0  0  0  0
   10.3603    0.5316    0.0000 H   0  0  0  0  0  0  0  0  0  0  0  0
    1.7512    1.5578    0.0000 H   0  0  0  0  0  0  0  0  0  0  0  0
   -0.1020    1.5578    0.0000 H   0  0  0  0  0  0  0  0  0  0  0  0
    0.8246    2.0928    0.0000 H   0  0  0  0  0  0  0  0  0  0  0  0
   -8.1288   -1.1439    0.0000 H   0  0  0  0  0  0  0  0  0  0  0  0
   -8.1218   -2.9972    0.0000 H   0  0  0  0  0  0  0  0  0  0  0  0
   -8.6603   -2.0725    0.0000 H   0  0  0  0  0  0  0  0  0  0  0  0
    8.1815   -1.5746    0.0000 H   0  0  0  0  0  0  0  0  0  0  0  0
    7.2549    0.0304    0.0000 H   0  0  0  0  0  0  0  0  0  0  0  0
    8.1816   -0.5046    0.0000 H   0  0  0  0  0  0  0  0  0  0  0  0
   11.0715    0.9496    0.0000 H   0  0  0  0  0  0  0  0  0  0  0  0
   10.1324    2.5474    0.0000 H   0  0  0  0  0  0  0  0  0  0  0  0
   11.0632    2.0196    0.0000 H   0  0  0  0  0  0  0  0  0  0  0  0
    8.5134   -0.3077    0.0000 H   0  0  0  0  0  0  0  0  0  0  0  0
   10.3667   -0.2933    0.0000 H   0  0  0  0  0  0  0  0  0  0  0  0
    9.4442   -0.8355    0.0000 H   0  0  0  0  0  0  0  0  0  0  0  0
    2.9682    2.5054    0.0000 H   0  0  0  0  0  0  0  0  0  0  0  0
    2.0413    0.9005    0.0000 H   0  0  0  0  0  0  0  0  0  0  0  0
    2.0414    1.9705    0.0000 H   0  0  0  0  0  0  0  0  0  0  0  0
   -6.2158   -5.8478    0.0000 H   0  0  0  0  0  0  0  0  0  0  0  0
   -6.2230   -3.9945    0.0000 H   0  0  0  0  0  0  0  0  0  0  0  0
   -5.6844   -4.9190    0.0000 H   0  0  0  0  0  0  0  0  0  0  0  0
  -10.5983   -2.5824    0.0000 H   0  0  0  0  0  0  0  0  0  0  0  0
  -10.5913   -4.4357    0.0000 H   0  0  0  0  0  0  0  0  0  0  0  0
  -11.1298   -3.5110    0.0000 H   0  0  0  0  0  0  0  0  0  0  0  0
  1 91  1  0  0  0  0
  2 92  1  0  0  0  0
  3 35  1  0  0  0  0
  3 37  1  0  0  0  0
  4 37  1  0  0  0  0
  7 48  1  0  0  0  0
  8 41  1  0  0  0  0
  8 45  1  0  0  0  0
  9 37  1  0  0  0  0
  9 53  1  0  0  0  0
 10 58  1  0  0  0  0
 11 58  1  0  0  0  0
 13 54  1  0  0  0  0
 13 55  1  0  0  0  0
 14101  1  0  0  0  0
 16 55  1  0  0  0  0
 17 76  1  0  0  0  0
 18102  1  0  0  0  0
 19 64  1  0  0  0  0
 19 65  1  0  0  0  0
 21 66  1  0  0  0  0
 21 70  1  0  0  0  0
 22 81  1  0  0  0  0
 23103  1  0  0  0  0
 24 59  2  0  0  0  0
 25 71  1  0  0  0  0
 25 79  1  0  0  0  0
 26 83  1  0  0  0  0
 27104  1  0  0  0  0
 28 77  1  0  0  0  0
 28 86  1  0  0  0  0
 29105  1  0  0  0  0
 30 87  1  0  0  0  0
 31 76  2  0  0  0  0
 32 87  2  0  0  0  0
 33 90  1  0  0  0  0
 33 95  1  0  0  0  0
 34 94  1  0  0  0  0
 34106  1  0  0  0  0
 35 36  1  0  0  0  0
 35 39  1  0  0  0  0
 35 49  1  6  0  0  0
 36  4  1  0  0  0  0
 36 41  1  0  0  0  0
 36 96  1  1  0  0  0
 37 47  1  0  0  0  0
 38  5  1  6  0  0  0
 38  7  1  0  0  0  0
 38 40  1  0  0  0  0
 38  6  1  0  0  0  0
 39 45  1  0  0  0  0
 39107  1  0  0  0  0
 39108  1  0  0  0  0
 40 10  1  0  0  0  0
 40 42  1  0  0  0  0
 40 99  1  1  0  0  0
 41 56  1  0  0  0  0
 41109  1  6  0  0  0
 42 11  1  0  0  0  0
 42 43  1  0  0  0  0
 42100  1  6  0  0  0
 43 14  1  1  0  0  0
 43 48  1  0  0  0  0
 43 59  1  0  0  0  0
 44  5  1  0  0  0  0
 44 46  1  0  0  0  0
 44 51  1  0  0  0  0
 44 98  1  6  0  0  0
 45 12  1  0  0  0  0
 45110  1  6  0  0  0
 46 54  1  0  0  0  0
 46 97  1  1  0  0  0
 46  6  1  0  0  0  0
 47 50  1  0  0  0  0
 47111  1  0  0  0  0
 47112  1  0  0  0  0
 48 60  1  0  0  0  0
 48113  1  6  0  0  0
 49114  1  0  0  0  0
 49115  1  0  0  0  0
 49116  1  0  0  0  0
 50 18  1  0  0  0  0
 50 52  1  0  0  0  0
 50117  1  1  0  0  0
 51 17  1  0  0  0  0
 51 55  1  0  0  0  0
 51118  1  6  0  0  0
 52 15  1  0  0  0  0
 52 53  1  0  0  0  0
 52119  1  6  0  0  0
 53 63  1  0  0  0  0
 53120  1  1  0  0  0
 54121  1  0  0  0  0
 54122  1  0  0  0  0
 55123  1  0  0  0  0
 56124  1  0  0  0  0
 56125  1  0  0  0  0
 56126  1  0  0  0  0
 57 12  1  0  0  0  0
 57 61  1  0  0  0  0
 57 62  1  0  0  0  0
 57127  1  6  0  0  0
 58128  1  0  0  0  0
 58129  1  0  0  0  0
 59 72  1  0  0  0  0
 60130  1  0  0  0  0
 60131  1  0  0  0  0
 60132  1  0  0  0  0
 61 23  1  0  0  0  0
 61 64  1  0  0  0  0
 61133  1  1  0  0  0
 62 22  1  0  0  0  0
 62 65  1  0  0  0  0
 62134  1  6  0  0  0
 63135  1  0  0  0  0
 63136  1  0  0  0  0
 63137  1  0  0  0  0
 64 20  1  0  0  0  0
 64138  1  6  0  0  0
 65 74  1  0  0  0  0
 65139  1  6  0  0  0
 66 16  1  0  0  0  0
 66 68  1  0  0  0  0
 66140  1  6  0  0  0
 67 20  1  0  0  0  0
 67 69  1  0  0  0  0
 67 70  1  0  0  0  0
 67141  1  1  0  0  0
 68 26  1  0  0  0  0
 68 69  1  0  0  0  0
 68142  1  6  0  0  0
 69 27  1  0  0  0  0
 69143  1  6  0  0  0
 70 77  1  0  0  0  0
 70144  1  6  0  0  0
 71 15  1  0  0  0  0
 71 73  1  0  0  0  0
 71145  1  6  0  0  0
 72146  1  0  0  0  0
 72147  1  0  0  0  0
 72148  1  0  0  0  0
 73 75  1  0  0  0  0
 73149  1  0  0  0  0
 73150  1  0  0  0  0
 74151  1  0  0  0  0
 74152  1  0  0  0  0
 74153  1  0  0  0  0
 75 29  1  0  0  0  0
 75 78  1  0  0  0  0
 75154  1  6  0  0  0
 76 80  1  0  0  0  0
 77155  1  0  0  0  0
 77156  1  0  0  0  0
 78 30  1  0  0  0  0
 78 79  1  0  0  0  0
 78157  1  1  0  0  0
 79 82  1  0  0  0  0
 79158  1  6  0  0  0
 80 84  1  0  0  0  0
 80 85  1  0  0  0  0
 80159  1  0  0  0  0
 81160  1  0  0  0  0
 81161  1  0  0  0  0
 81162  1  0  0  0  0
 82163  1  0  0  0  0
 82164  1  0  0  0  0
 82165  1  0  0  0  0
 83166  1  0  0  0  0
 83167  1  0  0  0  0
 83168  1  0  0  0  0
 84169  1  0  0  0  0
 84170  1  0  0  0  0
 84171  1  0  0  0  0
 85172  1  0  0  0  0
 85173  1  0  0  0  0
 85174  1  0  0  0  0
 86175  1  0  0  0  0
 86176  1  0  0  0  0
 86177  1  0  0  0  0
 87 88  1  0  0  0  0
 88 89  2  0  0  0  0
 88 90  1  0  0  0  0
 89 91  1  0  0  0  0
 89 93  1  0  0  0  0
 90 92  2  0  0  0  0
 91 94  2  0  0  0  0
 92 94  1  0  0  0  0
 93178  1  0  0  0  0
 93179  1  0  0  0  0
 93180  1  0  0  0  0
 95181  1  0  0  0  0
 95182  1  0  0  0  0
 95183  1  0  0  0  0
M  END
>  <DRUGBANK_ID>
DB11375

>  <COMMON_NAME>
Avilamycin

>  <CAS_NUMBER>
11051-71-1

>  <UNII>
720WDX56D3

>  <SYNONYMS>
Avilamycin; Avilamycina; Avilamycine; Avilamycinum

$$$$
