TYB
 OpenBabel10282417072D

 23 23  0  0  0  0  0  0  0  0999 V2000
    0.0933    1.2458    0.0000 N   0  0  0  0  0  0  0  0  0  0  0  0
    0.8077    0.8333    0.0000 C   0  0  2  0  0  0  0  0  0  0  0  0
    1.5222    1.2458    0.0000 C   0  0  0  0  0  0  0  0  0  0  0  0
    1.5222    2.0708    0.0000 O   0  0  0  0  0  0  0  0  0  0  0  0
    0.8077    0.0083    0.0000 C   0  0  0  0  0  0  0  0  0  0  0  0
    0.0933   -0.4042    0.0000 C   0  0  0  0  0  0  0  0  0  0  0  0
    0.0933   -1.2292    0.0000 C   0  0  0  0  0  0  0  0  0  0  0  0
   -0.6212    0.0083    0.0000 C   0  0  0  0  0  0  0  0  0  0  0  0
   -0.6212   -1.6417    0.0000 C   0  0  0  0  0  0  0  0  0  0  0  0
   -1.3357   -0.4042    0.0000 C   0  0  0  0  0  0  0  0  0  0  0  0
   -1.3357   -1.2292    0.0000 C   0  0  0  0  0  0  0  0  0  0  0  0
   -2.0501   -1.6417    0.0000 O   0  0  0  0  0  0  0  0  0  0  0  0
    0.8077    1.4172    0.0000 H   0  0  0  0  0  0  0  0  0  0  0  0
    0.0933    2.2658    0.0000 H   0  0  0  0  0  0  0  0  0  0  0  0
   -0.7901    0.7358    0.0000 H   0  0  0  0  0  0  0  0  0  0  0  0
    2.4159    0.7298    0.0000 H   0  0  0  0  0  0  0  0  0  0  0  0
    1.7344   -0.5267    0.0000 H   0  0  0  0  0  0  0  0  0  0  0  0
    0.8077   -1.0617    0.0000 H   0  0  0  0  0  0  0  0  0  0  0  0
    0.9870   -1.7452    0.0000 H   0  0  0  0  0  0  0  0  0  0  0  0
   -0.6212    1.0403    0.0000 H   0  0  0  0  0  0  0  0  0  0  0  0
   -0.6212   -2.6737    0.0000 H   0  0  0  0  0  0  0  0  0  0  0  0
   -2.2294    0.1118    0.0000 H   0  0  0  0  0  0  0  0  0  0  0  0
   -2.8616   -1.1732    0.0000 H   0  0  0  0  0  0  0  0  0  0  0  0
  1 14  1  0  0  0  0
  1 15  1  0  0  0  0
  2  1  1  0  0  0  0
  2  3  1  0  0  0  0
  2  5  1  0  0  0  0
  2 13  1  1  0  0  0
  3  4  2  0  0  0  0
  3 16  1  0  0  0  0
  5  6  1  0  0  0  0
  5 17  1  0  0  0  0
  5 18  1  0  0  0  0
  6  7  2  0  0  0  0
  6  8  1  0  0  0  0
  7  9  1  0  0  0  0
  7 19  1  0  0  0  0
  8 10  2  0  0  0  0
  8 20  1  0  0  0  0
  9 11  2  0  0  0  0
  9 21  1  0  0  0  0
 10 11  1  0  0  0  0
 10 22  1  0  0  0  0
 11 12  1  0  0  0  0
 12 23  1  0  0  0  0
M  END
>  <DRUGBANK_ID>
DB03978

>  <SECONDARY_ACCESSION_NUMBERS>
EXPT03134

>  <COMMON_NAME>
Tyrosinal

$$$$
