
 OpenBabel10282417072D

 74 78  0  0  0  0  0  0  0  0999 V2000
    3.7217    7.8516    0.0000 C   0  0  0  0  0  0  0  0  0  0  0  0
    3.1086    7.2995    0.0000 C   0  0  0  0  0  0  0  0  0  0  0  0
    3.2802    6.4925    0.0000 C   0  0  0  0  0  0  0  0  0  0  0  0
    2.6671    5.9405    0.0000 C   0  0  0  0  0  0  0  0  0  0  0  0
    1.8824    6.1955    0.0000 C   0  0  0  0  0  0  0  0  0  0  0  0
    1.7109    7.0024    0.0000 C   0  0  0  0  0  0  0  0  0  0  0  0
    2.3240    7.5545    0.0000 C   0  0  0  0  0  0  0  0  0  0  0  0
    1.2693    5.6434    0.0000 N   0  0  0  0  0  0  0  0  0  0  0  0
    0.4624    5.8150    0.0000 N   0  0  0  0  0  0  0  0  0  0  0  0
    0.0499    5.1005    0.0000 C   0  0  0  0  0  0  0  0  0  0  0  0
    0.6019    4.4874    0.0000 C   0  0  0  0  0  0  0  0  0  0  0  0
    1.3556    4.8229    0.0000 C   0  0  0  0  0  0  0  0  0  0  0  0
    2.0701    4.4104    0.0000 N   0  0  0  0  0  0  0  0  0  0  0  0
    2.0701    3.5854    0.0000 C   0  0  0  0  0  0  0  0  0  0  0  0
    1.3556    3.1729    0.0000 O   0  0  0  0  0  0  0  0  0  0  0  0
    2.7845    3.1729    0.0000 N   0  0  0  0  0  0  0  0  0  0  0  0
    2.7845    2.3479    0.0000 C   0  0  0  0  0  0  0  0  0  0  0  0
    3.4990    1.9354    0.0000 C   0  0  0  0  0  0  0  0  0  0  0  0
    4.2135    2.3479    0.0000 C   0  0  0  0  0  0  0  0  0  0  0  0
    4.9279    1.9354    0.0000 C   0  0  0  0  0  0  0  0  0  0  0  0
    5.6424    2.3479    0.0000 F   0  0  0  0  0  0  0  0  0  0  0  0
    4.9279    1.1104    0.0000 C   0  0  0  0  0  0  0  0  0  0  0  0
    4.2135    0.6979    0.0000 C   0  0  0  0  0  0  0  0  0  0  0  0
    3.4990    1.1104    0.0000 C   0  0  0  0  0  0  0  0  0  0  0  0
    2.7845    0.6979    0.0000 O   0  0  0  0  0  0  0  0  0  0  0  0
    2.0701    1.1104    0.0000 C   0  0  0  0  0  0  0  0  0  0  0  0
    1.3556    0.6979    0.0000 C   0  0  0  0  0  0  0  0  0  0  0  0
    0.6411    1.1104    0.0000 C   0  0  0  0  0  0  0  0  0  0  0  0
    0.6411    1.9354    0.0000 C   0  0  0  0  0  0  0  0  0  0  0  0
    1.3556    2.3479    0.0000 C   0  0  0  0  0  0  0  0  0  0  0  0
    2.0701    1.9354    0.0000 C   0  0  0  0  0  0  0  0  0  0  0  0
   -0.1435    2.1904    0.0000 N   0  0  0  0  0  0  0  0  0  0  0  0
   -0.3984    2.9750    0.0000 C   0  0  0  0  0  0  0  0  0  0  0  0
   -1.2054    3.1465    0.0000 C   0  0  0  0  0  0  0  0  0  0  0  0
   -1.7575    2.5334    0.0000 O   0  0  0  0  0  0  0  0  0  0  0  0
   -0.6284    1.5229    0.0000 N   0  0  0  0  0  0  0  0  0  0  0  0
   -0.1435    0.8555    0.0000 C   0  0  0  0  0  0  0  0  0  0  0  0
   -0.7706    5.0142    0.0000 C   0  0  0  0  0  0  0  0  0  0  0  0
   -1.5911    4.9280    0.0000 C   0  0  0  0  0  0  0  0  0  0  0  0
   -0.8568    5.8347    0.0000 C   0  0  0  0  0  0  0  0  0  0  0  0
   -0.6844    4.1938    0.0000 C   0  0  0  0  0  0  0  0  0  0  0  0
    4.7393    7.5210    0.0000 H   0  0  0  0  0  0  0  0  0  0  0  0
    3.4992    8.8982    0.0000 H   0  0  0  0  0  0  0  0  0  0  0  0
    4.5168    8.5676    0.0000 H   0  0  0  0  0  0  0  0  0  0  0  0
    4.2617    6.1736    0.0000 H   0  0  0  0  0  0  0  0  0  0  0  0
    2.8816    4.9310    0.0000 H   0  0  0  0  0  0  0  0  0  0  0  0
    0.7294    7.3213    0.0000 H   0  0  0  0  0  0  0  0  0  0  0  0
    2.1094    8.5640    0.0000 H   0  0  0  0  0  0  0  0  0  0  0  0
    0.3873    3.4780    0.0000 H   0  0  0  0  0  0  0  0  0  0  0  0
    2.9227    4.9027    0.0000 H   0  0  0  0  0  0  0  0  0  0  0  0
    3.6371    3.6651    0.0000 H   0  0  0  0  0  0  0  0  0  0  0  0
    1.8579    1.8129    0.0000 H   0  0  0  0  0  0  0  0  0  0  0  0
    2.7845    1.2779    0.0000 H   0  0  0  0  0  0  0  0  0  0  0  0
    4.2135    3.3799    0.0000 H   0  0  0  0  0  0  0  0  0  0  0  0
    5.8216    0.5944    0.0000 H   0  0  0  0  0  0  0  0  0  0  0  0
    4.2135   -0.3341    0.0000 H   0  0  0  0  0  0  0  0  0  0  0  0
    1.3556   -0.3341    0.0000 H   0  0  0  0  0  0  0  0  0  0  0  0
    1.3556    3.3799    0.0000 H   0  0  0  0  0  0  0  0  0  0  0  0
    2.9638    2.4514    0.0000 H   0  0  0  0  0  0  0  0  0  0  0  0
    0.3176    3.7702    0.0000 H   0  0  0  0  0  0  0  0  0  0  0  0
   -0.7291    3.9926    0.0000 H   0  0  0  0  0  0  0  0  0  0  0  0
   -1.5360    4.1641    0.0000 H   0  0  0  0  0  0  0  0  0  0  0  0
   -2.2520    3.3690    0.0000 H   0  0  0  0  0  0  0  0  0  0  0  0
   -2.7063    2.7351    0.0000 H   0  0  0  0  0  0  0  0  0  0  0  0
   -0.4624   -0.1260    0.0000 H   0  0  0  0  0  0  0  0  0  0  0  0
   -2.2200    5.7937    0.0000 H   0  0  0  0  0  0  0  0  0  0  0  0
   -2.0264    3.9505    0.0000 H   0  0  0  0  0  0  0  0  0  0  0  0
   -2.6552    4.8162    0.0000 H   0  0  0  0  0  0  0  0  0  0  0  0
    0.0089    6.4636    0.0000 H   0  0  0  0  0  0  0  0  0  0  0  0
   -1.8343    6.2700    0.0000 H   0  0  0  0  0  0  0  0  0  0  0  0
   -0.9686    6.8988    0.0000 H   0  0  0  0  0  0  0  0  0  0  0  0
   -1.5501    3.5649    0.0000 H   0  0  0  0  0  0  0  0  0  0  0  0
    0.2931    3.7586    0.0000 H   0  0  0  0  0  0  0  0  0  0  0  0
   -0.5726    3.1297    0.0000 H   0  0  0  0  0  0  0  0  0  0  0  0
  1  2  1  0  0  0  0
  1 42  1  0  0  0  0
  1 43  1  0  0  0  0
  1 44  1  0  0  0  0
  2  3  2  0  0  0  0
  2  7  1  0  0  0  0
  3  4  1  0  0  0  0
  3 45  1  0  0  0  0
  4  5  2  0  0  0  0
  4 46  1  0  0  0  0
  5  6  1  0  0  0  0
  5  8  1  0  0  0  0
  6  7  2  0  0  0  0
  6 47  1  0  0  0  0
  7 48  1  0  0  0  0
  8  9  1  0  0  0  0
  8 12  1  0  0  0  0
  9 10  2  0  0  0  0
 10 11  1  0  0  0  0
 10 38  1  0  0  0  0
 11 12  2  0  0  0  0
 11 49  1  0  0  0  0
 12 13  1  0  0  0  0
 13 14  1  0  0  0  0
 13 50  1  0  0  0  0
 14 15  2  0  0  0  0
 14 16  1  0  0  0  0
 16 17  1  0  0  0  0
 16 51  1  0  0  0  0
 17 18  1  0  0  0  0
 17 52  1  0  0  0  0
 17 53  1  0  0  0  0
 18 19  2  0  0  0  0
 18 24  1  0  0  0  0
 19 20  1  0  0  0  0
 19 54  1  0  0  0  0
 20 21  1  0  0  0  0
 20 22  2  0  0  0  0
 22 23  1  0  0  0  0
 22 55  1  0  0  0  0
 23 24  2  0  0  0  0
 23 56  1  0  0  0  0
 24 25  1  0  0  0  0
 25 26  1  0  0  0  0
 26 27  2  0  0  0  0
 26 31  1  0  0  0  0
 27 28  1  0  0  0  0
 27 57  1  0  0  0  0
 28 29  2  0  0  0  0
 28 37  1  0  0  0  0
 29 30  1  0  0  0  0
 29 32  1  0  0  0  0
 30 31  2  0  0  0  0
 30 58  1  0  0  0  0
 31 59  1  0  0  0  0
 32 33  1  0  0  0  0
 32 36  1  0  0  0  0
 33 34  1  0  0  0  0
 33 60  1  0  0  0  0
 33 61  1  0  0  0  0
 34 35  1  0  0  0  0
 34 62  1  0  0  0  0
 34 63  1  0  0  0  0
 35 64  1  0  0  0  0
 36 37  2  0  0  0  0
 37 65  1  0  0  0  0
 38 39  1  0  0  0  0
 38 40  1  0  0  0  0
 38 41  1  0  0  0  0
 39 66  1  0  0  0  0
 39 67  1  0  0  0  0
 39 68  1  0  0  0  0
 40 69  1  0  0  0  0
 40 70  1  0  0  0  0
 40 71  1  0  0  0  0
 41 72  1  0  0  0  0
 41 73  1  0  0  0  0
 41 74  1  0  0  0  0
M  END
>  <DRUGBANK_ID>
DB16294

>  <COMMON_NAME>
Pexmetinib

>  <CAS_NUMBER>
945614-12-0

>  <UNII>
3750D0U8B5

>  <SYNONYMS>
Pexmetinib

$$$$
