DVP
 OpenBabel10282417072D

 56 59  0  0  0  0  0  0  0  0999 V2000
   -5.9113   -0.1479    0.0000 C   0  0  0  0  0  0  0  0  0  0  0  0
   -5.1968   -0.5604    0.0000 O   0  0  0  0  0  0  0  0  0  0  0  0
   -4.4823   -0.1479    0.0000 C   0  0  0  0  0  0  0  0  0  0  0  0
   -4.4823    0.6771    0.0000 O   0  0  0  0  0  0  0  0  0  0  0  0
   -3.7678   -0.5604    0.0000 C   0  0  0  0  0  0  0  0  0  0  0  0
   -3.0534   -0.1479    0.0000 C   0  0  0  0  0  0  0  0  0  0  0  0
   -2.3389   -0.5604    0.0000 C   0  0  0  0  0  0  0  0  0  0  0  0
   -3.7678   -1.3854    0.0000 C   0  0  0  0  0  0  0  0  0  0  0  0
   -3.0534   -1.7979    0.0000 C   0  0  0  0  0  0  0  0  0  0  0  0
   -2.3389   -1.3854    0.0000 N   0  0  0  0  0  0  0  0  0  0  0  0
   -1.6244   -1.7979    0.0000 C   0  0  0  0  0  0  0  0  0  0  0  0
   -1.6244   -2.6229    0.0000 O   0  0  0  0  0  0  0  0  0  0  0  0
   -0.9100   -1.3854    0.0000 C   0  0  0  0  0  0  0  0  0  0  0  0
   -0.9100   -0.5604    0.0000 C   0  0  0  0  0  0  0  0  0  0  0  0
   -0.1955   -0.1479    0.0000 C   0  0  0  0  0  0  0  0  0  0  0  0
   -0.1955   -1.7979    0.0000 C   0  0  0  0  0  0  0  0  0  0  0  0
    0.5190   -1.3854    0.0000 C   0  0  0  0  0  0  0  0  0  0  0  0
    0.5190   -0.5604    0.0000 C   0  0  0  0  0  0  0  0  0  0  0  0
    1.2335   -0.1479    0.0000 N   0  0  0  0  0  0  0  0  0  0  0  0
    1.2335    0.6771    0.0000 C   0  0  0  0  0  0  0  0  0  0  0  0
    1.9479    1.0896    0.0000 C   0  0  0  0  0  0  0  0  0  0  0  0
    1.9479    1.9146    0.0000 C   0  0  0  0  0  0  0  0  0  0  0  0
    2.6624    2.3271    0.0000 N   0  0  0  0  0  0  0  0  0  0  0  0
    3.3769    1.9146    0.0000 C   0  0  0  0  0  0  0  0  0  0  0  0
    4.0913    2.3271    0.0000 N   0  0  0  0  0  0  0  0  0  0  0  0
    4.8058    1.9146    0.0000 C   0  0  0  0  0  0  0  0  0  0  0  0
    5.5203    2.3271    0.0000 N   0  0  0  0  0  0  0  0  0  0  0  0
    4.8058    1.0896    0.0000 N   0  0  0  0  0  0  0  0  0  0  0  0
    4.0913    0.6771    0.0000 C   0  0  0  0  0  0  0  0  0  0  0  0
    4.0913   -0.1479    0.0000 N   0  0  0  0  0  0  0  0  0  0  0  0
    3.3769    1.0896    0.0000 C   0  0  0  0  0  0  0  0  0  0  0  0
    2.6624    0.6771    0.0000 N   0  0  0  0  0  0  0  0  0  0  0  0
   -5.9113    0.9221    0.0000 H   0  0  0  0  0  0  0  0  0  0  0  0
   -6.8379   -0.6829    0.0000 H   0  0  0  0  0  0  0  0  0  0  0  0
   -6.8380    0.3871    0.0000 H   0  0  0  0  0  0  0  0  0  0  0  0
   -2.8411   -1.0954    0.0000 H   0  0  0  0  0  0  0  0  0  0  0  0
   -3.0534    0.9221    0.0000 H   0  0  0  0  0  0  0  0  0  0  0  0
   -2.1268    0.3871    0.0000 H   0  0  0  0  0  0  0  0  0  0  0  0
   -1.4123   -0.0254    0.0000 H   0  0  0  0  0  0  0  0  0  0  0  0
   -1.4123   -1.0954    0.0000 H   0  0  0  0  0  0  0  0  0  0  0  0
   -4.6945   -1.9204    0.0000 H   0  0  0  0  0  0  0  0  0  0  0  0
   -3.7678   -2.4554    0.0000 H   0  0  0  0  0  0  0  0  0  0  0  0
   -3.0534   -2.8679    0.0000 H   0  0  0  0  0  0  0  0  0  0  0  0
   -2.1268   -2.3329    0.0000 H   0  0  0  0  0  0  0  0  0  0  0  0
   -1.8037   -0.0444    0.0000 H   0  0  0  0  0  0  0  0  0  0  0  0
   -0.1955    0.8841    0.0000 H   0  0  0  0  0  0  0  0  0  0  0  0
   -0.1955   -2.8299    0.0000 H   0  0  0  0  0  0  0  0  0  0  0  0
    1.4127   -1.9014    0.0000 H   0  0  0  0  0  0  0  0  0  0  0  0
    2.0861   -0.6402    0.0000 H   0  0  0  0  0  0  0  0  0  0  0  0
    0.3068    1.2121    0.0000 H   0  0  0  0  0  0  0  0  0  0  0  0
    1.2335    1.7471    0.0000 H   0  0  0  0  0  0  0  0  0  0  0  0
    1.0542    2.4306    0.0000 H   0  0  0  0  0  0  0  0  0  0  0  0
    6.3729    1.8348    0.0000 H   0  0  0  0  0  0  0  0  0  0  0  0
    5.5203    3.3116    0.0000 H   0  0  0  0  0  0  0  0  0  0  0  0
    3.2387   -0.6402    0.0000 H   0  0  0  0  0  0  0  0  0  0  0  0
    4.9439   -0.6401    0.0000 H   0  0  0  0  0  0  0  0  0  0  0  0
  1  2  1  0  0  0  0
  1 33  1  0  0  0  0
  1 34  1  0  0  0  0
  1 35  1  0  0  0  0
  2  3  1  0  0  0  0
  3  4  2  0  0  0  0
  3  5  1  0  0  0  0
  5  6  1  0  0  0  0
  5  8  1  0  0  0  0
  5 36  1  0  0  0  0
  6  7  1  0  0  0  0
  6 37  1  0  0  0  0
  6 38  1  0  0  0  0
  7 10  1  0  0  0  0
  7 39  1  0  0  0  0
  7 40  1  0  0  0  0
  8  9  1  0  0  0  0
  8 41  1  0  0  0  0
  8 42  1  0  0  0  0
  9 10  1  0  0  0  0
  9 43  1  0  0  0  0
  9 44  1  0  0  0  0
 10 11  1  0  0  0  0
 11 12  2  0  0  0  0
 11 13  1  0  0  0  0
 13 14  1  0  0  0  0
 13 16  2  0  0  0  0
 14 15  2  0  0  0  0
 14 45  1  0  0  0  0
 15 18  1  0  0  0  0
 15 46  1  0  0  0  0
 16 17  1  0  0  0  0
 16 47  1  0  0  0  0
 17 18  2  0  0  0  0
 17 48  1  0  0  0  0
 18 19  1  0  0  0  0
 19 20  1  0  0  0  0
 19 49  1  0  0  0  0
 20 21  1  0  0  0  0
 20 50  1  0  0  0  0
 20 51  1  0  0  0  0
 21 22  1  0  0  0  0
 21 32  2  0  0  0  0
 22 23  2  0  0  0  0
 22 52  1  0  0  0  0
 23 24  1  0  0  0  0
 24 25  1  0  0  0  0
 24 31  2  0  0  0  0
 25 26  2  0  0  0  0
 26 27  1  0  0  0  0
 26 28  1  0  0  0  0
 27 53  1  0  0  0  0
 27 54  1  0  0  0  0
 28 29  2  0  0  0  0
 29 30  1  0  0  0  0
 29 31  1  0  0  0  0
 30 55  1  0  0  0  0
 30 56  1  0  0  0  0
 31 32  1  0  0  0  0
M  END
>  <DRUGBANK_ID>
DB07689

>  <COMMON_NAME>
METHYL 1-(4-{[(2,4-DIAMINOPTERIDIN-6-YL)METHYL]AMINO}BENZOYL)PIPERIDINE-4-CARBOXYLATE

$$$$
