
 OpenBabel10282417072D

 33 32  0  0  0  0  0  0  0  0999 V2000
    0.2959   -2.2503    0.0000 S   0  0  0  0  0  0  0  0  0  0  0  0
   -0.4266   -1.8442    0.0000 C   0  0  0  0  0  0  0  0  0  0  0  0
   -0.1273   -2.9763    0.0000 O   0  0  0  0  0  0  0  0  0  0  0  0
    0.7019   -1.5276    0.0000 O   0  0  0  0  0  0  0  0  0  0  0  0
    1.0253   -2.6769    0.0000 O   0  5  0  0  0  0  0  0  0  0  0  0
   -0.4266   -1.0150    0.0000 C   0  0  0  0  0  0  0  0  0  0  0  0
   -1.1320   -2.2503    0.0000 C   0  0  0  0  0  0  0  0  0  0  0  0
   -1.1320   -0.6090    0.0000 C   0  0  0  0  0  0  0  0  0  0  0  0
   -1.8339   -1.8167    0.0000 C   0  0  0  0  0  0  0  0  0  0  0  0
   -1.8339   -1.0322    0.0000 C   0  0  0  0  0  0  0  0  0  0  0  0
   -2.5668   -0.6295    0.0000 O   0  0  0  0  0  0  0  0  0  0  0  0
    0.2030    1.3385    0.0000 S   0  0  0  0  0  0  0  0  0  0  0  0
   -0.5229    1.7377    0.0000 C   0  0  0  0  0  0  0  0  0  0  0  0
    0.6124    2.0611    0.0000 O   0  0  0  0  0  0  0  0  0  0  0  0
   -0.2236    0.6021    0.0000 O   0  0  0  0  0  0  0  0  0  0  0  0
    0.9324    0.9049    0.0000 O   0  5  0  0  0  0  0  0  0  0  0  0
   -0.5229    2.5738    0.0000 C   0  0  0  0  0  0  0  0  0  0  0  0
   -1.2249    1.3385    0.0000 C   0  0  0  0  0  0  0  0  0  0  0  0
   -1.2249    2.9763    0.0000 C   0  0  0  0  0  0  0  0  0  0  0  0
   -1.9337    1.7617    0.0000 C   0  0  0  0  0  0  0  0  0  0  0  0
   -1.9337    2.5462    0.0000 C   0  0  0  0  0  0  0  0  0  0  0  0
   -2.6597    2.9591    0.0000 O   0  0  0  0  0  0  0  0  0  0  0  0
    2.6597   -0.5057    0.0000 Zn  0  2  0  0  0  0  0  0  0  0  0  0
    0.4668   -0.4984    0.0000 H   0  0  0  0  0  0  0  0  0  0  0  0
   -1.1480   -3.2822    0.0000 H   0  0  0  0  0  0  0  0  0  0  0  0
   -1.1425    0.4229    0.0000 H   0  0  0  0  0  0  0  0  0  0  0  0
   -2.7352   -2.3193    0.0000 H   0  0  0  0  0  0  0  0  0  0  0  0
   -2.5866    0.3073    0.0000 H   0  0  0  0  0  0  0  0  0  0  0  0
    0.3701    3.0911    0.0000 H   0  0  0  0  0  0  0  0  0  0  0  0
   -1.2358    0.3066    0.0000 H   0  0  0  0  0  0  0  0  0  0  0  0
   -1.2377    4.0082    0.0000 H   0  0  0  0  0  0  0  0  0  0  0  0
   -2.8312    1.2523    0.0000 H   0  0  0  0  0  0  0  0  0  0  0  0
   -2.6658    3.8961    0.0000 H   0  0  0  0  0  0  0  0  0  0  0  0
  1  2  1  0  0  0  0
  1  3  2  0  0  0  0
  1  4  2  0  0  0  0
  1  5  1  0  0  0  0
  2  6  1  0  0  0  0
  2  7  2  0  0  0  0
  6  8  2  0  0  0  0
  6 24  1  0  0  0  0
  7  9  1  0  0  0  0
  7 25  1  0  0  0  0
  8 10  1  0  0  0  0
  8 26  1  0  0  0  0
  9 10  2  0  0  0  0
  9 27  1  0  0  0  0
 10 11  1  0  0  0  0
 11 28  1  0  0  0  0
 12 13  1  0  0  0  0
 12 14  2  0  0  0  0
 12 15  2  0  0  0  0
 12 16  1  0  0  0  0
 13 17  1  0  0  0  0
 13 18  2  0  0  0  0
 17 19  2  0  0  0  0
 17 29  1  0  0  0  0
 18 20  1  0  0  0  0
 18 30  1  0  0  0  0
 19 21  1  0  0  0  0
 19 31  1  0  0  0  0
 20 21  2  0  0  0  0
 20 32  1  0  0  0  0
 21 22  1  0  0  0  0
 22 33  1  0  0  0  0
M  CHG  3   5  -1  16  -1  23   2
M  END
>  <DRUGBANK_ID>
DB15793

>  <COMMON_NAME>
Zinc phenolsulfonate

>  <CAS_NUMBER>
127-82-2

>  <UNII>
4O71YT5YB5

>  <SYNONYMS>
p-hydroxybenzenesulfonic acid zinc salt; Phenozin; Zinc p-phenolsulfonate; Zinc p-phenolsulphonate; Zinc paraphenolsulfonate; Zinc paraphenolsulphonate; Zinc phenolsulfonate; Zinc phenolsulphonate; Zinc sulfocarbolate

$$$$
