P89
 OpenBabel10282417072D

 61 61  0  0  0  0  0  0  0  0999 V2000
   -5.5438   -0.2388    0.0000 C   0  0  0  0  0  0  0  0  0  0  0  0
   -4.8294    0.1737    0.0000 C   0  0  0  0  0  0  0  0  0  0  0  0
   -4.1149   -0.2388    0.0000 C   0  0  0  0  0  0  0  0  0  0  0  0
   -3.4004    0.1737    0.0000 C   0  0  0  0  0  0  0  0  0  0  0  0
   -2.6860   -0.2388    0.0000 C   0  0  0  0  0  0  0  0  0  0  0  0
   -1.9715    0.1737    0.0000 C   0  0  0  0  0  0  0  0  0  0  0  0
   -1.2570   -0.2388    0.0000 C   0  0  0  0  0  0  0  0  0  0  0  0
   -0.5425    0.1737    0.0000 C   0  0  0  0  0  0  0  0  0  0  0  0
    0.1719   -0.2388    0.0000 C   0  0  0  0  0  0  0  0  0  0  0  0
    0.8864    0.1737    0.0000 C   0  0  0  0  0  0  0  0  0  0  0  0
    0.8864    0.9987    0.0000 O   0  0  0  0  0  0  0  0  0  0  0  0
    1.6009   -0.2388    0.0000 C   0  0  0  0  0  0  0  0  0  0  0  0
    2.3153    0.1737    0.0000 N   0  0  0  0  0  0  0  0  0  0  0  0
    3.0298   -0.2388    0.0000 C   0  0  0  0  0  0  0  0  0  0  0  0
    3.7443    0.1737    0.0000 C   0  0  0  0  0  0  0  0  0  0  0  0
    3.7443    0.9987    0.0000 C   0  0  0  0  0  0  0  0  0  0  0  0
    3.0298    1.4112    0.0000 O   0  0  0  0  0  0  0  0  0  0  0  0
    4.4588    1.4112    0.0000 C   0  0  0  0  0  0  0  0  0  0  0  0
    4.4588    2.2362    0.0000 C   0  0  0  0  0  0  0  0  0  0  0  0
    5.1732    0.9987    0.0000 N   0  0  0  0  0  0  0  0  0  0  0  0
    5.1732    0.1737    0.0000 C   0  0  0  0  0  0  0  0  0  0  0  0
    4.4588   -0.2388    0.0000 C   0  0  0  0  0  0  0  0  0  0  0  0
    4.4588   -1.0638    0.0000 C   0  0  0  0  0  0  0  0  0  0  0  0
    5.1732   -1.4763    0.0000 O   0  0  0  0  0  0  0  0  0  0  0  0
    5.8877   -1.0638    0.0000 P   0  0  0  0  0  0  0  0  0  0  0  0
    6.6022   -0.6513    0.0000 O   0  0  0  0  0  0  0  0  0  0  0  0
    6.3002   -1.7782    0.0000 O   0  0  0  0  0  0  0  0  0  0  0  0
    5.4752   -0.3493    0.0000 O   0  0  0  0  0  0  0  0  0  0  0  0
   -6.4705    0.2962    0.0000 H   0  0  0  0  0  0  0  0  0  0  0  0
   -5.5438   -1.3088    0.0000 H   0  0  0  0  0  0  0  0  0  0  0  0
   -6.4704   -0.7738    0.0000 H   0  0  0  0  0  0  0  0  0  0  0  0
   -4.8294    1.2437    0.0000 H   0  0  0  0  0  0  0  0  0  0  0  0
   -3.9028    0.7087    0.0000 H   0  0  0  0  0  0  0  0  0  0  0  0
   -4.1149   -1.3088    0.0000 H   0  0  0  0  0  0  0  0  0  0  0  0
   -3.1883   -0.7738    0.0000 H   0  0  0  0  0  0  0  0  0  0  0  0
   -3.4004    1.2437    0.0000 H   0  0  0  0  0  0  0  0  0  0  0  0
   -2.4737    0.7087    0.0000 H   0  0  0  0  0  0  0  0  0  0  0  0
   -2.6860   -1.3088    0.0000 H   0  0  0  0  0  0  0  0  0  0  0  0
   -1.7594   -0.7738    0.0000 H   0  0  0  0  0  0  0  0  0  0  0  0
   -1.9715    1.2437    0.0000 H   0  0  0  0  0  0  0  0  0  0  0  0
   -1.0449    0.7087    0.0000 H   0  0  0  0  0  0  0  0  0  0  0  0
   -1.2570   -1.3088    0.0000 H   0  0  0  0  0  0  0  0  0  0  0  0
   -0.3304   -0.7738    0.0000 H   0  0  0  0  0  0  0  0  0  0  0  0
   -0.5425    1.2437    0.0000 H   0  0  0  0  0  0  0  0  0  0  0  0
    0.3842    0.7087    0.0000 H   0  0  0  0  0  0  0  0  0  0  0  0
    0.1719   -1.3088    0.0000 H   0  0  0  0  0  0  0  0  0  0  0  0
    1.0985   -0.7738    0.0000 H   0  0  0  0  0  0  0  0  0  0  0  0
    1.6009   -1.3088    0.0000 H   0  0  0  0  0  0  0  0  0  0  0  0
    2.5276   -0.7738    0.0000 H   0  0  0  0  0  0  0  0  0  0  0  0
    3.0298   -1.2708    0.0000 H   0  0  0  0  0  0  0  0  0  0  0  0
    3.0298    2.3482    0.0000 H   0  0  0  0  0  0  0  0  0  0  0  0
    5.3854    2.7712    0.0000 H   0  0  0  0  0  0  0  0  0  0  0  0
    3.5322    2.7712    0.0000 H   0  0  0  0  0  0  0  0  0  0  0  0
    4.4588    3.3062    0.0000 H   0  0  0  0  0  0  0  0  0  0  0  0
    6.0669   -0.3423    0.0000 H   0  0  0  0  0  0  0  0  0  0  0  0
    3.5321   -1.5988    0.0000 H   0  0  0  0  0  0  0  0  0  0  0  0
    4.4588   -2.1338    0.0000 H   0  0  0  0  0  0  0  0  0  0  0  0
    6.9084   -0.1351    0.0000 H   0  0  0  0  0  0  0  0  0  0  0  0
    7.4422   -1.1363    0.0000 H   0  0  0  0  0  0  0  0  0  0  0  0
    5.8152   -2.6183    0.0000 H   0  0  0  0  0  0  0  0  0  0  0  0
    5.9602    0.4907    0.0000 H   0  0  0  0  0  0  0  0  0  0  0  0
  1  2  1  0  0  0  0
  1 29  1  0  0  0  0
  1 30  1  0  0  0  0
  1 31  1  0  0  0  0
  2  3  1  0  0  0  0
  2 32  1  0  0  0  0
  2 33  1  0  0  0  0
  3  4  1  0  0  0  0
  3 34  1  0  0  0  0
  3 35  1  0  0  0  0
  4  5  1  0  0  0  0
  4 36  1  0  0  0  0
  4 37  1  0  0  0  0
  5  6  1  0  0  0  0
  5 38  1  0  0  0  0
  5 39  1  0  0  0  0
  6  7  1  0  0  0  0
  6 40  1  0  0  0  0
  6 41  1  0  0  0  0
  7  8  1  0  0  0  0
  7 42  1  0  0  0  0
  7 43  1  0  0  0  0
  8  9  1  0  0  0  0
  8 44  1  0  0  0  0
  8 45  1  0  0  0  0
  9 10  1  0  0  0  0
  9 46  1  0  0  0  0
  9 47  1  0  0  0  0
 10 11  2  0  0  0  0
 10 12  1  0  0  0  0
 12 13  1  0  0  0  0
 12 48  1  0  0  0  0
 12 49  1  0  0  0  0
 13 14  2  0  0  0  0
 14 15  1  0  0  0  0
 14 50  1  0  0  0  0
 15 16  1  0  0  0  0
 15 22  2  0  0  0  0
 16 17  1  0  0  0  0
 16 18  2  0  0  0  0
 17 51  1  0  0  0  0
 18 19  1  0  0  0  0
 18 20  1  0  0  0  0
 19 52  1  0  0  0  0
 19 53  1  0  0  0  0
 19 54  1  0  0  0  0
 20 21  2  0  0  0  0
 21 22  1  0  0  0  0
 21 55  1  0  0  0  0
 22 23  1  0  0  0  0
 23 24  1  0  0  0  0
 23 56  1  0  0  0  0
 23 57  1  0  0  0  0
 24 25  1  0  0  0  0
 25 26  1  0  0  0  0
 25 27  1  0  0  0  0
 25 28  1  0  0  0  0
 25 58  1  0  0  0  0
 26 59  1  0  0  0  0
 27 60  1  0  0  0  0
 28 61  1  0  0  0  0
M  END
>  <DRUGBANK_ID>
DB08364

>  <COMMON_NAME>
1-{[(1E)-(3-HYDROXY-2-METHYL-5-{[(TRIHYDROXY-LAMBDA^5^-PHOSPHANYL)OXY]METHYL}PYRIDIN-4-YL)METHYLIDENE]AMINO}UNDECAN-2-ONE

$$$$
