
 OpenBabel10282417072D

 83 85  0  0  0  0  0  0  0  0999 V2000
    0.0000   -0.4125    0.0000 C   0  0  1  0  0  0  0  0  0  0  0  0
   -0.7145    0.8250    0.0000 C   0  0  1  0  0  0  0  0  0  0  0  0
   -0.7145   -0.8250    0.0000 C   0  0  1  0  0  0  0  0  0  0  0  0
   -1.4290   -0.4125    0.0000 C   0  0  2  0  0  0  0  0  0  0  0  0
   -1.4290    0.4125    0.0000 C   0  0  2  0  0  0  0  0  0  0  0  0
   -1.4289   -2.0625    0.0000 C   0  0  2  0  0  0  0  0  0  0  0  0
   -1.4289   -2.8875    0.0000 C   0  0  1  0  0  0  0  0  0  0  0  0
   -2.1434   -3.3000    0.0000 C   0  0  2  0  0  0  0  0  0  0  0  0
   -2.8579   -2.8875    0.0000 C   0  0  1  0  0  0  0  0  0  0  0  0
   -2.8579   -2.0625    0.0000 C   0  0  2  0  0  0  0  0  0  0  0  0
   -2.1434   -1.6500    0.0000 O   0  0  0  0  0  0  0  0  0  0  0  0
   -3.5723   -3.3000    0.0000 O   0  0  0  0  0  0  0  0  0  0  0  0
   -3.5723   -1.6500    0.0000 C   0  0  0  0  0  0  0  0  0  0  0  0
   -2.1434   -4.1250    0.0000 N   0  0  0  0  0  0  0  0  0  0  0  0
   -4.2868   -2.0625    0.0000 O   0  0  0  0  0  0  0  0  0  0  0  0
   -0.7144    1.6500    0.0000 N   0  0  0  0  0  0  0  0  0  0  0  0
   -2.1434   -0.8250    0.0000 O   0  0  0  0  0  0  0  0  0  0  0  0
   -0.7144   -1.6500    0.0000 O   0  0  0  0  0  0  0  0  0  0  0  0
   -2.1434    0.8250    0.0000 O   0  0  0  0  0  0  0  0  0  0  0  0
   -2.1434    1.6500    0.0000 C   0  0  1  0  0  0  0  0  0  0  0  0
   -1.4289    2.0625    0.0000 O   0  0  0  0  0  0  0  0  0  0  0  0
   -1.4289    2.8875    0.0000 C   0  0  1  0  0  0  0  0  0  0  0  0
   -2.1434    3.3000    0.0000 C   0  0  2  0  0  0  0  0  0  0  0  0
   -2.8579    2.8875    0.0000 C   0  0  1  0  0  0  0  0  0  0  0  0
   -2.8579    2.0625    0.0000 C   0  0  1  0  0  0  0  0  0  0  0  0
   -0.7144    3.3000    0.0000 C   0  0  0  0  0  0  0  0  0  0  0  0
   -3.5723    1.6500    0.0000 O   0  0  0  0  0  0  0  0  0  0  0  0
   -3.5723    3.3000    0.0000 O   0  0  0  0  0  0  0  0  0  0  0  0
   -2.1434    4.1250    0.0000 O   0  0  0  0  0  0  0  0  0  0  0  0
    0.0000    0.4125    0.0000 C   0  0  0  0  0  0  0  0  0  0  0  0
    0.7144   -0.8250    0.0000 N   0  0  0  0  0  0  0  0  0  0  0  0
    2.8578   -0.4125    0.0000 C   0  0  0  0  0  0  0  0  0  0  0  0
    1.4289   -0.4125    0.0000 C   0  0  0  0  0  0  0  0  0  0  0  0
    1.4289    0.4125    0.0000 O   0  0  0  0  0  0  0  0  0  0  0  0
    3.5723   -0.8250    0.0000 C   0  0  0  0  0  0  0  0  0  0  0  0
    4.2868   -0.4125    0.0000 N   0  0  0  0  0  0  0  0  0  0  0  0
    2.1433   -0.8250    0.0000 C   0  0  1  0  0  0  0  0  0  0  0  0
    2.1433   -1.6500    0.0000 O   0  0  0  0  0  0  0  0  0  0  0  0
    0.0000    2.8875    0.0000 N   0  0  0  0  0  0  0  0  0  0  0  0
   -0.7144   -3.3000    0.0000 O   0  0  0  0  0  0  0  0  0  0  0  0
    0.9267    0.1225    0.0000 H   0  0  0  0  0  0  0  0  0  0  0  0
    0.2122    1.3600    0.0000 H   0  0  0  0  0  0  0  0  0  0  0  0
    0.2122   -1.3600    0.0000 H   0  0  0  0  0  0  0  0  0  0  0  0
   -1.4290   -1.4825    0.0000 H   0  0  0  0  0  0  0  0  0  0  0  0
   -2.3557   -0.1225    0.0000 H   0  0  0  0  0  0  0  0  0  0  0  0
   -0.5023   -2.5975    0.0000 H   0  0  0  0  0  0  0  0  0  0  0  0
   -0.5023   -2.3525    0.0000 H   0  0  0  0  0  0  0  0  0  0  0  0
   -1.2168   -3.8350    0.0000 H   0  0  0  0  0  0  0  0  0  0  0  0
   -2.8579   -3.9575    0.0000 H   0  0  0  0  0  0  0  0  0  0  0  0
   -3.7846   -2.5975    0.0000 H   0  0  0  0  0  0  0  0  0  0  0  0
   -4.4124   -2.8150    0.0000 H   0  0  0  0  0  0  0  0  0  0  0  0
   -3.5723   -0.5800    0.0000 H   0  0  0  0  0  0  0  0  0  0  0  0
   -4.4989   -1.1150    0.0000 H   0  0  0  0  0  0  0  0  0  0  0  0
   -3.0267   -4.6350    0.0000 H   0  0  0  0  0  0  0  0  0  0  0  0
   -1.2601   -4.6350    0.0000 H   0  0  0  0  0  0  0  0  0  0  0  0
   -5.1268   -1.5775    0.0000 H   0  0  0  0  0  0  0  0  0  0  0  0
    0.1690    2.1599    0.0000 H   0  0  0  0  0  0  0  0  0  0  0  0
   -1.5977    2.1601    0.0000 H   0  0  0  0  0  0  0  0  0  0  0  0
   -2.9835   -0.3400    0.0000 H   0  0  0  0  0  0  0  0  0  0  0  0
   -1.2168    1.1150    0.0000 H   0  0  0  0  0  0  0  0  0  0  0  0
   -0.5023    2.3525    0.0000 H   0  0  0  0  0  0  0  0  0  0  0  0
   -1.2168    3.8350    0.0000 H   0  0  0  0  0  0  0  0  0  0  0  0
   -2.8579    3.9575    0.0000 H   0  0  0  0  0  0  0  0  0  0  0  0
   -2.8579    0.9925    0.0000 H   0  0  0  0  0  0  0  0  0  0  0  0
   -0.7144    4.3700    0.0000 H   0  0  0  0  0  0  0  0  0  0  0  0
    0.2123    3.8350    0.0000 H   0  0  0  0  0  0  0  0  0  0  0  0
   -4.4124    2.1350    0.0000 H   0  0  0  0  0  0  0  0  0  0  0  0
   -3.5723    4.2700    0.0000 H   0  0  0  0  0  0  0  0  0  0  0  0
   -1.3034    4.6100    0.0000 H   0  0  0  0  0  0  0  0  0  0  0  0
    0.9266    0.9475    0.0000 H   0  0  0  0  0  0  0  0  0  0  0  0
   -0.0000    1.4825    0.0000 H   0  0  0  0  0  0  0  0  0  0  0  0
    0.7144   -1.8095    0.0000 H   0  0  0  0  0  0  0  0  0  0  0  0
    2.8578    0.6575    0.0000 H   0  0  0  0  0  0  0  0  0  0  0  0
    3.7844    0.1225    0.0000 H   0  0  0  0  0  0  0  0  0  0  0  0
    3.5723   -1.8950    0.0000 H   0  0  0  0  0  0  0  0  0  0  0  0
    4.4989   -1.3600    0.0000 H   0  0  0  0  0  0  0  0  0  0  0  0
    5.1701   -0.9225    0.0000 H   0  0  0  0  0  0  0  0  0  0  0  0
    4.2868    0.6075    0.0000 H   0  0  0  0  0  0  0  0  0  0  0  0
    1.2166   -1.3600    0.0000 H   0  0  0  0  0  0  0  0  0  0  0  0
    1.3033   -2.1350    0.0000 H   0  0  0  0  0  0  0  0  0  0  0  0
   -0.0000    1.8675    0.0000 H   0  0  0  0  0  0  0  0  0  0  0  0
    0.8834    3.3975    0.0000 H   0  0  0  0  0  0  0  0  0  0  0  0
   -0.7144   -4.2700    0.0000 H   0  0  0  0  0  0  0  0  0  0  0  0
  1 31  1  0  0  0  0
  1  3  1  0  0  0  0
  1 41  1  6  0  0  0
  2 30  1  0  0  0  0
  2 16  1  0  0  0  0
  2 42  1  6  0  0  0
  3 18  1  0  0  0  0
  3  4  1  0  0  0  0
  3 43  1  1  0  0  0
  4 17  1  0  0  0  0
  4  5  1  0  0  0  0
  4 44  1  6  0  0  0
  5  2  1  0  0  0  0
  5 19  1  0  0  0  0
  5 45  1  1  0  0  0
  6 18  1  0  0  0  0
  6  7  1  0  0  0  0
  6 46  1  1  0  0  0
  7  8  1  0  0  0  0
  7 40  1  0  0  0  0
  7 47  1  1  0  0  0
  8  9  1  0  0  0  0
  8 14  1  0  0  0  0
  8 48  1  6  0  0  0
  9 10  1  0  0  0  0
  9 12  1  0  0  0  0
  9 49  1  1  0  0  0
 10 11  1  0  0  0  0
 10 13  1  0  0  0  0
 10 50  1  6  0  0  0
 11  6  1  0  0  0  0
 12 51  1  0  0  0  0
 13 15  1  0  0  0  0
 13 52  1  0  0  0  0
 13 53  1  0  0  0  0
 14 54  1  0  0  0  0
 14 55  1  0  0  0  0
 15 56  1  0  0  0  0
 16 57  1  0  0  0  0
 16 58  1  0  0  0  0
 17 59  1  0  0  0  0
 20 19  1  0  0  0  0
 20 21  1  0  0  0  0
 20 60  1  1  0  0  0
 21 22  1  0  0  0  0
 22 23  1  0  0  0  0
 22 26  1  0  0  0  0
 22 61  1  6  0  0  0
 23 24  1  0  0  0  0
 23 29  1  0  0  0  0
 23 62  1  1  0  0  0
 24 25  1  0  0  0  0
 24 28  1  0  0  0  0
 24 63  1  6  0  0  0
 25 20  1  0  0  0  0
 25 27  1  0  0  0  0
 25 64  1  1  0  0  0
 26 39  1  0  0  0  0
 26 65  1  0  0  0  0
 26 66  1  0  0  0  0
 27 67  1  0  0  0  0
 28 68  1  0  0  0  0
 29 69  1  0  0  0  0
 30  1  1  0  0  0  0
 30 70  1  0  0  0  0
 30 71  1  0  0  0  0
 31 33  1  0  0  0  0
 31 72  1  0  0  0  0
 32 35  1  0  0  0  0
 32 73  1  0  0  0  0
 32 74  1  0  0  0  0
 33 34  2  0  0  0  0
 35 36  1  0  0  0  0
 35 75  1  0  0  0  0
 35 76  1  0  0  0  0
 36 77  1  0  0  0  0
 36 78  1  0  0  0  0
 37 33  1  0  0  0  0
 37 32  1  0  0  0  0
 37 38  1  0  0  0  0
 37 79  1  1  0  0  0
 38 80  1  0  0  0  0
 39 81  1  0  0  0  0
 39 82  1  0  0  0  0
 40 83  1  0  0  0  0
M  END
>  <DRUGBANK_ID>
DB00479

>  <SECONDARY_ACCESSION_NUMBERS>
APRD00550

>  <COMMON_NAME>
Amikacin

>  <CAS_NUMBER>
37517-28-5

>  <UNII>
84319SGC3C

>  <SYNONYMS>
1-N-(L(−)-γ-amino-α-hydroxybutyryl)kanamycin A; Amikacin; Amikacina; Amikacine; Amikacinum; D-STREPTAMINE, O-3-AMINO-3-DEOXY-.ALPHA.-D-GLUCOPYRANOSYL-(1->6)-O-(6-AMINO-6-DEOXY-.ALPHA.-D-GLUCOPYRANOSYL-(1->4))-N(SUP 1)-(4-AMINO-2-HYDROXY-1-OXOBUTYL)-2-DEOXY-, (S)-; encochleated amikacin; O-3-AMINO-3-DEOXY-.ALPHA.-D-GLUCOPYRANOSYL-(1->4)-O-(6-AMINO-6-DEOXY-.ALPHA.-D-GLUCOPYRANOSYL-(1->6))-N(SUP 3)-(4-AMINO-L-2-HYDROXYBUTYRYL)-2-DEOXY-L-STREPTAMINE

$$$$
