
 OpenBabel10282417072D

 89 88  0  0  1  0  0  0  0  0999 V2000
   14.1355   -8.1612    0.0000 C   0  0  0  0  0  0  0  0  0  0  0  0
   14.8500   -8.5737    0.0000 C   0  0  0  0  0  0  0  0  0  0  0  0
   15.5645   -8.1612    0.0000 C   0  0  0  0  0  0  0  0  0  0  0  0
   16.2789   -8.5737    0.0000 C   0  0  0  0  0  0  0  0  0  0  0  0
   16.9934   -8.1612    0.0000 C   0  0  0  0  0  0  0  0  0  0  0  0
   17.7079   -8.5737    0.0000 C   0  0  0  0  0  0  0  0  0  0  0  0
   18.4224   -8.1612    0.0000 C   0  0  0  0  0  0  0  0  0  0  0  0
   19.1368   -8.5737    0.0000 C   0  0  0  0  0  0  0  0  0  0  0  0
   19.8513   -8.1612    0.0000 C   0  0  0  0  0  0  0  0  0  0  0  0
   20.5658   -8.5737    0.0000 C   0  0  0  0  0  0  0  0  0  0  0  0
   21.2802   -8.1612    0.0000 C   0  0  0  0  0  0  0  0  0  0  0  0
   21.9947   -8.5737    0.0000 C   0  0  0  0  0  0  0  0  0  0  0  0
   22.7092   -8.1612    0.0000 C   0  0  0  0  0  0  0  0  0  0  0  0
   23.4237   -8.5737    0.0000 C   0  0  0  0  0  0  0  0  0  0  0  0
   24.1381   -8.1612    0.0000 C   0  0  0  0  0  0  0  0  0  0  0  0
   24.8526   -8.5737    0.0000 C   0  0  0  0  0  0  0  0  0  0  0  0
   25.5671   -8.1612    0.0000 O   0  0  0  0  0  0  0  0  0  0  0  0
   26.2815   -8.5737    0.0000 C   0  0  0  0  0  0  0  0  0  0  0  0
   26.9960   -8.1612    0.0000 C   0  0  2  0  0  0  0  0  0  0  0  0
   27.7105   -8.5737    0.0000 C   0  0  0  0  0  0  0  0  0  0  0  0
   28.4249   -8.1612    0.0000 O   0  0  0  0  0  0  0  0  0  0  0  0
   29.1394   -8.5737    0.0000 P   0  0  1  0  0  0  0  0  0  0  0  0
   28.7269   -9.2881    0.0000 O   0  5  0  0  0  0  0  0  0  0  0  0
   29.5519   -7.8592    0.0000 O   0  0  0  0  0  0  0  0  0  0  0  0
   29.8539   -8.9862    0.0000 O   0  0  0  0  0  0  0  0  0  0  0  0
   30.5684   -8.5737    0.0000 C   0  0  0  0  0  0  0  0  0  0  0  0
   31.2828   -8.9862    0.0000 C   0  0  0  0  0  0  0  0  0  0  0  0
   31.9973   -8.5737    0.0000 N   0  3  0  0  0  0  0  0  0  0  0  0
   32.7118   -8.1612    0.0000 C   0  0  0  0  0  0  0  0  0  0  0  0
   32.4098   -9.2881    0.0000 C   0  0  0  0  0  0  0  0  0  0  0  0
   31.5848   -7.8592    0.0000 C   0  0  0  0  0  0  0  0  0  0  0  0
   26.9960   -7.3362    0.0000 O   0  0  0  0  0  0  0  0  0  0  0  0
   26.2815   -6.9237    0.0000 C   0  0  0  0  0  0  0  0  0  0  0  0
   25.5671   -7.3362    0.0000 C   0  0  0  0  0  0  0  0  0  0  0  0
   26.2815   -6.0987    0.0000 O   0  0  0  0  0  0  0  0  0  0  0  0
   14.1355   -7.0912    0.0000 H   0  0  0  0  0  0  0  0  0  0  0  0
   13.2089   -8.6962    0.0000 H   0  0  0  0  0  0  0  0  0  0  0  0
   13.2088   -7.6262    0.0000 H   0  0  0  0  0  0  0  0  0  0  0  0
   14.8500   -9.6437    0.0000 H   0  0  0  0  0  0  0  0  0  0  0  0
   15.7766   -9.1087    0.0000 H   0  0  0  0  0  0  0  0  0  0  0  0
   15.5645   -7.0912    0.0000 H   0  0  0  0  0  0  0  0  0  0  0  0
   16.4912   -7.6262    0.0000 H   0  0  0  0  0  0  0  0  0  0  0  0
   16.2789   -9.6437    0.0000 H   0  0  0  0  0  0  0  0  0  0  0  0
   17.2055   -9.1087    0.0000 H   0  0  0  0  0  0  0  0  0  0  0  0
   16.9934   -7.0912    0.0000 H   0  0  0  0  0  0  0  0  0  0  0  0
   17.9200   -7.6262    0.0000 H   0  0  0  0  0  0  0  0  0  0  0  0
   17.7079   -9.6437    0.0000 H   0  0  0  0  0  0  0  0  0  0  0  0
   18.6345   -9.1087    0.0000 H   0  0  0  0  0  0  0  0  0  0  0  0
   18.4224   -7.0912    0.0000 H   0  0  0  0  0  0  0  0  0  0  0  0
   19.3491   -7.6262    0.0000 H   0  0  0  0  0  0  0  0  0  0  0  0
   19.1368   -9.6437    0.0000 H   0  0  0  0  0  0  0  0  0  0  0  0
   20.0634   -9.1087    0.0000 H   0  0  0  0  0  0  0  0  0  0  0  0
   19.8513   -7.0912    0.0000 H   0  0  0  0  0  0  0  0  0  0  0  0
   20.7779   -7.6262    0.0000 H   0  0  0  0  0  0  0  0  0  0  0  0
   20.5658   -9.6437    0.0000 H   0  0  0  0  0  0  0  0  0  0  0  0
   21.4925   -9.1087    0.0000 H   0  0  0  0  0  0  0  0  0  0  0  0
   21.2802   -7.0912    0.0000 H   0  0  0  0  0  0  0  0  0  0  0  0
   22.2068   -7.6262    0.0000 H   0  0  0  0  0  0  0  0  0  0  0  0
   21.9947   -9.6437    0.0000 H   0  0  0  0  0  0  0  0  0  0  0  0
   22.9213   -9.1087    0.0000 H   0  0  0  0  0  0  0  0  0  0  0  0
   22.7092   -7.0912    0.0000 H   0  0  0  0  0  0  0  0  0  0  0  0
   23.6358   -7.6262    0.0000 H   0  0  0  0  0  0  0  0  0  0  0  0
   23.4237   -9.6437    0.0000 H   0  0  0  0  0  0  0  0  0  0  0  0
   24.3504   -9.1087    0.0000 H   0  0  0  0  0  0  0  0  0  0  0  0
   24.1381   -7.0912    0.0000 H   0  0  0  0  0  0  0  0  0  0  0  0
   25.0647   -7.6262    0.0000 H   0  0  0  0  0  0  0  0  0  0  0  0
   24.8526   -9.6437    0.0000 H   0  0  0  0  0  0  0  0  0  0  0  0
   25.7792   -9.1087    0.0000 H   0  0  0  0  0  0  0  0  0  0  0  0
   26.2815   -9.6437    0.0000 H   0  0  0  0  0  0  0  0  0  0  0  0
   27.2081   -9.1087    0.0000 H   0  0  0  0  0  0  0  0  0  0  0  0
   26.0694   -7.6262    0.0000 H   0  0  0  0  0  0  0  0  0  0  0  0
   27.7105   -9.6437    0.0000 H   0  0  0  0  0  0  0  0  0  0  0  0
   28.6372   -9.1087    0.0000 H   0  0  0  0  0  0  0  0  0  0  0  0
   30.5684   -7.5037    0.0000 H   0  0  0  0  0  0  0  0  0  0  0  0
   31.4951   -8.0387    0.0000 H   0  0  0  0  0  0  0  0  0  0  0  0
   31.2828  -10.0562    0.0000 H   0  0  0  0  0  0  0  0  0  0  0  0
   32.2094   -9.5212    0.0000 H   0  0  0  0  0  0  0  0  0  0  0  0
   33.6384   -8.6962    0.0000 H   0  0  0  0  0  0  0  0  0  0  0  0
   32.7118   -7.0912    0.0000 H   0  0  0  0  0  0  0  0  0  0  0  0
   33.6385   -7.6262    0.0000 H   0  0  0  0  0  0  0  0  0  0  0  0
   31.8748  -10.2148    0.0000 H   0  0  0  0  0  0  0  0  0  0  0  0
   33.4798   -9.2881    0.0000 H   0  0  0  0  0  0  0  0  0  0  0  0
   32.9448  -10.2147    0.0000 H   0  0  0  0  0  0  0  0  0  0  0  0
   32.1198   -6.9326    0.0000 H   0  0  0  0  0  0  0  0  0  0  0  0
   30.5148   -7.8592    0.0000 H   0  0  0  0  0  0  0  0  0  0  0  0
   31.0498   -6.9325    0.0000 H   0  0  0  0  0  0  0  0  0  0  0  0
   24.6404   -6.8012    0.0000 H   0  0  0  0  0  0  0  0  0  0  0  0
   25.5671   -8.4062    0.0000 H   0  0  0  0  0  0  0  0  0  0  0  0
   24.6405   -7.8712    0.0000 H   0  0  0  0  0  0  0  0  0  0  0  0
  1  2  1  0  0  0  0
  1 36  1  0  0  0  0
  1 37  1  0  0  0  0
  1 38  1  0  0  0  0
  2  3  1  0  0  0  0
  2 39  1  0  0  0  0
  2 40  1  0  0  0  0
  3  4  1  0  0  0  0
  3 41  1  0  0  0  0
  3 42  1  0  0  0  0
  4  5  1  0  0  0  0
  4 43  1  0  0  0  0
  4 44  1  0  0  0  0
  5  6  1  0  0  0  0
  5 45  1  0  0  0  0
  5 46  1  0  0  0  0
  6  7  1  0  0  0  0
  6 47  1  0  0  0  0
  6 48  1  0  0  0  0
  7  8  1  0  0  0  0
  7 49  1  0  0  0  0
  7 50  1  0  0  0  0
  8  9  1  0  0  0  0
  8 51  1  0  0  0  0
  8 52  1  0  0  0  0
  9 10  1  0  0  0  0
  9 53  1  0  0  0  0
  9 54  1  0  0  0  0
 10 11  1  0  0  0  0
 10 55  1  0  0  0  0
 10 56  1  0  0  0  0
 11 12  1  0  0  0  0
 11 57  1  0  0  0  0
 11 58  1  0  0  0  0
 12 13  1  0  0  0  0
 12 59  1  0  0  0  0
 12 60  1  0  0  0  0
 13 14  1  0  0  0  0
 13 61  1  0  0  0  0
 13 62  1  0  0  0  0
 14 15  1  0  0  0  0
 14 63  1  0  0  0  0
 14 64  1  0  0  0  0
 15 16  1  0  0  0  0
 15 65  1  0  0  0  0
 15 66  1  0  0  0  0
 16 17  1  0  0  0  0
 16 67  1  0  0  0  0
 16 68  1  0  0  0  0
 17 18  1  0  0  0  0
 18 19  1  0  0  0  0
 18 69  1  0  0  0  0
 18 70  1  0  0  0  0
 19 20  1  0  0  0  0
 19 32  1  0  0  0  0
 19 71  1  6  0  0  0
 20 21  1  0  0  0  0
 20 72  1  0  0  0  0
 20 73  1  0  0  0  0
 22 21  1  0  0  0  0
 22 23  1  6  0  0  0
 22 24  2  0  0  0  0
 22 25  1  0  0  0  0
 25 26  1  0  0  0  0
 26 27  1  0  0  0  0
 26 74  1  0  0  0  0
 26 75  1  0  0  0  0
 27 28  1  0  0  0  0
 27 76  1  0  0  0  0
 27 77  1  0  0  0  0
 28 29  1  0  0  0  0
 28 30  1  0  0  0  0
 28 31  1  0  0  0  0
 29 78  1  0  0  0  0
 29 79  1  0  0  0  0
 29 80  1  0  0  0  0
 30 81  1  0  0  0  0
 30 82  1  0  0  0  0
 30 83  1  0  0  0  0
 31 84  1  0  0  0  0
 31 85  1  0  0  0  0
 31 86  1  0  0  0  0
 32 33  1  0  0  0  0
 33 34  1  0  0  0  0
 33 35  2  0  0  0  0
 34 87  1  0  0  0  0
 34 88  1  0  0  0  0
 34 89  1  0  0  0  0
M  CHG  2  23  -1  28   1
M  END
>  <DRUGBANK_ID>
DB02261

>  <SECONDARY_ACCESSION_NUMBERS>
EXPT02559

>  <COMMON_NAME>
Platelet Activating Factor

>  <CAS_NUMBER>
74389-68-7

>  <UNII>
42EWD89I80

>  <SYNONYMS>
1-hexadecyl-2-acetyl-glycero-3-phosphocholine; Blood platelet-activating factor; PAF; PAF 16; PAF acether; Platelet-activating factor

$$$$
