1439
 OpenBabel10282417072D

 53 55  0  0  1  0  0  0  0  0999 V2000
    1.6971   -2.9440    0.0000 S   0  0  0  0  0  0  0  0  0  0  0  0
    1.6500    2.0786    0.0000 O   0  0  0  0  0  0  0  0  0  0  0  0
    3.0791   -0.3965    0.0000 N   0  0  0  0  0  0  0  0  0  0  0  0
    3.0791    2.0786    0.0000 N   0  0  0  0  0  0  0  0  0  0  0  0
    3.0791    1.2535    0.0000 C   0  0  3  0  0  0  0  0  0  0  0  0
    2.3645    0.8410    0.0000 C   0  0  3  0  0  0  0  0  0  0  0  0
    3.7935    0.8410    0.0000 C   0  0  0  0  0  0  0  0  0  0  0  0
    2.3645    0.0160    0.0000 C   0  0  0  0  0  0  0  0  0  0  0  0
    3.7935    0.0160    0.0000 C   0  0  0  0  0  0  0  0  0  0  0  0
    1.6500    1.2535    0.0000 C   0  0  0  0  0  0  0  0  0  0  0  0
    3.0791   -1.2215    0.0000 C   0  0  0  0  0  0  0  0  0  0  0  0
    2.3645   -1.6340    0.0000 C   0  0  0  0  0  0  0  0  0  0  0  0
    3.7935    2.4911    0.0000 C   0  0  0  0  0  0  0  0  0  0  0  0
    2.3645    2.4911    0.0000 C   0  0  0  0  0  0  0  0  0  0  0  0
    2.3645    3.3161    0.0000 C   0  0  0  0  0  0  0  0  0  0  0  0
    2.3645   -2.4590    0.0000 C   0  0  0  0  0  0  0  0  0  0  0  0
    3.7935    3.3161    0.0000 C   0  0  0  0  0  0  0  0  0  0  0  0
    4.5080    2.0786    0.0000 C   0  0  0  0  0  0  0  0  0  0  0  0
    1.6500    3.7286    0.0000 C   0  0  0  0  0  0  0  0  0  0  0  0
    4.5080    3.7286    0.0000 C   0  0  0  0  0  0  0  0  0  0  0  0
    5.2224    2.4911    0.0000 C   0  0  0  0  0  0  0  0  0  0  0  0
    3.0319   -2.9440    0.0000 C   0  0  0  0  0  0  0  0  0  0  0  0
    5.2224    3.3161    0.0000 C   0  0  0  0  0  0  0  0  0  0  0  0
    2.7770   -3.7286    0.0000 C   0  0  0  0  0  0  0  0  0  0  0  0
    1.9520   -3.7286    0.0000 C   0  0  0  0  0  0  0  0  0  0  0  0
    2.1525    1.7885    0.0000 H   0  0  0  0  0  0  0  0  0  0  0  0
    3.2911    0.3060    0.0000 H   0  0  0  0  0  0  0  0  0  0  0  0
    4.7202    1.3760    0.0000 H   0  0  0  0  0  0  0  0  0  0  0  0
    4.7201    0.3060    0.0000 H   0  0  0  0  0  0  0  0  0  0  0  0
    1.4379   -0.5190    0.0000 H   0  0  0  0  0  0  0  0  0  0  0  0
    1.4378    0.5510    0.0000 H   0  0  0  0  0  0  0  0  0  0  0  0
    4.7202   -0.5190    0.0000 H   0  0  0  0  0  0  0  0  0  0  0  0
    4.7201    0.5510    0.0000 H   0  0  0  0  0  0  0  0  0  0  0  0
    1.6500    2.3235    0.0000 H   0  0  0  0  0  0  0  0  0  0  0  0
    0.7234    0.7185    0.0000 H   0  0  0  0  0  0  0  0  0  0  0  0
    0.7233    1.7885    0.0000 H   0  0  0  0  0  0  0  0  0  0  0  0
    4.0057   -1.7565    0.0000 H   0  0  0  0  0  0  0  0  0  0  0  0
    3.0790   -2.2915    0.0000 H   0  0  0  0  0  0  0  0  0  0  0  0
    1.4379   -1.0990    0.0000 H   0  0  0  0  0  0  0  0  0  0  0  0
    1.4378   -2.1690    0.0000 H   0  0  0  0  0  0  0  0  0  0  0  0
    3.2911    3.8511    0.0000 H   0  0  0  0  0  0  0  0  0  0  0  0
    2.3645    4.3861    0.0000 H   0  0  0  0  0  0  0  0  0  0  0  0
    2.8998    3.8321    0.0000 H   0  0  0  0  0  0  0  0  0  0  0  0
    4.5080    1.0466    0.0000 H   0  0  0  0  0  0  0  0  0  0  0  0
    1.6500    4.7986    0.0000 H   0  0  0  0  0  0  0  0  0  0  0  0
    0.7234    3.1936    0.0000 H   0  0  0  0  0  0  0  0  0  0  0  0
    0.7233    4.2636    0.0000 H   0  0  0  0  0  0  0  0  0  0  0  0
    4.5080    4.7606    0.0000 H   0  0  0  0  0  0  0  0  0  0  0  0
    6.1161    1.9751    0.0000 H   0  0  0  0  0  0  0  0  0  0  0  0
    4.0134   -2.6251    0.0000 H   0  0  0  0  0  0  0  0  0  0  0  0
    6.1161    3.8321    0.0000 H   0  0  0  0  0  0  0  0  0  0  0  0
    3.3836   -4.5635    0.0000 H   0  0  0  0  0  0  0  0  0  0  0  0
    1.3454   -4.5635    0.0000 H   0  0  0  0  0  0  0  0  0  0  0  0
  1 16  1  0  0  0  0
  1 25  1  0  0  0  0
  2 14  2  0  0  0  0
  3  8  1  0  0  0  0
  3  9  1  0  0  0  0
  3 11  1  0  0  0  0
  4  5  1  0  0  0  0
  4 13  1  0  0  0  0
  4 14  1  0  0  0  0
  5  6  1  0  0  0  0
  5  7  1  0  0  0  0
  5 26  1  0  0  0  0
  6  8  1  0  0  0  0
  6 10  1  0  0  0  0
  6 27  1  0  0  0  0
  7  9  1  0  0  0  0
  7 28  1  0  0  0  0
  7 29  1  0  0  0  0
  8 30  1  0  0  0  0
  8 31  1  0  0  0  0
  9 32  1  0  0  0  0
  9 33  1  0  0  0  0
 10 34  1  0  0  0  0
 10 35  1  0  0  0  0
 10 36  1  0  0  0  0
 11 12  1  0  0  0  0
 11 37  1  0  0  0  0
 11 38  1  0  0  0  0
 12 16  1  0  0  0  0
 12 39  1  0  0  0  0
 12 40  1  0  0  0  0
 13 17  2  0  0  0  0
 13 18  1  0  0  0  0
 14 15  1  0  0  0  0
 15 19  1  0  0  0  0
 15 41  1  0  0  0  0
 15 42  1  0  0  0  0
 16 22  2  0  0  0  0
 17 20  1  0  0  0  0
 17 43  1  0  0  0  0
 18 21  2  0  0  0  0
 18 44  1  0  0  0  0
 19 45  1  0  0  0  0
 19 46  1  0  0  0  0
 19 47  1  0  0  0  0
 20 23  2  0  0  0  0
 20 48  1  0  0  0  0
 21 23  1  0  0  0  0
 21 49  1  0  0  0  0
 22 24  1  0  0  0  0
 22 50  1  0  0  0  0
 23 51  1  0  0  0  0
 24 25  2  0  0  0  0
 24 52  1  0  0  0  0
 25 53  1  0  0  0  0
M  END
>  <DRUGBANK_ID>
DB01439

>  <COMMON_NAME>
3-Methylthiofentanyl

>  <CAS_NUMBER>
86052-04-2

>  <UNII>
C9C204973M

>  <SYNONYMS>
3-Methyl-thiofentanyl

$$$$
