
 OpenBabel10282417072D

266273  0  0  0  0  0  0  0  0999 V2000
  -14.9450    0.9816    0.0000 C   0  0  2  0  0  0  0  0  0  0  0  0
  -14.2326   -0.2544    0.0000 O   0  0  0  0  0  0  0  0  0  0  0  0
  -14.2272    0.5680    0.0000 C   0  0  0  0  0  0  0  0  0  0  0  0
  -14.9456    1.8057    0.0000 C   0  0  0  0  0  0  0  0  0  0  0  0
  -14.2344    2.2178    0.0000 C   0  0  0  0  0  0  0  0  0  0  0  0
  -15.6593    2.2194    0.0000 C   0  0  0  0  0  0  0  0  0  0  0  0
  -12.8353    0.6382    0.0000 C   0  0  0  0  0  0  0  0  0  0  0  0
  -12.1310    1.8759    0.0000 O   0  0  0  0  0  0  0  0  0  0  0  0
  -12.1285    1.0502    0.0000 C   0  0  0  0  0  0  0  0  0  0  0  0
  -10.6694    0.9769    0.0000 C   0  0  1  0  0  0  0  0  0  0  0  0
   -9.9477   -0.2610    0.0000 O   0  0  0  0  0  0  0  0  0  0  0  0
   -9.9553    0.5664    0.0000 C   0  0  0  0  0  0  0  0  0  0  0  0
  -10.6718    1.8025    0.0000 C   0  0  0  0  0  0  0  0  0  0  0  0
   -9.9540    2.2147    0.0000 C   0  0  0  0  0  0  0  0  0  0  0  0
   -9.9576    3.0387    0.0000 C   0  0  0  0  0  0  0  0  0  0  0  0
   -9.2423    1.7996    0.0000 C   0  0  0  0  0  0  0  0  0  0  0  0
   -8.5631    0.6380    0.0000 C   0  0  1  0  0  0  0  0  0  0  0  0
   -7.8467    1.8726    0.0000 O   0  0  0  0  0  0  0  0  0  0  0  0
   -8.5607   -0.1865    0.0000 C   0  0  0  0  0  0  0  0  0  0  0  0
   -7.8443    1.0480    0.0000 C   0  0  0  0  0  0  0  0  0  0  0  0
   -6.3825    0.9802    0.0000 C   0  0  1  0  0  0  0  0  0  0  0  0
   -5.6676   -0.2511    0.0000 O   0  0  0  0  0  0  0  0  0  0  0  0
   -5.6700    0.5734    0.0000 C   0  0  0  0  0  0  0  0  0  0  0  0
   -6.3849    1.8048    0.0000 C   0  0  0  0  0  0  0  0  0  0  0  0
   -5.6687    2.2209    0.0000 C   0  0  0  0  0  0  0  0  0  0  0  0
   -7.1001    2.2179    0.0000 C   0  0  0  0  0  0  0  0  0  0  0  0
   -4.2855    0.6441    0.0000 C   0  0  2  0  0  0  0  0  0  0  0  0
   -3.5735    1.8864    0.0000 O   0  0  0  0  0  0  0  0  0  0  0  0
   -3.5727    1.0556    0.0000 C   0  0  0  0  0  0  0  0  0  0  0  0
   -4.2892   -0.1788    0.0000 C   0  0  0  0  0  0  0  0  0  0  0  0
   -3.5680   -0.5934    0.0000 C   0  0  0  0  0  0  0  0  0  0  0  0
   -5.0019   -0.5904    0.0000 C   0  0  0  0  0  0  0  0  0  0  0  0
   -2.1101    0.9871    0.0000 C   0  0  1  0  0  0  0  0  0  0  0  0
   -1.3969   -0.2503    0.0000 O   0  0  0  0  0  0  0  0  0  0  0  0
   -1.3993    0.5743    0.0000 C   0  0  0  0  0  0  0  0  0  0  0  0
   -2.1106    1.8100    0.0000 C   0  0  0  0  0  0  0  0  0  0  0  0
   -1.3964    2.2235    0.0000 C   0  0  0  0  0  0  0  0  0  0  0  0
   -2.8276    2.2246    0.0000 C   0  0  0  0  0  0  0  0  0  0  0  0
   -0.0102    0.6528    0.0000 C   0  0  2  0  0  0  0  0  0  0  0  0
    0.7229    1.8480    0.0000 O   0  0  0  0  0  0  0  0  0  0  0  0
    0.7253    1.0234    0.0000 C   0  0  0  0  0  0  0  0  0  0  0  0
   -0.0539   -0.1711    0.0000 C   0  0  0  0  0  0  0  0  0  0  0  0
    1.4097   -0.3266    0.0000 C   0  0  0  0  0  0  0  0  0  0  0  0
    0.6424   -0.6245    0.0000 C   0  0  0  0  0  0  0  0  0  0  0  0
    0.6805   -1.4428    0.0000 C   0  0  0  0  0  0  0  0  0  0  0  0
    1.4816   -1.6578    0.0000 C   0  0  0  0  0  0  0  0  0  0  0  0
    1.6944   -2.4564    0.0000 C   0  0  0  0  0  0  0  0  0  0  0  0
    1.1094   -3.0399    0.0000 C   0  0  0  0  0  0  0  0  0  0  0  0
    0.3123   -2.8249    0.0000 C   0  0  0  0  0  0  0  0  0  0  0  0
    0.0979   -2.0323    0.0000 C   0  0  0  0  0  0  0  0  0  0  0  0
    2.1830    0.9576    0.0000 C   0  0  1  0  0  0  0  0  0  0  0  0
    2.9006   -0.2799    0.0000 O   0  0  0  0  0  0  0  0  0  0  0  0
    2.8982    0.5447    0.0000 C   0  0  0  0  0  0  0  0  0  0  0  0
    2.1848    1.7822    0.0000 C   0  0  0  0  0  0  0  0  0  0  0  0
    2.8995    2.1921    0.0000 C   0  0  0  0  0  0  0  0  0  0  0  0
    2.8971    3.0167    0.0000 C   0  0  0  0  0  0  0  0  0  0  0  0
    3.6145    1.7792    0.0000 C   0  0  0  0  0  0  0  0  0  0  0  0
    4.2858    0.6242    0.0000 C   0  0  2  0  0  0  0  0  0  0  0  0
    4.9961    1.8604    0.0000 O   0  0  0  0  0  0  0  0  0  0  0  0
    4.9985    1.0359    0.0000 C   0  0  0  0  0  0  0  0  0  0  0  0
    4.2846   -0.2045    0.0000 C   0  0  0  0  0  0  0  0  0  0  0  0
    5.7554   -0.2800    0.0000 C   0  0  0  0  0  0  0  0  0  0  0  0
    4.9972   -0.6115    0.0000 C   0  0  0  0  0  0  0  0  0  0  0  0
    5.0838   -1.4378    0.0000 C   0  0  0  0  0  0  0  0  0  0  0  0
    5.8915   -1.6078    0.0000 C   0  0  0  0  0  0  0  0  0  0  0  0
    6.1505   -2.3924    0.0000 C   0  0  0  0  0  0  0  0  0  0  0  0
    5.5976   -3.0069    0.0000 C   0  0  0  0  0  0  0  0  0  0  0  0
    4.7898   -2.8370    0.0000 C   0  0  0  0  0  0  0  0  0  0  0  0
    4.5365   -2.0463    0.0000 C   0  0  0  0  0  0  0  0  0  0  0  0
    6.4624    0.9636    0.0000 C   0  0  1  0  0  0  0  0  0  0  0  0
    7.1755   -0.2701    0.0000 O   0  0  0  0  0  0  0  0  0  0  0  0
    7.1792    0.5526    0.0000 C   0  0  0  0  0  0  0  0  0  0  0  0
    6.4601    1.7883    0.0000 C   0  0  0  0  0  0  0  0  0  0  0  0
    7.1744    2.2017    0.0000 C   0  0  0  0  0  0  0  0  0  0  0  0
    7.1721    3.0263    0.0000 C   0  0  0  0  0  0  0  0  0  0  0  0
    7.8895    1.7930    0.0000 C   0  0  0  0  0  0  0  0  0  0  0  0
    8.5618    0.6354    0.0000 C   0  0  2  0  0  0  0  0  0  0  0  0
    9.2679    1.8717    0.0000 O   0  0  0  0  0  0  0  0  0  0  0  0
    9.2702    1.0471    0.0000 C   0  0  0  0  0  0  0  0  0  0  0  0
    8.5600   -0.1889    0.0000 C   0  0  0  0  0  0  0  0  0  0  0  0
   10.0287   -0.2626    0.0000 C   0  0  0  0  0  0  0  0  0  0  0  0
    9.2750   -0.6018    0.0000 C   0  0  0  0  0  0  0  0  0  0  0  0
    9.3632   -1.4221    0.0000 C   0  0  0  0  0  0  0  0  0  0  0  0
   10.1691   -1.5906    0.0000 C   0  0  0  0  0  0  0  0  0  0  0  0
   10.4240   -2.3752    0.0000 C   0  0  0  0  0  0  0  0  0  0  0  0
    9.8710   -2.9896    0.0000 C   0  0  0  0  0  0  0  0  0  0  0  0
    9.0693   -2.8212    0.0000 C   0  0  0  0  0  0  0  0  0  0  0  0
    8.8103   -2.0366    0.0000 C   0  0  0  0  0  0  0  0  0  0  0  0
   10.7303    0.9748    0.0000 C   0  0  1  0  0  0  0  0  0  0  0  0
   11.4478   -0.2625    0.0000 O   0  0  0  0  0  0  0  0  0  0  0  0
   11.4454    0.5618    0.0000 C   0  0  0  0  0  0  0  0  0  0  0  0
   10.7279    1.7993    0.0000 C   0  0  0  0  0  0  0  0  0  0  0  0
   11.4423    2.2171    0.0000 C   0  0  0  0  0  0  0  0  0  0  0  0
   11.4460    3.0399    0.0000 C   0  0  0  0  0  0  0  0  0  0  0  0
   12.1635    1.8024    0.0000 C   0  0  0  0  0  0  0  0  0  0  0  0
   12.8272    0.6393    0.0000 C   0  0  2  0  0  0  0  0  0  0  0  0
   13.5437    1.8738    0.0000 O   0  0  0  0  0  0  0  0  0  0  0  0
   13.5461    1.0492    0.0000 C   0  0  0  0  0  0  0  0  0  0  0  0
   12.8296   -0.1853    0.0000 C   0  0  0  0  0  0  0  0  0  0  0  0
   13.5448   -0.5982    0.0000 C   0  0  0  0  0  0  0  0  0  0  0  0
   13.6314   -1.4203    0.0000 C   0  0  0  0  0  0  0  0  0  0  0  0
   14.4391   -1.5904    0.0000 C   0  0  0  0  0  0  0  0  0  0  0  0
   14.6981   -2.3750    0.0000 C   0  0  0  0  0  0  0  0  0  0  0  0
   14.1467   -2.9875    0.0000 C   0  0  0  0  0  0  0  0  0  0  0  0
   13.3391   -2.8174    0.0000 C   0  0  0  0  0  0  0  0  0  0  0  0
   13.0801   -2.0329    0.0000 C   0  0  0  0  0  0  0  0  0  0  0  0
  -16.4012    1.0443    0.0000 C   0  0  0  0  0  0  0  0  0  0  0  0
  -16.4025    1.8688    0.0000 O   0  0  0  0  0  0  0  0  0  0  0  0
   14.2598    0.6361    0.0000 N   0  0  0  0  0  0  0  0  0  0  0  0
   14.2588   -0.1884    0.0000 C   0  0  0  0  0  0  0  0  0  0  0  0
   14.9743    1.0475    0.0000 C   0  0  0  0  0  0  0  0  0  0  0  0
   15.6879    0.6344    0.0000 C   0  0  0  0  0  0  0  0  0  0  0  0
   16.4025    1.0458    0.0000 O   0  0  0  0  0  0  0  0  0  0  0  0
  -15.6897    0.6267    0.0000 N   0  0  0  0  0  0  0  0  0  0  0  0
  -13.5535    1.0442    0.0000 N   0  0  0  0  0  0  0  0  0  0  0  0
  -11.4182    0.6305    0.0000 N   0  0  0  0  0  0  0  0  0  0  0  0
   -9.2819    1.0431    0.0000 N   0  0  0  0  0  0  0  0  0  0  0  0
   -7.1311    0.6334    0.0000 N   0  0  0  0  0  0  0  0  0  0  0  0
   -5.0005    1.0555    0.0000 N   0  0  0  0  0  0  0  0  0  0  0  0
   -2.8592    0.6415    0.0000 N   0  0  0  0  0  0  0  0  0  0  0  0
   -0.7298    1.0564    0.0000 N   0  0  0  0  0  0  0  0  0  0  0  0
    1.9311   -0.9660    0.0000 N   0  0  0  0  0  0  0  0  0  0  0  0
    1.4367    0.6058    0.0000 N   0  0  0  0  0  0  0  0  0  0  0  0
    3.5664    1.0282    0.0000 N   0  0  0  0  0  0  0  0  0  0  0  0
    6.3059   -0.8944    0.0000 N   0  0  0  0  0  0  0  0  0  0  0  0
    5.7118    0.6214    0.0000 N   0  0  0  0  0  0  0  0  0  0  0  0
    7.8436    1.0417    0.0000 N   0  0  0  0  0  0  0  0  0  0  0  0
   10.5808   -0.8757    0.0000 N   0  0  0  0  0  0  0  0  0  0  0  0
    9.9813    0.6288    0.0000 N   0  0  0  0  0  0  0  0  0  0  0  0
   12.1112    1.0489    0.0000 N   0  0  0  0  0  0  0  0  0  0  0  0
   14.7709   -0.8351    0.0000 N   0  0  0  0  0  0  0  0  0  0  0  0
  -14.0188    1.5173    0.0000 H   0  0  0  0  0  0  0  0  0  0  0  0
  -14.9455    2.8757    0.0000 H   0  0  0  0  0  0  0  0  0  0  0  0
  -13.3069    1.6843    0.0000 H   0  0  0  0  0  0  0  0  0  0  0  0
  -14.2361    3.2878    0.0000 H   0  0  0  0  0  0  0  0  0  0  0  0
  -13.3086    2.7543    0.0000 H   0  0  0  0  0  0  0  0  0  0  0  0
  -15.6575    3.2894    0.0000 H   0  0  0  0  0  0  0  0  0  0  0  0
  -16.5869    1.6860    0.0000 H   0  0  0  0  0  0  0  0  0  0  0  0
  -16.5850    2.7560    0.0000 H   0  0  0  0  0  0  0  0  0  0  0  0
  -12.8282   -0.4318    0.0000 H   0  0  0  0  0  0  0  0  0  0  0  0
  -13.7577    0.0959    0.0000 H   0  0  0  0  0  0  0  0  0  0  0  0
   -9.7440    1.5141    0.0000 H   0  0  0  0  0  0  0  0  0  0  0  0
  -11.5986    2.3372    0.0000 H   0  0  0  0  0  0  0  0  0  0  0  0
  -10.6707    2.8725    0.0000 H   0  0  0  0  0  0  0  0  0  0  0  0
   -9.0273    2.7497    0.0000 H   0  0  0  0  0  0  0  0  0  0  0  0
   -9.0333    3.5777    0.0000 H   0  0  0  0  0  0  0  0  0  0  0  0
  -10.8866    3.5696    0.0000 H   0  0  0  0  0  0  0  0  0  0  0  0
   -9.9623    4.1087    0.0000 H   0  0  0  0  0  0  0  0  0  0  0  0
   -9.2470    0.7296    0.0000 H   0  0  0  0  0  0  0  0  0  0  0  0
   -8.3133    2.3305    0.0000 H   0  0  0  0  0  0  0  0  0  0  0  0
   -8.3180    1.2605    0.0000 H   0  0  0  0  0  0  0  0  0  0  0  0
   -7.6371    0.1019    0.0000 H   0  0  0  0  0  0  0  0  0  0  0  0
   -9.4858   -0.7242    0.0000 H   0  0  0  0  0  0  0  0  0  0  0  0
   -7.6325   -0.7188    0.0000 H   0  0  0  0  0  0  0  0  0  0  0  0
   -8.5576   -1.2565    0.0000 H   0  0  0  0  0  0  0  0  0  0  0  0
   -5.4579    1.5188    0.0000 H   0  0  0  0  0  0  0  0  0  0  0  0
   -6.3863    2.8748    0.0000 H   0  0  0  0  0  0  0  0  0  0  0  0
   -4.7406    1.6884    0.0000 H   0  0  0  0  0  0  0  0  0  0  0  0
   -5.6716    3.2909    0.0000 H   0  0  0  0  0  0  0  0  0  0  0  0
   -4.7435    2.7584    0.0000 H   0  0  0  0  0  0  0  0  0  0  0  0
   -7.0999    3.2879    0.0000 H   0  0  0  0  0  0  0  0  0  0  0  0
   -8.0268    1.6831    0.0000 H   0  0  0  0  0  0  0  0  0  0  0  0
   -8.0266    2.7531    0.0000 H   0  0  0  0  0  0  0  0  0  0  0  0
   -3.3601    0.1070    0.0000 H   0  0  0  0  0  0  0  0  0  0  0  0
   -4.2881   -1.2488    0.0000 H   0  0  0  0  0  0  0  0  0  0  0  0
   -3.5660   -1.6634    0.0000 H   0  0  0  0  0  0  0  0  0  0  0  0
   -2.6423   -0.0567    0.0000 H   0  0  0  0  0  0  0  0  0  0  0  0
   -2.6404   -1.1267    0.0000 H   0  0  0  0  0  0  0  0  0  0  0  0
   -5.9286   -0.0555    0.0000 H   0  0  0  0  0  0  0  0  0  0  0  0
   -5.0018   -1.6604    0.0000 H   0  0  0  0  0  0  0  0  0  0  0  0
   -5.9285   -1.1255    0.0000 H   0  0  0  0  0  0  0  0  0  0  0  0
   -1.1829    1.5212    0.0000 H   0  0  0  0  0  0  0  0  0  0  0  0
   -2.1109    2.8800    0.0000 H   0  0  0  0  0  0  0  0  0  0  0  0
   -0.4691    1.6896    0.0000 H   0  0  0  0  0  0  0  0  0  0  0  0
   -1.3977    3.2935    0.0000 H   0  0  0  0  0  0  0  0  0  0  0  0
   -0.4704    2.7596    0.0000 H   0  0  0  0  0  0  0  0  0  0  0  0
   -2.8269    3.2946    0.0000 H   0  0  0  0  0  0  0  0  0  0  0  0
   -3.7546    1.6902    0.0000 H   0  0  0  0  0  0  0  0  0  0  0  0
   -3.7539    2.7602    0.0000 H   0  0  0  0  0  0  0  0  0  0  0  0
    0.8857    0.0677    0.0000 H   0  0  0  0  0  0  0  0  0  0  0  0
   -1.0077   -0.6560    0.0000 H   0  0  0  0  0  0  0  0  0  0  0  0
   -0.1111   -1.2396    0.0000 H   0  0  0  0  0  0  0  0  0  0  0  0
    1.6732    0.6712    0.0000 H   0  0  0  0  0  0  0  0  0  0  0  0
    2.6909   -2.7248    0.0000 H   0  0  0  0  0  0  0  0  0  0  0  0
    1.3750   -4.0371    0.0000 H   0  0  0  0  0  0  0  0  0  0  0  0
   -0.4172   -3.5549    0.0000 H   0  0  0  0  0  0  0  0  0  0  0  0
   -0.9000   -1.7693    0.0000 H   0  0  0  0  0  0  0  0  0  0  0  0
    3.1102    1.4916    0.0000 H   0  0  0  0  0  0  0  0  0  0  0  0
    1.2595    2.3195    0.0000 H   0  0  0  0  0  0  0  0  0  0  0  0
    2.1877    2.8522    0.0000 H   0  0  0  0  0  0  0  0  0  0  0  0
    3.8254    2.7284    0.0000 H   0  0  0  0  0  0  0  0  0  0  0  0
    3.8222    3.5544    0.0000 H   0  0  0  0  0  0  0  0  0  0  0  0
    1.9689    3.5490    0.0000 H   0  0  0  0  0  0  0  0  0  0  0  0
    2.8940    4.0867    0.0000 H   0  0  0  0  0  0  0  0  0  0  0  0
    3.6144    0.7092    0.0000 H   0  0  0  0  0  0  0  0  0  0  0  0
    4.5412    2.3141    0.0000 H   0  0  0  0  0  0  0  0  0  0  0  0
    4.5411    1.2441    0.0000 H   0  0  0  0  0  0  0  0  0  0  0  0
    5.2121    0.0886    0.0000 H   0  0  0  0  0  0  0  0  0  0  0  0
    3.3588   -0.7410    0.0000 H   0  0  0  0  0  0  0  0  0  0  0  0
    4.2880   -1.2745    0.0000 H   0  0  0  0  0  0  0  0  0  0  0  0
    5.9746    0.7285    0.0000 H   0  0  0  0  0  0  0  0  0  0  0  0
    7.1605   -2.6044    0.0000 H   0  0  0  0  0  0  0  0  0  0  0  0
    5.9177   -3.9880    0.0000 H   0  0  0  0  0  0  0  0  0  0  0  0
    4.0985   -3.6032    0.0000 H   0  0  0  0  0  0  0  0  0  0  0  0
    3.5274   -1.8299    0.0000 H   0  0  0  0  0  0  0  0  0  0  0  0
    7.3875    1.5013    0.0000 H   0  0  0  0  0  0  0  0  0  0  0  0
    5.5324    2.3215    0.0000 H   0  0  0  0  0  0  0  0  0  0  0  0
    6.4585    2.8583    0.0000 H   0  0  0  0  0  0  0  0  0  0  0  0
    8.0991    2.7400    0.0000 H   0  0  0  0  0  0  0  0  0  0  0  0
    8.0973    3.5639    0.0000 H   0  0  0  0  0  0  0  0  0  0  0  0
    6.2440    3.5587    0.0000 H   0  0  0  0  0  0  0  0  0  0  0  0
    7.1691    4.0963    0.0000 H   0  0  0  0  0  0  0  0  0  0  0  0
    7.8942    0.7230    0.0000 H   0  0  0  0  0  0  0  0  0  0  0  0
    8.8138    2.3321    0.0000 H   0  0  0  0  0  0  0  0  0  0  0  0
    8.8185    1.2621    0.0000 H   0  0  0  0  0  0  0  0  0  0  0  0
    9.4886    0.1007    0.0000 H   0  0  0  0  0  0  0  0  0  0  0  0
    7.6327   -0.7228    0.0000 H   0  0  0  0  0  0  0  0  0  0  0  0
    8.5593   -1.2589    0.0000 H   0  0  0  0  0  0  0  0  0  0  0  0
   10.2412    0.7473    0.0000 H   0  0  0  0  0  0  0  0  0  0  0  0
   11.4335   -2.5897    0.0000 H   0  0  0  0  0  0  0  0  0  0  0  0
   10.1912   -3.9707    0.0000 H   0  0  0  0  0  0  0  0  0  0  0  0
    8.3815   -3.5906    0.0000 H   0  0  0  0  0  0  0  0  0  0  0  0
    7.8003   -1.8246    0.0000 H   0  0  0  0  0  0  0  0  0  0  0  0
   11.6562    1.5111    0.0000 H   0  0  0  0  0  0  0  0  0  0  0  0
    9.7990    2.3304    0.0000 H   0  0  0  0  0  0  0  0  0  0  0  0
   10.7226    2.8693    0.0000 H   0  0  0  0  0  0  0  0  0  0  0  0
   12.3697    2.7508    0.0000 H   0  0  0  0  0  0  0  0  0  0  0  0
   12.3750    3.5707    0.0000 H   0  0  0  0  0  0  0  0  0  0  0  0
   10.5218    3.5791    0.0000 H   0  0  0  0  0  0  0  0  0  0  0  0
   11.4508    4.1099    0.0000 H   0  0  0  0  0  0  0  0  0  0  0  0
   12.1654    0.7324    0.0000 H   0  0  0  0  0  0  0  0  0  0  0  0
   13.0892    2.3390    0.0000 H   0  0  0  0  0  0  0  0  0  0  0  0
   13.0911    1.2690    0.0000 H   0  0  0  0  0  0  0  0  0  0  0  0
   13.7532    0.1031    0.0000 H   0  0  0  0  0  0  0  0  0  0  0  0
   11.9037   -0.7217    0.0000 H   0  0  0  0  0  0  0  0  0  0  0  0
   12.8304   -1.2553    0.0000 H   0  0  0  0  0  0  0  0  0  0  0  0
   15.7081   -2.5872    0.0000 H   0  0  0  0  0  0  0  0  0  0  0  0
   14.4666   -3.9687    0.0000 H   0  0  0  0  0  0  0  0  0  0  0  0
   12.6511   -3.5866    0.0000 H   0  0  0  0  0  0  0  0  0  0  0  0
   12.0701   -1.8208    0.0000 H   0  0  0  0  0  0  0  0  0  0  0  0
  -17.2964    0.5308    0.0000 H   0  0  0  0  0  0  0  0  0  0  0  0
   14.2587   -0.3484    0.0000 H   0  0  0  0  0  0  0  0  0  0  0  0
   14.4537    0.8250    0.0000 H   0  0  0  0  0  0  0  0  0  0  0  0
   14.9755    2.1175    0.0000 H   0  0  0  0  0  0  0  0  0  0  0  0
   15.9016    1.5814    0.0000 H   0  0  0  0  0  0  0  0  0  0  0  0
   15.6866   -0.4356    0.0000 H   0  0  0  0  0  0  0  0  0  0  0  0
   16.6139    0.0983    0.0000 H   0  0  0  0  0  0  0  0  0  0  0  0
   17.2419    0.5598    0.0000 H   0  0  0  0  0  0  0  0  0  0  0  0
  -15.7320   -0.3569    0.0000 H   0  0  0  0  0  0  0  0  0  0  0  0
  -13.6031    2.0275    0.0000 H   0  0  0  0  0  0  0  0  0  0  0  0
  -11.4676   -0.3528    0.0000 H   0  0  0  0  0  0  0  0  0  0  0  0
   -9.3325    2.0263    0.0000 H   0  0  0  0  0  0  0  0  0  0  0  0
   -7.1767   -0.3500    0.0000 H   0  0  0  0  0  0  0  0  0  0  0  0
   -5.0507    2.0387    0.0000 H   0  0  0  0  0  0  0  0  0  0  0  0
   -2.9053   -0.3419    0.0000 H   0  0  0  0  0  0  0  0  0  0  0  0
   -0.7854    2.0393    0.0000 H   0  0  0  0  0  0  0  0  0  0  0  0
    2.9142   -0.9129    0.0000 H   0  0  0  0  0  0  0  0  0  0  0  0
    1.3923   -0.3777    0.0000 H   0  0  0  0  0  0  0  0  0  0  0  0
    3.5100    2.0111    0.0000 H   0  0  0  0  0  0  0  0  0  0  0  0
    7.2853   -0.7940    0.0000 H   0  0  0  0  0  0  0  0  0  0  0  0
    5.6633   -0.3619    0.0000 H   0  0  0  0  0  0  0  0  0  0  0  0
    7.7847    2.0244    0.0000 H   0  0  0  0  0  0  0  0  0  0  0  0
   11.5598   -0.7722    0.0000 H   0  0  0  0  0  0  0  0  0  0  0  0
    9.9326   -0.3545    0.0000 H   0  0  0  0  0  0  0  0  0  0  0  0
   12.0561    2.0319    0.0000 H   0  0  0  0  0  0  0  0  0  0  0  0
   15.7474   -0.7095    0.0000 H   0  0  0  0  0  0  0  0  0  0  0  0
  1  3  1  0  0  0  0
  1  4  1  0  0  0  0
  1132  1  6  0  0  0
  3  2  2  0  0  0  0
  3115  1  0  0  0  0
  4  5  1  0  0  0  0
  4  6  1  0  0  0  0
  4133  1  0  0  0  0
  5134  1  0  0  0  0
  5135  1  0  0  0  0
  5136  1  0  0  0  0
  6137  1  0  0  0  0
  6138  1  0  0  0  0
  6139  1  0  0  0  0
  7  9  1  0  0  0  0
  7140  1  0  0  0  0
  7141  1  0  0  0  0
  9  8  2  0  0  0  0
  9116  1  0  0  0  0
 10 13  1  0  0  0  0
 10 12  1  0  0  0  0
 10142  1  1  0  0  0
 12 11  2  0  0  0  0
 12117  1  0  0  0  0
 13 14  1  0  0  0  0
 13143  1  0  0  0  0
 13144  1  0  0  0  0
 14 15  1  0  0  0  0
 14 16  1  0  0  0  0
 14145  1  0  0  0  0
 15146  1  0  0  0  0
 15147  1  0  0  0  0
 15148  1  0  0  0  0
 16149  1  0  0  0  0
 16150  1  0  0  0  0
 16151  1  0  0  0  0
 17 20  1  0  0  0  0
 17 19  1  0  0  0  0
 17152  1  1  0  0  0
 19153  1  0  0  0  0
 19154  1  0  0  0  0
 19155  1  0  0  0  0
 20 18  2  0  0  0  0
 20118  1  0  0  0  0
 21 23  1  0  0  0  0
 21 24  1  0  0  0  0
 21156  1  1  0  0  0
 23 22  2  0  0  0  0
 23119  1  0  0  0  0
 24 25  1  0  0  0  0
 24 26  1  0  0  0  0
 24157  1  0  0  0  0
 25158  1  0  0  0  0
 25159  1  0  0  0  0
 25160  1  0  0  0  0
 26161  1  0  0  0  0
 26162  1  0  0  0  0
 26163  1  0  0  0  0
 27 29  1  0  0  0  0
 27 30  1  0  0  0  0
 27164  1  1  0  0  0
 29 28  2  0  0  0  0
 29120  1  0  0  0  0
 30 31  1  0  0  0  0
 30 32  1  0  0  0  0
 30165  1  0  0  0  0
 31166  1  0  0  0  0
 31167  1  0  0  0  0
 31168  1  0  0  0  0
 32169  1  0  0  0  0
 32170  1  0  0  0  0
 32171  1  0  0  0  0
 33 35  1  0  0  0  0
 33 36  1  0  0  0  0
 33172  1  1  0  0  0
 35 34  2  0  0  0  0
 35121  1  0  0  0  0
 36 37  1  0  0  0  0
 36 38  1  0  0  0  0
 36173  1  0  0  0  0
 37174  1  0  0  0  0
 37175  1  0  0  0  0
 37176  1  0  0  0  0
 38177  1  0  0  0  0
 38178  1  0  0  0  0
 38179  1  0  0  0  0
 39 41  1  0  0  0  0
 39 42  1  0  0  0  0
 39180  1  1  0  0  0
 41 40  2  0  0  0  0
 41123  1  0  0  0  0
 42 44  1  0  0  0  0
 42181  1  0  0  0  0
 42182  1  0  0  0  0
 43 44  2  0  0  0  0
 43183  1  0  0  0  0
 44 45  1  0  0  0  0
 45 46  2  0  0  0  0
 46 47  1  0  0  0  0
 46122  1  0  0  0  0
 47 48  2  0  0  0  0
 47184  1  0  0  0  0
 48 49  1  0  0  0  0
 48185  1  0  0  0  0
 49 50  2  0  0  0  0
 49186  1  0  0  0  0
 50 45  1  0  0  0  0
 50187  1  0  0  0  0
 51 53  1  0  0  0  0
 51 54  1  0  0  0  0
 51188  1  1  0  0  0
 53 52  2  0  0  0  0
 53124  1  0  0  0  0
 54 55  1  0  0  0  0
 54189  1  0  0  0  0
 54190  1  0  0  0  0
 55 56  1  0  0  0  0
 55 57  1  0  0  0  0
 55191  1  0  0  0  0
 56192  1  0  0  0  0
 56193  1  0  0  0  0
 56194  1  0  0  0  0
 57195  1  0  0  0  0
 57196  1  0  0  0  0
 57197  1  0  0  0  0
 58 60  1  0  0  0  0
 58 61  1  0  0  0  0
 58198  1  1  0  0  0
 60 59  2  0  0  0  0
 60126  1  0  0  0  0
 61 63  1  0  0  0  0
 61199  1  0  0  0  0
 61200  1  0  0  0  0
 62 63  2  0  0  0  0
 62201  1  0  0  0  0
 63 64  1  0  0  0  0
 64 65  2  0  0  0  0
 65 66  1  0  0  0  0
 65125  1  0  0  0  0
 66 67  2  0  0  0  0
 66202  1  0  0  0  0
 67 68  1  0  0  0  0
 67203  1  0  0  0  0
 68 69  2  0  0  0  0
 68204  1  0  0  0  0
 69 64  1  0  0  0  0
 69205  1  0  0  0  0
 70 72  1  0  0  0  0
 70 73  1  0  0  0  0
 70206  1  1  0  0  0
 72 71  2  0  0  0  0
 72127  1  0  0  0  0
 73 74  1  0  0  0  0
 73207  1  0  0  0  0
 73208  1  0  0  0  0
 74 75  1  0  0  0  0
 74 76  1  0  0  0  0
 74209  1  0  0  0  0
 75210  1  0  0  0  0
 75211  1  0  0  0  0
 75212  1  0  0  0  0
 76213  1  0  0  0  0
 76214  1  0  0  0  0
 76215  1  0  0  0  0
 77 79  1  0  0  0  0
 77 80  1  0  0  0  0
 77216  1  1  0  0  0
 79 78  2  0  0  0  0
 79129  1  0  0  0  0
 80 82  1  0  0  0  0
 80217  1  0  0  0  0
 80218  1  0  0  0  0
 81 82  2  0  0  0  0
 81219  1  0  0  0  0
 82 83  1  0  0  0  0
 83 84  2  0  0  0  0
 84 85  1  0  0  0  0
 84128  1  0  0  0  0
 85 86  2  0  0  0  0
 85220  1  0  0  0  0
 86 87  1  0  0  0  0
 86221  1  0  0  0  0
 87 88  2  0  0  0  0
 87222  1  0  0  0  0
 88 83  1  0  0  0  0
 88223  1  0  0  0  0
 89 91  1  0  0  0  0
 89 92  1  0  0  0  0
 89224  1  1  0  0  0
 91 90  2  0  0  0  0
 91130  1  0  0  0  0
 92 93  1  0  0  0  0
 92225  1  0  0  0  0
 92226  1  0  0  0  0
 93 94  1  0  0  0  0
 93 95  1  0  0  0  0
 93227  1  0  0  0  0
 94228  1  0  0  0  0
 94229  1  0  0  0  0
 94230  1  0  0  0  0
 95231  1  0  0  0  0
 95232  1  0  0  0  0
 95233  1  0  0  0  0
 96 98  1  0  0  0  0
 96 99  1  0  0  0  0
 96234  1  1  0  0  0
 98 97  2  0  0  0  0
 98109  1  0  0  0  0
 99100  1  0  0  0  0
 99235  1  0  0  0  0
 99236  1  0  0  0  0
100101  1  0  0  0  0
101102  2  0  0  0  0
102103  1  0  0  0  0
102131  1  0  0  0  0
103104  2  0  0  0  0
103237  1  0  0  0  0
104105  1  0  0  0  0
104238  1  0  0  0  0
105106  2  0  0  0  0
105239  1  0  0  0  0
106101  1  0  0  0  0
106240  1  0  0  0  0
107108  2  0  0  0  0
107241  1  0  0  0  0
109111  1  0  0  0  0
109242  1  0  0  0  0
110100  2  0  0  0  0
110243  1  0  0  0  0
111112  1  0  0  0  0
111244  1  0  0  0  0
111245  1  0  0  0  0
112113  1  0  0  0  0
112246  1  0  0  0  0
112247  1  0  0  0  0
113248  1  0  0  0  0
114107  1  0  0  0  0
114  1  1  0  0  0  0
114249  1  0  0  0  0
115  7  1  0  0  0  0
115250  1  0  0  0  0
116 10  1  0  0  0  0
116251  1  0  0  0  0
117 17  1  0  0  0  0
117252  1  0  0  0  0
118 21  1  0  0  0  0
118253  1  0  0  0  0
119 27  1  0  0  0  0
119254  1  0  0  0  0
120 33  1  0  0  0  0
120255  1  0  0  0  0
121 39  1  0  0  0  0
121256  1  0  0  0  0
122 43  1  0  0  0  0
122257  1  0  0  0  0
123 51  1  0  0  0  0
123258  1  0  0  0  0
124 58  1  0  0  0  0
124259  1  0  0  0  0
125 62  1  0  0  0  0
125260  1  0  0  0  0
126 70  1  0  0  0  0
126261  1  0  0  0  0
127 77  1  0  0  0  0
127262  1  0  0  0  0
128 81  1  0  0  0  0
128263  1  0  0  0  0
129 89  1  0  0  0  0
129264  1  0  0  0  0
130 96  1  0  0  0  0
130265  1  0  0  0  0
131110  1  0  0  0  0
131266  1  0  0  0  0
M  END
>  <DRUGBANK_ID>
DB00027

>  <SECONDARY_ACCESSION_NUMBERS>
BTD00036; BIOD00036

>  <COMMON_NAME>
Gramicidin D

>  <CAS_NUMBER>
1405-97-6

>  <UNII>
5IE62321P4

>  <SYNONYMS>
Bacillus brevis gramicidin D; Gramicidin; Gramicidin A; Gramicidin B; Gramicidin C; Gramicidina; Gramicidine

$$$$
