
 OpenBabel10282417072D

 55 57  0  0  1  0  0  0  0  0999 V2000
   -4.8263   -0.9941    0.0000 C   0  0  0  0  0  0  0  0  0  0  0  0
   -4.0162   -0.8382    0.0000 C   0  0  0  0  0  0  0  0  0  0  0  0
   -3.4761   -1.4619    0.0000 N   0  0  0  0  0  0  0  0  0  0  0  0
   -3.7461   -2.2414    0.0000 C   0  0  0  0  0  0  0  0  0  0  0  0
   -4.5563   -2.3973    0.0000 C   0  0  0  0  0  0  0  0  0  0  0  0
   -2.6660   -1.3060    0.0000 C   0  0  0  0  0  0  0  0  0  0  0  0
   -2.1259   -1.9296    0.0000 C   0  0  0  0  0  0  0  0  0  0  0  0
   -1.3157   -1.7737    0.0000 C   0  0  0  0  0  0  0  0  0  0  0  0
   -0.7756   -2.3973    0.0000 O   0  0  0  0  0  0  0  0  0  0  0  0
    0.0345   -2.2414    0.0000 C   0  0  0  0  0  0  0  0  0  0  0  0
    0.3045   -1.4619    0.0000 O   0  0  0  0  0  0  0  0  0  0  0  0
    0.5746   -2.8651    0.0000 C   0  0  3  0  0  0  0  0  0  0  0  0
    0.8688   -3.6358    0.0000 C   0  0  0  0  0  0  0  0  0  0  0  0
    1.6834   -3.7664    0.0000 C   0  0  2  0  0  0  0  0  0  0  0  0
    2.2038   -3.1262    0.0000 C   0  0  0  0  0  0  0  0  0  0  0  0
    1.9096   -2.3555    0.0000 C   0  0  0  0  0  0  0  0  0  0  0  0
    1.0950   -2.2249    0.0000 C   0  0  1  0  0  0  0  0  0  0  0  0
    1.1965   -3.0692    0.0000 C   0  0  0  0  0  0  0  0  0  0  0  0
   -0.1334   -3.2887    0.0000 C   0  0  0  0  0  0  0  0  0  0  0  0
   -0.1205   -4.1136    0.0000 C   0  0  0  0  0  0  0  0  0  0  0  0
   -0.8285   -4.5371    0.0000 C   0  0  0  0  0  0  0  0  0  0  0  0
   -1.5493   -4.1358    0.0000 C   0  0  0  0  0  0  0  0  0  0  0  0
   -1.5621   -3.3109    0.0000 C   0  0  0  0  0  0  0  0  0  0  0  0
   -0.8542   -2.8873    0.0000 C   0  0  0  0  0  0  0  0  0  0  0  0
   -5.5268   -0.1853    0.0000 H   0  0  0  0  0  0  0  0  0  0  0  0
   -5.1765   -2.0052    0.0000 H   0  0  0  0  0  0  0  0  0  0  0  0
   -5.8770   -1.1963    0.0000 H   0  0  0  0  0  0  0  0  0  0  0  0
   -3.6659    0.1728    0.0000 H   0  0  0  0  0  0  0  0  0  0  0  0
   -2.9655   -0.6360    0.0000 H   0  0  0  0  0  0  0  0  0  0  0  0
   -3.0456   -3.0502    0.0000 H   0  0  0  0  0  0  0  0  0  0  0  0
   -4.0964   -3.2525    0.0000 H   0  0  0  0  0  0  0  0  0  0  0  0
   -5.2568   -1.5884    0.0000 H   0  0  0  0  0  0  0  0  0  0  0  0
   -4.9066   -3.4083    0.0000 H   0  0  0  0  0  0  0  0  0  0  0  0
   -5.6070   -2.5995    0.0000 H   0  0  0  0  0  0  0  0  0  0  0  0
   -2.3158   -0.2949    0.0000 H   0  0  0  0  0  0  0  0  0  0  0  0
   -1.6153   -1.1038    0.0000 H   0  0  0  0  0  0  0  0  0  0  0  0
   -2.4761   -2.9407    0.0000 H   0  0  0  0  0  0  0  0  0  0  0  0
   -1.4254   -2.7385    0.0000 H   0  0  0  0  0  0  0  0  0  0  0  0
   -0.9655   -0.7626    0.0000 H   0  0  0  0  0  0  0  0  0  0  0  0
   -0.2650   -1.5715    0.0000 H   0  0  0  0  0  0  0  0  0  0  0  0
    0.1939   -4.4661    0.0000 H   0  0  0  0  0  0  0  0  0  0  0  0
    1.2504   -4.6355    0.0000 H   0  0  0  0  0  0  0  0  0  0  0  0
    0.7769   -3.1980    0.0000 H   0  0  0  0  0  0  0  0  0  0  0  0
    3.2603   -3.2956    0.0000 H   0  0  0  0  0  0  0  0  0  0  0  0
    2.8787   -2.2959    0.0000 H   0  0  0  0  0  0  0  0  0  0  0  0
    2.5845   -1.5252    0.0000 H   0  0  0  0  0  0  0  0  0  0  0  0
    1.5280   -1.3558    0.0000 H   0  0  0  0  0  0  0  0  0  0  0  0
    1.8366   -2.9962    0.0000 H   0  0  0  0  0  0  0  0  0  0  0  0
    0.1968   -3.4508    0.0000 H   0  0  0  0  0  0  0  0  0  0  0  0
    0.8821   -4.0920    0.0000 H   0  0  0  0  0  0  0  0  0  0  0  0
    0.7812   -4.6156    0.0000 H   0  0  0  0  0  0  0  0  0  0  0  0
   -0.8125   -5.5690    0.0000 H   0  0  0  0  0  0  0  0  0  0  0  0
   -2.4349   -4.6656    0.0000 H   0  0  0  0  0  0  0  0  0  0  0  0
   -2.4638   -2.8089    0.0000 H   0  0  0  0  0  0  0  0  0  0  0  0
   -0.8703   -1.8554    0.0000 H   0  0  0  0  0  0  0  0  0  0  0  0
  1  2  1  0  0  0  0
  1 25  1  0  0  0  0
  1 26  1  0  0  0  0
  1 27  1  0  0  0  0
  2  3  1  0  0  0  0
  2 28  1  0  0  0  0
  2 29  1  0  0  0  0
  3  4  1  0  0  0  0
  3  6  1  0  0  0  0
  4  5  1  0  0  0  0
  4 30  1  0  0  0  0
  4 31  1  0  0  0  0
  5 32  1  0  0  0  0
  5 33  1  0  0  0  0
  5 34  1  0  0  0  0
  6  7  1  0  0  0  0
  6 35  1  0  0  0  0
  6 36  1  0  0  0  0
  7  8  1  0  0  0  0
  7 37  1  0  0  0  0
  7 38  1  0  0  0  0
  8  9  1  0  0  0  0
  8 39  1  0  0  0  0
  8 40  1  0  0  0  0
  9 10  1  0  0  0  0
 10 11  2  0  0  0  0
 10 12  1  0  0  0  0
 12 13  1  0  0  0  0
 12 17  1  0  0  0  0
 12 19  1  0  0  0  0
 13 14  1  0  0  0  0
 13 41  1  0  0  0  0
 13 42  1  0  0  0  0
 14 15  1  0  0  0  0
 14 18  1  0  0  0  0
 14 43  1  6  0  0  0
 15 16  1  0  0  0  0
 15 44  1  0  0  0  0
 15 45  1  0  0  0  0
 16 17  1  0  0  0  0
 16 46  1  0  0  0  0
 16 47  1  0  0  0  0
 17 18  1  0  0  0  0
 17 48  1  6  0  0  0
 18 49  1  0  0  0  0
 18 50  1  0  0  0  0
 19 20  2  0  0  0  0
 19 24  1  0  0  0  0
 20 21  1  0  0  0  0
 20 51  1  0  0  0  0
 21 22  2  0  0  0  0
 21 52  1  0  0  0  0
 22 23  1  0  0  0  0
 22 53  1  0  0  0  0
 23 24  2  0  0  0  0
 23 54  1  0  0  0  0
 24 55  1  0  0  0  0
M  END
>  <DRUGBANK_ID>
DB13619

>  <COMMON_NAME>
Bornaprine

>  <CAS_NUMBER>
20448-86-6

>  <UNII>
9M363FGA7J

>  <SYNONYMS>
Bornaprine

$$$$
