APQ
 OpenBabel10282417072D

 34 35  0  0  0  0  0  0  0  0999 V2000
   -1.8569    0.1229    0.0000 C   0  0  0  0  0  0  0  0  0  0  0  0
   -2.5713   -0.2896    0.0000 C   0  0  0  0  0  0  0  0  0  0  0  0
   -3.2858    0.1229    0.0000 C   0  0  0  0  0  0  0  0  0  0  0  0
   -1.1424   -0.2896    0.0000 S   0  0  0  0  0  0  0  0  0  0  0  0
   -0.4279    0.1229    0.0000 C   0  0  0  0  0  0  0  0  0  0  0  0
    0.2866   -0.2896    0.0000 C   0  0  0  0  0  0  0  0  0  0  0  0
    1.0010    0.1229    0.0000 C   0  0  0  0  0  0  0  0  0  0  0  0
    1.0010    0.9479    0.0000 N   0  0  0  0  0  0  0  0  0  0  0  0
    1.7155    1.3604    0.0000 C   0  0  0  0  0  0  0  0  0  0  0  0
    2.4300    0.9479    0.0000 N   0  0  0  0  0  0  0  0  0  0  0  0
    2.4300    0.1229    0.0000 C   0  0  0  0  0  0  0  0  0  0  0  0
    3.1444   -0.2896    0.0000 O   0  0  0  0  0  0  0  0  0  0  0  0
    1.7155   -0.2896    0.0000 C   0  0  0  0  0  0  0  0  0  0  0  0
    1.7155   -1.1146    0.0000 C   0  0  0  0  0  0  0  0  0  0  0  0
    1.0010   -1.5271    0.0000 C   0  0  0  0  0  0  0  0  0  0  0  0
    1.0010   -2.3521    0.0000 N   0  0  0  0  0  0  0  0  0  0  0  0
    0.2866   -1.1146    0.0000 C   0  0  0  0  0  0  0  0  0  0  0  0
    1.7155    2.1854    0.0000 N   0  0  0  0  0  0  0  0  0  0  0  0
   -1.8569    1.1929    0.0000 H   0  0  0  0  0  0  0  0  0  0  0  0
   -0.9303    0.6579    0.0000 H   0  0  0  0  0  0  0  0  0  0  0  0
   -2.5713   -1.3596    0.0000 H   0  0  0  0  0  0  0  0  0  0  0  0
   -3.4979   -0.8246    0.0000 H   0  0  0  0  0  0  0  0  0  0  0  0
   -3.2858    1.1929    0.0000 H   0  0  0  0  0  0  0  0  0  0  0  0
   -4.2124   -0.4121    0.0000 H   0  0  0  0  0  0  0  0  0  0  0  0
   -4.2125    0.6579    0.0000 H   0  0  0  0  0  0  0  0  0  0  0  0
   -0.4279    1.1929    0.0000 H   0  0  0  0  0  0  0  0  0  0  0  0
    0.4987    0.6579    0.0000 H   0  0  0  0  0  0  0  0  0  0  0  0
    3.2826    1.4402    0.0000 H   0  0  0  0  0  0  0  0  0  0  0  0
    2.6092   -1.6306    0.0000 H   0  0  0  0  0  0  0  0  0  0  0  0
    0.1484   -2.8444    0.0000 H   0  0  0  0  0  0  0  0  0  0  0  0
    1.8536   -2.8443    0.0000 H   0  0  0  0  0  0  0  0  0  0  0  0
   -0.6071   -1.6306    0.0000 H   0  0  0  0  0  0  0  0  0  0  0  0
    2.5681    2.6777    0.0000 H   0  0  0  0  0  0  0  0  0  0  0  0
    0.8629    2.6776    0.0000 H   0  0  0  0  0  0  0  0  0  0  0  0
  1  2  1  0  0  0  0
  1  4  1  0  0  0  0
  1 19  1  0  0  0  0
  1 20  1  0  0  0  0
  2  3  1  0  0  0  0
  2 21  1  0  0  0  0
  2 22  1  0  0  0  0
  3 23  1  0  0  0  0
  3 24  1  0  0  0  0
  3 25  1  0  0  0  0
  4  5  1  0  0  0  0
  5  6  1  0  0  0  0
  5 26  1  0  0  0  0
  5 27  1  0  0  0  0
  6  7  1  0  0  0  0
  6 17  2  0  0  0  0
  7  8  1  0  0  0  0
  7 13  2  0  0  0  0
  8  9  2  0  0  0  0
  9 10  1  0  0  0  0
  9 18  1  0  0  0  0
 10 11  1  0  0  0  0
 10 28  1  0  0  0  0
 11 12  2  0  0  0  0
 11 13  1  0  0  0  0
 13 14  1  0  0  0  0
 14 15  2  0  0  0  0
 14 29  1  0  0  0  0
 15 16  1  0  0  0  0
 15 17  1  0  0  0  0
 16 30  1  0  0  0  0
 16 31  1  0  0  0  0
 17 32  1  0  0  0  0
 18 33  1  0  0  0  0
 18 34  1  0  0  0  0
M  END
>  <DRUGBANK_ID>
DB02599

>  <SECONDARY_ACCESSION_NUMBERS>
EXPT00543

>  <COMMON_NAME>
2,6-Diamino-8-Propylsulfanylmethyl-3h-Quinazoline-4-One

$$$$
