
 OpenBabel10282417072D

 46 47  0  0  0  0  0  0  0  0999 V2000
    4.0173   -8.6369    0.0000 C   0  0  0  0  0  0  0  0  0  0  0  0
    4.7202   -9.0438    0.0000 N   0  0  0  0  0  0  0  0  0  0  0  0
    3.2956   -9.0438    0.0000 C   0  0  0  0  0  0  0  0  0  0  0  0
    2.5926   -8.6554    0.0000 C   0  0  0  0  0  0  0  0  0  0  0  0
    2.5926   -7.8228    0.0000 C   0  0  0  0  0  0  0  0  0  0  0  0
    3.3142   -7.4158    0.0000 C   0  0  0  0  0  0  0  0  0  0  0  0
    4.0173   -7.8228    0.0000 C   0  0  0  0  0  0  0  0  0  0  0  0
    3.2956   -9.8763    0.0000 C   0  0  0  0  0  0  0  0  0  0  0  0
    5.4234   -8.6369    0.0000 C   0  0  0  0  0  0  0  0  0  0  0  0
    5.4234   -7.8228    0.0000 O   0  0  0  0  0  0  0  0  0  0  0  0
    4.7202   -7.3972    0.0000 C   0  0  0  0  0  0  0  0  0  0  0  0
    6.1264   -9.0438    0.0000 C   0  0  1  0  0  0  0  0  0  0  0  0
    6.8479   -8.6554    0.0000 N   0  0  0  0  0  0  0  0  0  0  0  0
    7.5510   -9.0438    0.0000 C   0  0  0  0  0  0  0  0  0  0  0  0
    7.5510   -9.8763    0.0000 C   0  0  0  0  0  0  0  0  0  0  0  0
    6.8479  -10.2835    0.0000 C   0  0  0  0  0  0  0  0  0  0  0  0
    6.1264   -9.8763    0.0000 C   0  0  0  0  0  0  0  0  0  0  0  0
    6.8479   -7.8228    0.0000 C   0  0  0  0  0  0  0  0  0  0  0  0
    6.1449   -7.4158    0.0000 C   0  0  0  0  0  0  0  0  0  0  0  0
    6.1449   -6.5832    0.0000 C   0  0  0  0  0  0  0  0  0  0  0  0
    4.7201  -10.0283    0.0000 H   0  0  0  0  0  0  0  0  0  0  0  0
    1.7038   -9.1798    0.0000 H   0  0  0  0  0  0  0  0  0  0  0  0
    1.7015   -7.3023    0.0000 H   0  0  0  0  0  0  0  0  0  0  0  0
    3.3200   -6.3838    0.0000 H   0  0  0  0  0  0  0  0  0  0  0  0
    2.3690  -10.4113    0.0000 H   0  0  0  0  0  0  0  0  0  0  0  0
    4.2222  -10.4113    0.0000 H   0  0  0  0  0  0  0  0  0  0  0  0
    3.2956  -10.9463    0.0000 H   0  0  0  0  0  0  0  0  0  0  0  0
    5.6578   -7.9128    0.0000 H   0  0  0  0  0  0  0  0  0  0  0  0
    4.6979   -6.3274    0.0000 H   0  0  0  0  0  0  0  0  0  0  0  0
    5.6355   -6.8430    0.0000 H   0  0  0  0  0  0  0  0  0  0  0  0
    6.1429   -7.9739    0.0000 H   0  0  0  0  0  0  0  0  0  0  0  0
    8.4725   -8.5001    0.0000 H   0  0  0  0  0  0  0  0  0  0  0  0
    8.4802   -9.5744    0.0000 H   0  0  0  0  0  0  0  0  0  0  0  0
    8.4780  -10.4107    0.0000 H   0  0  0  0  0  0  0  0  0  0  0  0
    7.5521  -10.9463    0.0000 H   0  0  0  0  0  0  0  0  0  0  0  0
    6.8539  -11.3535    0.0000 H   0  0  0  0  0  0  0  0  0  0  0  0
    5.9254  -10.8256    0.0000 H   0  0  0  0  0  0  0  0  0  0  0  0
    5.2024  -10.4158    0.0000 H   0  0  0  0  0  0  0  0  0  0  0  0
    6.1343  -10.9463    0.0000 H   0  0  0  0  0  0  0  0  0  0  0  0
    7.7749   -7.2884    0.0000 H   0  0  0  0  0  0  0  0  0  0  0  0
    6.8489   -6.7528    0.0000 H   0  0  0  0  0  0  0  0  0  0  0  0
    5.2179   -7.9502    0.0000 H   0  0  0  0  0  0  0  0  0  0  0  0
    5.2184   -6.8805    0.0000 H   0  0  0  0  0  0  0  0  0  0  0  0
    7.0715   -6.0482    0.0000 H   0  0  0  0  0  0  0  0  0  0  0  0
    5.2183   -6.0482    0.0000 H   0  0  0  0  0  0  0  0  0  0  0  0
    6.1449   -5.5132    0.0000 H   0  0  0  0  0  0  0  0  0  0  0  0
  2  1  1  0  0  0  0
  2 21  1  0  0  0  0
  3  1  2  0  0  0  0
  4  3  1  0  0  0  0
  4 22  1  0  0  0  0
  5  4  2  0  0  0  0
  5 23  1  0  0  0  0
  6  5  1  0  0  0  0
  6 24  1  0  0  0  0
  7  1  1  0  0  0  0
  7  6  2  0  0  0  0
  8  3  1  0  0  0  0
  8 25  1  0  0  0  0
  8 26  1  0  0  0  0
  8 27  1  0  0  0  0
  9  2  1  0  0  0  0
 10  9  2  0  0  0  0
 11  7  1  0  0  0  0
 11 28  1  0  0  0  0
 11 29  1  0  0  0  0
 11 30  1  0  0  0  0
 12  9  1  0  0  0  0
 12 31  1  6  0  0  0
 13 12  1  0  0  0  0
 14 13  1  0  0  0  0
 14 32  1  0  0  0  0
 14 33  1  0  0  0  0
 15 14  1  0  0  0  0
 15 34  1  0  0  0  0
 15 35  1  0  0  0  0
 16 15  1  0  0  0  0
 16 36  1  0  0  0  0
 16 37  1  0  0  0  0
 17 12  1  0  0  0  0
 17 16  1  0  0  0  0
 17 38  1  0  0  0  0
 17 39  1  0  0  0  0
 18 13  1  0  0  0  0
 18 40  1  0  0  0  0
 18 41  1  0  0  0  0
 19 18  1  0  0  0  0
 19 42  1  0  0  0  0
 19 43  1  0  0  0  0
 20 19  1  0  0  0  0
 20 44  1  0  0  0  0
 20 45  1  0  0  0  0
 20 46  1  0  0  0  0
M  END
>  <DRUGBANK_ID>
DB00296

>  <SECONDARY_ACCESSION_NUMBERS>
APRD00492

>  <COMMON_NAME>
Ropivacaine

>  <CAS_NUMBER>
84057-95-4

>  <UNII>
7IO5LYA57N

>  <SYNONYMS>
(S)-(âˆ’)-1-propyl-2',6'-pipecoloxylidide; (S)-ropivacaine; L-N-n-propylpipecolic acid-2,6-xylidide; Ropivacaina; Ropivacaine; Ropivacainum

$$$$
