
 OpenBabel10282417072D

 77 81  0  0  0  0  0  0  0  0999 V2000
    1.0725    0.9880    0.0000 O   0  0  0  0  0  0  0  0  0  0  0  0
    1.7860    0.5756    0.0000 C   0  0  1  0  0  0  0  0  0  0  0  0
    1.7860   -0.2494    0.0000 C   0  0  0  0  0  0  0  0  0  0  0  0
    1.0725   -0.6618    0.0000 C   0  0  0  0  0  0  0  0  0  0  0  0
    0.3575   -0.2494    0.0000 C   0  0  0  0  0  0  0  0  0  0  0  0
    0.3575    0.5756    0.0000 C   0  0  0  0  0  0  0  0  0  0  0  0
   -0.3575    0.9880    0.0000 C   0  0  0  0  0  0  0  0  0  0  0  0
   -1.0710    0.5756    0.0000 C   0  0  0  0  0  0  0  0  0  0  0  0
   -1.0710   -0.2494    0.0000 C   0  0  0  0  0  0  0  0  0  0  0  0
   -0.3575   -0.6618    0.0000 C   0  0  0  0  0  0  0  0  0  0  0  0
   -0.3575   -1.4868    0.0000 O   0  0  0  0  0  0  0  0  0  0  0  0
    1.0725   -1.4868    0.0000 O   0  0  0  0  0  0  0  0  0  0  0  0
   -1.7859    0.9880    0.0000 O   0  0  0  0  0  0  0  0  0  0  0  0
   -2.5009    0.5756    0.0000 C   0  0  2  0  0  0  0  0  0  0  0  0
   -2.5009   -0.2494    0.0000 O   0  0  0  0  0  0  0  0  0  0  0  0
   -3.2145   -0.6618    0.0000 C   0  0  2  0  0  0  0  0  0  0  0  0
   -3.2145   -1.4868    0.0000 C   0  0  0  0  0  0  0  0  0  0  0  0
   -3.9294   -1.8992    0.0000 O   0  0  0  0  0  0  0  0  0  0  0  0
   -3.9294   -2.7242    0.0000 C   0  0  1  0  0  0  0  0  0  0  0  0
   -4.6430   -3.1366    0.0000 C   0  0  2  0  0  0  0  0  0  0  0  0
   -5.3580   -2.7242    0.0000 O   0  0  0  0  0  0  0  0  0  0  0  0
   -3.2145    0.9880    0.0000 C   0  0  1  0  0  0  0  0  0  0  0  0
   -3.9294    0.5756    0.0000 C   0  0  2  0  0  0  0  0  0  0  0  0
   -3.9294   -0.2494    0.0000 C   0  0  2  0  0  0  0  0  0  0  0  0
   -4.6430   -0.6618    0.0000 O   0  0  0  0  0  0  0  0  0  0  0  0
   -3.2145   -3.1366    0.0000 O   0  0  0  0  0  0  0  0  0  0  0  0
   -3.2145   -3.9616    0.0000 C   0  0  1  0  0  0  0  0  0  0  0  0
   -2.5009   -4.3740    0.0000 C   0  0  0  0  0  0  0  0  0  0  0  0
   -4.6430   -3.9616    0.0000 C   0  0  1  0  0  0  0  0  0  0  0  0
   -3.9294   -4.3740    0.0000 C   0  0  1  0  0  0  0  0  0  0  0  0
   -3.9294   -5.1990    0.0000 O   0  0  0  0  0  0  0  0  0  0  0  0
   -4.6430    0.9880    0.0000 O   0  0  0  0  0  0  0  0  0  0  0  0
    5.3580    1.8130    0.0000 C   0  0  0  0  0  0  0  0  0  0  0  0
    4.6445    2.2254    0.0000 O   0  0  0  0  0  0  0  0  0  0  0  0
    3.9295    1.8130    0.0000 C   0  0  0  0  0  0  0  0  0  0  0  0
    3.9295    0.9880    0.0000 C   0  0  0  0  0  0  0  0  0  0  0  0
    3.2146    0.5756    0.0000 C   0  0  0  0  0  0  0  0  0  0  0  0
    2.5010    0.9880    0.0000 C   0  0  0  0  0  0  0  0  0  0  0  0
    2.5010    1.8130    0.0000 C   0  0  0  0  0  0  0  0  0  0  0  0
    3.2146    2.2254    0.0000 C   0  0  0  0  0  0  0  0  0  0  0  0
    3.2146    3.0504    0.0000 O   0  0  0  0  0  0  0  0  0  0  0  0
   -5.3576   -4.3740    0.0000 O   0  0  0  0  0  0  0  0  0  0  0  0
   -3.2142    1.8130    0.0000 O   0  0  0  0  0  0  0  0  0  0  0  0
    1.7865    1.6456    0.0000 H   0  0  0  0  0  0  0  0  0  0  0  0
    2.7128   -0.7842    0.0000 H   0  0  0  0  0  0  0  0  0  0  0  0
    1.7864   -1.3194    0.0000 H   0  0  0  0  0  0  0  0  0  0  0  0
   -0.3580    2.0200    0.0000 H   0  0  0  0  0  0  0  0  0  0  0  0
   -1.9649   -0.7652    0.0000 H   0  0  0  0  0  0  0  0  0  0  0  0
   -1.1690   -1.9553    0.0000 H   0  0  0  0  0  0  0  0  0  0  0  0
   -1.5744    0.0404    0.0000 H   0  0  0  0  0  0  0  0  0  0  0  0
   -2.2877   -1.1966    0.0000 H   0  0  0  0  0  0  0  0  0  0  0  0
   -2.2880   -2.0220    0.0000 H   0  0  0  0  0  0  0  0  0  0  0  0
   -3.2148   -2.5568    0.0000 H   0  0  0  0  0  0  0  0  0  0  0  0
   -4.8562   -2.1894    0.0000 H   0  0  0  0  0  0  0  0  0  0  0  0
   -4.6435   -2.0666    0.0000 H   0  0  0  0  0  0  0  0  0  0  0  0
   -5.3584   -1.7542    0.0000 H   0  0  0  0  0  0  0  0  0  0  0  0
   -2.2876    1.5226    0.0000 H   0  0  0  0  0  0  0  0  0  0  0  0
   -3.9290    1.6456    0.0000 H   0  0  0  0  0  0  0  0  0  0  0  0
   -3.9290   -1.3194    0.0000 H   0  0  0  0  0  0  0  0  0  0  0  0
   -5.4832   -0.1772    0.0000 H   0  0  0  0  0  0  0  0  0  0  0  0
   -2.2877   -3.4268    0.0000 H   0  0  0  0  0  0  0  0  0  0  0  0
   -2.5014   -5.4440    0.0000 H   0  0  0  0  0  0  0  0  0  0  0  0
   -1.5740   -3.8394    0.0000 H   0  0  0  0  0  0  0  0  0  0  0  0
   -1.5745   -4.9094    0.0000 H   0  0  0  0  0  0  0  0  0  0  0  0
   -5.5696   -3.4265    0.0000 H   0  0  0  0  0  0  0  0  0  0  0  0
   -3.0029   -4.9092    0.0000 H   0  0  0  0  0  0  0  0  0  0  0  0
   -4.7694   -5.6840    0.0000 H   0  0  0  0  0  0  0  0  0  0  0  0
   -4.6426    1.9580    0.0000 H   0  0  0  0  0  0  0  0  0  0  0  0
    5.3575    0.7430    0.0000 H   0  0  0  0  0  0  0  0  0  0  0  0
    6.2849    2.3476    0.0000 H   0  0  0  0  0  0  0  0  0  0  0  0
    6.2844    1.2776    0.0000 H   0  0  0  0  0  0  0  0  0  0  0  0
    4.8231    0.4718    0.0000 H   0  0  0  0  0  0  0  0  0  0  0  0
    3.2142   -0.4564    0.0000 H   0  0  0  0  0  0  0  0  0  0  0  0
    1.6072    2.3288    0.0000 H   0  0  0  0  0  0  0  0  0  0  0  0
    4.0261    3.5189    0.0000 H   0  0  0  0  0  0  0  0  0  0  0  0
   -6.1976   -3.8888    0.0000 H   0  0  0  0  0  0  0  0  0  0  0  0
   -2.3740    2.2977    0.0000 H   0  0  0  0  0  0  0  0  0  0  0  0
  1  2  1  0  0  0  0
  1  6  1  0  0  0  0
  2  3  1  0  0  0  0
  2 38  1  0  0  0  0
  2 44  1  1  0  0  0
  3  4  1  0  0  0  0
  3 45  1  0  0  0  0
  3 46  1  0  0  0  0
  4  5  1  0  0  0  0
  4 12  2  0  0  0  0
  5  6  2  0  0  0  0
  5 10  1  0  0  0  0
  6  7  1  0  0  0  0
  7  8  2  0  0  0  0
  7 47  1  0  0  0  0
  8  9  1  0  0  0  0
  8 13  1  0  0  0  0
  9 10  2  0  0  0  0
  9 48  1  0  0  0  0
 10 11  1  0  0  0  0
 11 49  1  0  0  0  0
 14 15  1  0  0  0  0
 14 22  1  0  0  0  0
 14 13  1  0  0  0  0
 14 50  1  1  0  0  0
 15 16  1  0  0  0  0
 16 17  1  0  0  0  0
 16 24  1  0  0  0  0
 16 51  1  1  0  0  0
 17 18  1  0  0  0  0
 17 52  1  0  0  0  0
 17 53  1  0  0  0  0
 19 20  1  0  0  0  0
 19 26  1  0  0  0  0
 19 18  1  0  0  0  0
 19 54  1  1  0  0  0
 20 21  1  0  0  0  0
 20 29  1  0  0  0  0
 20 55  1  6  0  0  0
 21 56  1  0  0  0  0
 22 23  1  0  0  0  0
 22 43  1  0  0  0  0
 22 57  1  6  0  0  0
 23 24  1  0  0  0  0
 23 32  1  0  0  0  0
 23 58  1  1  0  0  0
 24 25  1  0  0  0  0
 24 59  1  6  0  0  0
 25 60  1  0  0  0  0
 26 27  1  0  0  0  0
 27 28  1  0  0  0  0
 27 30  1  0  0  0  0
 27 61  1  6  0  0  0
 28 62  1  0  0  0  0
 28 63  1  0  0  0  0
 28 64  1  0  0  0  0
 29 30  1  0  0  0  0
 29 42  1  0  0  0  0
 29 65  1  6  0  0  0
 30 31  1  0  0  0  0
 30 66  1  1  0  0  0
 31 67  1  0  0  0  0
 32 68  1  0  0  0  0
 33 34  1  0  0  0  0
 33 69  1  0  0  0  0
 33 70  1  0  0  0  0
 33 71  1  0  0  0  0
 34 35  1  0  0  0  0
 35 36  2  0  0  0  0
 35 40  1  0  0  0  0
 36 37  1  0  0  0  0
 36 72  1  0  0  0  0
 37 38  2  0  0  0  0
 37 73  1  0  0  0  0
 38 39  1  0  0  0  0
 39 40  2  0  0  0  0
 39 74  1  0  0  0  0
 40 41  1  0  0  0  0
 41 75  1  0  0  0  0
 42 76  1  0  0  0  0
 43 77  1  0  0  0  0
M  END
>  <DRUGBANK_ID>
DB04703

>  <COMMON_NAME>
Hesperidin

>  <CAS_NUMBER>
520-26-3

>  <UNII>
E750O06Y6O

>  <SYNONYMS>
(S)-(âˆ’)-hesperidin; Cirantin; Ciratin; Hesperetin 7-O-rutinoside; Hesperidin; Hesperidina; Hesperidoside

$$$$
