
 OpenBabel10282417072D

 22 22  0  0  0  0  0  0  0  0999 V2000
   -0.3705    0.7982    0.0000 C   0  0  0  0  0  0  0  0  0  0  0  0
    0.3398    0.3934    0.0000 C   0  0  0  0  0  0  0  0  0  0  0  0
    0.3246   -0.4315    0.0000 C   0  0  0  0  0  0  0  0  0  0  0  0
   -1.0834    0.3729    0.0000 C   0  0  0  0  0  0  0  0  0  0  0  0
   -0.3705   -0.8745    0.0000 C   0  0  0  0  0  0  0  0  0  0  0  0
   -1.0834   -0.4544    0.0000 C   0  0  0  0  0  0  0  0  0  0  0  0
   -0.3705    1.6231    0.0000 C   0  0  0  0  0  0  0  0  0  0  0  0
    1.1088   -0.8185    0.0000 N   0  0  0  0  0  0  0  0  0  0  0  0
    1.1088   -1.5976    0.0000 C   0  0  0  0  0  0  0  0  0  0  0  0
   -1.0834    2.0280    0.0000 O   0  0  0  0  0  0  0  0  0  0  0  0
    1.0706    0.7982    0.0000 I   0  0  0  0  0  0  0  0  0  0  0  0
    0.3934   -2.0280    0.0000 O   0  0  0  0  0  0  0  0  0  0  0  0
   -1.8370    0.7982    0.0000 I   0  0  0  0  0  0  0  0  0  0  0  0
   -0.3705   -1.6995    0.0000 I   0  0  0  0  0  0  0  0  0  0  0  0
    0.3398    2.0280    0.0000 O   0  0  0  0  0  0  0  0  0  0  0  0
    1.8370   -1.9720    0.0000 C   0  0  0  0  0  0  0  0  0  0  0  0
   -1.9794   -0.9664    0.0000 H   0  0  0  0  0  0  0  0  0  0  0  0
    1.9449   -0.2987    0.0000 H   0  0  0  0  0  0  0  0  0  0  0  0
    1.1487    1.5550    0.0000 H   0  0  0  0  0  0  0  0  0  0  0  0
    1.8891   -3.0407    0.0000 H   0  0  0  0  0  0  0  0  0  0  0  0
    2.7365   -1.3925    0.0000 H   0  0  0  0  0  0  0  0  0  0  0  0
    2.7886   -2.4613    0.0000 H   0  0  0  0  0  0  0  0  0  0  0  0
  2  1  1  0  0  0  0
  3  2  2  0  0  0  0
  3  5  1  0  0  0  0
  4  1  2  0  0  0  0
  5  6  2  0  0  0  0
  6  4  1  0  0  0  0
  6 17  1  0  0  0  0
  7  1  1  0  0  0  0
  8  3  1  0  0  0  0
  8 18  1  0  0  0  0
  9  8  1  0  0  0  0
 10  7  2  0  0  0  0
 11  2  1  0  0  0  0
 12  9  2  0  0  0  0
 13  4  1  0  0  0  0
 14  5  1  0  0  0  0
 15  7  1  0  0  0  0
 15 19  1  0  0  0  0
 16  9  1  0  0  0  0
 16 20  1  0  0  0  0
 16 21  1  0  0  0  0
 16 22  1  0  0  0  0
M  END
>  <DRUGBANK_ID>
DB09347

>  <COMMON_NAME>
Acetrizoic acid

>  <CAS_NUMBER>
85-36-9

>  <UNII>
24256BQV7M

>  <SYNONYMS>
Acide acetrizoique; Urokonic acid

$$$$
