
 OpenBabel10282417072D

 63 67  0  0  0  0  0  0  0  0999 V2000
    0.3618   -1.8711    0.0000 C   0  0  0  0  0  0  0  0  0  0  0  0
    1.0762   -1.4586    0.0000 C   0  0  2  0  0  0  0  0  0  0  0  0
    1.7908   -1.8711    0.0000 C   0  0  1  0  0  0  0  0  0  0  0  0
    1.7908   -2.6961    0.0000 O   0  0  0  0  0  0  0  0  0  0  0  0
    2.5052   -3.1086    0.0000 C   0  0  0  0  0  0  0  0  0  0  0  0
    2.5052   -1.4586    0.0000 C   0  0  1  0  0  0  0  0  0  0  0  0
    3.2197   -1.8711    0.0000 O   0  0  0  0  0  0  0  0  0  0  0  0
    2.5052   -0.6336    0.0000 C   0  0  0  0  0  0  0  0  0  0  0  0
    1.7908   -0.2211    0.0000 C   0  0  2  0  0  0  0  0  0  0  0  0
    1.7908   -1.0461    0.0000 H   0  0  0  0  0  0  0  0  0  0  0  0
    1.7908    0.6038    0.0000 C   0  0  0  0  0  0  0  0  0  0  0  0
    1.0762    1.0163    0.0000 N   0  0  3  0  0  0  0  0  0  0  0  0
    1.0762    1.8413    0.0000 C   0  0  0  0  0  0  0  0  0  0  0  0
    0.3618    2.2538    0.0000 C   0  0  0  0  0  0  0  0  0  0  0  0
   -0.3526    1.8413    0.0000 C   0  0  0  0  0  0  0  0  0  0  0  0
   -1.1372    2.0963    0.0000 C   0  0  0  0  0  0  0  0  0  0  0  0
   -1.4728    2.8499    0.0000 C   0  0  0  0  0  0  0  0  0  0  0  0
   -2.2933    2.9362    0.0000 C   0  0  0  0  0  0  0  0  0  0  0  0
   -2.7782    2.2687    0.0000 C   0  0  0  0  0  0  0  0  0  0  0  0
   -3.5987    2.3550    0.0000 O   0  0  0  0  0  0  0  0  0  0  0  0
   -3.9342    3.1086    0.0000 C   0  0  0  0  0  0  0  0  0  0  0  0
   -2.4427    1.5151    0.0000 C   0  0  0  0  0  0  0  0  0  0  0  0
   -1.6222    1.4288    0.0000 C   0  0  0  0  0  0  0  0  0  0  0  0
   -1.1372    0.7614    0.0000 N   0  0  0  0  0  0  0  0  0  0  0  0
   -0.3526    1.0163    0.0000 C   0  0  0  0  0  0  0  0  0  0  0  0
    0.3618    0.6038    0.0000 C   0  0  1  0  0  0  0  0  0  0  0  0
    0.3618    1.4288    0.0000 H   0  0  0  0  0  0  0  0  0  0  0  0
    0.3618   -0.2211    0.0000 C   0  0  0  0  0  0  0  0  0  0  0  0
    1.0762   -0.6336    0.0000 C   0  0  2  0  0  0  0  0  0  0  0  0
    1.0762    0.1913    0.0000 H   0  0  0  0  0  0  0  0  0  0  0  0
    0.3618   -2.6961    0.0000 O   0  0  0  0  0  0  0  0  0  0  0  0
   -0.3526   -1.4586    0.0000 O   0  0  0  0  0  0  0  0  0  0  0  0
   -1.0671   -1.8711    0.0000 C   0  0  0  0  0  0  0  0  0  0  0  0
    3.9342   -1.4586    0.0000 C   0  0  0  0  0  0  0  0  0  0  0  0
    1.0763   -2.5286    0.0000 H   0  0  0  0  0  0  0  0  0  0  0  0
    0.8642   -2.4061    0.0000 H   0  0  0  0  0  0  0  0  0  0  0  0
    2.5052   -4.1786    0.0000 H   0  0  0  0  0  0  0  0  0  0  0  0
    3.4319   -2.5736    0.0000 H   0  0  0  0  0  0  0  0  0  0  0  0
    3.4318   -3.6436    0.0000 H   0  0  0  0  0  0  0  0  0  0  0  0
    2.5052   -2.5286    0.0000 H   0  0  0  0  0  0  0  0  0  0  0  0
    3.4319   -0.0986    0.0000 H   0  0  0  0  0  0  0  0  0  0  0  0
    2.5052    0.4364    0.0000 H   0  0  0  0  0  0  0  0  0  0  0  0
    2.7174    1.1388    0.0000 H   0  0  0  0  0  0  0  0  0  0  0  0
    1.7907    1.6738    0.0000 H   0  0  0  0  0  0  0  0  0  0  0  0
    2.0029    2.3763    0.0000 H   0  0  0  0  0  0  0  0  0  0  0  0
    1.0762    2.9113    0.0000 H   0  0  0  0  0  0  0  0  0  0  0  0
    0.3618    3.3238    0.0000 H   0  0  0  0  0  0  0  0  0  0  0  0
   -0.5649    2.7888    0.0000 H   0  0  0  0  0  0  0  0  0  0  0  0
   -0.8662    3.6848    0.0000 H   0  0  0  0  0  0  0  0  0  0  0  0
   -2.7130    3.8790    0.0000 H   0  0  0  0  0  0  0  0  0  0  0  0
   -3.3052    3.9742    0.0000 H   0  0  0  0  0  0  0  0  0  0  0  0
   -4.9983    3.2205    0.0000 H   0  0  0  0  0  0  0  0  0  0  0  0
   -4.3694    4.0861    0.0000 H   0  0  0  0  0  0  0  0  0  0  0  0
   -3.0493    0.6802    0.0000 H   0  0  0  0  0  0  0  0  0  0  0  0
   -1.4414   -0.1749    0.0000 H   0  0  0  0  0  0  0  0  0  0  0  0
   -0.5649   -0.7561    0.0000 H   0  0  0  0  0  0  0  0  0  0  0  0
    0.3618   -1.2911    0.0000 H   0  0  0  0  0  0  0  0  0  0  0  0
   -1.9937   -1.3361    0.0000 H   0  0  0  0  0  0  0  0  0  0  0  0
   -1.0671   -2.9411    0.0000 H   0  0  0  0  0  0  0  0  0  0  0  0
   -1.9938   -2.4061    0.0000 H   0  0  0  0  0  0  0  0  0  0  0  0
    4.8608   -1.9936    0.0000 H   0  0  0  0  0  0  0  0  0  0  0  0
    3.9342   -0.3886    0.0000 H   0  0  0  0  0  0  0  0  0  0  0  0
    4.8609   -0.9236    0.0000 H   0  0  0  0  0  0  0  0  0  0  0  0
  1 31  2  0  0  0  0
  1 32  1  0  0  0  0
  2  1  1  0  0  0  0
  2  3  1  0  0  0  0
  2 29  1  0  0  0  0
  2 35  1  6  0  0  0
  3  4  1  0  0  0  0
  3  6  1  0  0  0  0
  3 36  1  1  0  0  0
  4  5  1  0  0  0  0
  5 37  1  0  0  0  0
  5 38  1  0  0  0  0
  5 39  1  0  0  0  0
  6  7  1  0  0  0  0
  6  8  1  0  0  0  0
  6 40  1  1  0  0  0
  7 34  1  0  0  0  0
  8 41  1  0  0  0  0
  8 42  1  0  0  0  0
  9  8  1  0  0  0  0
  9 10  1  6  0  0  0
  9 11  1  0  0  0  0
 11 12  1  0  0  0  0
 11 43  1  0  0  0  0
 11 44  1  0  0  0  0
 12 13  1  0  0  0  0
 13 14  1  0  0  0  0
 13 45  1  0  0  0  0
 13 46  1  0  0  0  0
 14 47  1  0  0  0  0
 14 48  1  0  0  0  0
 15 14  1  0  0  0  0
 15 16  1  0  0  0  0
 16 17  1  0  0  0  0
 16 23  2  0  0  0  0
 17 18  2  0  0  0  0
 17 49  1  0  0  0  0
 18 19  1  0  0  0  0
 18 50  1  0  0  0  0
 19 20  1  0  0  0  0
 20 21  1  0  0  0  0
 21 51  1  0  0  0  0
 21 52  1  0  0  0  0
 21 53  1  0  0  0  0
 22 19  2  0  0  0  0
 22 54  1  0  0  0  0
 23 22  1  0  0  0  0
 24 23  1  0  0  0  0
 24 55  1  0  0  0  0
 25 24  1  0  0  0  0
 25 15  2  0  0  0  0
 26 25  1  0  0  0  0
 26 12  1  0  0  0  0
 26 27  1  1  0  0  0
 28 26  1  0  0  0  0
 28 56  1  0  0  0  0
 28 57  1  0  0  0  0
 29 28  1  0  0  0  0
 29  9  1  0  0  0  0
 29 30  1  6  0  0  0
 32 33  1  0  0  0  0
 33 58  1  0  0  0  0
 33 59  1  0  0  0  0
 33 60  1  0  0  0  0
 34 61  1  0  0  0  0
 34 62  1  0  0  0  0
 34 63  1  0  0  0  0
M  END
>  <DRUGBANK_ID>
DB11530

>  <COMMON_NAME>
Metoserpate

>  <CAS_NUMBER>
1178-28-5

>  <UNII>
X3G4L02XQU

>  <SYNONYMS>
Methyl O-methyl-18-epireserpate; Metoserpate; Metoserpato; Metoserpatum

$$$$
