
 OpenBabel10282417072D

 33 34  0  0  0  0  0  0  0  0999 V2000
   -0.4564   -2.4561    0.0000 O   0  0  0  0  0  0  0  0  0  0  0  0
   -0.7933   -1.7009    0.0000 C   0  0  2  0  0  0  0  0  0  0  0  0
   -1.2769   -2.3692    0.0000 H   0  0  0  0  0  0  0  0  0  0  0  0
   -0.0760   -1.2933    0.0000 C   0  0  1  0  0  0  0  0  0  0  0  0
    0.7444   -1.2064    0.0000 C   0  0  0  0  0  0  0  0  0  0  0  0
    1.0759   -0.4510    0.0000 O   0  0  0  0  0  0  0  0  0  0  0  0
    1.8964   -0.3640    0.0000 P   0  0  0  0  0  0  0  0  0  0  0  0
    1.9834   -1.1846    0.0000 O   0  0  0  0  0  0  0  0  0  0  0  0
    1.8094    0.4564    0.0000 O   0  0  0  0  0  0  0  0  0  0  0  0
    2.7170   -0.2771    0.0000 O   0  0  0  0  0  0  0  0  0  0  0  0
   -0.2499   -0.4836    0.0000 O   0  0  0  0  0  0  0  0  0  0  0  0
   -1.0704   -0.3967    0.0000 C   0  0  2  0  0  0  0  0  0  0  0  0
   -1.4019   -1.1519    0.0000 C   0  0  2  0  0  0  0  0  0  0  0  0
   -2.0160   -1.7009    0.0000 O   0  0  0  0  0  0  0  0  0  0  0  0
   -1.4780    0.3151    0.0000 N   0  0  0  0  0  0  0  0  0  0  0  0
   -1.0704    1.0269    0.0000 N   0  0  0  0  0  0  0  0  0  0  0  0
   -1.4780    1.7443    0.0000 C   0  0  0  0  0  0  0  0  0  0  0  0
   -2.3040    1.7443    0.0000 C   0  0  0  0  0  0  0  0  0  0  0  0
   -2.7170    2.4561    0.0000 O   0  0  0  0  0  0  0  0  0  0  0  0
   -2.7170    1.0269    0.0000 N   0  0  0  0  0  0  0  0  0  0  0  0
   -2.3040    0.3151    0.0000 C   0  0  0  0  0  0  0  0  0  0  0  0
   -2.7170   -0.3967    0.0000 O   0  0  0  0  0  0  0  0  0  0  0  0
   -1.0260   -3.2413    0.0000 H   0  0  0  0  0  0  0  0  0  0  0  0
    0.2516   -2.3119    0.0000 H   0  0  0  0  0  0  0  0  0  0  0  0
    1.3760   -2.0701    0.0000 H   0  0  0  0  0  0  0  0  0  0  0  0
    1.8081   -1.0901    0.0000 H   0  0  0  0  0  0  0  0  0  0  0  0
    1.1992   -1.7555    0.0000 H   0  0  0  0  0  0  0  0  0  0  0  0
    2.5936    1.0273    0.0000 H   0  0  0  0  0  0  0  0  0  0  0  0
   -0.4857    0.4994    0.0000 H   0  0  0  0  0  0  0  0  0  0  0  0
   -1.4043   -2.2219    0.0000 H   0  0  0  0  0  0  0  0  0  0  0  0
   -2.9375   -1.3979    0.0000 H   0  0  0  0  0  0  0  0  0  0  0  0
   -0.9589    2.6362    0.0000 H   0  0  0  0  0  0  0  0  0  0  0  0
   -3.7015    1.0252    0.0000 H   0  0  0  0  0  0  0  0  0  0  0  0
  1  2  1  0  0  0  0
  1 23  1  0  0  0  0
  2  3  1  6  0  0  0
  2  4  1  0  0  0  0
  2 13  1  0  0  0  0
  4  5  1  0  0  0  0
  4 11  1  0  0  0  0
  4 24  1  1  0  0  0
  5  6  1  0  0  0  0
  5 25  1  0  0  0  0
  5 26  1  0  0  0  0
  6  7  1  0  0  0  0
  7  8  1  0  0  0  0
  7  9  1  0  0  0  0
  7 10  2  0  0  0  0
  8 27  1  0  0  0  0
  9 28  1  0  0  0  0
 11 12  1  0  0  0  0
 12 13  1  0  0  0  0
 12 15  1  0  0  0  0
 12 29  1  1  0  0  0
 13 14  1  0  0  0  0
 13 30  1  6  0  0  0
 14 31  1  0  0  0  0
 15 16  1  0  0  0  0
 15 21  1  0  0  0  0
 16 17  2  0  0  0  0
 17 18  1  0  0  0  0
 17 32  1  0  0  0  0
 18 19  2  0  0  0  0
 18 20  1  0  0  0  0
 20 21  1  0  0  0  0
 20 33  1  0  0  0  0
 21 22  2  0  0  0  0
M  END
>  <DRUGBANK_ID>
DB03718

>  <SECONDARY_ACCESSION_NUMBERS>
EXPT03195

>  <COMMON_NAME>
6-aza uridine 5'-monophosphate

>  <CAS_NUMBER>
2018-19-1

>  <SYNONYMS>
6-Aza-UMP; 6-Aza-Uridine Monophosphate; 6-Azauridine-5'-monophosphate

$$$$
