
 OpenBabel10282417072D

 76 79  0  0  0  0  0  0  0  0999 V2000
   28.9897  -19.5151    0.0000 C   0  0  0  0  0  0  0  0  0  0  0  0
   28.9897  -20.3516    0.0000 C   0  0  0  0  0  0  0  0  0  0  0  0
   29.7007  -20.7698    0.0000 C   0  0  0  0  0  0  0  0  0  0  0  0
   30.4535  -20.3516    0.0000 C   0  0  0  0  0  0  0  0  0  0  0  0
   30.4535  -19.5151    0.0000 C   0  0  0  0  0  0  0  0  0  0  0  0
   29.7007  -19.0969    0.0000 C   0  0  0  0  0  0  0  0  0  0  0  0
   31.8755  -20.3516    0.0000 C   0  0  0  0  0  0  0  0  0  0  0  0
   31.8755  -19.5151    0.0000 C   0  0  0  0  0  0  0  0  0  0  0  0
   31.1646  -19.0969    0.0000 C   0  0  0  0  0  0  0  0  0  0  0  0
   32.6284  -20.7698    0.0000 C   0  0  0  0  0  0  0  0  0  0  0  0
   33.3394  -20.3516    0.0000 C   0  0  0  0  0  0  0  0  0  0  0  0
   33.3394  -19.5151    0.0000 C   0  0  0  0  0  0  0  0  0  0  0  0
   32.6284  -19.0969    0.0000 C   0  0  0  0  0  0  0  0  0  0  0  0
   31.1646  -18.2604    0.0000 C   0  0  3  0  0  0  0  0  0  0  0  0
   31.8755  -17.8421    0.0000 C   0  0  0  0  0  0  0  0  0  0  0  0
   31.8755  -17.0056    0.0000 C   0  0  0  0  0  0  0  0  0  0  0  0
   31.1646  -16.5873    0.0000 N   0  0  0  0  0  0  0  0  0  0  0  0
   30.4535  -17.0056    0.0000 C   0  0  0  0  0  0  0  0  0  0  0  0
   30.4535  -17.8421    0.0000 C   0  0  0  0  0  0  0  0  0  0  0  0
   30.4535  -18.6786    0.0000 O   0  0  0  0  0  0  0  0  0  0  0  0
   31.1646  -15.7509    0.0000 C   0  0  0  0  0  0  0  0  0  0  0  0
   31.9174  -15.3326    0.0000 C   0  0  0  0  0  0  0  0  0  0  0  0
   32.6284  -15.7509    0.0000 C   0  0  0  0  0  0  0  0  0  0  0  0
   33.3394  -15.3326    0.0000 C   0  0  3  0  0  0  0  0  0  0  0  0
   34.0505  -15.7509    0.0000 C   0  0  0  0  0  0  0  0  0  0  0  0
   33.3394  -14.4962    0.0000 O   0  0  0  0  0  0  0  0  0  0  0  0
   34.0505  -16.5873    0.0000 C   0  0  0  0  0  0  0  0  0  0  0  0
   34.7614  -17.0056    0.0000 C   0  0  0  0  0  0  0  0  0  0  0  0
   35.4725  -16.5873    0.0000 C   0  0  0  0  0  0  0  0  0  0  0  0
   35.4725  -15.7509    0.0000 C   0  0  0  0  0  0  0  0  0  0  0  0
   34.7614  -15.3326    0.0000 C   0  0  0  0  0  0  0  0  0  0  0  0
   36.2253  -17.0056    0.0000 C   0  0  0  0  0  0  0  0  0  0  0  0
   36.9363  -17.4238    0.0000 C   0  0  0  0  0  0  0  0  0  0  0  0
   35.8070  -17.7585    0.0000 C   0  0  0  0  0  0  0  0  0  0  0  0
   36.6435  -16.2946    0.0000 C   0  0  0  0  0  0  0  0  0  0  0  0
   28.0939  -19.0027    0.0000 H   0  0  0  0  0  0  0  0  0  0  0  0
   28.0939  -20.8640    0.0000 H   0  0  0  0  0  0  0  0  0  0  0  0
   29.6880  -21.8017    0.0000 H   0  0  0  0  0  0  0  0  0  0  0  0
   31.3429  -20.8750    0.0000 H   0  0  0  0  0  0  0  0  0  0  0  0
   29.6880  -18.0650    0.0000 H   0  0  0  0  0  0  0  0  0  0  0  0
   30.9861  -20.8750    0.0000 H   0  0  0  0  0  0  0  0  0  0  0  0
   32.6411  -21.8017    0.0000 H   0  0  0  0  0  0  0  0  0  0  0  0
   34.2352  -20.8640    0.0000 H   0  0  0  0  0  0  0  0  0  0  0  0
   34.2352  -19.0027    0.0000 H   0  0  0  0  0  0  0  0  0  0  0  0
   32.6411  -18.0650    0.0000 H   0  0  0  0  0  0  0  0  0  0  0  0
   32.0934  -18.7916    0.0000 H   0  0  0  0  0  0  0  0  0  0  0  0
   32.8043  -18.3733    0.0000 H   0  0  0  0  0  0  0  0  0  0  0  0
   32.8010  -17.3052    0.0000 H   0  0  0  0  0  0  0  0  0  0  0  0
   32.8043  -16.4744    0.0000 H   0  0  0  0  0  0  0  0  0  0  0  0
   31.8821  -15.9356    0.0000 H   0  0  0  0  0  0  0  0  0  0  0  0
   29.5247  -16.4744    0.0000 H   0  0  0  0  0  0  0  0  0  0  0  0
   29.5279  -17.5425    0.0000 H   0  0  0  0  0  0  0  0  0  0  0  0
   29.5247  -18.3733    0.0000 H   0  0  0  0  0  0  0  0  0  0  0  0
   30.4470  -18.9121    0.0000 H   0  0  0  0  0  0  0  0  0  0  0  0
   30.4614  -17.7086    0.0000 H   0  0  0  0  0  0  0  0  0  0  0  0
   30.2424  -15.2083    0.0000 H   0  0  0  0  0  0  0  0  0  0  0  0
   31.1778  -14.6810    0.0000 H   0  0  0  0  0  0  0  0  0  0  0  0
   31.9306  -14.2627    0.0000 H   0  0  0  0  0  0  0  0  0  0  0  0
   32.8495  -14.8071    0.0000 H   0  0  0  0  0  0  0  0  0  0  0  0
   32.6284  -16.8209    0.0000 H   0  0  0  0  0  0  0  0  0  0  0  0
   33.5572  -16.2821    0.0000 H   0  0  0  0  0  0  0  0  0  0  0  0
   33.3394  -16.4026    0.0000 H   0  0  0  0  0  0  0  0  0  0  0  0
   34.1794  -14.0112    0.0000 H   0  0  0  0  0  0  0  0  0  0  0  0
   33.1546  -17.0996    0.0000 H   0  0  0  0  0  0  0  0  0  0  0  0
   34.7613  -18.0376    0.0000 H   0  0  0  0  0  0  0  0  0  0  0  0
   36.3683  -15.2385    0.0000 H   0  0  0  0  0  0  0  0  0  0  0  0
   34.7613  -14.3006    0.0000 H   0  0  0  0  0  0  0  0  0  0  0  0
   36.9276  -18.4938    0.0000 H   0  0  0  0  0  0  0  0  0  0  0  0
   37.8672  -16.8963    0.0000 H   0  0  0  0  0  0  0  0  0  0  0  0
   37.8586  -17.9663    0.0000 H   0  0  0  0  0  0  0  0  0  0  0  0
   34.7371  -17.7761    0.0000 H   0  0  0  0  0  0  0  0  0  0  0  0
   36.3572  -18.6762    0.0000 H   0  0  0  0  0  0  0  0  0  0  0  0
   35.2873  -18.6938    0.0000 H   0  0  0  0  0  0  0  0  0  0  0  0
   37.7135  -16.3033    0.0000 H   0  0  0  0  0  0  0  0  0  0  0  0
   36.1160  -15.3637    0.0000 H   0  0  0  0  0  0  0  0  0  0  0  0
   37.1860  -15.3723    0.0000 H   0  0  0  0  0  0  0  0  0  0  0  0
  1  2  2  0  0  0  0
  1  6  1  0  0  0  0
  1 36  1  0  0  0  0
  2  3  1  0  0  0  0
  2 37  1  0  0  0  0
  3  4  2  0  0  0  0
  3 38  1  0  0  0  0
  4  5  1  0  0  0  0
  4 39  1  0  0  0  0
  5  6  2  0  0  0  0
  5  9  1  0  0  0  0
  6 40  1  0  0  0  0
  7  8  1  0  0  0  0
  7 10  2  0  0  0  0
  7 41  1  0  0  0  0
  8  9  1  0  0  0  0
  8 13  2  0  0  0  0
  9 14  1  0  0  0  0
  9 20  1  0  0  0  0
 10 11  1  0  0  0  0
 10 42  1  0  0  0  0
 11 12  2  0  0  0  0
 11 43  1  0  0  0  0
 12 13  1  0  0  0  0
 12 44  1  0  0  0  0
 13 45  1  0  0  0  0
 14 15  1  0  0  0  0
 14 19  1  0  0  0  0
 14 46  1  0  0  0  0
 15 16  1  0  0  0  0
 15 47  1  0  0  0  0
 15 48  1  0  0  0  0
 16 17  1  0  0  0  0
 16 49  1  0  0  0  0
 16 50  1  0  0  0  0
 17 18  1  0  0  0  0
 17 21  1  0  0  0  0
 18 19  1  0  0  0  0
 18 51  1  0  0  0  0
 18 52  1  0  0  0  0
 19 53  1  0  0  0  0
 19 54  1  0  0  0  0
 20 55  1  0  0  0  0
 21 22  1  0  0  0  0
 21 56  1  0  0  0  0
 21 57  1  0  0  0  0
 22 23  1  0  0  0  0
 22 58  1  0  0  0  0
 22 59  1  0  0  0  0
 23 24  1  0  0  0  0
 23 60  1  0  0  0  0
 23 61  1  0  0  0  0
 24 25  1  0  0  0  0
 24 26  1  0  0  0  0
 24 62  1  0  0  0  0
 25 27  2  0  0  0  0
 25 31  1  0  0  0  0
 26 63  1  0  0  0  0
 27 28  1  0  0  0  0
 27 64  1  0  0  0  0
 28 29  2  0  0  0  0
 28 65  1  0  0  0  0
 29 30  1  0  0  0  0
 29 32  1  0  0  0  0
 30 31  2  0  0  0  0
 30 66  1  0  0  0  0
 31 67  1  0  0  0  0
 32 33  1  0  0  0  0
 32 34  1  0  0  0  0
 32 35  1  0  0  0  0
 33 68  1  0  0  0  0
 33 69  1  0  0  0  0
 33 70  1  0  0  0  0
 34 71  1  0  0  0  0
 34 72  1  0  0  0  0
 34 73  1  0  0  0  0
 35 74  1  0  0  0  0
 35 75  1  0  0  0  0
 35 76  1  0  0  0  0
M  END
>  <DRUGBANK_ID>
DB00342

>  <SECONDARY_ACCESSION_NUMBERS>
APRD00606

>  <COMMON_NAME>
Terfenadine

>  <CAS_NUMBER>
50679-08-8

>  <UNII>
7BA5G9Y06Q

>  <SYNONYMS>
(RS)-1-(4-tert-butylphenyl)-4-{4-[hydroxy(diphenyl)methyl]piperidin-1-yl}-butan-1-ol; Terfenadin; Terfenadina; TerfÃ©nadine; Terfenadine; Terfenadinum

$$$$
