CDB
 OpenBabel10282417072D

 55 57  0  0  0  0  0  0  0  0999 V2000
   -1.4168    3.4686    0.0000 N   0  3  0  0  0  0  0  0  0  0  0  0
   -2.1313    3.0561    0.0000 C   0  0  0  0  0  0  0  0  0  0  0  0
   -2.8457    3.4686    0.0000 C   0  0  0  0  0  0  0  0  0  0  0  0
   -2.8457    4.2936    0.0000 C   0  0  0  0  0  0  0  0  0  0  0  0
   -2.1313    4.7061    0.0000 C   0  0  0  0  0  0  0  0  0  0  0  0
   -1.4168    4.2936    0.0000 C   0  0  0  0  0  0  0  0  0  0  0  0
   -2.1313    2.2311    0.0000 C   0  0  0  0  0  0  0  0  0  0  0  0
   -2.1313    1.4061    0.0000 C   0  0  0  0  0  0  0  0  0  0  0  0
   -2.9563    2.2311    0.0000 F   0  0  0  0  0  0  0  0  0  0  0  0
   -1.3063    2.2311    0.0000 F   0  0  0  0  0  0  0  0  0  0  0  0
   -1.4168    0.9936    0.0000 N   0  0  0  0  0  0  0  0  0  0  0  0
   -1.4168    0.1686    0.0000 C   0  0  0  0  0  0  0  0  0  0  0  0
   -0.7023   -0.2439    0.0000 C   0  0  0  0  0  0  0  0  0  0  0  0
   -0.7023   -1.0689    0.0000 N   0  0  0  0  0  0  0  0  0  0  0  0
   -1.4168   -1.4814    0.0000 C   0  0  0  0  0  0  0  0  0  0  0  0
   -2.1313   -1.0689    0.0000 C   0  0  0  0  0  0  0  0  0  0  0  0
   -2.1313   -0.2439    0.0000 N   0  3  0  0  0  0  0  0  0  0  0  0
    0.0121    0.1686    0.0000 O   0  0  0  0  0  0  0  0  0  0  0  0
   -1.4168   -2.3064    0.0000 C   0  0  0  0  0  0  0  0  0  0  0  0
    0.0121   -1.4814    0.0000 C   0  0  0  0  0  0  0  0  0  0  0  0
    0.7266   -1.0689    0.0000 C   0  0  0  0  0  0  0  0  0  0  0  0
    1.4411   -1.4814    0.0000 N   0  0  0  0  0  0  0  0  0  0  0  0
    0.7266   -0.2439    0.0000 O   0  0  0  0  0  0  0  0  0  0  0  0
    2.1556   -1.0689    0.0000 C   0  0  0  0  0  0  0  0  0  0  0  0
    2.8700   -1.4814    0.0000 C   0  0  0  0  0  0  0  0  0  0  0  0
    3.5845   -1.0689    0.0000 C   0  0  0  0  0  0  0  0  0  0  0  0
    4.2990   -1.4814    0.0000 C   0  0  0  0  0  0  0  0  0  0  0  0
    4.2990   -2.3064    0.0000 C   0  0  0  0  0  0  0  0  0  0  0  0
    2.8700   -2.3064    0.0000 N   0  0  0  0  0  0  0  0  0  0  0  0
    3.5845   -0.2439    0.0000 F   0  0  0  0  0  0  0  0  0  0  0  0
    3.5845   -2.7189    0.0000 C   0  0  0  0  0  0  0  0  0  0  0  0
    5.0134   -1.0689    0.0000 C   0  0  0  0  0  0  0  0  0  0  0  0
   -0.5642    2.9763    0.0000 H   0  0  0  0  0  0  0  0  0  0  0  0
   -3.7394    2.9526    0.0000 H   0  0  0  0  0  0  0  0  0  0  0  0
   -3.7394    4.8096    0.0000 H   0  0  0  0  0  0  0  0  0  0  0  0
   -2.1313    5.7381    0.0000 H   0  0  0  0  0  0  0  0  0  0  0  0
   -0.5231    4.8096    0.0000 H   0  0  0  0  0  0  0  0  0  0  0  0
   -3.0579    0.8711    0.0000 H   0  0  0  0  0  0  0  0  0  0  0  0
   -2.1313    0.3361    0.0000 H   0  0  0  0  0  0  0  0  0  0  0  0
   -0.5642    1.4859    0.0000 H   0  0  0  0  0  0  0  0  0  0  0  0
   -3.0250   -1.5849    0.0000 H   0  0  0  0  0  0  0  0  0  0  0  0
   -2.9839    0.2484    0.0000 H   0  0  0  0  0  0  0  0  0  0  0  0
   -2.3434   -2.8414    0.0000 H   0  0  0  0  0  0  0  0  0  0  0  0
   -0.4902   -2.8414    0.0000 H   0  0  0  0  0  0  0  0  0  0  0  0
   -1.4168   -3.3764    0.0000 H   0  0  0  0  0  0  0  0  0  0  0  0
    0.0121   -2.5514    0.0000 H   0  0  0  0  0  0  0  0  0  0  0  0
    0.9387   -2.0164    0.0000 H   0  0  0  0  0  0  0  0  0  0  0  0
    1.4411   -2.4659    0.0000 H   0  0  0  0  0  0  0  0  0  0  0  0
    2.1556    0.0011    0.0000 H   0  0  0  0  0  0  0  0  0  0  0  0
    3.0823   -0.5339    0.0000 H   0  0  0  0  0  0  0  0  0  0  0  0
    5.1927   -2.8224    0.0000 H   0  0  0  0  0  0  0  0  0  0  0  0
    3.5845   -3.7509    0.0000 H   0  0  0  0  0  0  0  0  0  0  0  0
    5.9401   -1.6039    0.0000 H   0  0  0  0  0  0  0  0  0  0  0  0
    5.0134    0.0011    0.0000 H   0  0  0  0  0  0  0  0  0  0  0  0
    5.9400   -0.5339    0.0000 H   0  0  0  0  0  0  0  0  0  0  0  0
  1  2  2  0  0  0  0
  1  6  1  0  0  0  0
  1 33  1  0  0  0  0
  2  3  1  0  0  0  0
  2  7  1  0  0  0  0
  3  4  2  0  0  0  0
  3 34  1  0  0  0  0
  4  5  1  0  0  0  0
  4 35  1  0  0  0  0
  5  6  2  0  0  0  0
  5 36  1  0  0  0  0
  6 37  1  0  0  0  0
  7  8  1  0  0  0  0
  7  9  1  0  0  0  0
  7 10  1  0  0  0  0
  8 11  1  0  0  0  0
  8 38  1  0  0  0  0
  8 39  1  0  0  0  0
 11 12  1  0  0  0  0
 11 40  1  0  0  0  0
 12 13  1  0  0  0  0
 12 17  2  0  0  0  0
 13 14  1  0  0  0  0
 13 18  2  0  0  0  0
 14 15  1  0  0  0  0
 14 20  1  0  0  0  0
 15 16  2  0  0  0  0
 15 19  1  0  0  0  0
 16 17  1  0  0  0  0
 16 41  1  0  0  0  0
 17 42  1  0  0  0  0
 19 43  1  0  0  0  0
 19 44  1  0  0  0  0
 19 45  1  0  0  0  0
 20 21  1  0  0  0  0
 20 46  1  0  0  0  0
 20 47  1  0  0  0  0
 21 22  1  0  0  0  0
 21 23  2  0  0  0  0
 22 24  1  0  0  0  0
 22 48  1  0  0  0  0
 24 25  1  0  0  0  0
 24 49  1  0  0  0  0
 24 50  1  0  0  0  0
 25 26  2  0  0  0  0
 25 29  1  0  0  0  0
 26 27  1  0  0  0  0
 26 30  1  0  0  0  0
 27 28  2  0  0  0  0
 27 32  1  0  0  0  0
 28 31  1  0  0  0  0
 28 51  1  0  0  0  0
 29 31  2  0  0  0  0
 31 52  1  0  0  0  0
 32 53  1  0  0  0  0
 32 54  1  0  0  0  0
 32 55  1  0  0  0  0
M  CHG  2   1   1  17   1
M  END
>  <DRUGBANK_ID>
DB07549

>  <COMMON_NAME>
2-(6-CHLORO-3-{[2,2-DIFLUORO-2-(2-PYRIDINYL)ETHYL]AMINO}-2-OXO-1(2H)-PYRAZINYL)-N-[(2-FLUORO-3-METHYL-6-PYRIDINYL)METHYL]ACETAMIDE

$$$$
