
 OpenBabel10282417072D

 45 47  0  0  0  0  0  0  0  0999 V2000
   -0.9252   -0.5075    0.0000 N   0  0  0  0  0  0  0  0  0  0  0  0
   -0.7537   -1.3144    0.0000 C   0  0  0  0  0  0  0  0  0  0  0  0
    0.0000   -1.6500    0.0000 C   0  0  0  0  0  0  0  0  0  0  0  0
   -0.0862   -2.4705    0.0000 C   0  0  0  0  0  0  0  0  0  0  0  0
   -0.8932   -2.6420    0.0000 N   0  0  0  0  0  0  0  0  0  0  0  0
   -1.3057   -1.9275    0.0000 N   0  0  0  0  0  0  0  0  0  0  0  0
   -2.1262   -1.8413    0.0000 C   0  0  0  0  0  0  0  0  0  0  0  0
   -2.6111   -2.5087    0.0000 C   0  0  0  0  0  0  0  0  0  0  0  0
   -3.4316   -2.4225    0.0000 C   0  0  0  0  0  0  0  0  0  0  0  0
   -3.7671   -1.6688    0.0000 C   0  0  0  0  0  0  0  0  0  0  0  0
   -4.5876   -1.5826    0.0000 F   0  0  0  0  0  0  0  0  0  0  0  0
   -3.2822   -1.0014    0.0000 C   0  0  0  0  0  0  0  0  0  0  0  0
   -2.4617   -1.0876    0.0000 C   0  0  0  0  0  0  0  0  0  0  0  0
    0.7145   -1.2375    0.0000 C   0  0  0  0  0  0  0  0  0  0  0  0
    1.4289   -1.6500    0.0000 O   0  0  0  0  0  0  0  0  0  0  0  0
    0.7145   -0.4125    0.0000 C   0  0  0  0  0  0  0  0  0  0  0  0
   -0.0000    0.0000    0.0000 C   0  0  0  0  0  0  0  0  0  0  0  0
   -0.0000    0.8250    0.0000 C   0  0  0  0  0  0  0  0  0  0  0  0
    0.7145    1.2375    0.0000 C   0  0  0  0  0  0  0  0  0  0  0  0
    1.4289    0.8250    0.0000 C   0  0  0  0  0  0  0  0  0  0  0  0
    2.1434    1.2375    0.0000 O   0  0  0  0  0  0  0  0  0  0  0  0
    2.8579    0.8250    0.0000 C   0  0  0  0  0  0  0  0  0  0  0  0
    3.5724    1.2375    0.0000 C   0  0  3  0  0  0  0  0  0  0  0  0
    3.5724    2.0625    0.0000 O   0  0  0  0  0  0  0  0  0  0  0  0
    4.2868    0.8250    0.0000 C   0  0  0  0  0  0  0  0  0  0  0  0
    5.0013    1.2375    0.0000 O   0  0  0  0  0  0  0  0  0  0  0  0
    1.4289    0.0000    0.0000 C   0  0  0  0  0  0  0  0  0  0  0  0
   -0.1936    0.1512    0.0000 H   0  0  0  0  0  0  0  0  0  0  0  0
   -1.8615   -0.2033    0.0000 H   0  0  0  0  0  0  0  0  0  0  0  0
    0.6807   -3.1610    0.0000 H   0  0  0  0  0  0  0  0  0  0  0  0
   -2.1913   -3.4515    0.0000 H   0  0  0  0  0  0  0  0  0  0  0  0
   -4.0382   -3.2574    0.0000 H   0  0  0  0  0  0  0  0  0  0  0  0
   -3.7020   -0.0586    0.0000 H   0  0  0  0  0  0  0  0  0  0  0  0
   -1.8551   -0.2527    0.0000 H   0  0  0  0  0  0  0  0  0  0  0  0
   -0.8937   -0.5160    0.0000 H   0  0  0  0  0  0  0  0  0  0  0  0
   -0.8937    1.3410    0.0000 H   0  0  0  0  0  0  0  0  0  0  0  0
    0.7145    2.2695    0.0000 H   0  0  0  0  0  0  0  0  0  0  0  0
    2.8579   -0.2450    0.0000 H   0  0  0  0  0  0  0  0  0  0  0  0
    3.7845    0.2900    0.0000 H   0  0  0  0  0  0  0  0  0  0  0  0
    2.6458    1.7725    0.0000 H   0  0  0  0  0  0  0  0  0  0  0  0
    4.4124    2.5475    0.0000 H   0  0  0  0  0  0  0  0  0  0  0  0
    4.2868   -0.2450    0.0000 H   0  0  0  0  0  0  0  0  0  0  0  0
    5.2134    0.2900    0.0000 H   0  0  0  0  0  0  0  0  0  0  0  0
    5.8413    0.7525    0.0000 H   0  0  0  0  0  0  0  0  0  0  0  0
    2.3226   -0.5160    0.0000 H   0  0  0  0  0  0  0  0  0  0  0  0
  1  2  1  0  0  0  0
  1 28  1  0  0  0  0
  1 29  1  0  0  0  0
  2  3  2  0  0  0  0
  2  6  1  0  0  0  0
  3  4  1  0  0  0  0
  3 14  1  0  0  0  0
  4  5  2  0  0  0  0
  4 30  1  0  0  0  0
  5  6  1  0  0  0  0
  6  7  1  0  0  0  0
  7  8  2  0  0  0  0
  7 13  1  0  0  0  0
  8  9  1  0  0  0  0
  8 31  1  0  0  0  0
  9 10  2  0  0  0  0
  9 32  1  0  0  0  0
 10 11  1  0  0  0  0
 10 12  1  0  0  0  0
 12 13  2  0  0  0  0
 12 33  1  0  0  0  0
 13 34  1  0  0  0  0
 14 15  2  0  0  0  0
 14 16  1  0  0  0  0
 16 17  2  0  0  0  0
 16 27  1  0  0  0  0
 17 18  1  0  0  0  0
 17 35  1  0  0  0  0
 18 19  2  0  0  0  0
 18 36  1  0  0  0  0
 19 20  1  0  0  0  0
 19 37  1  0  0  0  0
 20 21  1  0  0  0  0
 20 27  2  0  0  0  0
 21 22  1  0  0  0  0
 22 23  1  0  0  0  0
 22 38  1  0  0  0  0
 22 39  1  0  0  0  0
 23 24  1  0  0  0  0
 23 25  1  0  0  0  0
 23 40  1  0  0  0  0
 24 41  1  0  0  0  0
 25 26  1  0  0  0  0
 25 42  1  0  0  0  0
 25 43  1  0  0  0  0
 26 44  1  0  0  0  0
 27 45  1  0  0  0  0
M  END
>  <DRUGBANK_ID>
DB17106

>  <COMMON_NAME>
SYD-003

>  <CAS_NUMBER>
249937-52-8

>  <UNII>
TE3ESF890C

>  <SYNONYMS>
(5-amino-1-(4-fluoro-phenyl)-1h-pyrazol-4-yl)-(3-(2,3-dihydroxy-propoxy)-phenyl)-methanone; [5-Amino-1-(4-fluoro-phenyl)-1H-pyrazol-4-yl]-[3-(2,3-dihydroxy-propoxy)-phenyl]-methanone; Methanone, (5-amino-1-(4-fluorophenyl)-1h-pyrazol-4-yl)(3-(2,3-dihydroxypropoxy)phenyl)-

$$$$
