
 OpenBabel10282417072D

 59 63  0  0  0  0  0  0  0  0999 V2000
    4.0668    0.6979    0.0000 C   0  0  0  0  0  0  0  0  0  0  0  0
    7.6391    6.0604    0.0000 C   0  0  0  0  0  0  0  0  0  0  0  0
    6.2102    6.0604    0.0000 C   0  0  0  0  0  0  0  0  0  0  0  0
    7.6391    3.5854    0.0000 C   0  0  0  0  0  0  0  0  0  0  0  0
    8.3536    4.8229    0.0000 C   0  0  0  0  0  0  0  0  0  0  0  0
    7.6391    6.8854    0.0000 C   0  0  0  0  0  0  0  0  0  0  0  0
    6.2102    6.8854    0.0000 C   0  0  0  0  0  0  0  0  0  0  0  0
    8.3536    3.1729    0.0000 C   0  0  0  0  0  0  0  0  0  0  0  0
    9.0681    4.4104    0.0000 C   0  0  0  0  0  0  0  0  0  0  0  0
    5.4957    4.8229    0.0000 C   0  0  0  0  0  0  0  0  0  0  0  0
    6.2102    3.5854    0.0000 C   0  0  0  0  0  0  0  0  0  0  0  0
    4.0668    2.3479    0.0000 C   0  0  0  0  0  0  0  0  0  0  0  0
    4.7812    4.4104    0.0000 C   0  0  0  0  0  0  0  0  0  0  0  0
    5.4957    3.1729    0.0000 C   0  0  0  0  0  0  0  0  0  0  0  0
    4.0668    3.1729    0.0000 C   0  0  0  0  0  0  0  0  0  0  0  0
    1.1387    2.1904    0.0000 C   0  0  0  0  0  0  0  0  0  0  0  0
    0.6538    1.5229    0.0000 C   0  0  0  0  0  0  0  0  0  0  0  0
    3.3523    1.1104    0.0000 C   0  0  0  0  0  0  0  0  0  0  0  0
    6.9246    5.6479    0.0000 C   0  0  0  0  0  0  0  0  0  0  0  0
    7.6391    4.4104    0.0000 C   0  0  0  0  0  0  0  0  0  0  0  0
    6.2102    4.4104    0.0000 C   0  0  0  0  0  0  0  0  0  0  0  0
    6.9246    7.2979    0.0000 C   0  0  0  0  0  0  0  0  0  0  0  0
    9.0681    3.5854    0.0000 C   0  0  0  0  0  0  0  0  0  0  0  0
    3.3523    1.9354    0.0000 C   0  0  0  0  0  0  0  0  0  0  0  0
    6.9246    4.8229    0.0000 C   0  0  0  0  0  0  0  0  0  0  0  0
    2.6378    2.3479    0.0000 C   0  0  0  0  0  0  0  0  0  0  0  0
    1.9233    1.1104    0.0000 C   0  0  0  0  0  0  0  0  0  0  0  0
    6.9246    8.1229    0.0000 F   0  0  0  0  0  0  0  0  0  0  0  0
    9.7825    3.1729    0.0000 F   0  0  0  0  0  0  0  0  0  0  0  0
    2.6378    0.6979    0.0000 N   0  0  0  0  0  0  0  0  0  0  0  0
    4.7812    3.5854    0.0000 N   0  0  0  0  0  0  0  0  0  0  0  0
    1.9233    1.9354    0.0000 N   0  0  0  0  0  0  0  0  0  0  0  0
    2.6378    3.1729    0.0000 O   0  0  0  0  0  0  0  0  0  0  0  0
    1.1387    0.8555    0.0000 S   0  0  0  0  0  0  0  0  0  0  0  0
    4.0668   -0.3721    0.0000 H   0  0  0  0  0  0  0  0  0  0  0  0
    4.9934    1.2329    0.0000 H   0  0  0  0  0  0  0  0  0  0  0  0
    4.9935    0.1629    0.0000 H   0  0  0  0  0  0  0  0  0  0  0  0
    8.5328    5.5444    0.0000 H   0  0  0  0  0  0  0  0  0  0  0  0
    5.3165    5.5444    0.0000 H   0  0  0  0  0  0  0  0  0  0  0  0
    6.7454    3.0694    0.0000 H   0  0  0  0  0  0  0  0  0  0  0  0
    8.3536    5.8549    0.0000 H   0  0  0  0  0  0  0  0  0  0  0  0
    8.5328    7.4014    0.0000 H   0  0  0  0  0  0  0  0  0  0  0  0
    5.3165    7.4014    0.0000 H   0  0  0  0  0  0  0  0  0  0  0  0
    8.3536    2.1409    0.0000 H   0  0  0  0  0  0  0  0  0  0  0  0
    9.9618    4.9264    0.0000 H   0  0  0  0  0  0  0  0  0  0  0  0
    5.4957    5.8929    0.0000 H   0  0  0  0  0  0  0  0  0  0  0  0
    6.4223    5.3579    0.0000 H   0  0  0  0  0  0  0  0  0  0  0  0
    7.1368    3.0504    0.0000 H   0  0  0  0  0  0  0  0  0  0  0  0
    7.1368    4.1204    0.0000 H   0  0  0  0  0  0  0  0  0  0  0  0
    4.9934    1.8129    0.0000 H   0  0  0  0  0  0  0  0  0  0  0  0
    4.0668    1.2779    0.0000 H   0  0  0  0  0  0  0  0  0  0  0  0
    3.8546    4.9454    0.0000 H   0  0  0  0  0  0  0  0  0  0  0  0
    3.8546    3.8754    0.0000 H   0  0  0  0  0  0  0  0  0  0  0  0
    5.4957    2.1029    0.0000 H   0  0  0  0  0  0  0  0  0  0  0  0
    4.5691    2.6379    0.0000 H   0  0  0  0  0  0  0  0  0  0  0  0
    3.1401    3.7079    0.0000 H   0  0  0  0  0  0  0  0  0  0  0  0
    4.0668    4.2429    0.0000 H   0  0  0  0  0  0  0  0  0  0  0  0
    0.8198    3.1719    0.0000 H   0  0  0  0  0  0  0  0  0  0  0  0
   -0.3782    1.5229    0.0000 H   0  0  0  0  0  0  0  0  0  0  0  0
  1 35  1  0  0  0  0
  1 36  1  0  0  0  0
  1 37  1  0  0  0  0
  2 38  1  0  0  0  0
  3 39  1  0  0  0  0
  4 40  1  0  0  0  0
  5 41  1  0  0  0  0
  6  2  1  0  0  0  0
  6 42  1  0  0  0  0
  7  3  2  0  0  0  0
  7 43  1  0  0  0  0
  8  4  1  0  0  0  0
  8 44  1  0  0  0  0
  9  5  2  0  0  0  0
  9 45  1  0  0  0  0
 10 46  1  0  0  0  0
 10 47  1  0  0  0  0
 11 48  1  0  0  0  0
 11 49  1  0  0  0  0
 12 50  1  0  0  0  0
 12 51  1  0  0  0  0
 13 10  1  0  0  0  0
 13 52  1  0  0  0  0
 13 53  1  0  0  0  0
 14 11  1  0  0  0  0
 14 54  1  0  0  0  0
 14 55  1  0  0  0  0
 15 12  1  0  0  0  0
 15 56  1  0  0  0  0
 15 57  1  0  0  0  0
 16 58  1  0  0  0  0
 17 16  2  0  0  0  0
 17 59  1  0  0  0  0
 18  1  1  0  0  0  0
 19  2  2  0  0  0  0
 19  3  1  0  0  0  0
 20  4  2  0  0  0  0
 20  5  1  0  0  0  0
 21 10  1  0  0  0  0
 21 11  1  0  0  0  0
 22  6  2  0  0  0  0
 22  7  1  0  0  0  0
 23  8  2  0  0  0  0
 23  9  1  0  0  0  0
 24 12  1  0  0  0  0
 24 18  2  0  0  0  0
 25 19  1  0  0  0  0
 25 20  1  0  0  0  0
 25 21  2  0  0  0  0
 26 24  1  0  0  0  0
 28 22  1  0  0  0  0
 29 23  1  0  0  0  0
 30 18  1  0  0  0  0
 30 27  2  0  0  0  0
 31 13  1  0  0  0  0
 31 14  1  0  0  0  0
 31 15  1  0  0  0  0
 32 16  1  0  0  0  0
 32 26  1  0  0  0  0
 32 27  1  0  0  0  0
 33 26  2  0  0  0  0
 34 17  1  0  0  0  0
 34 27  1  0  0  0  0
M  END
>  <DRUGBANK_ID>
DB12693

>  <COMMON_NAME>
Ritanserin

>  <CAS_NUMBER>
87051-43-2

>  <UNII>
145TFV465S

>  <SYNONYMS>
Ritanserin; ritanserina

$$$$
