
 OpenBabel10282417072D

 55 59  0  0  1  0  0  0  0  0999 V2000
   -2.9134   -5.8070    0.0000 O   0  0  0  0  0  0  0  0  0  0  0  0
   -2.9134   -4.9820    0.0000 C   0  0  0  0  0  0  0  0  0  0  0  0
   -3.6279   -4.5695    0.0000 C   0  0  1  0  0  0  0  0  0  0  0  0
   -3.6279   -3.7445    0.0000 C   0  0  0  0  0  0  0  0  0  0  0  0
   -4.3423   -3.3320    0.0000 O   0  0  0  0  0  0  0  0  0  0  0  0
   -2.9134   -3.3320    0.0000 N   0  0  0  0  0  0  0  0  0  0  0  0
   -2.1597   -3.6676    0.0000 C   0  0  0  0  0  0  0  0  0  0  0  0
   -1.6077   -3.0545    0.0000 C   0  0  0  0  0  0  0  0  0  0  0  0
   -2.0202   -2.3400    0.0000 C   0  0  0  0  0  0  0  0  0  0  0  0
   -2.8272   -2.5116    0.0000 C   0  0  0  0  0  0  0  0  0  0  0  0
   -1.4681   -1.7269    0.0000 C   0  0  0  0  0  0  0  0  0  0  0  0
   -0.7145   -2.0625    0.0000 N   0  0  0  0  0  0  0  0  0  0  0  0
   -0.8007   -2.8830    0.0000 C   0  0  0  0  0  0  0  0  0  0  0  0
    0.0000   -1.6500    0.0000 S   0  0  0  0  0  0  0  0  0  0  0  0
   -0.4125   -0.9355    0.0000 O   0  0  0  0  0  0  0  0  0  0  0  0
    0.4125   -2.3645    0.0000 O   0  0  0  0  0  0  0  0  0  0  0  0
    0.7145   -1.2375    0.0000 C   0  0  0  0  0  0  0  0  0  0  0  0
    0.7145   -0.4125    0.0000 C   0  0  0  0  0  0  0  0  0  0  0  0
    1.4289    0.0000    0.0000 N   0  0  0  0  0  0  0  0  0  0  0  0
    2.1434   -0.4125    0.0000 C   0  0  0  0  0  0  0  0  0  0  0  0
    2.8579    0.0000    0.0000 O   0  0  0  0  0  0  0  0  0  0  0  0
    3.5724   -0.4125    0.0000 C   0  0  0  0  0  0  0  0  0  0  0  0
    3.5724   -1.2375    0.0000 C   0  0  0  0  0  0  0  0  0  0  0  0
    2.8579   -1.6500    0.0000 O   0  0  0  0  0  0  0  0  0  0  0  0
    2.1434   -1.2375    0.0000 C   0  0  0  0  0  0  0  0  0  0  0  0
    1.4289   -1.6500    0.0000 C   0  0  0  0  0  0  0  0  0  0  0  0
   -4.3423   -4.9820    0.0000 C   0  0  0  0  0  0  0  0  0  0  0  0
   -4.3423   -5.8070    0.0000 C   0  0  0  0  0  0  0  0  0  0  0  0
   -5.0568   -6.2195    0.0000 C   0  0  0  0  0  0  0  0  0  0  0  0
   -5.7713   -5.8070    0.0000 C   0  0  0  0  0  0  0  0  0  0  0  0
   -5.7713   -4.9820    0.0000 C   0  0  0  0  0  0  0  0  0  0  0  0
   -5.0568   -4.5695    0.0000 C   0  0  0  0  0  0  0  0  0  0  0  0
   -3.7534   -6.2920    0.0000 H   0  0  0  0  0  0  0  0  0  0  0  0
   -1.9868   -4.4470    0.0000 H   0  0  0  0  0  0  0  0  0  0  0  0
   -2.9134   -3.9120    0.0000 H   0  0  0  0  0  0  0  0  0  0  0  0
   -2.7013   -4.0345    0.0000 H   0  0  0  0  0  0  0  0  0  0  0  0
   -1.9372   -4.7142    0.0000 H   0  0  0  0  0  0  0  0  0  0  0  0
   -1.1262   -3.9445    0.0000 H   0  0  0  0  0  0  0  0  0  0  0  0
   -3.6224   -1.7957    0.0000 H   0  0  0  0  0  0  0  0  0  0  0  0
   -3.8261   -2.8951    0.0000 H   0  0  0  0  0  0  0  0  0  0  0  0
   -1.6905   -0.6803    0.0000 H   0  0  0  0  0  0  0  0  0  0  0  0
   -0.6365   -1.0536    0.0000 H   0  0  0  0  0  0  0  0  0  0  0  0
   -0.0055   -3.5990    0.0000 H   0  0  0  0  0  0  0  0  0  0  0  0
   -1.0777   -3.9165    0.0000 H   0  0  0  0  0  0  0  0  0  0  0  0
   -0.1792    0.1035    0.0000 H   0  0  0  0  0  0  0  0  0  0  0  0
    4.4990    0.1225    0.0000 H   0  0  0  0  0  0  0  0  0  0  0  0
    4.4990   -0.9475    0.0000 H   0  0  0  0  0  0  0  0  0  0  0  0
    4.4990   -1.7725    0.0000 H   0  0  0  0  0  0  0  0  0  0  0  0
    3.5724   -2.3075    0.0000 H   0  0  0  0  0  0  0  0  0  0  0  0
    1.4289   -2.6820    0.0000 H   0  0  0  0  0  0  0  0  0  0  0  0
   -3.4486   -6.3230    0.0000 H   0  0  0  0  0  0  0  0  0  0  0  0
   -5.0568   -7.2515    0.0000 H   0  0  0  0  0  0  0  0  0  0  0  0
   -6.6650   -6.3230    0.0000 H   0  0  0  0  0  0  0  0  0  0  0  0
   -6.6650   -4.4660    0.0000 H   0  0  0  0  0  0  0  0  0  0  0  0
   -5.0568   -3.5375    0.0000 H   0  0  0  0  0  0  0  0  0  0  0  0
  1  2  1  0  0  0  0
  1 33  1  0  0  0  0
  2 34  1  0  0  0  0
  2 35  1  0  0  0  0
  3  2  1  0  0  0  0
  3  4  1  0  0  0  0
  3 27  1  0  0  0  0
  3 36  1  1  0  0  0
  4  5  2  0  0  0  0
  4  6  1  0  0  0  0
  6  7  1  0  0  0  0
  6 10  1  0  0  0  0
  7  8  1  0  0  0  0
  7 37  1  0  0  0  0
  7 38  1  0  0  0  0
  8  9  2  0  0  0  0
  8 13  1  0  0  0  0
  9 10  1  0  0  0  0
  9 11  1  0  0  0  0
 10 39  1  0  0  0  0
 10 40  1  0  0  0  0
 11 12  1  0  0  0  0
 11 41  1  0  0  0  0
 11 42  1  0  0  0  0
 12 13  1  0  0  0  0
 12 14  1  0  0  0  0
 13 43  1  0  0  0  0
 13 44  1  0  0  0  0
 14 15  2  0  0  0  0
 14 16  2  0  0  0  0
 14 17  1  0  0  0  0
 17 18  2  0  0  0  0
 17 26  1  0  0  0  0
 18 19  1  0  0  0  0
 18 45  1  0  0  0  0
 19 20  2  0  0  0  0
 20 21  1  0  0  0  0
 20 25  1  0  0  0  0
 21 22  1  0  0  0  0
 22 23  1  0  0  0  0
 22 46  1  0  0  0  0
 22 47  1  0  0  0  0
 23 24  1  0  0  0  0
 23 48  1  0  0  0  0
 23 49  1  0  0  0  0
 24 25  1  0  0  0  0
 25 26  2  0  0  0  0
 26 50  1  0  0  0  0
 27 28  2  0  0  0  0
 27 32  1  0  0  0  0
 28 29  1  0  0  0  0
 28 51  1  0  0  0  0
 29 30  2  0  0  0  0
 29 52  1  0  0  0  0
 30 31  1  0  0  0  0
 30 53  1  0  0  0  0
 31 32  2  0  0  0  0
 31 54  1  0  0  0  0
 32 55  1  0  0  0  0
M  END
>  <DRUGBANK_ID>
DB18176

>  <COMMON_NAME>
Etavopivat

>  <CAS_NUMBER>
2245053-57-8

>  <UNII>
V4E0A9M44Q

>  <SYNONYMS>
1-propanone, 1-(5-((2,3-dihydro-1,4-dioxino(2,3-b)pyridin-7-yl)sulfonyl)-3,4,5,6-tetrahydropyrrolo(3,4-c)pyrrol-2(1h)-yl)-3-hydroxy-2-phenyl-, (2s)-

$$$$
