
 OpenBabel10282417072D

 12 12  0  0  0  0  0  0  0  0999 V2000
    0.5678    1.9393    0.0000 O   0  0  0  0  0  0  0  0  0  0  0  0
    0.5678    1.1143    0.0000 C   0  0  0  0  0  0  0  0  0  0  0  0
    1.2352    0.6294    0.0000 C   0  0  0  0  0  0  0  0  0  0  0  0
    0.9803   -0.1553    0.0000 C   0  0  0  0  0  0  0  0  0  0  0  0
    0.1553   -0.1553    0.0000 C   0  0  0  0  0  0  0  0  0  0  0  0
   -0.3297   -0.8227    0.0000 O   0  0  0  0  0  0  0  0  0  0  0  0
   -0.0997    0.6294    0.0000 N   0  0  0  0  0  0  0  0  0  0  0  0
    2.2528    0.9601    0.0000 H   0  0  0  0  0  0  0  0  0  0  0  0
    1.9918   -0.1272    0.0000 H   0  0  0  0  0  0  0  0  0  0  0  0
    1.6093   -1.0209    0.0000 H   0  0  0  0  0  0  0  0  0  0  0  0
    0.4945   -1.1087    0.0000 H   0  0  0  0  0  0  0  0  0  0  0  0
   -1.0360    0.9336    0.0000 H   0  0  0  0  0  0  0  0  0  0  0  0
  1  2  2  0  0  0  0
  2  3  1  0  0  0  0
  2  7  1  0  0  0  0
  3  4  1  0  0  0  0
  3  8  1  0  0  0  0
  3  9  1  0  0  0  0
  4  5  1  0  0  0  0
  4 10  1  0  0  0  0
  4 11  1  0  0  0  0
  5  6  2  0  0  0  0
  5  7  1  0  0  0  0
  7 12  1  0  0  0  0
M  END
>  <DRUGBANK_ID>
DB13376

>  <COMMON_NAME>
Succinimide

>  <CAS_NUMBER>
123-56-8

>  <UNII>
10X90O3503

$$$$
