
 OpenBabel10282417072D

 56 59  0  0  0  0  0  0  0  0999 V2000
   -2.0023    0.2062    0.0000 C   0  0  0  0  0  0  0  0  0  0  0  0
   -2.7168   -0.2062    0.0000 C   0  0  0  0  0  0  0  0  0  0  0  0
   -2.7168   -1.0312    0.0000 C   0  0  0  0  0  0  0  0  0  0  0  0
   -2.0023   -1.4437    0.0000 C   0  0  0  0  0  0  0  0  0  0  0  0
   -1.2878   -1.0312    0.0000 C   0  0  0  0  0  0  0  0  0  0  0  0
   -1.2878   -0.2062    0.0000 C   0  0  0  0  0  0  0  0  0  0  0  0
   -3.5014    0.0486    0.0000 C   0  0  0  0  0  0  0  0  0  0  0  0
   -3.9863   -0.6187    0.0000 C   0  0  0  0  0  0  0  0  0  0  0  0
   -3.5014   -1.2861    0.0000 N   0  0  0  0  0  0  0  0  0  0  0  0
   -4.6574    0.8885    0.0000 C   0  0  0  0  0  0  0  0  0  0  0  0
   -5.1424    0.2211    0.0000 C   0  0  0  0  0  0  0  0  0  0  0  0
   -4.8068   -0.5325    0.0000 C   0  0  0  0  0  0  0  0  0  0  0  0
   -3.8370    0.8023    0.0000 C   0  0  0  0  0  0  0  0  0  0  0  0
   -2.0023    1.0312    0.0000 O   0  0  0  0  0  0  0  0  0  0  0  0
   -1.2878    1.4437    0.0000 C   0  0  0  0  0  0  0  0  0  0  0  0
   -0.5734    1.0312    0.0000 C   0  0  3  0  0  0  0  0  0  0  0  0
    0.1410    1.4437    0.0000 C   0  0  0  0  0  0  0  0  0  0  0  0
    0.8555    1.0312    0.0000 N   0  0  0  0  0  0  0  0  0  0  0  0
    1.5699    1.4437    0.0000 C   0  0  0  0  0  0  0  0  0  0  0  0
    2.2845    1.0312    0.0000 C   0  0  0  0  0  0  0  0  0  0  0  0
    2.9989    1.4437    0.0000 O   0  0  0  0  0  0  0  0  0  0  0  0
    3.7135    1.0312    0.0000 C   0  0  0  0  0  0  0  0  0  0  0  0
    4.4278    1.4437    0.0000 C   0  0  0  0  0  0  0  0  0  0  0  0
    3.7135    0.2062    0.0000 C   0  0  0  0  0  0  0  0  0  0  0  0
    4.4278   -0.2062    0.0000 C   0  0  0  0  0  0  0  0  0  0  0  0
    5.1424    0.2062    0.0000 C   0  0  0  0  0  0  0  0  0  0  0  0
    5.1424    1.0312    0.0000 C   0  0  0  0  0  0  0  0  0  0  0  0
    2.9989   -0.2062    0.0000 O   0  0  0  0  0  0  0  0  0  0  0  0
    2.2845    0.2062    0.0000 C   0  0  0  0  0  0  0  0  0  0  0  0
   -0.5734    0.2062    0.0000 O   0  0  0  0  0  0  0  0  0  0  0  0
   -2.0023   -2.4757    0.0000 H   0  0  0  0  0  0  0  0  0  0  0  0
   -0.3941   -1.5472    0.0000 H   0  0  0  0  0  0  0  0  0  0  0  0
   -0.3941    0.3099    0.0000 H   0  0  0  0  0  0  0  0  0  0  0  0
   -3.8056   -2.2224    0.0000 H   0  0  0  0  0  0  0  0  0  0  0  0
   -5.0771    1.8313    0.0000 H   0  0  0  0  0  0  0  0  0  0  0  0
   -6.1687    0.3290    0.0000 H   0  0  0  0  0  0  0  0  0  0  0  0
   -5.4133   -1.3674    0.0000 H   0  0  0  0  0  0  0  0  0  0  0  0
   -3.2304    1.6372    0.0000 H   0  0  0  0  0  0  0  0  0  0  0  0
   -1.2878    2.5137    0.0000 H   0  0  0  0  0  0  0  0  0  0  0  0
   -0.3611    1.9787    0.0000 H   0  0  0  0  0  0  0  0  0  0  0  0
   -0.5734    2.1012    0.0000 H   0  0  0  0  0  0  0  0  0  0  0  0
    0.1410    2.5137    0.0000 H   0  0  0  0  0  0  0  0  0  0  0  0
    1.0676    1.9787    0.0000 H   0  0  0  0  0  0  0  0  0  0  0  0
    0.8555    0.0112    0.0000 H   0  0  0  0  0  0  0  0  0  0  0  0
    1.5698    2.5137    0.0000 H   0  0  0  0  0  0  0  0  0  0  0  0
    2.4965    1.9788    0.0000 H   0  0  0  0  0  0  0  0  0  0  0  0
    2.2846   -0.0388    0.0000 H   0  0  0  0  0  0  0  0  0  0  0  0
    3.2112    0.4962    0.0000 H   0  0  0  0  0  0  0  0  0  0  0  0
    4.4277    2.4757    0.0000 H   0  0  0  0  0  0  0  0  0  0  0  0
    4.4277   -1.2382    0.0000 H   0  0  0  0  0  0  0  0  0  0  0  0
    6.0361   -0.3099    0.0000 H   0  0  0  0  0  0  0  0  0  0  0  0
    6.0361    1.5472    0.0000 H   0  0  0  0  0  0  0  0  0  0  0  0
    2.2844    1.2762    0.0000 H   0  0  0  0  0  0  0  0  0  0  0  0
    1.3579   -0.3289    0.0000 H   0  0  0  0  0  0  0  0  0  0  0  0
    1.3578    0.7411    0.0000 H   0  0  0  0  0  0  0  0  0  0  0  0
   -1.4134   -0.2788    0.0000 H   0  0  0  0  0  0  0  0  0  0  0  0
  1  2  1  0  0  0  0
  1  6  2  0  0  0  0
  1 14  1  0  0  0  0
  2  3  2  0  0  0  0
  3  4  1  0  0  0  0
  4  5  2  0  0  0  0
  4 31  1  0  0  0  0
  5  6  1  0  0  0  0
  5 32  1  0  0  0  0
  6 33  1  0  0  0  0
  7  2  1  0  0  0  0
  7 13  2  0  0  0  0
  8  9  1  0  0  0  0
  8  7  1  0  0  0  0
  9  3  1  0  0  0  0
  9 34  1  0  0  0  0
 10 11  2  0  0  0  0
 10 13  1  0  0  0  0
 10 35  1  0  0  0  0
 11 12  1  0  0  0  0
 11 36  1  0  0  0  0
 12  8  2  0  0  0  0
 12 37  1  0  0  0  0
 13 38  1  0  0  0  0
 14 15  1  0  0  0  0
 15 16  1  0  0  0  0
 15 39  1  0  0  0  0
 15 40  1  0  0  0  0
 16 17  1  0  0  0  0
 16 30  1  0  0  0  0
 16 41  1  0  0  0  0
 17 18  1  0  0  0  0
 17 42  1  0  0  0  0
 17 43  1  0  0  0  0
 18 19  1  0  0  0  0
 18 44  1  0  0  0  0
 19 20  1  0  0  0  0
 19 45  1  0  0  0  0
 19 46  1  0  0  0  0
 20 21  1  0  0  0  0
 20 47  1  0  0  0  0
 20 48  1  0  0  0  0
 21 22  1  0  0  0  0
 22 24  1  0  0  0  0
 23 22  2  0  0  0  0
 23 27  1  0  0  0  0
 23 49  1  0  0  0  0
 24 25  2  0  0  0  0
 24 28  1  0  0  0  0
 25 26  1  0  0  0  0
 25 50  1  0  0  0  0
 26 27  2  0  0  0  0
 26 51  1  0  0  0  0
 27 52  1  0  0  0  0
 28 29  1  0  0  0  0
 29 53  1  0  0  0  0
 29 54  1  0  0  0  0
 29 55  1  0  0  0  0
 30 56  1  0  0  0  0
M  END
>  <DRUGBANK_ID>
DB01136

>  <SECONDARY_ACCESSION_NUMBERS>
APRD00091

>  <COMMON_NAME>
Carvedilol

>  <CAS_NUMBER>
72956-09-3

>  <UNII>
0K47UL67F2

>  <SYNONYMS>
(+-)-1-(Carbazol-4-yloxy)-3-((2-(o-methoxyphenoxy)ethyl)amino)-2-propanol; Carv√©dilol; Carvedilol; Carvedilolum

$$$$
