
 OpenBabel10282417072D

 35 35  0  0  0  0  0  0  0  0999 V2000
   -1.0230   -1.6954    0.0000 C   0  0  0  0  0  0  0  0  0  0  0  0
   -1.4356   -0.4258    0.0000 N   0  0  0  0  0  0  0  0  0  0  0  0
   -1.8481   -1.6954    0.0000 S   0  0  0  0  0  0  0  0  0  0  0  0
   -2.1030   -0.9108    0.0000 C   0  0  0  0  0  0  0  0  0  0  0  0
    0.9420   -1.1921    0.0000 S   0  0  0  0  0  0  0  0  0  0  0  0
    1.6564   -0.7796    0.0000 C   0  0  0  0  0  0  0  0  0  0  0  0
    2.3709   -1.1921    0.0000 C   0  0  0  0  0  0  0  0  0  0  0  0
    3.7999   -1.1921    0.0000 N   0  0  0  0  0  0  0  0  0  0  0  0
    3.0854   -0.7796    0.0000 C   0  0  0  0  0  0  0  0  0  0  0  0
    3.0854    0.0454    0.0000 N   0  0  0  0  0  0  0  0  0  0  0  0
    3.9104    0.8704    0.0000 O   0  0  0  0  0  0  0  0  0  0  0  0
    2.2604    0.8704    0.0000 O   0  0  0  0  0  0  0  0  0  0  0  0
    3.0854    0.8704    0.0000 S   0  0  0  0  0  0  0  0  0  0  0  0
   -2.8999   -0.6973    0.0000 N   0  0  0  0  0  0  0  0  0  0  0  0
   -2.5301    0.6829    0.0000 N   0  0  0  0  0  0  0  0  0  0  0  0
   -3.1134    0.0996    0.0000 C   0  0  0  0  0  0  0  0  0  0  0  0
   -3.9104    0.3130    0.0000 N   0  0  0  0  0  0  0  0  0  0  0  0
   -0.7681   -0.9108    0.0000 C   0  0  0  0  0  0  0  0  0  0  0  0
    0.0287   -0.6973    0.0000 C   0  0  0  0  0  0  0  0  0  0  0  0
    3.0854    1.6954    0.0000 N   0  0  0  0  0  0  0  0  0  0  0  0
   -0.4164   -2.5303    0.0000 H   0  0  0  0  0  0  0  0  0  0  0  0
    1.6564    0.2904    0.0000 H   0  0  0  0  0  0  0  0  0  0  0  0
    2.5830   -0.2446    0.0000 H   0  0  0  0  0  0  0  0  0  0  0  0
    2.3709   -2.2621    0.0000 H   0  0  0  0  0  0  0  0  0  0  0  0
    3.2975   -1.7271    0.0000 H   0  0  0  0  0  0  0  0  0  0  0  0
    3.7999   -2.1766    0.0000 H   0  0  0  0  0  0  0  0  0  0  0  0
    4.6525   -0.6998    0.0000 H   0  0  0  0  0  0  0  0  0  0  0  0
   -1.5791    0.4281    0.0000 H   0  0  0  0  0  0  0  0  0  0  0  0
   -2.7849    1.6339    0.0000 H   0  0  0  0  0  0  0  0  0  0  0  0
   -4.1654    1.2639    0.0000 H   0  0  0  0  0  0  0  0  0  0  0  0
   -4.6064   -0.3833    0.0000 H   0  0  0  0  0  0  0  0  0  0  0  0
    0.1540    0.3653    0.0000 H   0  0  0  0  0  0  0  0  0  0  0  0
    0.9785   -0.2046    0.0000 H   0  0  0  0  0  0  0  0  0  0  0  0
    3.9687    2.2054    0.0000 H   0  0  0  0  0  0  0  0  0  0  0  0
    2.2021    2.2054    0.0000 H   0  0  0  0  0  0  0  0  0  0  0  0
  1 18  2  0  0  0  0
  1 21  1  0  0  0  0
  2  4  2  0  0  0  0
  2 18  1  0  0  0  0
  3  1  1  0  0  0  0
  4  3  1  0  0  0  0
  4 14  1  0  0  0  0
  5  6  1  0  0  0  0
  5 19  1  0  0  0  0
  6  7  1  0  0  0  0
  6 22  1  0  0  0  0
  6 23  1  0  0  0  0
  7  9  1  0  0  0  0
  7 24  1  0  0  0  0
  7 25  1  0  0  0  0
  8 26  1  0  0  0  0
  8 27  1  0  0  0  0
  9  8  1  0  0  0  0
  9 10  2  0  0  0  0
 10 13  1  0  0  0  0
 13 11  2  0  0  0  0
 13 12  2  0  0  0  0
 13 20  1  0  0  0  0
 14 16  2  0  0  0  0
 15 28  1  0  0  0  0
 15 29  1  0  0  0  0
 16 15  1  0  0  0  0
 16 17  1  0  0  0  0
 17 30  1  0  0  0  0
 17 31  1  0  0  0  0
 18 19  1  0  0  0  0
 19 32  1  0  0  0  0
 19 33  1  0  0  0  0
 20 34  1  0  0  0  0
 20 35  1  0  0  0  0
M  END
>  <DRUGBANK_ID>
DB00927

>  <SECONDARY_ACCESSION_NUMBERS>
APRD00296

>  <COMMON_NAME>
Famotidine

>  <CAS_NUMBER>
76824-35-6

>  <UNII>
5QZO15J2Z8

>  <SYNONYMS>
(1-Amino-3-(((2-((diaminomethylene)amino)-4-thiazolyl)methyl)thio)propylidene)sulfamide; 3-(((2-((Aminoiminomethyl)amino)-4-thiazolyl)methyl)thio)-N-(aminosulfonyl)propanimidamide; 3-(((2-((Diaminomethylene)amino)-4-thiazolyl)methyl)thio)-N(sup 2)-sulfamoylpropionamidine; Famotidina; Famotidine; Famotidinum; N-Sulfamoyl-3-((2-guanidinothiazol-4-yl)methylthio)propionamide

$$$$
