583
 OpenBabel10282417072D

 26 25  0  0  1  0  0  0  0  0999 V2000
    3.7935   -0.6419    0.0000 O   0  0  0  0  0  0  0  0  0  0  0  0
    5.9370    0.5957    0.0000 O   0  5  0  0  0  0  0  0  0  0  0  0
    5.2224   -0.6419    0.0000 O   0  0  0  0  0  0  0  0  0  0  0  0
    2.3645    0.1832    0.0000 N   0  3  0  0  0  0  0  0  0  0  0  0
    3.0791    0.5957    0.0000 C   0  0  0  0  0  0  0  0  0  0  0  0
    3.7935    0.1832    0.0000 C   0  0  1  0  0  0  0  0  0  0  0  0
    1.6500   -0.2294    0.0000 C   0  0  0  0  0  0  0  0  0  0  0  0
    1.9520    0.8976    0.0000 C   0  0  0  0  0  0  0  0  0  0  0  0
    2.7770   -0.5313    0.0000 C   0  0  0  0  0  0  0  0  0  0  0  0
    4.5080    0.5957    0.0000 C   0  0  0  0  0  0  0  0  0  0  0  0
    5.2224    0.1832    0.0000 C   0  0  0  0  0  0  0  0  0  0  0  0
    2.9535   -1.1269    0.0000 H   0  0  0  0  0  0  0  0  0  0  0  0
    3.0792    1.6657    0.0000 H   0  0  0  0  0  0  0  0  0  0  0  0
    4.0058    1.1307    0.0000 H   0  0  0  0  0  0  0  0  0  0  0  0
    2.8668   -0.3518    0.0000 H   0  0  0  0  0  0  0  0  0  0  0  0
    0.7233    0.3055    0.0000 H   0  0  0  0  0  0  0  0  0  0  0  0
    1.6501   -1.2994    0.0000 H   0  0  0  0  0  0  0  0  0  0  0  0
    0.7234   -0.7645    0.0000 H   0  0  0  0  0  0  0  0  0  0  0  0
    2.4870    1.8243    0.0000 H   0  0  0  0  0  0  0  0  0  0  0  0
    0.8820    0.8976    0.0000 H   0  0  0  0  0  0  0  0  0  0  0  0
    1.4170    1.8242    0.0000 H   0  0  0  0  0  0  0  0  0  0  0  0
    2.2420   -1.4579    0.0000 H   0  0  0  0  0  0  0  0  0  0  0  0
    3.8470   -0.5313    0.0000 H   0  0  0  0  0  0  0  0  0  0  0  0
    3.3120   -1.4580    0.0000 H   0  0  0  0  0  0  0  0  0  0  0  0
    4.5080    1.6657    0.0000 H   0  0  0  0  0  0  0  0  0  0  0  0
    5.4347    1.1307    0.0000 H   0  0  0  0  0  0  0  0  0  0  0  0
  1 12  1  0  0  0  0
  2 11  1  0  0  0  0
  3 11  2  0  0  0  0
  4  5  1  0  0  0  0
  4  7  1  0  0  0  0
  4  8  1  0  0  0  0
  4  9  1  0  0  0  0
  5  6  1  0  0  0  0
  5 13  1  0  0  0  0
  5 14  1  0  0  0  0
  6  1  1  0  0  0  0
  6 10  1  0  0  0  0
  6 15  1  6  0  0  0
  7 16  1  0  0  0  0
  7 17  1  0  0  0  0
  7 18  1  0  0  0  0
  8 19  1  0  0  0  0
  8 20  1  0  0  0  0
  8 21  1  0  0  0  0
  9 22  1  0  0  0  0
  9 23  1  0  0  0  0
  9 24  1  0  0  0  0
 10 11  1  0  0  0  0
 10 25  1  0  0  0  0
 10 26  1  0  0  0  0
M  CHG  2   2  -1   4   1
M  END
>  <DRUGBANK_ID>
DB00583

>  <SECONDARY_ACCESSION_NUMBERS>
APRD01070

>  <COMMON_NAME>
Levocarnitine

>  <CAS_NUMBER>
541-15-1

>  <UNII>
0G389FZZ9M

>  <SYNONYMS>
(-)-Carnitine; (-)-L-Carnitine; (R)-Carnitine; 3-Carboxy-2-hydroxy-N,N,N-trimethyl-1-propanaminium hydroxide, inner salt; Carnitina; Carnitine; L-Carnitine; Levocarnitin; Levocarnitina; LÃ©vocarnitine; Levocarnitine; Levocarnitinum; Vitamin BT

$$$$
