2UN
 OpenBabel10282417072D

 49 50  0  0  0  0  0  0  0  0999 V2000
    2.1232   -2.7844    0.0000 O   0  0  0  0  0  0  0  0  0  0  0  0
    2.1407   -1.9596    0.0000 S   0  0  0  0  0  0  0  0  0  0  0  0
    2.9655   -1.9771    0.0000 O   0  0  0  0  0  0  0  0  0  0  0  0
    1.3159   -1.9421    0.0000 O   0  0  0  0  0  0  0  0  0  0  0  0
    2.1582   -1.1348    0.0000 N   0  0  0  0  0  0  0  0  0  0  0  0
    1.4526   -0.7072    0.0000 C   0  0  0  0  0  0  0  0  0  0  0  0
    0.7296   -1.1045    0.0000 C   0  0  0  0  0  0  0  0  0  0  0  0
    1.4702    0.1176    0.0000 C   0  0  0  0  0  0  0  0  0  0  0  0
    0.7646    0.5452    0.0000 C   0  0  0  0  0  0  0  0  0  0  0  0
    0.0415    0.1479    0.0000 C   0  0  0  0  0  0  0  0  0  0  0  0
    0.0240   -0.6769    0.0000 C   0  0  0  0  0  0  0  0  0  0  0  0
   -0.6640    0.5755    0.0000 C   0  0  0  0  0  0  0  0  0  0  0  0
   -1.3871    0.1783    0.0000 C   0  0  0  0  0  0  0  0  0  0  0  0
   -2.1101   -0.2190    0.0000 C   0  0  0  0  0  0  0  0  0  0  0  0
   -2.8157    0.2086    0.0000 O   0  0  0  0  0  0  0  0  0  0  0  0
   -2.1277   -1.0438    0.0000 O   0  0  0  0  0  0  0  0  0  0  0  0
   -2.8507   -1.4410    0.0000 C   0  0  0  0  0  0  0  0  0  0  0  0
   -0.9898   -0.5448    0.0000 C   0  0  0  0  0  0  0  0  0  0  0  0
   -0.3328   -1.0438    0.0000 O   0  0  0  0  0  0  0  0  0  0  0  0
   -0.4365   -1.8622    0.0000 C   0  0  0  0  0  0  0  0  0  0  0  0
   -1.4174   -1.2503    0.0000 O   0  0  0  0  0  0  0  0  0  0  0  0
   -1.7843    0.9013    0.0000 C   0  0  0  0  0  0  0  0  0  0  0  0
   -1.3567    1.6069    0.0000 C   0  0  0  0  0  0  0  0  0  0  0  0
   -1.7540    2.3300    0.0000 C   0  0  0  0  0  0  0  0  0  0  0  0
   -1.3264    3.0355    0.0000 C   0  0  0  0  0  0  0  0  0  0  0  0
   -0.5016    3.0180    0.0000 C   0  0  0  0  0  0  0  0  0  0  0  0
   -0.1043    2.2949    0.0000 C   0  0  0  0  0  0  0  0  0  0  0  0
   -0.5319    1.5894    0.0000 C   0  0  0  0  0  0  0  0  0  0  0  0
    0.8488   -1.0920    0.0000 H   0  0  0  0  0  0  0  0  0  0  0  0
    3.0211   -0.6608    0.0000 H   0  0  0  0  0  0  0  0  0  0  0  0
    0.7077   -2.1363    0.0000 H   0  0  0  0  0  0  0  0  0  0  0  0
    2.3747    0.6145    0.0000 H   0  0  0  0  0  0  0  0  0  0  0  0
    0.7865    1.5770    0.0000 H   0  0  0  0  0  0  0  0  0  0  0  0
   -0.8805   -1.1738    0.0000 H   0  0  0  0  0  0  0  0  0  0  0  0
   -0.6412    1.6453    0.0000 H   0  0  0  0  0  0  0  0  0  0  0  0
   -1.5790    1.1301    0.0000 H   0  0  0  0  0  0  0  0  0  0  0  0
   -3.7658   -0.8864    0.0000 H   0  0  0  0  0  0  0  0  0  0  0  0
   -2.8734   -2.5108    0.0000 H   0  0  0  0  0  0  0  0  0  0  0  0
   -3.7885   -1.9562    0.0000 H   0  0  0  0  0  0  0  0  0  0  0  0
   -1.4230   -2.2765    0.0000 H   0  0  0  0  0  0  0  0  0  0  0  0
    0.4155   -2.5094    0.0000 H   0  0  0  0  0  0  0  0  0  0  0  0
   -0.5710   -2.9237    0.0000 H   0  0  0  0  0  0  0  0  0  0  0  0
   -2.8541    0.9240    0.0000 H   0  0  0  0  0  0  0  0  0  0  0  0
   -2.2995    1.8391    0.0000 H   0  0  0  0  0  0  0  0  0  0  0  0
   -2.7858    2.3519    0.0000 H   0  0  0  0  0  0  0  0  0  0  0  0
   -1.8233    3.9400    0.0000 H   0  0  0  0  0  0  0  0  0  0  0  0
    0.0332    3.9006    0.0000 H   0  0  0  0  0  0  0  0  0  0  0  0
    0.9275    2.2730    0.0000 H   0  0  0  0  0  0  0  0  0  0  0  0
   -0.0350    0.6849    0.0000 H   0  0  0  0  0  0  0  0  0  0  0  0
  1  2  2  0  0  0  0
  2  3  2  0  0  0  0
  2  4  1  0  0  0  0
  2  5  1  0  0  0  0
  4 29  1  0  0  0  0
  5  6  1  0  0  0  0
  5 30  1  0  0  0  0
  6  7  2  0  0  0  0
  6  8  1  0  0  0  0
  7 11  1  0  0  0  0
  7 31  1  0  0  0  0
  8  9  2  0  0  0  0
  8 32  1  0  0  0  0
  9 10  1  0  0  0  0
  9 33  1  0  0  0  0
 10 11  2  0  0  0  0
 10 12  1  0  0  0  0
 11 34  1  0  0  0  0
 12 13  1  0  0  0  0
 12 35  1  0  0  0  0
 12 36  1  0  0  0  0
 13 14  1  0  0  0  0
 13 18  1  0  0  0  0
 13 22  1  0  0  0  0
 14 15  2  0  0  0  0
 14 16  1  0  0  0  0
 16 17  1  0  0  0  0
 17 37  1  0  0  0  0
 17 38  1  0  0  0  0
 17 39  1  0  0  0  0
 18 19  1  0  0  0  0
 18 21  2  0  0  0  0
 19 20  1  0  0  0  0
 20 40  1  0  0  0  0
 20 41  1  0  0  0  0
 20 42  1  0  0  0  0
 22 23  1  0  0  0  0
 22 43  1  0  0  0  0
 22 44  1  0  0  0  0
 23 24  1  0  0  0  0
 23 28  2  0  0  0  0
 24 25  2  0  0  0  0
 24 45  1  0  0  0  0
 25 26  1  0  0  0  0
 25 46  1  0  0  0  0
 26 27  2  0  0  0  0
 26 47  1  0  0  0  0
 27 28  1  0  0  0  0
 27 48  1  0  0  0  0
 28 49  1  0  0  0  0
M  END
>  <DRUGBANK_ID>
DB06989

>  <COMMON_NAME>
{4-[2-BENZYL-3-METHOXY-2-(METHOXYCARBONYL)-3-OXOPROPYL]PHENYL}SULFAMIC ACID

$$$$
