
 OpenBabel10282417072D

305310  0  0  1  0  0  0  0  0999 V2000
   -6.5243   -5.2997    0.0000 C   0  0  0  0  0  0  0  0  0  0  0  0
   -5.8569   -4.8148    0.0000 C   0  0  2  0  0  0  0  0  0  0  0  0
   -5.1032   -5.1504    0.0000 N   0  0  0  0  0  0  0  0  0  0  0  0
   -5.0169   -5.9708    0.0000 C   0  0  0  0  0  0  0  0  0  0  0  0
   -4.2632   -6.3064    0.0000 C   0  0  1  0  0  0  0  0  0  0  0  0
   -3.5958   -5.8215    0.0000 N   0  0  0  0  0  0  0  0  0  0  0  0
   -2.8422   -6.1571    0.0000 C   0  0  0  0  0  0  0  0  0  0  0  0
   -2.1747   -5.6721    0.0000 C   0  0  2  0  0  0  0  0  0  0  0  0
   -2.2610   -4.8516    0.0000 C   0  0  0  0  0  0  0  0  0  0  0  0
   -3.0146   -4.5161    0.0000 C   0  0  0  0  0  0  0  0  0  0  0  0
   -3.1009   -3.6956    0.0000 C   0  0  0  0  0  0  0  0  0  0  0  0
   -3.8545   -3.3601    0.0000 C   0  0  0  0  0  0  0  0  0  0  0  0
   -4.5220   -3.8450    0.0000 C   0  0  0  0  0  0  0  0  0  0  0  0
   -4.4358   -4.6654    0.0000 C   0  0  0  0  0  0  0  0  0  0  0  0
   -3.6821   -5.0010    0.0000 C   0  0  0  0  0  0  0  0  0  0  0  0
   -1.4211   -6.0076    0.0000 N   0  0  0  0  0  0  0  0  0  0  0  0
   -0.7537   -5.5228    0.0000 C   0  0  0  0  0  0  0  0  0  0  0  0
    0.0000   -5.8583    0.0000 C   0  0  2  0  0  0  0  0  0  0  0  0
    0.0862   -6.6788    0.0000 C   0  0  0  0  0  0  0  0  0  0  0  0
   -0.5812   -7.1637    0.0000 C   0  0  0  0  0  0  0  0  0  0  0  0
   -1.3658   -6.9088    0.0000 C   0  0  0  0  0  0  0  0  0  0  0  0
   -1.8507   -7.5762    0.0000 N   0  0  0  0  0  0  0  0  0  0  0  0
   -1.3657   -8.2436    0.0000 C   0  0  0  0  0  0  0  0  0  0  0  0
   -0.5812   -7.9887    0.0000 N   0  0  0  0  0  0  0  0  0  0  0  0
    0.6673   -5.3734    0.0000 N   0  0  0  0  0  0  0  0  0  0  0  0
    1.4210   -5.7089    0.0000 C   0  0  0  0  0  0  0  0  0  0  0  0
    2.0885   -5.2240    0.0000 C   0  0  1  0  0  0  0  0  0  0  0  0
    2.8422   -5.5596    0.0000 N   0  0  0  0  0  0  0  0  0  0  0  0
    3.5096   -5.0747    0.0000 C   0  0  0  0  0  0  0  0  0  0  0  0
    4.2633   -5.4102    0.0000 C   0  0  1  0  0  0  0  0  0  0  0  0
    4.9307   -4.9253    0.0000 N   0  0  0  0  0  0  0  0  0  0  0  0
    5.6843   -5.2608    0.0000 C   0  0  0  0  0  0  0  0  0  0  0  0
    6.3518   -4.7759    0.0000 C   0  0  1  0  0  0  0  0  0  0  0  0
    7.1054   -5.1114    0.0000 N   0  0  0  0  0  0  0  0  0  0  0  0
    7.7728   -4.6265    0.0000 C   0  0  0  0  0  0  0  0  0  0  0  0
    8.5265   -4.9621    0.0000 C   0  0  2  0  0  0  0  0  0  0  0  0
    9.1940   -4.4771    0.0000 C   0  0  0  0  0  0  0  0  0  0  0  0
    9.9477   -4.8127    0.0000 C   0  0  0  0  0  0  0  0  0  0  0  0
   10.0339   -5.6331    0.0000 C   0  0  0  0  0  0  0  0  0  0  0  0
   10.7875   -5.9687    0.0000 C   0  0  0  0  0  0  0  0  0  0  0  0
   11.4550   -5.4838    0.0000 C   0  0  0  0  0  0  0  0  0  0  0  0
   11.3688   -4.6633    0.0000 C   0  0  0  0  0  0  0  0  0  0  0  0
   10.6151   -4.3278    0.0000 C   0  0  0  0  0  0  0  0  0  0  0  0
   12.2087   -5.8193    0.0000 O   0  0  0  0  0  0  0  0  0  0  0  0
    8.6128   -5.7825    0.0000 N   0  0  0  0  0  0  0  0  0  0  0  0
    7.9454   -6.2675    0.0000 C   0  0  0  0  0  0  0  0  0  0  0  0
    8.0316   -7.0879    0.0000 C   0  0  0  0  0  0  0  0  0  0  0  0
    7.3641   -7.5728    0.0000 C   0  0  0  0  0  0  0  0  0  0  0  0
    6.6105   -7.2373    0.0000 N   0  0  0  0  0  0  0  0  0  0  0  0
    7.1917   -5.9319    0.0000 O   0  0  0  0  0  0  0  0  0  0  0  0
    7.6866   -3.8061    0.0000 O   0  0  0  0  0  0  0  0  0  0  0  0
    6.2655   -3.9554    0.0000 C   0  0  0  0  0  0  0  0  0  0  0  0
    6.9330   -3.4705    0.0000 O   0  0  0  0  0  0  0  0  0  0  0  0
    5.7706   -6.0813    0.0000 O   0  0  0  0  0  0  0  0  0  0  0  0
    4.3494   -6.2307    0.0000 C   0  0  0  0  0  0  0  0  0  0  0  0
    5.1031   -6.5662    0.0000 C   0  0  0  0  0  0  0  0  0  0  0  0
    5.1894   -7.3867    0.0000 S   0  0  0  0  0  0  0  0  0  0  0  0
    4.5220   -7.8716    0.0000 C   0  0  0  0  0  0  0  0  0  0  0  0
    3.4233   -4.2541    0.0000 O   0  0  0  0  0  0  0  0  0  0  0  0
    2.0022   -4.4036    0.0000 C   0  0  0  0  0  0  0  0  0  0  0  0
    1.2486   -4.0680    0.0000 C   0  0  0  0  0  0  0  0  0  0  0  0
    1.1623   -3.2475    0.0000 C   0  0  0  0  0  0  0  0  0  0  0  0
    0.4086   -2.9120    0.0000 O   0  0  0  0  0  0  0  0  0  0  0  0
    1.8298   -2.7626    0.0000 O   0  0  0  0  0  0  0  0  0  0  0  0
    1.5073   -6.5294    0.0000 O   0  0  0  0  0  0  0  0  0  0  0  0
   -0.8398   -4.7023    0.0000 O   0  0  0  0  0  0  0  0  0  0  0  0
   -2.7560   -6.9775    0.0000 O   0  0  0  0  0  0  0  0  0  0  0  0
   -4.1770   -7.1268    0.0000 C   0  0  0  0  0  0  0  0  0  0  0  0
   -4.8445   -7.6118    0.0000 C   0  0  0  0  0  0  0  0  0  0  0  0
   -5.5981   -7.2763    0.0000 C   0  0  0  0  0  0  0  0  0  0  0  0
   -6.2655   -7.7611    0.0000 N   0  0  0  0  0  0  0  0  0  0  0  0
   -7.0192   -7.4256    0.0000 C   0  0  0  0  0  0  0  0  0  0  0  0
   -7.1055   -6.6051    0.0000 N   0  0  0  0  0  0  0  0  0  0  0  0
   -7.6867   -7.9106    0.0000 N   0  0  0  0  0  0  0  0  0  0  0  0
   -5.6844   -6.4557    0.0000 O   0  0  0  0  0  0  0  0  0  0  0  0
   -5.9430   -3.9943    0.0000 C   0  0  0  0  0  0  0  0  0  0  0  0
   -5.2756   -3.5094    0.0000 N   0  0  0  0  0  0  0  0  0  0  0  0
   -5.3618   -2.6890    0.0000 C   0  0  0  0  0  0  0  0  0  0  0  0
   -4.6944   -2.2040    0.0000 C   0  0  0  0  0  0  0  0  0  0  0  0
   -4.7807   -1.3835    0.0000 N   0  0  0  0  0  0  0  0  0  0  0  0
   -4.1132   -0.8986    0.0000 C   0  0  2  0  0  0  0  0  0  0  0  0
   -4.1995   -0.0781    0.0000 C   0  0  0  0  0  0  0  0  0  0  0  0
   -4.9531    0.2573    0.0000 O   0  0  0  0  0  0  0  0  0  0  0  0
   -3.5321    0.4067    0.0000 N   0  0  0  0  0  0  0  0  0  0  0  0
   -3.5321    1.2317    0.0000 C   0  0  2  0  0  0  0  0  0  0  0  0
   -4.1995    1.7166    0.0000 C   0  0  0  0  0  0  0  0  0  0  0  0
   -4.1132    2.5371    0.0000 N   0  0  0  0  0  0  0  0  0  0  0  0
   -4.7807    3.0220    0.0000 C   0  0  2  0  0  0  0  0  0  0  0  0
   -4.6944    3.8424    0.0000 C   0  0  0  0  0  0  0  0  0  0  0  0
   -5.3619    4.3274    0.0000 N   0  0  0  0  0  0  0  0  0  0  0  0
   -6.1155    3.9918    0.0000 C   0  0  0  0  0  0  0  0  0  0  0  0
   -6.7830    4.4767    0.0000 C   0  0  0  0  0  0  0  0  0  0  0  0
   -7.5367    4.1412    0.0000 N   0  0  0  0  0  0  0  0  0  0  0  0
   -8.2041    4.6261    0.0000 C   0  0  2  0  0  0  0  0  0  0  0  0
   -8.1179    5.4466    0.0000 C   0  0  0  0  0  0  0  0  0  0  0  0
   -8.7853    5.9315    0.0000 N   0  0  0  0  0  0  0  0  0  0  0  0
   -8.6990    6.7519    0.0000 C   0  0  2  0  0  0  0  0  0  0  0  0
   -7.9454    7.0875    0.0000 C   0  0  0  0  0  0  0  0  0  0  0  0
   -7.2779    6.6026    0.0000 N   0  0  0  0  0  0  0  0  0  0  0  0
   -6.5243    6.9382    0.0000 C   0  0  2  0  0  0  0  0  0  0  0  0
   -6.4381    7.7586    0.0000 C   0  0  0  0  0  0  0  0  0  0  0  0
   -5.6844    8.0942    0.0000 N   0  0  0  0  0  0  0  0  0  0  0  0
   -5.0170    7.6093    0.0000 C   0  0  0  0  0  0  0  0  0  0  0  0
   -4.2633    7.9448    0.0000 C   0  0  0  0  0  0  0  0  0  0  0  0
   -3.5958    7.4599    0.0000 C   0  0  0  0  0  0  0  0  0  0  0  0
   -2.8422    7.7955    0.0000 C   0  0  0  0  0  0  0  0  0  0  0  0
   -2.1747    7.3106    0.0000 N   0  0  0  0  0  0  0  0  0  0  0  0
   -7.1055    8.2436    0.0000 O   0  0  0  0  0  0  0  0  0  0  0  0
   -5.8569    6.4533    0.0000 C   0  0  0  0  0  0  0  0  0  0  0  0
   -5.1032    6.7888    0.0000 C   0  0  0  0  0  0  0  0  0  0  0  0
   -4.4358    6.3039    0.0000 C   0  0  0  0  0  0  0  0  0  0  0  0
   -3.6821    6.6395    0.0000 C   0  0  0  0  0  0  0  0  0  0  0  0
   -3.0146    6.1545    0.0000 N   0  0  0  0  0  0  0  0  0  0  0  0
   -7.8592    7.9080    0.0000 O   0  0  0  0  0  0  0  0  0  0  0  0
   -9.3665    7.2368    0.0000 C   0  0  0  0  0  0  0  0  0  0  0  0
  -10.1202    6.9013    0.0000 C   0  0  0  0  0  0  0  0  0  0  0  0
  -10.7876    7.3862    0.0000 C   0  0  0  0  0  0  0  0  0  0  0  0
  -11.5413    7.0507    0.0000 C   0  0  0  0  0  0  0  0  0  0  0  0
  -12.2087    7.5356    0.0000 N   0  0  0  0  0  0  0  0  0  0  0  0
   -7.3642    5.7821    0.0000 O   0  0  0  0  0  0  0  0  0  0  0  0
   -8.9577    4.2905    0.0000 C   0  0  0  0  0  0  0  0  0  0  0  0
   -9.6252    4.7754    0.0000 C   0  0  0  0  0  0  0  0  0  0  0  0
  -10.3788    4.4398    0.0000 C   0  0  0  0  0  0  0  0  0  0  0  0
  -11.0463    4.9248    0.0000 C   0  0  0  0  0  0  0  0  0  0  0  0
  -11.7999    4.5893    0.0000 N   0  0  0  0  0  0  0  0  0  0  0  0
   -6.6967    5.2972    0.0000 O   0  0  0  0  0  0  0  0  0  0  0  0
   -3.9407    4.1780    0.0000 O   0  0  0  0  0  0  0  0  0  0  0  0
   -5.5344    2.6864    0.0000 C   0  0  0  0  0  0  0  0  0  0  0  0
   -6.2018    3.1713    0.0000 C   0  0  0  0  0  0  0  0  0  0  0  0
   -5.6206    1.8660    0.0000 C   0  0  0  0  0  0  0  0  0  0  0  0
   -4.9531    1.3810    0.0000 O   0  0  0  0  0  0  0  0  0  0  0  0
   -2.7474    1.4866    0.0000 C   0  0  0  0  0  0  0  0  0  0  0  0
   -2.2625    0.8191    0.0000 C   0  0  0  0  0  0  0  0  0  0  0  0
   -2.7474    0.1517    0.0000 C   0  0  0  0  0  0  0  0  0  0  0  0
   -3.3595   -1.2342    0.0000 C   0  0  0  0  0  0  0  0  0  0  0  0
   -3.2733   -2.0547    0.0000 C   0  0  0  0  0  0  0  0  0  0  0  0
   -2.5197   -2.3902    0.0000 C   0  0  0  0  0  0  0  0  0  0  0  0
   -2.4335   -3.2107    0.0000 C   0  0  0  0  0  0  0  0  0  0  0  0
   -1.6798   -3.5462    0.0000 N   0  0  0  0  0  0  0  0  0  0  0  0
   -3.9407   -2.5396    0.0000 O   0  0  0  0  0  0  0  0  0  0  0  0
   -6.6967   -3.6587    0.0000 O   0  0  0  0  0  0  0  0  0  0  0  0
   -7.2779   -4.9642    0.0000 C   0  0  0  0  0  0  0  0  0  0  0  0
   -7.9924   -5.3767    0.0000 C   0  0  0  0  0  0  0  0  0  0  0  0
   -8.6055   -4.8246    0.0000 C   0  0  0  0  0  0  0  0  0  0  0  0
   -8.2699   -4.0709    0.0000 N   0  0  0  0  0  0  0  0  0  0  0  0
   -7.4495   -4.1572    0.0000 C   0  0  0  0  0  0  0  0  0  0  0  0
   -9.3901   -5.0796    0.0000 C   0  0  0  0  0  0  0  0  0  0  0  0
   -9.5617   -5.8865    0.0000 C   0  0  0  0  0  0  0  0  0  0  0  0
   -8.9485   -6.4385    0.0000 C   0  0  0  0  0  0  0  0  0  0  0  0
   -8.1639   -6.1836    0.0000 C   0  0  0  0  0  0  0  0  0  0  0  0
   -6.4124   -6.3638    0.0000 H   0  0  0  0  0  0  0  0  0  0  0  0
   -7.3899   -5.9286    0.0000 H   0  0  0  0  0  0  0  0  0  0  0  0
   -6.8344   -4.3795    0.0000 H   0  0  0  0  0  0  0  0  0  0  0  0
   -4.3067   -4.5717    0.0000 H   0  0  0  0  0  0  0  0  0  0  0  0
   -5.1289   -6.9353    0.0000 H   0  0  0  0  0  0  0  0  0  0  0  0
   -3.6987   -4.8424    0.0000 H   0  0  0  0  0  0  0  0  0  0  0  0
   -3.1522   -5.2369    0.0000 H   0  0  0  0  0  0  0  0  0  0  0  0
   -1.3954   -4.2226    0.0000 H   0  0  0  0  0  0  0  0  0  0  0  0
   -2.3729   -3.7875    0.0000 H   0  0  0  0  0  0  0  0  0  0  0  0
   -2.2660   -3.0890    0.0000 H   0  0  0  0  0  0  0  0  0  0  0  0
   -3.9624   -2.3338    0.0000 H   0  0  0  0  0  0  0  0  0  0  0  0
   -5.4648   -3.4252    0.0000 H   0  0  0  0  0  0  0  0  0  0  0  0
   -5.2707   -5.2720    0.0000 H   0  0  0  0  0  0  0  0  0  0  0  0
   -3.5743   -6.0274    0.0000 H   0  0  0  0  0  0  0  0  0  0  0  0
   -1.3182   -6.9867    0.0000 H   0  0  0  0  0  0  0  0  0  0  0  0
   -0.8656   -6.4872    0.0000 H   0  0  0  0  0  0  0  0  0  0  0  0
    1.0637   -7.1140    0.0000 H   0  0  0  0  0  0  0  0  0  0  0  0
    0.1980   -7.7429    0.0000 H   0  0  0  0  0  0  0  0  0  0  0  0
   -1.6847   -5.9273    0.0000 H   0  0  0  0  0  0  0  0  0  0  0  0
   -2.8352   -7.5762    0.0000 H   0  0  0  0  0  0  0  0  0  0  0  0
   -1.6846   -9.2251    0.0000 H   0  0  0  0  0  0  0  0  0  0  0  0
    0.5643   -4.3943    0.0000 H   0  0  0  0  0  0  0  0  0  0  0  0
    1.1110   -4.7888    0.0000 H   0  0  0  0  0  0  0  0  0  0  0  0
    2.9451   -6.5387    0.0000 H   0  0  0  0  0  0  0  0  0  0  0  0
    3.3976   -6.0391    0.0000 H   0  0  0  0  0  0  0  0  0  0  0  0
    4.8278   -3.9462    0.0000 H   0  0  0  0  0  0  0  0  0  0  0  0
    5.3743   -4.3407    0.0000 H   0  0  0  0  0  0  0  0  0  0  0  0
    7.2083   -6.0905    0.0000 H   0  0  0  0  0  0  0  0  0  0  0  0
    7.6609   -5.5911    0.0000 H   0  0  0  0  0  0  0  0  0  0  0  0
    9.0822   -3.4130    0.0000 H   0  0  0  0  0  0  0  0  0  0  0  0
   10.0597   -3.8482    0.0000 H   0  0  0  0  0  0  0  0  0  0  0  0
    9.1990   -6.2396    0.0000 H   0  0  0  0  0  0  0  0  0  0  0  0
   10.8953   -6.9951    0.0000 H   0  0  0  0  0  0  0  0  0  0  0  0
   12.2037   -4.0567    0.0000 H   0  0  0  0  0  0  0  0  0  0  0  0
   10.5072   -3.3015    0.0000 H   0  0  0  0  0  0  0  0  0  0  0  0
   12.3067   -6.7512    0.0000 H   0  0  0  0  0  0  0  0  0  0  0  0
    9.5122   -6.1828    0.0000 H   0  0  0  0  0  0  0  0  0  0  0  0
    9.0091   -7.5232    0.0000 H   0  0  0  0  0  0  0  0  0  0  0  0
    8.1434   -8.1520    0.0000 H   0  0  0  0  0  0  0  0  0  0  0  0
    7.4759   -8.6369    0.0000 H   0  0  0  0  0  0  0  0  0  0  0  0
    6.4985   -8.2017    0.0000 H   0  0  0  0  0  0  0  0  0  0  0  0
    6.5039   -6.2229    0.0000 H   0  0  0  0  0  0  0  0  0  0  0  0
    5.7853   -7.8369    0.0000 H   0  0  0  0  0  0  0  0  0  0  0  0
    5.2880   -3.5202    0.0000 H   0  0  0  0  0  0  0  0  0  0  0  0
    6.1537   -2.8913    0.0000 H   0  0  0  0  0  0  0  0  0  0  0  0
    7.8191   -3.8651    0.0000 H   0  0  0  0  0  0  0  0  0  0  0  0
    3.4837   -6.8596    0.0000 H   0  0  0  0  0  0  0  0  0  0  0  0
    4.4613   -7.2948    0.0000 H   0  0  0  0  0  0  0  0  0  0  0  0
    5.9687   -5.9372    0.0000 H   0  0  0  0  0  0  0  0  0  0  0  0
    6.0806   -7.0013    0.0000 H   0  0  0  0  0  0  0  0  0  0  0  0
    3.5445   -7.4364    0.0000 H   0  0  0  0  0  0  0  0  0  0  0  0
    4.6339   -8.9357    0.0000 H   0  0  0  0  0  0  0  0  0  0  0  0
    3.6564   -8.5005    0.0000 H   0  0  0  0  0  0  0  0  0  0  0  0
    2.8678   -3.7747    0.0000 H   0  0  0  0  0  0  0  0  0  0  0  0
    1.8904   -3.3395    0.0000 H   0  0  0  0  0  0  0  0  0  0  0  0
    0.3829   -4.6969    0.0000 H   0  0  0  0  0  0  0  0  0  0  0  0
    0.2711   -3.6328    0.0000 H   0  0  0  0  0  0  0  0  0  0  0  0
    0.3106   -1.9801    0.0000 H   0  0  0  0  0  0  0  0  0  0  0  0
   -3.1995   -7.5620    0.0000 H   0  0  0  0  0  0  0  0  0  0  0  0
   -4.0651   -8.1909    0.0000 H   0  0  0  0  0  0  0  0  0  0  0  0
   -4.7326   -8.6759    0.0000 H   0  0  0  0  0  0  0  0  0  0  0  0
   -5.7101   -8.2408    0.0000 H   0  0  0  0  0  0  0  0  0  0  0  0
   -5.7099   -6.2122    0.0000 H   0  0  0  0  0  0  0  0  0  0  0  0
   -6.5756   -6.8410    0.0000 H   0  0  0  0  0  0  0  0  0  0  0  0
   -6.1626   -8.7402    0.0000 H   0  0  0  0  0  0  0  0  0  0  0  0
   -6.3091   -6.0264    0.0000 H   0  0  0  0  0  0  0  0  0  0  0  0
   -8.5861   -7.5102    0.0000 H   0  0  0  0  0  0  0  0  0  0  0  0
   -7.5838   -8.8897    0.0000 H   0  0  0  0  0  0  0  0  0  0  0  0
   -4.3762   -3.9098    0.0000 H   0  0  0  0  0  0  0  0  0  0  0  0
   -6.3393   -2.2538    0.0000 H   0  0  0  0  0  0  0  0  0  0  0  0
   -5.4737   -1.6249    0.0000 H   0  0  0  0  0  0  0  0  0  0  0  0
   -5.6801   -0.9831    0.0000 H   0  0  0  0  0  0  0  0  0  0  0  0
   -5.0907   -0.4634    0.0000 H   0  0  0  0  0  0  0  0  0  0  0  0
   -4.4855    0.7459    0.0000 H   0  0  0  0  0  0  0  0  0  0  0  0
   -3.2138    2.9375    0.0000 H   0  0  0  0  0  0  0  0  0  0  0  0
   -3.8032    3.4572    0.0000 H   0  0  0  0  0  0  0  0  0  0  0  0
   -5.2590    5.3065    0.0000 H   0  0  0  0  0  0  0  0  0  0  0  0
   -6.2273    2.9277    0.0000 H   0  0  0  0  0  0  0  0  0  0  0  0
   -7.0930    3.5565    0.0000 H   0  0  0  0  0  0  0  0  0  0  0  0
   -7.6396    3.1621    0.0000 H   0  0  0  0  0  0  0  0  0  0  0  0
   -7.2266    5.0613    0.0000 H   0  0  0  0  0  0  0  0  0  0  0  0
   -9.6847    5.5311    0.0000 H   0  0  0  0  0  0  0  0  0  0  0  0
   -7.8334    6.1230    0.0000 H   0  0  0  0  0  0  0  0  0  0  0  0
   -7.3807    5.6235    0.0000 H   0  0  0  0  0  0  0  0  0  0  0  0
   -7.3900    7.5671    0.0000 H   0  0  0  0  0  0  0  0  0  0  0  0
   -5.5815    9.0733    0.0000 H   0  0  0  0  0  0  0  0  0  0  0  0
   -5.1289    6.5452    0.0000 H   0  0  0  0  0  0  0  0  0  0  0  0
   -4.1514    6.9803    0.0000 H   0  0  0  0  0  0  0  0  0  0  0  0
   -4.1514    9.0089    0.0000 H   0  0  0  0  0  0  0  0  0  0  0  0
   -3.2858    8.3800    0.0000 H   0  0  0  0  0  0  0  0  0  0  0  0
   -3.7076    6.3958    0.0000 H   0  0  0  0  0  0  0  0  0  0  0  0
   -2.7301    6.8310    0.0000 H   0  0  0  0  0  0  0  0  0  0  0  0
   -2.7304    8.8596    0.0000 H   0  0  0  0  0  0  0  0  0  0  0  0
   -1.8647    8.2308    0.0000 H   0  0  0  0  0  0  0  0  0  0  0  0
   -2.2813    6.2962    0.0000 H   0  0  0  0  0  0  0  0  0  0  0  0
   -1.2429    7.7255    0.0000 H   0  0  0  0  0  0  0  0  0  0  0  0
   -5.9688    5.3892    0.0000 H   0  0  0  0  0  0  0  0  0  0  0  0
   -4.9913    5.8243    0.0000 H   0  0  0  0  0  0  0  0  0  0  0  0
   -4.9913    7.8529    0.0000 H   0  0  0  0  0  0  0  0  0  0  0  0
   -4.1257    7.2240    0.0000 H   0  0  0  0  0  0  0  0  0  0  0  0
   -4.5476    5.2398    0.0000 H   0  0  0  0  0  0  0  0  0  0  0  0
   -3.5701    5.6750    0.0000 H   0  0  0  0  0  0  0  0  0  0  0  0
   -3.5703    7.7036    0.0000 H   0  0  0  0  0  0  0  0  0  0  0  0
   -2.7046    7.0747    0.0000 H   0  0  0  0  0  0  0  0  0  0  0  0
   -3.1213    5.1401    0.0000 H   0  0  0  0  0  0  0  0  0  0  0  0
   -2.0828    6.5693    0.0000 H   0  0  0  0  0  0  0  0  0  0  0  0
   -9.2546    8.3009    0.0000 H   0  0  0  0  0  0  0  0  0  0  0  0
  -10.2321    7.8658    0.0000 H   0  0  0  0  0  0  0  0  0  0  0  0
  -10.2321    5.8372    0.0000 H   0  0  0  0  0  0  0  0  0  0  0  0
  -11.0977    6.4661    0.0000 H   0  0  0  0  0  0  0  0  0  0  0  0
  -10.6757    8.4503    0.0000 H   0  0  0  0  0  0  0  0  0  0  0  0
  -11.6532    8.0152    0.0000 H   0  0  0  0  0  0  0  0  0  0  0  0
  -11.6532    5.9866    0.0000 H   0  0  0  0  0  0  0  0  0  0  0  0
  -12.5188    6.6155    0.0000 H   0  0  0  0  0  0  0  0  0  0  0  0
  -12.1021    8.5500    0.0000 H   0  0  0  0  0  0  0  0  0  0  0  0
  -13.1405    7.1207    0.0000 H   0  0  0  0  0  0  0  0  0  0  0  0
   -9.0695    3.2264    0.0000 H   0  0  0  0  0  0  0  0  0  0  0  0
   -9.9352    3.8552    0.0000 H   0  0  0  0  0  0  0  0  0  0  0  0
   -9.5134    5.8395    0.0000 H   0  0  0  0  0  0  0  0  0  0  0  0
  -10.4909    5.4043    0.0000 H   0  0  0  0  0  0  0  0  0  0  0  0
  -10.4906    3.3757    0.0000 H   0  0  0  0  0  0  0  0  0  0  0  0
  -11.3563    4.0046    0.0000 H   0  0  0  0  0  0  0  0  0  0  0  0
  -10.9344    5.9889    0.0000 H   0  0  0  0  0  0  0  0  0  0  0  0
  -11.9119    5.5538    0.0000 H   0  0  0  0  0  0  0  0  0  0  0  0
  -12.6251    5.1889    0.0000 H   0  0  0  0  0  0  0  0  0  0  0  0
  -11.9065    3.5749    0.0000 H   0  0  0  0  0  0  0  0  0  0  0  0
   -6.5119    2.2512    0.0000 H   0  0  0  0  0  0  0  0  0  0  0  0
   -6.0899    4.2354    0.0000 H   0  0  0  0  0  0  0  0  0  0  0  0
   -7.1793    2.7361    0.0000 H   0  0  0  0  0  0  0  0  0  0  0  0
   -7.0674    3.8002    0.0000 H   0  0  0  0  0  0  0  0  0  0  0  0
   -6.5981    1.4308    0.0000 H   0  0  0  0  0  0  0  0  0  0  0  0
   -4.7549    1.2371    0.0000 H   0  0  0  0  0  0  0  0  0  0  0  0
   -5.7324    0.8019    0.0000 H   0  0  0  0  0  0  0  0  0  0  0  0
   -2.4167    2.5042    0.0000 H   0  0  0  0  0  0  0  0  0  0  0  0
   -1.6906    1.6539    0.0000 H   0  0  0  0  0  0  0  0  0  0  0  0
   -1.1925    0.8191    0.0000 H   0  0  0  0  0  0  0  0  0  0  0  0
   -1.7767   -0.1343    0.0000 H   0  0  0  0  0  0  0  0  0  0  0  0
   -2.4168   -0.8659    0.0000 H   0  0  0  0  0  0  0  0  0  0  0  0
   -3.5040   -0.6049    0.0000 H   0  0  0  0  0  0  0  0  0  0  0  0
   -2.4938   -0.6053    0.0000 H   0  0  0  0  0  0  0  0  0  0  0  0
   -2.3820   -1.6695    0.0000 H   0  0  0  0  0  0  0  0  0  0  0  0
   -4.1390   -2.6836    0.0000 H   0  0  0  0  0  0  0  0  0  0  0  0
   -3.1614   -3.1188    0.0000 H   0  0  0  0  0  0  0  0  0  0  0  0
   -1.6540   -1.7613    0.0000 H   0  0  0  0  0  0  0  0  0  0  0  0
   -1.5422   -2.8254    0.0000 H   0  0  0  0  0  0  0  0  0  0  0  0
   -3.2991   -3.8396    0.0000 H   0  0  0  0  0  0  0  0  0  0  0  0
   -2.3216   -4.2748    0.0000 H   0  0  0  0  0  0  0  0  0  0  0  0
   -1.5731   -4.5606    0.0000 H   0  0  0  0  0  0  0  0  0  0  0  0
   -0.8546   -2.9466    0.0000 H   0  0  0  0  0  0  0  0  0  0  0  0
   -8.7621   -3.2183    0.0000 H   0  0  0  0  0  0  0  0  0  0  0  0
   -6.7590   -3.3903    0.0000 H   0  0  0  0  0  0  0  0  0  0  0  0
  -10.1570   -4.3890    0.0000 H   0  0  0  0  0  0  0  0  0  0  0  0
  -10.5432   -6.2054    0.0000 H   0  0  0  0  0  0  0  0  0  0  0  0
   -9.1630   -7.4480    0.0000 H   0  0  0  0  0  0  0  0  0  0  0  0
   -7.3970   -6.8742    0.0000 H   0  0  0  0  0  0  0  0  0  0  0  0
  1  2  1  0  0  0  0
  1142  1  0  0  0  0
  1151  1  0  0  0  0
  1152  1  0  0  0  0
  2  3  1  0  0  0  0
  2 76  1  0  0  0  0
  2153  1  6  0  0  0
  3  4  1  0  0  0  0
  3154  1  0  0  0  0
  4  5  1  0  0  0  0
  4 75  2  0  0  0  0
  5  6  1  0  0  0  0
  5 68  1  0  0  0  0
  5155  1  6  0  0  0
  6  7  1  0  0  0  0
  6156  1  0  0  0  0
  7  8  1  0  0  0  0
  7 67  2  0  0  0  0
  8  9  1  0  0  0  0
  8 16  1  0  0  0  0
  8157  1  1  0  0  0
  9 10  1  0  0  0  0
  9158  1  0  0  0  0
  9159  1  0  0  0  0
 10 11  2  0  0  0  0
 10 15  1  0  0  0  0
 11 12  1  0  0  0  0
 11160  1  0  0  0  0
 12 13  2  0  0  0  0
 12161  1  0  0  0  0
 13162  1  0  0  0  0
 14 13  1  0  0  0  0
 14163  1  0  0  0  0
 15 14  2  0  0  0  0
 15164  1  0  0  0  0
 16 17  1  0  0  0  0
 16165  1  0  0  0  0
 17 18  1  0  0  0  0
 17 66  2  0  0  0  0
 18 19  1  0  0  0  0
 18 25  1  0  0  0  0
 18166  1  6  0  0  0
 19 20  1  0  0  0  0
 19167  1  0  0  0  0
 19168  1  0  0  0  0
 20 21  2  0  0  0  0
 20 24  1  0  0  0  0
 21 22  1  0  0  0  0
 21169  1  0  0  0  0
 22 23  1  0  0  0  0
 22170  1  0  0  0  0
 23171  1  0  0  0  0
 24 23  2  0  0  0  0
 25 26  1  0  0  0  0
 25172  1  0  0  0  0
 26 27  1  0  0  0  0
 26 65  2  0  0  0  0
 27 28  1  0  0  0  0
 27 60  1  0  0  0  0
 27173  1  1  0  0  0
 28 29  1  0  0  0  0
 28174  1  0  0  0  0
 29 30  1  0  0  0  0
 29 59  2  0  0  0  0
 30 31  1  0  0  0  0
 30 55  1  0  0  0  0
 30175  1  6  0  0  0
 31 32  1  0  0  0  0
 31176  1  0  0  0  0
 32 33  1  0  0  0  0
 32 54  2  0  0  0  0
 33 34  1  0  0  0  0
 33 52  1  0  0  0  0
 33177  1  1  0  0  0
 34 35  1  0  0  0  0
 34178  1  0  0  0  0
 35 36  1  0  0  0  0
 35 51  2  0  0  0  0
 36 37  1  0  0  0  0
 36 45  1  0  0  0  0
 36179  1  1  0  0  0
 37 38  1  0  0  0  0
 37180  1  0  0  0  0
 37181  1  0  0  0  0
 38 39  2  0  0  0  0
 38 43  1  0  0  0  0
 39 40  1  0  0  0  0
 39182  1  0  0  0  0
 40 41  2  0  0  0  0
 40183  1  0  0  0  0
 41 44  1  0  0  0  0
 42 41  1  0  0  0  0
 42184  1  0  0  0  0
 43 42  2  0  0  0  0
 43185  1  0  0  0  0
 44186  1  0  0  0  0
 45 46  1  0  0  0  0
 45187  1  0  0  0  0
 46 47  1  0  0  0  0
 46 50  2  0  0  0  0
 47 48  1  0  0  0  0
 47188  1  0  0  0  0
 47189  1  0  0  0  0
 48 49  1  0  0  0  0
 48190  1  0  0  0  0
 48191  1  0  0  0  0
 49192  1  0  0  0  0
 49193  1  0  0  0  0
 52 53  1  0  0  0  0
 52194  1  0  0  0  0
 52195  1  0  0  0  0
 53196  1  0  0  0  0
 55 56  1  0  0  0  0
 55197  1  0  0  0  0
 55198  1  0  0  0  0
 56 57  1  0  0  0  0
 56199  1  0  0  0  0
 56200  1  0  0  0  0
 57 58  1  0  0  0  0
 58201  1  0  0  0  0
 58202  1  0  0  0  0
 58203  1  0  0  0  0
 60 61  1  0  0  0  0
 60204  1  0  0  0  0
 60205  1  0  0  0  0
 61 62  1  0  0  0  0
 61206  1  0  0  0  0
 61207  1  0  0  0  0
 62 63  1  0  0  0  0
 62 64  2  0  0  0  0
 63208  1  0  0  0  0
 68 69  1  0  0  0  0
 68209  1  0  0  0  0
 68210  1  0  0  0  0
 69 70  1  0  0  0  0
 69211  1  0  0  0  0
 69212  1  0  0  0  0
 70 71  1  0  0  0  0
 70213  1  0  0  0  0
 70214  1  0  0  0  0
 71 72  1  0  0  0  0
 71215  1  0  0  0  0
 72 73  2  0  0  0  0
 72 74  1  0  0  0  0
 73216  1  0  0  0  0
 74217  1  0  0  0  0
 74218  1  0  0  0  0
 76 77  1  0  0  0  0
 76141  2  0  0  0  0
 77 78  1  0  0  0  0
 77219  1  0  0  0  0
 78 79  1  0  0  0  0
 78220  1  0  0  0  0
 78221  1  0  0  0  0
 79 80  1  0  0  0  0
 79140  2  0  0  0  0
 80222  1  0  0  0  0
 81 80  1  0  0  0  0
 81 82  1  0  0  0  0
 81135  1  0  0  0  0
 81223  1  1  0  0  0
 82 83  2  0  0  0  0
 82 84  1  0  0  0  0
 84 85  1  0  0  0  0
 84134  1  0  0  0  0
 85 86  1  0  0  0  0
 85132  1  0  0  0  0
 85224  1  1  0  0  0
 86 87  1  0  0  0  0
 86131  2  0  0  0  0
 87225  1  0  0  0  0
 88 87  1  0  0  0  0
 88 89  1  0  0  0  0
 88128  1  0  0  0  0
 88226  1  6  0  0  0
 89 90  1  0  0  0  0
 89127  2  0  0  0  0
 90 91  1  0  0  0  0
 90227  1  0  0  0  0
 91 92  1  0  0  0  0
 91228  1  0  0  0  0
 91229  1  0  0  0  0
 92 93  1  0  0  0  0
 92126  2  0  0  0  0
 93230  1  0  0  0  0
 94 93  1  0  0  0  0
 94 95  1  0  0  0  0
 94121  1  0  0  0  0
 94231  1  6  0  0  0
 95 96  1  0  0  0  0
 95120  2  0  0  0  0
 96232  1  0  0  0  0
 97 96  1  0  0  0  0
 97 98  1  0  0  0  0
 97115  1  0  0  0  0
 97233  1  6  0  0  0
 98 99  1  0  0  0  0
 98114  2  0  0  0  0
 99234  1  0  0  0  0
100 99  1  0  0  0  0
100101  1  0  0  0  0
100109  1  0  0  0  0
100235  1  1  0  0  0
101102  1  0  0  0  0
101108  2  0  0  0  0
102103  1  0  0  0  0
102236  1  0  0  0  0
103104  1  0  0  0  0
103237  1  0  0  0  0
103238  1  0  0  0  0
104105  1  0  0  0  0
104239  1  0  0  0  0
104240  1  0  0  0  0
105106  1  0  0  0  0
105241  1  0  0  0  0
105242  1  0  0  0  0
106107  1  0  0  0  0
106243  1  0  0  0  0
106244  1  0  0  0  0
107245  1  0  0  0  0
107246  1  0  0  0  0
109110  1  0  0  0  0
109247  1  0  0  0  0
109248  1  0  0  0  0
110111  1  0  0  0  0
110249  1  0  0  0  0
110250  1  0  0  0  0
111112  1  0  0  0  0
111251  1  0  0  0  0
111252  1  0  0  0  0
112113  1  0  0  0  0
112253  1  0  0  0  0
112254  1  0  0  0  0
113255  1  0  0  0  0
113256  1  0  0  0  0
115116  1  0  0  0  0
115257  1  0  0  0  0
115258  1  0  0  0  0
116117  1  0  0  0  0
116259  1  0  0  0  0
116260  1  0  0  0  0
117118  1  0  0  0  0
117261  1  0  0  0  0
117262  1  0  0  0  0
118119  1  0  0  0  0
118263  1  0  0  0  0
118264  1  0  0  0  0
119265  1  0  0  0  0
119266  1  0  0  0  0
121122  1  0  0  0  0
121267  1  0  0  0  0
121268  1  0  0  0  0
122123  1  0  0  0  0
122269  1  0  0  0  0
122270  1  0  0  0  0
123124  1  0  0  0  0
123271  1  0  0  0  0
123272  1  0  0  0  0
124125  1  0  0  0  0
124273  1  0  0  0  0
124274  1  0  0  0  0
125275  1  0  0  0  0
125276  1  0  0  0  0
128129  1  0  0  0  0
128130  1  0  0  0  0
128277  1  0  0  0  0
129278  1  0  0  0  0
129279  1  0  0  0  0
129280  1  0  0  0  0
130281  1  0  0  0  0
130282  1  0  0  0  0
130283  1  0  0  0  0
132133  1  0  0  0  0
132284  1  0  0  0  0
132285  1  0  0  0  0
133286  1  0  0  0  0
133287  1  0  0  0  0
134133  1  0  0  0  0
134288  1  0  0  0  0
134289  1  0  0  0  0
135136  1  0  0  0  0
135290  1  0  0  0  0
135291  1  0  0  0  0
136137  1  0  0  0  0
136292  1  0  0  0  0
136293  1  0  0  0  0
137138  1  0  0  0  0
137294  1  0  0  0  0
137295  1  0  0  0  0
138139  1  0  0  0  0
138296  1  0  0  0  0
138297  1  0  0  0  0
139298  1  0  0  0  0
139299  1  0  0  0  0
142143  1  0  0  0  0
142146  2  0  0  0  0
143144  2  0  0  0  0
143150  1  0  0  0  0
144145  1  0  0  0  0
144147  1  0  0  0  0
145300  1  0  0  0  0
146145  1  0  0  0  0
146301  1  0  0  0  0
147148  2  0  0  0  0
147302  1  0  0  0  0
148303  1  0  0  0  0
149148  1  0  0  0  0
149304  1  0  0  0  0
150149  2  0  0  0  0
150305  1  0  0  0  0
M  END
>  <DRUGBANK_ID>
DB13298

>  <COMMON_NAME>
Alsactide

>  <CAS_NUMBER>
34765-96-3

>  <UNII>
J0K70H3420

>  <SYNONYMS>
Alsactida; Alsactide; Alsactidum

$$$$
