
 OpenBabel10282417072D

 51 54  0  0  0  0  0  0  0  0999 V2000
    0.9911    1.6769    0.0000 S   0  0  0  0  0  0  0  0  0  0  0  0
   -1.1000    0.2212    0.0000 O   0  0  0  0  0  0  0  0  0  0  0  0
   -2.1364    2.0876    0.0000 O   0  0  0  0  0  0  0  0  0  0  0  0
   -3.1940    0.6374    0.0000 O   0  0  0  0  0  0  0  0  0  0  0  0
    0.3227    1.1931    0.0000 O   0  0  0  0  0  0  0  0  0  0  0  0
    2.4972    1.0032    0.0000 O   0  0  0  0  0  0  0  0  0  0  0  0
    0.5072    2.3452    0.0000 O   0  0  0  0  0  0  0  0  0  0  0  0
    1.4747    1.0086    0.0000 O   0  0  0  0  0  0  0  0  0  0  0  0
   -2.1414   -0.8165    0.0000 N   0  0  0  0  0  0  0  0  0  0  0  0
    3.8649    2.0513    0.0000 N   0  0  0  0  0  0  0  0  0  0  0  0
    1.6593    2.1607    0.0000 N   0  0  0  0  0  0  0  0  0  0  0  0
   -2.1414   -2.1444    0.0000 N   0  0  0  0  0  0  0  0  0  0  0  0
   -3.6365   -0.6554    0.0000 N   0  0  0  0  0  0  0  0  0  0  0  0
   -4.3510   -1.8929    0.0000 N   0  0  0  0  0  0  0  0  0  0  0  0
   -3.6365   -3.1304    0.0000 N   0  0  0  0  0  0  0  0  0  0  0  0
   -1.8828    1.3025    0.0000 C   0  0  1  0  0  0  0  0  0  0  0  0
   -2.3689    0.6359    0.0000 C   0  0  2  0  0  0  0  0  0  0  0  0
   -1.0986    1.0462    0.0000 C   0  0  1  0  0  0  0  0  0  0  0  0
   -1.8852   -0.0323    0.0000 C   0  0  1  0  0  0  0  0  0  0  0  0
   -0.4302    1.5300    0.0000 C   0  0  0  0  0  0  0  0  0  0  0  0
    3.0808    2.3076    0.0000 C   0  0  1  0  0  0  0  0  0  0  0  0
    3.0822    3.1327    0.0000 C   0  0  0  0  0  0  0  0  0  0  0  0
    3.8672    3.3862    0.0000 C   0  0  0  0  0  0  0  0  0  0  0  0
   -2.9220   -1.0679    0.0000 C   0  0  0  0  0  0  0  0  0  0  0  0
    4.3510    2.7179    0.0000 C   0  0  0  0  0  0  0  0  0  0  0  0
   -1.6598   -1.4803    0.0000 C   0  0  0  0  0  0  0  0  0  0  0  0
    2.4124    1.8239    0.0000 C   0  0  0  0  0  0  0  0  0  0  0  0
   -2.9220   -1.8929    0.0000 C   0  0  0  0  0  0  0  0  0  0  0  0
   -3.6365   -2.3054    0.0000 C   0  0  0  0  0  0  0  0  0  0  0  0
   -4.3510   -1.0679    0.0000 C   0  0  0  0  0  0  0  0  0  0  0  0
    4.0222    1.5645    0.0000 H   0  0  0  0  0  0  0  0  0  0  0  0
    1.6067    2.6694    0.0000 H   0  0  0  0  0  0  0  0  0  0  0  0
   -4.0796   -3.3862    0.0000 H   0  0  0  0  0  0  0  0  0  0  0  0
   -3.1935   -3.3862    0.0000 H   0  0  0  0  0  0  0  0  0  0  0  0
   -1.4861    2.8073    0.0000 H   0  0  0  0  0  0  0  0  0  0  0  0
   -3.6775    1.4783    0.0000 H   0  0  0  0  0  0  0  0  0  0  0  0
   -2.9393    1.4717    0.0000 H   0  0  0  0  0  0  0  0  0  0  0  0
   -2.8530    1.5901    0.0000 H   0  0  0  0  0  0  0  0  0  0  0  0
   -0.1461    0.5588    0.0000 H   0  0  0  0  0  0  0  0  0  0  0  0
   -1.1299   -0.7902    0.0000 H   0  0  0  0  0  0  0  0  0  0  0  0
   -0.5401    2.5943    0.0000 H   0  0  0  0  0  0  0  0  0  0  0  0
   -1.4069    1.9670    0.0000 H   0  0  0  0  0  0  0  0  0  0  0  0
    3.2463    1.2505    0.0000 H   0  0  0  0  0  0  0  0  0  0  0  0
    2.2177    3.7631    0.0000 H   0  0  0  0  0  0  0  0  0  0  0  0
    3.2515    4.1892    0.0000 H   0  0  0  0  0  0  0  0  0  0  0  0
    4.1996    4.4032    0.0000 H   0  0  0  0  0  0  0  0  0  0  0  0
    4.9243    3.5517    0.0000 H   0  0  0  0  0  0  0  0  0  0  0  0
    5.4210    2.7160    0.0000 H   0  0  0  0  0  0  0  0  0  0  0  0
    4.8384    3.6704    0.0000 H   0  0  0  0  0  0  0  0  0  0  0  0
   -0.6278   -1.4802    0.0000 H   0  0  0  0  0  0  0  0  0  0  0  0
   -5.2447   -0.5519    0.0000 H   0  0  0  0  0  0  0  0  0  0  0  0
  1  5  1  0  0  0  0
  1  7  2  0  0  0  0
  1  8  2  0  0  0  0
  1 11  1  0  0  0  0
  2 18  1  0  0  0  0
  2 19  1  0  0  0  0
  3 35  1  0  0  0  0
  4 36  1  0  0  0  0
  5 20  1  0  0  0  0
  6 27  2  0  0  0  0
  9 24  1  0  0  0  0
  9 26  1  0  0  0  0
 10 21  1  0  0  0  0
 10 25  1  0  0  0  0
 10 31  1  0  0  0  0
 11 27  1  0  0  0  0
 11 32  1  0  0  0  0
 12 26  2  0  0  0  0
 12 28  1  0  0  0  0
 13 24  2  0  0  0  0
 13 30  1  0  0  0  0
 14 29  1  0  0  0  0
 14 30  2  0  0  0  0
 15 29  1  0  0  0  0
 15 33  1  0  0  0  0
 15 34  1  0  0  0  0
 16  3  1  0  0  0  0
 16 17  1  0  0  0  0
 16 18  1  0  0  0  0
 16 37  1  1  0  0  0
 17  4  1  0  0  0  0
 17 19  1  0  0  0  0
 17 38  1  1  0  0  0
 18 20  1  0  0  0  0
 18 39  1  6  0  0  0
 19  9  1  0  0  0  0
 19 40  1  6  0  0  0
 20 41  1  0  0  0  0
 20 42  1  0  0  0  0
 21 22  1  0  0  0  0
 21 27  1  0  0  0  0
 21 43  1  1  0  0  0
 22 23  1  0  0  0  0
 22 44  1  0  0  0  0
 22 45  1  0  0  0  0
 23 25  1  0  0  0  0
 23 46  1  0  0  0  0
 23 47  1  0  0  0  0
 24 28  1  0  0  0  0
 25 48  1  0  0  0  0
 25 49  1  0  0  0  0
 26 50  1  0  0  0  0
 28 29  2  0  0  0  0
 30 51  1  0  0  0  0
M  END
>  <DRUGBANK_ID>
DB02510

>  <SECONDARY_ACCESSION_NUMBERS>
EXPT02481

>  <COMMON_NAME>
5'-O-(L-Prolylsulfamoyl)adenosine

$$$$
