
 OpenBabel10282417072D

 34 35  0  0  0  0  0  0  0  0999 V2000
   -1.3737   -3.5062    0.0000 N   0  0  0  0  0  0  0  0  0  0  0  0
   -1.3737   -2.6812    0.0000 C   0  0  0  0  0  0  0  0  0  0  0  0
   -0.6592   -2.2687    0.0000 C   0  0  0  0  0  0  0  0  0  0  0  0
   -0.6592   -1.4437    0.0000 C   0  0  0  0  0  0  0  0  0  0  0  0
   -1.3737   -1.0312    0.0000 C   0  0  0  0  0  0  0  0  0  0  0  0
   -2.0881   -1.4437    0.0000 C   0  0  0  0  0  0  0  0  0  0  0  0
   -2.0881   -2.2687    0.0000 C   0  0  0  0  0  0  0  0  0  0  0  0
   -1.3737   -0.2062    0.0000 S   0  0  0  0  0  0  0  0  0  0  0  0
   -0.5487   -0.2062    0.0000 O   0  0  0  0  0  0  0  0  0  0  0  0
   -2.1986   -0.2062    0.0000 O   0  0  0  0  0  0  0  0  0  0  0  0
   -1.3737    0.6187    0.0000 N   0  0  0  0  0  0  0  0  0  0  0  0
   -0.6592    1.0312    0.0000 C   0  0  0  0  0  0  0  0  0  0  0  0
    0.0552    0.6187    0.0000 N   0  0  0  0  0  0  0  0  0  0  0  0
   -0.6592    1.8562    0.0000 C   0  0  0  0  0  0  0  0  0  0  0  0
    0.7697    1.8562    0.0000 C   0  0  0  0  0  0  0  0  0  0  0  0
    0.7697    1.0312    0.0000 N   0  0  0  0  0  0  0  0  0  0  0  0
    0.0552    2.2687    0.0000 C   0  0  0  0  0  0  0  0  0  0  0  0
    1.4842    2.2687    0.0000 O   0  0  0  0  0  0  0  0  0  0  0  0
    1.4842    3.0937    0.0000 C   0  0  0  0  0  0  0  0  0  0  0  0
    2.1986    3.5062    0.0000 C   0  0  0  0  0  0  0  0  0  0  0  0
   -2.2263   -3.9985    0.0000 H   0  0  0  0  0  0  0  0  0  0  0  0
   -0.5211   -3.9985    0.0000 H   0  0  0  0  0  0  0  0  0  0  0  0
    0.2345   -2.7847    0.0000 H   0  0  0  0  0  0  0  0  0  0  0  0
    0.2345   -0.9277    0.0000 H   0  0  0  0  0  0  0  0  0  0  0  0
   -2.9818   -0.9277    0.0000 H   0  0  0  0  0  0  0  0  0  0  0  0
   -2.9818   -2.7847    0.0000 H   0  0  0  0  0  0  0  0  0  0  0  0
   -2.2263    1.1110    0.0000 H   0  0  0  0  0  0  0  0  0  0  0  0
   -1.5529    2.3722    0.0000 H   0  0  0  0  0  0  0  0  0  0  0  0
    0.0552    3.3007    0.0000 H   0  0  0  0  0  0  0  0  0  0  0  0
    0.5575    3.6287    0.0000 H   0  0  0  0  0  0  0  0  0  0  0  0
    1.4842    4.1637    0.0000 H   0  0  0  0  0  0  0  0  0  0  0  0
    3.1253    2.9712    0.0000 H   0  0  0  0  0  0  0  0  0  0  0  0
    2.1986    4.5762    0.0000 H   0  0  0  0  0  0  0  0  0  0  0  0
    3.1252    4.0412    0.0000 H   0  0  0  0  0  0  0  0  0  0  0  0
  1  2  1  0  0  0  0
  1 21  1  0  0  0  0
  1 22  1  0  0  0  0
  2  3  2  0  0  0  0
  2  7  1  0  0  0  0
  3  4  1  0  0  0  0
  3 23  1  0  0  0  0
  4  5  2  0  0  0  0
  4 24  1  0  0  0  0
  5  6  1  0  0  0  0
  5  8  1  0  0  0  0
  6  7  2  0  0  0  0
  6 25  1  0  0  0  0
  7 26  1  0  0  0  0
  8 10  2  0  0  0  0
  8  9  2  0  0  0  0
  8 11  1  0  0  0  0
 11 12  1  0  0  0  0
 11 27  1  0  0  0  0
 13 12  1  0  0  0  0
 14 12  2  0  0  0  0
 14 28  1  0  0  0  0
 15 16  1  0  0  0  0
 15 17  2  0  0  0  0
 15 18  1  0  0  0  0
 16 13  2  0  0  0  0
 17 14  1  0  0  0  0
 17 29  1  0  0  0  0
 18 19  1  0  0  0  0
 19 20  1  0  0  0  0
 19 30  1  0  0  0  0
 19 31  1  0  0  0  0
 20 32  1  0  0  0  0
 20 33  1  0  0  0  0
 20 34  1  0  0  0  0
M  END
>  <DRUGBANK_ID>
DB11462

>  <COMMON_NAME>
Sulfaethoxypyridazine

>  <CAS_NUMBER>
963-14-4

>  <UNII>
880RIW1DED

>  <SYNONYMS>
4-amino-N-(6-ethoxy-3-pyridazinyl)benzenesulfonamide; N1-(6-ethoxy-3-pyridazinyl)sulfanilamide; N1-(6-ethoxypyridazin-3-yl)sulphanilamide

$$$$
