
 OpenBabel10282417072D

 37 39  0  0  1  0  0  0  0  0999 V2000
    1.1387    5.0945    0.0000 C   0  0  0  0  0  0  0  0  0  0  0  0
    3.3523    1.1104    0.0000 C   0  0  0  0  0  0  0  0  0  0  0  0
    0.6538    1.5229    0.0000 C   0  0  0  0  0  0  0  0  0  0  0  0
    0.8838    4.3099    0.0000 C   0  0  2  0  0  0  0  0  0  0  0  0
    1.9233    1.9354    0.0000 C   0  0  0  0  0  0  0  0  0  0  0  0
    0.0992    4.0549    0.0000 C   0  0  2  0  0  0  0  0  0  0  0  0
    0.0992    3.2299    0.0000 C   0  0  2  0  0  0  0  0  0  0  0  0
    2.6378    2.3479    0.0000 C   0  0  0  0  0  0  0  0  0  0  0  0
    1.9233    1.1104    0.0000 C   0  0  0  0  0  0  0  0  0  0  0  0
    0.8838    2.9750    0.0000 C   0  0  1  0  0  0  0  0  0  0  0  0
    2.6378    3.1729    0.0000 N   0  0  0  0  0  0  0  0  0  0  0  0
    3.3523    1.9354    0.0000 N   0  0  0  0  0  0  0  0  0  0  0  0
    2.6378    0.6979    0.0000 N   0  0  0  0  0  0  0  0  0  0  0  0
    1.1387    0.8555    0.0000 N   0  0  0  0  0  0  0  0  0  0  0  0
    1.1387    2.1904    0.0000 N   0  0  0  0  0  0  0  0  0  0  0  0
   -0.5683    4.5399    0.0000 O   0  0  0  0  0  0  0  0  0  0  0  0
   -0.5683    2.7450    0.0000 O   0  0  0  0  0  0  0  0  0  0  0  0
    2.4556    6.8353    0.0000 O   0  0  0  0  0  0  0  0  0  0  0  0
    2.9853    5.7957    0.0000 O   0  0  0  0  0  0  0  0  0  0  0  0
    1.4160    6.3056    0.0000 O   0  0  0  0  0  0  0  0  0  0  0  0
    1.9457    5.2660    0.0000 O   0  0  0  0  0  0  0  0  0  0  0  0
    1.3687    3.6424    0.0000 O   0  0  0  0  0  0  0  0  0  0  0  0
    2.2006    6.0507    0.0000 P   0  0  0  0  0  0  0  0  0  0  0  0
    0.1361    4.6585    0.0000 H   0  0  0  0  0  0  0  0  0  0  0  0
   -0.0583    4.8648    0.0000 H   0  0  0  0  0  0  0  0  0  0  0  0
   -0.6359    3.6045    0.0000 H   0  0  0  0  0  0  0  0  0  0  0  0
    0.3004    2.3916    0.0000 H   0  0  0  0  0  0  0  0  0  0  0  0
    0.4227    5.8897    0.0000 H   0  0  0  0  0  0  0  0  0  0  0  0
    1.4694    6.1121    0.0000 H   0  0  0  0  0  0  0  0  0  0  0  0
    4.2460    0.5944    0.0000 H   0  0  0  0  0  0  0  0  0  0  0  0
   -0.3782    1.5229    0.0000 H   0  0  0  0  0  0  0  0  0  0  0  0
    3.4904    3.6651    0.0000 H   0  0  0  0  0  0  0  0  0  0  0  0
    1.7852    3.6651    0.0000 H   0  0  0  0  0  0  0  0  0  0  0  0
   -0.4669    5.5046    0.0000 H   0  0  0  0  0  0  0  0  0  0  0  0
   -1.4544    3.1396    0.0000 H   0  0  0  0  0  0  0  0  0  0  0  0
    3.4044    7.0369    0.0000 H   0  0  0  0  0  0  0  0  0  0  0  0
    3.1869    4.8469    0.0000 H   0  0  0  0  0  0  0  0  0  0  0  0
  1 28  1  0  0  0  0
  1 29  1  0  0  0  0
  2 30  1  0  0  0  0
  3 31  1  0  0  0  0
  4  1  1  0  0  0  0
  4 24  1  6  0  0  0
  6  4  1  0  0  0  0
  6 16  1  0  0  0  0
  6 25  1  1  0  0  0
  7  6  1  0  0  0  0
  7 17  1  0  0  0  0
  7 26  1  1  0  0  0
  8  5  2  0  0  0  0
  9  5  1  0  0  0  0
 10  7  1  0  0  0  0
 10 15  1  0  0  0  0
 10 27  1  1  0  0  0
 11  8  1  0  0  0  0
 11 32  1  0  0  0  0
 11 33  1  0  0  0  0
 12  2  2  0  0  0  0
 12  8  1  0  0  0  0
 13  2  1  0  0  0  0
 13  9  2  0  0  0  0
 14  3  2  0  0  0  0
 14  9  1  0  0  0  0
 15  3  1  0  0  0  0
 15  5  1  0  0  0  0
 16 34  1  0  0  0  0
 17 35  1  0  0  0  0
 18 36  1  0  0  0  0
 19 37  1  0  0  0  0
 21  1  1  0  0  0  0
 22  4  1  0  0  0  0
 22 10  1  0  0  0  0
 23 18  1  0  0  0  0
 23 19  1  0  0  0  0
 23 20  2  0  0  0  0
 23 21  1  0  0  0  0
M  END
>  <DRUGBANK_ID>
DB03887

>  <SECONDARY_ACCESSION_NUMBERS>
EXPT00383

>  <COMMON_NAME>
Alpha-Adenosine Monophosphate

$$$$
