
 OpenBabel10282417072D

 81 86  0  0  1  0  0  0  0  0999 V2000
    3.4291   -6.7736    0.0000 C   0  0  0  0  0  0  0  0  0  0  0  0
    4.1435   -6.3611    0.0000 N   0  0  0  0  0  0  0  0  0  0  0  0
    4.8972   -6.6966    0.0000 C   0  0  0  0  0  0  0  0  0  0  0  0
    5.4492   -6.0836    0.0000 N   0  3  0  0  0  0  0  0  0  0  0  0
    6.2697   -6.1698    0.0000 C   0  0  2  0  0  0  0  0  0  0  0  0
    6.8217   -5.5567    0.0000 O   0  0  0  0  0  0  0  0  0  0  0  0
    7.5754   -5.8922    0.0000 C   0  0  2  0  0  0  0  0  0  0  0  0
    8.2899   -5.4797    0.0000 C   0  0  0  0  0  0  0  0  0  0  0  0
    9.0044   -5.8922    0.0000 O   0  0  0  0  0  0  0  0  0  0  0  0
    9.7188   -5.4797    0.0000 P   0  0  2  0  0  0  0  0  0  0  0  0
    9.3063   -4.7653    0.0000 O   0  0  0  0  0  0  0  0  0  0  0  0
   10.1313   -6.1942    0.0000 O   0  0  0  0  0  0  0  0  0  0  0  0
   10.4333   -5.0672    0.0000 O   0  0  0  0  0  0  0  0  0  0  0  0
   11.1478   -5.4797    0.0000 P   0  0  2  0  0  0  0  0  0  0  0  0
   11.5603   -4.7653    0.0000 O   0  0  0  0  0  0  0  0  0  0  0  0
   10.7353   -6.1942    0.0000 O   0  0  0  0  0  0  0  0  0  0  0  0
   11.8622   -5.8922    0.0000 O   0  0  0  0  0  0  0  0  0  0  0  0
   12.5767   -5.4797    0.0000 P   0  0  2  0  0  0  0  0  0  0  0  0
   12.1642   -4.7653    0.0000 O   0  0  0  0  0  0  0  0  0  0  0  0
   12.9892   -6.1942    0.0000 O   0  0  0  0  0  0  0  0  0  0  0  0
   13.2912   -5.0672    0.0000 O   0  0  0  0  0  0  0  0  0  0  0  0
   14.0057   -5.4797    0.0000 C   0  0  0  0  0  0  0  0  0  0  0  0
   14.7201   -5.0672    0.0000 C   0  0  1  0  0  0  0  0  0  0  0  0
   14.8064   -4.2468    0.0000 O   0  0  0  0  0  0  0  0  0  0  0  0
   15.6133   -4.0752    0.0000 C   0  0  2  0  0  0  0  0  0  0  0  0
   16.0258   -4.7897    0.0000 C   0  0  2  0  0  0  0  0  0  0  0  0
   16.8463   -4.8759    0.0000 O   0  0  0  0  0  0  0  0  0  0  0  0
   15.4738   -5.4028    0.0000 C   0  0  2  0  0  0  0  0  0  0  0  0
   15.6453   -6.2098    0.0000 O   0  0  0  0  0  0  0  0  0  0  0  0
   15.9489   -3.3216    0.0000 N   0  0  0  0  0  0  0  0  0  0  0  0
   15.5364   -2.6071    0.0000 C   0  0  0  0  0  0  0  0  0  0  0  0
   16.0884   -1.9940    0.0000 N   0  0  0  0  0  0  0  0  0  0  0  0
   16.8421   -2.3296    0.0000 C   0  0  0  0  0  0  0  0  0  0  0  0
   17.5958   -1.9940    0.0000 C   0  0  0  0  0  0  0  0  0  0  0  0
   17.6820   -1.1735    0.0000 N   0  0  0  0  0  0  0  0  0  0  0  0
   18.2632   -2.4789    0.0000 N   0  0  0  0  0  0  0  0  0  0  0  0
   18.1770   -3.2994    0.0000 C   0  0  0  0  0  0  0  0  0  0  0  0
   17.4233   -3.6350    0.0000 N   0  0  0  0  0  0  0  0  0  0  0  0
   16.7559   -3.1500    0.0000 C   0  0  0  0  0  0  0  0  0  0  0  0
    7.4892   -6.7127    0.0000 C   0  0  1  0  0  0  0  0  0  0  0  0
    8.1023   -7.2648    0.0000 O   0  0  0  0  0  0  0  0  0  0  0  0
    6.6822   -6.8843    0.0000 C   0  0  1  0  0  0  0  0  0  0  0  0
    6.3467   -7.6379    0.0000 O   0  0  0  0  0  0  0  0  0  0  0  0
    5.0367   -5.3691    0.0000 C   0  0  0  0  0  0  0  0  0  0  0  0
    4.2298   -5.5406    0.0000 C   0  0  0  0  0  0  0  0  0  0  0  0
    3.6777   -4.9275    0.0000 C   0  0  0  0  0  0  0  0  0  0  0  0
    2.8708   -5.0990    0.0000 O   0  0  0  0  0  0  0  0  0  0  0  0
    3.9327   -4.1429    0.0000 N   0  0  0  0  0  0  0  0  0  0  0  0
    4.7396   -3.9714    0.0000 C   0  0  0  0  0  0  0  0  0  0  0  0
    4.9946   -3.1867    0.0000 N   0  0  0  0  0  0  0  0  0  0  0  0
    5.2917   -4.5845    0.0000 N   0  0  0  0  0  0  0  0  0  0  0  0
    2.5024   -6.2386    0.0000 H   0  0  0  0  0  0  0  0  0  0  0  0
    3.4291   -7.8436    0.0000 H   0  0  0  0  0  0  0  0  0  0  0  0
    2.5025   -7.3086    0.0000 H   0  0  0  0  0  0  0  0  0  0  0  0
    5.1118   -7.7060    0.0000 H   0  0  0  0  0  0  0  0  0  0  0  0
    5.8862   -5.1709    0.0000 H   0  0  0  0  0  0  0  0  0  0  0  0
    7.5194   -4.8237    0.0000 H   0  0  0  0  0  0  0  0  0  0  0  0
    8.2899   -4.4097    0.0000 H   0  0  0  0  0  0  0  0  0  0  0  0
    9.2165   -4.9447    0.0000 H   0  0  0  0  0  0  0  0  0  0  0  0
    9.7913   -3.9252    0.0000 H   0  0  0  0  0  0  0  0  0  0  0  0
   12.5303   -4.7653    0.0000 H   0  0  0  0  0  0  0  0  0  0  0  0
   12.6492   -3.9252    0.0000 H   0  0  0  0  0  0  0  0  0  0  0  0
   14.0057   -6.5497    0.0000 H   0  0  0  0  0  0  0  0  0  0  0  0
   14.9324   -6.0147    0.0000 H   0  0  0  0  0  0  0  0  0  0  0  0
   13.8227   -4.4844    0.0000 H   0  0  0  0  0  0  0  0  0  0  0  0
   14.9399   -3.2437    0.0000 H   0  0  0  0  0  0  0  0  0  0  0  0
   16.6086   -3.8923    0.0000 H   0  0  0  0  0  0  0  0  0  0  0  0
   17.2409   -5.7620    0.0000 H   0  0  0  0  0  0  0  0  0  0  0  0
   16.5073   -5.6797    0.0000 H   0  0  0  0  0  0  0  0  0  0  0  0
   14.9244   -6.8588    0.0000 H   0  0  0  0  0  0  0  0  0  0  0  0
   14.5101   -2.4992    0.0000 H   0  0  0  0  0  0  0  0  0  0  0  0
   18.5814   -0.7730    0.0000 H   0  0  0  0  0  0  0  0  0  0  0  0
   16.8855   -0.5949    0.0000 H   0  0  0  0  0  0  0  0  0  0  0  0
   19.0119   -3.9060    0.0000 H   0  0  0  0  0  0  0  0  0  0  0  0
    8.4881   -6.3293    0.0000 H   0  0  0  0  0  0  0  0  0  0  0  0
    7.9006   -8.2136    0.0000 H   0  0  0  0  0  0  0  0  0  0  0  0
    7.3556   -7.7158    0.0000 H   0  0  0  0  0  0  0  0  0  0  0  0
    5.3820   -7.7393    0.0000 H   0  0  0  0  0  0  0  0  0  0  0  0
    5.9576   -2.9821    0.0000 H   0  0  0  0  0  0  0  0  0  0  0  0
    4.3359   -2.4550    0.0000 H   0  0  0  0  0  0  0  0  0  0  0  0
    6.2547   -4.3798    0.0000 H   0  0  0  0  0  0  0  0  0  0  0  0
  1  2  1  0  0  0  0
  1 52  1  0  0  0  0
  1 53  1  0  0  0  0
  1 54  1  0  0  0  0
  2  3  1  0  0  0  0
  2 45  1  0  0  0  0
  3  4  2  0  0  0  0
  3 55  1  0  0  0  0
  4 44  1  0  0  0  0
  5  4  1  0  0  0  0
  5  6  1  0  0  0  0
  5 42  1  0  0  0  0
  5 56  1  1  0  0  0
  6  7  1  0  0  0  0
  7  8  1  0  0  0  0
  7 40  1  0  0  0  0
  7 57  1  1  0  0  0
  8  9  1  0  0  0  0
  8 58  1  0  0  0  0
  8 59  1  0  0  0  0
 10  9  1  0  0  0  0
 10 11  1  0  0  0  0
 10 12  2  6  0  0  0
 10 13  1  0  0  0  0
 11 60  1  0  0  0  0
 14 13  1  0  0  0  0
 14 15  1  0  0  0  0
 14 16  2  6  0  0  0
 14 17  1  0  0  0  0
 15 61  1  0  0  0  0
 18 17  1  0  0  0  0
 18 19  1  0  0  0  0
 18 20  2  6  0  0  0
 18 21  1  0  0  0  0
 19 62  1  0  0  0  0
 21 22  1  0  0  0  0
 22 63  1  0  0  0  0
 22 64  1  0  0  0  0
 23 22  1  0  0  0  0
 23 24  1  0  0  0  0
 23 28  1  0  0  0  0
 23 65  1  6  0  0  0
 24 25  1  0  0  0  0
 25 26  1  0  0  0  0
 25 30  1  0  0  0  0
 25 66  1  6  0  0  0
 26 27  1  0  0  0  0
 26 28  1  0  0  0  0
 26 67  1  1  0  0  0
 27 68  1  0  0  0  0
 28 29  1  0  0  0  0
 28 69  1  1  0  0  0
 29 70  1  0  0  0  0
 30 31  1  0  0  0  0
 30 39  1  0  0  0  0
 31 32  2  0  0  0  0
 31 71  1  0  0  0  0
 32 33  1  0  0  0  0
 33 34  2  0  0  0  0
 33 39  1  0  0  0  0
 34 35  1  0  0  0  0
 34 36  1  0  0  0  0
 35 72  1  0  0  0  0
 35 73  1  0  0  0  0
 36 37  2  0  0  0  0
 37 38  1  0  0  0  0
 37 74  1  0  0  0  0
 38 39  2  0  0  0  0
 40 41  1  0  0  0  0
 40 42  1  0  0  0  0
 40 75  1  6  0  0  0
 41 76  1  0  0  0  0
 42 43  1  0  0  0  0
 42 77  1  6  0  0  0
 43 78  1  0  0  0  0
 44 45  2  0  0  0  0
 44 51  1  0  0  0  0
 45 46  1  0  0  0  0
 46 47  2  0  0  0  0
 46 48  1  0  0  0  0
 48 49  2  0  0  0  0
 49 50  1  0  0  0  0
 49 51  1  0  0  0  0
 50 79  1  0  0  0  0
 50 80  1  0  0  0  0
 51 81  1  0  0  0  0
M  CHG  1   4   1
M  END
>  <DRUGBANK_ID>
DB01649

>  <SECONDARY_ACCESSION_NUMBERS>
EXPT01652

>  <COMMON_NAME>
7-methyl-GpppA

>  <SYNONYMS>
P1-7-METHYLGUANOSINE-P3-ADENOSINE-5',5'-TRIPHOSPHATE

$$$$
