
 OpenBabel10282417072D

 44 47  0  0  1  0  0  0  0  0999 V2000
    0.5429    2.3393    0.0000 O   0  0  0  0  0  0  0  0  0  0  0  0
    1.2654    2.7376    0.0000 C   0  0  2  0  0  0  0  0  0  0  0  0
    1.9716    2.3111    0.0000 C   0  0  0  0  0  0  0  0  0  0  0  0
    1.9554    1.4863    0.0000 C   0  0  2  0  0  0  0  0  0  0  0  0
    2.6131    0.9883    0.0000 N   0  0  0  0  0  0  0  0  0  0  0  0
    3.4379    0.9720    0.0000 C   0  0  0  0  0  0  0  0  0  0  0  0
    3.6774    0.1825    0.0000 N   0  0  0  0  0  0  0  0  0  0  0  0
    3.0005   -0.2892    0.0000 C   0  0  0  0  0  0  0  0  0  0  0  0
    2.3427    0.2088    0.0000 C   0  0  0  0  0  0  0  0  0  0  0  0
    1.5179    0.2251    0.0000 C   0  0  0  0  0  0  0  0  0  0  0  0
    0.9539   -0.3770    0.0000 C   0  0  0  0  0  0  0  0  0  0  0  0
    0.1505   -0.1896    0.0000 C   0  0  0  0  0  0  0  0  0  0  0  0
   -0.0890    0.5999    0.0000 C   0  0  0  0  0  0  0  0  0  0  0  0
    0.4750    1.2020    0.0000 C   0  0  0  0  0  0  0  0  0  0  0  0
    0.2356    1.9915    0.0000 F   0  0  0  0  0  0  0  0  0  0  0  0
    1.2785    1.0146    0.0000 C   0  0  0  0  0  0  0  0  0  0  0  0
    1.2817    3.5624    0.0000 C   0  0  1  0  0  0  0  0  0  0  0  0
    0.5755    3.9890    0.0000 C   0  0  0  0  0  0  0  0  0  0  0  0
    0.5917    4.8138    0.0000 C   0  0  0  0  0  0  0  0  0  0  0  0
    1.3142    5.2121    0.0000 C   0  0  2  0  0  0  0  0  0  0  0  0
    1.3305    6.0370    0.0000 O   0  0  0  0  0  0  0  0  0  0  0  0
    2.0204    4.7856    0.0000 C   0  0  0  0  0  0  0  0  0  0  0  0
    2.0041    3.9608    0.0000 C   0  0  0  0  0  0  0  0  0  0  0  0
   -0.2874    2.8408    0.0000 H   0  0  0  0  0  0  0  0  0  0  0  0
    1.2443    1.6678    0.0000 H   0  0  0  0  0  0  0  0  0  0  0  0
    2.9086    2.8278    0.0000 H   0  0  0  0  0  0  0  0  0  0  0  0
    2.8876    1.7580    0.0000 H   0  0  0  0  0  0  0  0  0  0  0  0
    2.9182    1.9532    0.0000 H   0  0  0  0  0  0  0  0  0  0  0  0
    4.0608    1.7948    0.0000 H   0  0  0  0  0  0  0  0  0  0  0  0
    2.9802   -1.3210    0.0000 H   0  0  0  0  0  0  0  0  0  0  0  0
    1.2534   -1.3646    0.0000 H   0  0  0  0  0  0  0  0  0  0  0  0
   -0.5550   -0.9428    0.0000 H   0  0  0  0  0  0  0  0  0  0  0  0
   -1.0940    0.8343    0.0000 H   0  0  0  0  0  0  0  0  0  0  0  0
    0.3446    3.0458    0.0000 H   0  0  0  0  0  0  0  0  0  0  0  0
   -0.3615    3.4724    0.0000 H   0  0  0  0  0  0  0  0  0  0  0  0
   -0.3404    4.5421    0.0000 H   0  0  0  0  0  0  0  0  0  0  0  0
   -0.3242    5.3670    0.0000 H   0  0  0  0  0  0  0  0  0  0  0  0
    0.6128    5.8836    0.0000 H   0  0  0  0  0  0  0  0  0  0  0  0
    0.3983    5.7653    0.0000 H   0  0  0  0  0  0  0  0  0  0  0  0
    2.1800    6.5053    0.0000 H   0  0  0  0  0  0  0  0  0  0  0  0
    2.9574    5.3022    0.0000 H   0  0  0  0  0  0  0  0  0  0  0  0
    2.9363    4.2324    0.0000 H   0  0  0  0  0  0  0  0  0  0  0  0
    2.9200    3.4077    0.0000 H   0  0  0  0  0  0  0  0  0  0  0  0
    1.9831    2.8910    0.0000 H   0  0  0  0  0  0  0  0  0  0  0  0
  1 24  1  0  0  0  0
  2  1  1  0  0  0  0
  2  3  1  0  0  0  0
  2 17  1  0  0  0  0
  2 25  1  6  0  0  0
  3 26  1  0  0  0  0
  3 27  1  0  0  0  0
  4  3  1  0  0  0  0
  4  5  1  0  0  0  0
  4 16  1  0  0  0  0
  4 28  1  1  0  0  0
  5  6  1  0  0  0  0
  5  9  1  0  0  0  0
  6  7  2  0  0  0  0
  6 29  1  0  0  0  0
  7  8  1  0  0  0  0
  8  9  2  0  0  0  0
  8 30  1  0  0  0  0
  9 10  1  0  0  0  0
 10 11  2  0  0  0  0
 10 16  1  0  0  0  0
 11 12  1  0  0  0  0
 11 31  1  0  0  0  0
 12 13  2  0  0  0  0
 12 32  1  0  0  0  0
 13 14  1  0  0  0  0
 13 33  1  0  0  0  0
 14 15  1  0  0  0  0
 14 16  2  0  0  0  0
 17 18  1  0  0  0  0
 17 23  1  0  0  0  0
 17 34  1  6  0  0  0
 18 19  1  0  0  0  0
 18 35  1  0  0  0  0
 18 36  1  0  0  0  0
 19 37  1  0  0  0  0
 19 38  1  0  0  0  0
 20 19  1  0  0  0  0
 20 21  1  0  0  0  0
 20 22  1  0  0  0  0
 20 39  1  1  0  0  0
 21 40  1  0  0  0  0
 22 23  1  0  0  0  0
 22 41  1  0  0  0  0
 22 42  1  0  0  0  0
 23 43  1  0  0  0  0
 23 44  1  0  0  0  0
M  END
>  <DRUGBANK_ID>
DB15439

>  <COMMON_NAME>
Navoximod

>  <CAS_NUMBER>
1402837-78-8

>  <UNII>
926SHL95NC

>  <SYNONYMS>
Navoximod

$$$$
