
 OpenBabel10282417072D

 28 30  0  0  1  0  0  0  0  0999 V2000
    2.1615   -1.5225    0.0000 N   0  0  0  0  0  0  0  0  0  0  0  0
    3.4310   -1.1100    0.0000 C   0  0  3  0  0  0  0  0  0  0  0  0
    3.4310   -1.9350    0.0000 C   0  0  3  0  0  0  0  0  0  0  0  0
    4.1460   -1.5225    0.0000 C   0  0  0  0  0  0  0  0  0  0  0  0
    2.6464   -0.8551    0.0000 C   0  0  0  0  0  0  0  0  0  0  0  0
    2.6464   -2.1900    0.0000 C   0  0  0  0  0  0  0  0  0  0  0  0
    3.4310   -0.2850    0.0000 C   0  0  0  0  0  0  0  0  0  0  0  0
    4.1455    0.1275    0.0000 C   0  0  0  0  0  0  0  0  0  0  0  0
    2.7166    0.1275    0.0000 C   0  0  0  0  0  0  0  0  0  0  0  0
    4.1455    0.9525    0.0000 C   0  0  0  0  0  0  0  0  0  0  0  0
    2.7166    0.9525    0.0000 C   0  0  0  0  0  0  0  0  0  0  0  0
    3.4310    1.3650    0.0000 C   0  0  0  0  0  0  0  0  0  0  0  0
    3.4310    2.1900    0.0000 C   0  0  0  0  0  0  0  0  0  0  0  0
    1.1415   -1.5225    0.0000 H   0  0  0  0  0  0  0  0  0  0  0  0
    3.9661   -1.0084    0.0000 H   0  0  0  0  0  0  0  0  0  0  0  0
    5.2160   -1.5225    0.0000 H   0  0  0  0  0  0  0  0  0  0  0  0
    4.4228   -2.5561    0.0000 H   0  0  0  0  0  0  0  0  0  0  0  0
    2.3157    0.1625    0.0000 H   0  0  0  0  0  0  0  0  0  0  0  0
    3.4030   -0.0985    0.0000 H   0  0  0  0  0  0  0  0  0  0  0  0
    2.3158   -3.2076    0.0000 H   0  0  0  0  0  0  0  0  0  0  0  0
    3.4030   -2.9466    0.0000 H   0  0  0  0  0  0  0  0  0  0  0  0
    5.0392   -0.3885    0.0000 H   0  0  0  0  0  0  0  0  0  0  0  0
    1.8229   -0.3885    0.0000 H   0  0  0  0  0  0  0  0  0  0  0  0
    5.0392    1.4685    0.0000 H   0  0  0  0  0  0  0  0  0  0  0  0
    1.8229    1.4685    0.0000 H   0  0  0  0  0  0  0  0  0  0  0  0
    4.3576    2.7250    0.0000 H   0  0  0  0  0  0  0  0  0  0  0  0
    2.5044    2.7250    0.0000 H   0  0  0  0  0  0  0  0  0  0  0  0
    3.4310    3.2600    0.0000 H   0  0  0  0  0  0  0  0  0  0  0  0
  1  5  1  0  0  0  0
  1  6  1  0  0  0  0
  1 14  1  0  0  0  0
  2  3  1  0  0  0  0
  2  4  1  0  0  0  0
  2  5  1  0  0  0  0
  2  7  1  0  0  0  0
  3  4  1  0  0  0  0
  3  6  1  0  0  0  0
  3 15  1  0  0  0  0
  4 16  1  0  0  0  0
  4 17  1  0  0  0  0
  5 18  1  0  0  0  0
  5 19  1  0  0  0  0
  6 20  1  0  0  0  0
  6 21  1  0  0  0  0
  7  8  2  0  0  0  0
  7  9  1  0  0  0  0
  8 10  1  0  0  0  0
  8 22  1  0  0  0  0
  9 11  2  0  0  0  0
  9 23  1  0  0  0  0
 10 12  2  0  0  0  0
 10 24  1  0  0  0  0
 11 12  1  0  0  0  0
 11 25  1  0  0  0  0
 12 13  1  0  0  0  0
 13 26  1  0  0  0  0
 13 27  1  0  0  0  0
 13 28  1  0  0  0  0
M  END
>  <DRUGBANK_ID>
DB04889

>  <COMMON_NAME>
Bicifadine

>  <CAS_NUMBER>
71195-57-8

>  <UNII>
B0SV3N7J3H

>  <SYNONYMS>
Bicifadine

$$$$
