
 OpenBabel10282417072D

 52 55  0  0  0  0  0  0  0  0999 V2000
    0.7842   -0.3539    0.0000 C   0  0  0  0  0  0  0  0  0  0  0  0
   -0.0003   -0.0990    0.0000 C   0  0  0  0  0  0  0  0  0  0  0  0
   -0.6678   -0.5839    0.0000 C   0  0  0  0  0  0  0  0  0  0  0  0
   -1.3352   -0.0990    0.0000 C   0  0  0  0  0  0  0  0  0  0  0  0
   -1.0803    0.6856    0.0000 N   0  0  0  0  0  0  0  0  0  0  0  0
   -0.2553    0.6856    0.0000 N   0  0  0  0  0  0  0  0  0  0  0  0
    0.2295    1.3530    0.0000 C   0  0  0  0  0  0  0  0  0  0  0  0
   -0.1059    2.1067    0.0000 C   0  0  0  0  0  0  0  0  0  0  0  0
   -0.9264    2.1929    0.0000 C   0  0  0  0  0  0  0  0  0  0  0  0
   -1.2620    2.9466    0.0000 C   0  0  0  0  0  0  0  0  0  0  0  0
   -0.7770    3.6140    0.0000 C   0  0  0  0  0  0  0  0  0  0  0  0
    0.0433    3.5278    0.0000 C   0  0  0  0  0  0  0  0  0  0  0  0
    0.3789    2.7741    0.0000 C   0  0  0  0  0  0  0  0  0  0  0  0
   -1.1126    4.3677    0.0000 C   0  0  0  0  0  0  0  0  0  0  0  0
   -1.4482    5.1214    0.0000 N   0  0  0  0  0  0  0  0  0  0  0  0
   -2.1198   -0.3539    0.0000 C   0  0  0  0  0  0  0  0  0  0  0  0
   -2.9045   -0.6088    0.0000 F   0  0  0  0  0  0  0  0  0  0  0  0
   -2.3748    0.4306    0.0000 F   0  0  0  0  0  0  0  0  0  0  0  0
   -1.8649   -1.1385    0.0000 F   0  0  0  0  0  0  0  0  0  0  0  0
   -0.6678   -1.4089    0.0000 N   0  0  0  0  0  0  0  0  0  0  0  0
    0.0466   -1.8214    0.0000 C   0  0  0  0  0  0  0  0  0  0  0  0
    0.7611   -1.4089    0.0000 O   0  0  0  0  0  0  0  0  0  0  0  0
    0.0466   -2.6464    0.0000 C   0  0  0  0  0  0  0  0  0  0  0  0
   -0.6678   -3.0589    0.0000 C   0  0  0  0  0  0  0  0  0  0  0  0
   -0.6678   -3.8839    0.0000 C   0  0  0  0  0  0  0  0  0  0  0  0
    0.0466   -4.2964    0.0000 N   0  0  0  0  0  0  0  0  0  0  0  0
    0.7611   -3.8839    0.0000 C   0  0  0  0  0  0  0  0  0  0  0  0
    0.7611   -3.0589    0.0000 C   0  0  0  0  0  0  0  0  0  0  0  0
    1.4755   -2.6464    0.0000 C   0  0  0  0  0  0  0  0  0  0  0  0
    2.1900   -3.0589    0.0000 C   0  0  0  0  0  0  0  0  0  0  0  0
    2.1900   -3.8839    0.0000 C   0  0  0  0  0  0  0  0  0  0  0  0
    1.4755   -4.2964    0.0000 C   0  0  0  0  0  0  0  0  0  0  0  0
    2.9045   -4.2964    0.0000 F   0  0  0  0  0  0  0  0  0  0  0  0
   -1.3823   -4.2964    0.0000 C   0  0  0  0  0  0  0  0  0  0  0  0
   -1.3823   -5.1214    0.0000 O   0  0  0  0  0  0  0  0  0  0  0  0
   -2.0967   -3.8839    0.0000 N   0  0  0  0  0  0  0  0  0  0  0  0
    1.0067   -1.4005    0.0000 H   0  0  0  0  0  0  0  0  0  0  0  0
    1.5794    0.3621    0.0000 H   0  0  0  0  0  0  0  0  0  0  0  0
    1.8018   -0.6845    0.0000 H   0  0  0  0  0  0  0  0  0  0  0  0
    1.2936    1.2411    0.0000 H   0  0  0  0  0  0  0  0  0  0  0  0
    0.8585    2.2186    0.0000 H   0  0  0  0  0  0  0  0  0  0  0  0
   -1.5330    1.3580    0.0000 H   0  0  0  0  0  0  0  0  0  0  0  0
   -2.2883    3.0545    0.0000 H   0  0  0  0  0  0  0  0  0  0  0  0
    0.6499    4.3627    0.0000 H   0  0  0  0  0  0  0  0  0  0  0  0
    1.4053    2.6663    0.0000 H   0  0  0  0  0  0  0  0  0  0  0  0
   -1.5204   -1.9011    0.0000 H   0  0  0  0  0  0  0  0  0  0  0  0
   -1.5615   -2.5429    0.0000 H   0  0  0  0  0  0  0  0  0  0  0  0
    1.4755   -1.6144    0.0000 H   0  0  0  0  0  0  0  0  0  0  0  0
    3.0837   -2.5429    0.0000 H   0  0  0  0  0  0  0  0  0  0  0  0
    1.4755   -5.3284    0.0000 H   0  0  0  0  0  0  0  0  0  0  0  0
   -2.0967   -2.8994    0.0000 H   0  0  0  0  0  0  0  0  0  0  0  0
   -2.9493   -4.3761    0.0000 H   0  0  0  0  0  0  0  0  0  0  0  0
  1  2  1  0  0  0  0
  1 37  1  0  0  0  0
  1 38  1  0  0  0  0
  1 39  1  0  0  0  0
  2  3  2  0  0  0  0
  2  6  1  0  0  0  0
  3  4  1  0  0  0  0
  3 20  1  0  0  0  0
  4  5  2  0  0  0  0
  4 16  1  0  0  0  0
  5  6  1  0  0  0  0
  6  7  1  0  0  0  0
  7  8  1  0  0  0  0
  7 40  1  0  0  0  0
  7 41  1  0  0  0  0
  8  9  2  0  0  0  0
  8 13  1  0  0  0  0
  9 10  1  0  0  0  0
  9 42  1  0  0  0  0
 10 11  2  0  0  0  0
 10 43  1  0  0  0  0
 11 12  1  0  0  0  0
 11 14  1  0  0  0  0
 12 13  2  0  0  0  0
 12 44  1  0  0  0  0
 13 45  1  0  0  0  0
 14 15  3  0  0  0  0
 16 17  1  0  0  0  0
 16 18  1  0  0  0  0
 16 19  1  0  0  0  0
 20 21  1  0  0  0  0
 20 46  1  0  0  0  0
 21 22  2  0  0  0  0
 21 23  1  0  0  0  0
 23 24  2  0  0  0  0
 23 28  1  0  0  0  0
 24 25  1  0  0  0  0
 24 47  1  0  0  0  0
 25 26  2  0  0  0  0
 25 34  1  0  0  0  0
 26 27  1  0  0  0  0
 27 28  2  0  0  0  0
 27 32  1  0  0  0  0
 28 29  1  0  0  0  0
 29 30  2  0  0  0  0
 29 48  1  0  0  0  0
 30 31  1  0  0  0  0
 30 49  1  0  0  0  0
 31 32  2  0  0  0  0
 31 33  1  0  0  0  0
 32 50  1  0  0  0  0
 34 35  2  0  0  0  0
 34 36  1  0  0  0  0
 36 51  1  0  0  0  0
 36 52  1  0  0  0  0
M  END
>  <DRUGBANK_ID>
DB16758

>  <COMMON_NAME>
BAY-876

>  <CAS_NUMBER>
1799753-84-6

>  <SYNONYMS>
BAY 876; BAY876

$$$$
