
 OpenBabel10282417072D

 24 24  0  0  0  0  0  0  0  0999 V2000
    1.0715    1.0317    0.0000 O   0  0  0  0  0  0  0  0  0  0  0  0
    0.3573    0.6185    0.0000 C   0  0  0  0  0  0  0  0  0  0  0  0
   -0.3604    1.0310    0.0000 C   0  0  0  0  0  0  0  0  0  0  0  0
   -1.0700    0.6185    0.0000 C   0  0  0  0  0  0  0  0  0  0  0  0
   -1.7853    1.0300    0.0000 O   0  0  0  0  0  0  0  0  0  0  0  0
   -1.7865    1.8551    0.0000 C   0  0  0  0  0  0  0  0  0  0  0  0
   -1.0700   -0.2065    0.0000 C   0  0  0  0  0  0  0  0  0  0  0  0
   -0.3604   -0.6192    0.0000 C   0  0  0  0  0  0  0  0  0  0  0  0
   -0.3624   -1.4443    0.0000 O   0  0  0  0  0  0  0  0  0  0  0  0
   -1.0781   -1.8551    0.0000 C   0  0  0  0  0  0  0  0  0  0  0  0
    0.3573   -0.2065    0.0000 C   0  0  0  0  0  0  0  0  0  0  0  0
    1.7865    0.6199    0.0000 C   0  0  0  0  0  0  0  0  0  0  0  0
   -0.3629    2.0630    0.0000 H   0  0  0  0  0  0  0  0  0  0  0  0
   -0.8606    2.3914    0.0000 H   0  0  0  0  0  0  0  0  0  0  0  0
   -2.7139    2.3888    0.0000 H   0  0  0  0  0  0  0  0  0  0  0  0
   -1.7881    2.9251    0.0000 H   0  0  0  0  0  0  0  0  0  0  0  0
   -1.9646   -0.7211    0.0000 H   0  0  0  0  0  0  0  0  0  0  0  0
   -2.0034   -1.3178    0.0000 H   0  0  0  0  0  0  0  0  0  0  0  0
   -1.0808   -2.9251    0.0000 H   0  0  0  0  0  0  0  0  0  0  0  0
   -2.0061   -2.3878    0.0000 H   0  0  0  0  0  0  0  0  0  0  0  0
    1.2506   -0.7233    0.0000 H   0  0  0  0  0  0  0  0  0  0  0  0
    1.7876   -0.4501    0.0000 H   0  0  0  0  0  0  0  0  0  0  0  0
    2.7126    1.1559    0.0000 H   0  0  0  0  0  0  0  0  0  0  0  0
    2.7137    0.0859    0.0000 H   0  0  0  0  0  0  0  0  0  0  0  0
  1  2  1  0  0  0  0
  1 12  1  0  0  0  0
  2  3  1  0  0  0  0
  3  4  2  0  0  0  0
  3 13  1  0  0  0  0
  4  5  1  0  0  0  0
  4  7  1  0  0  0  0
  5  6  1  0  0  0  0
  6 14  1  0  0  0  0
  6 15  1  0  0  0  0
  6 16  1  0  0  0  0
  7  8  2  0  0  0  0
  7 17  1  0  0  0  0
  8  9  1  0  0  0  0
  8 11  1  0  0  0  0
  9 10  1  0  0  0  0
 10 18  1  0  0  0  0
 10 19  1  0  0  0  0
 10 20  1  0  0  0  0
 11  2  2  0  0  0  0
 11 21  1  0  0  0  0
 12 22  1  0  0  0  0
 12 23  1  0  0  0  0
 12 24  1  0  0  0  0
M  END
>  <DRUGBANK_ID>
DB15875

>  <COMMON_NAME>
1,3,5-Trimethoxybenzene

>  <CAS_NUMBER>
621-23-8

>  <UNII>
00VJI3VG3D

>  <SYNONYMS>
1,3,5-Trimethoxybenzene; 1,3,5-Trimethyoxybenzene; Phloroglucinol trimethyl ether; sym-Trimethoxybenzene

$$$$
