ZAP
 OpenBabel10282417072D

 43 44  0  0  0  0  0  0  0  0999 V2000
    2.6732    2.7452    0.0000 C   0  0  0  0  0  0  0  0  0  0  0  0
    2.2607    2.0307    0.0000 C   0  0  0  0  0  0  0  0  0  0  0  0
    2.6732    1.3162    0.0000 C   0  0  0  0  0  0  0  0  0  0  0  0
    2.2607    0.6018    0.0000 C   0  0  0  0  0  0  0  0  0  0  0  0
    1.4357    0.6018    0.0000 C   0  0  0  0  0  0  0  0  0  0  0  0
    1.0232    1.3162    0.0000 C   0  0  0  0  0  0  0  0  0  0  0  0
    1.4357    2.0307    0.0000 C   0  0  0  0  0  0  0  0  0  0  0  0
    1.0232   -0.1127    0.0000 C   0  0  2  0  0  0  0  0  0  0  0  0
   -0.2143   -0.8272    0.0000 C   0  0  0  0  0  0  0  0  0  0  0  0
   -1.4518   -1.5417    0.0000 C   0  0  0  0  0  0  0  0  0  0  0  0
   -2.2768   -1.5417    0.0000 C   0  0  0  0  0  0  0  0  0  0  0  0
   -2.6893   -2.2561    0.0000 C   0  0  0  0  0  0  0  0  0  0  0  0
   -3.5143   -2.2561    0.0000 C   0  0  0  0  0  0  0  0  0  0  0  0
   -3.9268   -1.5417    0.0000 C   0  0  0  0  0  0  0  0  0  0  0  0
   -3.5143   -0.8272    0.0000 C   0  0  0  0  0  0  0  0  0  0  0  0
   -2.6893   -0.8272    0.0000 C   0  0  0  0  0  0  0  0  0  0  0  0
    2.2607    3.4596    0.0000 N   0  0  0  0  0  0  0  0  0  0  0  0
    3.4982    2.7452    0.0000 N   0  0  0  0  0  0  0  0  0  0  0  0
    0.1982   -0.1127    0.0000 N   0  0  0  0  0  0  0  0  0  0  0  0
    0.1982   -1.5417    0.0000 O   0  0  0  0  0  0  0  0  0  0  0  0
   -1.0393   -0.8272    0.0000 O   0  0  0  0  0  0  0  0  0  0  0  0
    0.7212   -1.2397    0.0000 O   0  0  0  0  0  0  0  0  0  0  0  0
    2.1502   -0.4147    0.0000 O   0  0  0  0  0  0  0  0  0  0  0  0
    1.8482   -1.5417    0.0000 O   0  0  0  0  0  0  0  0  0  0  0  0
    1.4357   -0.8272    0.0000 P   0  0  0  0  0  0  0  0  0  0  0  0
    0.7312    0.3930    0.0000 H   0  0  0  0  0  0  0  0  0  0  0  0
    3.7052    1.3162    0.0000 H   0  0  0  0  0  0  0  0  0  0  0  0
    2.7767   -0.2919    0.0000 H   0  0  0  0  0  0  0  0  0  0  0  0
   -0.0088    1.3162    0.0000 H   0  0  0  0  0  0  0  0  0  0  0  0
    0.9197    2.9244    0.0000 H   0  0  0  0  0  0  0  0  0  0  0  0
   -0.9168   -2.4683    0.0000 H   0  0  0  0  0  0  0  0  0  0  0  0
   -0.3818   -1.5417    0.0000 H   0  0  0  0  0  0  0  0  0  0  0  0
   -2.1733   -3.1498    0.0000 H   0  0  0  0  0  0  0  0  0  0  0  0
   -4.0303   -3.1498    0.0000 H   0  0  0  0  0  0  0  0  0  0  0  0
   -4.9588   -1.5417    0.0000 H   0  0  0  0  0  0  0  0  0  0  0  0
   -4.0303    0.0665    0.0000 H   0  0  0  0  0  0  0  0  0  0  0  0
   -2.1733    0.0665    0.0000 H   0  0  0  0  0  0  0  0  0  0  0  0
    2.7529    4.3122    0.0000 H   0  0  0  0  0  0  0  0  0  0  0  0
    3.9905    1.8926    0.0000 H   0  0  0  0  0  0  0  0  0  0  0  0
    3.9905    3.5978    0.0000 H   0  0  0  0  0  0  0  0  0  0  0  0
   -0.2941    0.7399    0.0000 H   0  0  0  0  0  0  0  0  0  0  0  0
    2.9902   -0.8997    0.0000 H   0  0  0  0  0  0  0  0  0  0  0  0
    1.3632   -2.3817    0.0000 H   0  0  0  0  0  0  0  0  0  0  0  0
  1  2  1  0  0  0  0
  1 17  2  0  0  0  0
  1 18  1  0  0  0  0
  2  3  2  0  0  0  0
  2  7  1  0  0  0  0
  3  4  1  0  0  0  0
  3 27  1  0  0  0  0
  4  5  2  0  0  0  0
  4 28  1  0  0  0  0
  5  6  1  0  0  0  0
  5  8  1  0  0  0  0
  6  7  2  0  0  0  0
  6 29  1  0  0  0  0
  7 30  1  0  0  0  0
  8 19  1  0  0  0  0
  8 25  1  0  0  0  0
  8 26  1  6  0  0  0
  9 19  1  0  0  0  0
  9 20  2  0  0  0  0
  9 21  1  0  0  0  0
 10 11  1  0  0  0  0
 10 21  1  0  0  0  0
 10 31  1  0  0  0  0
 10 32  1  0  0  0  0
 11 12  2  0  0  0  0
 11 16  1  0  0  0  0
 12 13  1  0  0  0  0
 12 33  1  0  0  0  0
 13 14  2  0  0  0  0
 13 34  1  0  0  0  0
 14 15  1  0  0  0  0
 14 35  1  0  0  0  0
 15 16  2  0  0  0  0
 15 36  1  0  0  0  0
 16 37  1  0  0  0  0
 17 38  1  0  0  0  0
 18 39  1  0  0  0  0
 18 40  1  0  0  0  0
 19 41  1  0  0  0  0
 22 25  2  0  0  0  0
 23 25  1  0  0  0  0
 23 42  1  0  0  0  0
 24 25  1  0  0  0  0
 24 43  1  0  0  0  0
M  END
>  <DRUGBANK_ID>
DB08763

>  <COMMON_NAME>
[N-(BENZYLOXYCARBONYL)AMINO](4-AMIDINOPHENYL)METHANE-PHOSPHONATE

$$$$
