
 OpenBabel10282417072D

111119  0  0  0  0  0  0  0  0999 V2000
   -1.4347    1.8312    0.0000 N   0  0  3  0  0  0  0  0  0  0  0  0
   -1.4324    1.0051    0.0000 C   0  0  0  0  0  0  0  0  0  0  0  0
   -0.7196    0.5971    0.0000 C   0  0  1  0  0  0  0  0  0  0  0  0
   -0.0051    1.0104    0.0000 C   0  0  0  0  0  0  0  0  0  0  0  0
   -0.0082    1.8365    0.0000 C   0  0  0  0  0  0  0  0  0  0  0  0
   -0.7258    2.2491    0.0000 C   0  0  0  0  0  0  0  0  0  0  0  0
   -0.7176   -0.2280    0.0000 C   0  0  0  0  0  0  0  0  0  0  0  0
   -1.4511   -0.6057    0.0000 C   0  0  2  0  0  0  0  0  0  0  0  0
   -2.0750   -1.1495    0.0000 C   0  0  0  0  0  0  0  0  0  0  0  0
   -0.7355   -1.0102    0.0000 C   0  0  0  0  0  0  0  0  0  0  0  0
   -0.7308   -1.8333    0.0000 C   0  0  0  0  0  0  0  0  0  0  0  0
   -0.0160   -2.2378    0.0000 C   0  0  0  0  0  0  0  0  0  0  0  0
   -0.0322   -0.5933    0.0000 C   0  0  0  0  0  0  0  0  0  0  0  0
    0.6830   -0.9941    0.0000 C   0  0  0  0  0  0  0  0  0  0  0  0
    0.6959   -1.8168    0.0000 C   0  0  0  0  0  0  0  0  0  0  0  0
    1.4825   -2.0589    0.0000 N   0  0  0  0  0  0  0  0  0  0  0  0
    1.4615   -0.7275    0.0000 C   0  0  1  0  0  0  0  0  0  0  0  0
    1.9544   -1.3883    0.0000 C   0  0  2  0  0  0  0  0  0  0  0  0
    2.7685   -1.2923    0.0000 C   0  0  2  0  0  0  0  0  0  0  0  0
    3.0960   -0.5370    0.0000 C   0  0  1  0  0  0  0  0  0  0  0  0
    2.6045    0.1206    0.0000 C   0  0  2  0  0  0  0  0  0  0  0  0
    2.9341    0.8739    0.0000 C   0  0  0  0  0  0  0  0  0  0  0  0
    2.4462    1.5405    0.0000 C   0  0  0  0  0  0  0  0  0  0  0  0
    1.6244    1.4489    0.0000 C   0  0  0  0  0  0  0  0  0  0  0  0
    1.7876    0.0273    0.0000 C   0  0  2  0  0  0  0  0  0  0  0  0
    1.2907    0.6906    0.0000 N   0  0  3  0  0  0  0  0  0  0  0  0
    0.5062    0.4231    0.0000 C   0  0  0  0  0  0  0  0  0  0  0  0
    0.5182   -0.4056    0.0000 C   0  0  0  0  0  0  0  0  0  0  0  0
    3.3955    0.3419    0.0000 C   0  0  0  0  0  0  0  0  0  0  0  0
    3.6002    1.1412    0.0000 C   0  0  0  0  0  0  0  0  0  0  0  0
    1.7496   -2.8395    0.0000 C   0  0  0  0  0  0  0  0  0  0  0  0
    2.1608   -2.1282    0.0000 H   0  0  0  0  0  0  0  0  0  0  0  0
   -1.4424   -2.2510    0.0000 O   0  0  0  0  0  0  0  0  0  0  0  0
   -1.9104   -1.9555    0.0000 O   0  0  0  0  0  0  0  0  0  0  0  0
   -1.4364   -3.0760    0.0000 C   0  0  0  0  0  0  0  0  0  0  0  0
   -2.8565   -0.8850    0.0000 O   0  0  0  0  0  0  0  0  0  0  0  0
   -3.4763   -1.4297    0.0000 C   0  0  0  0  0  0  0  0  0  0  0  0
   -0.1116    0.0484    0.0000 H   0  0  0  0  0  0  0  0  0  0  0  0
    0.7051    2.2511    0.0000 C   0  0  0  0  0  0  0  0  0  0  0  0
    0.7028    3.0760    0.0000 C   0  0  0  0  0  0  0  0  0  0  0  0
    2.4977   -0.3826    0.0000 H   0  0  0  0  0  0  0  0  0  0  0  0
    3.4833   -1.7042    0.0000 C   0  0  0  0  0  0  0  0  0  0  0  0
    2.7645   -2.1118    0.0000 O   0  0  0  0  0  0  0  0  0  0  0  0
    3.4839   -2.5293    0.0000 O   0  0  0  0  0  0  0  0  0  0  0  0
    4.1975   -1.2912    0.0000 O   0  0  0  0  0  0  0  0  0  0  0  0
    4.9123   -1.7032    0.0000 C   0  0  0  0  0  0  0  0  0  0  0  0
   -4.9847    1.5335    0.0000 C   0  0  0  0  0  0  0  0  0  0  0  0
   -5.2395    0.7462    0.0000 C   0  0  0  0  0  0  0  0  0  0  0  0
   -4.6857    0.1341    0.0000 C   0  0  0  0  0  0  0  0  0  0  0  0
   -4.1806    1.7082    0.0000 C   0  0  0  0  0  0  0  0  0  0  0  0
   -3.6250    1.0994    0.0000 C   0  0  0  0  0  0  0  0  0  0  0  0
   -3.8796    0.3082    0.0000 C   0  0  0  0  0  0  0  0  0  0  0  0
   -3.2058   -0.1783    0.0000 N   0  0  0  0  0  0  0  0  0  0  0  0
   -2.5348    0.3120    0.0000 C   0  0  0  0  0  0  0  0  0  0  0  0
   -2.7940    1.1017    0.0000 C   0  0  0  0  0  0  0  0  0  0  0  0
   -2.4093    1.8288    0.0000 C   0  0  0  0  0  0  0  0  0  0  0  0
    3.8105   -0.1245    0.0000 H   0  0  0  0  0  0  0  0  0  0  0  0
    3.8105   -0.9496    0.0000 O   0  0  0  0  0  0  0  0  0  0  0  0
    4.5250   -0.5370    0.0000 C   0  0  0  0  0  0  0  0  0  0  0  0
    5.2395   -0.9496    0.0000 C   0  0  0  0  0  0  0  0  0  0  0  0
    4.5250    0.2879    0.0000 O   0  0  0  0  0  0  0  0  0  0  0  0
   -2.3573    0.4671    0.0000 H   0  0  0  0  0  0  0  0  0  0  0  0
   -2.3607    1.5373    0.0000 H   0  0  0  0  0  0  0  0  0  0  0  0
    0.8898    0.4964    0.0000 H   0  0  0  0  0  0  0  0  0  0  0  0
   -0.7316    3.3191    0.0000 H   0  0  0  0  0  0  0  0  0  0  0  0
    0.1989    2.7874    0.0000 H   0  0  0  0  0  0  0  0  0  0  0  0
    0.1966   -0.7840    0.0000 H   0  0  0  0  0  0  0  0  0  0  0  0
   -0.7555   -1.2973    0.0000 H   0  0  0  0  0  0  0  0  0  0  0  0
   -0.0061   -3.2698    0.0000 H   0  0  0  0  0  0  0  0  0  0  0  0
   -0.0447    0.4386    0.0000 H   0  0  0  0  0  0  0  0  0  0  0  0
    3.9599    0.9869    0.0000 H   0  0  0  0  0  0  0  0  0  0  0  0
    2.8613    2.4853    0.0000 H   0  0  0  0  0  0  0  0  0  0  0  0
    0.9909    2.3112    0.0000 H   0  0  0  0  0  0  0  0  0  0  0  0
    0.5608    1.3319    0.0000 H   0  0  0  0  0  0  0  0  0  0  0  0
   -0.3685    1.0394    0.0000 H   0  0  0  0  0  0  0  0  0  0  0  0
   -0.4400   -0.0764    0.0000 H   0  0  0  0  0  0  0  0  0  0  0  0
   -0.3475   -1.0344    0.0000 H   0  0  0  0  0  0  0  0  0  0  0  0
    0.6778   -1.4636    0.0000 H   0  0  0  0  0  0  0  0  0  0  0  0
    4.1604   -0.4063    0.0000 H   0  0  0  0  0  0  0  0  0  0  0  0
    4.4259    0.6303    0.0000 H   0  0  0  0  0  0  0  0  0  0  0  0
    4.6306    1.4296    0.0000 H   0  0  0  0  0  0  0  0  0  0  0  0
    2.8353    1.8894    0.0000 H   0  0  0  0  0  0  0  0  0  0  0  0
    3.8657    2.1777    0.0000 H   0  0  0  0  0  0  0  0  0  0  0  0
    1.0461   -3.6457    0.0000 H   0  0  0  0  0  0  0  0  0  0  0  0
    2.7995   -3.0457    0.0000 H   0  0  0  0  0  0  0  0  0  0  0  0
    2.0960   -3.8519    0.0000 H   0  0  0  0  0  0  0  0  0  0  0  0
   -2.3591   -3.6177    0.0000 H   0  0  0  0  0  0  0  0  0  0  0  0
   -0.5059   -3.6042    0.0000 H   0  0  0  0  0  0  0  0  0  0  0  0
   -1.4286   -4.1460    0.0000 H   0  0  0  0  0  0  0  0  0  0  0  0
   -4.4899   -1.0868    0.0000 H   0  0  0  0  0  0  0  0  0  0  0  0
   -3.2665   -2.4789    0.0000 H   0  0  0  0  0  0  0  0  0  0  0  0
   -4.2800   -2.1360    0.0000 H   0  0  0  0  0  0  0  0  0  0  0  0
    1.6333    1.7187    0.0000 H   0  0  0  0  0  0  0  0  0  0  0  0
    1.6302    2.7887    0.0000 H   0  0  0  0  0  0  0  0  0  0  0  0
    1.6280    3.6136    0.0000 H   0  0  0  0  0  0  0  0  0  0  0  0
   -0.2253    3.6084    0.0000 H   0  0  0  0  0  0  0  0  0  0  0  0
    0.6998    4.1460    0.0000 H   0  0  0  0  0  0  0  0  0  0  0  0
    1.9221   -2.5927    0.0000 H   0  0  0  0  0  0  0  0  0  0  0  0
    4.9131   -2.7732    0.0000 H   0  0  0  0  0  0  0  0  0  0  0  0
    5.8386   -1.1675    0.0000 H   0  0  0  0  0  0  0  0  0  0  0  0
    5.8393   -2.2375    0.0000 H   0  0  0  0  0  0  0  0  0  0  0  0
   -5.6774    2.2985    0.0000 H   0  0  0  0  0  0  0  0  0  0  0  0
   -6.2486    0.5298    0.0000 H   0  0  0  0  0  0  0  0  0  0  0  0
   -5.0018   -0.8483    0.0000 H   0  0  0  0  0  0  0  0  0  0  0  0
   -3.8672    2.6915    0.0000 H   0  0  0  0  0  0  0  0  0  0  0  0
   -3.2030   -1.1628    0.0000 H   0  0  0  0  0  0  0  0  0  0  0  0
   -2.9625    2.7447    0.0000 H   0  0  0  0  0  0  0  0  0  0  0  0
   -1.8846    2.7613    0.0000 H   0  0  0  0  0  0  0  0  0  0  0  0
    5.2394   -2.0196    0.0000 H   0  0  0  0  0  0  0  0  0  0  0  0
    6.1662   -0.4147    0.0000 H   0  0  0  0  0  0  0  0  0  0  0  0
    6.1661   -1.4847    0.0000 H   0  0  0  0  0  0  0  0  0  0  0  0
  1  6  1  0  0  0  0
  1  2  1  0  0  0  0
  1 56  1  0  0  0  0
  2  3  1  0  0  0  0
  2 62  1  0  0  0  0
  2 63  1  0  0  0  0
  3  4  1  0  0  0  0
  3  7  1  0  0  0  0
  3 38  1  6  0  0  0
  4  5  2  0  0  0  0
  4 64  1  0  0  0  0
  5  6  1  0  0  0  0
  5 39  1  0  0  0  0
  6 65  1  0  0  0  0
  6 66  1  0  0  0  0
  7  8  1  0  0  0  0
  7 67  1  0  0  0  0
  7 68  1  0  0  0  0
  8  9  1  1  0  0  0
  8 10  1  0  0  0  0
  9 34  2  0  0  0  0
  9 36  1  0  0  0  0
 10 11  2  0  0  0  0
 11 12  1  0  0  0  0
 11 33  1  0  0  0  0
 12 15  2  0  0  0  0
 12 69  1  0  0  0  0
 13 10  1  0  0  0  0
 13 70  1  0  0  0  0
 14 13  2  0  0  0  0
 14 15  1  0  0  0  0
 15 16  1  0  0  0  0
 16 31  1  0  0  0  0
 16 18  1  0  0  0  0
 17 25  1  0  0  0  0
 17 28  1  0  0  0  0
 17 14  1  6  0  0  0
 17 18  1  0  0  0  0
 18 19  1  0  0  0  0
 18 32  1  1  0  0  0
 19 20  1  0  0  0  0
 19 42  1  6  0  0  0
 19 43  1  0  0  0  0
 20 21  1  0  0  0  0
 20 57  1  6  0  0  0
 21 22  1  0  0  0  0
 21 29  1  6  0  0  0
 22 23  2  0  0  0  0
 22 71  1  0  0  0  0
 23 24  1  0  0  0  0
 23 72  1  0  0  0  0
 24 26  1  0  0  0  0
 24 73  1  0  0  0  0
 24 74  1  0  0  0  0
 25 21  1  0  0  0  0
 25 26  1  0  0  0  0
 25 41  1  6  0  0  0
 26 27  1  0  0  0  0
 27 75  1  0  0  0  0
 27 76  1  0  0  0  0
 28 27  1  0  0  0  0
 28 77  1  0  0  0  0
 28 78  1  0  0  0  0
 29 30  1  0  0  0  0
 29 79  1  0  0  0  0
 29 80  1  0  0  0  0
 30 81  1  0  0  0  0
 30 82  1  0  0  0  0
 30 83  1  0  0  0  0
 31 84  1  0  0  0  0
 31 85  1  0  0  0  0
 31 86  1  0  0  0  0
 33 35  1  0  0  0  0
 35 87  1  0  0  0  0
 35 88  1  0  0  0  0
 35 89  1  0  0  0  0
 36 37  1  0  0  0  0
 37 90  1  0  0  0  0
 37 91  1  0  0  0  0
 37 92  1  0  0  0  0
 39 40  1  0  0  0  0
 39 93  1  0  0  0  0
 39 94  1  0  0  0  0
 40 95  1  0  0  0  0
 40 96  1  0  0  0  0
 40 97  1  0  0  0  0
 42 44  2  0  0  0  0
 42 45  1  0  0  0  0
 43 98  1  0  0  0  0
 45 46  1  0  0  0  0
 46 99  1  0  0  0  0
 46100  1  0  0  0  0
 46101  1  0  0  0  0
 47 48  2  0  0  0  0
 47102  1  0  0  0  0
 48 49  1  0  0  0  0
 48103  1  0  0  0  0
 49 52  2  0  0  0  0
 49104  1  0  0  0  0
 50 47  1  0  0  0  0
 50105  1  0  0  0  0
 51 50  2  0  0  0  0
 51 52  1  0  0  0  0
 52 53  1  0  0  0  0
 53 54  1  0  0  0  0
 53106  1  0  0  0  0
 54 55  2  0  0  0  0
 54  8  1  0  0  0  0
 55 51  1  0  0  0  0
 55 56  1  0  0  0  0
 56107  1  0  0  0  0
 56108  1  0  0  0  0
 58 20  1  0  0  0  0
 58 59  1  0  0  0  0
 59 60  1  0  0  0  0
 59 61  2  0  0  0  0
 60109  1  0  0  0  0
 60110  1  0  0  0  0
 60111  1  0  0  0  0
M  END
>  <DRUGBANK_ID>
DB00361

>  <SECONDARY_ACCESSION_NUMBERS>
APRD00101

>  <COMMON_NAME>
Vinorelbine

>  <CAS_NUMBER>
71486-22-1

>  <UNII>
Q6C979R91Y

>  <SYNONYMS>
5'-Noranhydrovinblastine; Vinorelbin; Vinorelbina; Vinorelbine; Vinorelbinum

$$$$
