
 OpenBabel10282417072D

 34 37  0  0  0  0  0  0  0  0999 V2000
   -2.2508    1.9253    0.0000 N   0  0  0  0  0  0  0  0  0  0  0  0
   -2.2508    1.1003    0.0000 C   0  0  0  0  0  0  0  0  0  0  0  0
   -0.8218    1.9253    0.0000 C   0  0  0  0  0  0  0  0  0  0  0  0
   -0.8218    1.1003    0.0000 C   0  0  0  0  0  0  0  0  0  0  0  0
   -1.5363    2.3378    0.0000 C   0  0  0  0  0  0  0  0  0  0  0  0
   -1.5363    0.6878    0.0000 N   0  0  0  0  0  0  0  0  0  0  0  0
    0.2176    0.0606    0.0000 C   0  0  2  0  0  0  0  0  0  0  0  0
   -0.2672   -0.6067    0.0000 O   0  0  0  0  0  0  0  0  0  0  0  0
    0.2176   -1.2741    0.0000 C   0  0  1  0  0  0  0  0  0  0  0  0
    1.0023   -1.0192    0.0000 C   0  0  2  0  0  0  0  0  0  0  0  0
    1.0023   -0.1942    0.0000 C   0  0  1  0  0  0  0  0  0  0  0  0
    1.6697    0.2907    0.0000 O   0  0  0  0  0  0  0  0  0  0  0  0
    1.6153   -1.5712    0.0000 O   0  0  0  0  0  0  0  0  0  0  0  0
    0.0461   -2.0810    0.0000 C   0  0  0  0  0  0  0  0  0  0  0  0
    0.6592   -2.6331    0.0000 O   0  0  0  0  0  0  0  0  0  0  0  0
    2.2508   -2.5497    0.0000 O   0  0  0  0  0  0  0  0  0  0  0  0
    1.4438   -2.3782    0.0000 P   0  0  3  0  0  0  0  0  0  0  0  0
    1.6988   -3.1628    0.0000 O   0  0  0  0  0  0  0  0  0  0  0  0
   -0.0372    0.8454    0.0000 N   0  0  0  0  0  0  0  0  0  0  0  0
    0.4476    1.5128    0.0000 C   0  0  0  0  0  0  0  0  0  0  0  0
   -0.0372    2.1802    0.0000 N   0  0  0  0  0  0  0  0  0  0  0  0
   -1.5363    3.1628    0.0000 N   0  0  0  0  0  0  0  0  0  0  0  0
   -3.1445    0.5843    0.0000 H   0  0  0  0  0  0  0  0  0  0  0  0
   -0.8392    0.2281    0.0000 H   0  0  0  0  0  0  0  0  0  0  0  0
   -0.8290   -1.4965    0.0000 H   0  0  0  0  0  0  0  0  0  0  0  0
    0.7798   -2.0658    0.0000 H   0  0  0  0  0  0  0  0  0  0  0  0
    0.8348    0.8626    0.0000 H   0  0  0  0  0  0  0  0  0  0  0  0
    2.5558   -0.1038    0.0000 H   0  0  0  0  0  0  0  0  0  0  0  0
   -0.9715   -2.4116    0.0000 H   0  0  0  0  0  0  0  0  0  0  0  0
   -0.1764   -3.1276    0.0000 H   0  0  0  0  0  0  0  0  0  0  0  0
    1.0498   -3.8837    0.0000 H   0  0  0  0  0  0  0  0  0  0  0  0
    1.4796    1.5128    0.0000 H   0  0  0  0  0  0  0  0  0  0  0  0
   -0.6837    3.6551    0.0000 H   0  0  0  0  0  0  0  0  0  0  0  0
   -2.3889    3.6550    0.0000 H   0  0  0  0  0  0  0  0  0  0  0  0
  1  2  2  0  0  0  0
  2 23  1  0  0  0  0
  3 21  1  0  0  0  0
  3  4  1  0  0  0  0
  3  5  2  0  0  0  0
  4 19  1  0  0  0  0
  4  6  2  0  0  0  0
  5  1  1  0  0  0  0
  6  2  1  0  0  0  0
  7 19  1  0  0  0  0
  7 11  1  0  0  0  0
  7 24  1  6  0  0  0
  8  7  1  0  0  0  0
  9  8  1  0  0  0  0
  9 14  1  0  0  0  0
  9 10  1  0  0  0  0
  9 25  1  6  0  0  0
 10 13  1  0  0  0  0
 10 11  1  0  0  0  0
 10 26  1  1  0  0  0
 11 12  1  0  0  0  0
 11 27  1  1  0  0  0
 12 28  1  0  0  0  0
 13 17  1  0  0  0  0
 14 29  1  0  0  0  0
 14 30  1  0  0  0  0
 15 14  1  0  0  0  0
 17 15  1  0  0  0  0
 17 16  2  0  0  0  0
 17 18  1  0  0  0  0
 18 31  1  0  0  0  0
 20 19  1  0  0  0  0
 20 32  1  0  0  0  0
 21 20  2  0  0  0  0
 22  5  1  0  0  0  0
 22 33  1  0  0  0  0
 22 34  1  0  0  0  0
M  END
>  <DRUGBANK_ID>
DB02527

>  <SECONDARY_ACCESSION_NUMBERS>
EXPT00959

>  <COMMON_NAME>
Cyclic adenosine monophosphate

>  <CAS_NUMBER>
60-92-4

>  <UNII>
E0399OZS9N

>  <SYNONYMS>
3',5'-cyclic AMP; Adenosine 3',5'-cyclic monophosphate; Adenosine 3',5'-cyclic phosphate; Adenosine 3',5'-phosphate; AMPC; cAMP; Cyclic adenylic acid; Cyclic AMP

$$$$
