
 OpenBabel10282417072D

 54 59  0  0  1  0  0  0  0  0999 V2000
    7.1015   -8.5657    0.0000 C   0  0  0  0  0  0  0  0  0  0  0  0
    7.1015   -9.3908    0.0000 O   0  0  0  0  0  0  0  0  0  0  0  0
    7.8861   -9.6457    0.0000 C   0  0  2  0  0  0  0  0  0  0  0  0
    8.3710   -8.9783    0.0000 C   0  0  2  0  0  0  0  0  0  0  0  0
    7.8861   -8.3108    0.0000 C   0  0  2  0  0  0  0  0  0  0  0  0
    9.1557  -10.0582    0.0000 C   0  0  2  0  0  0  0  0  0  0  0  0
    9.1557   -9.2332    0.0000 C   0  0  1  0  0  0  0  0  0  0  0  0
    9.9403  -10.3131    0.0000 C   0  0  2  0  0  0  0  0  0  0  0  0
   10.4253   -9.6457    0.0000 C   0  0  2  0  0  0  0  0  0  0  0  0
    9.9403   -8.9783    0.0000 O   0  0  0  0  0  0  0  0  0  0  0  0
   11.2099   -9.9006    0.0000 O   0  0  0  0  0  0  0  0  0  0  0  0
   11.2099  -10.7256    0.0000 C   0  0  0  0  0  0  0  0  0  0  0  0
   10.4253  -10.9806    0.0000 C   0  0  2  0  0  0  0  0  0  0  0  0
    6.4340   -8.0808    0.0000 O   0  0  0  0  0  0  0  0  0  0  0  0
    8.3710  -10.3131    0.0000 C   0  0  0  0  0  0  0  0  0  0  0  0
    8.6707  -10.7256    0.0000 C   0  0  1  0  0  0  0  0  0  0  0  0
    9.9403  -11.1381    0.0000 C   0  0  1  0  0  0  0  0  0  0  0  0
    9.1557  -11.3931    0.0000 C   0  0  1  0  0  0  0  0  0  0  0  0
   11.8074  -11.1407    0.0000 O   0  0  0  0  0  0  0  0  0  0  0  0
    8.3526   -7.9752    0.0000 O   0  0  0  0  0  0  0  0  0  0  0  0
    7.8194   -7.5122    0.0000 C   0  0  0  0  0  0  0  0  0  0  0  0
    9.0052   -8.5158    0.0000 C   0  0  0  0  0  0  0  0  0  0  0  0
    8.5018   -9.5086    0.0000 O   0  0  0  0  0  0  0  0  0  0  0  0
    9.0052   -7.8726    0.0000 O   0  0  0  0  0  0  0  0  0  0  0  0
   10.8230  -11.6620    0.0000 O   0  0  0  0  0  0  0  0  0  0  0  0
    9.9980  -11.8298    0.0000 C   0  0  0  0  0  0  0  0  0  0  0  0
    9.4946  -12.4870    0.0000 C   0  0  0  0  0  0  0  0  0  0  0  0
   10.1518  -12.6548    0.0000 C   0  0  0  0  0  0  0  0  0  0  0  0
   10.6552  -12.3192    0.0000 C   0  0  0  0  0  0  0  0  0  0  0  0
    8.6696  -11.9976    0.0000 O   0  0  0  0  0  0  0  0  0  0  0  0
    7.5554   -8.6281    0.0000 H   0  0  0  0  0  0  0  0  0  0  0  0
    8.8891   -7.9381    0.0000 H   0  0  0  0  0  0  0  0  0  0  0  0
    9.3553   -9.6457    0.0000 H   0  0  0  0  0  0  0  0  0  0  0  0
   11.4251  -11.3617    0.0000 H   0  0  0  0  0  0  0  0  0  0  0  0
    8.0403  -11.3307    0.0000 H   0  0  0  0  0  0  0  0  0  0  0  0
    9.1276  -11.0697    0.0000 H   0  0  0  0  0  0  0  0  0  0  0  0
    9.6631  -10.3256    0.0000 H   0  0  0  0  0  0  0  0  0  0  0  0
    9.3480  -12.0292    0.0000 H   0  0  0  0  0  0  0  0  0  0  0  0
    9.7633  -12.2739    0.0000 H   0  0  0  0  0  0  0  0  0  0  0  0
    9.1836   -7.4749    0.0000 H   0  0  0  0  0  0  0  0  0  0  0  0
    8.6983   -6.9019    0.0000 H   0  0  0  0  0  0  0  0  0  0  0  0
    6.8514   -7.0562    0.0000 H   0  0  0  0  0  0  0  0  0  0  0  0
    7.7303   -6.4459    0.0000 H   0  0  0  0  0  0  0  0  0  0  0  0
   10.3420  -12.5043    0.0000 H   0  0  0  0  0  0  0  0  0  0  0  0
    8.4336  -12.3482    0.0000 H   0  0  0  0  0  0  0  0  0  0  0  0
    9.9049  -13.4752    0.0000 H   0  0  0  0  0  0  0  0  0  0  0  0
    8.8439  -13.3364    0.0000 H   0  0  0  0  0  0  0  0  0  0  0  0
    9.3389  -13.3506    0.0000 H   0  0  0  0  0  0  0  0  0  0  0  0
   11.1608  -13.0109    0.0000 H   0  0  0  0  0  0  0  0  0  0  0  0
   10.3479  -13.7067    0.0000 H   0  0  0  0  0  0  0  0  0  0  0  0
   10.5308  -13.3819    0.0000 H   0  0  0  0  0  0  0  0  0  0  0  0
   11.6377  -11.8955    0.0000 H   0  0  0  0  0  0  0  0  0  0  0  0
   11.5134  -12.9583    0.0000 H   0  0  0  0  0  0  0  0  0  0  0  0
    7.7110  -11.8491    0.0000 H   0  0  0  0  0  0  0  0  0  0  0  0
  1  2  1  0  0  0  0
  1 14  2  0  0  0  0
  3  2  1  0  0  0  0
  3  4  1  0  0  0  0
  3 15  1  0  0  0  0
  3 31  1  1  0  0  0
  4  5  1  0  0  0  0
  4 20  1  1  0  0  0
  5  1  1  0  0  0  0
  5 21  1  0  0  0  0
  5 32  1  6  0  0  0
  6  7  1  0  0  0  0
  6  8  1  0  0  0  0
  6 15  1  6  0  0  0
  6 16  1  0  0  0  0
  7  4  1  0  0  0  0
  7 10  1  6  0  0  0
  7 22  1  0  0  0  0
  8  9  1  0  0  0  0
  8 17  1  0  0  0  0
  9 10  1  0  0  0  0
  9 11  1  0  0  0  0
  9 33  1  0  0  0  0
 11 12  1  0  0  0  0
 12 13  1  0  0  0  0
 12 19  2  0  0  0  0
 13  8  1  0  0  0  0
 13 25  1  0  0  0  0
 13 34  1  0  0  0  0
 15 35  1  0  0  0  0
 15 36  1  0  0  0  0
 16 23  1  0  0  0  0
 16 37  1  0  0  0  0
 17 18  1  0  0  0  0
 17 26  1  0  0  0  0
 17 38  1  0  0  0  0
 18 16  1  0  0  0  0
 18 30  1  0  0  0  0
 18 39  1  0  0  0  0
 20 40  1  0  0  0  0
 21 41  1  0  0  0  0
 21 42  1  0  0  0  0
 21 43  1  0  0  0  0
 22 23  1  0  0  0  0
 22 24  2  0  0  0  0
 25 44  1  0  0  0  0
 26 27  1  0  0  0  0
 26 28  1  0  0  0  0
 26 29  1  0  0  0  0
 27 45  1  0  0  0  0
 27 46  1  0  0  0  0
 27 47  1  0  0  0  0
 28 48  1  0  0  0  0
 28 49  1  0  0  0  0
 28 50  1  0  0  0  0
 29 51  1  0  0  0  0
 29 52  1  0  0  0  0
 29 53  1  0  0  0  0
 30 54  1  0  0  0  0
M  END
>  <DRUGBANK_ID>
DB06746

>  <COMMON_NAME>
ginkgolide-J

>  <CAS_NUMBER>
107438-79-9

>  <UNII>
M5297RI2UE

$$$$
