
 OpenBabel10282417072D

 65 69  0  0  0  0  0  0  0  0999 V2000
    4.2468    5.7134    0.0000 C   0  0  0  0  0  0  0  0  0  0  0  0
   -2.8490    4.0634    0.0000 C   0  0  0  0  0  0  0  0  0  0  0  0
   -3.1530    3.0529    0.0000 C   0  0  0  0  0  0  0  0  0  0  0  0
   -3.9600    2.8814    0.0000 C   0  0  0  0  0  0  0  0  0  0  0  0
   -5.0219    1.9252    0.0000 C   0  0  0  0  0  0  0  0  0  0  0  0
   -5.2769    1.1406    0.0000 C   0  0  0  0  0  0  0  0  0  0  0  0
    0.6745    4.4759    0.0000 C   0  0  0  0  0  0  0  0  0  0  0  0
   -0.0400    4.8884    0.0000 C   0  0  0  0  0  0  0  0  0  0  0  0
    2.8179    3.2384    0.0000 C   0  0  0  0  0  0  0  0  0  0  0  0
    2.1034    4.4759    0.0000 C   0  0  0  0  0  0  0  0  0  0  0  0
    3.5323    3.6509    0.0000 C   0  0  0  0  0  0  0  0  0  0  0  0
    2.8179    4.8884    0.0000 C   0  0  0  0  0  0  0  0  0  0  0  0
   -2.8560    1.6552    0.0000 C   0  0  0  0  0  0  0  0  0  0  0  0
   -3.9179    0.6990    0.0000 C   0  0  0  0  0  0  0  0  0  0  0  0
   -0.0400    3.2384    0.0000 C   0  0  0  0  0  0  0  0  0  0  0  0
   -1.7940    2.6113    0.0000 C   0  0  0  0  0  0  0  0  0  0  0  0
    4.2468    4.8884    0.0000 C   0  0  0  0  0  0  0  0  0  0  0  0
   -2.0240    4.0634    0.0000 C   0  0  0  0  0  0  0  0  0  0  0  0
   -2.6010    2.4398    0.0000 C   0  0  0  0  0  0  0  0  0  0  0  0
   -4.2150    2.0968    0.0000 C   0  0  0  0  0  0  0  0  0  0  0  0
   -4.7248    0.5275    0.0000 C   0  0  0  0  0  0  0  0  0  0  0  0
   -3.6629    1.4837    0.0000 C   0  0  0  0  0  0  0  0  0  0  0  0
    2.1034    3.6509    0.0000 C   0  0  0  0  0  0  0  0  0  0  0  0
    0.6745    3.6509    0.0000 C   0  0  0  0  0  0  0  0  0  0  0  0
   -0.7545    4.4759    0.0000 C   0  0  0  0  0  0  0  0  0  0  0  0
   -0.7545    3.6509    0.0000 C   0  0  0  0  0  0  0  0  0  0  0  0
   -4.9798   -0.2571    0.0000 C   0  0  0  0  0  0  0  0  0  0  0  0
    4.9613    4.4759    0.0000 N   0  0  0  0  0  0  0  0  0  0  0  0
   -4.4277   -0.8702    0.0000 N   0  3  0  0  0  0  0  0  0  0  0  0
   -5.7867   -0.4286    0.0000 N   0  0  0  0  0  0  0  0  0  0  0  0
   -1.5391    4.7308    0.0000 N   0  0  0  0  0  0  0  0  0  0  0  0
    3.5323    4.4759    0.0000 N   0  0  0  0  0  0  0  0  0  0  0  0
   -1.5391    3.3960    0.0000 N   0  0  0  0  0  0  0  0  0  0  0  0
    1.3889    3.2384    0.0000 O   0  0  0  0  0  0  0  0  0  0  0  0
    4.9613    3.6509    0.0000 H   0  0  0  0  0  0  0  0  0  0  0  0
    5.1734    6.2484    0.0000 H   0  0  0  0  0  0  0  0  0  0  0  0
    3.3202    6.2484    0.0000 H   0  0  0  0  0  0  0  0  0  0  0  0
    4.2468    6.7834    0.0000 H   0  0  0  0  0  0  0  0  0  0  0  0
   -3.3840    4.9900    0.0000 H   0  0  0  0  0  0  0  0  0  0  0  0
   -3.3840    3.1368    0.0000 H   0  0  0  0  0  0  0  0  0  0  0  0
   -3.9190    4.0634    0.0000 H   0  0  0  0  0  0  0  0  0  0  0  0
   -2.8341    4.0344    0.0000 H   0  0  0  0  0  0  0  0  0  0  0  0
   -4.6505    3.6484    0.0000 H   0  0  0  0  0  0  0  0  0  0  0  0
   -5.7125    2.6921    0.0000 H   0  0  0  0  0  0  0  0  0  0  0  0
   -6.2864    0.9260    0.0000 H   0  0  0  0  0  0  0  0  0  0  0  0
    1.5682    4.9919    0.0000 H   0  0  0  0  0  0  0  0  0  0  0  0
   -0.0400    5.9204    0.0000 H   0  0  0  0  0  0  0  0  0  0  0  0
    2.8179    2.1684    0.0000 H   0  0  0  0  0  0  0  0  0  0  0  0
    1.8913    2.7034    0.0000 H   0  0  0  0  0  0  0  0  0  0  0  0
    1.1768    5.0109    0.0000 H   0  0  0  0  0  0  0  0  0  0  0  0
    1.1768    3.9409    0.0000 H   0  0  0  0  0  0  0  0  0  0  0  0
    4.4590    3.1159    0.0000 H   0  0  0  0  0  0  0  0  0  0  0  0
    4.4589    4.1859    0.0000 H   0  0  0  0  0  0  0  0  0  0  0  0
    2.8179    5.9584    0.0000 H   0  0  0  0  0  0  0  0  0  0  0  0
    3.7446    5.4234    0.0000 H   0  0  0  0  0  0  0  0  0  0  0  0
   -2.1655    0.8882    0.0000 H   0  0  0  0  0  0  0  0  0  0  0  0
   -3.2274   -0.0679    0.0000 H   0  0  0  0  0  0  0  0  0  0  0  0
   -0.0400    2.2064    0.0000 H   0  0  0  0  0  0  0  0  0  0  0  0
   -1.0780    1.8161    0.0000 H   0  0  0  0  0  0  0  0  0  0  0  0
   -0.7474    2.8338    0.0000 H   0  0  0  0  0  0  0  0  0  0  0  0
    1.1768    4.1859    0.0000 H   0  0  0  0  0  0  0  0  0  0  0  0
   -4.7319   -1.8065    0.0000 H   0  0  0  0  0  0  0  0  0  0  0  0
   -3.4647   -0.6655    0.0000 H   0  0  0  0  0  0  0  0  0  0  0  0
   -6.4454    0.3030    0.0000 H   0  0  0  0  0  0  0  0  0  0  0  0
   -6.0909   -1.3649    0.0000 H   0  0  0  0  0  0  0  0  0  0  0  0
  1 36  1  0  0  0  0
  1 37  1  0  0  0  0
  1 38  1  0  0  0  0
  2 39  1  0  0  0  0
  2 40  1  0  0  0  0
  2 41  1  0  0  0  0
  3 42  1  0  0  0  0
  4  3  2  0  0  0  0
  4 43  1  0  0  0  0
  5 44  1  0  0  0  0
  6  5  2  0  0  0  0
  6 45  1  0  0  0  0
  7 46  1  0  0  0  0
  8  7  2  0  0  0  0
  8 47  1  0  0  0  0
  9 48  1  0  0  0  0
  9 49  1  0  0  0  0
 10 50  1  0  0  0  0
 10 51  1  0  0  0  0
 11  9  1  0  0  0  0
 11 52  1  0  0  0  0
 11 53  1  0  0  0  0
 12 10  1  0  0  0  0
 12 54  1  0  0  0  0
 12 55  1  0  0  0  0
 13 56  1  0  0  0  0
 14 57  1  0  0  0  0
 15 58  1  0  0  0  0
 16 59  1  0  0  0  0
 16 60  1  0  0  0  0
 17  1  1  0  0  0  0
 18  2  1  0  0  0  0
 19  3  1  0  0  0  0
 19 13  2  0  0  0  0
 19 16  1  0  0  0  0
 20  4  1  0  0  0  0
 20  5  1  0  0  0  0
 21  6  1  0  0  0  0
 21 14  2  0  0  0  0
 22 13  1  0  0  0  0
 22 14  1  0  0  0  0
 22 20  2  0  0  0  0
 23  9  1  0  0  0  0
 23 10  1  0  0  0  0
 23 61  1  0  0  0  0
 24  7  1  0  0  0  0
 24 15  2  0  0  0  0
 25  8  1  0  0  0  0
 26 15  1  0  0  0  0
 26 25  2  0  0  0  0
 27 21  1  0  0  0  0
 28 17  2  0  0  0  0
 29 27  2  0  0  0  0
 29 62  1  0  0  0  0
 29 63  1  0  0  0  0
 30 27  1  0  0  0  0
 30 64  1  0  0  0  0
 30 65  1  0  0  0  0
 31 18  2  0  0  0  0
 31 25  1  0  0  0  0
 32 11  1  0  0  0  0
 32 12  1  0  0  0  0
 32 17  1  0  0  0  0
 33 16  1  0  0  0  0
 33 18  1  0  0  0  0
 33 26  1  0  0  0  0
 34 23  1  0  0  0  0
 34 24  1  0  0  0  0
 35 28  1  0  0  0  0
M  CHG  1  29   1
M  END
>  <DRUGBANK_ID>
DB03373

>  <SECONDARY_ACCESSION_NUMBERS>
EXPT00295

>  <COMMON_NAME>
ZK-806711

$$$$
