19U
 OpenBabel10282417072D

 44 45  0  0  0  0  0  0  0  0999 V2000
    0.5754   -1.1325    0.0000 N   0  0  0  0  0  0  0  0  0  0  0  0
    0.3205   -1.9171    0.0000 C   0  0  0  0  0  0  0  0  0  0  0  0
   -0.0920    0.1775    0.0000 C   0  0  0  0  0  0  0  0  0  0  0  0
    1.9731   -1.4296    0.0000 C   0  0  1  0  0  0  0  0  0  0  0  0
    3.3709   -1.7267    0.0000 C   0  0  0  0  0  0  0  0  0  0  0  0
    0.6225    1.4150    0.0000 C   0  0  0  0  0  0  0  0  0  0  0  0
   -0.0920    2.6525    0.0000 C   0  0  0  0  0  0  0  0  0  0  0  0
   -1.5210    2.6525    0.0000 C   0  0  0  0  0  0  0  0  0  0  0  0
    2.7578   -1.1746    0.0000 C   0  0  0  0  0  0  0  0  0  0  0  0
    1.8016   -2.2365    0.0000 N   0  0  0  0  0  0  0  0  0  0  0  0
    1.3600   -0.8775    0.0000 C   0  0  0  0  0  0  0  0  0  0  0  0
    1.5316   -0.0706    0.0000 O   0  0  0  0  0  0  0  0  0  0  0  0
   -0.5045   -1.9171    0.0000 C   0  0  0  0  0  0  0  0  0  0  0  0
   -0.7595   -1.1325    0.0000 C   0  0  0  0  0  0  0  0  0  0  0  0
   -0.0920   -0.6475    0.0000 C   0  0  2  0  0  0  0  0  0  0  0  0
    0.6225    0.5900    0.0000 N   0  0  0  0  0  0  0  0  0  0  0  0
   -0.0920    1.8275    0.0000 C   0  0  0  0  0  0  0  0  0  0  0  0
   -0.8065    1.4150    0.0000 C   0  0  0  0  0  0  0  0  0  0  0  0
   -1.5210    1.8275    0.0000 C   0  0  0  0  0  0  0  0  0  0  0  0
   -0.8065    3.0650    0.0000 C   0  0  0  0  0  0  0  0  0  0  0  0
   -0.8065    0.5900    0.0000 O   0  0  0  0  0  0  0  0  0  0  0  0
   -2.2354    1.4150    0.0000 Cl  0  0  0  0  0  0  0  0  0  0  0  0
    2.4071   -1.8203    0.0000 H   0  0  0  0  0  0  0  0  0  0  0  0
    0.4283   -0.3824    0.0000 H   0  0  0  0  0  0  0  0  0  0  0  0
    0.9494   -2.7827    0.0000 H   0  0  0  0  0  0  0  0  0  0  0  0
   -0.1653   -2.8705    0.0000 H   0  0  0  0  0  0  0  0  0  0  0  0
    3.1484   -2.7733    0.0000 H   0  0  0  0  0  0  0  0  0  0  0  0
    4.3885   -1.3961    0.0000 H   0  0  0  0  0  0  0  0  0  0  0  0
    4.1660   -2.4427    0.0000 H   0  0  0  0  0  0  0  0  0  0  0  0
    1.5491    1.9500    0.0000 H   0  0  0  0  0  0  0  0  0  0  0  0
    0.6225    2.4850    0.0000 H   0  0  0  0  0  0  0  0  0  0  0  0
    0.8017    3.1685    0.0000 H   0  0  0  0  0  0  0  0  0  0  0  0
   -2.4147    3.1685    0.0000 H   0  0  0  0  0  0  0  0  0  0  0  0
    2.9803   -0.1280    0.0000 H   0  0  0  0  0  0  0  0  0  0  0  0
    3.7754   -0.8440    0.0000 H   0  0  0  0  0  0  0  0  0  0  0  0
    0.8315   -2.5517    0.0000 H   0  0  0  0  0  0  0  0  0  0  0  0
    2.5596   -2.9190    0.0000 H   0  0  0  0  0  0  0  0  0  0  0  0
   -1.1334   -2.7828    0.0000 H   0  0  0  0  0  0  0  0  0  0  0  0
   -1.5613   -1.7498    0.0000 H   0  0  0  0  0  0  0  0  0  0  0  0
   -1.7771   -0.8019    0.0000 H   0  0  0  0  0  0  0  0  0  0  0  0
   -0.9269   -0.0757    0.0000 H   0  0  0  0  0  0  0  0  0  0  0  0
    1.4751    0.0977    0.0000 H   0  0  0  0  0  0  0  0  0  0  0  0
   -0.8065    0.3830    0.0000 H   0  0  0  0  0  0  0  0  0  0  0  0
   -0.8065    4.0970    0.0000 H   0  0  0  0  0  0  0  0  0  0  0  0
  1  2  1  0  0  0  0
  1 11  1  0  0  0  0
  1 15  1  0  0  0  0
  2 13  1  0  0  0  0
  2 25  1  0  0  0  0
  2 26  1  0  0  0  0
  3 16  1  0  0  0  0
  3 21  2  0  0  0  0
  4  9  1  0  0  0  0
  4 10  1  0  0  0  0
  4 11  1  0  0  0  0
  4 23  1  6  0  0  0
  5  9  1  0  0  0  0
  5 27  1  0  0  0  0
  5 28  1  0  0  0  0
  5 29  1  0  0  0  0
  6 16  1  0  0  0  0
  6 17  1  0  0  0  0
  6 30  1  0  0  0  0
  6 31  1  0  0  0  0
  7 17  2  0  0  0  0
  7 20  1  0  0  0  0
  7 32  1  0  0  0  0
  8 19  1  0  0  0  0
  8 20  2  0  0  0  0
  8 33  1  0  0  0  0
  9 34  1  0  0  0  0
  9 35  1  0  0  0  0
 10 36  1  0  0  0  0
 10 37  1  0  0  0  0
 11 12  2  0  0  0  0
 13 14  1  0  0  0  0
 13 38  1  0  0  0  0
 13 39  1  0  0  0  0
 14 15  1  0  0  0  0
 14 40  1  0  0  0  0
 14 41  1  0  0  0  0
 15  3  1  0  0  0  0
 15 24  1  6  0  0  0
 16 42  1  0  0  0  0
 17 18  1  0  0  0  0
 18 19  2  0  0  0  0
 18 43  1  0  0  0  0
 19 22  1  0  0  0  0
 20 44  1  0  0  0  0
M  END
>  <DRUGBANK_ID>
DB06878

>  <COMMON_NAME>
1-[(2R)-2-aminobutanoyl]-N-(3-chlorobenzyl)-L-prolinamide

$$$$
