
 OpenBabel10282417072D

 49 52  0  0  0  0  0  0  0  0999 V2000
   -5.9265   -2.3800    0.0000 C   0  0  0  0  0  0  0  0  0  0  0  0
   -5.7550   -1.5731    0.0000 C   0  0  0  0  0  0  0  0  0  0  0  0
   -6.3070   -0.9600    0.0000 C   0  0  0  0  0  0  0  0  0  0  0  0
   -7.1320   -0.9600    0.0000 C   0  0  0  0  0  0  0  0  0  0  0  0
   -7.5445   -0.2455    0.0000 C   0  0  0  0  0  0  0  0  0  0  0  0
   -7.1320    0.4690    0.0000 C   0  0  0  0  0  0  0  0  0  0  0  0
   -6.3070    0.4690    0.0000 C   0  0  0  0  0  0  0  0  0  0  0  0
   -5.8945   -0.2455    0.0000 C   0  0  0  0  0  0  0  0  0  0  0  0
   -5.0875   -0.4170    0.0000 O   0  0  0  0  0  0  0  0  0  0  0  0
   -5.0013   -1.2375    0.0000 C   0  0  0  0  0  0  0  0  0  0  0  0
   -4.2868   -1.6500    0.0000 C   0  0  0  0  0  0  0  0  0  0  0  0
   -3.5724   -1.2375    0.0000 N   0  0  0  0  0  0  0  0  0  0  0  0
   -3.5724   -0.4125    0.0000 C   0  0  0  0  0  0  0  0  0  0  0  0
   -2.8579   -1.6500    0.0000 C   0  0  0  0  0  0  0  0  0  0  0  0
   -2.8579   -2.4750    0.0000 O   0  0  0  0  0  0  0  0  0  0  0  0
   -2.1434   -1.2375    0.0000 C   0  0  0  0  0  0  0  0  0  0  0  0
   -1.4289   -1.6500    0.0000 C   0  0  0  0  0  0  0  0  0  0  0  0
   -0.7145   -1.2375    0.0000 C   0  0  0  0  0  0  0  0  0  0  0  0
    0.0000   -1.6500    0.0000 C   0  0  0  0  0  0  0  0  0  0  0  0
    0.7145   -1.2375    0.0000 C   0  0  0  0  0  0  0  0  0  0  0  0
    0.7145   -0.4125    0.0000 C   0  0  0  0  0  0  0  0  0  0  0  0
    0.0000   -0.0000    0.0000 N   0  0  0  0  0  0  0  0  0  0  0  0
   -0.7145   -0.4125    0.0000 C   0  0  0  0  0  0  0  0  0  0  0  0
    1.4289   -0.0000    0.0000 N   0  0  0  0  0  0  0  0  0  0  0  0
    2.1434   -0.4125    0.0000 C   0  0  0  0  0  0  0  0  0  0  0  0
    2.8579   -0.0000    0.0000 O   0  0  0  0  0  0  0  0  0  0  0  0
    2.1434   -1.2375    0.0000 C   0  0  0  0  0  0  0  0  0  0  0  0
    1.4289   -1.6500    0.0000 C   0  0  0  0  0  0  0  0  0  0  0  0
   -6.9441   -2.7107    0.0000 H   0  0  0  0  0  0  0  0  0  0  0  0
   -5.1313   -3.0960    0.0000 H   0  0  0  0  0  0  0  0  0  0  0  0
   -6.1490   -3.4266    0.0000 H   0  0  0  0  0  0  0  0  0  0  0  0
   -7.6480   -1.8537    0.0000 H   0  0  0  0  0  0  0  0  0  0  0  0
   -8.5765   -0.2455    0.0000 H   0  0  0  0  0  0  0  0  0  0  0  0
   -7.6480    1.3627    0.0000 H   0  0  0  0  0  0  0  0  0  0  0  0
   -5.7910    1.3627    0.0000 H   0  0  0  0  0  0  0  0  0  0  0  0
   -4.2868   -2.7200    0.0000 H   0  0  0  0  0  0  0  0  0  0  0  0
   -3.3601   -2.1850    0.0000 H   0  0  0  0  0  0  0  0  0  0  0  0
   -2.6458    0.1225    0.0000 H   0  0  0  0  0  0  0  0  0  0  0  0
   -4.4990    0.1225    0.0000 H   0  0  0  0  0  0  0  0  0  0  0  0
   -3.5724    0.6575    0.0000 H   0  0  0  0  0  0  0  0  0  0  0  0
   -2.1434   -0.2055    0.0000 H   0  0  0  0  0  0  0  0  0  0  0  0
   -1.4289   -2.6820    0.0000 H   0  0  0  0  0  0  0  0  0  0  0  0
    0.0000   -2.6820    0.0000 H   0  0  0  0  0  0  0  0  0  0  0  0
   -1.6082    0.1035    0.0000 H   0  0  0  0  0  0  0  0  0  0  0  0
    1.4289    0.9845    0.0000 H   0  0  0  0  0  0  0  0  0  0  0  0
    3.0700   -1.7725    0.0000 H   0  0  0  0  0  0  0  0  0  0  0  0
    2.1434   -2.3075    0.0000 H   0  0  0  0  0  0  0  0  0  0  0  0
    1.4289   -2.7200    0.0000 H   0  0  0  0  0  0  0  0  0  0  0  0
    0.5022   -2.1850    0.0000 H   0  0  0  0  0  0  0  0  0  0  0  0
  1  2  1  0  0  0  0
  1 29  1  0  0  0  0
  1 30  1  0  0  0  0
  1 31  1  0  0  0  0
  2  3  1  0  0  0  0
  2 10  2  0  0  0  0
  3  4  2  0  0  0  0
  3  8  1  0  0  0  0
  4  5  1  0  0  0  0
  4 32  1  0  0  0  0
  5  6  2  0  0  0  0
  5 33  1  0  0  0  0
  6  7  1  0  0  0  0
  6 34  1  0  0  0  0
  7  8  2  0  0  0  0
  7 35  1  0  0  0  0
  8  9  1  0  0  0  0
  9 10  1  0  0  0  0
 10 11  1  0  0  0  0
 11 12  1  0  0  0  0
 11 36  1  0  0  0  0
 11 37  1  0  0  0  0
 12 13  1  0  0  0  0
 12 14  1  0  0  0  0
 13 38  1  0  0  0  0
 13 39  1  0  0  0  0
 13 40  1  0  0  0  0
 14 15  2  0  0  0  0
 14 16  1  0  0  0  0
 16 17  2  0  0  0  0
 16 41  1  0  0  0  0
 17 18  1  0  0  0  0
 17 42  1  0  0  0  0
 18 19  2  0  0  0  0
 18 23  1  0  0  0  0
 19 20  1  0  0  0  0
 19 43  1  0  0  0  0
 20 21  2  0  0  0  0
 20 28  1  0  0  0  0
 21 22  1  0  0  0  0
 21 24  1  0  0  0  0
 22 23  2  0  0  0  0
 23 44  1  0  0  0  0
 24 25  1  0  0  0  0
 24 45  1  0  0  0  0
 25 26  2  0  0  0  0
 25 27  1  0  0  0  0
 27 28  1  0  0  0  0
 27 46  1  0  0  0  0
 27 47  1  0  0  0  0
 28 48  1  0  0  0  0
 28 49  1  0  0  0  0
M  END
>  <DRUGBANK_ID>
DB12658

>  <COMMON_NAME>
AFN-1252

>  <CAS_NUMBER>
620175-39-5

>  <UNII>
T3O718IKKM

$$$$
