
 OpenBabel10282417072D

 44 46  0  0  0  0  0  0  0  0999 V2000
   -0.2866   -0.8866    0.0000 S   0  0  0  0  0  0  0  0  0  0  0  0
   -0.6991    0.3827    0.0000 C   0  0  0  0  0  0  0  0  0  0  0  0
    0.1258    0.3827    0.0000 C   0  0  0  0  0  0  0  0  0  0  0  0
    0.3806   -0.4018    0.0000 C   0  0  0  0  0  0  0  0  0  0  0  0
    1.1654   -0.6566    0.0000 C   0  0  0  0  0  0  0  0  0  0  0  0
    1.7785   -0.1046    0.0000 O   0  0  0  0  0  0  0  0  0  0  0  0
    2.6654   -0.9373    0.0000 C   0  0  0  0  0  0  0  0  0  0  0  0
    2.1531   -1.5840    0.0000 C   0  0  2  0  0  0  0  0  0  0  0  0
    2.4570   -2.3510    0.0000 C   0  0  0  0  0  0  0  0  0  0  0  0
    3.2732   -2.4713    0.0000 C   0  0  0  0  0  0  0  0  0  0  0  0
    3.7854   -1.8245    0.0000 C   0  0  0  0  0  0  0  0  0  0  0  0
    3.4815   -1.0575    0.0000 N   0  0  0  0  0  0  0  0  0  0  0  0
    1.3369   -1.4636    0.0000 N   0  0  0  0  0  0  0  0  0  0  0  0
   -2.3697   -0.2075    0.0000 C   0  0  0  0  0  0  0  0  0  0  0  0
   -3.1336   -0.5190    0.0000 C   0  0  0  0  0  0  0  0  0  0  0  0
   -3.2458   -1.3363    0.0000 C   0  0  0  0  0  0  0  0  0  0  0  0
   -2.5942   -1.8422    0.0000 C   0  0  0  0  0  0  0  0  0  0  0  0
   -1.8302   -1.5307    0.0000 C   0  0  0  0  0  0  0  0  0  0  0  0
   -1.7180   -0.7132    0.0000 C   0  0  0  0  0  0  0  0  0  0  0  0
   -3.7854   -0.0131    0.0000 F   0  0  0  0  0  0  0  0  0  0  0  0
   -0.9541   -0.4018    0.0000 C   0  0  0  0  0  0  0  0  0  0  0  0
    0.6107    1.0502    0.0000 N   0  0  0  0  0  0  0  0  0  0  0  0
    0.2752    1.8039    0.0000 C   0  0  0  0  0  0  0  0  0  0  0  0
   -0.5452    1.8901    0.0000 O   0  0  0  0  0  0  0  0  0  0  0  0
    0.7601    2.4713    0.0000 N   0  0  0  0  0  0  0  0  0  0  0  0
   -1.3056    1.2176    0.0000 H   0  0  0  0  0  0  0  0  0  0  0  0
    2.2712    0.0574    0.0000 H   0  0  0  0  0  0  0  0  0  0  0  0
    3.3297   -0.0985    0.0000 H   0  0  0  0  0  0  0  0  0  0  0  0
    1.7590   -0.5892    0.0000 H   0  0  0  0  0  0  0  0  0  0  0  0
    1.7926   -3.1897    0.0000 H   0  0  0  0  0  0  0  0  0  0  0  0
    2.8512   -3.3458    0.0000 H   0  0  0  0  0  0  0  0  0  0  0  0
    3.6674   -3.4660    0.0000 H   0  0  0  0  0  0  0  0  0  0  0  0
    4.3318   -2.6272    0.0000 H   0  0  0  0  0  0  0  0  0  0  0  0
    4.8440   -1.9805    0.0000 H   0  0  0  0  0  0  0  0  0  0  0  0
    4.4498   -0.9858    0.0000 H   0  0  0  0  0  0  0  0  0  0  0  0
    4.1148   -0.2579    0.0000 H   0  0  0  0  0  0  0  0  0  0  0  0
    0.6630   -2.1813    0.0000 H   0  0  0  0  0  0  0  0  0  0  0  0
   -2.2294    0.8149    0.0000 H   0  0  0  0  0  0  0  0  0  0  0  0
   -4.2014   -1.7259    0.0000 H   0  0  0  0  0  0  0  0  0  0  0  0
   -2.7346   -2.8646    0.0000 H   0  0  0  0  0  0  0  0  0  0  0  0
   -1.0149   -2.1635    0.0000 H   0  0  0  0  0  0  0  0  0  0  0  0
    1.5898    0.9473    0.0000 H   0  0  0  0  0  0  0  0  0  0  0  0
    1.7392    2.3684    0.0000 H   0  0  0  0  0  0  0  0  0  0  0  0
    0.3597    3.3707    0.0000 H   0  0  0  0  0  0  0  0  0  0  0  0
  1 21  1  0  0  0  0
  1  4  1  0  0  0  0
  2  3  1  0  0  0  0
  2 26  1  0  0  0  0
  3  4  2  0  0  0  0
  3 22  1  0  0  0  0
  4  5  1  0  0  0  0
  5 13  1  0  0  0  0
  5  6  2  0  0  0  0
  7  8  1  0  0  0  0
  7 12  1  0  0  0  0
  7 27  1  0  0  0  0
  7 28  1  0  0  0  0
  8  9  1  0  0  0  0
  8 13  1  0  0  0  0
  8 29  1  1  0  0  0
  9 10  1  0  0  0  0
  9 30  1  0  0  0  0
  9 31  1  0  0  0  0
 10 11  1  0  0  0  0
 10 32  1  0  0  0  0
 10 33  1  0  0  0  0
 11 12  1  0  0  0  0
 11 34  1  0  0  0  0
 11 35  1  0  0  0  0
 12 36  1  0  0  0  0
 13 37  1  0  0  0  0
 14 15  2  0  0  0  0
 14 19  1  0  0  0  0
 14 38  1  0  0  0  0
 15 16  1  0  0  0  0
 15 20  1  0  0  0  0
 16 17  2  0  0  0  0
 16 39  1  0  0  0  0
 17 18  1  0  0  0  0
 17 40  1  0  0  0  0
 18 19  2  0  0  0  0
 18 41  1  0  0  0  0
 19 21  1  0  0  0  0
 21  2  2  0  0  0  0
 22 23  1  0  0  0  0
 22 42  1  0  0  0  0
 23 24  2  0  0  0  0
 23 25  1  0  0  0  0
 25 43  1  0  0  0  0
 25 44  1  0  0  0  0
M  END
>  <DRUGBANK_ID>
DB12242

>  <COMMON_NAME>
AZD-7762

>  <CAS_NUMBER>
860352-01-8

>  <UNII>
5D822Y3L1H

$$$$
