
 OpenBabel10282417072D

 35 36  0  0  0  0  0  0  0  0999 V2000
   -1.0717   -3.7125    0.0000 C   0  0  0  0  0  0  0  0  0  0  0  0
    1.0717    1.6500    0.0000 C   0  0  0  0  0  0  0  0  0  0  0  0
   -0.3572    1.6500    0.0000 C   0  0  0  0  0  0  0  0  0  0  0  0
    1.0717    2.4750    0.0000 C   0  0  0  0  0  0  0  0  0  0  0  0
   -0.3572    2.4750    0.0000 C   0  0  0  0  0  0  0  0  0  0  0  0
    0.3572   -2.0625    0.0000 C   0  0  0  0  0  0  0  0  0  0  0  0
   -1.0717   -2.0625    0.0000 C   0  0  0  0  0  0  0  0  0  0  0  0
    0.3572   -1.2375    0.0000 C   0  0  0  0  0  0  0  0  0  0  0  0
   -1.0717   -1.2375    0.0000 C   0  0  0  0  0  0  0  0  0  0  0  0
   -0.3572   -3.3000    0.0000 C   0  0  0  0  0  0  0  0  0  0  0  0
    0.3572    1.2375    0.0000 C   0  0  0  0  0  0  0  0  0  0  0  0
    0.3572    2.8875    0.0000 C   0  0  0  0  0  0  0  0  0  0  0  0
    0.3572    0.4125    0.0000 C   0  0  0  0  0  0  0  0  0  0  0  0
    0.3572    3.7125    0.0000 F   0  0  0  0  0  0  0  0  0  0  0  0
   -0.3572    0.0000    0.0000 N   0  0  0  0  0  0  0  0  0  0  0  0
   -0.3572   -2.4750    0.0000 N   0  0  0  0  0  0  0  0  0  0  0  0
   -0.3572   -0.8250    0.0000 N   0  0  0  0  0  0  0  0  0  0  0  0
    0.3572   -3.7125    0.0000 O   0  0  0  0  0  0  0  0  0  0  0  0
    1.0717    0.0000    0.0000 O   0  0  0  0  0  0  0  0  0  0  0  0
   -1.9983   -3.1775    0.0000 H   0  0  0  0  0  0  0  0  0  0  0  0
   -1.0717   -4.7825    0.0000 H   0  0  0  0  0  0  0  0  0  0  0  0
   -1.9984   -4.2475    0.0000 H   0  0  0  0  0  0  0  0  0  0  0  0
    1.9654    1.1340    0.0000 H   0  0  0  0  0  0  0  0  0  0  0  0
   -1.2509    1.1340    0.0000 H   0  0  0  0  0  0  0  0  0  0  0  0
    1.9654    2.9910    0.0000 H   0  0  0  0  0  0  0  0  0  0  0  0
   -1.2509    2.9910    0.0000 H   0  0  0  0  0  0  0  0  0  0  0  0
    1.2839   -2.5975    0.0000 H   0  0  0  0  0  0  0  0  0  0  0  0
    0.3572   -3.1325    0.0000 H   0  0  0  0  0  0  0  0  0  0  0  0
   -1.9983   -2.5975    0.0000 H   0  0  0  0  0  0  0  0  0  0  0  0
   -1.0717   -3.1325    0.0000 H   0  0  0  0  0  0  0  0  0  0  0  0
    1.2839   -0.7025    0.0000 H   0  0  0  0  0  0  0  0  0  0  0  0
    0.3572   -0.1675    0.0000 H   0  0  0  0  0  0  0  0  0  0  0  0
   -1.9983   -0.7025    0.0000 H   0  0  0  0  0  0  0  0  0  0  0  0
   -1.0717   -0.1675    0.0000 H   0  0  0  0  0  0  0  0  0  0  0  0
   -1.2098    0.4922    0.0000 H   0  0  0  0  0  0  0  0  0  0  0  0
  1 20  1  0  0  0  0
  1 21  1  0  0  0  0
  1 22  1  0  0  0  0
  2 23  1  0  0  0  0
  3 24  1  0  0  0  0
  4  2  1  0  0  0  0
  4 25  1  0  0  0  0
  5  3  2  0  0  0  0
  5 26  1  0  0  0  0
  6 27  1  0  0  0  0
  6 28  1  0  0  0  0
  7 29  1  0  0  0  0
  7 30  1  0  0  0  0
  8  6  1  0  0  0  0
  8 31  1  0  0  0  0
  8 32  1  0  0  0  0
  9  7  1  0  0  0  0
  9 33  1  0  0  0  0
  9 34  1  0  0  0  0
 10  1  1  0  0  0  0
 11  2  2  0  0  0  0
 11  3  1  0  0  0  0
 12  4  2  0  0  0  0
 12  5  1  0  0  0  0
 13 11  1  0  0  0  0
 14 12  1  0  0  0  0
 15 13  1  0  0  0  0
 15 35  1  0  0  0  0
 16  6  1  0  0  0  0
 16  7  1  0  0  0  0
 16 10  1  0  0  0  0
 17  8  1  0  0  0  0
 17  9  1  0  0  0  0
 17 15  1  0  0  0  0
 18 10  2  0  0  0  0
 19 13  2  0  0  0  0
M  END
>  <DRUGBANK_ID>
DB06465

>  <COMMON_NAME>
FK-960

>  <CAS_NUMBER>
133920-70-4

>  <UNII>
60MMJ100ZX

>  <SYNONYMS>
N-(4-Acetyl-1-piperazinyl)-4-fluorobenzamide

$$$$
