7X2
 OpenBabel10282417072D

 49 52  0  0  0  0  0  0  0  0999 V2000
    6.8881   -0.3960    0.0000 C   0  0  0  0  0  0  0  0  0  0  0  0
    6.1736    0.0165    0.0000 O   0  0  0  0  0  0  0  0  0  0  0  0
    6.1736    0.8415    0.0000 C   0  0  0  0  0  0  0  0  0  0  0  0
    5.4591    1.2540    0.0000 C   0  0  0  0  0  0  0  0  0  0  0  0
    5.4591    2.0790    0.0000 C   0  0  0  0  0  0  0  0  0  0  0  0
    4.7447    2.4915    0.0000 N   0  0  0  0  0  0  0  0  0  0  0  0
    4.7447    3.3165    0.0000 C   0  0  0  0  0  0  0  0  0  0  0  0
    4.0302    3.7290    0.0000 N   0  0  0  0  0  0  0  0  0  0  0  0
    4.0302    4.5540    0.0000 C   0  0  0  0  0  0  0  0  0  0  0  0
    4.7447    4.9665    0.0000 C   0  0  0  0  0  0  0  0  0  0  0  0
    5.4591    4.5540    0.0000 C   0  0  0  0  0  0  0  0  0  0  0  0
    6.1736    4.9665    0.0000 N   0  0  0  0  0  0  0  0  0  0  0  0
    6.1736    5.7915    0.0000 C   0  0  0  0  0  0  0  0  0  0  0  0
    5.4591    6.2040    0.0000 C   0  0  0  0  0  0  0  0  0  0  0  0
    4.6745    5.9491    0.0000 O   0  0  0  0  0  0  0  0  0  0  0  0
    4.1896    6.6165    0.0000 C   0  0  0  0  0  0  0  0  0  0  0  0
    4.6745    7.2839    0.0000 O   0  0  0  0  0  0  0  0  0  0  0  0
    5.4591    7.0290    0.0000 C   0  0  0  0  0  0  0  0  0  0  0  0
    6.1736    7.4415    0.0000 C   0  0  0  0  0  0  0  0  0  0  0  0
    6.8881    7.0290    0.0000 C   0  0  0  0  0  0  0  0  0  0  0  0
    6.8881    6.2040    0.0000 C   0  0  0  0  0  0  0  0  0  0  0  0
    7.6026    5.7915    0.0000 Cl  0  0  0  0  0  0  0  0  0  0  0  0
    5.4591    3.7290    0.0000 N   0  0  0  0  0  0  0  0  0  0  0  0
    6.1736    2.4915    0.0000 C   0  0  0  0  0  0  0  0  0  0  0  0
    6.8881    2.0790    0.0000 C   0  0  0  0  0  0  0  0  0  0  0  0
    7.6026    2.4915    0.0000 O   0  0  0  0  0  0  0  0  0  0  0  0
    8.3170    2.0790    0.0000 C   0  0  0  0  0  0  0  0  0  0  0  0
    6.8881    1.2540    0.0000 C   0  0  0  0  0  0  0  0  0  0  0  0
    7.6026    0.8415    0.0000 O   0  0  0  0  0  0  0  0  0  0  0  0
    8.3170    1.2540    0.0000 C   0  0  0  0  0  0  0  0  0  0  0  0
    6.8881   -1.4660    0.0000 H   0  0  0  0  0  0  0  0  0  0  0  0
    7.8147    0.1390    0.0000 H   0  0  0  0  0  0  0  0  0  0  0  0
    7.8148   -0.9310    0.0000 H   0  0  0  0  0  0  0  0  0  0  0  0
    4.5654    0.7380    0.0000 H   0  0  0  0  0  0  0  0  0  0  0  0
    3.8921    1.9993    0.0000 H   0  0  0  0  0  0  0  0  0  0  0  0
    3.1365    5.0700    0.0000 H   0  0  0  0  0  0  0  0  0  0  0  0
    4.7447    5.9985    0.0000 H   0  0  0  0  0  0  0  0  0  0  0  0
    7.0262    4.4742    0.0000 H   0  0  0  0  0  0  0  0  0  0  0  0
    3.1196    6.6165    0.0000 H   0  0  0  0  0  0  0  0  0  0  0  0
    3.7038    7.5699    0.0000 H   0  0  0  0  0  0  0  0  0  0  0  0
    6.1736    8.4735    0.0000 H   0  0  0  0  0  0  0  0  0  0  0  0
    7.7818    7.5450    0.0000 H   0  0  0  0  0  0  0  0  0  0  0  0
    6.1736    3.5235    0.0000 H   0  0  0  0  0  0  0  0  0  0  0  0
    8.3170    1.0090    0.0000 H   0  0  0  0  0  0  0  0  0  0  0  0
    9.2437    2.6140    0.0000 H   0  0  0  0  0  0  0  0  0  0  0  0
    9.2436    1.5440    0.0000 H   0  0  0  0  0  0  0  0  0  0  0  0
    9.2437    0.7190    0.0000 H   0  0  0  0  0  0  0  0  0  0  0  0
    8.3170    2.3240    0.0000 H   0  0  0  0  0  0  0  0  0  0  0  0
    9.2436    1.7890    0.0000 H   0  0  0  0  0  0  0  0  0  0  0  0
  1  2  1  0  0  0  0
  1 31  1  0  0  0  0
  1 32  1  0  0  0  0
  1 33  1  0  0  0  0
  2  3  1  0  0  0  0
  3  4  1  0  0  0  0
  3 28  2  0  0  0  0
  4  5  2  0  0  0  0
  4 34  1  0  0  0  0
  5  6  1  0  0  0  0
  5 24  1  0  0  0  0
  6  7  1  0  0  0  0
  6 35  1  0  0  0  0
  7  8  1  0  0  0  0
  7 23  2  0  0  0  0
  8  9  2  0  0  0  0
  9 10  1  0  0  0  0
  9 36  1  0  0  0  0
 10 11  2  0  0  0  0
 10 37  1  0  0  0  0
 11 12  1  0  0  0  0
 11 23  1  0  0  0  0
 12 13  1  0  0  0  0
 12 38  1  0  0  0  0
 13 14  1  0  0  0  0
 13 21  2  0  0  0  0
 14 15  1  0  0  0  0
 14 18  2  0  0  0  0
 15 16  1  0  0  0  0
 16 17  1  0  0  0  0
 16 39  1  0  0  0  0
 16 40  1  0  0  0  0
 17 18  1  0  0  0  0
 18 19  1  0  0  0  0
 19 20  2  0  0  0  0
 19 41  1  0  0  0  0
 20 21  1  0  0  0  0
 20 42  1  0  0  0  0
 21 22  1  0  0  0  0
 24 25  2  0  0  0  0
 24 43  1  0  0  0  0
 25 26  1  0  0  0  0
 25 28  1  0  0  0  0
 26 27  1  0  0  0  0
 27 44  1  0  0  0  0
 27 45  1  0  0  0  0
 27 46  1  0  0  0  0
 28 29  1  0  0  0  0
 29 30  1  0  0  0  0
 30 47  1  0  0  0  0
 30 48  1  0  0  0  0
 30 49  1  0  0  0  0
M  END
>  <DRUGBANK_ID>
DB07250

>  <COMMON_NAME>
N'-(5-CHLORO-1,3-BENZODIOXOL-4-YL)-N-(3,4,5- TRIMETHOXYPHENYL)PYRIMIDINE-2,4-DIAMINE

$$$$
