
 OpenBabel10282417072D

 46 47  0  0  1  0  0  0  0  0999 V2000
   -0.7145   -4.5375    0.0000 C   0  0  0  0  0  0  0  0  0  0  0  0
   -0.7145   -3.7125    0.0000 C   0  0  1  0  0  0  0  0  0  0  0  0
   -1.4289   -3.3000    0.0000 C   0  0  1  0  0  0  0  0  0  0  0  0
   -2.1434   -3.7125    0.0000 C   0  0  0  0  0  0  0  0  0  0  0  0
   -2.1434   -4.5375    0.0000 C   0  0  0  0  0  0  0  0  0  0  0  0
   -2.8579   -4.9500    0.0000 C   0  0  0  0  0  0  0  0  0  0  0  0
   -3.5724   -4.5375    0.0000 C   0  0  0  0  0  0  0  0  0  0  0  0
   -3.5724   -3.7125    0.0000 C   0  0  0  0  0  0  0  0  0  0  0  0
   -2.8579   -3.3000    0.0000 C   0  0  0  0  0  0  0  0  0  0  0  0
   -1.4289   -2.4750    0.0000 O   0  0  0  0  0  0  0  0  0  0  0  0
    0.0000   -3.3000    0.0000 N   0  0  0  0  0  0  0  0  0  0  0  0
    0.7145   -3.7125    0.0000 C   0  0  0  0  0  0  0  0  0  0  0  0
    1.4289   -3.3000    0.0000 C   0  0  0  0  0  0  0  0  0  0  0  0
    2.1434   -3.7125    0.0000 C   0  0  0  0  0  0  0  0  0  0  0  0
    2.1434   -4.5375    0.0000 O   0  0  0  0  0  0  0  0  0  0  0  0
    2.8579   -3.3000    0.0000 C   0  0  0  0  0  0  0  0  0  0  0  0
    2.8579   -2.4750    0.0000 C   0  0  0  0  0  0  0  0  0  0  0  0
    3.5724   -2.0625    0.0000 C   0  0  0  0  0  0  0  0  0  0  0  0
    4.2868   -2.4750    0.0000 C   0  0  0  0  0  0  0  0  0  0  0  0
    4.2868   -3.3000    0.0000 C   0  0  0  0  0  0  0  0  0  0  0  0
    3.5724   -3.7125    0.0000 C   0  0  0  0  0  0  0  0  0  0  0  0
    5.0013   -3.7125    0.0000 O   0  0  0  0  0  0  0  0  0  0  0  0
    5.7158   -3.3000    0.0000 C   0  0  0  0  0  0  0  0  0  0  0  0
   -1.6411   -5.0725    0.0000 H   0  0  0  0  0  0  0  0  0  0  0  0
    0.2121   -5.0725    0.0000 H   0  0  0  0  0  0  0  0  0  0  0  0
   -0.7145   -5.6075    0.0000 H   0  0  0  0  0  0  0  0  0  0  0  0
   -1.6412   -4.2475    0.0000 H   0  0  0  0  0  0  0  0  0  0  0  0
   -0.5022   -2.7650    0.0000 H   0  0  0  0  0  0  0  0  0  0  0  0
   -1.2497   -5.0535    0.0000 H   0  0  0  0  0  0  0  0  0  0  0  0
   -2.8579   -5.9820    0.0000 H   0  0  0  0  0  0  0  0  0  0  0  0
   -4.4661   -5.0535    0.0000 H   0  0  0  0  0  0  0  0  0  0  0  0
   -4.4661   -3.1965    0.0000 H   0  0  0  0  0  0  0  0  0  0  0  0
   -2.8579   -2.2680    0.0000 H   0  0  0  0  0  0  0  0  0  0  0  0
   -0.5889   -1.9900    0.0000 H   0  0  0  0  0  0  0  0  0  0  0  0
    0.0000   -2.2800    0.0000 H   0  0  0  0  0  0  0  0  0  0  0  0
    0.7145   -4.7825    0.0000 H   0  0  0  0  0  0  0  0  0  0  0  0
    1.6412   -4.2475    0.0000 H   0  0  0  0  0  0  0  0  0  0  0  0
    1.4289   -2.2300    0.0000 H   0  0  0  0  0  0  0  0  0  0  0  0
    2.3555   -2.7650    0.0000 H   0  0  0  0  0  0  0  0  0  0  0  0
    1.9642   -1.9590    0.0000 H   0  0  0  0  0  0  0  0  0  0  0  0
    3.5724   -1.0305    0.0000 H   0  0  0  0  0  0  0  0  0  0  0  0
    5.1805   -1.9590    0.0000 H   0  0  0  0  0  0  0  0  0  0  0  0
    3.5724   -4.7445    0.0000 H   0  0  0  0  0  0  0  0  0  0  0  0
    6.6424   -3.8350    0.0000 H   0  0  0  0  0  0  0  0  0  0  0  0
    5.7158   -2.2300    0.0000 H   0  0  0  0  0  0  0  0  0  0  0  0
    6.6425   -2.7650    0.0000 H   0  0  0  0  0  0  0  0  0  0  0  0
  1 24  1  0  0  0  0
  1 25  1  0  0  0  0
  1 26  1  0  0  0  0
  2  1  1  0  0  0  0
  2  3  1  0  0  0  0
  2 11  1  0  0  0  0
  2 27  1  6  0  0  0
  3  4  1  0  0  0  0
  3 10  1  0  0  0  0
  3 28  1  6  0  0  0
  4  5  2  0  0  0  0
  4  9  1  0  0  0  0
  5  6  1  0  0  0  0
  5 29  1  0  0  0  0
  6  7  2  0  0  0  0
  6 30  1  0  0  0  0
  7  8  1  0  0  0  0
  7 31  1  0  0  0  0
  8  9  2  0  0  0  0
  8 32  1  0  0  0  0
  9 33  1  0  0  0  0
 10 34  1  0  0  0  0
 11 12  1  0  0  0  0
 11 35  1  0  0  0  0
 12 13  1  0  0  0  0
 12 36  1  0  0  0  0
 12 37  1  0  0  0  0
 13 14  1  0  0  0  0
 13 38  1  0  0  0  0
 13 39  1  0  0  0  0
 14 15  2  0  0  0  0
 14 16  1  0  0  0  0
 16 17  2  0  0  0  0
 16 21  1  0  0  0  0
 17 18  1  0  0  0  0
 17 40  1  0  0  0  0
 18 19  2  0  0  0  0
 18 41  1  0  0  0  0
 19 20  1  0  0  0  0
 19 42  1  0  0  0  0
 20 21  2  0  0  0  0
 20 22  1  0  0  0  0
 21 43  1  0  0  0  0
 22 23  1  0  0  0  0
 23 44  1  0  0  0  0
 23 45  1  0  0  0  0
 23 46  1  0  0  0  0
M  END
>  <DRUGBANK_ID>
DB13398

>  <COMMON_NAME>
Oxyfedrine

>  <CAS_NUMBER>
15687-41-9

>  <UNII>
DWL616XF1K

>  <SYNONYMS>
Oxyfedrine

$$$$
