
 OpenBabel10282417072D

 30 33  0  0  0  0  0  0  0  0999 V2000
   -2.2893   -0.6670    0.0000 Br  0  0  0  0  0  0  0  0  0  0  0  0
   -0.4154    0.6200    0.0000 O   0  0  0  0  0  0  0  0  0  0  0  0
    1.9412   -1.4920    0.0000 O   0  0  0  0  0  0  0  0  0  0  0  0
    1.6717    0.2074    0.0000 N   0  0  0  0  0  0  0  0  0  0  0  0
    0.6347   -2.1559    0.0000 N   0  0  0  0  0  0  0  0  0  0  0  0
    0.6347   -0.8281    0.0000 C   0  0  0  0  0  0  0  0  0  0  0  0
    0.8911   -0.0439    0.0000 C   0  0  0  0  0  0  0  0  0  0  0  0
   -0.1458   -1.0795    0.0000 C   0  0  0  0  0  0  0  0  0  0  0  0
   -0.1458   -1.9045    0.0000 C   0  0  0  0  0  0  0  0  0  0  0  0
    0.8911    1.2838    0.0000 C   0  0  0  0  0  0  0  0  0  0  0  0
    1.6752    1.0275    0.0000 C   0  0  0  0  0  0  0  0  0  0  0  0
    0.4095    0.6200    0.0000 C   0  0  0  0  0  0  0  0  0  0  0  0
    1.1162   -1.4920    0.0000 C   0  0  0  0  0  0  0  0  0  0  0  0
   -0.8603   -0.6670    0.0000 C   0  0  0  0  0  0  0  0  0  0  0  0
   -0.8603   -2.3170    0.0000 C   0  0  0  0  0  0  0  0  0  0  0  0
    0.7209    2.0911    0.0000 C   0  0  0  0  0  0  0  0  0  0  0  0
    2.2893    1.5785    0.0000 C   0  0  0  0  0  0  0  0  0  0  0  0
   -1.5748   -1.0795    0.0000 C   0  0  0  0  0  0  0  0  0  0  0  0
   -1.5748   -1.9045    0.0000 C   0  0  0  0  0  0  0  0  0  0  0  0
    1.3349    2.6422    0.0000 C   0  0  0  0  0  0  0  0  0  0  0  0
    2.1192    2.3858    0.0000 C   0  0  0  0  0  0  0  0  0  0  0  0
    2.0844   -0.0946    0.0000 H   0  0  0  0  0  0  0  0  0  0  0  0
    0.7936   -2.6422    0.0000 H   0  0  0  0  0  0  0  0  0  0  0  0
   -0.8603    0.3650    0.0000 H   0  0  0  0  0  0  0  0  0  0  0  0
   -0.8603   -3.3490    0.0000 H   0  0  0  0  0  0  0  0  0  0  0  0
   -0.2601    2.4116    0.0000 H   0  0  0  0  0  0  0  0  0  0  0  0
    3.2702    1.2579    0.0000 H   0  0  0  0  0  0  0  0  0  0  0  0
   -2.4685   -2.4205    0.0000 H   0  0  0  0  0  0  0  0  0  0  0  0
    1.1220    3.6520    0.0000 H   0  0  0  0  0  0  0  0  0  0  0  0
    2.8874    3.0750    0.0000 H   0  0  0  0  0  0  0  0  0  0  0  0
  1 18  1  0  0  0  0
  2 12  2  0  0  0  0
  3 13  2  0  0  0  0
  4  7  1  0  0  0  0
  4 11  1  0  0  0  0
  4 22  1  0  0  0  0
  5  9  1  0  0  0  0
  5 13  1  0  0  0  0
  5 23  1  0  0  0  0
  6  7  2  0  0  0  0
  6  8  1  0  0  0  0
  6 13  1  0  0  0  0
  7 12  1  0  0  0  0
  8  9  2  0  0  0  0
  8 14  1  0  0  0  0
  9 15  1  0  0  0  0
 10 11  1  0  0  0  0
 10 12  1  0  0  0  0
 10 16  2  0  0  0  0
 11 17  2  0  0  0  0
 14 18  2  0  0  0  0
 14 24  1  0  0  0  0
 15 19  2  0  0  0  0
 15 25  1  0  0  0  0
 16 20  1  0  0  0  0
 16 26  1  0  0  0  0
 17 21  1  0  0  0  0
 17 27  1  0  0  0  0
 18 19  1  0  0  0  0
 19 28  1  0  0  0  0
 20 21  2  0  0  0  0
 20 29  1  0  0  0  0
 21 30  1  0  0  0  0
M  END
>  <DRUGBANK_ID>
DB07493

>  <COMMON_NAME>
5-Bromoindirubin

>  <CAS_NUMBER>
60874-72-8

>  <SYNONYMS>
(2Z)-5'-bromo-2,3'-biindole-2',3(1H,1'H)-dione ammoniate

$$$$
