55E
 OpenBabel10282417072D

 35 37  0  0  0  0  0  0  0  0999 V2000
   -0.3572   -2.6696    0.0000 O   0  0  0  0  0  0  0  0  0  0  0  0
   -0.3572   -1.8446    0.0000 C   0  0  0  0  0  0  0  0  0  0  0  0
    0.3572   -1.4321    0.0000 N   0  0  0  0  0  0  0  0  0  0  0  0
    0.3572   -0.6071    0.0000 C   0  0  0  0  0  0  0  0  0  0  0  0
    1.0717   -0.1946    0.0000 C   0  0  0  0  0  0  0  0  0  0  0  0
    1.0717    0.6304    0.0000 C   0  0  0  0  0  0  0  0  0  0  0  0
    1.7862    1.0429    0.0000 C   0  0  0  0  0  0  0  0  0  0  0  0
    1.7862    1.8679    0.0000 C   0  0  0  0  0  0  0  0  0  0  0  0
    2.5007    0.6304    0.0000 C   0  0  0  0  0  0  0  0  0  0  0  0
    3.2151    1.0429    0.0000 O   0  0  0  0  0  0  0  0  0  0  0  0
    2.5007   -0.1946    0.0000 C   0  0  0  0  0  0  0  0  0  0  0  0
    1.7862   -0.6071    0.0000 C   0  0  0  0  0  0  0  0  0  0  0  0
   -0.3572   -0.1946    0.0000 C   0  0  0  0  0  0  0  0  0  0  0  0
   -1.0717   -0.6071    0.0000 C   0  0  0  0  0  0  0  0  0  0  0  0
   -1.0717   -1.4321    0.0000 N   0  0  0  0  0  0  0  0  0  0  0  0
   -1.7862   -0.1946    0.0000 C   0  0  0  0  0  0  0  0  0  0  0  0
   -1.7862    0.6304    0.0000 C   0  0  0  0  0  0  0  0  0  0  0  0
   -2.5006    1.0429    0.0000 C   0  0  0  0  0  0  0  0  0  0  0  0
   -3.2151    0.6304    0.0000 C   0  0  0  0  0  0  0  0  0  0  0  0
   -3.2151   -0.1946    0.0000 C   0  0  0  0  0  0  0  0  0  0  0  0
   -2.5006   -0.6071    0.0000 C   0  0  0  0  0  0  0  0  0  0  0  0
    0.1780    1.1464    0.0000 H   0  0  0  0  0  0  0  0  0  0  0  0
    2.7128    2.4029    0.0000 H   0  0  0  0  0  0  0  0  0  0  0  0
    0.8596    2.4029    0.0000 H   0  0  0  0  0  0  0  0  0  0  0  0
    1.7862    2.9379    0.0000 H   0  0  0  0  0  0  0  0  0  0  0  0
    4.0266    0.5744    0.0000 H   0  0  0  0  0  0  0  0  0  0  0  0
    3.3944   -0.7106    0.0000 H   0  0  0  0  0  0  0  0  0  0  0  0
    1.7862   -1.6391    0.0000 H   0  0  0  0  0  0  0  0  0  0  0  0
   -0.3572    0.8754    0.0000 H   0  0  0  0  0  0  0  0  0  0  0  0
   -1.2838    0.3404    0.0000 H   0  0  0  0  0  0  0  0  0  0  0  0
   -0.8925    1.1464    0.0000 H   0  0  0  0  0  0  0  0  0  0  0  0
   -2.5006    2.0749    0.0000 H   0  0  0  0  0  0  0  0  0  0  0  0
   -4.1088    1.1464    0.0000 H   0  0  0  0  0  0  0  0  0  0  0  0
   -4.1088   -0.7106    0.0000 H   0  0  0  0  0  0  0  0  0  0  0  0
   -2.5006   -1.6391    0.0000 H   0  0  0  0  0  0  0  0  0  0  0  0
  1  2  2  0  0  0  0
  2 15  1  0  0  0  0
  3  2  1  0  0  0  0
  3  4  2  0  0  0  0
  4 13  1  0  0  0  0
  5  4  1  0  0  0  0
  5  6  1  0  0  0  0
  6 22  1  0  0  0  0
  7  6  2  0  0  0  0
  7  8  1  0  0  0  0
  8 23  1  0  0  0  0
  8 24  1  0  0  0  0
  8 25  1  0  0  0  0
  9  7  1  0  0  0  0
 10  9  1  0  0  0  0
 10 26  1  0  0  0  0
 11  9  2  0  0  0  0
 11 12  1  0  0  0  0
 11 27  1  0  0  0  0
 12  5  2  0  0  0  0
 12 28  1  0  0  0  0
 13 14  1  0  0  0  0
 13 29  1  0  0  0  0
 13 30  1  0  0  0  0
 14 16  1  0  0  0  0
 15 14  2  0  0  0  0
 16 21  2  0  0  0  0
 16 17  1  0  0  0  0
 17 18  2  0  0  0  0
 17 31  1  0  0  0  0
 18 19  1  0  0  0  0
 18 32  1  0  0  0  0
 19 33  1  0  0  0  0
 20 19  2  0  0  0  0
 20 34  1  0  0  0  0
 21 20  1  0  0  0  0
 21 35  1  0  0  0  0
M  END
>  <DRUGBANK_ID>
DB07151

>  <COMMON_NAME>
4-(4-hydroxy-3-methylphenyl)-6-phenylpyrimidin-2(5H)-one

$$$$
