CDD
 OpenBabel10282417072D

 49 51  0  0  0  0  0  0  0  0999 V2000
   -1.5087    3.9574    0.0000 C   0  0  0  0  0  0  0  0  0  0  0  0
   -1.5087    3.1324    0.0000 N   0  3  0  0  0  0  0  0  0  0  0  0
   -2.2231    2.7199    0.0000 C   0  0  0  0  0  0  0  0  0  0  0  0
   -2.9376    3.1324    0.0000 C   0  0  0  0  0  0  0  0  0  0  0  0
   -2.9376    3.9574    0.0000 C   0  0  0  0  0  0  0  0  0  0  0  0
   -2.2231    4.3699    0.0000 C   0  0  0  0  0  0  0  0  0  0  0  0
   -2.2231    1.8949    0.0000 C   0  0  0  0  0  0  0  0  0  0  0  0
   -2.2231    1.0699    0.0000 C   0  0  0  0  0  0  0  0  0  0  0  0
   -3.0481    1.8949    0.0000 F   0  0  0  0  0  0  0  0  0  0  0  0
   -1.3981    1.8949    0.0000 F   0  0  0  0  0  0  0  0  0  0  0  0
   -1.5087    0.6574    0.0000 N   0  0  0  0  0  0  0  0  0  0  0  0
   -1.5087   -0.1676    0.0000 C   0  0  0  0  0  0  0  0  0  0  0  0
   -0.7942   -0.5801    0.0000 C   0  0  0  0  0  0  0  0  0  0  0  0
   -0.7942   -1.4051    0.0000 N   0  0  0  0  0  0  0  0  0  0  0  0
   -1.5087   -1.8176    0.0000 C   0  0  0  0  0  0  0  0  0  0  0  0
   -2.2231   -1.4051    0.0000 C   0  0  0  0  0  0  0  0  0  0  0  0
   -2.2231   -0.5801    0.0000 N   0  0  0  0  0  0  0  0  0  0  0  0
   -0.0797   -1.8176    0.0000 C   0  0  0  0  0  0  0  0  0  0  0  0
    0.6347   -1.4051    0.0000 C   0  0  0  0  0  0  0  0  0  0  0  0
    1.3492   -1.8176    0.0000 N   0  0  0  0  0  0  0  0  0  0  0  0
    2.0637   -1.4051    0.0000 C   0  0  0  0  0  0  0  0  0  0  0  0
    2.7781   -1.8176    0.0000 C   0  0  0  0  0  0  0  0  0  0  0  0
    3.4926   -1.4051    0.0000 C   0  0  0  0  0  0  0  0  0  0  0  0
    4.2071   -1.8176    0.0000 C   0  0  0  0  0  0  0  0  0  0  0  0
    4.2071   -2.6426    0.0000 C   0  0  0  0  0  0  0  0  0  0  0  0
    3.4926   -3.0551    0.0000 C   0  0  0  0  0  0  0  0  0  0  0  0
    2.7781   -2.6426    0.0000 C   0  0  0  0  0  0  0  0  0  0  0  0
   -0.0797   -0.1676    0.0000 O   0  0  0  0  0  0  0  0  0  0  0  0
   -1.5087   -2.6426    0.0000 Cl  0  0  0  0  0  0  0  0  0  0  0  0
    0.6347   -0.5801    0.0000 O   0  0  0  0  0  0  0  0  0  0  0  0
    2.0637   -3.0551    0.0000 F   0  0  0  0  0  0  0  0  0  0  0  0
   -0.7942    2.7199    0.0000 O   0  5  0  0  0  0  0  0  0  0  0  0
   -0.6150    4.4734    0.0000 H   0  0  0  0  0  0  0  0  0  0  0  0
   -3.8313    2.6164    0.0000 H   0  0  0  0  0  0  0  0  0  0  0  0
   -3.8313    4.4734    0.0000 H   0  0  0  0  0  0  0  0  0  0  0  0
   -2.2231    5.4019    0.0000 H   0  0  0  0  0  0  0  0  0  0  0  0
   -3.1498    0.5349    0.0000 H   0  0  0  0  0  0  0  0  0  0  0  0
   -2.2231   -0.0001    0.0000 H   0  0  0  0  0  0  0  0  0  0  0  0
   -0.6561    1.1496    0.0000 H   0  0  0  0  0  0  0  0  0  0  0  0
   -3.1168   -1.9211    0.0000 H   0  0  0  0  0  0  0  0  0  0  0  0
   -0.0797   -2.8876    0.0000 H   0  0  0  0  0  0  0  0  0  0  0  0
    0.8470   -2.3526    0.0000 H   0  0  0  0  0  0  0  0  0  0  0  0
    1.3492   -2.8021    0.0000 H   0  0  0  0  0  0  0  0  0  0  0  0
    2.0637   -0.3351    0.0000 H   0  0  0  0  0  0  0  0  0  0  0  0
    2.9904   -0.8701    0.0000 H   0  0  0  0  0  0  0  0  0  0  0  0
    3.4926   -0.3731    0.0000 H   0  0  0  0  0  0  0  0  0  0  0  0
    5.1008   -1.3016    0.0000 H   0  0  0  0  0  0  0  0  0  0  0  0
    5.1008   -3.1586    0.0000 H   0  0  0  0  0  0  0  0  0  0  0  0
    3.4926   -4.0871    0.0000 H   0  0  0  0  0  0  0  0  0  0  0  0
  1  2  2  0  0  0  0
  1  6  1  0  0  0  0
  1 33  1  0  0  0  0
  2  3  1  0  0  0  0
  2 32  1  0  0  0  0
  3  4  2  0  0  0  0
  3  7  1  0  0  0  0
  4  5  1  0  0  0  0
  4 34  1  0  0  0  0
  5  6  2  0  0  0  0
  5 35  1  0  0  0  0
  6 36  1  0  0  0  0
  7  8  1  0  0  0  0
  7  9  1  0  0  0  0
  7 10  1  0  0  0  0
  8 11  1  0  0  0  0
  8 37  1  0  0  0  0
  8 38  1  0  0  0  0
 11 12  1  0  0  0  0
 11 39  1  0  0  0  0
 12 13  1  0  0  0  0
 12 17  2  0  0  0  0
 13 14  1  0  0  0  0
 13 28  2  0  0  0  0
 14 15  1  0  0  0  0
 14 18  1  0  0  0  0
 15 16  2  0  0  0  0
 15 29  1  0  0  0  0
 16 17  1  0  0  0  0
 16 40  1  0  0  0  0
 18 19  1  0  0  0  0
 18 41  1  0  0  0  0
 18 42  1  0  0  0  0
 19 20  1  0  0  0  0
 19 30  2  0  0  0  0
 20 21  1  0  0  0  0
 20 43  1  0  0  0  0
 21 22  1  0  0  0  0
 21 44  1  0  0  0  0
 21 45  1  0  0  0  0
 22 23  1  0  0  0  0
 22 27  2  0  0  0  0
 23 24  2  0  0  0  0
 23 46  1  0  0  0  0
 24 25  1  0  0  0  0
 24 47  1  0  0  0  0
 25 26  2  0  0  0  0
 25 48  1  0  0  0  0
 26 27  1  0  0  0  0
 26 49  1  0  0  0  0
 27 31  1  0  0  0  0
M  CHG  2   2   1  32  -1
M  END
>  <DRUGBANK_ID>
DB07550

>  <COMMON_NAME>
2-(6-CHLORO-3-{[2,2-DIFLUORO-2-(1-OXIDO-2-PYRIDINYL)ETHYL]AMINO}-2-OXO-1(2H)-PYRAZINYL)-N-[(2-FLUOROPHENYL)METHYL]ACETAMIDE

$$$$
