
 OpenBabel10282417072D

 49 50  0  0  0  0  0  0  0  0999 V2000
   -2.8651    0.0000    0.0000 C   0  0  0  0  0  0  0  0  0  0  0  0
   -2.8651   -0.8365    0.0000 C   0  0  0  0  0  0  0  0  0  0  0  0
   -2.1541   -1.2548    0.0000 C   0  0  0  0  0  0  0  0  0  0  0  0
   -1.4011   -0.8365    0.0000 C   0  0  0  0  0  0  0  0  0  0  0  0
   -1.4011    0.0000    0.0000 C   0  0  0  0  0  0  0  0  0  0  0  0
   -2.1541    0.4183    0.0000 C   0  0  0  0  0  0  0  0  0  0  0  0
   -2.1541    1.2548    0.0000 O   0  0  0  0  0  0  0  0  0  0  0  0
   -3.5762   -1.2548    0.0000 O   0  0  0  0  0  0  0  0  0  0  0  0
   -0.6901    0.4183    0.0000 C   0  0  0  0  0  0  0  0  0  0  0  0
    0.0209    0.0000    0.0000 O   0  0  0  0  0  0  0  0  0  0  0  0
    0.7319    0.4183    0.0000 C   0  0  2  0  0  0  0  0  0  0  0  0
    1.4430    0.0000    0.0000 C   0  0  0  0  0  0  0  0  0  0  0  0
    2.1540    0.4183    0.0000 C   0  0  0  0  0  0  0  0  0  0  0  0
    2.8651    0.0000    0.0000 C   0  0  0  0  0  0  0  0  0  0  0  0
    2.8651   -0.8365    0.0000 C   0  0  2  0  0  0  0  0  0  0  0  0
    3.5762   -1.2548    0.0000 O   0  0  0  0  0  0  0  0  0  0  0  0
    2.1540   -1.2548    0.0000 C   0  0  0  0  0  0  0  0  0  0  0  0
    1.4430   -0.8365    0.0000 C   0  0  0  0  0  0  0  0  0  0  0  0
    0.7319   -1.2548    0.0000 C   0  0  0  0  0  0  0  0  0  0  0  0
    0.0209   -0.8365    0.0000 C   0  0  0  0  0  0  0  0  0  0  0  0
   -0.6901   -1.2548    0.0000 C   0  0  0  0  0  0  0  0  0  0  0  0
   -0.6901    1.2548    0.0000 O   0  0  0  0  0  0  0  0  0  0  0  0
    0.7319    1.2548    0.0000 C   0  0  0  0  0  0  0  0  0  0  0  0
   -3.7609    0.5123    0.0000 H   0  0  0  0  0  0  0  0  0  0  0  0
   -2.1669   -2.2867    0.0000 H   0  0  0  0  0  0  0  0  0  0  0  0
   -1.3426    1.7233    0.0000 H   0  0  0  0  0  0  0  0  0  0  0  0
   -4.3914   -0.7929    0.0000 H   0  0  0  0  0  0  0  0  0  0  0  0
   -0.1969    0.9495    0.0000 H   0  0  0  0  0  0  0  0  0  0  0  0
    1.4430   -1.0700    0.0000 H   0  0  0  0  0  0  0  0  0  0  0  0
    2.3718   -0.5312    0.0000 H   0  0  0  0  0  0  0  0  0  0  0  0
    2.1540    1.4883    0.0000 H   0  0  0  0  0  0  0  0  0  0  0  0
    3.0828    0.9495    0.0000 H   0  0  0  0  0  0  0  0  0  0  0  0
    3.7939    0.5312    0.0000 H   0  0  0  0  0  0  0  0  0  0  0  0
    3.7907   -0.5369    0.0000 H   0  0  0  0  0  0  0  0  0  0  0  0
    3.7939   -0.3053    0.0000 H   0  0  0  0  0  0  0  0  0  0  0  0
    3.5683   -2.2248    0.0000 H   0  0  0  0  0  0  0  0  0  0  0  0
    2.1540   -2.3248    0.0000 H   0  0  0  0  0  0  0  0  0  0  0  0
    1.2252   -1.7860    0.0000 H   0  0  0  0  0  0  0  0  0  0  0  0
    1.4430    0.2335    0.0000 H   0  0  0  0  0  0  0  0  0  0  0  0
    0.5142   -0.3053    0.0000 H   0  0  0  0  0  0  0  0  0  0  0  0
    0.7319   -2.3248    0.0000 H   0  0  0  0  0  0  0  0  0  0  0  0
   -0.1969   -1.7860    0.0000 H   0  0  0  0  0  0  0  0  0  0  0  0
    0.0209    0.2335    0.0000 H   0  0  0  0  0  0  0  0  0  0  0  0
   -0.9079   -0.3053    0.0000 H   0  0  0  0  0  0  0  0  0  0  0  0
   -0.6901   -2.3248    0.0000 H   0  0  0  0  0  0  0  0  0  0  0  0
   -1.6189   -1.7860    0.0000 H   0  0  0  0  0  0  0  0  0  0  0  0
    1.6585    1.7898    0.0000 H   0  0  0  0  0  0  0  0  0  0  0  0
   -0.1947    1.7898    0.0000 H   0  0  0  0  0  0  0  0  0  0  0  0
    0.7319    2.3248    0.0000 H   0  0  0  0  0  0  0  0  0  0  0  0
  1  2  2  0  0  0  0
  1  6  1  0  0  0  0
  1 24  1  0  0  0  0
  2  3  1  0  0  0  0
  2  8  1  0  0  0  0
  3  4  2  0  0  0  0
  3 25  1  0  0  0  0
  4  5  1  0  0  0  0
  5  6  2  0  0  0  0
  5  9  1  0  0  0  0
  6  7  1  0  0  0  0
  7 26  1  0  0  0  0
  8 27  1  0  0  0  0
  9 10  1  0  0  0  0
  9 22  2  0  0  0  0
 10 11  1  0  0  0  0
 11 12  1  0  0  0  0
 11 23  1  0  0  0  0
 11 28  1  6  0  0  0
 12 13  1  0  0  0  0
 12 29  1  0  0  0  0
 12 30  1  0  0  0  0
 13 14  1  0  0  0  0
 13 31  1  0  0  0  0
 13 32  1  0  0  0  0
 14 15  1  0  0  0  0
 14 33  1  0  0  0  0
 14 34  1  0  0  0  0
 15 16  1  0  0  0  0
 15 17  1  0  0  0  0
 15 35  1  1  0  0  0
 16 36  1  0  0  0  0
 17 18  1  0  0  0  0
 17 37  1  0  0  0  0
 17 38  1  0  0  0  0
 18 19  1  0  0  0  0
 18 39  1  0  0  0  0
 18 40  1  0  0  0  0
 19 20  1  0  0  0  0
 19 41  1  0  0  0  0
 19 42  1  0  0  0  0
 20 21  1  0  0  0  0
 20 43  1  0  0  0  0
 20 44  1  0  0  0  0
 21  4  1  0  0  0  0
 21 45  1  0  0  0  0
 21 46  1  0  0  0  0
 23 47  1  0  0  0  0
 23 48  1  0  0  0  0
 23 49  1  0  0  0  0
M  END
>  <DRUGBANK_ID>
DB11478

>  <COMMON_NAME>
Zeranol

>  <CAS_NUMBER>
26538-44-3

>  <UNII>
76LO2L2V39

>  <SYNONYMS>
alpha-Zeranol; Zeranol; Zeranolum; Î±-zeranol

$$$$
