645
 OpenBabel10282417072D

 48 49  0  0  0  0  0  0  0  0999 V2000
    2.3645    1.8563    0.0000 O   0  0  0  0  0  0  0  0  0  0  0  0
    3.0791   -1.8563    0.0000 O   0  0  0  0  0  0  0  0  0  0  0  0
    4.5080    3.0938    0.0000 N   0  0  0  0  0  0  0  0  0  0  0  0
    4.5080    3.9188    0.0000 C   0  0  0  0  0  0  0  0  0  0  0  0
    5.2224    2.6813    0.0000 C   0  0  0  0  0  0  0  0  0  0  0  0
    5.2224    4.3313    0.0000 C   0  0  0  0  0  0  0  0  0  0  0  0
    5.9370    3.0938    0.0000 C   0  0  0  0  0  0  0  0  0  0  0  0
    5.9370    3.9188    0.0000 C   0  0  0  0  0  0  0  0  0  0  0  0
    3.7935    2.6813    0.0000 C   0  0  0  0  0  0  0  0  0  0  0  0
    3.7935    1.8563    0.0000 C   0  0  0  0  0  0  0  0  0  0  0  0
    3.0791    1.4438    0.0000 C   0  0  0  0  0  0  0  0  0  0  0  0
    3.0791    0.6188    0.0000 C   0  0  0  0  0  0  0  0  0  0  0  0
    3.7935    0.2063    0.0000 C   0  0  0  0  0  0  0  0  0  0  0  0
    2.3645    0.2063    0.0000 C   0  0  0  0  0  0  0  0  0  0  0  0
    2.3645   -3.0938    0.0000 C   0  0  0  0  0  0  0  0  0  0  0  0
    3.0791   -1.0313    0.0000 C   0  0  0  0  0  0  0  0  0  0  0  0
    3.7935   -0.6188    0.0000 C   0  0  0  0  0  0  0  0  0  0  0  0
    2.3645   -0.6188    0.0000 C   0  0  0  0  0  0  0  0  0  0  0  0
    2.3645   -2.2688    0.0000 C   0  0  0  0  0  0  0  0  0  0  0  0
    1.6500   -3.5063    0.0000 C   0  0  0  0  0  0  0  0  0  0  0  0
    1.6500   -4.3313    0.0000 C   0  0  0  0  0  0  0  0  0  0  0  0
    3.5813    4.4538    0.0000 H   0  0  0  0  0  0  0  0  0  0  0  0
    4.5080    4.9888    0.0000 H   0  0  0  0  0  0  0  0  0  0  0  0
    5.2223    1.6113    0.0000 H   0  0  0  0  0  0  0  0  0  0  0  0
    6.1490    2.1462    0.0000 H   0  0  0  0  0  0  0  0  0  0  0  0
    5.2223    5.4013    0.0000 H   0  0  0  0  0  0  0  0  0  0  0  0
    6.1490    4.8664    0.0000 H   0  0  0  0  0  0  0  0  0  0  0  0
    6.8636    2.5588    0.0000 H   0  0  0  0  0  0  0  0  0  0  0  0
    6.8637    3.6288    0.0000 H   0  0  0  0  0  0  0  0  0  0  0  0
    6.8636    4.4538    0.0000 H   0  0  0  0  0  0  0  0  0  0  0  0
    6.8637    3.3838    0.0000 H   0  0  0  0  0  0  0  0  0  0  0  0
    2.8669    3.2163    0.0000 H   0  0  0  0  0  0  0  0  0  0  0  0
    2.8669    2.1463    0.0000 H   0  0  0  0  0  0  0  0  0  0  0  0
    4.7202    1.3213    0.0000 H   0  0  0  0  0  0  0  0  0  0  0  0
    3.7935    0.7863    0.0000 H   0  0  0  0  0  0  0  0  0  0  0  0
    4.6872    0.7223    0.0000 H   0  0  0  0  0  0  0  0  0  0  0  0
    1.4708    0.7223    0.0000 H   0  0  0  0  0  0  0  0  0  0  0  0
    3.2911   -3.6288    0.0000 H   0  0  0  0  0  0  0  0  0  0  0  0
    2.3645   -4.1638    0.0000 H   0  0  0  0  0  0  0  0  0  0  0  0
    4.6872   -1.1348    0.0000 H   0  0  0  0  0  0  0  0  0  0  0  0
    1.4708   -1.1348    0.0000 H   0  0  0  0  0  0  0  0  0  0  0  0
    1.4379   -1.7338    0.0000 H   0  0  0  0  0  0  0  0  0  0  0  0
    1.4378   -2.8038    0.0000 H   0  0  0  0  0  0  0  0  0  0  0  0
    0.7234   -2.9713    0.0000 H   0  0  0  0  0  0  0  0  0  0  0  0
    0.7234   -4.0413    0.0000 H   0  0  0  0  0  0  0  0  0  0  0  0
    0.7234   -4.8663    0.0000 H   0  0  0  0  0  0  0  0  0  0  0  0
    2.5766   -4.8663    0.0000 H   0  0  0  0  0  0  0  0  0  0  0  0
    1.6500   -5.4013    0.0000 H   0  0  0  0  0  0  0  0  0  0  0  0
  1 11  2  0  0  0  0
  2 16  1  0  0  0  0
  2 19  1  0  0  0  0
  3  4  1  0  0  0  0
  3  5  1  0  0  0  0
  3  9  1  0  0  0  0
  4  6  1  0  0  0  0
  4 22  1  0  0  0  0
  4 23  1  0  0  0  0
  5  7  1  0  0  0  0
  5 24  1  0  0  0  0
  5 25  1  0  0  0  0
  6  8  1  0  0  0  0
  6 26  1  0  0  0  0
  6 27  1  0  0  0  0
  7  8  1  0  0  0  0
  7 28  1  0  0  0  0
  7 29  1  0  0  0  0
  8 30  1  0  0  0  0
  8 31  1  0  0  0  0
  9 10  1  0  0  0  0
  9 32  1  0  0  0  0
  9 33  1  0  0  0  0
 10 11  1  0  0  0  0
 10 34  1  0  0  0  0
 10 35  1  0  0  0  0
 11 12  1  0  0  0  0
 12 13  2  0  0  0  0
 12 14  1  0  0  0  0
 13 17  1  0  0  0  0
 13 36  1  0  0  0  0
 14 18  2  0  0  0  0
 14 37  1  0  0  0  0
 15 19  1  0  0  0  0
 15 20  1  0  0  0  0
 15 38  1  0  0  0  0
 15 39  1  0  0  0  0
 16 17  2  0  0  0  0
 16 18  1  0  0  0  0
 17 40  1  0  0  0  0
 18 41  1  0  0  0  0
 19 42  1  0  0  0  0
 19 43  1  0  0  0  0
 20 21  1  0  0  0  0
 20 44  1  0  0  0  0
 20 45  1  0  0  0  0
 21 46  1  0  0  0  0
 21 47  1  0  0  0  0
 21 48  1  0  0  0  0
M  END
>  <DRUGBANK_ID>
DB00645

>  <SECONDARY_ACCESSION_NUMBERS>
APRD00940

>  <COMMON_NAME>
Dyclonine

>  <CAS_NUMBER>
586-60-7

>  <UNII>
078A24Q30O

>  <SYNONYMS>
1-(4-Butoxyphenyl)-3-(1-piperidinyl)-1-propanone; 2-(1-piperidyl)ethyl p-butoxyphenyl ketone; 3-piperidino-4'-butoxypropiophenone; 4-butoxy-β-piperidinopropiophenone; 4-n-butoxy-β-(1-piperidyl)propiophenone; 4'-butoxy-3-piperidinopropiophenone; Diclonina; Dyclocaine; Dyclonin; Dyclonine; Dycloninum

$$$$
