II2
 OpenBabel10282417072D

 41 44  0  0  0  0  0  0  0  0999 V2000
    1.3308    0.9848    0.0000 O   0  0  0  0  0  0  0  0  0  0  0  0
    1.5857    0.2002    0.0000 C   0  0  0  0  0  0  0  0  0  0  0  0
    2.3704   -0.0548    0.0000 C   0  0  0  0  0  0  0  0  0  0  0  0
    3.0848    0.3577    0.0000 C   0  0  0  0  0  0  0  0  0  0  0  0
    3.7993   -0.0548    0.0000 C   0  0  0  0  0  0  0  0  0  0  0  0
    4.5138    0.3577    0.0000 N   0  0  0  0  0  0  0  0  0  0  0  0
    3.7993   -0.8798    0.0000 C   0  0  0  0  0  0  0  0  0  0  0  0
    3.0848   -1.2923    0.0000 C   0  0  0  0  0  0  0  0  0  0  0  0
    2.3704   -0.8798    0.0000 C   0  0  0  0  0  0  0  0  0  0  0  0
    1.1008   -0.4673    0.0000 N   0  0  0  0  0  0  0  0  0  0  0  0
    1.5857   -1.1347    0.0000 C   0  0  0  0  0  0  0  0  0  0  0  0
    1.3308   -1.9193    0.0000 O   0  0  0  0  0  0  0  0  0  0  0  0
    0.2758   -0.4673    0.0000 C   0  0  0  0  0  0  0  0  0  0  0  0
   -0.1367   -1.1817    0.0000 C   0  0  0  0  0  0  0  0  0  0  0  0
   -0.9617   -1.1817    0.0000 C   0  0  0  0  0  0  0  0  0  0  0  0
   -1.3742   -0.4673    0.0000 C   0  0  0  0  0  0  0  0  0  0  0  0
   -0.9617    0.2472    0.0000 C   0  0  0  0  0  0  0  0  0  0  0  0
   -0.1367    0.2472    0.0000 C   0  0  0  0  0  0  0  0  0  0  0  0
   -2.1992   -0.4673    0.0000 S   0  0  0  0  0  0  0  0  0  0  0  0
   -2.6117    0.2472    0.0000 C   0  0  0  0  0  0  0  0  0  0  0  0
   -3.4367    0.2472    0.0000 C   0  0  0  0  0  0  0  0  0  0  0  0
   -3.8492    0.9617    0.0000 C   0  0  0  0  0  0  0  0  0  0  0  0
   -3.4367    1.6761    0.0000 C   0  0  0  0  0  0  0  0  0  0  0  0
   -3.8492    2.3906    0.0000 N   0  0  0  0  0  0  0  0  0  0  0  0
   -2.6117    1.6761    0.0000 C   0  0  0  0  0  0  0  0  0  0  0  0
   -2.1992    0.9617    0.0000 C   0  0  0  0  0  0  0  0  0  0  0  0
    3.0848    1.3897    0.0000 H   0  0  0  0  0  0  0  0  0  0  0  0
    5.3664   -0.1346    0.0000 H   0  0  0  0  0  0  0  0  0  0  0  0
    4.5138    1.3422    0.0000 H   0  0  0  0  0  0  0  0  0  0  0  0
    4.6930   -1.3958    0.0000 H   0  0  0  0  0  0  0  0  0  0  0  0
    3.0848   -2.3243    0.0000 H   0  0  0  0  0  0  0  0  0  0  0  0
    0.3793   -2.0754    0.0000 H   0  0  0  0  0  0  0  0  0  0  0  0
   -1.4777   -2.0754    0.0000 H   0  0  0  0  0  0  0  0  0  0  0  0
   -1.4777    1.1409    0.0000 H   0  0  0  0  0  0  0  0  0  0  0  0
    0.3793    1.1409    0.0000 H   0  0  0  0  0  0  0  0  0  0  0  0
   -3.9527   -0.6465    0.0000 H   0  0  0  0  0  0  0  0  0  0  0  0
   -4.8812    0.9617    0.0000 H   0  0  0  0  0  0  0  0  0  0  0  0
   -3.3569    3.2432    0.0000 H   0  0  0  0  0  0  0  0  0  0  0  0
   -4.8337    2.3906    0.0000 H   0  0  0  0  0  0  0  0  0  0  0  0
   -2.0957    2.5698    0.0000 H   0  0  0  0  0  0  0  0  0  0  0  0
   -1.1672    0.9617    0.0000 H   0  0  0  0  0  0  0  0  0  0  0  0
  1  2  2  0  0  0  0
  2  3  1  0  0  0  0
  2 10  1  0  0  0  0
  3  4  1  0  0  0  0
  3  9  2  0  0  0  0
  4  5  2  0  0  0  0
  4 27  1  0  0  0  0
  5  6  1  0  0  0  0
  5  7  1  0  0  0  0
  6 28  1  0  0  0  0
  6 29  1  0  0  0  0
  7  8  2  0  0  0  0
  7 30  1  0  0  0  0
  8  9  1  0  0  0  0
  8 31  1  0  0  0  0
  9 11  1  0  0  0  0
 10 11  1  0  0  0  0
 10 13  1  0  0  0  0
 11 12  2  0  0  0  0
 13 14  1  0  0  0  0
 13 18  2  0  0  0  0
 14 15  2  0  0  0  0
 14 32  1  0  0  0  0
 15 16  1  0  0  0  0
 15 33  1  0  0  0  0
 16 17  2  0  0  0  0
 16 19  1  0  0  0  0
 17 18  1  0  0  0  0
 17 34  1  0  0  0  0
 18 35  1  0  0  0  0
 19 20  1  0  0  0  0
 20 21  1  0  0  0  0
 20 26  2  0  0  0  0
 21 22  2  0  0  0  0
 21 36  1  0  0  0  0
 22 23  1  0  0  0  0
 22 37  1  0  0  0  0
 23 24  1  0  0  0  0
 23 25  2  0  0  0  0
 24 38  1  0  0  0  0
 24 39  1  0  0  0  0
 25 26  1  0  0  0  0
 25 40  1  0  0  0  0
 26 41  1  0  0  0  0
M  END
>  <DRUGBANK_ID>
DB07971

>  <COMMON_NAME>
5-AMINO-2-{4-[(4-AMINOPHENYL)SULFANYL]PHENYL}-1H-ISOINDOLE-1,3(2H)-DIONE

$$$$
