
 OpenBabel10282417072D

123127  0  0  0  0  0  0  0  0999 V2000
   -0.7084    1.6704    0.0000 C   0  0  0  0  0  0  0  0  0  0  0  0
    0.7292    1.6704    0.0000 C   0  0  0  0  0  0  0  0  0  0  0  0
    1.6666    0.7121    0.0000 C   0  0  0  0  0  0  0  0  0  0  0  0
    2.0834    0.0037    0.0000 C   0  0  0  0  0  0  0  0  0  0  0  0
    1.6666   -0.7046    0.0000 C   0  0  0  0  0  0  0  0  0  0  0  0
    0.7292   -1.6630    0.0000 C   0  0  0  0  0  0  0  0  0  0  0  0
   -0.7084   -1.6630    0.0000 C   0  0  0  0  0  0  0  0  0  0  0  0
   -0.8333    0.8579    0.0000 N   0  0  0  0  0  0  0  0  0  0  0  0
    0.8542    0.8579    0.0000 N   0  0  0  0  0  0  0  0  0  0  0  0
    0.8542   -0.8505    0.0000 N   0  0  0  0  0  0  0  0  0  0  0  0
   -0.8333   -0.8505    0.0000 N   0  0  0  0  0  0  0  0  0  0  0  0
    1.4584   -2.0379    0.0000 C   0  0  1  0  0  0  0  0  0  0  0  0
    1.4584   -2.8629    0.0000 C   0  0  0  0  0  0  0  0  0  0  0  0
    2.1729   -3.2754    0.0000 C   0  0  0  0  0  0  0  0  0  0  0  0
    2.1729   -4.1004    0.0000 C   0  0  0  0  0  0  0  0  0  0  0  0
    2.8873   -4.5129    0.0000 O   0  0  0  0  0  0  0  0  0  0  0  0
    1.4584   -4.5129    0.0000 O   0  0  0  0  0  0  0  0  0  0  0  0
    2.0625    1.4620    0.0000 C   0  0  2  0  0  0  0  0  0  0  0  0
    1.4584    2.8704    0.0000 C   0  0  0  0  0  0  0  0  0  0  0  0
    2.1729    3.2829    0.0000 C   0  0  0  0  0  0  0  0  0  0  0  0
    2.1729    4.1079    0.0000 O   0  0  0  0  0  0  0  0  0  0  0  0
    1.4584    2.0454    0.0000 C   0  0  2  0  0  0  0  0  0  0  0  0
    0.0000    2.0870    0.0000 C   0  0  0  0  0  0  0  0  0  0  0  0
    0.0000   -2.0797    0.0000 C   0  0  0  0  0  0  0  0  0  0  0  0
    2.0625   -1.4546    0.0000 C   0  0  0  0  0  0  0  0  0  0  0  0
   -1.4371   -2.8629    0.0000 C   0  0  0  0  0  0  0  0  0  0  0  0
   -2.1514   -3.2757    0.0000 C   0  0  0  0  0  0  0  0  0  0  0  0
   -2.1511   -4.1007    0.0000 C   0  0  0  0  0  0  0  0  0  0  0  0
   -2.8653   -4.5135    0.0000 O   0  0  0  0  0  0  0  0  0  0  0  0
   -1.4364   -4.5129    0.0000 O   0  0  0  0  0  0  0  0  0  0  0  0
   -2.0208   -1.4546    0.0000 C   0  0  2  0  0  0  0  0  0  0  0  0
   -2.8458    1.4620    0.0000 C   0  0  0  0  0  0  0  0  0  0  0  0
   -3.2583    2.1765    0.0000 C   0  0  0  0  0  0  0  0  0  0  0  0
   -4.0833    2.1765    0.0000 O   0  0  0  0  0  0  0  0  0  0  0  0
   -1.4379    2.8704    0.0000 C   0  0  0  0  0  0  0  0  0  0  0  0
   -0.7236    3.2832    0.0000 C   0  0  0  0  0  0  0  0  0  0  0  0
   -0.7239    4.1082    0.0000 C   0  0  0  0  0  0  0  0  0  0  0  0
   -0.0097    4.5210    0.0000 O   0  0  0  0  0  0  0  0  0  0  0  0
   -1.4386    4.5204    0.0000 O   0  0  0  0  0  0  0  0  0  0  0  0
   -1.4375    2.0454    0.0000 C   0  0  1  0  0  0  0  0  0  0  0  0
   -2.0208    1.4620    0.0000 C   0  0  1  0  0  0  0  0  0  0  0  0
   -1.6458    0.7121    0.0000 C   0  0  1  0  0  0  0  0  0  0  0  0
   -4.0833   -0.7401    0.0000 O   0  0  0  0  0  0  0  0  0  0  0  0
   -3.2583   -0.7401    0.0000 C   0  0  0  0  0  0  0  0  0  0  0  0
   -2.8458   -0.0257    0.0000 O   0  0  0  0  0  0  0  0  0  0  0  0
   -2.8458   -1.4546    0.0000 C   0  0  0  0  0  0  0  0  0  0  0  0
   -2.1520   -2.4504    0.0000 C   0  0  0  0  0  0  0  0  0  0  0  0
   -1.4375   -2.0379    0.0000 C   0  0  2  0  0  0  0  0  0  0  0  0
   -2.4708    0.7121    0.0000 C   0  0  0  0  0  0  0  0  0  0  0  0
    0.0000    2.9120    0.0000 C   0  0  0  0  0  0  0  0  0  0  0  0
    0.0000   -2.9047    0.0000 C   0  0  0  0  0  0  0  0  0  0  0  0
    2.4750   -2.1691    0.0000 C   0  0  0  0  0  0  0  0  0  0  0  0
    2.8875   -1.4546    0.0000 C   0  0  0  0  0  0  0  0  0  0  0  0
    2.1729    2.4579    0.0000 C   0  0  0  0  0  0  0  0  0  0  0  0
   -2.4333    2.1765    0.0000 C   0  0  0  0  0  0  0  0  0  0  0  0
   -2.4708   -0.7046    0.0000 H   0  0  0  0  0  0  0  0  0  0  0  0
   -2.8458    2.8910    0.0000 O   0  0  0  0  0  0  0  0  0  0  0  0
    2.8874    2.8704    0.0000 O   0  0  0  0  0  0  0  0  0  0  0  0
   -1.6458   -0.7046    0.0000 C   0  0  2  0  0  0  0  0  0  0  0  0
    2.8875    1.4620    0.0000 C   0  0  0  0  0  0  0  0  0  0  0  0
    3.3000    0.7475    0.0000 C   0  0  0  0  0  0  0  0  0  0  0  0
    4.5375    1.4620    0.0000 O   0  0  0  0  0  0  0  0  0  0  0  0
    4.1250    0.7475    0.0000 C   0  0  0  0  0  0  0  0  0  0  0  0
    4.5375    0.0330    0.0000 O   0  0  0  0  0  0  0  0  0  0  0  0
    3.1154    0.0037    0.0000 H   0  0  0  0  0  0  0  0  0  0  0  0
   -0.1285    0.1705    0.0000 H   0  0  0  0  0  0  0  0  0  0  0  0
    0.5451   -2.5953    0.0000 H   0  0  0  0  0  0  0  0  0  0  0  0
    0.5318   -3.3979    0.0000 H   0  0  0  0  0  0  0  0  0  0  0  0
    1.4584   -3.9329    0.0000 H   0  0  0  0  0  0  0  0  0  0  0  0
    3.0995   -2.7404    0.0000 H   0  0  0  0  0  0  0  0  0  0  0  0
    3.0995   -3.8104    0.0000 H   0  0  0  0  0  0  0  0  0  0  0  0
    0.6469   -4.0444    0.0000 H   0  0  0  0  0  0  0  0  0  0  0  0
    2.6149    0.5456    0.0000 H   0  0  0  0  0  0  0  0  0  0  0  0
    0.5318    3.4054    0.0000 H   0  0  0  0  0  0  0  0  0  0  0  0
    1.4584    3.9404    0.0000 H   0  0  0  0  0  0  0  0  0  0  0  0
   -0.5102   -3.3975    0.0000 H   0  0  0  0  0  0  0  0  0  0  0  0
   -1.4366   -3.9329    0.0000 H   0  0  0  0  0  0  0  0  0  0  0  0
   -3.0783   -2.7411    0.0000 H   0  0  0  0  0  0  0  0  0  0  0  0
   -3.0778   -3.8110    0.0000 H   0  0  0  0  0  0  0  0  0  0  0  0
   -1.4360   -5.4499    0.0000 H   0  0  0  0  0  0  0  0  0  0  0  0
   -2.5833   -0.5444    0.0000 H   0  0  0  0  0  0  0  0  0  0  0  0
   -3.3808    0.5354    0.0000 H   0  0  0  0  0  0  0  0  0  0  0  0
   -3.9158    1.4620    0.0000 H   0  0  0  0  0  0  0  0  0  0  0  0
   -2.3648    3.4050    0.0000 H   0  0  0  0  0  0  0  0  0  0  0  0
   -1.4384    3.9404    0.0000 H   0  0  0  0  0  0  0  0  0  0  0  0
    0.2033    2.7486    0.0000 H   0  0  0  0  0  0  0  0  0  0  0  0
    0.2028    3.8185    0.0000 H   0  0  0  0  0  0  0  0  0  0  0  0
   -1.4390    5.4574    0.0000 H   0  0  0  0  0  0  0  0  0  0  0  0
   -0.5242    2.6030    0.0000 H   0  0  0  0  0  0  0  0  0  0  0  0
   -1.9088   -0.0257    0.0000 H   0  0  0  0  0  0  0  0  0  0  0  0
   -3.3808   -2.3812    0.0000 H   0  0  0  0  0  0  0  0  0  0  0  0
   -3.9158   -1.4546    0.0000 H   0  0  0  0  0  0  0  0  0  0  0  0
   -3.0786   -1.9154    0.0000 H   0  0  0  0  0  0  0  0  0  0  0  0
   -2.1520   -3.5204    0.0000 H   0  0  0  0  0  0  0  0  0  0  0  0
   -3.0787   -2.9854    0.0000 H   0  0  0  0  0  0  0  0  0  0  0  0
   -3.0058    1.6387    0.0000 H   0  0  0  0  0  0  0  0  0  0  0  0
   -3.0058   -0.2145    0.0000 H   0  0  0  0  0  0  0  0  0  0  0  0
   -3.5408    0.7121    0.0000 H   0  0  0  0  0  0  0  0  0  0  0  0
    0.9266    3.4470    0.0000 H   0  0  0  0  0  0  0  0  0  0  0  0
   -0.9266    3.4470    0.0000 H   0  0  0  0  0  0  0  0  0  0  0  0
    0.0000    3.9820    0.0000 H   0  0  0  0  0  0  0  0  0  0  0  0
   -0.9266   -3.4397    0.0000 H   0  0  0  0  0  0  0  0  0  0  0  0
    0.9266   -3.4397    0.0000 H   0  0  0  0  0  0  0  0  0  0  0  0
    0.0000   -3.9747    0.0000 H   0  0  0  0  0  0  0  0  0  0  0  0
    1.9400   -3.0957    0.0000 H   0  0  0  0  0  0  0  0  0  0  0  0
    3.5450   -2.1691    0.0000 H   0  0  0  0  0  0  0  0  0  0  0  0
    3.0100   -3.0958    0.0000 H   0  0  0  0  0  0  0  0  0  0  0  0
    3.4225   -2.3812    0.0000 H   0  0  0  0  0  0  0  0  0  0  0  0
    3.4225   -0.5280    0.0000 H   0  0  0  0  0  0  0  0  0  0  0  0
    3.9575   -1.4546    0.0000 H   0  0  0  0  0  0  0  0  0  0  0  0
    3.0995    1.9229    0.0000 H   0  0  0  0  0  0  0  0  0  0  0  0
    2.1729    3.5279    0.0000 H   0  0  0  0  0  0  0  0  0  0  0  0
    3.0996    2.9929    0.0000 H   0  0  0  0  0  0  0  0  0  0  0  0
   -1.8983    3.1031    0.0000 H   0  0  0  0  0  0  0  0  0  0  0  0
   -3.5033    2.1765    0.0000 H   0  0  0  0  0  0  0  0  0  0  0  0
   -2.9683    3.1032    0.0000 H   0  0  0  0  0  0  0  0  0  0  0  0
   -1.9088    2.8910    0.0000 H   0  0  0  0  0  0  0  0  0  0  0  0
    2.8874    1.9334    0.0000 H   0  0  0  0  0  0  0  0  0  0  0  0
    3.4225    2.3886    0.0000 H   0  0  0  0  0  0  0  0  0  0  0  0
    3.9575    1.4620    0.0000 H   0  0  0  0  0  0  0  0  0  0  0  0
    2.7650   -0.1791    0.0000 H   0  0  0  0  0  0  0  0  0  0  0  0
    3.8350   -0.1791    0.0000 H   0  0  0  0  0  0  0  0  0  0  0  0
    4.0690   -0.7785    0.0000 H   0  0  0  0  0  0  0  0  0  0  0  0
  1 23  2  0  0  0  0
  2  9  2  0  0  0  0
  3  4  2  0  0  0  0
  4  5  1  0  0  0  0
  4 65  1  0  0  0  0
  5 10  2  0  0  0  0
  5 25  1  0  0  0  0
  6 24  2  0  0  0  0
  7 24  1  0  0  0  0
  8  1  1  0  0  0  0
  8 66  1  0  0  0  0
  9  3  1  0  0  0  0
 10  6  1  0  0  0  0
 11  7  2  0  0  0  0
 11 59  1  0  0  0  0
 12  6  1  0  0  0  0
 12 13  1  0  0  0  0
 12 67  1  1  0  0  0
 13 14  1  0  0  0  0
 13 68  1  0  0  0  0
 13 69  1  0  0  0  0
 14 15  1  0  0  0  0
 14 70  1  0  0  0  0
 14 71  1  0  0  0  0
 15 16  2  0  0  0  0
 15 17  1  0  0  0  0
 17 72  1  0  0  0  0
 18  3  1  0  0  0  0
 18 60  1  0  0  0  0
 18 73  1  1  0  0  0
 19 20  1  0  0  0  0
 19 74  1  0  0  0  0
 19 75  1  0  0  0  0
 20 21  2  0  0  0  0
 20 58  1  0  0  0  0
 22 18  1  0  0  0  0
 22  2  1  0  0  0  0
 22 19  1  1  0  0  0
 22 54  1  0  0  0  0
 23  2  1  0  0  0  0
 23 50  1  0  0  0  0
 24 51  1  0  0  0  0
 25 12  1  0  0  0  0
 25 52  1  0  0  0  0
 25 53  1  0  0  0  0
 26 27  1  0  0  0  0
 26 76  1  0  0  0  0
 26 77  1  0  0  0  0
 27 28  1  0  0  0  0
 27 78  1  0  0  0  0
 27 79  1  0  0  0  0
 28 29  2  0  0  0  0
 28 30  1  0  0  0  0
 30 80  1  0  0  0  0
 31 59  1  0  0  0  0
 31 48  1  0  0  0  0
 31 46  1  0  0  0  0
 31 81  1  6  0  0  0
 32 33  1  0  0  0  0
 32 82  1  0  0  0  0
 32 83  1  0  0  0  0
 33 34  2  0  0  0  0
 33 57  1  0  0  0  0
 35 36  1  0  0  0  0
 35 84  1  0  0  0  0
 35 85  1  0  0  0  0
 36 37  1  0  0  0  0
 36 86  1  0  0  0  0
 36 87  1  0  0  0  0
 37 38  2  0  0  0  0
 37 39  1  0  0  0  0
 39 88  1  0  0  0  0
 40  1  1  0  0  0  0
 40 41  1  0  0  0  0
 40 35  1  0  0  0  0
 40 89  1  1  0  0  0
 41 42  1  0  0  0  0
 41 32  1  1  0  0  0
 41 55  1  0  0  0  0
 42  8  1  0  0  0  0
 42 49  1  6  0  0  0
 44 46  1  0  0  0  0
 44 43  2  0  0  0  0
 45 44  1  0  0  0  0
 45 90  1  0  0  0  0
 46 91  1  0  0  0  0
 46 92  1  0  0  0  0
 47 93  1  0  0  0  0
 47 94  1  0  0  0  0
 47 95  1  0  0  0  0
 48  7  1  0  0  0  0
 48 26  1  6  0  0  0
 48 47  1  0  0  0  0
 49 96  1  0  0  0  0
 49 97  1  0  0  0  0
 49 98  1  0  0  0  0
 50 99  1  0  0  0  0
 50100  1  0  0  0  0
 50101  1  0  0  0  0
 51102  1  0  0  0  0
 51103  1  0  0  0  0
 51104  1  0  0  0  0
 52105  1  0  0  0  0
 52106  1  0  0  0  0
 52107  1  0  0  0  0
 53108  1  0  0  0  0
 53109  1  0  0  0  0
 53110  1  0  0  0  0
 54111  1  0  0  0  0
 54112  1  0  0  0  0
 54113  1  0  0  0  0
 55114  1  0  0  0  0
 55115  1  0  0  0  0
 55116  1  0  0  0  0
 57117  1  0  0  0  0
 58118  1  0  0  0  0
 59 42  1  0  0  0  0
 59 56  1  1  0  0  0
 60 61  1  0  0  0  0
 60119  1  0  0  0  0
 60120  1  0  0  0  0
 61 63  1  0  0  0  0
 61121  1  0  0  0  0
 61122  1  0  0  0  0
 63 62  2  0  0  0  0
 63 64  1  0  0  0  0
 64123  1  0  0  0  0
M  END
>  <DRUGBANK_ID>
DB02460

>  <SECONDARY_ACCESSION_NUMBERS>
EXPT00986

>  <COMMON_NAME>
Hydrogenobyrinic acid

>  <CAS_NUMBER>
23599-55-5

>  <SYNONYMS>
Hydrogenobyrinate; Hydrogenobyrinic acid; Hydrogenobyrins√§ure

$$$$
