MA9
 OpenBabel10282417072D

 53 56  0  0  0  0  0  0  0  0999 V2000
   -0.9649    2.2553    0.0000 C   0  0  0  0  0  0  0  0  0  0  0  0
   -1.6793    1.8428    0.0000 C   0  0  0  0  0  0  0  0  0  0  0  0
   -1.6793    1.0178    0.0000 C   0  0  0  0  0  0  0  0  0  0  0  0
   -0.9649    0.6053    0.0000 C   0  0  0  0  0  0  0  0  0  0  0  0
    0.4641    0.6053    0.0000 C   0  0  0  0  0  0  0  0  0  0  0  0
    0.4641   -2.6947    0.0000 C   0  0  0  0  0  0  0  0  0  0  0  0
    1.1786   -3.9322    0.0000 C   0  0  0  0  0  0  0  0  0  0  0  0
    1.1786   -5.5822    0.0000 C   0  0  0  0  0  0  0  0  0  0  0  0
    0.4641   -4.3447    0.0000 C   0  0  0  0  0  0  0  0  0  0  0  0
    1.8930   -2.6947    0.0000 C   0  0  1  0  0  0  0  0  0  0  0  0
    1.8930   -1.8697    0.0000 C   0  0  0  0  0  0  0  0  0  0  0  0
   -0.2504   -3.9322    0.0000 F   0  0  0  0  0  0  0  0  0  0  0  0
    0.4641   -5.1697    0.0000 C   0  0  0  0  0  0  0  0  0  0  0  0
    1.1786   -6.4072    0.0000 F   0  0  0  0  0  0  0  0  0  0  0  0
    1.8930   -5.1697    0.0000 C   0  0  0  0  0  0  0  0  0  0  0  0
    2.6075   -5.5822    0.0000 F   0  0  0  0  0  0  0  0  0  0  0  0
    1.8930   -4.3447    0.0000 C   0  0  0  0  0  0  0  0  0  0  0  0
    1.1786   -3.1072    0.0000 C   0  0  2  0  0  0  0  0  0  0  0  0
    0.4641   -1.8697    0.0000 C   0  0  0  0  0  0  0  0  0  0  0  0
    2.6075   -3.1072    0.0000 N   0  0  0  0  0  0  0  0  0  0  0  0
    1.1786   -1.4572    0.0000 N   0  0  0  0  0  0  0  0  0  0  0  0
    1.1786   -0.6322    0.0000 C   0  0  0  0  0  0  0  0  0  0  0  0
    0.4641   -0.2197    0.0000 C   0  0  0  0  0  0  0  0  0  0  0  0
    1.8930   -0.2197    0.0000 N   0  0  0  0  0  0  0  0  0  0  0  0
    1.8930    0.6053    0.0000 C   0  0  0  0  0  0  0  0  0  0  0  0
    1.1786    1.0178    0.0000 N   0  0  0  0  0  0  0  0  0  0  0  0
   -0.2504    1.0178    0.0000 C   0  0  0  0  0  0  0  0  0  0  0  0
   -0.2504    1.8428    0.0000 C   0  0  0  0  0  0  0  0  0  0  0  0
   -0.9649    3.0803    0.0000 S   0  0  0  0  0  0  0  0  0  0  0  0
   -0.9649    3.9053    0.0000 O   0  0  0  0  0  0  0  0  0  0  0  0
   -1.7899    3.0803    0.0000 O   0  0  0  0  0  0  0  0  0  0  0  0
   -0.1399    3.0803    0.0000 C   0  0  0  0  0  0  0  0  0  0  0  0
    2.3987   -2.4027    0.0000 H   0  0  0  0  0  0  0  0  0  0  0  0
    0.6729   -3.3992    0.0000 H   0  0  0  0  0  0  0  0  0  0  0  0
   -2.5730    2.3588    0.0000 H   0  0  0  0  0  0  0  0  0  0  0  0
   -2.5730    0.5018    0.0000 H   0  0  0  0  0  0  0  0  0  0  0  0
   -0.9649   -0.4267    0.0000 H   0  0  0  0  0  0  0  0  0  0  0  0
   -0.4625   -3.2297    0.0000 H   0  0  0  0  0  0  0  0  0  0  0  0
    0.4641   -3.7647    0.0000 H   0  0  0  0  0  0  0  0  0  0  0  0
    2.8197   -1.3347    0.0000 H   0  0  0  0  0  0  0  0  0  0  0  0
    1.8930   -0.7997    0.0000 H   0  0  0  0  0  0  0  0  0  0  0  0
   -0.4296   -5.6857    0.0000 H   0  0  0  0  0  0  0  0  0  0  0  0
    2.7867   -3.8287    0.0000 H   0  0  0  0  0  0  0  0  0  0  0  0
   -0.4625   -1.3347    0.0000 H   0  0  0  0  0  0  0  0  0  0  0  0
    0.4641   -0.7997    0.0000 H   0  0  0  0  0  0  0  0  0  0  0  0
    2.6075   -4.1272    0.0000 H   0  0  0  0  0  0  0  0  0  0  0  0
    3.4908   -2.5972    0.0000 H   0  0  0  0  0  0  0  0  0  0  0  0
   -0.4296   -0.7357    0.0000 H   0  0  0  0  0  0  0  0  0  0  0  0
    2.7867    1.1213    0.0000 H   0  0  0  0  0  0  0  0  0  0  0  0
    0.6433    2.3588    0.0000 H   0  0  0  0  0  0  0  0  0  0  0  0
    0.3951    2.1537    0.0000 H   0  0  0  0  0  0  0  0  0  0  0  0
    0.3951    4.0069    0.0000 H   0  0  0  0  0  0  0  0  0  0  0  0
    0.9301    3.0803    0.0000 H   0  0  0  0  0  0  0  0  0  0  0  0
  1 29  1  0  0  0  0
  1 28  2  0  0  0  0
  1  2  1  0  0  0  0
  2  3  2  0  0  0  0
  2 35  1  0  0  0  0
  3  4  1  0  0  0  0
  3 36  1  0  0  0  0
  4 27  2  0  0  0  0
  4 37  1  0  0  0  0
  5 26  1  0  0  0  0
  5 27  1  0  0  0  0
  5 23  2  0  0  0  0
  6 19  1  0  0  0  0
  6 18  1  0  0  0  0
  6 38  1  0  0  0  0
  6 39  1  0  0  0  0
  7 17  2  0  0  0  0
  7  9  1  0  0  0  0
  8 15  2  0  0  0  0
  8 13  1  0  0  0  0
  8 14  1  0  0  0  0
  9 12  1  0  0  0  0
  9 13  2  0  0  0  0
 10 11  1  0  0  0  0
 10 18  1  0  0  0  0
 10 20  1  0  0  0  0
 10 33  1  1  0  0  0
 11 21  1  0  0  0  0
 11 40  1  0  0  0  0
 11 41  1  0  0  0  0
 13 42  1  0  0  0  0
 15 17  1  0  0  0  0
 15 16  1  0  0  0  0
 17 43  1  0  0  0  0
 18  7  1  0  0  0  0
 18 34  1  6  0  0  0
 19 21  1  0  0  0  0
 19 44  1  0  0  0  0
 19 45  1  0  0  0  0
 20 46  1  0  0  0  0
 20 47  1  0  0  0  0
 21 22  1  0  0  0  0
 22 24  2  0  0  0  0
 22 23  1  0  0  0  0
 23 48  1  0  0  0  0
 24 25  1  0  0  0  0
 25 26  2  0  0  0  0
 25 49  1  0  0  0  0
 27 28  1  0  0  0  0
 28 50  1  0  0  0  0
 29 32  1  0  0  0  0
 29 31  2  0  0  0  0
 29 30  2  0  0  0  0
 32 51  1  0  0  0  0
 32 52  1  0  0  0  0
 32 53  1  0  0  0  0
M  END
>  <DRUGBANK_ID>
DB08164

>  <COMMON_NAME>
(3R,4R)-1-{6-[3-(METHYLSULFONYL)PHENYL]PYRIMIDIN-4-YL}-4-(2,4,5-TRIFLUOROPHENYL)PIPERIDIN-3-AMINE

$$$$
