
 OpenBabel10282417072D

 48 50  0  0  0  0  0  0  0  0999 V2000
   -3.4618   -1.6500    0.0000 H   0  0  0  0  0  0  0  0  0  0  0  0
   -4.2868   -1.6500    0.0000 C   0  0  0  0  0  0  0  0  0  0  0  0
   -4.2868   -0.8250    0.0000 H   0  0  0  0  0  0  0  0  0  0  0  0
   -5.1118   -1.6500    0.0000 H   0  0  0  0  0  0  0  0  0  0  0  0
   -4.2868   -2.4750    0.0000 N   0  0  0  0  0  0  0  0  0  0  0  0
   -3.5724   -2.8875    0.0000 C   0  0  0  0  0  0  0  0  0  0  0  0
   -2.8579   -2.4750    0.0000 O   0  0  0  0  0  0  0  0  0  0  0  0
   -3.5724   -3.7125    0.0000 C   0  0  0  0  0  0  0  0  0  0  0  0
   -2.8579   -4.1250    0.0000 C   0  0  0  0  0  0  0  0  0  0  0  0
   -2.8579   -4.9500    0.0000 C   0  0  0  0  0  0  0  0  0  0  0  0
   -2.1434   -5.3625    0.0000 O   0  0  0  0  0  0  0  0  0  0  0  0
   -2.1434   -6.1875    0.0000 C   0  0  0  0  0  0  0  0  0  0  0  0
   -1.4289   -6.6000    0.0000 C   0  0  0  0  0  0  0  0  0  0  0  0
   -1.4289   -7.4250    0.0000 C   0  0  0  0  0  0  0  0  0  0  0  0
   -2.1434   -7.8375    0.0000 C   0  0  0  0  0  0  0  0  0  0  0  0
   -2.1434   -8.6625    0.0000 N   0  0  0  0  0  0  0  0  0  0  0  0
   -2.8579   -9.0750    0.0000 C   0  0  0  0  0  0  0  0  0  0  0  0
   -3.5724   -8.6625    0.0000 O   0  0  0  0  0  0  0  0  0  0  0  0
   -2.8579   -9.9000    0.0000 N   0  0  0  0  0  0  0  0  0  0  0  0
   -2.1434  -10.3125    0.0000 C   0  0  0  0  0  0  0  0  0  0  0  0
   -1.4289   -9.9000    0.0000 C   0  0  0  0  0  0  0  0  0  0  0  0
   -0.7145  -10.3125    0.0000 C   0  0  0  0  0  0  0  0  0  0  0  0
   -0.7145  -11.1375    0.0000 C   0  0  0  0  0  0  0  0  0  0  0  0
   -0.0000  -11.5500    0.0000 Cl  0  0  0  0  0  0  0  0  0  0  0  0
   -1.4289  -11.5500    0.0000 C   0  0  0  0  0  0  0  0  0  0  0  0
   -2.1434  -11.1375    0.0000 C   0  0  0  0  0  0  0  0  0  0  0  0
   -1.4289  -12.3750    0.0000 C   0  0  0  0  0  0  0  0  0  0  0  0
   -1.4289  -13.2000    0.0000 F   0  0  0  0  0  0  0  0  0  0  0  0
   -2.2539  -12.3750    0.0000 F   0  0  0  0  0  0  0  0  0  0  0  0
   -0.6039  -12.3750    0.0000 F   0  0  0  0  0  0  0  0  0  0  0  0
   -2.8579   -7.4250    0.0000 C   0  0  0  0  0  0  0  0  0  0  0  0
   -2.8579   -6.6000    0.0000 C   0  0  0  0  0  0  0  0  0  0  0  0
   -3.5724   -5.3625    0.0000 C   0  0  0  0  0  0  0  0  0  0  0  0
   -4.2868   -4.9500    0.0000 C   0  0  0  0  0  0  0  0  0  0  0  0
   -4.2868   -4.1250    0.0000 N   0  0  0  0  0  0  0  0  0  0  0  0
   -5.1394   -2.9672    0.0000 H   0  0  0  0  0  0  0  0  0  0  0  0
   -1.9642   -3.6090    0.0000 H   0  0  0  0  0  0  0  0  0  0  0  0
   -0.5352   -6.0840    0.0000 H   0  0  0  0  0  0  0  0  0  0  0  0
   -0.5352   -7.9410    0.0000 H   0  0  0  0  0  0  0  0  0  0  0  0
   -1.2908   -9.1548    0.0000 H   0  0  0  0  0  0  0  0  0  0  0  0
   -3.7105  -10.3923    0.0000 H   0  0  0  0  0  0  0  0  0  0  0  0
   -1.4289   -8.8680    0.0000 H   0  0  0  0  0  0  0  0  0  0  0  0
    0.1792   -9.7965    0.0000 H   0  0  0  0  0  0  0  0  0  0  0  0
   -3.0371  -11.6535    0.0000 H   0  0  0  0  0  0  0  0  0  0  0  0
   -3.7516   -7.9410    0.0000 H   0  0  0  0  0  0  0  0  0  0  0  0
   -3.7516   -6.0840    0.0000 H   0  0  0  0  0  0  0  0  0  0  0  0
   -3.5724   -6.3945    0.0000 H   0  0  0  0  0  0  0  0  0  0  0  0
   -5.1805   -5.4660    0.0000 H   0  0  0  0  0  0  0  0  0  0  0  0
  1  2  1  0  0  0  0
  2  3  1  0  0  0  0
  2  4  1  0  0  0  0
  2  5  1  0  0  0  0
  5  6  1  0  0  0  0
  5 36  1  0  0  0  0
  6  7  2  0  0  0  0
  6  8  1  0  0  0  0
  8  9  2  0  0  0  0
  8 35  1  0  0  0  0
  9 10  1  0  0  0  0
  9 37  1  0  0  0  0
 10 11  1  0  0  0  0
 10 33  2  0  0  0  0
 11 12  1  0  0  0  0
 12 13  2  0  0  0  0
 12 32  1  0  0  0  0
 13 14  1  0  0  0  0
 13 38  1  0  0  0  0
 14 15  2  0  0  0  0
 14 39  1  0  0  0  0
 15 16  1  0  0  0  0
 15 31  1  0  0  0  0
 16 17  1  0  0  0  0
 16 40  1  0  0  0  0
 17 18  2  0  0  0  0
 17 19  1  0  0  0  0
 19 20  1  0  0  0  0
 19 41  1  0  0  0  0
 20 21  2  0  0  0  0
 20 26  1  0  0  0  0
 21 22  1  0  0  0  0
 21 42  1  0  0  0  0
 22 23  2  0  0  0  0
 22 43  1  0  0  0  0
 23 24  1  0  0  0  0
 23 25  1  0  0  0  0
 25 26  2  0  0  0  0
 25 27  1  0  0  0  0
 26 44  1  0  0  0  0
 27 28  1  0  0  0  0
 27 29  1  0  0  0  0
 27 30  1  0  0  0  0
 31 32  2  0  0  0  0
 31 45  1  0  0  0  0
 32 46  1  0  0  0  0
 33 34  1  0  0  0  0
 33 47  1  0  0  0  0
 34 35  2  0  0  0  0
 34 48  1  0  0  0  0
M  ISO  3   1   2   3   2   4   2
M  END
>  <DRUGBANK_ID>
DB15414

>  <COMMON_NAME>
CM-4307

>  <CAS_NUMBER>
1130115-44-4

>  <UNII>
41XGO0VS1U

>  <SYNONYMS>
DONAFENIB

$$$$
