
 OpenBabel10282417072D

 52 55  0  0  1  0  0  0  0  0999 V2000
   -0.6112    3.7211    0.0000 C   0  0  0  0  0  0  0  0  0  0  0  0
   -1.1633    3.1080    0.0000 C   0  0  0  0  0  0  0  0  0  0  0  0
   -0.9083    2.3234    0.0000 O   0  0  0  0  0  0  0  0  0  0  0  0
   -1.4604    1.7103    0.0000 C   0  0  0  0  0  0  0  0  0  0  0  0
   -1.2054    0.9256    0.0000 C   0  0  0  0  0  0  0  0  0  0  0  0
   -1.7575    0.3126    0.0000 C   0  0  0  0  0  0  0  0  0  0  0  0
   -2.5644    0.4841    0.0000 C   0  0  0  0  0  0  0  0  0  0  0  0
   -3.1165   -0.1290    0.0000 Cl  0  0  0  0  0  0  0  0  0  0  0  0
   -2.8194    1.2687    0.0000 C   0  0  0  0  0  0  0  0  0  0  0  0
   -3.6263    1.4402    0.0000 F   0  0  0  0  0  0  0  0  0  0  0  0
   -2.2673    1.8818    0.0000 C   0  0  0  0  0  0  0  0  0  0  0  0
   -2.5223    2.6664    0.0000 C   0  0  2  0  0  0  0  0  0  0  0  0
   -3.3069    2.9214    0.0000 C   0  0  0  0  0  0  0  0  0  0  0  0
   -3.3069    3.7464    0.0000 N   0  0  0  0  0  0  0  0  0  0  0  0
   -2.5223    4.0013    0.0000 C   0  0  0  0  0  0  0  0  0  0  0  0
   -2.2673    4.7859    0.0000 O   0  0  0  0  0  0  0  0  0  0  0  0
   -2.0373    3.3339    0.0000 C   0  0  0  0  0  0  0  0  0  0  0  0
   -0.3984    0.7541    0.0000 C   0  0  2  0  0  0  0  0  0  0  0  0
    0.1536    1.3672    0.0000 C   0  0  0  0  0  0  0  0  0  0  0  0
   -0.1435   -0.0305    0.0000 N   0  0  0  0  0  0  0  0  0  0  0  0
   -0.6284   -0.6979    0.0000 N   0  0  0  0  0  0  0  0  0  0  0  0
   -0.1435   -1.3654    0.0000 C   0  0  0  0  0  0  0  0  0  0  0  0
   -0.3984   -2.1500    0.0000 C   0  0  0  0  0  0  0  0  0  0  0  0
    0.6411   -1.1104    0.0000 C   0  0  0  0  0  0  0  0  0  0  0  0
    0.6411   -0.2854    0.0000 C   0  0  0  0  0  0  0  0  0  0  0  0
    1.3556    0.1271    0.0000 N   0  0  0  0  0  0  0  0  0  0  0  0
    2.0701   -0.2854    0.0000 C   0  0  0  0  0  0  0  0  0  0  0  0
    2.0701   -1.1104    0.0000 N   0  0  0  0  0  0  0  0  0  0  0  0
    1.3556   -1.5229    0.0000 C   0  0  0  0  0  0  0  0  0  0  0  0
    1.3556   -2.3479    0.0000 N   0  0  0  0  0  0  0  0  0  0  0  0
    0.4354    3.4986    0.0000 H   0  0  0  0  0  0  0  0  0  0  0  0
   -0.9418    4.7387    0.0000 H   0  0  0  0  0  0  0  0  0  0  0  0
    0.1048    4.5162    0.0000 H   0  0  0  0  0  0  0  0  0  0  0  0
   -2.2099    3.3305    0.0000 H   0  0  0  0  0  0  0  0  0  0  0  0
   -1.8792    2.3128    0.0000 H   0  0  0  0  0  0  0  0  0  0  0  0
   -1.4387   -0.6689    0.0000 H   0  0  0  0  0  0  0  0  0  0  0  0
   -3.2789    1.9098    0.0000 H   0  0  0  0  0  0  0  0  0  0  0  0
   -4.1726    2.2925    0.0000 H   0  0  0  0  0  0  0  0  0  0  0  0
   -4.2603    3.4072    0.0000 H   0  0  0  0  0  0  0  0  0  0  0  0
   -4.1034    4.3251    0.0000 H   0  0  0  0  0  0  0  0  0  0  0  0
   -0.9673    3.3339    0.0000 H   0  0  0  0  0  0  0  0  0  0  0  0
   -1.5515    2.3805    0.0000 H   0  0  0  0  0  0  0  0  0  0  0  0
   -0.7291    1.7717    0.0000 H   0  0  0  0  0  0  0  0  0  0  0  0
    1.2002    1.1448    0.0000 H   0  0  0  0  0  0  0  0  0  0  0  0
   -0.1771    2.3848    0.0000 H   0  0  0  0  0  0  0  0  0  0  0  0
    0.8695    2.1624    0.0000 H   0  0  0  0  0  0  0  0  0  0  0  0
   -1.4450   -2.3725    0.0000 H   0  0  0  0  0  0  0  0  0  0  0  0
    0.3176   -2.9451    0.0000 H   0  0  0  0  0  0  0  0  0  0  0  0
   -0.7290   -3.1676    0.0000 H   0  0  0  0  0  0  0  0  0  0  0  0
    2.9638    0.2306    0.0000 H   0  0  0  0  0  0  0  0  0  0  0  0
    0.5030   -2.8402    0.0000 H   0  0  0  0  0  0  0  0  0  0  0  0
    2.2082   -2.8401    0.0000 H   0  0  0  0  0  0  0  0  0  0  0  0
  1  2  1  0  0  0  0
  1 31  1  0  0  0  0
  1 32  1  0  0  0  0
  1 33  1  0  0  0  0
  2  3  1  0  0  0  0
  2 34  1  0  0  0  0
  2 35  1  0  0  0  0
  3  4  1  0  0  0  0
  4  5  2  0  0  0  0
  4 11  1  0  0  0  0
  5  6  1  0  0  0  0
  6  7  2  0  0  0  0
  6 36  1  0  0  0  0
  7  8  1  0  0  0  0
  7  9  1  0  0  0  0
  9 10  1  0  0  0  0
  9 11  2  0  0  0  0
 12 11  1  0  0  0  0
 12 13  1  0  0  0  0
 12 17  1  0  0  0  0
 12 37  1  1  0  0  0
 13 14  1  0  0  0  0
 13 38  1  0  0  0  0
 13 39  1  0  0  0  0
 14 15  1  0  0  0  0
 14 40  1  0  0  0  0
 15 16  2  0  0  0  0
 15 17  1  0  0  0  0
 17 41  1  0  0  0  0
 17 42  1  0  0  0  0
 18  5  1  0  0  0  0
 18 19  1  0  0  0  0
 18 20  1  0  0  0  0
 18 43  1  1  0  0  0
 19 44  1  0  0  0  0
 19 45  1  0  0  0  0
 19 46  1  0  0  0  0
 20 21  1  0  0  0  0
 20 25  1  0  0  0  0
 21 22  2  0  0  0  0
 22 23  1  0  0  0  0
 22 24  1  0  0  0  0
 23 47  1  0  0  0  0
 23 48  1  0  0  0  0
 23 49  1  0  0  0  0
 24 25  2  0  0  0  0
 24 29  1  0  0  0  0
 25 26  1  0  0  0  0
 26 27  2  0  0  0  0
 27 28  1  0  0  0  0
 27 50  1  0  0  0  0
 28 29  2  0  0  0  0
 29 30  1  0  0  0  0
 30 51  1  0  0  0  0
 30 52  1  0  0  0  0
M  END
>  <DRUGBANK_ID>
DB14867

>  <COMMON_NAME>
Parsaclisib

>  <CAS_NUMBER>
1426698-88-5

>  <UNII>
OS7097575K

>  <SYNONYMS>
INCB050465; Parsaclisib

$$$$
