AJB
 OpenBabel10282417072D

 37 39  0  0  0  0  0  0  0  0999 V2000
   -1.8701    0.0793    0.0000 C   0  0  0  0  0  0  0  0  0  0  0  0
   -0.2291   -0.0931    0.0000 C   0  0  0  0  0  0  0  0  0  0  0  0
    1.6382    3.1787    0.0000 C   0  0  0  0  0  0  0  0  0  0  0  0
   -1.2759   -3.4512    0.0000 C   0  0  0  0  0  0  0  0  0  0  0  0
    2.3056    2.6938    0.0000 C   0  0  0  0  0  0  0  0  0  0  0  0
   -1.3852    0.7468    0.0000 C   0  0  0  0  0  0  0  0  0  0  0  0
   -0.8634   -2.1817    0.0000 C   0  0  0  0  0  0  0  0  0  0  0  0
    3.0902    2.9487    0.0000 C   0  0  0  0  0  0  0  0  0  0  0  0
    0.1762   -3.2213    0.0000 C   0  0  0  0  0  0  0  0  0  0  0  0
   -1.5345   -0.6744    0.0000 C   0  0  0  0  0  0  0  0  0  0  0  0
   -0.7140   -0.7606    0.0000 C   0  0  0  0  0  0  0  0  0  0  0  0
   -0.5647    0.6605    0.0000 C   0  0  0  0  0  0  0  0  0  0  0  0
    1.2257    1.9092    0.0000 C   0  0  0  0  0  0  0  0  0  0  0  0
   -0.0798    1.3280    0.0000 C   0  0  0  0  0  0  0  0  0  0  0  0
   -1.7207    1.5004    0.0000 N   0  0  0  0  0  0  0  0  0  0  0  0
   -1.9433   -2.9663    0.0000 N   0  0  0  0  0  0  0  0  0  0  0  0
    2.0507    1.9092    0.0000 N   0  0  0  0  0  0  0  0  0  0  0  0
   -1.6884   -2.1817    0.0000 N   0  0  0  0  0  0  0  0  0  0  0  0
    0.7407    1.2417    0.0000 N   0  0  0  0  0  0  0  0  0  0  0  0
   -0.6085   -2.9663    0.0000 N   0  0  0  0  0  0  0  0  0  0  0  0
   -0.4153    2.0816    0.0000 O   0  0  0  0  0  0  0  0  0  0  0  0
    0.9707    2.6938    0.0000 S   0  0  0  0  0  0  0  0  0  0  0  0
   -0.3785   -1.5143    0.0000 S   0  0  0  0  0  0  0  0  0  0  0  0
   -2.8965    0.1871    0.0000 H   0  0  0  0  0  0  0  0  0  0  0  0
    0.7973   -0.2009    0.0000 H   0  0  0  0  0  0  0  0  0  0  0  0
    1.6382    4.2107    0.0000 H   0  0  0  0  0  0  0  0  0  0  0  0
   -1.2759   -4.4832    0.0000 H   0  0  0  0  0  0  0  0  0  0  0  0
    3.8853    2.2327    0.0000 H   0  0  0  0  0  0  0  0  0  0  0  0
    3.3127    3.9953    0.0000 H   0  0  0  0  0  0  0  0  0  0  0  0
    4.1078    3.2793    0.0000 H   0  0  0  0  0  0  0  0  0  0  0  0
    0.3986   -4.2679    0.0000 H   0  0  0  0  0  0  0  0  0  0  0  0
    0.9714   -2.5054    0.0000 H   0  0  0  0  0  0  0  0  0  0  0  0
    1.1938   -3.5520    0.0000 H   0  0  0  0  0  0  0  0  0  0  0  0
   -2.1411   -1.5093    0.0000 H   0  0  0  0  0  0  0  0  0  0  0  0
   -1.1420    2.2969    0.0000 H   0  0  0  0  0  0  0  0  0  0  0  0
   -2.6998    1.6033    0.0000 H   0  0  0  0  0  0  0  0  0  0  0  0
    1.1411    0.3423    0.0000 H   0  0  0  0  0  0  0  0  0  0  0  0
  1  6  2  0  0  0  0
  1 10  1  0  0  0  0
  1 24  1  0  0  0  0
  2 11  1  0  0  0  0
  2 12  2  0  0  0  0
  2 25  1  0  0  0  0
  3  5  2  0  0  0  0
  3 22  1  0  0  0  0
  3 26  1  0  0  0  0
  4 16  2  0  0  0  0
  4 20  1  0  0  0  0
  4 27  1  0  0  0  0
  5  8  1  0  0  0  0
  5 17  1  0  0  0  0
  6 12  1  0  0  0  0
  6 15  1  0  0  0  0
  7 18  2  0  0  0  0
  7 20  1  0  0  0  0
  7 23  1  0  0  0  0
  8 28  1  0  0  0  0
  8 29  1  0  0  0  0
  8 30  1  0  0  0  0
  9 20  1  0  0  0  0
  9 31  1  0  0  0  0
  9 32  1  0  0  0  0
  9 33  1  0  0  0  0
 10 11  2  0  0  0  0
 10 34  1  0  0  0  0
 11 23  1  0  0  0  0
 12 14  1  0  0  0  0
 13 17  2  0  0  0  0
 13 19  1  0  0  0  0
 13 22  1  0  0  0  0
 14 19  1  0  0  0  0
 14 21  2  0  0  0  0
 15 35  1  0  0  0  0
 15 36  1  0  0  0  0
 16 18  1  0  0  0  0
 19 37  1  0  0  0  0
M  END
>  <DRUGBANK_ID>
DB07358

>  <COMMON_NAME>
2-amino-N-(4-methyl-1,3-thiazol-2-yl)-5-[(4-methyl-4H-1,2,4-triazol-3-yl)sulfanyl]benzamide

$$$$
