
 OpenBabel10282417072D

120126  0  0  0  0  0  0  0  0999 V2000
   -0.6392    0.3073    0.0000 C   0  0  0  0  0  0  0  0  0  0  0  0
   -1.3538   -0.1049    0.0000 C   0  0  0  0  0  0  0  0  0  0  0  0
   -1.3538   -0.9294    0.0000 C   0  0  1  0  0  0  0  0  0  0  0  0
   -0.6392   -1.3417    0.0000 C   0  0  0  0  0  0  0  0  0  0  0  0
    0.0753   -0.9294    0.0000 C   0  0  2  0  0  0  0  0  0  0  0  0
    0.8357   -1.3417    0.0000 C   0  0  0  0  0  0  0  0  0  0  0  0
    1.5502   -0.9294    0.0000 C   0  0  0  0  0  0  0  0  0  0  0  0
    1.5502   -0.1049    0.0000 C   0  0  2  0  0  0  0  0  0  0  0  0
    0.8357    0.3073    0.0000 C   0  0  1  0  0  0  0  0  0  0  0  0
    0.0753   -0.1049    0.0000 C   0  0  1  0  0  0  0  0  0  0  0  0
    0.8357    1.1318    0.0000 C   0  0  0  0  0  0  0  0  0  0  0  0
    1.5502    1.5440    0.0000 C   0  0  0  0  0  0  0  0  0  0  0  0
    2.3106    1.1318    0.0000 C   0  0  0  0  0  0  0  0  0  0  0  0
    2.3106    0.3073    0.0000 C   0  0  1  0  0  0  0  0  0  0  0  0
    3.0252   -0.1049    0.0000 C   0  0  0  0  0  0  0  0  0  0  0  0
    3.7398    0.3073    0.0000 C   0  0  0  0  0  0  0  0  0  0  0  0
    3.7398    1.1318    0.0000 C   0  0  2  0  0  0  0  0  0  0  0  0
    3.0252    1.5440    0.0000 C   0  0  1  0  0  0  0  0  0  0  0  0
    3.0252    2.3685    0.0000 C   0  0  0  0  0  0  0  0  0  0  0  0
    3.7398    2.7807    0.0000 C   0  0  1  0  0  0  0  0  0  0  0  0
    4.5001    2.3685    0.0000 C   0  0  0  0  0  0  0  0  0  0  0  0
    4.5001    1.5440    0.0000 C   0  0  0  0  0  0  0  0  0  0  0  0
   -1.1614   -2.0288    0.0000 C   0  0  0  0  0  0  0  0  0  0  0  0
   -0.1811   -2.0196    0.0000 C   0  0  0  0  0  0  0  0  0  0  0  0
    0.0753    0.7195    0.0000 C   0  0  0  0  0  0  0  0  0  0  0  0
    1.5586    0.6737    0.0000 C   0  0  0  0  0  0  0  0  0  0  0  0
    2.3190   -0.5538    0.0000 C   0  0  0  0  0  0  0  0  0  0  0  0
    3.7489    1.9562    0.0000 C   0  0  0  0  0  0  0  0  0  0  0  0
    3.2542    3.4495    0.0000 C   0  0  0  0  0  0  0  0  0  0  0  0
    4.2253    3.4403    0.0000 C   0  0  0  0  0  0  0  0  0  0  0  0
    0.0753   -1.5982    0.0000 H   0  0  0  0  0  0  0  0  0  0  0  0
    0.8357   -0.3614    0.0000 H   0  0  0  0  0  0  0  0  0  0  0  0
    3.0252    0.8752    0.0000 H   0  0  0  0  0  0  0  0  0  0  0  0
    3.8399    4.2365    0.0000 O   0  0  0  0  0  0  0  0  0  0  0  0
    4.9497    3.5281    0.0000 O   0  0  0  0  0  0  0  0  0  0  0  0
    0.1248    1.5053    0.0000 O   0  0  0  0  0  0  0  0  0  0  0  0
   -2.0867   -1.3439    0.0000 O   0  0  0  0  0  0  0  0  0  0  0  0
   -2.8025   -1.7571    0.0000 C   0  0  2  0  0  0  0  0  0  0  0  0
   -3.5182   -1.3439    0.0000 C   0  0  1  0  0  0  0  0  0  0  0  0
   -2.8025   -2.5836    0.0000 O   0  0  0  0  0  0  0  0  0  0  0  0
   -4.2339   -1.7572    0.0000 C   0  0  2  0  0  0  0  0  0  0  0  0
   -3.5182   -2.9968    0.0000 C   0  0  1  0  0  0  0  0  0  0  0  0
   -4.2339   -2.5836    0.0000 C   0  0  1  0  0  0  0  0  0  0  0  0
   -3.5182   -0.5175    0.0000 O   0  0  0  0  0  0  0  0  0  0  0  0
   -4.9497   -1.3440    0.0000 O   0  0  0  0  0  0  0  0  0  0  0  0
   -4.9496   -2.9969    0.0000 O   0  0  0  0  0  0  0  0  0  0  0  0
   -3.5182   -3.8232    0.0000 C   0  0  0  0  0  0  0  0  0  0  0  0
   -4.2339   -4.2365    0.0000 O   0  0  0  0  0  0  0  0  0  0  0  0
   -3.5182    0.3089    0.0000 C   0  0  1  0  0  0  0  0  0  0  0  0
   -4.2340    0.7221    0.0000 C   0  0  1  0  0  0  0  0  0  0  0  0
   -2.8025    0.7222    0.0000 O   0  0  0  0  0  0  0  0  0  0  0  0
   -4.2340    1.5485    0.0000 C   0  0  2  0  0  0  0  0  0  0  0  0
   -2.8026    1.5486    0.0000 C   0  0  1  0  0  0  0  0  0  0  0  0
   -3.5183    1.9618    0.0000 C   0  0  1  0  0  0  0  0  0  0  0  0
   -4.9497    0.3089    0.0000 O   0  0  0  0  0  0  0  0  0  0  0  0
   -4.9497    1.9618    0.0000 O   0  0  0  0  0  0  0  0  0  0  0  0
   -3.5183    2.7882    0.0000 O   0  0  0  0  0  0  0  0  0  0  0  0
   -2.0869    1.9618    0.0000 C   0  0  0  0  0  0  0  0  0  0  0  0
   -2.0869    2.7883    0.0000 O   0  0  0  0  0  0  0  0  0  0  0  0
   -2.7987   -4.0804    0.0000 O   0  0  0  0  0  0  0  0  0  0  0  0
   -1.5030    1.4697    0.0000 O   0  0  0  0  0  0  0  0  0  0  0  0
   -0.6392    1.3773    0.0000 H   0  0  0  0  0  0  0  0  0  0  0  0
   -1.5657    0.8425    0.0000 H   0  0  0  0  0  0  0  0  0  0  0  0
   -2.2803    0.4303    0.0000 H   0  0  0  0  0  0  0  0  0  0  0  0
   -2.2805   -0.6398    0.0000 H   0  0  0  0  0  0  0  0  0  0  0  0
   -1.3584   -1.9994    0.0000 H   0  0  0  0  0  0  0  0  0  0  0  0
    0.8499   -2.4116    0.0000 H   0  0  0  0  0  0  0  0  0  0  0  0
    1.7658   -1.8706    0.0000 H   0  0  0  0  0  0  0  0  0  0  0  0
    2.4768   -1.4645    0.0000 H   0  0  0  0  0  0  0  0  0  0  0  0
    1.5500   -1.9994    0.0000 H   0  0  0  0  0  0  0  0  0  0  0  0
    1.5365    2.5759    0.0000 H   0  0  0  0  0  0  0  0  0  0  0  0
    3.0252   -1.1749    0.0000 H   0  0  0  0  0  0  0  0  0  0  0  0
    3.9517   -0.6401    0.0000 H   0  0  0  0  0  0  0  0  0  0  0  0
    4.6663   -0.2279    0.0000 H   0  0  0  0  0  0  0  0  0  0  0  0
    4.6665    0.8422    0.0000 H   0  0  0  0  0  0  0  0  0  0  0  0
    2.0987    2.9037    0.0000 H   0  0  0  0  0  0  0  0  0  0  0  0
    3.0255    3.4385    0.0000 H   0  0  0  0  0  0  0  0  0  0  0  0
    5.4195    2.9159    0.0000 H   0  0  0  0  0  0  0  0  0  0  0  0
    5.4303    1.8397    0.0000 H   0  0  0  0  0  0  0  0  0  0  0  0
    5.4195    0.9966    0.0000 H   0  0  0  0  0  0  0  0  0  0  0  0
    5.4303    2.0728    0.0000 H   0  0  0  0  0  0  0  0  0  0  0  0
   -2.2229   -1.8940    0.0000 H   0  0  0  0  0  0  0  0  0  0  0  0
   -0.7474   -3.0154    0.0000 H   0  0  0  0  0  0  0  0  0  0  0  0
   -1.8088   -2.8807    0.0000 H   0  0  0  0  0  0  0  0  0  0  0  0
   -0.6493   -2.9817    0.0000 H   0  0  0  0  0  0  0  0  0  0  0  0
    0.8862   -1.9440    0.0000 H   0  0  0  0  0  0  0  0  0  0  0  0
    0.4180   -2.9062    0.0000 H   0  0  0  0  0  0  0  0  0  0  0  0
    1.0019    1.2545    0.0000 H   0  0  0  0  0  0  0  0  0  0  0  0
   -0.8513    1.2545    0.0000 H   0  0  0  0  0  0  0  0  0  0  0  0
    0.0753    1.7895    0.0000 H   0  0  0  0  0  0  0  0  0  0  0  0
    2.4910    1.1987    0.0000 H   0  0  0  0  0  0  0  0  0  0  0  0
    0.6378    1.2187    0.0000 H   0  0  0  0  0  0  0  0  0  0  0  0
    1.5701    1.7436    0.0000 H   0  0  0  0  0  0  0  0  0  0  0  0
    1.3976   -1.0978    0.0000 H   0  0  0  0  0  0  0  0  0  0  0  0
    3.2508   -1.0797    0.0000 H   0  0  0  0  0  0  0  0  0  0  0  0
    2.3294   -1.6237    0.0000 H   0  0  0  0  0  0  0  0  0  0  0  0
    4.6814    2.4809    0.0000 H   0  0  0  0  0  0  0  0  0  0  0  0
    2.8282    2.5014    0.0000 H   0  0  0  0  0  0  0  0  0  0  0  0
    3.7607    3.0261    0.0000 H   0  0  0  0  0  0  0  0  0  0  0  0
    3.6897    4.4269    0.0000 H   0  0  0  0  0  0  0  0  0  0  0  0
    2.1900    3.3380    0.0000 H   0  0  0  0  0  0  0  0  0  0  0  0
    2.6255    4.3153    0.0000 H   0  0  0  0  0  0  0  0  0  0  0  0
    5.5124    2.7789    0.0000 H   0  0  0  0  0  0  0  0  0  0  0  0
   -2.8025   -0.6871    0.0000 H   0  0  0  0  0  0  0  0  0  0  0  0
   -2.5916   -0.8089    0.0000 H   0  0  0  0  0  0  0  0  0  0  0  0
   -4.2340   -0.6872    0.0000 H   0  0  0  0  0  0  0  0  0  0  0  0
   -2.5916   -3.5318    0.0000 H   0  0  0  0  0  0  0  0  0  0  0  0
   -5.1606   -2.0486    0.0000 H   0  0  0  0  0  0  0  0  0  0  0  0
   -4.9498   -0.3740    0.0000 H   0  0  0  0  0  0  0  0  0  0  0  0
   -5.7897   -2.5120    0.0000 H   0  0  0  0  0  0  0  0  0  0  0  0
   -5.0454   -3.7681    0.0000 H   0  0  0  0  0  0  0  0  0  0  0  0
   -4.4448   -0.2261    0.0000 H   0  0  0  0  0  0  0  0  0  0  0  0
   -4.2340   -0.3479    0.0000 H   0  0  0  0  0  0  0  0  0  0  0  0
   -5.1607    1.0135    0.0000 H   0  0  0  0  0  0  0  0  0  0  0  0
   -1.8759    1.0137    0.0000 H   0  0  0  0  0  0  0  0  0  0  0  0
   -4.4450    2.4968    0.0000 H   0  0  0  0  0  0  0  0  0  0  0  0
   -5.7897    0.7939    0.0000 H   0  0  0  0  0  0  0  0  0  0  0  0
   -4.9496    2.9318    0.0000 H   0  0  0  0  0  0  0  0  0  0  0  0
   -2.6783    3.2732    0.0000 H   0  0  0  0  0  0  0  0  0  0  0  0
   -1.2754    3.2568    0.0000 H   0  0  0  0  0  0  0  0  0  0  0  0
  1 10  1  0  0  0  0
  1 62  1  0  0  0  0
  1 63  1  0  0  0  0
  2  1  1  0  0  0  0
  2 64  1  0  0  0  0
  2 65  1  0  0  0  0
  3  4  1  0  0  0  0
  3  2  1  0  0  0  0
  3 37  1  0  0  0  0
  3 66  1  6  0  0  0
  4  5  1  0  0  0  0
  4 23  1  0  0  0  0
  4 24  1  0  0  0  0
  5 10  1  0  0  0  0
  5 31  1  6  0  0  0
  6  5  1  0  0  0  0
  6 67  1  0  0  0  0
  6 68  1  0  0  0  0
  7  8  1  0  0  0  0
  7  6  1  0  0  0  0
  7 69  1  0  0  0  0
  7 70  1  0  0  0  0
  8  9  1  0  0  0  0
  8 26  1  1  0  0  0
  9 10  1  0  0  0  0
  9 32  1  6  0  0  0
 10 25  1  1  0  0  0
 11  9  1  0  0  0  0
 12 11  1  0  0  0  0
 12 71  1  0  0  0  0
 13 12  2  0  0  0  0
 13 14  1  0  0  0  0
 14  8  1  0  0  0  0
 14 27  1  6  0  0  0
 15 14  1  0  0  0  0
 15 72  1  0  0  0  0
 15 73  1  0  0  0  0
 16 15  1  0  0  0  0
 16 74  1  0  0  0  0
 16 75  1  0  0  0  0
 17 16  1  0  0  0  0
 17 18  1  0  0  0  0
 17 28  1  1  0  0  0
 18 13  1  0  0  0  0
 18 33  1  1  0  0  0
 19 18  1  0  0  0  0
 19 76  1  0  0  0  0
 19 77  1  0  0  0  0
 20 19  1  0  0  0  0
 20 30  1  1  0  0  0
 20 29  1  0  0  0  0
 21 20  1  0  0  0  0
 21 22  1  0  0  0  0
 21 78  1  0  0  0  0
 21 79  1  0  0  0  0
 22 17  1  0  0  0  0
 22 80  1  0  0  0  0
 22 81  1  0  0  0  0
 23 82  1  0  0  0  0
 23 83  1  0  0  0  0
 23 84  1  0  0  0  0
 24 85  1  0  0  0  0
 24 86  1  0  0  0  0
 24 87  1  0  0  0  0
 25 88  1  0  0  0  0
 25 89  1  0  0  0  0
 25 90  1  0  0  0  0
 26 91  1  0  0  0  0
 26 92  1  0  0  0  0
 26 93  1  0  0  0  0
 27 94  1  0  0  0  0
 27 95  1  0  0  0  0
 27 96  1  0  0  0  0
 28 97  1  0  0  0  0
 28 98  1  0  0  0  0
 28 99  1  0  0  0  0
 29100  1  0  0  0  0
 29101  1  0  0  0  0
 29102  1  0  0  0  0
 34 30  2  0  0  0  0
 35 30  1  0  0  0  0
 35103  1  0  0  0  0
 36 11  2  0  0  0  0
 38 39  1  0  0  0  0
 38 40  1  0  0  0  0
 38 37  1  0  0  0  0
 38104  1  6  0  0  0
 39 41  1  0  0  0  0
 39 44  1  0  0  0  0
 39105  1  6  0  0  0
 40 42  1  0  0  0  0
 41 43  1  0  0  0  0
 41 45  1  0  0  0  0
 41106  1  1  0  0  0
 42 43  1  0  0  0  0
 42 47  1  0  0  0  0
 42107  1  1  0  0  0
 43 46  1  0  0  0  0
 43108  1  6  0  0  0
 45109  1  0  0  0  0
 46110  1  0  0  0  0
 48 47  1  0  0  0  0
 48111  1  0  0  0  0
 49 50  1  0  0  0  0
 49 51  1  0  0  0  0
 49 44  1  0  0  0  0
 49112  1  6  0  0  0
 50 52  1  0  0  0  0
 50 55  1  0  0  0  0
 50113  1  1  0  0  0
 51 53  1  0  0  0  0
 52 54  1  0  0  0  0
 52 56  1  0  0  0  0
 52114  1  6  0  0  0
 53 54  1  0  0  0  0
 53 58  1  0  0  0  0
 53115  1  6  0  0  0
 54 57  1  0  0  0  0
 54116  1  1  0  0  0
 55117  1  0  0  0  0
 56118  1  0  0  0  0
 57119  1  0  0  0  0
 59 58  1  0  0  0  0
 59120  1  0  0  0  0
 60 47  2  0  0  0  0
 61 58  2  0  0  0  0
M  END
>  <DRUGBANK_ID>
DB13751

>  <COMMON_NAME>
Glycyrrhizic acid

>  <CAS_NUMBER>
1405-86-3

>  <UNII>
6FO62043WK

>  <SYNONYMS>
18-beta-Glycyrrhizic acid; Glizigen; Glycyrrhizin

$$$$
