
 OpenBabel10282417072D

 24 23  0  0  0  0  0  0  0  0999 V2000
    0.7145    0.8250    0.0000 C   0  0  0  0  0  0  0  0  0  0  0  0
    0.0000    0.4125    0.0000 C   0  0  3  0  0  0  0  0  0  0  0  0
   -0.7145    0.8250    0.0000 C   0  0  3  0  0  0  0  0  0  0  0  0
   -1.4289    0.4125    0.0000 C   0  0  0  0  0  0  0  0  0  0  0  0
   -1.4289   -0.4125    0.0000 O   0  0  0  0  0  0  0  0  0  0  0  0
    0.0000   -0.4125    0.0000 O   0  0  0  0  0  0  0  0  0  0  0  0
    1.4289    0.4125    0.0000 O   0  0  0  0  0  0  0  0  0  0  0  0
    0.7145    1.6500    0.0000 O   0  0  0  0  0  0  0  0  0  0  0  0
   -2.1434    0.8250    0.0000 O   0  0  0  0  0  0  0  0  0  0  0  0
   -1.4289    2.0625    0.0000 C   0  0  0  0  0  0  0  0  0  0  0  0
   -0.7145    1.6500    0.0000 C   0  0  0  0  0  0  0  0  0  0  0  0
    0.0000    2.0625    0.0000 C   0  0  0  0  0  0  0  0  0  0  0  0
    0.0000    1.4825    0.0000 H   0  0  0  0  0  0  0  0  0  0  0  0
    0.2121    1.3600    0.0000 H   0  0  0  0  0  0  0  0  0  0  0  0
   -0.8400   -0.8975    0.0000 H   0  0  0  0  0  0  0  0  0  0  0  0
    1.4289   -0.5245    0.0000 H   0  0  0  0  0  0  0  0  0  0  0  0
   -2.1434    1.7620    0.0000 H   0  0  0  0  0  0  0  0  0  0  0  0
   -1.4289    3.1325    0.0000 H   0  0  0  0  0  0  0  0  0  0  0  0
   -2.3556    1.5275    0.0000 H   0  0  0  0  0  0  0  0  0  0  0  0
   -2.3555    2.5975    0.0000 H   0  0  0  0  0  0  0  0  0  0  0  0
   -0.7145    2.7200    0.0000 H   0  0  0  0  0  0  0  0  0  0  0  0
    0.9266    1.5275    0.0000 H   0  0  0  0  0  0  0  0  0  0  0  0
    0.0000    3.1325    0.0000 H   0  0  0  0  0  0  0  0  0  0  0  0
    0.9267    2.5975    0.0000 H   0  0  0  0  0  0  0  0  0  0  0  0
  2  1  1  0  0  0  0
  2  6  1  0  0  0  0
  2 13  1  0  0  0  0
  3  2  1  0  0  0  0
  3 11  1  0  0  0  0
  3 14  1  0  0  0  0
  4  3  1  0  0  0  0
  5  4  2  0  0  0  0
  6 15  1  0  0  0  0
  7  1  1  0  0  0  0
  7 16  1  0  0  0  0
  8  1  2  0  0  0  0
  9  4  1  0  0  0  0
  9 17  1  0  0  0  0
 10 18  1  0  0  0  0
 10 19  1  0  0  0  0
 10 20  1  0  0  0  0
 11 10  1  0  0  0  0
 11 21  1  0  0  0  0
 12 11  1  0  0  0  0
 12 22  1  0  0  0  0
 12 23  1  0  0  0  0
 12 24  1  0  0  0  0
M  END
>  <DRUGBANK_ID>
DB04279

>  <SECONDARY_ACCESSION_NUMBERS>
EXPT01919

>  <COMMON_NAME>
3-Isopropylmalic Acid

>  <UNII>
29405QVM5W

$$$$
