
 OpenBabel10282417072D

 76 81  0  0  1  0  0  0  0  0999 V2000
   -1.4289   -1.6500    0.0000 C   0  0  0  0  0  0  0  0  0  0  0  0
   -0.7145   -1.2375    0.0000 C   0  0  1  0  0  0  0  0  0  0  0  0
   -0.7145   -0.4125    0.0000 N   0  0  0  0  0  0  0  0  0  0  0  0
   -1.4289   -0.0000    0.0000 C   0  0  0  0  0  0  0  0  0  0  0  0
   -2.1434   -0.4125    0.0000 O   0  0  0  0  0  0  0  0  0  0  0  0
   -1.4289    0.8250    0.0000 C   0  0  0  0  0  0  0  0  0  0  0  0
   -0.6039    0.8250    0.0000 C   0  0  0  0  0  0  0  0  0  0  0  0
   -2.2539    0.8250    0.0000 F   0  0  0  0  0  0  0  0  0  0  0  0
   -1.4289    1.6500    0.0000 F   0  0  0  0  0  0  0  0  0  0  0  0
    0.0000   -1.6500    0.0000 C   0  0  1  0  0  0  0  0  0  0  0  0
    0.0000   -2.4750    0.0000 O   0  0  0  0  0  0  0  0  0  0  0  0
   -0.7145   -2.8875    0.0000 C   0  0  0  0  0  0  0  0  0  0  0  0
   -0.7145   -3.7125    0.0000 C   0  0  0  0  0  0  0  0  0  0  0  0
   -1.4289   -4.1250    0.0000 C   0  0  0  0  0  0  0  0  0  0  0  0
   -2.1434   -3.7125    0.0000 C   0  0  0  0  0  0  0  0  0  0  0  0
   -2.9280   -3.9674    0.0000 N   0  0  0  0  0  0  0  0  0  0  0  0
   -3.4130   -3.3000    0.0000 N   0  0  0  0  0  0  0  0  0  0  0  0
   -2.9280   -2.6326    0.0000 C   0  0  0  0  0  0  0  0  0  0  0  0
   -2.1434   -2.8875    0.0000 C   0  0  0  0  0  0  0  0  0  0  0  0
   -1.4289   -2.4750    0.0000 C   0  0  0  0  0  0  0  0  0  0  0  0
   -3.1830   -4.7521    0.0000 C   0  0  0  0  0  0  0  0  0  0  0  0
   -3.9899   -4.9236    0.0000 C   0  0  0  0  0  0  0  0  0  0  0  0
   -4.2449   -5.7082    0.0000 C   0  0  0  0  0  0  0  0  0  0  0  0
   -3.6929   -6.3213    0.0000 C   0  0  0  0  0  0  0  0  0  0  0  0
   -2.8859   -6.1498    0.0000 C   0  0  0  0  0  0  0  0  0  0  0  0
   -2.6309   -5.3652    0.0000 C   0  0  0  0  0  0  0  0  0  0  0  0
   -5.0519   -5.8797    0.0000 C   0  0  0  0  0  0  0  0  0  0  0  0
   -5.3068   -6.6644    0.0000 O   0  0  0  0  0  0  0  0  0  0  0  0
   -5.6039   -5.2666    0.0000 N   0  0  0  0  0  0  0  0  0  0  0  0
   -6.4109   -5.4382    0.0000 C   0  0  2  0  0  0  0  0  0  0  0  0
   -6.7464   -6.1918    0.0000 C   0  0  0  0  0  0  0  0  0  0  0  0
   -7.5669   -6.1056    0.0000 C   0  0  0  0  0  0  0  0  0  0  0  0
   -7.7384   -5.2986    0.0000 O   0  0  0  0  0  0  0  0  0  0  0  0
   -7.0240   -4.8861    0.0000 C   0  0  0  0  0  0  0  0  0  0  0  0
    0.7145   -1.2375    0.0000 C   0  0  0  0  0  0  0  0  0  0  0  0
    0.7145   -0.4125    0.0000 C   0  0  0  0  0  0  0  0  0  0  0  0
    1.4289    0.0000    0.0000 C   0  0  0  0  0  0  0  0  0  0  0  0
    2.1434   -0.4125    0.0000 C   0  0  0  0  0  0  0  0  0  0  0  0
    2.8579    0.0000    0.0000 O   0  0  0  0  0  0  0  0  0  0  0  0
    3.5724   -0.4125    0.0000 C   0  0  0  0  0  0  0  0  0  0  0  0
    3.5724   -1.2375    0.0000 C   0  0  0  0  0  0  0  0  0  0  0  0
    2.8579   -1.6500    0.0000 O   0  0  0  0  0  0  0  0  0  0  0  0
    2.1434   -1.2375    0.0000 C   0  0  0  0  0  0  0  0  0  0  0  0
    1.4289   -1.6500    0.0000 C   0  0  0  0  0  0  0  0  0  0  0  0
   -2.3556   -1.1150    0.0000 H   0  0  0  0  0  0  0  0  0  0  0  0
   -1.4289   -2.7200    0.0000 H   0  0  0  0  0  0  0  0  0  0  0  0
   -2.3555   -2.1850    0.0000 H   0  0  0  0  0  0  0  0  0  0  0  0
   -1.6412   -0.7025    0.0000 H   0  0  0  0  0  0  0  0  0  0  0  0
    0.1381    0.0797    0.0000 H   0  0  0  0  0  0  0  0  0  0  0  0
   -0.0689   -0.1016    0.0000 H   0  0  0  0  0  0  0  0  0  0  0  0
   -0.0689    1.7516    0.0000 H   0  0  0  0  0  0  0  0  0  0  0  0
    0.4661    0.8250    0.0000 H   0  0  0  0  0  0  0  0  0  0  0  0
   -0.9266   -2.1850    0.0000 H   0  0  0  0  0  0  0  0  0  0  0  0
    0.1792   -4.2285    0.0000 H   0  0  0  0  0  0  0  0  0  0  0  0
   -1.4289   -5.1570    0.0000 H   0  0  0  0  0  0  0  0  0  0  0  0
   -3.2469   -1.6511    0.0000 H   0  0  0  0  0  0  0  0  0  0  0  0
   -1.4289   -1.4430    0.0000 H   0  0  0  0  0  0  0  0  0  0  0  0
   -4.6804   -4.1566    0.0000 H   0  0  0  0  0  0  0  0  0  0  0  0
   -4.0118   -7.3028    0.0000 H   0  0  0  0  0  0  0  0  0  0  0  0
   -2.1954   -6.9168    0.0000 H   0  0  0  0  0  0  0  0  0  0  0  0
   -1.6214   -5.1506    0.0000 H   0  0  0  0  0  0  0  0  0  0  0  0
   -5.2997   -4.3303    0.0000 H   0  0  0  0  0  0  0  0  0  0  0  0
   -5.7375   -6.2697    0.0000 H   0  0  0  0  0  0  0  0  0  0  0  0
   -6.2114   -7.1184    0.0000 H   0  0  0  0  0  0  0  0  0  0  0  0
   -7.3291   -7.0892    0.0000 H   0  0  0  0  0  0  0  0  0  0  0  0
   -8.2829   -6.9008    0.0000 H   0  0  0  0  0  0  0  0  0  0  0  0
   -8.6004   -5.8286    0.0000 H   0  0  0  0  0  0  0  0  0  0  0  0
   -6.9121   -3.8220    0.0000 H   0  0  0  0  0  0  0  0  0  0  0  0
   -6.0251   -4.5027    0.0000 H   0  0  0  0  0  0  0  0  0  0  0  0
   -0.1792    0.1035    0.0000 H   0  0  0  0  0  0  0  0  0  0  0  0
    1.4289    1.0320    0.0000 H   0  0  0  0  0  0  0  0  0  0  0  0
    4.4990    0.1225    0.0000 H   0  0  0  0  0  0  0  0  0  0  0  0
    4.4990   -0.9475    0.0000 H   0  0  0  0  0  0  0  0  0  0  0  0
    4.4990   -1.7725    0.0000 H   0  0  0  0  0  0  0  0  0  0  0  0
    3.5724   -2.3075    0.0000 H   0  0  0  0  0  0  0  0  0  0  0  0
    1.4289   -2.6820    0.0000 H   0  0  0  0  0  0  0  0  0  0  0  0
  1 45  1  0  0  0  0
  1 46  1  0  0  0  0
  1 47  1  0  0  0  0
  2  1  1  0  0  0  0
  2  3  1  0  0  0  0
  2 10  1  0  0  0  0
  2 48  1  6  0  0  0
  3  4  1  0  0  0  0
  3 49  1  0  0  0  0
  4  5  2  0  0  0  0
  4  6  1  0  0  0  0
  6  7  1  0  0  0  0
  6  8  1  0  0  0  0
  6  9  1  0  0  0  0
  7 50  1  0  0  0  0
  7 51  1  0  0  0  0
  7 52  1  0  0  0  0
 10 11  1  0  0  0  0
 10 35  1  0  0  0  0
 10 53  1  1  0  0  0
 11 12  1  0  0  0  0
 12 13  2  0  0  0  0
 12 20  1  0  0  0  0
 13 14  1  0  0  0  0
 13 54  1  0  0  0  0
 14 15  2  0  0  0  0
 14 55  1  0  0  0  0
 15 16  1  0  0  0  0
 15 19  1  0  0  0  0
 16 17  1  0  0  0  0
 16 21  1  0  0  0  0
 17 18  2  0  0  0  0
 18 19  1  0  0  0  0
 18 56  1  0  0  0  0
 19 20  2  0  0  0  0
 20 57  1  0  0  0  0
 21 22  2  0  0  0  0
 21 26  1  0  0  0  0
 22 23  1  0  0  0  0
 22 58  1  0  0  0  0
 23 24  2  0  0  0  0
 23 27  1  0  0  0  0
 24 25  1  0  0  0  0
 24 59  1  0  0  0  0
 25 26  2  0  0  0  0
 25 60  1  0  0  0  0
 26 61  1  0  0  0  0
 27 28  2  0  0  0  0
 27 29  1  0  0  0  0
 29 62  1  0  0  0  0
 30 29  1  0  0  0  0
 30 31  1  0  0  0  0
 30 34  1  0  0  0  0
 30 63  1  1  0  0  0
 31 32  1  0  0  0  0
 31 64  1  0  0  0  0
 31 65  1  0  0  0  0
 32 33  1  0  0  0  0
 32 66  1  0  0  0  0
 32 67  1  0  0  0  0
 33 34  1  0  0  0  0
 34 68  1  0  0  0  0
 34 69  1  0  0  0  0
 35 36  2  0  0  0  0
 35 44  1  0  0  0  0
 36 37  1  0  0  0  0
 36 70  1  0  0  0  0
 37 38  2  0  0  0  0
 37 71  1  0  0  0  0
 38 39  1  0  0  0  0
 38 43  1  0  0  0  0
 39 40  1  0  0  0  0
 40 41  1  0  0  0  0
 40 72  1  0  0  0  0
 40 73  1  0  0  0  0
 41 42  1  0  0  0  0
 41 74  1  0  0  0  0
 41 75  1  0  0  0  0
 42 43  1  0  0  0  0
 43 44  2  0  0  0  0
 44 76  1  0  0  0  0
M  END
>  <DRUGBANK_ID>
DB16347

>  <COMMON_NAME>
Velsecorat

>  <CAS_NUMBER>
1196509-60-0

>  <UNII>
P30N0911C2

>  <SYNONYMS>
Velsecorat

$$$$
