FTS
 OpenBabel10282417072D

 38 39  0  0  0  0  0  0  0  0999 V2000
   -0.8048   -0.5308    0.0000 C   0  0  0  0  0  0  0  0  0  0  0  0
   -1.5193   -0.1183    0.0000 C   0  0  0  0  0  0  0  0  0  0  0  0
   -2.2338   -0.5308    0.0000 C   0  0  0  0  0  0  0  0  0  0  0  0
   -2.9482   -0.1183    0.0000 N   0  0  0  0  0  0  0  0  0  0  0  0
   -2.9482    0.7067    0.0000 C   0  0  1  0  0  0  0  0  0  0  0  0
   -3.6627    1.1192    0.0000 C   0  0  0  0  0  0  0  0  0  0  0  0
   -3.6627    1.9442    0.0000 F   0  0  0  0  0  0  0  0  0  0  0  0
   -2.2338    1.1192    0.0000 C   0  0  0  0  0  0  0  0  0  0  0  0
   -1.5193    0.7067    0.0000 C   0  0  0  0  0  0  0  0  0  0  0  0
   -0.8048    1.1192    0.0000 C   0  0  0  0  0  0  0  0  0  0  0  0
   -0.0904    0.7067    0.0000 C   0  0  0  0  0  0  0  0  0  0  0  0
   -0.0904   -0.1183    0.0000 C   0  0  0  0  0  0  0  0  0  0  0  0
    0.6241   -0.5308    0.0000 S   0  0  0  0  0  0  0  0  0  0  0  0
    0.2116   -1.2453    0.0000 O   0  0  0  0  0  0  0  0  0  0  0  0
    1.0366    0.1837    0.0000 O   0  0  0  0  0  0  0  0  0  0  0  0
    1.3386   -0.9433    0.0000 N   0  0  0  0  0  0  0  0  0  0  0  0
    2.0531   -0.5308    0.0000 C   0  0  0  0  0  0  0  0  0  0  0  0
    2.7675   -0.9433    0.0000 C   0  0  0  0  0  0  0  0  0  0  0  0
    3.4820   -0.5308    0.0000 C   0  0  0  0  0  0  0  0  0  0  0  0
    4.1965   -0.1183    0.0000 F   0  0  0  0  0  0  0  0  0  0  0  0
    3.8945   -1.2453    0.0000 F   0  0  0  0  0  0  0  0  0  0  0  0
    3.0695    0.1837    0.0000 F   0  0  0  0  0  0  0  0  0  0  0  0
   -3.4539    0.4147    0.0000 H   0  0  0  0  0  0  0  0  0  0  0  0
   -0.8048   -1.5628    0.0000 H   0  0  0  0  0  0  0  0  0  0  0  0
   -2.2338   -1.6008    0.0000 H   0  0  0  0  0  0  0  0  0  0  0  0
   -3.1605   -1.0658    0.0000 H   0  0  0  0  0  0  0  0  0  0  0  0
   -3.8316   -0.6283    0.0000 H   0  0  0  0  0  0  0  0  0  0  0  0
   -4.5893    0.5842    0.0000 H   0  0  0  0  0  0  0  0  0  0  0  0
   -4.5893    1.6542    0.0000 H   0  0  0  0  0  0  0  0  0  0  0  0
   -2.2338    2.1892    0.0000 H   0  0  0  0  0  0  0  0  0  0  0  0
   -1.3072    1.6542    0.0000 H   0  0  0  0  0  0  0  0  0  0  0  0
   -0.8048    2.1512    0.0000 H   0  0  0  0  0  0  0  0  0  0  0  0
    0.8033    1.2227    0.0000 H   0  0  0  0  0  0  0  0  0  0  0  0
    1.3386   -1.9633    0.0000 H   0  0  0  0  0  0  0  0  0  0  0  0
    2.0531    0.5392    0.0000 H   0  0  0  0  0  0  0  0  0  0  0  0
    2.9798    0.0042    0.0000 H   0  0  0  0  0  0  0  0  0  0  0  0
    2.7675   -2.0133    0.0000 H   0  0  0  0  0  0  0  0  0  0  0  0
    3.6941   -1.4783    0.0000 H   0  0  0  0  0  0  0  0  0  0  0  0
  1  2  2  0  0  0  0
  1 12  1  0  0  0  0
  1 24  1  0  0  0  0
  2  3  1  0  0  0  0
  2  9  1  0  0  0  0
  3  4  1  0  0  0  0
  3 25  1  0  0  0  0
  3 26  1  0  0  0  0
  4  5  1  0  0  0  0
  4 27  1  0  0  0  0
  5  6  1  0  0  0  0
  5  8  1  0  0  0  0
  5 23  1  6  0  0  0
  6  7  1  0  0  0  0
  6 28  1  0  0  0  0
  6 29  1  0  0  0  0
  8  9  1  0  0  0  0
  8 30  1  0  0  0  0
  8 31  1  0  0  0  0
  9 10  2  0  0  0  0
 10 11  1  0  0  0  0
 10 32  1  0  0  0  0
 11 12  2  0  0  0  0
 11 33  1  0  0  0  0
 12 13  1  0  0  0  0
 13 14  2  0  0  0  0
 13 15  2  0  0  0  0
 13 16  1  0  0  0  0
 16 17  1  0  0  0  0
 16 34  1  0  0  0  0
 17 18  1  0  0  0  0
 17 35  1  0  0  0  0
 17 36  1  0  0  0  0
 18 19  1  0  0  0  0
 18 37  1  0  0  0  0
 18 38  1  0  0  0  0
 19 20  1  0  0  0  0
 19 21  1  0  0  0  0
 19 22  1  0  0  0  0
M  END
>  <DRUGBANK_ID>
DB07798

>  <COMMON_NAME>
(3R)-3-(FLUOROMETHYL)-N-(3,3,3-TRIFLUOROPROPYL)-1,2,3,4-TETRAHYDROISOQUINOLINE-7-SULFONAMIDE

$$$$
