
 OpenBabel10282417072D

 36 38  0  0  1  0  0  0  0  0999 V2000
   -1.5269   -2.2058    0.0000 C   0  0  0  0  0  0  0  0  0  0  0  0
   -0.9966   -2.8377    0.0000 C   0  0  1  0  0  0  0  0  0  0  0  0
   -0.2822   -3.2502    0.0000 C   0  0  0  0  0  0  0  0  0  0  0  0
   -0.2822   -4.0752    0.0000 C   0  0  0  0  0  0  0  0  0  0  0  0
   -0.9966   -4.4877    0.0000 S   0  0  0  0  0  0  0  0  0  0  0  0
   -1.7111   -4.0752    0.0000 C   0  0  0  0  0  0  0  0  0  0  0  0
   -1.7111   -3.2502    0.0000 N   0  0  0  0  0  0  0  0  0  0  0  0
   -2.4256   -4.4877    0.0000 N   0  0  0  0  0  0  0  0  0  0  0  0
   -0.4663   -2.2058    0.0000 C   0  0  0  0  0  0  0  0  0  0  0  0
   -0.7485   -1.4305    0.0000 C   0  0  0  0  0  0  0  0  0  0  0  0
   -0.2182   -0.7985    0.0000 C   0  0  0  0  0  0  0  0  0  0  0  0
    0.5943   -0.9418    0.0000 C   0  0  0  0  0  0  0  0  0  0  0  0
    0.8764   -1.7170    0.0000 C   0  0  0  0  0  0  0  0  0  0  0  0
    0.3461   -2.3490    0.0000 C   0  0  0  0  0  0  0  0  0  0  0  0
    0.6283   -3.1243    0.0000 F   0  0  0  0  0  0  0  0  0  0  0  0
    1.1246   -0.3098    0.0000 F   0  0  0  0  0  0  0  0  0  0  0  0
   -0.5004   -0.0233    0.0000 C   0  0  0  0  0  0  0  0  0  0  0  0
   -1.3128    0.1200    0.0000 C   0  0  0  0  0  0  0  0  0  0  0  0
   -1.5950    0.8952    0.0000 N   0  0  0  0  0  0  0  0  0  0  0  0
   -1.0647    1.5272    0.0000 C   0  0  0  0  0  0  0  0  0  0  0  0
   -0.2522    1.3840    0.0000 N   0  0  0  0  0  0  0  0  0  0  0  0
    0.0299    0.6087    0.0000 C   0  0  0  0  0  0  0  0  0  0  0  0
   -1.1610   -1.2003    0.0000 H   0  0  0  0  0  0  0  0  0  0  0  0
   -2.5806   -2.3917    0.0000 H   0  0  0  0  0  0  0  0  0  0  0  0
   -2.2147   -1.3862    0.0000 H   0  0  0  0  0  0  0  0  0  0  0  0
    0.6445   -2.7152    0.0000 H   0  0  0  0  0  0  0  0  0  0  0  0
    0.6444   -3.7852    0.0000 H   0  0  0  0  0  0  0  0  0  0  0  0
    0.6445   -4.6102    0.0000 H   0  0  0  0  0  0  0  0  0  0  0  0
   -0.2822   -5.1452    0.0000 H   0  0  0  0  0  0  0  0  0  0  0  0
   -3.2782   -3.9954    0.0000 H   0  0  0  0  0  0  0  0  0  0  0  0
   -2.4256   -5.4722    0.0000 H   0  0  0  0  0  0  0  0  0  0  0  0
   -1.7648   -1.2513    0.0000 H   0  0  0  0  0  0  0  0  0  0  0  0
    1.8927   -1.8962    0.0000 H   0  0  0  0  0  0  0  0  0  0  0  0
   -1.9762   -0.6706    0.0000 H   0  0  0  0  0  0  0  0  0  0  0  0
   -1.4177    2.4969    0.0000 H   0  0  0  0  0  0  0  0  0  0  0  0
    1.0462    0.4295    0.0000 H   0  0  0  0  0  0  0  0  0  0  0  0
  1 23  1  0  0  0  0
  1 24  1  0  0  0  0
  1 25  1  0  0  0  0
  2  1  1  1  0  0  0
  2  3  1  0  0  0  0
  2  7  1  0  0  0  0
  2  9  1  0  0  0  0
  3  4  1  0  0  0  0
  3 26  1  0  0  0  0
  3 27  1  0  0  0  0
  4  5  1  0  0  0  0
  4 28  1  0  0  0  0
  4 29  1  0  0  0  0
  5  6  1  0  0  0  0
  6  7  2  0  0  0  0
  6  8  1  0  0  0  0
  8 30  1  0  0  0  0
  8 31  1  0  0  0  0
  9 10  2  0  0  0  0
  9 14  1  0  0  0  0
 10 11  1  0  0  0  0
 10 32  1  0  0  0  0
 11 12  2  0  0  0  0
 11 17  1  0  0  0  0
 12 13  1  0  0  0  0
 12 16  1  0  0  0  0
 13 14  2  0  0  0  0
 13 33  1  0  0  0  0
 14 15  1  0  0  0  0
 17 18  2  0  0  0  0
 17 22  1  0  0  0  0
 18 19  1  0  0  0  0
 18 34  1  0  0  0  0
 19 20  2  0  0  0  0
 20 21  1  0  0  0  0
 20 35  1  0  0  0  0
 21 22  2  0  0  0  0
 22 36  1  0  0  0  0
M  END
>  <DRUGBANK_ID>
DB13065

>  <COMMON_NAME>
LY-2811376

>  <CAS_NUMBER>
1194044-20-6

>  <UNII>
UR18YJ97SJ

$$$$
