
 OpenBabel10282417072D

 81 84  0  0  0  0  0  0  0  0999 V2000
    3.6567    0.1062    0.0000 C   0  0  0  0  0  0  0  0  0  0  0  0
    3.2442    0.8207    0.0000 C   0  0  0  0  0  0  0  0  0  0  0  0
    2.4192    0.8207    0.0000 C   0  0  0  0  0  0  0  0  0  0  0  0
    2.0067    0.1062    0.0000 C   0  0  0  0  0  0  0  0  0  0  0  0
    2.4192   -0.6082    0.0000 C   0  0  0  0  0  0  0  0  0  0  0  0
    3.2442   -0.6082    0.0000 C   0  0  0  0  0  0  0  0  0  0  0  0
    2.4192    2.2496    0.0000 C   0  0  0  0  0  0  0  0  0  0  0  0
    2.0067    2.9641    0.0000 C   0  0  0  0  0  0  0  0  0  0  0  0
    3.6567   -1.3227    0.0000 C   0  0  0  0  0  0  0  0  0  0  0  0
    3.2442   -2.0371    0.0000 C   0  0  1  0  0  0  0  0  0  0  0  0
    2.4192   -2.0371    0.0000 C   0  0  0  0  0  0  0  0  0  0  0  0
    2.0067   -2.7516    0.0000 N   0  0  0  0  0  0  0  0  0  0  0  0
    3.6567   -2.7516    0.0000 N   0  0  0  0  0  0  0  0  0  0  0  0
    4.4817   -2.7516    0.0000 C   0  0  0  0  0  0  0  0  0  0  0  0
    4.8942   -2.0371    0.0000 C   0  0  0  0  0  0  0  0  0  0  0  0
    4.8942   -3.4661    0.0000 O   0  0  0  0  0  0  0  0  0  0  0  0
    2.0067   -1.3227    0.0000 O   0  0  0  0  0  0  0  0  0  0  0  0
    1.1817   -2.7516    0.0000 C   0  0  1  0  0  0  0  0  0  0  0  0
    0.8237   -3.4949    0.0000 C   0  0  0  0  0  0  0  0  0  0  0  0
    0.0194   -3.6785    0.0000 C   0  0  0  0  0  0  0  0  0  0  0  0
   -0.6255   -3.1641    0.0000 C   0  0  0  0  0  0  0  0  0  0  0  0
   -0.6255   -2.3391    0.0000 C   0  0  0  0  0  0  0  0  0  0  0  0
    0.0194   -1.8247    0.0000 N   0  0  0  0  0  0  0  0  0  0  0  0
    0.8237   -2.0083    0.0000 C   0  0  0  0  0  0  0  0  0  0  0  0
   -0.1641   -1.0204    0.0000 C   0  0  0  0  0  0  0  0  0  0  0  0
   -0.9524   -0.7772    0.0000 C   0  0  0  0  0  0  0  0  0  0  0  0
    1.3381   -1.3633    0.0000 O   0  0  0  0  0  0  0  0  0  0  0  0
    2.0067    1.5351    0.0000 O   0  0  0  0  0  0  0  0  0  0  0  0
   -1.5572   -1.3384    0.0000 C   0  0  0  0  0  0  0  0  0  0  0  0
   -2.3455   -1.0952    0.0000 C   0  0  0  0  0  0  0  0  0  0  0  0
   -2.5291   -0.2909    0.0000 C   0  0  0  0  0  0  0  0  0  0  0  0
   -1.9243    0.2702    0.0000 C   0  0  0  0  0  0  0  0  0  0  0  0
   -1.1360    0.0270    0.0000 C   0  0  0  0  0  0  0  0  0  0  0  0
   -3.3175   -0.0477    0.0000 C   0  0  0  0  0  0  0  0  0  0  0  0
   -3.9222   -0.6089    0.0000 C   0  0  0  0  0  0  0  0  0  0  0  0
   -4.7106   -0.3657    0.0000 C   0  0  0  0  0  0  0  0  0  0  0  0
   -4.8942    0.4385    0.0000 C   0  0  0  0  0  0  0  0  0  0  0  0
   -4.2894    0.9997    0.0000 C   0  0  0  0  0  0  0  0  0  0  0  0
   -3.5010    0.7565    0.0000 C   0  0  0  0  0  0  0  0  0  0  0  0
    1.1817    0.1062    0.0000 P   0  0  0  0  0  0  0  0  0  0  0  0
    0.3567    0.1062    0.0000 O   0  0  0  0  0  0  0  0  0  0  0  0
    1.1817   -0.7187    0.0000 O   0  0  0  0  0  0  0  0  0  0  0  0
    1.1817    0.9312    0.0000 O   0  0  0  0  0  0  0  0  0  0  0  0
    2.4192    3.6785    0.0000 O   0  0  0  0  0  0  0  0  0  0  0  0
    1.1817    2.9641    0.0000 O   0  0  0  0  0  0  0  0  0  0  0  0
    4.6887    0.1062    0.0000 H   0  0  0  0  0  0  0  0  0  0  0  0
    3.7602    1.7144    0.0000 H   0  0  0  0  0  0  0  0  0  0  0  0
    1.9032   -1.5019    0.0000 H   0  0  0  0  0  0  0  0  0  0  0  0
    3.4892    2.2496    0.0000 H   0  0  0  0  0  0  0  0  0  0  0  0
    2.9542    1.3230    0.0000 H   0  0  0  0  0  0  0  0  0  0  0  0
    4.7267   -1.3227    0.0000 H   0  0  0  0  0  0  0  0  0  0  0  0
    4.1917   -2.2494    0.0000 H   0  0  0  0  0  0  0  0  0  0  0  0
    4.3142   -2.0371    0.0000 H   0  0  0  0  0  0  0  0  0  0  0  0
    2.4990   -3.6042    0.0000 H   0  0  0  0  0  0  0  0  0  0  0  0
    3.1644   -3.6042    0.0000 H   0  0  0  0  0  0  0  0  0  0  0  0
    5.9642   -2.0371    0.0000 H   0  0  0  0  0  0  0  0  0  0  0  0
    4.3592   -1.1105    0.0000 H   0  0  0  0  0  0  0  0  0  0  0  0
    5.4292   -1.1104    0.0000 H   0  0  0  0  0  0  0  0  0  0  0  0
    1.7510   -3.6576    0.0000 H   0  0  0  0  0  0  0  0  0  0  0  0
    1.4908   -4.3315    0.0000 H   0  0  0  0  0  0  0  0  0  0  0  0
    0.4703   -4.5049    0.0000 H   0  0  0  0  0  0  0  0  0  0  0  0
   -0.2187   -4.7217    0.0000 H   0  0  0  0  0  0  0  0  0  0  0  0
   -0.9906   -4.0318    0.0000 H   0  0  0  0  0  0  0  0  0  0  0  0
   -1.5896   -3.6283    0.0000 H   0  0  0  0  0  0  0  0  0  0  0  0
   -1.5315   -2.5948    0.0000 H   0  0  0  0  0  0  0  0  0  0  0  0
   -1.5896   -1.8749    0.0000 H   0  0  0  0  0  0  0  0  0  0  0  0
   -0.7454   -1.2758    0.0000 H   0  0  0  0  0  0  0  0  0  0  0  0
    0.6203   -0.2927    0.0000 H   0  0  0  0  0  0  0  0  0  0  0  0
   -0.4021    0.0228    0.0000 H   0  0  0  0  0  0  0  0  0  0  0  0
   -1.3276   -2.3445    0.0000 H   0  0  0  0  0  0  0  0  0  0  0  0
   -3.1020   -1.7971    0.0000 H   0  0  0  0  0  0  0  0  0  0  0  0
   -2.1539    1.2763    0.0000 H   0  0  0  0  0  0  0  0  0  0  0  0
   -0.3795    0.7289    0.0000 H   0  0  0  0  0  0  0  0  0  0  0  0
   -3.6925   -1.6150    0.0000 H   0  0  0  0  0  0  0  0  0  0  0  0
   -5.4671   -1.0677    0.0000 H   0  0  0  0  0  0  0  0  0  0  0  0
   -5.8804    0.7426    0.0000 H   0  0  0  0  0  0  0  0  0  0  0  0
   -4.5190    2.0058    0.0000 H   0  0  0  0  0  0  0  0  0  0  0  0
   -2.7445    1.4584    0.0000 H   0  0  0  0  0  0  0  0  0  0  0  0
   -0.1283    0.9462    0.0000 H   0  0  0  0  0  0  0  0  0  0  0  0
    2.0217    1.4162    0.0000 H   0  0  0  0  0  0  0  0  0  0  0  0
    3.3562    3.6785    0.0000 H   0  0  0  0  0  0  0  0  0  0  0  0
  1  2  1  0  0  0  0
  1  6  2  0  0  0  0
  1 46  1  0  0  0  0
  2  3  2  0  0  0  0
  2 47  1  0  0  0  0
  3  4  1  0  0  0  0
  3 28  1  0  0  0  0
  4  5  2  0  0  0  0
  4 40  1  0  0  0  0
  5  6  1  0  0  0  0
  5 48  1  0  0  0  0
  6  9  1  0  0  0  0
  7  8  1  0  0  0  0
  7 28  1  0  0  0  0
  7 49  1  0  0  0  0
  7 50  1  0  0  0  0
  8 44  1  0  0  0  0
  8 45  2  0  0  0  0
  9 51  1  0  0  0  0
  9 52  1  0  0  0  0
 10  9  1  0  0  0  0
 10 11  1  0  0  0  0
 10 13  1  0  0  0  0
 10 53  1  1  0  0  0
 11 12  1  0  0  0  0
 11 17  2  0  0  0  0
 12 54  1  0  0  0  0
 13 55  1  0  0  0  0
 14 13  1  0  0  0  0
 14 15  1  0  0  0  0
 14 16  2  0  0  0  0
 15 56  1  0  0  0  0
 15 57  1  0  0  0  0
 15 58  1  0  0  0  0
 18 12  1  0  0  0  0
 18 19  1  0  0  0  0
 18 24  1  0  0  0  0
 18 59  1  6  0  0  0
 19 20  1  0  0  0  0
 19 60  1  0  0  0  0
 19 61  1  0  0  0  0
 20 21  1  0  0  0  0
 20 62  1  0  0  0  0
 20 63  1  0  0  0  0
 21 22  1  0  0  0  0
 21 64  1  0  0  0  0
 21 65  1  0  0  0  0
 22 23  1  0  0  0  0
 22 66  1  0  0  0  0
 22 67  1  0  0  0  0
 24 23  1  0  0  0  0
 24 27  2  0  0  0  0
 25 23  1  0  0  0  0
 25 26  1  0  0  0  0
 25 68  1  0  0  0  0
 25 69  1  0  0  0  0
 26 29  1  0  0  0  0
 26 33  2  0  0  0  0
 29 30  2  0  0  0  0
 29 70  1  0  0  0  0
 30 31  1  0  0  0  0
 30 71  1  0  0  0  0
 31 32  2  0  0  0  0
 31 34  1  0  0  0  0
 32 33  1  0  0  0  0
 32 72  1  0  0  0  0
 33 73  1  0  0  0  0
 34 35  1  0  0  0  0
 34 39  2  0  0  0  0
 35 36  2  0  0  0  0
 35 74  1  0  0  0  0
 36 37  1  0  0  0  0
 36 75  1  0  0  0  0
 37 38  2  0  0  0  0
 37 76  1  0  0  0  0
 38 39  1  0  0  0  0
 38 77  1  0  0  0  0
 39 78  1  0  0  0  0
 41 40  1  0  0  0  0
 41 79  1  0  0  0  0
 42 40  2  0  0  0  0
 43 40  1  0  0  0  0
 43 80  1  0  0  0  0
 44 81  1  0  0  0  0
M  END
>  <DRUGBANK_ID>
DB01908

>  <SECONDARY_ACCESSION_NUMBERS>
EXPT00200

>  <COMMON_NAME>
RU85493

$$$$
