NCZ
 OpenBabel10282417072D

 42 44  0  0  0  0  0  0  0  0999 V2000
   -0.8834    0.5450    0.0000 C   0  0  0  0  0  0  0  0  0  0  0  0
   -0.1689    0.9575    0.0000 C   0  0  0  0  0  0  0  0  0  0  0  0
   -0.1689    1.7825    0.0000 C   0  0  0  0  0  0  0  0  0  0  0  0
    0.5455    2.1950    0.0000 C   0  0  0  0  0  0  0  0  0  0  0  0
    1.2600    1.7825    0.0000 C   0  0  0  0  0  0  0  0  0  0  0  0
    1.2600    0.9575    0.0000 C   0  0  0  0  0  0  0  0  0  0  0  0
    0.5455    0.5450    0.0000 C   0  0  0  0  0  0  0  0  0  0  0  0
    0.5455   -0.2800    0.0000 C   0  0  0  0  0  0  0  0  0  0  0  0
   -0.1689   -0.6925    0.0000 O   0  0  0  0  0  0  0  0  0  0  0  0
    1.2600   -0.6925    0.0000 O   0  0  0  0  0  0  0  0  0  0  0  0
    1.2600   -1.5175    0.0000 C   0  0  1  0  0  0  0  0  0  0  0  0
    1.9274   -2.0024    0.0000 C   0  0  1  0  0  0  0  0  0  0  0  0
    1.6725   -2.7870    0.0000 C   0  0  0  0  0  0  0  0  0  0  0  0
    0.8475   -2.7870    0.0000 C   0  0  0  0  0  0  0  0  0  0  0  0
    0.5926   -2.0024    0.0000 C   0  0  2  0  0  0  0  0  0  0  0  0
   -0.1921   -1.7475    0.0000 O   0  0  0  0  0  0  0  0  0  0  0  0
    2.7121   -1.7475    0.0000 O   0  0  0  0  0  0  0  0  0  0  0  0
    1.9745    0.5450    0.0000 O   0  0  0  0  0  0  0  0  0  0  0  0
   -0.8834    2.1950    0.0000 C   0  0  0  0  0  0  0  0  0  0  0  0
   -1.5979    1.7825    0.0000 C   0  0  0  0  0  0  0  0  0  0  0  0
   -1.5979    0.9575    0.0000 C   0  0  0  0  0  0  0  0  0  0  0  0
   -2.3123    0.5450    0.0000 O   0  0  0  0  0  0  0  0  0  0  0  0
   -2.3123   -0.2800    0.0000 C   0  0  0  0  0  0  0  0  0  0  0  0
   -0.8834    3.0200    0.0000 C   0  0  0  0  0  0  0  0  0  0  0  0
    1.7803   -1.2524    0.0000 H   0  0  0  0  0  0  0  0  0  0  0  0
    2.0188   -1.4257    0.0000 H   0  0  0  0  0  0  0  0  0  0  0  0
    0.5012   -1.4257    0.0000 H   0  0  0  0  0  0  0  0  0  0  0  0
   -0.8834   -0.4870    0.0000 H   0  0  0  0  0  0  0  0  0  0  0  0
    0.5455    3.2270    0.0000 H   0  0  0  0  0  0  0  0  0  0  0  0
    2.1537    2.2985    0.0000 H   0  0  0  0  0  0  0  0  0  0  0  0
    2.2791   -3.6219    0.0000 H   0  0  0  0  0  0  0  0  0  0  0  0
    0.2409   -3.6219    0.0000 H   0  0  0  0  0  0  0  0  0  0  0  0
   -0.3938   -0.7987    0.0000 H   0  0  0  0  0  0  0  0  0  0  0  0
    3.4329   -2.3966    0.0000 H   0  0  0  0  0  0  0  0  0  0  0  0
    1.9745   -0.3920    0.0000 H   0  0  0  0  0  0  0  0  0  0  0  0
   -2.4916    2.2985    0.0000 H   0  0  0  0  0  0  0  0  0  0  0  0
   -3.2389   -0.8150    0.0000 H   0  0  0  0  0  0  0  0  0  0  0  0
   -1.3857   -0.8150    0.0000 H   0  0  0  0  0  0  0  0  0  0  0  0
   -2.3123   -1.3500    0.0000 H   0  0  0  0  0  0  0  0  0  0  0  0
    0.0432    3.5550    0.0000 H   0  0  0  0  0  0  0  0  0  0  0  0
   -1.8100    3.5550    0.0000 H   0  0  0  0  0  0  0  0  0  0  0  0
   -0.8834    4.0900    0.0000 H   0  0  0  0  0  0  0  0  0  0  0  0
  1  2  2  0  0  0  0
  1 21  1  0  0  0  0
  1 28  1  0  0  0  0
  2  3  1  0  0  0  0
  2  7  1  0  0  0  0
  3  4  1  0  0  0  0
  3 19  2  0  0  0  0
  4  5  2  0  0  0  0
  4 29  1  0  0  0  0
  5  6  1  0  0  0  0
  5 30  1  0  0  0  0
  6  7  2  0  0  0  0
  6 18  1  0  0  0  0
  7  8  1  0  0  0  0
  8  9  2  0  0  0  0
  8 10  1  0  0  0  0
 11 10  1  0  0  0  0
 11 12  1  0  0  0  0
 11 15  1  0  0  0  0
 11 25  1  6  0  0  0
 12 13  1  0  0  0  0
 12 17  1  0  0  0  0
 12 26  1  1  0  0  0
 13 14  2  0  0  0  0
 13 31  1  0  0  0  0
 14 15  1  0  0  0  0
 14 32  1  0  0  0  0
 15 16  1  0  0  0  0
 15 27  1  1  0  0  0
 16 33  1  0  0  0  0
 17 34  1  0  0  0  0
 18 35  1  0  0  0  0
 19 20  1  0  0  0  0
 19 24  1  0  0  0  0
 20 21  2  0  0  0  0
 20 36  1  0  0  0  0
 21 22  1  0  0  0  0
 22 23  1  0  0  0  0
 23 37  1  0  0  0  0
 23 38  1  0  0  0  0
 23 39  1  0  0  0  0
 24 40  1  0  0  0  0
 24 41  1  0  0  0  0
 24 42  1  0  0  0  0
M  END
>  <DRUGBANK_ID>
DB08261

>  <COMMON_NAME>
2-hydroxy-7-methoxy-5-methyl-naphthalene-1-carboxylic acid meso-2,5-dihydroxy-cyclopent-3-enyl ester

$$$$
