
 OpenBabel10282417072D

 47 47  0  0  0  0  0  0  0  0999 V2000
   -0.7144   -2.0624    0.0000 C   0  0  0  0  0  0  0  0  0  0  0  0
   -1.4289   -2.4749    0.0000 O   0  0  0  0  0  0  0  0  0  0  0  0
    0.0000   -2.4749    0.0000 O   0  0  0  0  0  0  0  0  0  0  0  0
   -0.7144   -1.2374    0.0000 C   0  0  0  0  0  0  0  0  0  0  0  0
   -1.4289   -0.8249    0.0000 C   0  0  0  0  0  0  0  0  0  0  0  0
   -1.4289    0.0000    0.0000 C   0  0  1  0  0  0  0  0  0  0  0  0
   -0.7144    0.4125    0.0000 C   0  0  1  0  0  0  0  0  0  0  0  0
   -0.7144    1.2375    0.0000 N   0  0  0  0  0  0  0  0  0  0  0  0
   -1.4289    1.6500    0.0000 C   0  0  0  0  0  0  0  0  0  0  0  0
   -2.1434    1.2375    0.0000 O   0  0  0  0  0  0  0  0  0  0  0  0
   -1.4289    2.4750    0.0000 C   0  0  0  0  0  0  0  0  0  0  0  0
    0.0000    0.0000    0.0000 C   0  0  1  0  0  0  0  0  0  0  0  0
    0.0000   -0.8249    0.0000 O   0  0  0  0  0  0  0  0  0  0  0  0
    0.7144    0.4125    0.0000 C   0  0  0  0  0  0  0  0  0  0  0  0
    0.7144    1.2375    0.0000 O   0  0  0  0  0  0  0  0  0  0  0  0
    1.4289    0.0000    0.0000 N   0  0  0  0  0  0  0  0  0  0  0  0
    1.4289   -0.8249    0.0000 C   0  0  0  0  0  0  0  0  0  0  0  0
    2.1433    0.4125    0.0000 C   0  0  0  0  0  0  0  0  0  0  0  0
    2.8578    0.0000    0.0000 C   0  0  0  0  0  0  0  0  0  0  0  0
    3.5723    0.4125    0.0000 C   0  0  0  0  0  0  0  0  0  0  0  0
   -2.1434    0.4125    0.0000 N   0  0  0  0  0  0  0  0  0  0  0  0
   -2.8579    0.0000    0.0000 C   0  0  0  0  0  0  0  0  0  0  0  0
   -2.8579   -0.8249    0.0000 N   0  0  0  0  0  0  0  0  0  0  0  0
   -3.5723    0.4125    0.0000 N   0  0  0  0  0  0  0  0  0  0  0  0
   -0.0000   -3.4119    0.0000 H   0  0  0  0  0  0  0  0  0  0  0  0
   -2.3226   -1.3409    0.0000 H   0  0  0  0  0  0  0  0  0  0  0  0
   -2.3555   -0.5350    0.0000 H   0  0  0  0  0  0  0  0  0  0  0  0
   -1.6410    0.9475    0.0000 H   0  0  0  0  0  0  0  0  0  0  0  0
    0.1382    1.7298    0.0000 H   0  0  0  0  0  0  0  0  0  0  0  0
   -0.5023    3.0100    0.0000 H   0  0  0  0  0  0  0  0  0  0  0  0
   -2.3555    3.0100    0.0000 H   0  0  0  0  0  0  0  0  0  0  0  0
   -1.4289    3.5450    0.0000 H   0  0  0  0  0  0  0  0  0  0  0  0
    0.0000    1.0700    0.0000 H   0  0  0  0  0  0  0  0  0  0  0  0
    0.5023   -1.3599    0.0000 H   0  0  0  0  0  0  0  0  0  0  0  0
    2.3555   -1.3599    0.0000 H   0  0  0  0  0  0  0  0  0  0  0  0
    1.4289   -1.8949    0.0000 H   0  0  0  0  0  0  0  0  0  0  0  0
    2.1433    1.4825    0.0000 H   0  0  0  0  0  0  0  0  0  0  0  0
    3.0699    0.9475    0.0000 H   0  0  0  0  0  0  0  0  0  0  0  0
    2.8578   -1.0700    0.0000 H   0  0  0  0  0  0  0  0  0  0  0  0
    3.7844   -0.5350    0.0000 H   0  0  0  0  0  0  0  0  0  0  0  0
    4.4989   -0.1225    0.0000 H   0  0  0  0  0  0  0  0  0  0  0  0
    3.5723    1.4825    0.0000 H   0  0  0  0  0  0  0  0  0  0  0  0
    4.4990    0.9475    0.0000 H   0  0  0  0  0  0  0  0  0  0  0  0
   -2.1434    1.3970    0.0000 H   0  0  0  0  0  0  0  0  0  0  0  0
   -3.7105   -1.3172    0.0000 H   0  0  0  0  0  0  0  0  0  0  0  0
   -3.5723    1.3970    0.0000 H   0  0  0  0  0  0  0  0  0  0  0  0
   -4.4249   -0.0797    0.0000 H   0  0  0  0  0  0  0  0  0  0  0  0
  1  2  2  0  0  0  0
  1  3  1  0  0  0  0
  1  4  1  0  0  0  0
  3 25  1  0  0  0  0
  4  5  2  0  0  0  0
  4 13  1  0  0  0  0
  5  6  1  0  0  0  0
  5 26  1  0  0  0  0
  6  7  1  0  0  0  0
  6 21  1  0  0  0  0
  6 27  1  1  0  0  0
  7  8  1  0  0  0  0
  7 12  1  0  0  0  0
  7 28  1  6  0  0  0
  8 29  1  0  0  0  0
  9  8  1  0  0  0  0
  9 10  2  0  0  0  0
  9 11  1  0  0  0  0
 11 30  1  0  0  0  0
 11 31  1  0  0  0  0
 11 32  1  0  0  0  0
 12 13  1  0  0  0  0
 12 14  1  0  0  0  0
 12 33  1  1  0  0  0
 14 15  2  0  0  0  0
 14 16  1  0  0  0  0
 17 16  1  0  0  0  0
 17 34  1  0  0  0  0
 17 35  1  0  0  0  0
 17 36  1  0  0  0  0
 18 16  1  0  0  0  0
 18 19  1  0  0  0  0
 18 37  1  0  0  0  0
 18 38  1  0  0  0  0
 19 20  1  0  0  0  0
 19 39  1  0  0  0  0
 19 40  1  0  0  0  0
 20 41  1  0  0  0  0
 20 42  1  0  0  0  0
 20 43  1  0  0  0  0
 21 44  1  0  0  0  0
 22 21  1  0  0  0  0
 22 23  2  0  0  0  0
 22 24  1  0  0  0  0
 23 45  1  0  0  0  0
 24 46  1  0  0  0  0
 24 47  1  0  0  0  0
M  END
>  <DRUGBANK_ID>
DB03503

>  <SECONDARY_ACCESSION_NUMBERS>
EXPT01521

>  <COMMON_NAME>
4-Acetyl-4-guanidino-6-methyl(propyl)carboxamide-4,5-dihydro-2H-pyran-2-carboxylic acid

$$$$
