
 OpenBabel10282417072D

 37 39  0  0  0  0  0  0  0  0999 V2000
   -0.0085    0.4213    0.0000 C   0  0  3  0  0  0  0  0  0  0  0  0
   -0.7180    0.8298    0.0000 C   0  0  0  0  0  0  0  0  0  0  0  0
   -0.7180    1.6553    0.0000 C   0  0  0  0  0  0  0  0  0  0  0  0
    0.7094    0.8298    0.0000 C   0  0  0  0  0  0  0  0  0  0  0  0
   -0.0085    2.0638    0.0000 C   0  0  0  0  0  0  0  0  0  0  0  0
   -0.0085   -0.4128    0.0000 C   0  0  0  0  0  0  0  0  0  0  0  0
    0.7094    1.6424    0.0000 C   0  0  3  0  0  0  0  0  0  0  0  0
    1.4489    2.0381    0.0000 N   0  0  0  0  0  0  0  0  0  0  0  0
   -1.4318    0.4213    0.0000 C   0  0  0  0  0  0  0  0  0  0  0  0
   -1.4318    2.0638    0.0000 C   0  0  0  0  0  0  0  0  0  0  0  0
   -0.7266   -0.8298    0.0000 C   0  0  0  0  0  0  0  0  0  0  0  0
    0.6922   -0.8255    0.0000 C   0  0  0  0  0  0  0  0  0  0  0  0
    2.1498    1.6037    0.0000 C   0  0  0  0  0  0  0  0  0  0  0  0
   -2.1498    0.8298    0.0000 C   0  0  0  0  0  0  0  0  0  0  0  0
   -2.1498    1.6424    0.0000 C   0  0  0  0  0  0  0  0  0  0  0  0
   -0.7266   -1.6510    0.0000 C   0  0  0  0  0  0  0  0  0  0  0  0
    0.6922   -1.6510    0.0000 C   0  0  0  0  0  0  0  0  0  0  0  0
   -0.0085   -2.0638    0.0000 C   0  0  0  0  0  0  0  0  0  0  0  0
   -0.0058    1.4913    0.0000 H   0  0  0  0  0  0  0  0  0  0  0  0
    1.6344    0.2919    0.0000 H   0  0  0  0  0  0  0  0  0  0  0  0
    1.6369    1.3633    0.0000 H   0  0  0  0  0  0  0  0  0  0  0  0
   -0.0040    3.1338    0.0000 H   0  0  0  0  0  0  0  0  0  0  0  0
    0.9212    2.5935    0.0000 H   0  0  0  0  0  0  0  0  0  0  0  0
   -0.2192    1.1107    0.0000 H   0  0  0  0  0  0  0  0  0  0  0  0
    1.4813    3.0576    0.0000 H   0  0  0  0  0  0  0  0  0  0  0  0
   -1.4305   -0.6107    0.0000 H   0  0  0  0  0  0  0  0  0  0  0  0
   -1.4374    3.0958    0.0000 H   0  0  0  0  0  0  0  0  0  0  0  0
   -1.6210   -0.3149    0.0000 H   0  0  0  0  0  0  0  0  0  0  0  0
    1.5882   -0.3134    0.0000 H   0  0  0  0  0  0  0  0  0  0  0  0
    2.1164    0.5342    0.0000 H   0  0  0  0  0  0  0  0  0  0  0  0
    3.0927    2.1095    0.0000 H   0  0  0  0  0  0  0  0  0  0  0  0
    3.0593    1.0400    0.0000 H   0  0  0  0  0  0  0  0  0  0  0  0
   -3.0419    0.3110    0.0000 H   0  0  0  0  0  0  0  0  0  0  0  0
   -3.0454    2.1552    0.0000 H   0  0  0  0  0  0  0  0  0  0  0  0
   -1.6199   -2.1678    0.0000 H   0  0  0  0  0  0  0  0  0  0  0  0
    1.5882   -2.1631    0.0000 H   0  0  0  0  0  0  0  0  0  0  0  0
   -0.0030   -3.0958    0.0000 H   0  0  0  0  0  0  0  0  0  0  0  0
  1  2  1  0  0  0  0
  1  4  1  0  0  0  0
  1  6  1  0  0  0  0
  1 19  1  0  0  0  0
  2  3  1  0  0  0  0
  2  9  2  0  0  0  0
  3 10  2  0  0  0  0
  3  5  1  0  0  0  0
  4  7  1  0  0  0  0
  4 20  1  0  0  0  0
  4 21  1  0  0  0  0
  5  7  1  0  0  0  0
  5 22  1  0  0  0  0
  5 23  1  0  0  0  0
  6 11  2  0  0  0  0
  6 12  1  0  0  0  0
  7  8  1  0  0  0  0
  7 24  1  0  0  0  0
  8 13  1  0  0  0  0
  8 25  1  0  0  0  0
  9 14  1  0  0  0  0
  9 26  1  0  0  0  0
 10 15  1  0  0  0  0
 10 27  1  0  0  0  0
 11 16  1  0  0  0  0
 11 28  1  0  0  0  0
 12 17  2  0  0  0  0
 12 29  1  0  0  0  0
 13 30  1  0  0  0  0
 13 31  1  0  0  0  0
 13 32  1  0  0  0  0
 14 15  2  0  0  0  0
 14 33  1  0  0  0  0
 15 34  1  0  0  0  0
 16 18  2  0  0  0  0
 16 35  1  0  0  0  0
 17 18  1  0  0  0  0
 17 36  1  0  0  0  0
 18 37  1  0  0  0  0
M  END
>  <DRUGBANK_ID>
DB09193

>  <COMMON_NAME>
CP-39,332

>  <CAS_NUMBER>
61764-60-1

>  <UNII>
R0YEK8P3H4

$$$$
