SBN
 OpenBabel10282417072D

 34 35  0  0  0  0  0  0  0  0999 V2000
   -0.0765    2.5350    0.0000 C   0  0  0  0  0  0  0  0  0  0  0  0
    0.6380    2.1225    0.0000 C   0  0  0  0  0  0  0  0  0  0  0  0
    0.6380    1.2975    0.0000 C   0  0  0  0  0  0  0  0  0  0  0  0
   -0.0765    0.8850    0.0000 C   0  0  0  0  0  0  0  0  0  0  0  0
   -0.7910    1.2975    0.0000 C   0  0  0  0  0  0  0  0  0  0  0  0
   -0.7910    2.1225    0.0000 C   0  0  0  0  0  0  0  0  0  0  0  0
   -0.0765    0.0600    0.0000 S   0  0  0  0  0  0  0  0  0  0  0  0
   -0.9015    0.0600    0.0000 O   0  0  0  0  0  0  0  0  0  0  0  0
    0.7485    0.0600    0.0000 O   0  0  0  0  0  0  0  0  0  0  0  0
   -0.0765   -0.7650    0.0000 C   0  0  0  0  0  0  0  0  0  0  0  0
    0.6380   -1.1775    0.0000 C   0  0  0  0  0  0  0  0  0  0  0  0
    0.6380   -2.0025    0.0000 C   0  0  0  0  0  0  0  0  0  0  0  0
   -0.0765   -2.4150    0.0000 C   0  0  0  0  0  0  0  0  0  0  0  0
   -0.7910   -2.0025    0.0000 C   0  0  0  0  0  0  0  0  0  0  0  0
   -0.7910   -1.1775    0.0000 C   0  0  0  0  0  0  0  0  0  0  0  0
    2.0669    0.4725    0.0000 N   0  0  0  0  0  0  0  0  0  0  0  0
    1.3524    0.8850    0.0000 C   0  0  0  0  0  0  0  0  0  0  0  0
    1.3524    2.5350    0.0000 N   0  0  0  0  0  0  0  0  0  0  0  0
    1.3524   -2.4150    0.0000 C   0  0  0  0  0  0  0  0  0  0  0  0
   -1.5055   -2.4150    0.0000 C   0  0  0  0  0  0  0  0  0  0  0  0
   -0.0765    3.5670    0.0000 H   0  0  0  0  0  0  0  0  0  0  0  0
   -1.6847    0.7815    0.0000 H   0  0  0  0  0  0  0  0  0  0  0  0
   -1.6847    2.6385    0.0000 H   0  0  0  0  0  0  0  0  0  0  0  0
    1.5317   -0.6615    0.0000 H   0  0  0  0  0  0  0  0  0  0  0  0
   -0.0765   -3.4470    0.0000 H   0  0  0  0  0  0  0  0  0  0  0  0
   -1.6847   -0.6615    0.0000 H   0  0  0  0  0  0  0  0  0  0  0  0
    2.2050    2.0428    0.0000 H   0  0  0  0  0  0  0  0  0  0  0  0
    1.3524    3.5195    0.0000 H   0  0  0  0  0  0  0  0  0  0  0  0
    1.3524   -3.4850    0.0000 H   0  0  0  0  0  0  0  0  0  0  0  0
    2.2791   -1.8800    0.0000 H   0  0  0  0  0  0  0  0  0  0  0  0
    2.2790   -2.9500    0.0000 H   0  0  0  0  0  0  0  0  0  0  0  0
   -2.4321   -1.8800    0.0000 H   0  0  0  0  0  0  0  0  0  0  0  0
   -1.5055   -3.4850    0.0000 H   0  0  0  0  0  0  0  0  0  0  0  0
   -2.4322   -2.9500    0.0000 H   0  0  0  0  0  0  0  0  0  0  0  0
  1  2  2  0  0  0  0
  1  6  1  0  0  0  0
  1 21  1  0  0  0  0
  2  3  1  0  0  0  0
  2 18  1  0  0  0  0
  3  4  2  0  0  0  0
  3 17  1  0  0  0  0
  4  5  1  0  0  0  0
  4  7  1  0  0  0  0
  5  6  2  0  0  0  0
  5 22  1  0  0  0  0
  6 23  1  0  0  0  0
  7  8  2  0  0  0  0
  7  9  2  0  0  0  0
  7 10  1  0  0  0  0
 10 11  2  0  0  0  0
 10 15  1  0  0  0  0
 11 12  1  0  0  0  0
 11 24  1  0  0  0  0
 12 13  2  0  0  0  0
 12 19  1  0  0  0  0
 13 14  1  0  0  0  0
 13 25  1  0  0  0  0
 14 15  2  0  0  0  0
 14 20  1  0  0  0  0
 15 26  1  0  0  0  0
 16 17  3  0  0  0  0
 18 27  1  0  0  0  0
 18 28  1  0  0  0  0
 19 29  1  0  0  0  0
 19 30  1  0  0  0  0
 19 31  1  0  0  0  0
 20 32  1  0  0  0  0
 20 33  1  0  0  0  0
 20 34  1  0  0  0  0
M  END
>  <DRUGBANK_ID>
DB08528

>  <COMMON_NAME>
2-AMINO-6-(3,5-DIMETHYLPHENYL)SULFONYLBENZONITRILE

$$$$
