
 OpenBabel10282417072D

 47 49  0  0  0  0  0  0  0  0999 V2000
    2.4482   -4.7933    0.0000 C   0  0  0  0  0  0  0  0  0  0  0  0
    1.7337   -4.3808    0.0000 C   0  0  0  0  0  0  0  0  0  0  0  0
    1.7337   -3.5558    0.0000 N   0  0  0  0  0  0  0  0  0  0  0  0
    1.0193   -3.1433    0.0000 C   0  0  0  0  0  0  0  0  0  0  0  0
    0.3048   -3.5558    0.0000 O   0  0  0  0  0  0  0  0  0  0  0  0
    1.0193   -2.3183    0.0000 C   0  0  1  0  0  0  0  0  0  0  0  0
    0.4359   -1.7349    0.0000 C   0  0  0  0  0  0  0  0  0  0  0  0
    1.0193   -1.1515    0.0000 C   0  0  1  0  0  0  0  0  0  0  0  0
    1.6026   -1.7349    0.0000 C   0  0  0  0  0  0  0  0  0  0  0  0
    0.5882   -0.4481    0.0000 F   0  0  0  0  0  0  0  0  0  0  0  0
    1.4503   -0.4481    0.0000 C   0  0  0  0  0  0  0  0  0  0  0  0
    1.0567    0.2769    0.0000 C   0  0  0  0  0  0  0  0  0  0  0  0
    1.4877    0.9803    0.0000 C   0  0  0  0  0  0  0  0  0  0  0  0
    2.3125    0.9587    0.0000 C   0  0  0  0  0  0  0  0  0  0  0  0
    2.7061    0.2337    0.0000 C   0  0  0  0  0  0  0  0  0  0  0  0
    2.2751   -0.4697    0.0000 C   0  0  0  0  0  0  0  0  0  0  0  0
    2.7435    1.6622    0.0000 C   0  0  0  0  0  0  0  0  0  0  0  0
    3.5682    1.6406    0.0000 N   0  0  0  0  0  0  0  0  0  0  0  0
    4.0705    2.2951    0.0000 C   0  0  0  0  0  0  0  0  0  0  0  0
    4.8481    2.0197    0.0000 C   0  0  0  0  0  0  0  0  0  0  0  0
    4.8266    1.1950    0.0000 C   0  0  0  0  0  0  0  0  0  0  0  0
    4.0355    0.9607    0.0000 C   0  0  0  0  0  0  0  0  0  0  0  0
    1.0941    1.7054    0.0000 F   0  0  0  0  0  0  0  0  0  0  0  0
    2.4482   -5.8633    0.0000 H   0  0  0  0  0  0  0  0  0  0  0  0
    3.3748   -4.2583    0.0000 H   0  0  0  0  0  0  0  0  0  0  0  0
    3.3749   -5.3283    0.0000 H   0  0  0  0  0  0  0  0  0  0  0  0
    0.8071   -4.9158    0.0000 H   0  0  0  0  0  0  0  0  0  0  0  0
    0.8071   -3.8458    0.0000 H   0  0  0  0  0  0  0  0  0  0  0  0
    2.5863   -3.0636    0.0000 H   0  0  0  0  0  0  0  0  0  0  0  0
    0.0307   -2.7278    0.0000 H   0  0  0  0  0  0  0  0  0  0  0  0
   -0.6341   -1.7349    0.0000 H   0  0  0  0  0  0  0  0  0  0  0  0
    0.0264   -0.7463    0.0000 H   0  0  0  0  0  0  0  0  0  0  0  0
    2.6726   -1.7349    0.0000 H   0  0  0  0  0  0  0  0  0  0  0  0
    2.0121   -2.7234    0.0000 H   0  0  0  0  0  0  0  0  0  0  0  0
    0.0251    0.3039    0.0000 H   0  0  0  0  0  0  0  0  0  0  0  0
    3.7377    0.2067    0.0000 H   0  0  0  0  0  0  0  0  0  0  0  0
    2.7675   -1.3766    0.0000 H   0  0  0  0  0  0  0  0  0  0  0  0
    2.2329    2.6025    0.0000 H   0  0  0  0  0  0  0  0  0  0  0  0
    3.3026    2.5745    0.0000 H   0  0  0  0  0  0  0  0  0  0  0  0
    3.7667    3.3211    0.0000 H   0  0  0  0  0  0  0  0  0  0  0  0
    4.8467    3.0316    0.0000 H   0  0  0  0  0  0  0  0  0  0  0  0
    5.7299    2.6258    0.0000 H   0  0  0  0  0  0  0  0  0  0  0  0
    5.7885    1.5092    0.0000 H   0  0  0  0  0  0  0  0  0  0  0  0
    5.6755    0.5437    0.0000 H   0  0  0  0  0  0  0  0  0  0  0  0
    4.6316    0.1429    0.0000 H   0  0  0  0  0  0  0  0  0  0  0  0
    3.6783   -0.0479    0.0000 H   0  0  0  0  0  0  0  0  0  0  0  0
    2.9747    0.8210    0.0000 H   0  0  0  0  0  0  0  0  0  0  0  0
  1  2  1  0  0  0  0
  1 24  1  0  0  0  0
  1 25  1  0  0  0  0
  1 26  1  0  0  0  0
  2  3  1  0  0  0  0
  2 27  1  0  0  0  0
  2 28  1  0  0  0  0
  3  4  1  0  0  0  0
  3 29  1  0  0  0  0
  4  5  2  0  0  0  0
  6  4  1  0  0  0  0
  6  7  1  0  0  0  0
  6  9  1  0  0  0  0
  6 30  1  6  0  0  0
  7  8  1  0  0  0  0
  7 31  1  0  0  0  0
  7 32  1  0  0  0  0
  8  9  1  0  0  0  0
  8 10  1  6  0  0  0
  8 11  1  0  0  0  0
  9 33  1  0  0  0  0
  9 34  1  0  0  0  0
 11 12  2  0  0  0  0
 11 16  1  0  0  0  0
 12 13  1  0  0  0  0
 12 35  1  0  0  0  0
 13 14  2  0  0  0  0
 13 23  1  0  0  0  0
 14 15  1  0  0  0  0
 14 17  1  0  0  0  0
 15 16  2  0  0  0  0
 15 36  1  0  0  0  0
 16 37  1  0  0  0  0
 17 18  1  0  0  0  0
 17 38  1  0  0  0  0
 17 39  1  0  0  0  0
 18 19  1  0  0  0  0
 18 22  1  0  0  0  0
 19 20  1  0  0  0  0
 19 40  1  0  0  0  0
 19 41  1  0  0  0  0
 20 21  1  0  0  0  0
 20 42  1  0  0  0  0
 20 43  1  0  0  0  0
 21 22  1  0  0  0  0
 21 44  1  0  0  0  0
 21 45  1  0  0  0  0
 22 46  1  0  0  0  0
 22 47  1  0  0  0  0
M  END
>  <DRUGBANK_ID>
DB12201

>  <COMMON_NAME>
PF-03654746

>  <CAS_NUMBER>
935840-31-6

>  <UNII>
G3QE979K1X

$$$$
