
 OpenBabel10282417072D

 85 91  0  0  0  0  0  0  0  0999 V2000
    1.9891    2.7088    0.0000 O   0  0  0  0  0  0  0  0  0  0  0  0
    1.1641    2.7088    0.0000 C   0  0  2  0  0  0  0  0  0  0  0  0
    0.3410    2.7068    0.0000 N   0  0  0  0  0  0  0  0  0  0  0  0
    0.3410    1.2795    0.0000 C   0  0  0  0  0  0  0  0  0  0  0  0
    1.1641    1.2816    0.0000 C   0  0  1  0  0  0  0  0  0  0  0  0
    1.5756    1.9941    0.0000 O   0  0  0  0  0  0  0  0  0  0  0  0
    1.1641    0.1208    0.0000 N   0  0  0  0  0  0  0  0  0  0  0  0
    0.4495   -0.2927    0.0000 C   0  0  0  0  0  0  0  0  0  0  0  0
   -0.2650    0.1208    0.0000 O   0  0  0  0  0  0  0  0  0  0  0  0
    0.4495   -1.1178    0.0000 C   0  0  2  0  0  0  0  0  0  0  0  0
   -0.2629   -1.5335    0.0000 C   0  0  0  0  0  0  0  0  0  0  0  0
   -0.2629   -2.3648    0.0000 C   0  0  2  0  0  0  0  0  0  0  0  0
   -0.9756   -2.7804    0.0000 C   0  0  0  0  0  0  0  0  0  0  0  0
   -0.9756   -3.6118    0.0000 C   0  0  0  0  0  0  0  0  0  0  0  0
   -0.2629   -4.0274    0.0000 C   0  0  0  0  0  0  0  0  0  0  0  0
    0.4495   -3.6118    0.0000 C   0  0  0  0  0  0  0  0  0  0  0  0
    0.4495   -2.7804    0.0000 C   0  0  1  0  0  0  0  0  0  0  0  0
    1.1620   -2.3648    0.0000 N   0  0  0  0  0  0  0  0  0  0  0  0
    1.1620   -1.5335    0.0000 C   0  0  0  0  0  0  0  0  0  0  0  0
    1.8764   -2.7784    0.0000 C   0  0  0  0  0  0  0  0  0  0  0  0
    0.4495   -1.9553    0.0000 H   0  0  0  0  0  0  0  0  0  0  0  0
   -0.2629   -4.8606    0.0000 C   0  0  0  0  0  0  0  0  0  0  0  0
   -1.6881   -4.8606    0.0000 N   0  0  0  0  0  0  0  0  0  0  0  0
   -1.6881   -4.0274    0.0000 C   0  0  0  0  0  0  0  0  0  0  0  0
   -2.4006   -3.6118    0.0000 C   0  0  0  0  0  0  0  0  0  0  0  0
   -2.4006   -2.7804    0.0000 C   0  0  0  0  0  0  0  0  0  0  0  0
   -1.6881   -2.3648    0.0000 C   0  0  0  0  0  0  0  0  0  0  0  0
   -0.2629   -3.1899    0.0000 H   0  0  0  0  0  0  0  0  0  0  0  0
    1.9891    1.2816    0.0000 C   0  0  0  0  0  0  0  0  0  0  0  0
    2.4007    1.9941    0.0000 C   0  0  0  0  0  0  0  0  0  0  0  0
    2.4007    0.5669    0.0000 C   0  0  0  0  0  0  0  0  0  0  0  0
   -0.2445    0.6962    0.0000 O   0  0  0  0  0  0  0  0  0  0  0  0
   -0.0725    3.4234    0.0000 C   0  0  1  0  0  0  0  0  0  0  0  0
   -0.8997    3.4234    0.0000 C   0  0  1  0  0  0  0  0  0  0  0  0
   -1.3112    4.1379    0.0000 C   0  0  0  0  0  0  0  0  0  0  0  0
   -2.0258    3.7244    0.0000 C   0  0  0  0  0  0  0  0  0  0  0  0
   -1.3112    2.7088    0.0000 C   0  0  0  0  0  0  0  0  0  0  0  0
    0.3410    4.1398    0.0000 C   0  0  0  0  0  0  0  0  0  0  0  0
    1.1641    4.1398    0.0000 N   0  0  0  0  0  0  0  0  0  0  0  0
    1.5756    3.4214    0.0000 C   0  0  1  0  0  0  0  0  0  0  0  0
    2.4007    3.4214    0.0000 C   0  0  0  0  0  0  0  0  0  0  0  0
    2.4007    4.8544    0.0000 C   0  0  0  0  0  0  0  0  0  0  0  0
    1.5756    4.8544    0.0000 C   0  0  0  0  0  0  0  0  0  0  0  0
    0.7505    3.4214    0.0000 H   0  0  0  0  0  0  0  0  0  0  0  0
   -0.0603    4.8606    0.0000 O   0  0  0  0  0  0  0  0  0  0  0  0
   -0.7155    2.9031    0.0000 H   0  0  0  0  0  0  0  0  0  0  0  0
    2.4741    1.8688    0.0000 H   0  0  0  0  0  0  0  0  0  0  0  0
    2.0169   -0.3710    0.0000 H   0  0  0  0  0  0  0  0  0  0  0  0
   -0.4784   -0.5849    0.0000 H   0  0  0  0  0  0  0  0  0  0  0  0
   -1.1908   -1.0006    0.0000 H   0  0  0  0  0  0  0  0  0  0  0  0
   -1.1889   -2.0696    0.0000 H   0  0  0  0  0  0  0  0  0  0  0  0
    1.3774   -4.1447    0.0000 H   0  0  0  0  0  0  0  0  0  0  0  0
    1.3755   -3.0758    0.0000 H   0  0  0  0  0  0  0  0  0  0  0  0
    2.0899   -1.0006    0.0000 H   0  0  0  0  0  0  0  0  0  0  0  0
    2.0880   -2.0696    0.0000 H   0  0  0  0  0  0  0  0  0  0  0  0
    1.8751   -3.8484    0.0000 H   0  0  0  0  0  0  0  0  0  0  0  0
    2.8037   -2.2445    0.0000 H   0  0  0  0  0  0  0  0  0  0  0  0
    2.8024   -3.3145    0.0000 H   0  0  0  0  0  0  0  0  0  0  0  0
    0.4668   -5.5903    0.0000 H   0  0  0  0  0  0  0  0  0  0  0  0
   -2.3842   -5.5567    0.0000 H   0  0  0  0  0  0  0  0  0  0  0  0
   -3.2955   -4.1258    0.0000 H   0  0  0  0  0  0  0  0  0  0  0  0
   -3.2955   -2.2664    0.0000 H   0  0  0  0  0  0  0  0  0  0  0  0
   -1.6881   -1.3328    0.0000 H   0  0  0  0  0  0  0  0  0  0  0  0
    3.0591    1.2809    0.0000 H   0  0  0  0  0  0  0  0  0  0  0  0
    3.4707    1.9938    0.0000 H   0  0  0  0  0  0  0  0  0  0  0  0
    1.8659    2.9209    0.0000 H   0  0  0  0  0  0  0  0  0  0  0  0
    2.9359    2.9206    0.0000 H   0  0  0  0  0  0  0  0  0  0  0  0
    1.8647   -0.3592    0.0000 H   0  0  0  0  0  0  0  0  0  0  0  0
    3.4707    0.5657    0.0000 H   0  0  0  0  0  0  0  0  0  0  0  0
    2.9347   -0.3603    0.0000 H   0  0  0  0  0  0  0  0  0  0  0  0
   -0.3642    2.4971    0.0000 H   0  0  0  0  0  0  0  0  0  0  0  0
   -1.0342    5.1714    0.0000 H   0  0  0  0  0  0  0  0  0  0  0  0
   -2.1604    4.7889    0.0000 H   0  0  0  0  0  0  0  0  0  0  0  0
   -2.9530    4.2585    0.0000 H   0  0  0  0  0  0  0  0  0  0  0  0
   -2.0248    2.6544    0.0000 H   0  0  0  0  0  0  0  0  0  0  0  0
   -2.9519    3.1885    0.0000 H   0  0  0  0  0  0  0  0  0  0  0  0
   -2.3812    2.7076    0.0000 H   0  0  0  0  0  0  0  0  0  0  0  0
   -0.7752    1.7828    0.0000 H   0  0  0  0  0  0  0  0  0  0  0  0
   -1.8452    1.7815    0.0000 H   0  0  0  0  0  0  0  0  0  0  0  0
    3.1573    2.6648    0.0000 H   0  0  0  0  0  0  0  0  0  0  0  0
    3.3893    3.8309    0.0000 H   0  0  0  0  0  0  0  0  0  0  0  0
    3.1573    5.6110    0.0000 H   0  0  0  0  0  0  0  0  0  0  0  0
    1.9912    5.8430    0.0000 H   0  0  0  0  0  0  0  0  0  0  0  0
    1.0401    5.7807    0.0000 H   0  0  0  0  0  0  0  0  0  0  0  0
    2.1103    5.7812    0.0000 H   0  0  0  0  0  0  0  0  0  0  0  0
  1 47  1  0  0  0  0
  2  1  1  1  0  0  0
  2  3  1  0  0  0  0
  2  6  1  0  0  0  0
  3  4  1  0  0  0  0
  4 32  2  0  0  0  0
  5  4  1  0  0  0  0
  5  7  1  1  0  0  0
  5 29  1  0  0  0  0
  5  6  1  0  0  0  0
  7  8  1  0  0  0  0
  7 48  1  0  0  0  0
  8  9  2  0  0  0  0
 10  8  1  0  0  0  0
 10 11  1  0  0  0  0
 10 19  1  0  0  0  0
 10 49  1  6  0  0  0
 11 50  1  0  0  0  0
 11 51  1  0  0  0  0
 12 11  1  0  0  0  0
 12 13  1  0  0  0  0
 12 28  1  6  0  0  0
 13 14  2  0  0  0  0
 13 27  1  0  0  0  0
 14 15  1  0  0  0  0
 14 24  1  0  0  0  0
 15 22  2  0  0  0  0
 16 15  1  0  0  0  0
 16 52  1  0  0  0  0
 16 53  1  0  0  0  0
 17 12  1  0  0  0  0
 17 16  1  0  0  0  0
 17 21  1  1  0  0  0
 17 18  1  0  0  0  0
 18 20  1  0  0  0  0
 19 18  1  0  0  0  0
 19 54  1  0  0  0  0
 19 55  1  0  0  0  0
 20 56  1  0  0  0  0
 20 57  1  0  0  0  0
 20 58  1  0  0  0  0
 22 23  1  0  0  0  0
 22 59  1  0  0  0  0
 23 60  1  0  0  0  0
 24 23  1  0  0  0  0
 24 25  2  0  0  0  0
 25 61  1  0  0  0  0
 26 25  1  0  0  0  0
 26 62  1  0  0  0  0
 27 26  2  0  0  0  0
 27 63  1  0  0  0  0
 29 30  1  0  0  0  0
 29 31  1  0  0  0  0
 29 64  1  0  0  0  0
 30 65  1  0  0  0  0
 30 66  1  0  0  0  0
 30 67  1  0  0  0  0
 31 68  1  0  0  0  0
 31 69  1  0  0  0  0
 31 70  1  0  0  0  0
 33  3  1  0  0  0  0
 33 38  1  0  0  0  0
 33 46  1  6  0  0  0
 34 33  1  0  0  0  0
 34 35  1  0  0  0  0
 34 37  1  0  0  0  0
 34 71  1  1  0  0  0
 35 36  1  0  0  0  0
 35 72  1  0  0  0  0
 35 73  1  0  0  0  0
 36 74  1  0  0  0  0
 36 75  1  0  0  0  0
 36 76  1  0  0  0  0
 37 77  1  0  0  0  0
 37 78  1  0  0  0  0
 37 79  1  0  0  0  0
 38 45  2  0  0  0  0
 39 38  1  0  0  0  0
 39 43  1  0  0  0  0
 40  2  1  0  0  0  0
 40 39  1  0  0  0  0
 40 41  1  0  0  0  0
 40 44  1  6  0  0  0
 41 42  1  0  0  0  0
 41 80  1  0  0  0  0
 41 81  1  0  0  0  0
 42 82  1  0  0  0  0
 42 83  1  0  0  0  0
 43 42  1  0  0  0  0
 43 84  1  0  0  0  0
 43 85  1  0  0  0  0
M  END
>  <DRUGBANK_ID>
DB11275

>  <COMMON_NAME>
Epicriptine

>  <CAS_NUMBER>
88660-47-3

>  <UNII>
5M64643B5U

>  <SYNONYMS>
dihydro-beta-ergocryptine; Epicriptina; Epicriptine; Epicriptinum; Epicryptine

$$$$
