
 OpenBabel10282417072D

 92 93  0  0  0  0  0  0  0  0999 V2000
    1.0719    1.6456    0.0000 C   0  0  0  0  0  0  0  0  0  0  0  0
    1.7863    2.0581    0.0000 C   0  0  0  0  0  0  0  0  0  0  0  0
    0.3574    2.0581    0.0000 O   0  0  0  0  0  0  0  0  0  0  0  0
    1.0719    0.8206    0.0000 C   0  0  0  0  0  0  0  0  0  0  0  0
    2.5008    1.6456    0.0000 C   0  0  0  0  0  0  0  0  0  0  0  0
   -0.3570    1.6456    0.0000 C   0  0  0  0  0  0  0  0  0  0  0  0
    1.7863    0.4081    0.0000 C   0  0  0  0  0  0  0  0  0  0  0  0
    2.5008    0.8206    0.0000 C   0  0  0  0  0  0  0  0  0  0  0  0
    3.2153    2.0581    0.0000 N   0  3  0  0  0  0  0  0  0  0  0  0
   -0.3570    0.8206    0.0000 N   0  0  0  0  0  0  0  0  0  0  0  0
   -1.0715    2.0581    0.0000 O   0  0  0  0  0  0  0  0  0  0  0  0
   -1.0715    0.4081    0.0000 C   0  0  0  0  0  0  0  0  0  0  0  0
    0.3574    0.4081    0.0000 C   0  0  0  0  0  0  0  0  0  0  0  0
   -1.7860    0.8206    0.0000 C   0  0  0  0  0  0  0  0  0  0  0  0
   -2.5004    0.4081    0.0000 C   0  0  0  0  0  0  0  0  0  0  0  0
   -3.2149    0.8206    0.0000 C   0  0  0  0  0  0  0  0  0  0  0  0
   -3.9294    0.4081    0.0000 C   0  0  0  0  0  0  0  0  0  0  0  0
   -3.9294   -0.4168    0.0000 C   0  0  0  0  0  0  0  0  0  0  0  0
   -3.2149   -0.8293    0.0000 C   0  0  0  0  0  0  0  0  0  0  0  0
   -2.5004   -0.4168    0.0000 C   0  0  0  0  0  0  0  0  0  0  0  0
   -1.7860   -0.8293    0.0000 C   0  0  0  0  0  0  0  0  0  0  0  0
   -1.0715   -0.4168    0.0000 C   0  0  0  0  0  0  0  0  0  0  0  0
   -0.3570   -0.8293    0.0000 N   0  0  0  0  0  0  0  0  0  0  0  0
   -0.3570   -1.6543    0.0000 C   0  0  0  0  0  0  0  0  0  0  0  0
    0.3574   -0.4168    0.0000 C   0  0  0  0  0  0  0  0  0  0  0  0
    0.3574   -2.0668    0.0000 O   0  0  0  0  0  0  0  0  0  0  0  0
    1.0719   -1.6543    0.0000 C   0  0  0  0  0  0  0  0  0  0  0  0
    1.7863   -2.0668    0.0000 C   0  0  0  0  0  0  0  0  0  0  0  0
    1.0719   -0.8293    0.0000 C   0  0  0  0  0  0  0  0  0  0  0  0
    2.5008   -1.6543    0.0000 C   0  0  0  0  0  0  0  0  0  0  0  0
    1.7863   -0.4168    0.0000 C   0  0  0  0  0  0  0  0  0  0  0  0
    2.5008   -0.8293    0.0000 C   0  0  0  0  0  0  0  0  0  0  0  0
    3.2153   -2.0668    0.0000 N   0  3  0  0  0  0  0  0  0  0  0  0
   -1.0715   -2.0668    0.0000 O   0  0  0  0  0  0  0  0  0  0  0  0
    3.2137    2.8875    0.0000 C   0  0  0  0  0  0  0  0  0  0  0  0
    3.9294    1.6549    0.0000 C   0  0  0  0  0  0  0  0  0  0  0  0
    3.9294    2.4700    0.0000 C   0  0  0  0  0  0  0  0  0  0  0  0
    3.9294   -1.6549    0.0000 C   0  0  0  0  0  0  0  0  0  0  0  0
    3.2137   -2.8875    0.0000 C   0  0  0  0  0  0  0  0  0  0  0  0
    3.9294   -2.4700    0.0000 C   0  0  0  0  0  0  0  0  0  0  0  0
    1.7863    3.0901    0.0000 H   0  0  0  0  0  0  0  0  0  0  0  0
    0.1782    0.3046    0.0000 H   0  0  0  0  0  0  0  0  0  0  0  0
    1.7863   -0.6239    0.0000 H   0  0  0  0  0  0  0  0  0  0  0  0
    3.3945    0.3046    0.0000 H   0  0  0  0  0  0  0  0  0  0  0  0
   -1.0715   -0.6619    0.0000 H   0  0  0  0  0  0  0  0  0  0  0  0
   -1.9981   -0.1269    0.0000 H   0  0  0  0  0  0  0  0  0  0  0  0
    0.3574   -0.6619    0.0000 H   0  0  0  0  0  0  0  0  0  0  0  0
    1.2841    0.9431    0.0000 H   0  0  0  0  0  0  0  0  0  0  0  0
    1.2840   -0.1269    0.0000 H   0  0  0  0  0  0  0  0  0  0  0  0
   -1.7860    1.8906    0.0000 H   0  0  0  0  0  0  0  0  0  0  0  0
   -2.7127    1.3556    0.0000 H   0  0  0  0  0  0  0  0  0  0  0  0
   -2.5004   -0.6619    0.0000 H   0  0  0  0  0  0  0  0  0  0  0  0
   -3.4270   -0.1269    0.0000 H   0  0  0  0  0  0  0  0  0  0  0  0
   -3.2149    1.8906    0.0000 H   0  0  0  0  0  0  0  0  0  0  0  0
   -4.1415    1.3556    0.0000 H   0  0  0  0  0  0  0  0  0  0  0  0
   -4.8560    0.9431    0.0000 H   0  0  0  0  0  0  0  0  0  0  0  0
   -4.8560   -0.1269    0.0000 H   0  0  0  0  0  0  0  0  0  0  0  0
   -4.8560   -0.9518    0.0000 H   0  0  0  0  0  0  0  0  0  0  0  0
   -3.9294   -1.4868    0.0000 H   0  0  0  0  0  0  0  0  0  0  0  0
   -3.2149   -1.8993    0.0000 H   0  0  0  0  0  0  0  0  0  0  0  0
   -2.2883   -1.3643    0.0000 H   0  0  0  0  0  0  0  0  0  0  0  0
   -2.5004    0.6532    0.0000 H   0  0  0  0  0  0  0  0  0  0  0  0
   -1.5737    0.1182    0.0000 H   0  0  0  0  0  0  0  0  0  0  0  0
   -1.7860   -1.8993    0.0000 H   0  0  0  0  0  0  0  0  0  0  0  0
   -0.8594   -1.3643    0.0000 H   0  0  0  0  0  0  0  0  0  0  0  0
   -1.0715    0.6532    0.0000 H   0  0  0  0  0  0  0  0  0  0  0  0
   -0.1449    0.1182    0.0000 H   0  0  0  0  0  0  0  0  0  0  0  0
    1.2841   -0.9518    0.0000 H   0  0  0  0  0  0  0  0  0  0  0  0
    0.3574    0.6532    0.0000 H   0  0  0  0  0  0  0  0  0  0  0  0
    1.2840    0.1182    0.0000 H   0  0  0  0  0  0  0  0  0  0  0  0
    1.7863   -3.0988    0.0000 H   0  0  0  0  0  0  0  0  0  0  0  0
    0.1782   -0.3133    0.0000 H   0  0  0  0  0  0  0  0  0  0  0  0
    1.7863    0.6152    0.0000 H   0  0  0  0  0  0  0  0  0  0  0  0
    3.3945   -0.3133    0.0000 H   0  0  0  0  0  0  0  0  0  0  0  0
    4.1393    3.4243    0.0000 H   0  0  0  0  0  0  0  0  0  0  0  0
    2.2860    3.4207    0.0000 H   0  0  0  0  0  0  0  0  0  0  0  0
    3.2116    3.9575    0.0000 H   0  0  0  0  0  0  0  0  0  0  0  0
    3.9397    0.5849    0.0000 H   0  0  0  0  0  0  0  0  0  0  0  0
    4.8509    2.1988    0.0000 H   0  0  0  0  0  0  0  0  0  0  0  0
    4.8611    1.1288    0.0000 H   0  0  0  0  0  0  0  0  0  0  0  0
    4.8558    1.9346    0.0000 H   0  0  0  0  0  0  0  0  0  0  0  0
    3.9298    3.5400    0.0000 H   0  0  0  0  0  0  0  0  0  0  0  0
    4.8563    3.0046    0.0000 H   0  0  0  0  0  0  0  0  0  0  0  0
    4.8558   -2.1903    0.0000 H   0  0  0  0  0  0  0  0  0  0  0  0
    3.9298   -0.5849    0.0000 H   0  0  0  0  0  0  0  0  0  0  0  0
    4.8563   -1.1203    0.0000 H   0  0  0  0  0  0  0  0  0  0  0  0
    2.2860   -3.4207    0.0000 H   0  0  0  0  0  0  0  0  0  0  0  0
    4.1393   -3.4243    0.0000 H   0  0  0  0  0  0  0  0  0  0  0  0
    3.2116   -3.9575    0.0000 H   0  0  0  0  0  0  0  0  0  0  0  0
    3.9397   -3.5400    0.0000 H   0  0  0  0  0  0  0  0  0  0  0  0
    4.8509   -1.9261    0.0000 H   0  0  0  0  0  0  0  0  0  0  0  0
    4.8611   -2.9961    0.0000 H   0  0  0  0  0  0  0  0  0  0  0  0
  1  2  1  0  0  0  0
  1  3  1  0  0  0  0
  1  4  2  0  0  0  0
  2  5  2  0  0  0  0
  2 41  1  0  0  0  0
  3  6  1  0  0  0  0
  4  7  1  0  0  0  0
  4 42  1  0  0  0  0
  5  8  1  0  0  0  0
  5  9  1  0  0  0  0
  6 10  1  0  0  0  0
  6 11  2  0  0  0  0
  7  8  2  0  0  0  0
  7 43  1  0  0  0  0
  8 44  1  0  0  0  0
  9 35  1  0  0  0  0
  9 36  1  0  0  0  0
  9 37  1  0  0  0  0
 10 12  1  0  0  0  0
 10 13  1  0  0  0  0
 12 14  1  0  0  0  0
 12 45  1  0  0  0  0
 12 46  1  0  0  0  0
 13 47  1  0  0  0  0
 13 48  1  0  0  0  0
 13 49  1  0  0  0  0
 14 15  1  0  0  0  0
 14 50  1  0  0  0  0
 14 51  1  0  0  0  0
 15 16  1  0  0  0  0
 15 52  1  0  0  0  0
 15 53  1  0  0  0  0
 16 17  1  0  0  0  0
 16 54  1  0  0  0  0
 16 55  1  0  0  0  0
 17 18  1  0  0  0  0
 17 56  1  0  0  0  0
 17 57  1  0  0  0  0
 18 19  1  0  0  0  0
 18 58  1  0  0  0  0
 18 59  1  0  0  0  0
 19 20  1  0  0  0  0
 19 60  1  0  0  0  0
 19 61  1  0  0  0  0
 20 21  1  0  0  0  0
 20 62  1  0  0  0  0
 20 63  1  0  0  0  0
 21 22  1  0  0  0  0
 21 64  1  0  0  0  0
 21 65  1  0  0  0  0
 22 23  1  0  0  0  0
 22 66  1  0  0  0  0
 22 67  1  0  0  0  0
 23 24  1  0  0  0  0
 23 25  1  0  0  0  0
 24 26  1  0  0  0  0
 24 34  2  0  0  0  0
 25 68  1  0  0  0  0
 25 69  1  0  0  0  0
 25 70  1  0  0  0  0
 26 27  1  0  0  0  0
 27 28  1  0  0  0  0
 27 29  2  0  0  0  0
 28 30  2  0  0  0  0
 28 71  1  0  0  0  0
 29 31  1  0  0  0  0
 29 72  1  0  0  0  0
 30 32  1  0  0  0  0
 30 33  1  0  0  0  0
 31 32  2  0  0  0  0
 31 73  1  0  0  0  0
 32 74  1  0  0  0  0
 33 38  1  0  0  0  0
 33 39  1  0  0  0  0
 33 40  1  0  0  0  0
 35 75  1  0  0  0  0
 35 76  1  0  0  0  0
 35 77  1  0  0  0  0
 36 78  1  0  0  0  0
 36 79  1  0  0  0  0
 36 80  1  0  0  0  0
 37 81  1  0  0  0  0
 37 82  1  0  0  0  0
 37 83  1  0  0  0  0
 38 84  1  0  0  0  0
 38 85  1  0  0  0  0
 38 86  1  0  0  0  0
 39 87  1  0  0  0  0
 39 88  1  0  0  0  0
 39 89  1  0  0  0  0
 40 90  1  0  0  0  0
 40 91  1  0  0  0  0
 40 92  1  0  0  0  0
M  CHG  2   9   1  33   1
M  END
>  <DRUGBANK_ID>
DB00944

>  <SECONDARY_ACCESSION_NUMBERS>
APRD00905

>  <COMMON_NAME>
Demecarium

>  <CAS_NUMBER>
16505-84-3

>  <UNII>
ILP8XJ8R5K

>  <SYNONYMS>
Demecarium; Demecarium cation; Demecarium ion

$$$$
