
 OpenBabel10282417072D

  7  6  0  0  0  0  0  0  0  0999 V2000
   -0.7145   -0.6187    0.0000 C   0  0  0  0  0  0  0  0  0  0  0  0
    0.0000   -0.2062    0.0000 C   0  0  0  0  0  0  0  0  0  0  0  0
    0.7145   -0.6187    0.0000 O   0  5  0  0  0  0  0  0  0  0  0  0
    0.0000    0.6187    0.0000 O   0  0  0  0  0  0  0  0  0  0  0  0
   -1.6411   -0.0837    0.0000 H   0  0  0  0  0  0  0  0  0  0  0  0
   -0.7145   -1.6887    0.0000 H   0  0  0  0  0  0  0  0  0  0  0  0
   -1.6412   -1.1537    0.0000 H   0  0  0  0  0  0  0  0  0  0  0  0
  1  5  1  0  0  0  0
  1  6  1  0  0  0  0
  1  7  1  0  0  0  0
  2  1  1  0  0  0  0
  3  2  1  0  0  0  0
  4  2  2  0  0  0  0
M  CHG  1   3  -1
M  END
>  <DRUGBANK_ID>
DB14511

>  <COMMON_NAME>
Acetate

>  <CAS_NUMBER>
71-50-1

>  <UNII>
569DQM74SC

>  <SYNONYMS>
Acetate; Acetate anion; Acetate ion; Acetate ion (1-); Acetic acid anion; Acetic acid, ion(1-); Acetoxy ion; Azetat

$$$$
