
 OpenBabel10282417072D

 50 49  0  0  0  0  0  0  0  0999 V2000
    1.4009    0.7146    0.0000 Si  0  0  0  0  0  0  0  0  0  0  0  0
    1.8205    1.4329    0.0000 O   0  0  0  0  0  0  0  0  0  0  0  0
    2.1192    0.3022    0.0000 O   0  0  0  0  0  0  0  0  0  0  0  0
    0.6897    1.1271    0.0000 O   0  0  0  0  0  0  0  0  0  0  0  0
    0.9956    0.0035    0.0000 C   0  0  0  0  0  0  0  0  0  0  0  0
    0.1706    0.0035    0.0000 C   0  0  0  0  0  0  0  0  0  0  0  0
    2.6526    1.4329    0.0000 C   0  0  0  0  0  0  0  0  0  0  0  0
    2.8375    0.7146    0.0000 C   0  0  0  0  0  0  0  0  0  0  0  0
   -0.0284    0.7146    0.0000 C   0  0  0  0  0  0  0  0  0  0  0  0
   -0.2489   -0.7147    0.0000 C   0  0  0  0  0  0  0  0  0  0  0  0
   -1.0739   -0.7147    0.0000 C   0  0  0  0  0  0  0  0  0  0  0  0
    3.0579    2.1512    0.0000 C   0  0  0  0  0  0  0  0  0  0  0  0
    3.5558    0.3022    0.0000 C   0  0  0  0  0  0  0  0  0  0  0  0
   -0.7395    1.1271    0.0000 C   0  0  0  0  0  0  0  0  0  0  0  0
   -1.4864   -1.4330    0.0000 C   0  0  0  0  0  0  0  0  0  0  0  0
   -2.3111   -1.4330    0.0000 C   0  0  0  0  0  0  0  0  0  0  0  0
   -2.7309   -2.1512    0.0000 C   0  0  0  0  0  0  0  0  0  0  0  0
   -3.5558   -2.1512    0.0000 C   0  0  0  0  0  0  0  0  0  0  0  0
    1.5332   -0.9217    0.0000 H   0  0  0  0  0  0  0  0  0  0  0  0
    0.4619   -0.9239    0.0000 H   0  0  0  0  0  0  0  0  0  0  0  0
   -0.3621    0.9315    0.0000 H   0  0  0  0  0  0  0  0  0  0  0  0
   -0.8994    0.0076    0.0000 H   0  0  0  0  0  0  0  0  0  0  0  0
    3.1922    0.5089    0.0000 H   0  0  0  0  0  0  0  0  0  0  0  0
    3.7226    1.4408    0.0000 H   0  0  0  0  0  0  0  0  0  0  0  0
    2.8375    1.7846    0.0000 H   0  0  0  0  0  0  0  0  0  0  0  0
    3.7635    1.2507    0.0000 H   0  0  0  0  0  0  0  0  0  0  0  0
   -0.0307   -0.3554    0.0000 H   0  0  0  0  0  0  0  0  0  0  0  0
   -0.9562    0.1815    0.0000 H   0  0  0  0  0  0  0  0  0  0  0  0
    0.2838   -1.6427    0.0000 H   0  0  0  0  0  0  0  0  0  0  0  0
   -0.7851   -1.6407    0.0000 H   0  0  0  0  0  0  0  0  0  0  0  0
   -1.6100    0.2113    0.0000 H   0  0  0  0  0  0  0  0  0  0  0  0
   -2.1439   -0.7166    0.0000 H   0  0  0  0  0  0  0  0  0  0  0  0
    4.1278    2.1618    0.0000 H   0  0  0  0  0  0  0  0  0  0  0  0
    2.5138    3.0725    0.0000 H   0  0  0  0  0  0  0  0  0  0  0  0
    3.5837    3.0831    0.0000 H   0  0  0  0  0  0  0  0  0  0  0  0
    3.5584   -0.7678    0.0000 H   0  0  0  0  0  0  0  0  0  0  0  0
    4.4812    0.8394    0.0000 H   0  0  0  0  0  0  0  0  0  0  0  0
    4.4837   -0.2306    0.0000 H   0  0  0  0  0  0  0  0  0  0  0  0
   -0.7373    2.1971    0.0000 H   0  0  0  0  0  0  0  0  0  0  0  0
   -1.6672    0.5940    0.0000 H   0  0  0  0  0  0  0  0  0  0  0  0
   -1.6650    1.6640    0.0000 H   0  0  0  0  0  0  0  0  0  0  0  0
   -0.9503   -2.3590    0.0000 H   0  0  0  0  0  0  0  0  0  0  0  0
   -2.0209   -2.3600    0.0000 H   0  0  0  0  0  0  0  0  0  0  0  0
   -2.8436   -0.5049    0.0000 H   0  0  0  0  0  0  0  0  0  0  0  0
   -3.3811   -1.4287    0.0000 H   0  0  0  0  0  0  0  0  0  0  0  0
   -2.1984   -3.0793    0.0000 H   0  0  0  0  0  0  0  0  0  0  0  0
   -3.2671   -3.0771    0.0000 H   0  0  0  0  0  0  0  0  0  0  0  0
   -4.0908   -1.2246    0.0000 H   0  0  0  0  0  0  0  0  0  0  0  0
   -4.0908   -3.0778    0.0000 H   0  0  0  0  0  0  0  0  0  0  0  0
   -4.6258   -2.1512    0.0000 H   0  0  0  0  0  0  0  0  0  0  0  0
  1  2  1  0  0  0  0
  1  3  1  0  0  0  0
  1  4  1  0  0  0  0
  1  5  1  0  0  0  0
  2  7  1  0  0  0  0
  3  8  1  0  0  0  0
  4  9  1  0  0  0  0
  5  6  1  0  0  0  0
  5 19  1  0  0  0  0
  5 20  1  0  0  0  0
  6 10  1  0  0  0  0
  6 21  1  0  0  0  0
  6 22  1  0  0  0  0
  7 12  1  0  0  0  0
  7 23  1  0  0  0  0
  7 24  1  0  0  0  0
  8 13  1  0  0  0  0
  8 25  1  0  0  0  0
  8 26  1  0  0  0  0
  9 14  1  0  0  0  0
  9 27  1  0  0  0  0
  9 28  1  0  0  0  0
 10 11  1  0  0  0  0
 10 29  1  0  0  0  0
 10 30  1  0  0  0  0
 11 15  1  0  0  0  0
 11 31  1  0  0  0  0
 11 32  1  0  0  0  0
 12 33  1  0  0  0  0
 12 34  1  0  0  0  0
 12 35  1  0  0  0  0
 13 36  1  0  0  0  0
 13 37  1  0  0  0  0
 13 38  1  0  0  0  0
 14 39  1  0  0  0  0
 14 40  1  0  0  0  0
 14 41  1  0  0  0  0
 15 16  1  0  0  0  0
 15 42  1  0  0  0  0
 15 43  1  0  0  0  0
 16 17  1  0  0  0  0
 16 44  1  0  0  0  0
 16 45  1  0  0  0  0
 17 18  1  0  0  0  0
 17 46  1  0  0  0  0
 17 47  1  0  0  0  0
 18 48  1  0  0  0  0
 18 49  1  0  0  0  0
 18 50  1  0  0  0  0
M  END
>  <DRUGBANK_ID>
DB11267

>  <COMMON_NAME>
Triethoxycaprylylsilane

>  <CAS_NUMBER>
2943-75-1

>  <UNII>
LDC331P08E

>  <SYNONYMS>
Caprylyltriethoxysilane; n-Octyltriethoxysilane; Octyl(triethoxy)silane; Octyltriethoxysilane; Triethoxyoctylsilane

$$$$
