
 OpenBabel10282417072D

 49 52  0  0  0  0  0  0  0  0999 V2000
    1.6500   -0.1043    0.0000 Cl  0  0  0  0  0  0  0  0  0  0  0  0
    5.4772    2.7456    0.0000 O   0  0  0  0  0  0  0  0  0  0  0  0
    6.5391    1.7894    0.0000 O   0  0  0  0  0  0  0  0  0  0  0  0
    6.2196    0.3082    0.0000 N   0  0  0  0  0  0  0  0  0  0  0  0
    7.4818   -0.1043    0.0000 C   0  0  0  0  0  0  0  0  0  0  0  0
    7.0004    0.5596    0.0000 C   0  0  0  0  0  0  0  0  0  0  0  0
    7.0004   -0.7683    0.0000 C   0  0  0  0  0  0  0  0  0  0  0  0
    6.2196   -0.5168    0.0000 C   0  0  0  0  0  0  0  0  0  0  0  0
    5.4351    0.5632    0.0000 C   0  0  0  0  0  0  0  0  0  0  0  0
    5.4351   -0.7717    0.0000 C   0  0  0  0  0  0  0  0  0  0  0  0
    8.1493    0.3807    0.0000 C   0  0  0  0  0  0  0  0  0  0  0  0
    8.1493   -0.5892    0.0000 C   0  0  0  0  0  0  0  0  0  0  0  0
    4.9501   -0.1043    0.0000 C   0  0  0  0  0  0  0  0  0  0  0  0
    5.1801    1.3478    0.0000 C   0  0  0  0  0  0  0  0  0  0  0  0
    5.1801   -1.5564    0.0000 C   0  0  0  0  0  0  0  0  0  0  0  0
    4.1251   -0.1043    0.0000 C   0  0  0  0  0  0  0  0  0  0  0  0
    5.7321   -2.1695    0.0000 C   0  0  0  0  0  0  0  0  0  0  0  0
    4.3731   -1.7279    0.0000 C   0  0  0  0  0  0  0  0  0  0  0  0
    5.7321    1.9609    0.0000 C   0  0  0  0  0  0  0  0  0  0  0  0
    3.7126   -0.8187    0.0000 C   0  0  0  0  0  0  0  0  0  0  0  0
    3.7126    0.6102    0.0000 C   0  0  0  0  0  0  0  0  0  0  0  0
    5.4772   -2.9541    0.0000 C   0  0  0  0  0  0  0  0  0  0  0  0
    4.1182   -2.5126    0.0000 C   0  0  0  0  0  0  0  0  0  0  0  0
    2.8876   -0.8187    0.0000 C   0  0  0  0  0  0  0  0  0  0  0  0
    2.8876    0.6102    0.0000 C   0  0  0  0  0  0  0  0  0  0  0  0
    4.6702   -3.1257    0.0000 C   0  0  0  0  0  0  0  0  0  0  0  0
    2.4751   -0.1043    0.0000 C   0  0  0  0  0  0  0  0  0  0  0  0
    6.1042    3.4419    0.0000 H   0  0  0  0  0  0  0  0  0  0  0  0
    7.3329    1.5766    0.0000 H   0  0  0  0  0  0  0  0  0  0  0  0
    8.0575    0.7255    0.0000 H   0  0  0  0  0  0  0  0  0  0  0  0
    7.3329   -1.7853    0.0000 H   0  0  0  0  0  0  0  0  0  0  0  0
    6.2454   -1.5265    0.0000 H   0  0  0  0  0  0  0  0  0  0  0  0
    9.1268   -0.0545    0.0000 H   0  0  0  0  0  0  0  0  0  0  0  0
    8.0374    1.4448    0.0000 H   0  0  0  0  0  0  0  0  0  0  0  0
    9.0149    1.0097    0.0000 H   0  0  0  0  0  0  0  0  0  0  0  0
    8.0375   -1.6533    0.0000 H   0  0  0  0  0  0  0  0  0  0  0  0
    9.1268   -0.1539    0.0000 H   0  0  0  0  0  0  0  0  0  0  0  0
    9.0150   -1.2181    0.0000 H   0  0  0  0  0  0  0  0  0  0  0  0
    4.1335    1.5702    0.0000 H   0  0  0  0  0  0  0  0  0  0  0  0
    4.8494    2.3654    0.0000 H   0  0  0  0  0  0  0  0  0  0  0  0
    6.7415   -1.9549    0.0000 H   0  0  0  0  0  0  0  0  0  0  0  0
    3.6825   -0.9610    0.0000 H   0  0  0  0  0  0  0  0  0  0  0  0
    4.2286   -1.7124    0.0000 H   0  0  0  0  0  0  0  0  0  0  0  0
    4.2286    1.5039    0.0000 H   0  0  0  0  0  0  0  0  0  0  0  0
    6.1678   -3.7210    0.0000 H   0  0  0  0  0  0  0  0  0  0  0  0
    3.1088   -2.7272    0.0000 H   0  0  0  0  0  0  0  0  0  0  0  0
    2.3716   -1.7124    0.0000 H   0  0  0  0  0  0  0  0  0  0  0  0
    2.3716    1.5039    0.0000 H   0  0  0  0  0  0  0  0  0  0  0  0
    4.3513   -4.1072    0.0000 H   0  0  0  0  0  0  0  0  0  0  0  0
  1 27  1  0  0  0  0
  2 19  1  0  0  0  0
  2 28  1  0  0  0  0
  3 19  2  0  0  0  0
  4  6  1  0  0  0  0
  4  8  1  0  0  0  0
  4  9  1  0  0  0  0
  5  6  1  0  0  0  0
  5  7  1  0  0  0  0
  5 11  1  0  0  0  0
  5 12  1  0  0  0  0
  6 29  1  0  0  0  0
  6 30  1  0  0  0  0
  7  8  1  0  0  0  0
  7 31  1  0  0  0  0
  7 32  1  0  0  0  0
  8 10  2  0  0  0  0
  9 13  2  0  0  0  0
  9 14  1  0  0  0  0
 10 13  1  0  0  0  0
 10 15  1  0  0  0  0
 11 33  1  0  0  0  0
 11 34  1  0  0  0  0
 11 35  1  0  0  0  0
 12 36  1  0  0  0  0
 12 37  1  0  0  0  0
 12 38  1  0  0  0  0
 13 16  1  0  0  0  0
 14 19  1  0  0  0  0
 14 39  1  0  0  0  0
 14 40  1  0  0  0  0
 15 17  2  0  0  0  0
 15 18  1  0  0  0  0
 16 20  2  0  0  0  0
 16 21  1  0  0  0  0
 17 22  1  0  0  0  0
 17 41  1  0  0  0  0
 18 23  2  0  0  0  0
 18 42  1  0  0  0  0
 20 24  1  0  0  0  0
 20 43  1  0  0  0  0
 21 25  2  0  0  0  0
 21 44  1  0  0  0  0
 22 26  2  0  0  0  0
 22 45  1  0  0  0  0
 23 26  1  0  0  0  0
 23 46  1  0  0  0  0
 24 27  2  0  0  0  0
 24 47  1  0  0  0  0
 25 27  1  0  0  0  0
 25 48  1  0  0  0  0
 26 49  1  0  0  0  0
M  END
>  <DRUGBANK_ID>
DB04725

>  <COMMON_NAME>
Licofelone

>  <CAS_NUMBER>
156897-06-2

>  <UNII>
P5T6BYS22Y

>  <SYNONYMS>
Licofelone

$$$$
