
 OpenBabel10282417072D

 46 47  0  0  0  0  0  0  0  0999 V2000
    5.1757    0.2014    0.0000 C   0  0  0  0  0  0  0  0  0  0  0  0
    5.7158    0.8250    0.0000 C   0  0  0  0  0  0  0  0  0  0  0  0
    6.5259    0.6691    0.0000 C   0  0  0  0  0  0  0  0  0  0  0  0
   11.9268    0.3573    0.0000 C   0  0  0  0  0  0  0  0  0  0  0  0
   10.8466    3.4755    0.0000 C   0  0  0  0  0  0  0  0  0  0  0  0
   11.6567    1.1368    0.0000 C   0  0  0  0  0  0  0  0  0  0  0  0
   11.3867   -0.2664    0.0000 C   0  0  0  0  0  0  0  0  0  0  0  0
   10.0365    3.6314    0.0000 C   0  0  0  0  0  0  0  0  0  0  0  0
   11.1167    2.6959    0.0000 C   0  0  0  0  0  0  0  0  0  0  0  0
   10.8466    1.2927    0.0000 C   0  0  0  0  0  0  0  0  0  0  0  0
   10.5766   -0.1105    0.0000 C   0  0  0  0  0  0  0  0  0  0  0  0
    9.4964    3.0077    0.0000 C   0  0  0  0  0  0  0  0  0  0  0  0
   10.5766    2.0723    0.0000 C   0  0  0  0  0  0  0  0  0  0  0  0
    7.0660    1.2927    0.0000 C   0  0  0  0  0  0  0  0  0  0  0  0
   10.3065    0.6691    0.0000 C   0  0  0  0  0  0  0  0  0  0  0  0
    9.7664    2.2282    0.0000 C   0  0  0  0  0  0  0  0  0  0  0  0
    7.8761    1.1368    0.0000 C   0  0  3  0  0  0  0  0  0  0  0  0
    8.4162    1.7605    0.0000 C   0  0  0  0  0  0  0  0  0  0  0  0
    8.1462    0.3573    0.0000 C   0  0  0  0  0  0  0  0  0  0  0  0
    9.4964    0.8250    0.0000 N   0  0  0  0  0  0  0  0  0  0  0  0
    9.2263    1.6046    0.0000 N   0  0  0  0  0  0  0  0  0  0  0  0
    8.1462    2.5400    0.0000 O   0  0  0  0  0  0  0  0  0  0  0  0
    8.9563    0.2014    0.0000 O   0  0  0  0  0  0  0  0  0  0  0  0
    7.6061   -0.2664    0.0000 O   0  0  0  0  0  0  0  0  0  0  0  0
    4.1250    0.4037    0.0000 H   0  0  0  0  0  0  0  0  0  0  0  0
    5.5259   -0.8097    0.0000 H   0  0  0  0  0  0  0  0  0  0  0  0
    4.4752   -0.6074    0.0000 H   0  0  0  0  0  0  0  0  0  0  0  0
    5.3656    1.8361    0.0000 H   0  0  0  0  0  0  0  0  0  0  0  0
    6.4163    1.6338    0.0000 H   0  0  0  0  0  0  0  0  0  0  0  0
    6.8761   -0.3420    0.0000 H   0  0  0  0  0  0  0  0  0  0  0  0
    7.5766    0.4669    0.0000 H   0  0  0  0  0  0  0  0  0  0  0  0
   12.9402    0.1623    0.0000 H   0  0  0  0  0  0  0  0  0  0  0  0
   11.5222    4.2556    0.0000 H   0  0  0  0  0  0  0  0  0  0  0  0
   12.3323    1.9169    0.0000 H   0  0  0  0  0  0  0  0  0  0  0  0
   11.7245   -1.2415    0.0000 H   0  0  0  0  0  0  0  0  0  0  0  0
    9.6987    4.6065    0.0000 H   0  0  0  0  0  0  0  0  0  0  0  0
   12.1301    2.5009    0.0000 H   0  0  0  0  0  0  0  0  0  0  0  0
   10.5088    2.2679    0.0000 H   0  0  0  0  0  0  0  0  0  0  0  0
    9.9010   -0.8906    0.0000 H   0  0  0  0  0  0  0  0  0  0  0  0
    8.4830    3.2027    0.0000 H   0  0  0  0  0  0  0  0  0  0  0  0
   10.9144    1.0971    0.0000 H   0  0  0  0  0  0  0  0  0  0  0  0
    6.7158    2.3038    0.0000 H   0  0  0  0  0  0  0  0  0  0  0  0
    7.7665    2.1015    0.0000 H   0  0  0  0  0  0  0  0  0  0  0  0
    7.5258    2.1478    0.0000 H   0  0  0  0  0  0  0  0  0  0  0  0
    8.8519    0.0808    0.0000 H   0  0  0  0  0  0  0  0  0  0  0  0
    6.6860   -0.0894    0.0000 H   0  0  0  0  0  0  0  0  0  0  0  0
  1 25  1  0  0  0  0
  1 26  1  0  0  0  0
  1 27  1  0  0  0  0
  2  1  1  0  0  0  0
  2 28  1  0  0  0  0
  2 29  1  0  0  0  0
  3  2  1  0  0  0  0
  3 30  1  0  0  0  0
  3 31  1  0  0  0  0
  4 32  1  0  0  0  0
  5 33  1  0  0  0  0
  6  4  2  0  0  0  0
  6 34  1  0  0  0  0
  7  4  1  0  0  0  0
  7 35  1  0  0  0  0
  8  5  2  0  0  0  0
  8 36  1  0  0  0  0
  9  5  1  0  0  0  0
  9 37  1  0  0  0  0
 10  6  1  0  0  0  0
 10 38  1  0  0  0  0
 11  7  2  0  0  0  0
 11 39  1  0  0  0  0
 12  8  1  0  0  0  0
 12 40  1  0  0  0  0
 13  9  2  0  0  0  0
 13 41  1  0  0  0  0
 14  3  1  0  0  0  0
 14 42  1  0  0  0  0
 14 43  1  0  0  0  0
 15 10  2  0  0  0  0
 15 11  1  0  0  0  0
 16 12  2  0  0  0  0
 16 13  1  0  0  0  0
 17 14  1  0  0  0  0
 17 44  1  0  0  0  0
 18 17  1  0  0  0  0
 19 17  1  0  0  0  0
 20 15  1  0  0  0  0
 20 45  1  0  0  0  0
 21 16  1  0  0  0  0
 21 18  1  0  0  0  0
 21 20  1  0  0  0  0
 22 18  2  0  0  0  0
 23 19  2  0  0  0  0
 24 19  1  0  0  0  0
 24 46  1  0  0  0  0
M  END
>  <DRUGBANK_ID>
DB13286

>  <COMMON_NAME>
Bumadizone

>  <CAS_NUMBER>
3583-64-0

>  <UNII>
ATD81G944M

>  <SYNONYMS>
bumadizona; Bumadizone

$$$$
