
 OpenBabel10282417072D

 49 50  0  0  0  0  0  0  0  0999 V2000
    1.4289   -4.1250    0.0000 C   0  0  0  0  0  0  0  0  0  0  0  0
    2.1434   -3.7125    0.0000 C   0  0  0  0  0  0  0  0  0  0  0  0
    2.1434   -2.8875    0.0000 C   0  0  0  0  0  0  0  0  0  0  0  0
    1.4289   -2.4750    0.0000 C   0  0  0  0  0  0  0  0  0  0  0  0
    1.4289   -1.6500    0.0000 C   0  0  0  0  0  0  0  0  0  0  0  0
    0.7145   -1.2375    0.0000 C   0  0  0  0  0  0  0  0  0  0  0  0
    0.0000   -1.6500    0.0000 O   0  0  0  0  0  0  0  0  0  0  0  0
    0.7145   -0.4125    0.0000 N   0  0  0  0  0  0  0  0  0  0  0  0
    0.0000    0.0000    0.0000 C   0  0  0  0  0  0  0  0  0  0  0  0
    0.0000    0.8250    0.0000 C   0  0  0  0  0  0  0  0  0  0  0  0
    0.7145    1.2375    0.0000 N   0  0  0  0  0  0  0  0  0  0  0  0
    1.4289    0.8250    0.0000 C   0  0  0  0  0  0  0  0  0  0  0  0
    1.4289    0.0000    0.0000 C   0  0  0  0  0  0  0  0  0  0  0  0
    0.7145    2.0625    0.0000 C   0  0  0  0  0  0  0  0  0  0  0  0
    1.4289    2.4750    0.0000 N   0  0  0  0  0  0  0  0  0  0  0  0
    0.0000    2.4750    0.0000 O   0  0  0  0  0  0  0  0  0  0  0  0
    2.8579   -2.4750    0.0000 C   0  0  0  0  0  0  0  0  0  0  0  0
    2.3276   -1.8430    0.0000 C   0  0  0  0  0  0  0  0  0  0  0  0
    3.3882   -1.8430    0.0000 C   0  0  0  0  0  0  0  0  0  0  0  0
    3.5724   -2.8875    0.0000 C   0  0  0  0  0  0  0  0  0  0  0  0
    3.5724   -3.7125    0.0000 C   0  0  0  0  0  0  0  0  0  0  0  0
    2.8579   -4.1250    0.0000 C   0  0  0  0  0  0  0  0  0  0  0  0
    0.5023   -3.5900    0.0000 H   0  0  0  0  0  0  0  0  0  0  0  0
    1.4289   -5.1950    0.0000 H   0  0  0  0  0  0  0  0  0  0  0  0
    0.5022   -4.6600    0.0000 H   0  0  0  0  0  0  0  0  0  0  0  0
    0.5352   -2.9910    0.0000 H   0  0  0  0  0  0  0  0  0  0  0  0
    2.3226   -1.1340    0.0000 H   0  0  0  0  0  0  0  0  0  0  0  0
   -0.9266   -0.5350    0.0000 H   0  0  0  0  0  0  0  0  0  0  0  0
   -0.9266    0.5350    0.0000 H   0  0  0  0  0  0  0  0  0  0  0  0
   -0.9266    1.3600    0.0000 H   0  0  0  0  0  0  0  0  0  0  0  0
    0.0000    1.8950    0.0000 H   0  0  0  0  0  0  0  0  0  0  0  0
    2.3556    1.3600    0.0000 H   0  0  0  0  0  0  0  0  0  0  0  0
    2.3555    0.2900    0.0000 H   0  0  0  0  0  0  0  0  0  0  0  0
    2.3556   -0.5350    0.0000 H   0  0  0  0  0  0  0  0  0  0  0  0
    1.4289   -1.0700    0.0000 H   0  0  0  0  0  0  0  0  0  0  0  0
    2.2815    1.9828    0.0000 H   0  0  0  0  0  0  0  0  0  0  0  0
    1.4289    3.4595    0.0000 H   0  0  0  0  0  0  0  0  0  0  0  0
    2.6936   -0.8375    0.0000 H   0  0  0  0  0  0  0  0  0  0  0  0
    1.2739   -2.0288    0.0000 H   0  0  0  0  0  0  0  0  0  0  0  0
    1.6398   -1.0233    0.0000 H   0  0  0  0  0  0  0  0  0  0  0  0
    4.4419   -2.0288    0.0000 H   0  0  0  0  0  0  0  0  0  0  0  0
    3.0222   -0.8375    0.0000 H   0  0  0  0  0  0  0  0  0  0  0  0
    4.0760   -1.0233    0.0000 H   0  0  0  0  0  0  0  0  0  0  0  0
    4.4990   -2.3525    0.0000 H   0  0  0  0  0  0  0  0  0  0  0  0
    4.4990   -3.4225    0.0000 H   0  0  0  0  0  0  0  0  0  0  0  0
    4.4990   -4.2475    0.0000 H   0  0  0  0  0  0  0  0  0  0  0  0
    3.5724   -4.7825    0.0000 H   0  0  0  0  0  0  0  0  0  0  0  0
    2.8579   -5.1950    0.0000 H   0  0  0  0  0  0  0  0  0  0  0  0
    1.9313   -4.6600    0.0000 H   0  0  0  0  0  0  0  0  0  0  0  0
  1  2  1  0  0  0  0
  1 23  1  0  0  0  0
  1 24  1  0  0  0  0
  1 25  1  0  0  0  0
  2  3  2  0  0  0  0
  2 22  1  0  0  0  0
  3  4  1  0  0  0  0
  3 17  1  0  0  0  0
  4  5  2  0  0  0  0
  4 26  1  0  0  0  0
  5  6  1  0  0  0  0
  5 27  1  0  0  0  0
  6  7  2  0  0  0  0
  6  8  1  0  0  0  0
  8  9  1  0  0  0  0
  8 13  1  0  0  0  0
  9 10  1  0  0  0  0
  9 28  1  0  0  0  0
  9 29  1  0  0  0  0
 10 11  1  0  0  0  0
 10 30  1  0  0  0  0
 10 31  1  0  0  0  0
 11 12  1  0  0  0  0
 11 14  1  0  0  0  0
 12 13  1  0  0  0  0
 12 32  1  0  0  0  0
 12 33  1  0  0  0  0
 13 34  1  0  0  0  0
 13 35  1  0  0  0  0
 14 15  1  0  0  0  0
 14 16  2  0  0  0  0
 15 36  1  0  0  0  0
 15 37  1  0  0  0  0
 17 18  1  0  0  0  0
 17 19  1  0  0  0  0
 17 20  1  0  0  0  0
 18 38  1  0  0  0  0
 18 39  1  0  0  0  0
 18 40  1  0  0  0  0
 19 41  1  0  0  0  0
 19 42  1  0  0  0  0
 19 43  1  0  0  0  0
 20 21  1  0  0  0  0
 20 44  1  0  0  0  0
 20 45  1  0  0  0  0
 21 22  1  0  0  0  0
 21 46  1  0  0  0  0
 21 47  1  0  0  0  0
 22 48  1  0  0  0  0
 22 49  1  0  0  0  0
M  END
>  <DRUGBANK_ID>
DB17820

>  <COMMON_NAME>
BC9KBY85WY

>  <CAS_NUMBER>
1259013-14-3

>  <UNII>
BC9KBY85WY

>  <SYNONYMS>
1-piperazinecarboxamide, 4-((2e)-1-oxo-3-(2,6,6-trimethyl-1-cyclohexen-1-yl)-2-propen-1-yl)-; 4-((2E)-1-Oxo-3-(2,6,6-trimethyl-1-cyclohexen-1-yl)-2-propen-1-yl)-1-piperazinecarboxamide

$$$$
