
 OpenBabel10282417072D

  1  0  0  0  0  0  0  0  0  0999 V2000
    0.0000    0.0000    0.0000 Sr  0  2  0  0  0  0  0  0  0  0  0  0
M  ISO  1   1  89
M  CHG  1   1   2
M  END
>  <DRUGBANK_ID>
DB14536

>  <COMMON_NAME>
Strontium cation Sr-89

>  <UNII>
06A33308KH

>  <SYNONYMS>
Strontium (89Sr) cation; Strontium Sr-89 cation; Strontium-89

$$$$
