
 OpenBabel10282417072D

 57 60  0  0  1  0  0  0  0  0999 V2000
    6.9436    0.6263    0.0000 C   0  0  0  0  0  0  0  0  0  0  0  0
    6.1315    0.4811    0.0000 C   0  0  1  0  0  0  0  0  0  0  0  0
    5.5996    1.1118    0.0000 C   0  0  0  0  0  0  0  0  0  0  0  0
    5.8799    1.8877    0.0000 O   0  0  0  0  0  0  0  0  0  0  0  0
    4.7875    0.9666    0.0000 C   0  0  1  0  0  0  0  0  0  0  0  0
    5.0168    0.1741    0.0000 C   0  0  0  0  0  0  0  0  0  0  0  0
    4.3340   -0.2889    0.0000 C   0  0  0  0  0  0  0  0  0  0  0  0
    3.6826    0.2174    0.0000 C   0  0  2  0  0  0  0  0  0  0  0  0
    3.9629    0.9934    0.0000 C   0  0  2  0  0  0  0  0  0  0  0  0
    3.4311    1.6241    0.0000 C   0  0  0  0  0  0  0  0  0  0  0  0
    2.6190    1.4789    0.0000 C   0  0  1  0  0  0  0  0  0  0  0  0
    2.3387    0.7029    0.0000 C   0  0  1  0  0  0  0  0  0  0  0  0
    2.8705    0.0722    0.0000 C   0  0  1  0  0  0  0  0  0  0  0  0
    2.5902   -0.7037    0.0000 C   0  0  0  0  0  0  0  0  0  0  0  0
    1.7781   -0.8489    0.0000 C   0  0  0  0  0  0  0  0  0  0  0  0
    1.2463   -0.2182    0.0000 C   0  0  0  0  0  0  0  0  0  0  0  0
    0.4342   -0.3634    0.0000 C   0  0  0  0  0  0  0  0  0  0  0  0
   -0.0976    0.2673    0.0000 C   0  0  0  0  0  0  0  0  0  0  0  0
   -0.9098    0.1221    0.0000 O   0  0  0  0  0  0  0  0  0  0  0  0
    0.1827    1.0432    0.0000 C   0  0  0  0  0  0  0  0  0  0  0  0
    0.9948    1.1884    0.0000 C   0  0  0  0  0  0  0  0  0  0  0  0
    1.5266    0.5577    0.0000 C   0  0  2  0  0  0  0  0  0  0  0  0
    1.8069    1.3336    0.0000 C   0  0  0  0  0  0  0  0  0  0  0  0
    2.2792    1.5258    0.0000 F   0  0  0  0  0  0  0  0  0  0  0  0
    2.0872    2.1096    0.0000 O   0  0  0  0  0  0  0  0  0  0  0  0
    4.3228    1.7357    0.0000 C   0  0  0  0  0  0  0  0  0  0  0  0
    4.7280    1.7894    0.0000 O   0  0  0  0  0  0  0  0  0  0  0  0
    5.8512   -0.2949    0.0000 O   0  0  0  0  0  0  0  0  0  0  0  0
    7.6333   -0.1917    0.0000 H   0  0  0  0  0  0  0  0  0  0  0  0
    7.3072    1.6326    0.0000 H   0  0  0  0  0  0  0  0  0  0  0  0
    7.9969    0.8146    0.0000 H   0  0  0  0  0  0  0  0  0  0  0  0
    6.8213   -0.3369    0.0000 H   0  0  0  0  0  0  0  0  0  0  0  0
    6.0232   -0.1894    0.0000 H   0  0  0  0  0  0  0  0  0  0  0  0
    5.1498   -0.8876    0.0000 H   0  0  0  0  0  0  0  0  0  0  0  0
    4.2993   -1.3583    0.0000 H   0  0  0  0  0  0  0  0  0  0  0  0
    3.3654   -0.7435    0.0000 H   0  0  0  0  0  0  0  0  0  0  0  0
    4.7104    0.5149    0.0000 H   0  0  0  0  0  0  0  0  0  0  0  0
    3.7947    2.6304    0.0000 H   0  0  0  0  0  0  0  0  0  0  0  0
    2.7414    2.4421    0.0000 H   0  0  0  0  0  0  0  0  0  0  0  0
    2.9826    2.4852    0.0000 H   0  0  0  0  0  0  0  0  0  0  0  0
    1.8172   -0.1161    0.0000 H   0  0  0  0  0  0  0  0  0  0  0  0
    3.2799   -1.5217    0.0000 H   0  0  0  0  0  0  0  0  0  0  0  0
    2.2266   -1.7100    0.0000 H   0  0  0  0  0  0  0  0  0  0  0  0
    1.4145   -1.8552    0.0000 H   0  0  0  0  0  0  0  0  0  0  0  0
    0.7248   -1.0372    0.0000 H   0  0  0  0  0  0  0  0  0  0  0  0
    0.0836   -1.3340    0.0000 H   0  0  0  0  0  0  0  0  0  0  0  0
   -0.4825    1.8322    0.0000 H   0  0  0  0  0  0  0  0  0  0  0  0
    1.3454    2.1590    0.0000 H   0  0  0  0  0  0  0  0  0  0  0  0
    2.8602    1.5219    0.0000 H   0  0  0  0  0  0  0  0  0  0  0  0
    1.1172    2.1516    0.0000 H   0  0  0  0  0  0  0  0  0  0  0  0
    2.1705    2.3399    0.0000 H   0  0  0  0  0  0  0  0  0  0  0  0
    2.4168    3.0219    0.0000 H   0  0  0  0  0  0  0  0  0  0  0  0
    5.3900    1.8128    0.0000 H   0  0  0  0  0  0  0  0  0  0  0  0
    3.7224    2.6214    0.0000 H   0  0  0  0  0  0  0  0  0  0  0  0
    4.7896    2.6985    0.0000 H   0  0  0  0  0  0  0  0  0  0  0  0
    5.5309    2.3337    0.0000 H   0  0  0  0  0  0  0  0  0  0  0  0
    4.8964   -0.4657    0.0000 H   0  0  0  0  0  0  0  0  0  0  0  0
  1  2  1  0  0  0  0
  1 29  1  0  0  0  0
  1 30  1  0  0  0  0
  1 31  1  0  0  0  0
  2  3  1  0  0  0  0
  2 28  1  0  0  0  0
  2 32  1  1  0  0  0
  3  4  2  0  0  0  0
  5  3  1  1  0  0  0
  5  6  1  0  0  0  0
  5  9  1  0  0  0  0
  5 27  1  0  0  0  0
  6  7  1  0  0  0  0
  6 33  1  0  0  0  0
  6 34  1  0  0  0  0
  7 35  1  0  0  0  0
  7 36  1  0  0  0  0
  8  7  1  0  0  0  0
  8  9  1  0  0  0  0
  8 13  1  0  0  0  0
  8 37  1  6  0  0  0
  9 10  1  0  0  0  0
  9 26  1  1  0  0  0
 10 11  1  0  0  0  0
 10 38  1  0  0  0  0
 10 39  1  0  0  0  0
 11 12  1  0  0  0  0
 11 25  1  0  0  0  0
 11 40  1  6  0  0  0
 12 13  1  0  0  0  0
 12 22  1  0  0  0  0
 12 24  1  6  0  0  0
 13 14  1  0  0  0  0
 13 41  1  1  0  0  0
 14 15  1  0  0  0  0
 14 42  1  0  0  0  0
 14 43  1  0  0  0  0
 15 16  1  0  0  0  0
 15 44  1  0  0  0  0
 15 45  1  0  0  0  0
 16 17  2  0  0  0  0
 16 22  1  0  0  0  0
 17 18  1  0  0  0  0
 17 46  1  0  0  0  0
 18 19  2  0  0  0  0
 18 20  1  0  0  0  0
 20 21  2  0  0  0  0
 20 47  1  0  0  0  0
 21 22  1  0  0  0  0
 21 48  1  0  0  0  0
 22 23  1  1  0  0  0
 23 49  1  0  0  0  0
 23 50  1  0  0  0  0
 23 51  1  0  0  0  0
 25 52  1  0  0  0  0
 26 53  1  0  0  0  0
 26 54  1  0  0  0  0
 26 55  1  0  0  0  0
 27 56  1  0  0  0  0
 28 57  1  0  0  0  0
M  END
>  <DRUGBANK_ID>
DB13491

>  <COMMON_NAME>
Fluperolone

>  <CAS_NUMBER>
3841-11-0

>  <UNII>
S33056JLS5

>  <SYNONYMS>
Fluperolone

$$$$
