
 OpenBabel10282417072D

 50 51  0  0  0  0  0  0  0  0999 V2000
    0.3488   -4.0145    0.0000 C   0  0  0  0  0  0  0  0  0  0  0  0
    1.1589   -4.1704    0.0000 C   0  0  0  0  0  0  0  0  0  0  0  0
    1.6990   -3.5468    0.0000 O   0  0  0  0  0  0  0  0  0  0  0  0
    1.4289   -4.9500    0.0000 S   0  0  0  0  0  0  0  0  0  0  0  0
    0.8889   -5.5736    0.0000 C   0  0  0  0  0  0  0  0  0  0  0  0
    1.1589   -6.3532    0.0000 C   0  0  3  0  0  0  0  0  0  0  0  0
    0.6188   -6.9768    0.0000 C   0  0  0  0  0  0  0  0  0  0  0  0
   -0.1913   -6.8209    0.0000 C   0  0  0  0  0  0  0  0  0  0  0  0
   -0.7314   -7.4446    0.0000 C   0  0  0  0  0  0  0  0  0  0  0  0
   -1.5415   -7.2887    0.0000 C   0  0  0  0  0  0  0  0  0  0  0  0
   -1.8116   -6.5091    0.0000 C   0  0  0  0  0  0  0  0  0  0  0  0
   -1.2715   -5.8855    0.0000 C   0  0  0  0  0  0  0  0  0  0  0  0
   -0.4614   -6.0414    0.0000 C   0  0  0  0  0  0  0  0  0  0  0  0
    1.9690   -6.5091    0.0000 C   0  0  0  0  0  0  0  0  0  0  0  0
    2.2391   -7.2887    0.0000 O   0  0  0  0  0  0  0  0  0  0  0  0
    2.5091   -5.8855    0.0000 N   0  0  0  0  0  0  0  0  0  0  0  0
    3.3193   -6.0414    0.0000 C   0  0  0  0  0  0  0  0  0  0  0  0
    3.8593   -5.4177    0.0000 C   0  0  0  0  0  0  0  0  0  0  0  0
    3.5893   -4.6382    0.0000 O   0  0  0  0  0  0  0  0  0  0  0  0
    4.6695   -5.5736    0.0000 O   0  0  0  0  0  0  0  0  0  0  0  0
    5.2096   -4.9500    0.0000 C   0  0  0  0  0  0  0  0  0  0  0  0
    6.0197   -5.1059    0.0000 C   0  0  0  0  0  0  0  0  0  0  0  0
    6.5598   -4.4823    0.0000 C   0  0  0  0  0  0  0  0  0  0  0  0
    7.3699   -4.6382    0.0000 C   0  0  0  0  0  0  0  0  0  0  0  0
    7.6400   -5.4177    0.0000 C   0  0  0  0  0  0  0  0  0  0  0  0
    7.0999   -6.0414    0.0000 C   0  0  0  0  0  0  0  0  0  0  0  0
    6.2897   -5.8855    0.0000 C   0  0  0  0  0  0  0  0  0  0  0  0
   -0.0014   -3.0034    0.0000 H   0  0  0  0  0  0  0  0  0  0  0  0
   -0.3517   -4.8233    0.0000 H   0  0  0  0  0  0  0  0  0  0  0  0
   -0.7019   -3.8123    0.0000 H   0  0  0  0  0  0  0  0  0  0  0  0
   -0.1618   -5.3714    0.0000 H   0  0  0  0  0  0  0  0  0  0  0  0
    0.1884   -6.3824    0.0000 H   0  0  0  0  0  0  0  0  0  0  0  0
    0.1082   -6.1509    0.0000 H   0  0  0  0  0  0  0  0  0  0  0  0
    0.9690   -7.9879    0.0000 H   0  0  0  0  0  0  0  0  0  0  0  0
   -0.0817   -7.7856    0.0000 H   0  0  0  0  0  0  0  0  0  0  0  0
   -0.3936   -8.4197    0.0000 H   0  0  0  0  0  0  0  0  0  0  0  0
   -2.2171   -8.0688    0.0000 H   0  0  0  0  0  0  0  0  0  0  0  0
   -2.8250   -6.3141    0.0000 H   0  0  0  0  0  0  0  0  0  0  0  0
   -1.6093   -4.9103    0.0000 H   0  0  0  0  0  0  0  0  0  0  0  0
    0.2142   -5.2613    0.0000 H   0  0  0  0  0  0  0  0  0  0  0  0
    2.1869   -4.9552    0.0000 H   0  0  0  0  0  0  0  0  0  0  0  0
    3.6696   -7.0524    0.0000 H   0  0  0  0  0  0  0  0  0  0  0  0
    4.3700   -6.2435    0.0000 H   0  0  0  0  0  0  0  0  0  0  0  0
    4.8594   -3.9389    0.0000 H   0  0  0  0  0  0  0  0  0  0  0  0
    5.9101   -4.1412    0.0000 H   0  0  0  0  0  0  0  0  0  0  0  0
    6.2220   -3.5071    0.0000 H   0  0  0  0  0  0  0  0  0  0  0  0
    8.0455   -3.8581    0.0000 H   0  0  0  0  0  0  0  0  0  0  0  0
    8.6534   -5.6127    0.0000 H   0  0  0  0  0  0  0  0  0  0  0  0
    7.4377   -7.0165    0.0000 H   0  0  0  0  0  0  0  0  0  0  0  0
    5.6141   -6.6656    0.0000 H   0  0  0  0  0  0  0  0  0  0  0  0
  1  2  1  0  0  0  0
  1 28  1  0  0  0  0
  1 29  1  0  0  0  0
  1 30  1  0  0  0  0
  2  3  2  0  0  0  0
  2  4  1  0  0  0  0
  4  5  1  0  0  0  0
  5  6  1  0  0  0  0
  5 31  1  0  0  0  0
  5 32  1  0  0  0  0
  6  7  1  0  0  0  0
  6 14  1  0  0  0  0
  6 33  1  0  0  0  0
  7  8  1  0  0  0  0
  7 34  1  0  0  0  0
  7 35  1  0  0  0  0
  8  9  2  0  0  0  0
  8 13  1  0  0  0  0
  9 10  1  0  0  0  0
  9 36  1  0  0  0  0
 10 11  2  0  0  0  0
 10 37  1  0  0  0  0
 11 12  1  0  0  0  0
 11 38  1  0  0  0  0
 12 13  2  0  0  0  0
 12 39  1  0  0  0  0
 13 40  1  0  0  0  0
 14 15  2  0  0  0  0
 14 16  1  0  0  0  0
 16 17  1  0  0  0  0
 16 41  1  0  0  0  0
 17 18  1  0  0  0  0
 17 42  1  0  0  0  0
 17 43  1  0  0  0  0
 18 19  2  0  0  0  0
 18 20  1  0  0  0  0
 20 21  1  0  0  0  0
 21 22  1  0  0  0  0
 21 44  1  0  0  0  0
 21 45  1  0  0  0  0
 22 23  2  0  0  0  0
 22 27  1  0  0  0  0
 23 24  1  0  0  0  0
 23 46  1  0  0  0  0
 24 25  2  0  0  0  0
 24 47  1  0  0  0  0
 25 26  1  0  0  0  0
 25 48  1  0  0  0  0
 26 27  2  0  0  0  0
 26 49  1  0  0  0  0
 27 50  1  0  0  0  0
M  END
>  <DRUGBANK_ID>
DB11696

>  <COMMON_NAME>
Racecadotril

>  <CAS_NUMBER>
81110-73-8

>  <UNII>
76K53XP4TO

>  <SYNONYMS>
Racecadotril; Racecadotrilo

$$$$
