EG3
 OpenBabel10282417072D

 63 64  0  0  0  0  0  0  0  0999 V2000
   -7.1302    1.2252    0.0000 S   0  0  0  0  0  0  0  0  0  0  0  0
   -7.8446    1.6377    0.0000 O   0  0  0  0  0  0  0  0  0  0  0  0
   -7.5427    0.5107    0.0000 O   0  0  0  0  0  0  0  0  0  0  0  0
   -6.7177    1.9397    0.0000 N   0  0  0  0  0  0  0  0  0  0  0  0
   -4.9867   -0.0123    0.0000 C   0  0  0  0  0  0  0  0  0  0  0  0
   -5.7012   -0.4248    0.0000 C   0  0  0  0  0  0  0  0  0  0  0  0
   -6.4157   -0.0123    0.0000 C   0  0  0  0  0  0  0  0  0  0  0  0
   -6.4157    0.8127    0.0000 C   0  0  0  0  0  0  0  0  0  0  0  0
   -5.7012    1.2252    0.0000 C   0  0  0  0  0  0  0  0  0  0  0  0
   -4.9867    0.8127    0.0000 C   0  0  0  0  0  0  0  0  0  0  0  0
   -4.2723   -0.4248    0.0000 C   0  0  0  0  0  0  0  0  0  0  0  0
   -4.2723   -1.2498    0.0000 O   0  0  0  0  0  0  0  0  0  0  0  0
   -3.5578   -0.0123    0.0000 N   0  0  0  0  0  0  0  0  0  0  0  0
   -2.8433   -0.4248    0.0000 C   0  0  0  0  0  0  0  0  0  0  0  0
   -2.1289   -0.0123    0.0000 C   0  0  0  0  0  0  0  0  0  0  0  0
   -1.4144   -0.4248    0.0000 O   0  0  0  0  0  0  0  0  0  0  0  0
   -0.6999   -0.0123    0.0000 C   0  0  0  0  0  0  0  0  0  0  0  0
    0.0145   -0.4248    0.0000 C   0  0  0  0  0  0  0  0  0  0  0  0
    0.7290   -0.0123    0.0000 O   0  0  0  0  0  0  0  0  0  0  0  0
    1.4435   -0.4248    0.0000 C   0  0  0  0  0  0  0  0  0  0  0  0
    2.1580   -0.0123    0.0000 C   0  0  0  0  0  0  0  0  0  0  0  0
    2.8724   -0.4248    0.0000 N   0  0  0  0  0  0  0  0  0  0  0  0
    3.5869   -0.0123    0.0000 C   0  0  0  0  0  0  0  0  0  0  0  0
    3.5869    0.8127    0.0000 O   0  0  0  0  0  0  0  0  0  0  0  0
    4.3014   -0.4248    0.0000 C   0  0  1  0  0  0  0  0  0  0  0  0
    4.3014   -1.2498    0.0000 N   0  0  0  0  0  0  0  0  0  0  0  0
    5.0158   -0.0123    0.0000 C   0  0  0  0  0  0  0  0  0  0  0  0
    5.7303   -0.4248    0.0000 C   0  0  0  0  0  0  0  0  0  0  0  0
    6.4448   -0.0123    0.0000 C   0  0  0  0  0  0  0  0  0  0  0  0
    7.1593   -0.4248    0.0000 C   0  0  0  0  0  0  0  0  0  0  0  0
    7.1593   -1.2498    0.0000 C   0  0  0  0  0  0  0  0  0  0  0  0
    6.4448   -1.6623    0.0000 C   0  0  0  0  0  0  0  0  0  0  0  0
    5.7303   -1.2498    0.0000 C   0  0  0  0  0  0  0  0  0  0  0  0
    3.7957   -0.7168    0.0000 H   0  0  0  0  0  0  0  0  0  0  0  0
   -5.6977    1.9397    0.0000 H   0  0  0  0  0  0  0  0  0  0  0  0
   -7.2277    2.8230    0.0000 H   0  0  0  0  0  0  0  0  0  0  0  0
   -5.7012   -1.4568    0.0000 H   0  0  0  0  0  0  0  0  0  0  0  0
   -7.3094   -0.5283    0.0000 H   0  0  0  0  0  0  0  0  0  0  0  0
   -5.7012    2.2572    0.0000 H   0  0  0  0  0  0  0  0  0  0  0  0
   -4.0930    1.3287    0.0000 H   0  0  0  0  0  0  0  0  0  0  0  0
   -3.5578    0.9722    0.0000 H   0  0  0  0  0  0  0  0  0  0  0  0
   -2.8433   -1.4948    0.0000 H   0  0  0  0  0  0  0  0  0  0  0  0
   -1.9166   -0.9598    0.0000 H   0  0  0  0  0  0  0  0  0  0  0  0
   -2.1289    1.0577    0.0000 H   0  0  0  0  0  0  0  0  0  0  0  0
   -1.2023    0.5227    0.0000 H   0  0  0  0  0  0  0  0  0  0  0  0
   -0.6999    1.0577    0.0000 H   0  0  0  0  0  0  0  0  0  0  0  0
    0.2268    0.5227    0.0000 H   0  0  0  0  0  0  0  0  0  0  0  0
    0.0145   -1.4948    0.0000 H   0  0  0  0  0  0  0  0  0  0  0  0
    0.9411   -0.9598    0.0000 H   0  0  0  0  0  0  0  0  0  0  0  0
    1.4435   -1.4948    0.0000 H   0  0  0  0  0  0  0  0  0  0  0  0
    2.3701   -0.9598    0.0000 H   0  0  0  0  0  0  0  0  0  0  0  0
    2.1580    1.0577    0.0000 H   0  0  0  0  0  0  0  0  0  0  0  0
    3.0847    0.5227    0.0000 H   0  0  0  0  0  0  0  0  0  0  0  0
    2.8724   -1.4093    0.0000 H   0  0  0  0  0  0  0  0  0  0  0  0
    3.4181   -1.7598    0.0000 H   0  0  0  0  0  0  0  0  0  0  0  0
    5.1847   -1.7598    0.0000 H   0  0  0  0  0  0  0  0  0  0  0  0
    5.0158    1.0577    0.0000 H   0  0  0  0  0  0  0  0  0  0  0  0
    5.9424    0.5227    0.0000 H   0  0  0  0  0  0  0  0  0  0  0  0
    6.4448    1.0197    0.0000 H   0  0  0  0  0  0  0  0  0  0  0  0
    8.0530    0.0912    0.0000 H   0  0  0  0  0  0  0  0  0  0  0  0
    8.0530   -1.7658    0.0000 H   0  0  0  0  0  0  0  0  0  0  0  0
    6.4448   -2.6943    0.0000 H   0  0  0  0  0  0  0  0  0  0  0  0
    4.8366   -1.7658    0.0000 H   0  0  0  0  0  0  0  0  0  0  0  0
  1  2  2  0  0  0  0
  1  3  2  0  0  0  0
  1  4  1  0  0  0  0
  1  8  1  0  0  0  0
  4 35  1  0  0  0  0
  4 36  1  0  0  0  0
  5  6  2  0  0  0  0
  5 10  1  0  0  0  0
  5 11  1  0  0  0  0
  6  7  1  0  0  0  0
  6 37  1  0  0  0  0
  7  8  2  0  0  0  0
  7 38  1  0  0  0  0
  8  9  1  0  0  0  0
  9 10  2  0  0  0  0
  9 39  1  0  0  0  0
 10 40  1  0  0  0  0
 11 12  2  0  0  0  0
 11 13  1  0  0  0  0
 13 14  1  0  0  0  0
 13 41  1  0  0  0  0
 14 15  1  0  0  0  0
 14 42  1  0  0  0  0
 14 43  1  0  0  0  0
 15 16  1  0  0  0  0
 15 44  1  0  0  0  0
 15 45  1  0  0  0  0
 16 17  1  0  0  0  0
 17 18  1  0  0  0  0
 17 46  1  0  0  0  0
 17 47  1  0  0  0  0
 18 19  1  0  0  0  0
 18 48  1  0  0  0  0
 18 49  1  0  0  0  0
 19 20  1  0  0  0  0
 20 21  1  0  0  0  0
 20 50  1  0  0  0  0
 20 51  1  0  0  0  0
 21 22  1  0  0  0  0
 21 52  1  0  0  0  0
 21 53  1  0  0  0  0
 22 23  1  0  0  0  0
 22 54  1  0  0  0  0
 23 24  2  0  0  0  0
 23 25  1  0  0  0  0
 25 26  1  0  0  0  0
 25 27  1  0  0  0  0
 25 34  1  1  0  0  0
 26 55  1  0  0  0  0
 26 56  1  0  0  0  0
 27 28  1  0  0  0  0
 27 57  1  0  0  0  0
 27 58  1  0  0  0  0
 28 29  2  0  0  0  0
 28 33  1  0  0  0  0
 29 30  1  0  0  0  0
 29 59  1  0  0  0  0
 30 31  2  0  0  0  0
 30 60  1  0  0  0  0
 31 32  1  0  0  0  0
 31 61  1  0  0  0  0
 32 33  2  0  0  0  0
 32 62  1  0  0  0  0
 33 63  1  0  0  0  0
M  END
>  <DRUGBANK_ID>
DB07710

>  <COMMON_NAME>
PHENYLALANYLAMINODI(ETHYLOXY)ETHYL BENZENESULFONAMIDEAMINOCARBONYLBENZENESULFONAMIDE

$$$$
