MUH
 OpenBabel10282417072D

 51 54  0  0  0  0  0  0  0  0999 V2000
    4.3178   -1.2454    0.0000 C   0  0  0  0  0  0  0  0  0  0  0  0
    3.6033   -1.6579    0.0000 C   0  0  0  0  0  0  0  0  0  0  0  0
    3.6033   -2.4829    0.0000 C   0  0  0  0  0  0  0  0  0  0  0  0
    4.3178   -2.8954    0.0000 C   0  0  0  0  0  0  0  0  0  0  0  0
    5.0323   -2.4829    0.0000 C   0  0  0  0  0  0  0  0  0  0  0  0
    5.0323   -1.6579    0.0000 C   0  0  0  0  0  0  0  0  0  0  0  0
    4.3178   -3.7204    0.0000 C   0  0  0  0  0  0  0  0  0  0  0  0
    4.3178   -0.4204    0.0000 N   0  0  0  0  0  0  0  0  0  0  0  0
    5.0323   -0.0079    0.0000 C   0  0  0  0  0  0  0  0  0  0  0  0
    4.3178    1.2296    0.0000 C   0  0  0  0  0  0  0  0  0  0  0  0
    5.0323    0.8171    0.0000 C   0  0  0  0  0  0  0  0  0  0  0  0
    5.7468    1.2296    0.0000 C   0  0  0  0  0  0  0  0  0  0  0  0
    5.7468    2.0546    0.0000 C   0  0  0  0  0  0  0  0  0  0  0  0
    5.0323    2.4671    0.0000 C   0  0  0  0  0  0  0  0  0  0  0  0
    4.3178    2.0546    0.0000 C   0  0  0  0  0  0  0  0  0  0  0  0
    6.4612    2.4671    0.0000 C   0  0  0  0  0  0  0  0  0  0  0  0
    7.1757    2.8796    0.0000 F   0  0  0  0  0  0  0  0  0  0  0  0
    6.0487    3.1816    0.0000 F   0  0  0  0  0  0  0  0  0  0  0  0
    6.8737    1.7526    0.0000 F   0  0  0  0  0  0  0  0  0  0  0  0
    2.8889   -2.8954    0.0000 N   0  0  0  0  0  0  0  0  0  0  0  0
    2.1744   -4.1329    0.0000 C   0  0  0  0  0  0  0  0  0  0  0  0
    2.1744   -4.9579    0.0000 C   0  0  0  0  0  0  0  0  0  0  0  0
    2.8889   -5.3704    0.0000 C   0  0  0  0  0  0  0  0  0  0  0  0
    3.6033   -4.9579    0.0000 C   0  0  0  0  0  0  0  0  0  0  0  0
    3.6033   -4.1329    0.0000 N   0  0  0  0  0  0  0  0  0  0  0  0
    2.8889   -3.7204    0.0000 C   0  0  0  0  0  0  0  0  0  0  0  0
    1.4599   -2.8954    0.0000 C   0  0  0  0  0  0  0  0  0  0  0  0
    0.7455   -2.4829    0.0000 C   0  0  0  0  0  0  0  0  0  0  0  0
    0.0310   -2.8954    0.0000 N   0  0  0  0  0  0  0  0  0  0  0  0
    0.0310   -3.7204    0.0000 C   0  0  0  0  0  0  0  0  0  0  0  0
    0.7455   -4.1329    0.0000 N   0  0  0  0  0  0  0  0  0  0  0  0
    1.4599   -3.7204    0.0000 C   0  0  0  0  0  0  0  0  0  0  0  0
    5.7468   -0.4204    0.0000 O   0  0  0  0  0  0  0  0  0  0  0  0
    2.7096   -1.1419    0.0000 H   0  0  0  0  0  0  0  0  0  0  0  0
    5.9260   -2.9989    0.0000 H   0  0  0  0  0  0  0  0  0  0  0  0
    5.9260   -1.1419    0.0000 H   0  0  0  0  0  0  0  0  0  0  0  0
    3.3912   -4.2554    0.0000 H   0  0  0  0  0  0  0  0  0  0  0  0
    5.2444   -4.2554    0.0000 H   0  0  0  0  0  0  0  0  0  0  0  0
    4.3178   -4.7904    0.0000 H   0  0  0  0  0  0  0  0  0  0  0  0
    3.4652    0.0719    0.0000 H   0  0  0  0  0  0  0  0  0  0  0  0
    3.4241    0.7136    0.0000 H   0  0  0  0  0  0  0  0  0  0  0  0
    6.6405    0.7136    0.0000 H   0  0  0  0  0  0  0  0  0  0  0  0
    5.0323    3.4991    0.0000 H   0  0  0  0  0  0  0  0  0  0  0  0
    3.4241    2.5706    0.0000 H   0  0  0  0  0  0  0  0  0  0  0  0
    2.0363   -2.4032    0.0000 H   0  0  0  0  0  0  0  0  0  0  0  0
    1.2807   -5.4739    0.0000 H   0  0  0  0  0  0  0  0  0  0  0  0
    2.8889   -6.4024    0.0000 H   0  0  0  0  0  0  0  0  0  0  0  0
    4.4970   -5.4739    0.0000 H   0  0  0  0  0  0  0  0  0  0  0  0
    2.3536   -2.3794    0.0000 H   0  0  0  0  0  0  0  0  0  0  0  0
    0.7455   -1.4509    0.0000 H   0  0  0  0  0  0  0  0  0  0  0  0
   -0.8627   -4.2364    0.0000 H   0  0  0  0  0  0  0  0  0  0  0  0
  1  8  1  0  0  0  0
  1  6  2  0  0  0  0
  1  2  1  0  0  0  0
  2  3  2  0  0  0  0
  2 34  1  0  0  0  0
  3  4  1  0  0  0  0
  3 20  1  0  0  0  0
  4  5  2  0  0  0  0
  4  7  1  0  0  0  0
  5  6  1  0  0  0  0
  5 35  1  0  0  0  0
  6 36  1  0  0  0  0
  7 37  1  0  0  0  0
  7 38  1  0  0  0  0
  7 39  1  0  0  0  0
  8  9  1  0  0  0  0
  8 40  1  0  0  0  0
  9 11  1  0  0  0  0
  9 33  2  0  0  0  0
 10 15  1  0  0  0  0
 10 11  2  0  0  0  0
 10 41  1  0  0  0  0
 11 12  1  0  0  0  0
 12 13  2  0  0  0  0
 12 42  1  0  0  0  0
 13 14  1  0  0  0  0
 13 16  1  0  0  0  0
 14 15  2  0  0  0  0
 14 43  1  0  0  0  0
 15 44  1  0  0  0  0
 16 17  1  0  0  0  0
 16 18  1  0  0  0  0
 16 19  1  0  0  0  0
 20 26  1  0  0  0  0
 20 45  1  0  0  0  0
 21 26  1  0  0  0  0
 21 32  1  0  0  0  0
 21 22  2  0  0  0  0
 22 23  1  0  0  0  0
 22 46  1  0  0  0  0
 23 24  2  0  0  0  0
 23 47  1  0  0  0  0
 24 25  1  0  0  0  0
 24 48  1  0  0  0  0
 25 26  2  0  0  0  0
 27 32  2  0  0  0  0
 27 28  1  0  0  0  0
 27 49  1  0  0  0  0
 28 29  2  0  0  0  0
 28 50  1  0  0  0  0
 29 30  1  0  0  0  0
 30 31  2  0  0  0  0
 30 51  1  0  0  0  0
 31 32  1  0  0  0  0
M  END
>  <DRUGBANK_ID>
DB08221

>  <COMMON_NAME>
N-{4-METHYL-3-[(3-PYRIMIDIN-4-YLPYRIDIN-2-YL)AMINO]PHENYL}-3-(TRIFLUOROMETHYL)BENZAMIDE

$$$$
