
 OpenBabel10282417072D

 45 45  0  0  0  0  0  0  0  0999 V2000
   -0.0207   -0.2077    0.0000 C   0  0  0  0  0  0  0  0  0  0  0  0
   -0.7269   -0.6230    0.0000 C   0  0  0  0  0  0  0  0  0  0  0  0
   -0.0207    0.6230    0.0000 C   0  0  0  0  0  0  0  0  0  0  0  0
    0.6853   -0.6230    0.0000 O   0  0  0  0  0  0  0  0  0  0  0  0
   -1.4746   -0.2077    0.0000 C   0  0  0  0  0  0  0  0  0  0  0  0
   -0.7269   -1.4538    0.0000 C   0  0  0  0  0  0  0  0  0  0  0  0
   -0.7269    1.0385    0.0000 C   0  0  0  0  0  0  0  0  0  0  0  0
    1.4331   -0.2077    0.0000 C   0  0  0  0  0  0  0  0  0  0  0  0
   -1.4746    0.6230    0.0000 C   0  0  0  0  0  0  0  0  0  0  0  0
   -0.7269    1.8693    0.0000 C   0  0  0  0  0  0  0  0  0  0  0  0
    2.1392   -0.6230    0.0000 C   0  0  0  0  0  0  0  0  0  0  0  0
   -2.1808    1.0385    0.0000 O   0  0  0  0  0  0  0  0  0  0  0  0
    2.8870   -0.2077    0.0000 N   0  0  0  0  0  0  0  0  0  0  0  0
   -2.8870    0.6230    0.0000 C   0  0  0  0  0  0  0  0  0  0  0  0
   -3.5932    1.0385    0.0000 C   0  0  0  0  0  0  0  0  0  0  0  0
   -2.8870   -0.2077    0.0000 O   0  0  0  0  0  0  0  0  0  0  0  0
    2.8870    0.6230    0.0000 C   0  0  0  0  0  0  0  0  0  0  0  0
    3.5932   -0.6230    0.0000 C   0  0  0  0  0  0  0  0  0  0  0  0
   -1.4331   -1.8693    0.0000 C   0  0  0  0  0  0  0  0  0  0  0  0
   -0.0207   -1.8693    0.0000 C   0  0  0  0  0  0  0  0  0  0  0  0
    0.8752    1.1353    0.0000 H   0  0  0  0  0  0  0  0  0  0  0  0
   -2.3640   -0.7311    0.0000 H   0  0  0  0  0  0  0  0  0  0  0  0
   -0.7269   -2.5238    0.0000 H   0  0  0  0  0  0  0  0  0  0  0  0
    1.4463    0.8622    0.0000 H   0  0  0  0  0  0  0  0  0  0  0  0
    2.3652    0.3178    0.0000 H   0  0  0  0  0  0  0  0  0  0  0  0
    0.1997    2.4043    0.0000 H   0  0  0  0  0  0  0  0  0  0  0  0
   -1.6535    2.4043    0.0000 H   0  0  0  0  0  0  0  0  0  0  0  0
   -0.7269    2.9393    0.0000 H   0  0  0  0  0  0  0  0  0  0  0  0
    2.1260   -1.6929    0.0000 H   0  0  0  0  0  0  0  0  0  0  0  0
    3.0580   -1.1714    0.0000 H   0  0  0  0  0  0  0  0  0  0  0  0
   -3.5844    2.1085    0.0000 H   0  0  0  0  0  0  0  0  0  0  0  0
   -4.5242    0.5111    0.0000 H   0  0  0  0  0  0  0  0  0  0  0  0
   -4.5154    1.5811    0.0000 H   0  0  0  0  0  0  0  0  0  0  0  0
    3.8136    1.1580    0.0000 H   0  0  0  0  0  0  0  0  0  0  0  0
    1.9604    1.1580    0.0000 H   0  0  0  0  0  0  0  0  0  0  0  0
    2.8870    1.6930    0.0000 H   0  0  0  0  0  0  0  0  0  0  0  0
    3.5846   -1.6930    0.0000 H   0  0  0  0  0  0  0  0  0  0  0  0
    4.5241   -0.0954    0.0000 H   0  0  0  0  0  0  0  0  0  0  0  0
    4.5155   -1.1654    0.0000 H   0  0  0  0  0  0  0  0  0  0  0  0
   -2.3641   -1.3419    0.0000 H   0  0  0  0  0  0  0  0  0  0  0  0
   -1.4243   -2.9393    0.0000 H   0  0  0  0  0  0  0  0  0  0  0  0
   -2.3553   -2.4119    0.0000 H   0  0  0  0  0  0  0  0  0  0  0  0
   -0.0295   -2.9393    0.0000 H   0  0  0  0  0  0  0  0  0  0  0  0
    0.9103   -1.3419    0.0000 H   0  0  0  0  0  0  0  0  0  0  0  0
    0.9015   -2.4119    0.0000 H   0  0  0  0  0  0  0  0  0  0  0  0
  1  2  2  0  0  0  0
  1  3  1  0  0  0  0
  1  4  1  0  0  0  0
  2  5  1  0  0  0  0
  2  6  1  0  0  0  0
  3  7  2  0  0  0  0
  3 21  1  0  0  0  0
  4  8  1  0  0  0  0
  5  9  2  0  0  0  0
  5 22  1  0  0  0  0
  6 19  1  0  0  0  0
  6 20  1  0  0  0  0
  6 23  1  0  0  0  0
  7 10  1  0  0  0  0
  7  9  1  0  0  0  0
  8 11  1  0  0  0  0
  8 24  1  0  0  0  0
  8 25  1  0  0  0  0
  9 12  1  0  0  0  0
 10 26  1  0  0  0  0
 10 27  1  0  0  0  0
 10 28  1  0  0  0  0
 11 13  1  0  0  0  0
 11 29  1  0  0  0  0
 11 30  1  0  0  0  0
 12 14  1  0  0  0  0
 13 17  1  0  0  0  0
 13 18  1  0  0  0  0
 14 15  1  0  0  0  0
 14 16  2  0  0  0  0
 15 31  1  0  0  0  0
 15 32  1  0  0  0  0
 15 33  1  0  0  0  0
 17 34  1  0  0  0  0
 17 35  1  0  0  0  0
 17 36  1  0  0  0  0
 18 37  1  0  0  0  0
 18 38  1  0  0  0  0
 18 39  1  0  0  0  0
 19 40  1  0  0  0  0
 19 41  1  0  0  0  0
 19 42  1  0  0  0  0
 20 43  1  0  0  0  0
 20 44  1  0  0  0  0
 20 45  1  0  0  0  0
M  END
>  <DRUGBANK_ID>
DB09205

>  <COMMON_NAME>
Moxisylyte

>  <CAS_NUMBER>
54-32-0

>  <UNII>
PW8QYA7KI0

>  <SYNONYMS>
Moxisylyte; Thymoxamine

$$$$
