
 OpenBabel10282417072D

 18 18  0  0  0  0  0  0  0  0999 V2000
   -0.2852    0.0000    0.0000 C   0  0  0  0  0  0  0  0  0  0  0  0
   -1.0032   -0.4123    0.0000 C   0  0  0  0  0  0  0  0  0  0  0  0
    0.4294   -0.4123    0.0000 C   0  0  0  0  0  0  0  0  0  0  0  0
   -0.2852    0.8246    0.0000 C   0  0  0  0  0  0  0  0  0  0  0  0
   -1.0032   -1.2369    0.0000 C   0  0  0  0  0  0  0  0  0  0  0  0
    0.4294   -1.2369    0.0000 C   0  0  0  0  0  0  0  0  0  0  0  0
    0.4329    1.2403    0.0000 C   0  0  0  0  0  0  0  0  0  0  0  0
   -0.2852   -1.6526    0.0000 C   0  0  0  0  0  0  0  0  0  0  0  0
    0.4329    2.0615    0.0000 O   0  0  0  0  0  0  0  0  0  0  0  0
    1.1441    0.8280    0.0000 O   0  0  0  0  0  0  0  0  0  0  0  0
   -1.8963    0.1047    0.0000 H   0  0  0  0  0  0  0  0  0  0  0  0
    1.3231    0.1038    0.0000 H   0  0  0  0  0  0  0  0  0  0  0  0
   -1.2122    1.3591    0.0000 H   0  0  0  0  0  0  0  0  0  0  0  0
   -0.2861    1.8946    0.0000 H   0  0  0  0  0  0  0  0  0  0  0  0
   -1.8973   -1.7524    0.0000 H   0  0  0  0  0  0  0  0  0  0  0  0
    1.3240   -1.7514    0.0000 H   0  0  0  0  0  0  0  0  0  0  0  0
   -0.2841   -2.6846    0.0000 H   0  0  0  0  0  0  0  0  0  0  0  0
    1.2444    2.5300    0.0000 H   0  0  0  0  0  0  0  0  0  0  0  0
  1  2  2  0  0  0  0
  1  3  1  0  0  0  0
  1  4  1  0  0  0  0
  2  5  1  0  0  0  0
  2 11  1  0  0  0  0
  3  6  2  0  0  0  0
  3 12  1  0  0  0  0
  4  7  1  0  0  0  0
  4 13  1  0  0  0  0
  4 14  1  0  0  0  0
  5  8  2  0  0  0  0
  5 15  1  0  0  0  0
  6  8  1  0  0  0  0
  6 16  1  0  0  0  0
  7  9  1  0  0  0  0
  7 10  2  0  0  0  0
  8 17  1  0  0  0  0
  9 18  1  0  0  0  0
M  END
>  <DRUGBANK_ID>
DB09269

>  <COMMON_NAME>
Phenylacetic acid

>  <CAS_NUMBER>
103-82-2

>  <UNII>
ER5I1W795A

>  <SYNONYMS>
.ALPHA.-TOLUIC ACID; .OMEGA.-PHENYLACETIC ACID; 2-PHENYLACETIC ACID; ACETIC ACID, PHENYL-; ANTINEOPLASTON AS 2-1 COMPONENT PHENYLACETIC ACID; ANTINEOPLASTON AS2-1 COMPONENT PHENYLACETIC ACID; ASTUGENAL COMPONENT PHENYLACETIC ACID; benzeneacetic acid; α-toluic acid; ω-phenylacetic acid

$$$$
