
 OpenBabel10282417072D

 54 57  0  0  1  0  0  0  0  0999 V2000
    8.2455    3.1613    0.0000 N   0  0  0  0  0  0  0  0  0  0  0  0
    7.4250    3.2475    0.0000 S   0  0  0  0  0  0  0  0  0  0  0  0
    7.5112    4.0680    0.0000 O   0  0  0  0  0  0  0  0  0  0  0  0
    7.3388    2.4270    0.0000 O   0  0  0  0  0  0  0  0  0  0  0  0
    6.6045    3.3337    0.0000 O   0  0  0  0  0  0  0  0  0  0  0  0
    6.1196    2.6663    0.0000 C   0  0  0  0  0  0  0  0  0  0  0  0
    5.2991    2.7525    0.0000 C   0  0  1  0  0  0  0  0  0  0  0  0
    4.7471    2.1394    0.0000 C   0  0  0  0  0  0  0  0  0  0  0  0
    3.9934    2.4750    0.0000 C   0  0  1  0  0  0  0  0  0  0  0  0
    3.2789    2.0625    0.0000 N   0  0  0  0  0  0  0  0  0  0  0  0
    3.2789    1.2375    0.0000 C   0  0  0  0  0  0  0  0  0  0  0  0
    3.9934    0.8250    0.0000 C   0  0  0  0  0  0  0  0  0  0  0  0
    3.9934    0.0000    0.0000 C   0  0  0  0  0  0  0  0  0  0  0  0
    3.2789   -0.4125    0.0000 N   0  0  0  0  0  0  0  0  0  0  0  0
    2.5645    0.0000    0.0000 C   0  0  0  0  0  0  0  0  0  0  0  0
    1.7798   -0.2549    0.0000 C   0  0  0  0  0  0  0  0  0  0  0  0
    1.2949    0.4125    0.0000 C   0  0  0  0  0  0  0  0  0  0  0  0
    1.7798    1.0799    0.0000 N   0  0  0  0  0  0  0  0  0  0  0  0
    2.5645    0.8250    0.0000 N   0  0  0  0  0  0  0  0  0  0  0  0
    0.4699    0.4125    0.0000 C   0  0  0  0  0  0  0  0  0  0  0  0
    0.0574   -0.3020    0.0000 C   0  0  0  0  0  0  0  0  0  0  0  0
   -0.7676   -0.3020    0.0000 C   0  0  0  0  0  0  0  0  0  0  0  0
   -1.1801    0.4125    0.0000 C   0  0  0  0  0  0  0  0  0  0  0  0
   -0.7676    1.1270    0.0000 C   0  0  0  0  0  0  0  0  0  0  0  0
   -1.1801    1.8414    0.0000 S   0  0  0  0  0  0  0  0  0  0  0  0
   -2.0051    1.8414    0.0000 C   0  0  0  0  0  0  0  0  0  0  0  0
   -2.8301    1.8414    0.0000 F   0  0  0  0  0  0  0  0  0  0  0  0
   -2.0051    2.6664    0.0000 F   0  0  0  0  0  0  0  0  0  0  0  0
   -2.0051    1.0164    0.0000 F   0  0  0  0  0  0  0  0  0  0  0  0
    0.0574    1.1270    0.0000 C   0  0  0  0  0  0  0  0  0  0  0  0
    4.0796    3.2955    0.0000 C   0  0  2  0  0  0  0  0  0  0  0  0
    3.4665    3.8475    0.0000 O   0  0  0  0  0  0  0  0  0  0  0  0
    4.8866    3.4670    0.0000 C   0  0  2  0  0  0  0  0  0  0  0  0
    5.2222    4.2207    0.0000 O   0  0  0  0  0  0  0  0  0  0  0  0
    8.6604    2.2295    0.0000 H   0  0  0  0  0  0  0  0  0  0  0  0
    8.8450    3.9865    0.0000 H   0  0  0  0  0  0  0  0  0  0  0  0
    6.5548    1.6888    0.0000 H   0  0  0  0  0  0  0  0  0  0  0  0
    5.4907    1.8006    0.0000 H   0  0  0  0  0  0  0  0  0  0  0  0
    5.6826    1.7536    0.0000 H   0  0  0  0  0  0  0  0  0  0  0  0
    4.9696    1.0928    0.0000 H   0  0  0  0  0  0  0  0  0  0  0  0
    3.9155    1.4660    0.0000 H   0  0  0  0  0  0  0  0  0  0  0  0
    4.0494    1.4065    0.0000 H   0  0  0  0  0  0  0  0  0  0  0  0
    2.4263    2.5548    0.0000 H   0  0  0  0  0  0  0  0  0  0  0  0
    4.8871    1.3410    0.0000 H   0  0  0  0  0  0  0  0  0  0  0  0
    4.8871   -0.5160    0.0000 H   0  0  0  0  0  0  0  0  0  0  0  0
    1.4609   -1.2364    0.0000 H   0  0  0  0  0  0  0  0  0  0  0  0
    0.5734   -1.1957    0.0000 H   0  0  0  0  0  0  0  0  0  0  0  0
   -1.2836   -1.1957    0.0000 H   0  0  0  0  0  0  0  0  0  0  0  0
   -2.2121    0.4125    0.0000 H   0  0  0  0  0  0  0  0  0  0  0  0
    0.5734    2.0207    0.0000 H   0  0  0  0  0  0  0  0  0  0  0  0
    3.0807    2.9120    0.0000 H   0  0  0  0  0  0  0  0  0  0  0  0
    3.6681    4.7963    0.0000 H   0  0  0  0  0  0  0  0  0  0  0  0
    4.2133    4.2986    0.0000 H   0  0  0  0  0  0  0  0  0  0  0  0
    6.1869    4.3221    0.0000 H   0  0  0  0  0  0  0  0  0  0  0  0
  1  2  1  0  0  0  0
  1 35  1  0  0  0  0
  1 36  1  0  0  0  0
  2  3  2  0  0  0  0
  2  4  2  0  0  0  0
  2  5  1  0  0  0  0
  5  6  1  0  0  0  0
  6 37  1  0  0  0  0
  6 38  1  0  0  0  0
  7  6  1  0  0  0  0
  7  8  1  0  0  0  0
  7 39  1  6  0  0  0
  8 40  1  0  0  0  0
  8 41  1  0  0  0  0
  9  8  1  0  0  0  0
  9 10  1  0  0  0  0
  9 42  1  6  0  0  0
 10 11  1  0  0  0  0
 10 43  1  0  0  0  0
 11 12  2  0  0  0  0
 11 19  1  0  0  0  0
 12 13  1  0  0  0  0
 12 44  1  0  0  0  0
 13 14  2  0  0  0  0
 13 45  1  0  0  0  0
 14 15  1  0  0  0  0
 15 16  2  0  0  0  0
 15 19  1  0  0  0  0
 16 17  1  0  0  0  0
 16 46  1  0  0  0  0
 17 18  2  0  0  0  0
 17 20  1  0  0  0  0
 18 19  1  0  0  0  0
 20 21  2  0  0  0  0
 20 30  1  0  0  0  0
 21 22  1  0  0  0  0
 21 47  1  0  0  0  0
 22 23  2  0  0  0  0
 22 48  1  0  0  0  0
 23 24  1  0  0  0  0
 23 49  1  0  0  0  0
 24 25  1  0  0  0  0
 24 30  2  0  0  0  0
 25 26  1  0  0  0  0
 26 27  1  0  0  0  0
 26 28  1  0  0  0  0
 26 29  1  0  0  0  0
 30 50  1  0  0  0  0
 31  9  1  0  0  0  0
 31 32  1  0  0  0  0
 31 33  1  0  0  0  0
 31 51  1  1  0  0  0
 32 52  1  0  0  0  0
 33  7  1  0  0  0  0
 33 34  1  0  0  0  0
 33 53  1  1  0  0  0
 34 54  1  0  0  0  0
M  END
>  <DRUGBANK_ID>
DB15013

>  <COMMON_NAME>
TAK-243

>  <CAS_NUMBER>
1450833-55-2

>  <UNII>
V9GGV0YCDI

$$$$
