
 OpenBabel10282417072D

174183  0  0  0  0  0  0  0  0999 V2000
   -0.6966   -0.4979    0.0000 N   0  0  0  0  0  0  0  0  0  0  0  0
   -4.1408    1.3516    0.0000 O   0  0  0  0  0  0  0  0  0  0  0  0
    1.4375    3.2552    0.0000 N   0  0  0  0  0  0  0  0  0  0  0  0
   -1.3934   -2.5585    0.0000 N   0  0  0  0  0  0  0  0  0  0  0  0
   -1.3541   -4.1825    0.0000 N   0  0  0  0  0  0  0  0  0  0  0  0
   -4.2487   -2.5585    0.0000 C   0  0  3  0  0  0  0  0  0  0  0  0
   -4.2487   -1.7245    0.0000 O   0  0  0  0  0  0  0  0  0  0  0  0
   -4.9647   -1.3333    0.0000 C   0  0  3  0  0  0  0  0  0  0  0  0
   -5.6801   -1.7427    0.0000 C   0  0  0  0  0  0  0  0  0  0  0  0
   -5.6801   -2.5622    0.0000 C   0  0  3  0  0  0  0  0  0  0  0  0
   -4.9452   -2.9720    0.0000 C   0  0  0  0  0  0  0  0  0  0  0  0
   -4.1408    2.2003    0.0000 C   0  0  3  0  0  0  0  0  0  0  0  0
   -4.8570    2.6077    0.0000 C   0  0  3  0  0  0  0  0  0  0  0  0
   -5.5991    2.1970    0.0000 C   0  0  3  0  0  0  0  0  0  0  0  0
   -5.6008    1.3484    0.0000 C   0  0  3  0  0  0  0  0  0  0  0  0
   -4.8551    0.9413    0.0000 C   0  0  3  0  0  0  0  0  0  0  0  0
   -0.0122    4.9184    0.0000 C   0  0  0  0  0  0  0  0  0  0  0  0
   -0.7373    4.5083    0.0000 C   0  0  0  0  0  0  0  0  0  0  0  0
    0.7253    4.4915    0.0000 C   0  0  0  0  0  0  0  0  0  0  0  0
    2.1830    3.6758    0.0000 C   0  0  0  0  0  0  0  0  0  0  0  0
    2.1586    4.5098    0.0000 C   0  0  3  0  0  0  0  0  0  0  0  0
    1.4398    4.9147    0.0000 C   0  0  3  0  0  0  0  0  0  0  0  0
    0.7248    3.6767    0.0000 C   0  0  0  0  0  0  0  0  0  0  0  0
    1.4636    2.4191    0.0000 C   0  0  3  0  0  0  0  0  0  0  0  0
    0.0084    3.2425    0.0000 C   0  0  0  0  0  0  0  0  0  0  0  0
   -0.7144    3.6728    0.0000 C   0  0  0  0  0  0  0  0  0  0  0  0
   -1.4568    3.2451    0.0000 O   0  0  0  0  0  0  0  0  0  0  0  0
    0.7432    1.1683    0.0000 N   0  0  0  0  0  0  0  0  0  0  0  0
    0.7240    2.0072    0.0000 C   0  0  0  0  0  0  0  0  0  0  0  0
    0.0212    0.7544    0.0000 C   0  0  3  0  0  0  0  0  0  0  0  0
    0.0217   -0.0848    0.0000 C   0  0  0  0  0  0  0  0  0  0  0  0
   -2.8485    0.7180    0.0000 O   0  0  0  0  0  0  0  0  0  0  0  0
   -2.8072   -2.5589    0.0000 C   0  0  3  0  0  0  0  0  0  0  0  0
   -1.3884   -1.7397    0.0000 C   0  0  0  0  0  0  0  0  0  0  0  0
   -0.6958   -1.3152    0.0000 C   0  0  3  0  0  0  0  0  0  0  0  0
   -2.0676   -2.9716    0.0000 C   0  0  3  0  0  0  0  0  0  0  0  0
   -2.0656   -3.7964    0.0000 C   0  0  0  0  0  0  0  0  0  0  0  0
   -0.6508   -3.7554    0.0000 C   0  0  3  0  0  0  0  0  0  0  0  0
    0.0447   -2.5462    0.0000 C   0  0  0  0  0  0  0  0  0  0  0  0
    0.7448   -2.9375    0.0000 C   0  0  0  0  0  0  0  0  0  0  0  0
    1.4409   -2.5025    0.0000 C   0  0  0  0  0  0  0  0  0  0  0  0
    1.4184   -1.7057    0.0000 C   0  0  0  0  0  0  0  0  0  0  0  0
    0.7046   -1.3160    0.0000 C   0  0  0  0  0  0  0  0  0  0  0  0
    0.0062   -1.7285    0.0000 C   0  0  0  0  0  0  0  0  0  0  0  0
    0.7688   -3.7529    0.0000 C   0  0  0  0  0  0  0  0  0  0  0  0
    0.0680   -4.1724    0.0000 C   0  0  0  0  0  0  0  0  0  0  0  0
    0.0645   -4.9674    0.0000 C   0  0  0  0  0  0  0  0  0  0  0  0
    0.7808   -5.3829    0.0000 C   0  0  0  0  0  0  0  0  0  0  0  0
    1.4821   -4.9442    0.0000 C   0  0  0  0  0  0  0  0  0  0  0  0
    1.4630   -4.1407    0.0000 C   0  0  0  0  0  0  0  0  0  0  0  0
   -2.1130   -1.3341    0.0000 C   0  0  0  0  0  0  0  0  0  0  0  0
   -2.1260   -0.5217    0.0000 C   0  0  0  0  0  0  0  0  0  0  0  0
   -2.8304   -0.1264    0.0000 C   0  0  0  0  0  0  0  0  0  0  0  0
   -3.5470   -0.5280    0.0000 C   0  0  0  0  0  0  0  0  0  0  0  0
   -3.5255   -1.3530    0.0000 C   0  0  0  0  0  0  0  0  0  0  0  0
   -2.8107   -1.7647    0.0000 C   0  0  0  0  0  0  0  0  0  0  0  0
   -0.7159    1.1372    0.0000 C   0  0  0  0  0  0  0  0  0  0  0  0
   -0.7134    1.9855    0.0000 C   0  0  0  0  0  0  0  0  0  0  0  0
   -1.4302    2.3939    0.0000 C   0  0  0  0  0  0  0  0  0  0  0  0
   -2.1501    1.9648    0.0000 C   0  0  0  0  0  0  0  0  0  0  0  0
   -2.1248    1.1383    0.0000 C   0  0  0  0  0  0  0  0  0  0  0  0
   -1.4123    0.7381    0.0000 C   0  0  0  0  0  0  0  0  0  0  0  0
    2.8996    3.2552    0.0000 O   0  0  0  0  0  0  0  0  0  0  0  0
    0.0048    2.4211    0.0000 O   0  0  0  0  0  0  0  0  0  0  0  0
    1.4178    5.7622    0.0000 O   0  0  0  0  0  0  0  0  0  0  0  0
   -3.3999    2.6077    0.0000 O   0  0  0  0  0  0  0  0  0  0  0  0
   -1.4129   -0.9003    0.0000 O   0  0  0  0  0  0  0  0  0  0  0  0
    0.7407   -0.4979    0.0000 O   0  0  0  0  0  0  0  0  0  0  0  0
   -3.5276   -2.9706    0.0000 O   0  0  0  0  0  0  0  0  0  0  0  0
    2.1390   -2.9167    0.0000 O   0  0  0  0  0  0  0  0  0  0  0  0
    2.1783   -3.7311    0.0000 O   0  0  0  0  0  0  0  0  0  0  0  0
    0.7800   -6.1695    0.0000 O   0  0  0  0  0  0  0  0  0  0  0  0
   -2.7670   -4.1825    0.0000 O   0  0  0  0  0  0  0  0  0  0  0  0
   -0.6525   -5.4974    0.0000 C   0  0  0  0  0  0  0  0  0  0  0  0
   -1.3541   -5.9096    0.0000 O   0  0  0  0  0  0  0  0  0  0  0  0
    0.0441   -5.9096    0.0000 O   0  0  0  0  0  0  0  0  0  0  0  0
    2.8799    4.9185    0.0000 N   0  0  0  0  0  0  0  0  0  0  0  0
    2.7377    1.6607    0.0000 C   0  0  0  0  0  0  0  0  0  0  0  0
   -4.8570    0.1005    0.0000 C   0  0  0  0  0  0  0  0  0  0  0  0
   -3.5471    0.2869    0.0000 Cl  0  0  0  0  0  0  0  0  0  0  0  0
   -1.4767    4.9185    0.0000 Cl  0  0  0  0  0  0  0  0  0  0  0  0
    3.5962    4.5112    0.0000 C   0  0  0  0  0  0  0  0  0  0  0  0
    4.3125    4.9185    0.0000 C   0  0  3  0  0  0  0  0  0  0  0  0
    3.5962    3.6918    0.0000 O   0  0  0  0  0  0  0  0  0  0  0  0
    4.3125    5.7622    0.0000 N   0  0  0  0  0  0  0  0  0  0  0  0
    5.0338    4.5112    0.0000 C   0  0  0  0  0  0  0  0  0  0  0  0
    5.7500    4.9185    0.0000 C   0  0  0  0  0  0  0  0  0  0  0  0
    6.4663    4.5308    0.0000 C   0  0  0  0  0  0  0  0  0  0  0  0
    5.7500    5.7622    0.0000 C   0  0  0  0  0  0  0  0  0  0  0  0
    3.4540    2.0924    0.0000 C   0  0  0  0  0  0  0  0  0  0  0  0
    4.1654    1.6804    0.0000 N   0  0  0  0  0  0  0  0  0  0  0  0
    3.4540    2.9167    0.0000 O   0  0  0  0  0  0  0  0  0  0  0  0
   -4.8570    3.4417    0.0000 O   0  0  0  0  0  0  0  0  0  0  0  0
   -6.3191    0.9444    0.0000 O   0  0  0  0  0  0  0  0  0  0  0  0
   -6.3191    2.6077    0.0000 O   0  0  0  0  0  0  0  0  0  0  0  0
   -4.9650   -0.4979    0.0000 C   0  0  0  0  0  0  0  0  0  0  0  0
   -5.8923   -3.3632    0.0000 N   0  0  0  0  0  0  0  0  0  0  0  0
   -6.4663   -2.7696    0.0000 C   0  0  0  0  0  0  0  0  0  0  0  0
   -5.6029   -0.3311    0.0000 O   0  0  0  0  0  0  0  0  0  0  0  0
    3.5962    6.1695    0.0000 C   0  0  0  0  0  0  0  0  0  0  0  0
   -6.3977   -1.3271    0.0000 O   0  0  0  0  0  0  0  0  0  0  0  0
   -1.5490   -0.0053    0.0000 H   0  0  0  0  0  0  0  0  0  0  0  0
    0.5797    3.7384    0.0000 H   0  0  0  0  0  0  0  0  0  0  0  0
   -0.5359   -3.0422    0.0000 H   0  0  0  0  0  0  0  0  0  0  0  0
   -1.3302   -5.1667    0.0000 H   0  0  0  0  0  0  0  0  0  0  0  0
   -5.1786   -2.0291    0.0000 H   0  0  0  0  0  0  0  0  0  0  0  0
   -4.0445   -0.7873    0.0000 H   0  0  0  0  0  0  0  0  0  0  0  0
   -4.9307   -4.0419    0.0000 H   0  0  0  0  0  0  0  0  0  0  0  0
   -4.0118   -3.4950    0.0000 H   0  0  0  0  0  0  0  0  0  0  0  0
   -5.0657    1.6623    0.0000 H   0  0  0  0  0  0  0  0  0  0  0  0
   -4.8633    1.5377    0.0000 H   0  0  0  0  0  0  0  0  0  0  0  0
   -4.6779    1.6527    0.0000 H   0  0  0  0  0  0  0  0  0  0  0  0
   -4.6801    1.8935    0.0000 H   0  0  0  0  0  0  0  0  0  0  0  0
   -4.8667    2.0112    0.0000 H   0  0  0  0  0  0  0  0  0  0  0  0
   -0.0070    5.9504    0.0000 H   0  0  0  0  0  0  0  0  0  0  0  0
    3.0909    3.9846    0.0000 H   0  0  0  0  0  0  0  0  0  0  0  0
    0.5034    5.4324    0.0000 H   0  0  0  0  0  0  0  0  0  0  0  0
    1.6238    3.1700    0.0000 H   0  0  0  0  0  0  0  0  0  0  0  0
    1.4482    1.3492    0.0000 H   0  0  0  0  0  0  0  0  0  0  0  0
    0.0125    2.2105    0.0000 H   0  0  0  0  0  0  0  0  0  0  0  0
    1.6006    0.6845    0.0000 H   0  0  0  0  0  0  0  0  0  0  0  0
   -0.0010    1.8242    0.0000 H   0  0  0  0  0  0  0  0  0  0  0  0
   -3.7338   -2.0239    0.0000 H   0  0  0  0  0  0  0  0  0  0  0  0
   -1.6296   -0.7929    0.0000 H   0  0  0  0  0  0  0  0  0  0  0  0
   -2.0894   -1.9018    0.0000 H   0  0  0  0  0  0  0  0  0  0  0  0
   -1.1760   -4.6877    0.0000 H   0  0  0  0  0  0  0  0  0  0  0  0
   -0.8329   -3.0892    0.0000 H   0  0  0  0  0  0  0  0  0  0  0  0
    2.2984   -1.1666    0.0000 H   0  0  0  0  0  0  0  0  0  0  0  0
    0.6872   -0.2841    0.0000 H   0  0  0  0  0  0  0  0  0  0  0  0
   -0.8309   -5.4805    0.0000 H   0  0  0  0  0  0  0  0  0  0  0  0
    2.3907   -5.4335    0.0000 H   0  0  0  0  0  0  0  0  0  0  0  0
   -1.2078   -1.8297    0.0000 H   0  0  0  0  0  0  0  0  0  0  0  0
   -1.2396    0.0069    0.0000 H   0  0  0  0  0  0  0  0  0  0  0  0
   -4.4122   -1.8811    0.0000 H   0  0  0  0  0  0  0  0  0  0  0  0
    0.1796    2.5027    0.0000 H   0  0  0  0  0  0  0  0  0  0  0  0
   -1.4078   -0.2939    0.0000 H   0  0  0  0  0  0  0  0  0  0  0  0
    2.2450    6.2688    0.0000 H   0  0  0  0  0  0  0  0  0  0  0  0
    2.1279   -3.8536    0.0000 H   0  0  0  0  0  0  0  0  0  0  0  0
    2.9881   -4.2025    0.0000 H   0  0  0  0  0  0  0  0  0  0  0  0
   -0.0319   -6.6372    0.0000 H   0  0  0  0  0  0  0  0  0  0  0  0
   -2.1691   -5.4473    0.0000 H   0  0  0  0  0  0  0  0  0  0  0  0
    2.8806    5.9030    0.0000 H   0  0  0  0  0  0  0  0  0  0  0  0
    2.7406    0.5907    0.0000 H   0  0  0  0  0  0  0  0  0  0  0  0
    3.6701    1.1357    0.0000 H   0  0  0  0  0  0  0  0  0  0  0  0
   -3.9307   -0.4351    0.0000 H   0  0  0  0  0  0  0  0  0  0  0  0
   -4.8568   -0.9695    0.0000 H   0  0  0  0  0  0  0  0  0  0  0  0
    3.3876    5.4565    0.0000 H   0  0  0  0  0  0  0  0  0  0  0  0
    5.1942    6.2751    0.0000 H   0  0  0  0  0  0  0  0  0  0  0  0
    5.0354    3.4412    0.0000 H   0  0  0  0  0  0  0  0  0  0  0  0
    5.9591    3.9739    0.0000 H   0  0  0  0  0  0  0  0  0  0  0  0
    6.6692    5.4662    0.0000 H   0  0  0  0  0  0  0  0  0  0  0  0
    6.4957    3.4612    0.0000 H   0  0  0  0  0  0  0  0  0  0  0  0
    7.3779    5.0911    0.0000 H   0  0  0  0  0  0  0  0  0  0  0  0
    7.4073    4.0215    0.0000 H   0  0  0  0  0  0  0  0  0  0  0  0
    6.6766    6.2972    0.0000 H   0  0  0  0  0  0  0  0  0  0  0  0
    4.8234    6.2972    0.0000 H   0  0  0  0  0  0  0  0  0  0  0  0
    5.7500    6.8322    0.0000 H   0  0  0  0  0  0  0  0  0  0  0  0
    4.1641    0.6959    0.0000 H   0  0  0  0  0  0  0  0  0  0  0  0
    5.0187    2.1715    0.0000 H   0  0  0  0  0  0  0  0  0  0  0  0
   -4.0170    3.9267    0.0000 H   0  0  0  0  0  0  0  0  0  0  0  0
   -7.1536    1.4388    0.0000 H   0  0  0  0  0  0  0  0  0  0  0  0
   -6.3242    3.5777    0.0000 H   0  0  0  0  0  0  0  0  0  0  0  0
   -4.0385    0.0374    0.0000 H   0  0  0  0  0  0  0  0  0  0  0  0
   -5.8918    0.0368    0.0000 H   0  0  0  0  0  0  0  0  0  0  0  0
   -4.9654    0.5721    0.0000 H   0  0  0  0  0  0  0  0  0  0  0  0
   -6.8768   -3.6300    0.0000 H   0  0  0  0  0  0  0  0  0  0  0  0
   -5.1690   -4.0824    0.0000 H   0  0  0  0  0  0  0  0  0  0  0  0
   -7.2200   -2.0101    0.0000 H   0  0  0  0  0  0  0  0  0  0  0  0
   -6.7472   -3.8021    0.0000 H   0  0  0  0  0  0  0  0  0  0  0  0
   -7.5009   -3.0425    0.0000 H   0  0  0  0  0  0  0  0  0  0  0  0
   -6.4434    0.1531    0.0000 H   0  0  0  0  0  0  0  0  0  0  0  0
    3.5892    7.2395    0.0000 H   0  0  0  0  0  0  0  0  0  0  0  0
    2.6731    5.6284    0.0000 H   0  0  0  0  0  0  0  0  0  0  0  0
    2.6661    6.6984    0.0000 H   0  0  0  0  0  0  0  0  0  0  0  0
  1 31  1  0  0  0  0
  1102  1  0  0  0  0
  3 20  1  0  0  0  0
  3 24  1  0  0  0  0
  3103  1  0  0  0  0
  4 36  1  0  0  0  0
  4104  1  0  0  0  0
  5 38  1  0  0  0  0
  5105  1  0  0  0  0
  6  7  1  0  0  0  0
  6 11  1  0  0  0  0
  6106  1  0  0  0  0
  7  8  1  0  0  0  0
  8 96  1  0  0  0  0
  8  9  1  0  0  0  0
  8107  1  0  0  0  0
  9 10  1  0  0  0  0
  9101  2  0  0  0  0
 10 11  1  0  0  0  0
 10 97  1  0  0  0  0
 10 98  1  0  0  0  0
 11108  1  0  0  0  0
 11109  1  0  0  0  0
 12  2  1  0  0  0  0
 12 13  1  0  0  0  0
 12 66  1  0  0  0  0
 12110  1  0  0  0  0
 13 14  1  0  0  0  0
 13 93  1  0  0  0  0
 13111  1  0  0  0  0
 14 15  1  0  0  0  0
 14 95  1  0  0  0  0
 14112  1  0  0  0  0
 15 16  1  0  0  0  0
 15 94  1  0  0  0  0
 15113  1  0  0  0  0
 16  2  1  0  0  0  0
 16 79  1  0  0  0  0
 16114  1  0  0  0  0
 17 18  2  0  0  0  0
 17115  1  0  0  0  0
 18 26  1  0  0  0  0
 18 81  1  0  0  0  0
 19 17  1  0  0  0  0
 19 23  2  0  0  0  0
 19 22  1  0  0  0  0
 20 63  2  0  0  0  0
 20 21  1  0  0  0  0
 21 77  1  0  0  0  0
 21 22  1  0  0  0  0
 21116  1  0  0  0  0
 22 65  1  0  0  0  0
 22117  1  0  0  0  0
 23 25  1  0  0  0  0
 23118  1  0  0  0  0
 24 78  1  0  0  0  0
 24119  1  0  0  0  0
 25 26  2  0  0  0  0
 25120  1  0  0  0  0
 26 27  1  0  0  0  0
 27 59  1  0  0  0  0
 28 29  1  0  0  0  0
 28121  1  0  0  0  0
 29 24  1  0  0  0  0
 29 64  2  0  0  0  0
 30 28  1  0  0  0  0
 30 57  1  0  0  0  0
 30 31  1  0  0  0  0
 30122  1  0  0  0  0
 31 68  2  0  0  0  0
 32 53  1  0  0  0  0
 33 69  1  0  0  0  0
 33 36  1  0  0  0  0
 33123  1  0  0  0  0
 34 67  2  0  0  0  0
 34  4  1  0  0  0  0
 34 35  1  0  0  0  0
 35  1  1  0  0  0  0
 35124  1  0  0  0  0
 36 37  1  0  0  0  0
 36125  1  0  0  0  0
 37 73  2  0  0  0  0
 37  5  1  0  0  0  0
 38 74  1  0  0  0  0
 38 46  1  0  0  0  0
 38126  1  0  0  0  0
 39 40  2  0  0  0  0
 39127  1  0  0  0  0
 40 41  1  0  0  0  0
 41 70  1  0  0  0  0
 41 42  2  0  0  0  0
 42 43  1  0  0  0  0
 42128  1  0  0  0  0
 43 44  2  0  0  0  0
 43129  1  0  0  0  0
 44 35  1  0  0  0  0
 44 39  1  0  0  0  0
 45 40  1  0  0  0  0
 45 46  2  0  0  0  0
 46 47  1  0  0  0  0
 47 48  2  0  0  0  0
 47130  1  0  0  0  0
 48 49  1  0  0  0  0
 48 72  1  0  0  0  0
 49 50  2  0  0  0  0
 49131  1  0  0  0  0
 50 45  1  0  0  0  0
 50 71  1  0  0  0  0
 51 52  2  0  0  0  0
 51132  1  0  0  0  0
 52 53  1  0  0  0  0
 52133  1  0  0  0  0
 53 54  2  0  0  0  0
 54 55  1  0  0  0  0
 54 80  1  0  0  0  0
 55 56  2  0  0  0  0
 55134  1  0  0  0  0
 56 51  1  0  0  0  0
 56 33  1  0  0  0  0
 57 58  2  0  0  0  0
 58 59  1  0  0  0  0
 58135  1  0  0  0  0
 59 60  2  0  0  0  0
 60 61  1  0  0  0  0
 60 66  1  0  0  0  0
 61 62  2  0  0  0  0
 61 32  1  0  0  0  0
 62 57  1  0  0  0  0
 62136  1  0  0  0  0
 65137  1  0  0  0  0
 69  6  1  0  0  0  0
 70138  1  0  0  0  0
 71139  1  0  0  0  0
 72140  1  0  0  0  0
 74 75  1  0  0  0  0
 74 76  2  0  0  0  0
 75141  1  0  0  0  0
 77 82  1  0  0  0  0
 77142  1  0  0  0  0
 78 90  1  0  0  0  0
 78143  1  0  0  0  0
 78144  1  0  0  0  0
 79 99  1  0  0  0  0
 79145  1  0  0  0  0
 79146  1  0  0  0  0
 82 83  1  0  0  0  0
 82 84  2  0  0  0  0
 83 85  1  0  0  0  0
 83 86  1  0  0  0  0
 83147  1  0  0  0  0
 85100  1  0  0  0  0
 85148  1  0  0  0  0
 86 87  1  0  0  0  0
 86149  1  0  0  0  0
 86150  1  0  0  0  0
 87 88  1  0  0  0  0
 87 89  1  0  0  0  0
 87151  1  0  0  0  0
 88152  1  0  0  0  0
 88153  1  0  0  0  0
 88154  1  0  0  0  0
 89155  1  0  0  0  0
 89156  1  0  0  0  0
 89157  1  0  0  0  0
 90 91  1  0  0  0  0
 90 92  2  0  0  0  0
 91158  1  0  0  0  0
 91159  1  0  0  0  0
 93160  1  0  0  0  0
 94161  1  0  0  0  0
 95162  1  0  0  0  0
 96163  1  0  0  0  0
 96164  1  0  0  0  0
 96165  1  0  0  0  0
 97166  1  0  0  0  0
 97167  1  0  0  0  0
 98168  1  0  0  0  0
 98169  1  0  0  0  0
 98170  1  0  0  0  0
 99171  1  0  0  0  0
100172  1  0  0  0  0
100173  1  0  0  0  0
100174  1  0  0  0  0
M  END
>  <DRUGBANK_ID>
DB04111

>  <SECONDARY_ACCESSION_NUMBERS>
EXPT00727

>  <COMMON_NAME>
Balhimycin

>  <CAS_NUMBER>
140932-79-2

$$$$
