
 OpenBabel10282417072D

 60 65  0  0  0  0  0  0  0  0999 V2000
    5.1807   -1.4161    0.0000 C   0  0  0  0  0  0  0  0  0  0  0  0
    5.3522   -0.6091    0.0000 C   0  0  0  0  0  0  0  0  0  0  0  0
    4.7391   -0.0571    0.0000 N   0  0  0  0  0  0  0  0  0  0  0  0
    4.8253    0.7634    0.0000 C   0  0  0  0  0  0  0  0  0  0  0  0
    4.0717    1.0990    0.0000 C   0  0  0  0  0  0  0  0  0  0  0  0
    3.5196    0.4859    0.0000 C   0  0  0  0  0  0  0  0  0  0  0  0
    3.9321   -0.2286    0.0000 C   0  0  0  0  0  0  0  0  0  0  0  0
    3.5196   -0.9431    0.0000 N   0  0  0  0  0  0  0  0  0  0  0  0
    2.6946   -0.9431    0.0000 C   0  0  0  0  0  0  0  0  0  0  0  0
    2.2821   -0.2286    0.0000 C   0  0  0  0  0  0  0  0  0  0  0  0
    2.6946    0.4859    0.0000 C   0  0  0  0  0  0  0  0  0  0  0  0
    2.1426    1.0990    0.0000 N   0  0  0  0  0  0  0  0  0  0  0  0
    1.3889    0.7634    0.0000 C   0  0  0  0  0  0  0  0  0  0  0  0
    1.4752   -0.0571    0.0000 N   0  0  0  0  0  0  0  0  0  0  0  0
    2.3141    1.9059    0.0000 C   0  0  0  0  0  0  0  0  0  0  0  0
    2.2821   -1.6576    0.0000 N   0  0  0  0  0  0  0  0  0  0  0  0
    1.4571   -1.6576    0.0000 C   0  0  0  0  0  0  0  0  0  0  0  0
    0.9722   -2.3250    0.0000 C   0  0  0  0  0  0  0  0  0  0  0  0
    0.1876   -2.0701    0.0000 C   0  0  0  0  0  0  0  0  0  0  0  0
    0.1876   -1.2451    0.0000 N   0  0  0  0  0  0  0  0  0  0  0  0
    0.9722   -0.9901    0.0000 N   0  0  0  0  0  0  0  0  0  0  0  0
   -0.4798   -0.7601    0.0000 C   0  0  0  0  0  0  0  0  0  0  0  0
   -0.4798   -2.5550    0.0000 C   0  0  0  0  0  0  0  0  0  0  0  0
    5.5398    1.1759    0.0000 C   0  0  0  0  0  0  0  0  0  0  0  0
    6.2543    0.7634    0.0000 O   0  0  0  0  0  0  0  0  0  0  0  0
    5.5398    2.0009    0.0000 N   0  0  0  0  0  0  0  0  0  0  0  0
    6.2543    2.4134    0.0000 C   0  0  0  0  0  0  0  0  0  0  0  0
    6.6668    3.1279    0.0000 C   0  0  0  0  0  0  0  0  0  0  0  0
    7.0793    2.4134    0.0000 C   0  0  0  0  0  0  0  0  0  0  0  0
    4.8253    2.4134    0.0000 C   0  0  0  0  0  0  0  0  0  0  0  0
    4.0003    2.4134    0.0000 C   0  0  0  0  0  0  0  0  0  0  0  0
    4.4128    3.1279    0.0000 C   0  0  0  0  0  0  0  0  0  0  0  0
    4.1631   -1.7468    0.0000 H   0  0  0  0  0  0  0  0  0  0  0  0
    5.9759   -2.1320    0.0000 H   0  0  0  0  0  0  0  0  0  0  0  0
    4.9583   -2.4627    0.0000 H   0  0  0  0  0  0  0  0  0  0  0  0
    6.3698   -0.2784    0.0000 H   0  0  0  0  0  0  0  0  0  0  0  0
    5.5746    0.4375    0.0000 H   0  0  0  0  0  0  0  0  0  0  0  0
    3.8572    2.1085    0.0000 H   0  0  0  0  0  0  0  0  0  0  0  0
    0.4951    1.2794    0.0000 H   0  0  0  0  0  0  0  0  0  0  0  0
    3.3317    2.2366    0.0000 H   0  0  0  0  0  0  0  0  0  0  0  0
    1.5189    2.6219    0.0000 H   0  0  0  0  0  0  0  0  0  0  0  0
    2.5366    2.9525    0.0000 H   0  0  0  0  0  0  0  0  0  0  0  0
    2.7744   -2.5102    0.0000 H   0  0  0  0  0  0  0  0  0  0  0  0
    1.2911   -3.3065    0.0000 H   0  0  0  0  0  0  0  0  0  0  0  0
   -0.3678    0.3040    0.0000 H   0  0  0  0  0  0  0  0  0  0  0  0
   -1.4573   -1.1952    0.0000 H   0  0  0  0  0  0  0  0  0  0  0  0
   -1.3454   -0.1311    0.0000 H   0  0  0  0  0  0  0  0  0  0  0  0
   -1.4573   -2.1198    0.0000 H   0  0  0  0  0  0  0  0  0  0  0  0
   -0.3679   -3.6191    0.0000 H   0  0  0  0  0  0  0  0  0  0  0  0
   -1.3454   -3.1839    0.0000 H   0  0  0  0  0  0  0  0  0  0  0  0
    7.1809    2.9484    0.0000 H   0  0  0  0  0  0  0  0  0  0  0  0
    6.6668    4.1979    0.0000 H   0  0  0  0  0  0  0  0  0  0  0  0
    7.7003    3.4048    0.0000 H   0  0  0  0  0  0  0  0  0  0  0  0
    8.0059    1.8784    0.0000 H   0  0  0  0  0  0  0  0  0  0  0  0
    6.8024    1.3799    0.0000 H   0  0  0  0  0  0  0  0  0  0  0  0
    3.8987    2.9484    0.0000 H   0  0  0  0  0  0  0  0  0  0  0  0
    3.0737    1.8784    0.0000 H   0  0  0  0  0  0  0  0  0  0  0  0
    3.2437    3.1700    0.0000 H   0  0  0  0  0  0  0  0  0  0  0  0
    4.4128    4.1979    0.0000 H   0  0  0  0  0  0  0  0  0  0  0  0
    5.4463    3.4048    0.0000 H   0  0  0  0  0  0  0  0  0  0  0  0
  1  2  1  0  0  0  0
  1 33  1  0  0  0  0
  1 34  1  0  0  0  0
  1 35  1  0  0  0  0
  2  3  1  0  0  0  0
  2 36  1  0  0  0  0
  2 37  1  0  0  0  0
  3  4  1  0  0  0  0
  3  7  1  0  0  0  0
  4  5  2  0  0  0  0
  4 24  1  0  0  0  0
  5  6  1  0  0  0  0
  5 38  1  0  0  0  0
  6  7  1  0  0  0  0
  6 11  2  0  0  0  0
  7  8  2  0  0  0  0
  8  9  1  0  0  0  0
  9 10  2  0  0  0  0
  9 16  1  0  0  0  0
 10 11  1  0  0  0  0
 10 14  1  0  0  0  0
 11 12  1  0  0  0  0
 12 13  1  0  0  0  0
 12 15  1  0  0  0  0
 13 14  2  0  0  0  0
 13 39  1  0  0  0  0
 15 40  1  0  0  0  0
 15 41  1  0  0  0  0
 15 42  1  0  0  0  0
 16 17  1  0  0  0  0
 16 43  1  0  0  0  0
 17 18  1  0  0  0  0
 17 21  2  0  0  0  0
 18 19  2  0  0  0  0
 18 44  1  0  0  0  0
 19 20  1  0  0  0  0
 19 23  1  0  0  0  0
 20 21  1  0  0  0  0
 20 22  1  0  0  0  0
 22 45  1  0  0  0  0
 22 46  1  0  0  0  0
 22 47  1  0  0  0  0
 23 48  1  0  0  0  0
 23 49  1  0  0  0  0
 23 50  1  0  0  0  0
 24 25  2  0  0  0  0
 24 26  1  0  0  0  0
 26 27  1  0  0  0  0
 26 30  1  0  0  0  0
 27 28  1  0  0  0  0
 27 29  1  0  0  0  0
 27 51  1  0  0  0  0
 28 29  1  0  0  0  0
 28 52  1  0  0  0  0
 28 53  1  0  0  0  0
 29 54  1  0  0  0  0
 29 55  1  0  0  0  0
 30 31  1  0  0  0  0
 30 32  1  0  0  0  0
 30 56  1  0  0  0  0
 31 32  1  0  0  0  0
 31 57  1  0  0  0  0
 31 58  1  0  0  0  0
 32 59  1  0  0  0  0
 32 60  1  0  0  0  0
M  END
>  <DRUGBANK_ID>
DB12591

>  <COMMON_NAME>
BMS-911543

>  <CAS_NUMBER>
1271022-90-2

>  <UNII>
7N03P021J8

$$$$
