
 OpenBabel10282417072D

 28 28  0  0  0  0  0  0  0  0999 V2000
    0.3572    0.1105    0.0000 O   0  0  0  0  0  0  0  0  0  0  0  0
   -1.7863   -1.1270    0.0000 O   0  0  0  0  0  0  0  0  0  0  0  0
   -0.3572   -1.9520    0.0000 O   0  0  0  0  0  0  0  0  0  0  0  0
   -1.7863    0.5230    0.0000 O   0  0  0  0  0  0  0  0  0  0  0  0
   -0.7698    1.2376    0.0000 O   0  0  0  0  0  0  0  0  0  0  0  0
    1.7863   -0.7145    0.0000 O   0  0  0  0  0  0  0  0  0  0  0  0
   -0.3572    1.9520    0.0000 O   0  0  0  0  0  0  0  0  0  0  0  0
    0.8803    1.2376    0.0000 N   0  0  0  0  0  0  0  0  0  0  0  0
   -1.0717   -0.7145    0.0000 C   0  0  1  0  0  0  0  0  0  0  0  0
   -0.3572   -1.1270    0.0000 C   0  0  1  0  0  0  0  0  0  0  0  0
   -1.0717    0.1105    0.0000 C   0  0  2  0  0  0  0  0  0  0  0  0
    0.3572   -0.7145    0.0000 C   0  0  1  0  0  0  0  0  0  0  0  0
   -0.3572    0.5230    0.0000 C   0  0  2  0  0  0  0  0  0  0  0  0
    1.0717   -1.1270    0.0000 C   0  0  0  0  0  0  0  0  0  0  0  0
    0.0552    1.2376    0.0000 C   0  0  0  0  0  0  0  0  0  0  0  0
    1.1361    1.6805    0.0000 H   0  0  0  0  0  0  0  0  0  0  0  0
    1.1361    0.7946    0.0000 H   0  0  0  0  0  0  0  0  0  0  0  0
   -2.6263   -0.6419    0.0000 H   0  0  0  0  0  0  0  0  0  0  0  0
   -1.1972   -2.4370    0.0000 H   0  0  0  0  0  0  0  0  0  0  0  0
   -1.7864    1.4930    0.0000 H   0  0  0  0  0  0  0  0  0  0  0  0
   -0.2848    2.0777    0.0000 H   0  0  0  0  0  0  0  0  0  0  0  0
    2.6263   -1.1996    0.0000 H   0  0  0  0  0  0  0  0  0  0  0  0
   -1.0717   -1.7845    0.0000 H   0  0  0  0  0  0  0  0  0  0  0  0
   -1.2838   -1.6620    0.0000 H   0  0  0  0  0  0  0  0  0  0  0  0
   -1.9983   -0.4245    0.0000 H   0  0  0  0  0  0  0  0  0  0  0  0
    1.2838   -0.1795    0.0000 H   0  0  0  0  0  0  0  0  0  0  0  0
    1.0717   -2.1970    0.0000 H   0  0  0  0  0  0  0  0  0  0  0  0
    0.1450   -1.6620    0.0000 H   0  0  0  0  0  0  0  0  0  0  0  0
  1 12  1  0  0  0  0
  1 13  1  0  0  0  0
  2 18  1  0  0  0  0
  3 19  1  0  0  0  0
  4 20  1  0  0  0  0
  5 21  1  0  0  0  0
  6 14  1  0  0  0  0
  6 22  1  0  0  0  0
  7 15  2  0  0  0  0
  8 15  1  0  0  0  0
  8 16  1  0  0  0  0
  8 17  1  0  0  0  0
  9  2  1  0  0  0  0
  9 10  1  0  0  0  0
  9 11  1  0  0  0  0
  9 23  1  1  0  0  0
 10  3  1  0  0  0  0
 10 12  1  0  0  0  0
 10 24  1  6  0  0  0
 11  4  1  0  0  0  0
 11 13  1  0  0  0  0
 11 25  1  6  0  0  0
 12 14  1  0  0  0  0
 12 26  1  1  0  0  0
 13  5  1  1  0  0  0
 13 15  1  0  0  0  0
 14 27  1  0  0  0  0
 14 28  1  0  0  0  0
M  END
>  <DRUGBANK_ID>
DB02719

>  <SECONDARY_ACCESSION_NUMBERS>
EXPT00842

>  <COMMON_NAME>
C-(1-hydrogyl-beta-D-glucopyranosyl) formamide

>  <CAS_NUMBER>
361440-32-6

>  <SYNONYMS>
(2R,3R,4S,5S,6R)-2,3,4,5-Tetrahydroxy-6-(hydroxymethyl)tetrahydro-2H-pyran-2-carboxamide

$$$$
