
 OpenBabel10282417072D

 63 68  0  0  0  0  0  0  0  0999 V2000
   -0.1435   -0.0305    0.0000 C   0  0  0  0  0  0  0  0  0  0  0  0
   -0.6284   -0.6979    0.0000 C   0  0  0  0  0  0  0  0  0  0  0  0
   -0.1435   -1.3654    0.0000 N   0  0  0  0  0  0  0  0  0  0  0  0
    0.6411   -1.1104    0.0000 C   0  0  0  0  0  0  0  0  0  0  0  0
    0.6411   -0.2854    0.0000 C   0  0  0  0  0  0  0  0  0  0  0  0
    1.3556    0.1271    0.0000 C   0  0  0  0  0  0  0  0  0  0  0  0
    2.0701   -0.2854    0.0000 N   0  0  0  0  0  0  0  0  0  0  0  0
    2.0701   -1.1104    0.0000 C   0  0  0  0  0  0  0  0  0  0  0  0
    1.3556   -1.5229    0.0000 N   0  0  0  0  0  0  0  0  0  0  0  0
    1.3556    0.9521    0.0000 C   0  0  0  0  0  0  0  0  0  0  0  0
    0.6881    1.4370    0.0000 C   0  0  0  0  0  0  0  0  0  0  0  0
    0.9431    2.2216    0.0000 N   0  0  0  0  0  0  0  0  0  0  0  0
    1.7681    2.2216    0.0000 N   0  0  0  0  0  0  0  0  0  0  0  0
    2.0230    1.4370    0.0000 C   0  0  0  0  0  0  0  0  0  0  0  0
    2.2530    2.8890    0.0000 C   0  0  3  0  0  0  0  0  0  0  0  0
    2.7379    3.5565    0.0000 C   0  0  0  0  0  0  0  0  0  0  0  0
    3.4054    3.0716    0.0000 N   0  0  3  0  0  0  0  0  0  0  0  0
    2.9204    2.4041    0.0000 C   0  0  0  0  0  0  0  0  0  0  0  0
    4.2202    3.2006    0.0000 C   0  0  0  0  0  0  0  0  0  0  0  0
    4.5159    3.9708    0.0000 C   0  0  0  0  0  0  0  0  0  0  0  0
    5.3307    4.0999    0.0000 C   0  0  0  0  0  0  0  0  0  0  0  0
    5.8499    3.4587    0.0000 N   0  0  0  0  0  0  0  0  0  0  0  0
    5.5542    2.6885    0.0000 C   0  0  0  0  0  0  0  0  0  0  0  0
    4.7394    2.5595    0.0000 C   0  0  0  0  0  0  0  0  0  0  0  0
    6.6647    3.5878    0.0000 C   0  0  0  0  0  0  0  0  0  0  0  0
    7.1839    2.9466    0.0000 O   0  0  0  0  0  0  0  0  0  0  0  0
    6.9604    4.3580    0.0000 C   0  0  0  0  0  0  0  0  0  0  0  0
    6.4412    4.9991    0.0000 C   0  0  0  0  0  0  0  0  0  0  0  0
    6.7369    5.7693    0.0000 C   0  0  0  0  0  0  0  0  0  0  0  0
    7.5517    5.8984    0.0000 N   0  0  0  0  0  0  0  0  0  0  0  0
    8.0709    5.2573    0.0000 C   0  0  0  0  0  0  0  0  0  0  0  0
    7.7752    4.4871    0.0000 C   0  0  0  0  0  0  0  0  0  0  0  0
    8.2944    3.8459    0.0000 F   0  0  0  0  0  0  0  0  0  0  0  0
    8.8857    5.3863    0.0000 C   0  0  0  0  0  0  0  0  0  0  0  0
    9.7006    5.5154    0.0000 F   0  0  0  0  0  0  0  0  0  0  0  0
    9.0148    4.5715    0.0000 F   0  0  0  0  0  0  0  0  0  0  0  0
    8.7567    6.2012    0.0000 F   0  0  0  0  0  0  0  0  0  0  0  0
    1.5856    3.3740    0.0000 C   0  0  0  0  0  0  0  0  0  0  0  0
    1.6718    4.1944    0.0000 C   0  0  0  0  0  0  0  0  0  0  0  0
    1.7580    5.0149    0.0000 N   0  0  0  0  0  0  0  0  0  0  0  0
   -0.4624    0.9510    0.0000 H   0  0  0  0  0  0  0  0  0  0  0  0
   -1.6604   -0.6979    0.0000 H   0  0  0  0  0  0  0  0  0  0  0  0
   -0.4477   -2.3017    0.0000 H   0  0  0  0  0  0  0  0  0  0  0  0
    2.9638   -1.6264    0.0000 H   0  0  0  0  0  0  0  0  0  0  0  0
   -0.2934    1.1181    0.0000 H   0  0  0  0  0  0  0  0  0  0  0  0
    3.0045    1.1181    0.0000 H   0  0  0  0  0  0  0  0  0  0  0  0
    2.5704    4.6133    0.0000 H   0  0  0  0  0  0  0  0  0  0  0  0
    3.6502    4.1156    0.0000 H   0  0  0  0  0  0  0  0  0  0  0  0
    3.0878    1.3473    0.0000 H   0  0  0  0  0  0  0  0  0  0  0  0
    2.0081    1.8450    0.0000 H   0  0  0  0  0  0  0  0  0  0  0  0
    5.2770    3.3680    0.0000 H   0  0  0  0  0  0  0  0  0  0  0  0
    3.8425    4.8023    0.0000 H   0  0  0  0  0  0  0  0  0  0  0  0
    4.8993    4.9697    0.0000 H   0  0  0  0  0  0  0  0  0  0  0  0
    5.7141    5.0988    0.0000 H   0  0  0  0  0  0  0  0  0  0  0  0
    6.3875    4.2673    0.0000 H   0  0  0  0  0  0  0  0  0  0  0  0
    6.2275    1.8569    0.0000 H   0  0  0  0  0  0  0  0  0  0  0  0
    5.1707    1.6896    0.0000 H   0  0  0  0  0  0  0  0  0  0  0  0
    4.3559    1.5606    0.0000 H   0  0  0  0  0  0  0  0  0  0  0  0
    3.6826    2.3921    0.0000 H   0  0  0  0  0  0  0  0  0  0  0  0
    5.4219    4.8377    0.0000 H   0  0  0  0  0  0  0  0  0  0  0  0
    6.0874    6.5713    0.0000 H   0  0  0  0  0  0  0  0  0  0  0  0
    0.6081    2.9388    0.0000 H   0  0  0  0  0  0  0  0  0  0  0  0
    0.7200    4.0029    0.0000 H   0  0  0  0  0  0  0  0  0  0  0  0
  1  2  2  0  0  0  0
  1  5  1  0  0  0  0
  1 41  1  0  0  0  0
  2  3  1  0  0  0  0
  2 42  1  0  0  0  0
  3  4  1  0  0  0  0
  3 43  1  0  0  0  0
  4  5  1  0  0  0  0
  4  9  2  0  0  0  0
  5  6  2  0  0  0  0
  6  7  1  0  0  0  0
  6 10  1  0  0  0  0
  7  8  2  0  0  0  0
  8  9  1  0  0  0  0
  8 44  1  0  0  0  0
 10 11  1  0  0  0  0
 10 14  2  0  0  0  0
 11 12  2  0  0  0  0
 11 45  1  0  0  0  0
 12 13  1  0  0  0  0
 13 14  1  0  0  0  0
 13 15  1  0  0  0  0
 14 46  1  0  0  0  0
 15 16  1  0  0  0  0
 15 18  1  0  0  0  0
 15 38  1  0  0  0  0
 16 17  1  0  0  0  0
 16 47  1  0  0  0  0
 16 48  1  0  0  0  0
 17 18  1  0  0  0  0
 17 19  1  0  0  0  0
 18 49  1  0  0  0  0
 18 50  1  0  0  0  0
 19 20  1  0  0  0  0
 19 24  1  0  0  0  0
 19 51  1  0  0  0  0
 20 21  1  0  0  0  0
 20 52  1  0  0  0  0
 20 53  1  0  0  0  0
 21 22  1  0  0  0  0
 21 54  1  0  0  0  0
 21 55  1  0  0  0  0
 22 23  1  0  0  0  0
 22 25  1  0  0  0  0
 23 24  1  0  0  0  0
 23 56  1  0  0  0  0
 23 57  1  0  0  0  0
 24 58  1  0  0  0  0
 24 59  1  0  0  0  0
 25 26  2  0  0  0  0
 25 27  1  0  0  0  0
 27 28  2  0  0  0  0
 27 32  1  0  0  0  0
 28 29  1  0  0  0  0
 28 60  1  0  0  0  0
 29 30  2  0  0  0  0
 29 61  1  0  0  0  0
 30 31  1  0  0  0  0
 31 32  2  0  0  0  0
 31 34  1  0  0  0  0
 32 33  1  0  0  0  0
 34 35  1  0  0  0  0
 34 36  1  0  0  0  0
 34 37  1  0  0  0  0
 38 39  1  0  0  0  0
 38 62  1  0  0  0  0
 38 63  1  0  0  0  0
 39 40  3  0  0  0  0
M  END
>  <DRUGBANK_ID>
DB12154

>  <COMMON_NAME>
Itacitinib

>  <CAS_NUMBER>
1334298-90-6

>  <UNII>
19J3781LPM

>  <SYNONYMS>
Itacitinib

$$$$
