SKA
 OpenBabel10282417072D

 21 22  0  0  0  0  0  0  0  0999 V2000
   -0.1839    1.8361    0.0000 Cl  0  0  0  0  0  0  0  0  0  0  0  0
   -0.1839    1.0111    0.0000 C   0  0  0  0  0  0  0  0  0  0  0  0
    0.5306    0.5986    0.0000 C   0  0  0  0  0  0  0  0  0  0  0  0
    1.2450    1.0111    0.0000 C   0  0  0  0  0  0  0  0  0  0  0  0
    1.9595    0.5986    0.0000 N   0  0  0  0  0  0  0  0  0  0  0  0
    1.9595   -0.2264    0.0000 C   0  0  0  0  0  0  0  0  0  0  0  0
    1.2450   -0.6389    0.0000 C   0  0  0  0  0  0  0  0  0  0  0  0
    0.5306   -0.2264    0.0000 C   0  0  0  0  0  0  0  0  0  0  0  0
   -0.1839   -0.6389    0.0000 C   0  0  0  0  0  0  0  0  0  0  0  0
   -0.8984   -0.2264    0.0000 C   0  0  0  0  0  0  0  0  0  0  0  0
   -0.8984    0.5986    0.0000 C   0  0  0  0  0  0  0  0  0  0  0  0
   -1.6128    1.0111    0.0000 Cl  0  0  0  0  0  0  0  0  0  0  0  0
    1.2450    2.0811    0.0000 H   0  0  0  0  0  0  0  0  0  0  0  0
    2.1716    1.5461    0.0000 H   0  0  0  0  0  0  0  0  0  0  0  0
    2.8428    1.1086    0.0000 H   0  0  0  0  0  0  0  0  0  0  0  0
    2.8861   -0.7614    0.0000 H   0  0  0  0  0  0  0  0  0  0  0  0
    1.9595   -1.2964    0.0000 H   0  0  0  0  0  0  0  0  0  0  0  0
    1.2450   -1.7089    0.0000 H   0  0  0  0  0  0  0  0  0  0  0  0
    0.3183   -1.1739    0.0000 H   0  0  0  0  0  0  0  0  0  0  0  0
   -0.1839   -1.6709    0.0000 H   0  0  0  0  0  0  0  0  0  0  0  0
   -1.7921   -0.7424    0.0000 H   0  0  0  0  0  0  0  0  0  0  0  0
  1  2  1  0  0  0  0
  2  3  2  0  0  0  0
  2 11  1  0  0  0  0
  3  4  1  0  0  0  0
  3  8  1  0  0  0  0
  4  5  1  0  0  0  0
  4 13  1  0  0  0  0
  4 14  1  0  0  0  0
  5  6  1  0  0  0  0
  5 15  1  0  0  0  0
  6  7  1  0  0  0  0
  6 16  1  0  0  0  0
  6 17  1  0  0  0  0
  7  8  1  0  0  0  0
  7 18  1  0  0  0  0
  7 19  1  0  0  0  0
  8  9  2  0  0  0  0
  9 10  1  0  0  0  0
  9 20  1  0  0  0  0
 10 11  2  0  0  0  0
 10 21  1  0  0  0  0
 11 12  1  0  0  0  0
M  END
>  <DRUGBANK_ID>
DB08550

>  <COMMON_NAME>
7,8-Dichloro-1,2,3,4-tetrahydroisoquinoline

>  <CAS_NUMBER>
61563-24-4

>  <UNII>
A0EP5O913J

$$$$
