PG6
 OpenBabel10282417072D

 44 43  0  0  0  0  0  0  0  0999 V2000
   -6.0735   -0.1554    0.0000 C   0  0  0  0  0  0  0  0  0  0  0  0
   -5.3590    0.2571    0.0000 O   0  0  0  0  0  0  0  0  0  0  0  0
   -4.6444   -0.1554    0.0000 C   0  0  0  0  0  0  0  0  0  0  0  0
   -3.9299    0.2571    0.0000 C   0  0  0  0  0  0  0  0  0  0  0  0
   -3.2153   -0.1554    0.0000 O   0  0  0  0  0  0  0  0  0  0  0  0
   -2.5009    0.2571    0.0000 C   0  0  0  0  0  0  0  0  0  0  0  0
   -1.7863   -0.1554    0.0000 C   0  0  0  0  0  0  0  0  0  0  0  0
   -1.0718    0.2571    0.0000 O   0  0  0  0  0  0  0  0  0  0  0  0
   -0.3573   -0.1554    0.0000 C   0  0  0  0  0  0  0  0  0  0  0  0
    0.3572    0.2571    0.0000 C   0  0  0  0  0  0  0  0  0  0  0  0
    1.0718   -0.1554    0.0000 O   0  0  0  0  0  0  0  0  0  0  0  0
    1.7863    0.2571    0.0000 C   0  0  0  0  0  0  0  0  0  0  0  0
    2.5008   -0.1554    0.0000 C   0  0  0  0  0  0  0  0  0  0  0  0
    3.2153    0.2571    0.0000 O   0  0  0  0  0  0  0  0  0  0  0  0
    3.9299   -0.1554    0.0000 C   0  0  0  0  0  0  0  0  0  0  0  0
    4.6443    0.2571    0.0000 C   0  0  0  0  0  0  0  0  0  0  0  0
    5.3589   -0.1554    0.0000 O   0  0  0  0  0  0  0  0  0  0  0  0
    6.0735    0.2571    0.0000 C   0  0  0  0  0  0  0  0  0  0  0  0
   -7.0001    0.3796    0.0000 H   0  0  0  0  0  0  0  0  0  0  0  0
   -6.0735   -1.2254    0.0000 H   0  0  0  0  0  0  0  0  0  0  0  0
   -7.0002   -0.6904    0.0000 H   0  0  0  0  0  0  0  0  0  0  0  0
   -4.6444   -1.2254    0.0000 H   0  0  0  0  0  0  0  0  0  0  0  0
   -3.7177   -0.6904    0.0000 H   0  0  0  0  0  0  0  0  0  0  0  0
   -3.9299    1.3271    0.0000 H   0  0  0  0  0  0  0  0  0  0  0  0
   -3.0033    0.7922    0.0000 H   0  0  0  0  0  0  0  0  0  0  0  0
   -2.5010    1.3271    0.0000 H   0  0  0  0  0  0  0  0  0  0  0  0
   -1.5743    0.7922    0.0000 H   0  0  0  0  0  0  0  0  0  0  0  0
   -1.7863   -1.2254    0.0000 H   0  0  0  0  0  0  0  0  0  0  0  0
   -0.8596   -0.6904    0.0000 H   0  0  0  0  0  0  0  0  0  0  0  0
   -0.3573   -1.2254    0.0000 H   0  0  0  0  0  0  0  0  0  0  0  0
    0.5693   -0.6904    0.0000 H   0  0  0  0  0  0  0  0  0  0  0  0
    0.3572    1.3271    0.0000 H   0  0  0  0  0  0  0  0  0  0  0  0
    1.2838    0.7922    0.0000 H   0  0  0  0  0  0  0  0  0  0  0  0
    1.7863    1.3271    0.0000 H   0  0  0  0  0  0  0  0  0  0  0  0
    2.7129    0.7921    0.0000 H   0  0  0  0  0  0  0  0  0  0  0  0
    2.5008   -1.2254    0.0000 H   0  0  0  0  0  0  0  0  0  0  0  0
    3.4274   -0.6904    0.0000 H   0  0  0  0  0  0  0  0  0  0  0  0
    3.9300   -1.2254    0.0000 H   0  0  0  0  0  0  0  0  0  0  0  0
    4.8566   -0.6904    0.0000 H   0  0  0  0  0  0  0  0  0  0  0  0
    4.6442    1.3271    0.0000 H   0  0  0  0  0  0  0  0  0  0  0  0
    5.5709    0.7922    0.0000 H   0  0  0  0  0  0  0  0  0  0  0  0
    7.0001   -0.2780    0.0000 H   0  0  0  0  0  0  0  0  0  0  0  0
    6.0736    1.3271    0.0000 H   0  0  0  0  0  0  0  0  0  0  0  0
    7.0002    0.7920    0.0000 H   0  0  0  0  0  0  0  0  0  0  0  0
  1  2  1  0  0  0  0
  1 19  1  0  0  0  0
  1 20  1  0  0  0  0
  1 21  1  0  0  0  0
  2  3  1  0  0  0  0
  3  4  1  0  0  0  0
  3 22  1  0  0  0  0
  3 23  1  0  0  0  0
  4  5  1  0  0  0  0
  4 24  1  0  0  0  0
  4 25  1  0  0  0  0
  5  6  1  0  0  0  0
  6  7  1  0  0  0  0
  6 26  1  0  0  0  0
  6 27  1  0  0  0  0
  7  8  1  0  0  0  0
  7 28  1  0  0  0  0
  7 29  1  0  0  0  0
  8  9  1  0  0  0  0
  9 10  1  0  0  0  0
  9 30  1  0  0  0  0
  9 31  1  0  0  0  0
 10 11  1  0  0  0  0
 10 32  1  0  0  0  0
 10 33  1  0  0  0  0
 11 12  1  0  0  0  0
 12 13  1  0  0  0  0
 12 34  1  0  0  0  0
 12 35  1  0  0  0  0
 13 14  1  0  0  0  0
 13 36  1  0  0  0  0
 13 37  1  0  0  0  0
 14 15  1  0  0  0  0
 15 16  1  0  0  0  0
 15 38  1  0  0  0  0
 15 39  1  0  0  0  0
 16 17  1  0  0  0  0
 16 40  1  0  0  0  0
 16 41  1  0  0  0  0
 17 18  1  0  0  0  0
 18 42  1  0  0  0  0
 18 43  1  0  0  0  0
 18 44  1  0  0  0  0
M  END
>  <DRUGBANK_ID>
DB02580

>  <SECONDARY_ACCESSION_NUMBERS>
EXPT02566

>  <COMMON_NAME>
Pentaglyme

>  <CAS_NUMBER>
1191-87-3

>  <SYNONYMS>
pentaethyleneglycol dimethyl ether

$$$$
