
 OpenBabel10282417072D

 37 39  0  0  0  0  0  0  0  0999 V2000
   -2.0367   -0.4741    0.0000 C   0  0  0  0  0  0  0  0  0  0  0  0
   -2.0367   -1.2991    0.0000 C   0  0  0  0  0  0  0  0  0  0  0  0
   -2.7512   -1.7116    0.0000 C   0  0  0  0  0  0  0  0  0  0  0  0
   -3.4656   -1.2991    0.0000 C   0  0  0  0  0  0  0  0  0  0  0  0
   -3.4656   -0.4741    0.0000 C   0  0  0  0  0  0  0  0  0  0  0  0
   -2.7512   -0.0616    0.0000 C   0  0  0  0  0  0  0  0  0  0  0  0
   -2.7512    0.7634    0.0000 N   0  0  0  0  0  0  0  0  0  0  0  0
   -3.4656    1.1759    0.0000 C   0  0  0  0  0  0  0  0  0  0  0  0
   -4.1801    0.7634    0.0000 N   0  0  0  0  0  0  0  0  0  0  0  0
   -4.8946    1.1759    0.0000 C   0  0  0  0  0  0  0  0  0  0  0  0
   -4.8946    2.0009    0.0000 N   0  0  0  0  0  0  0  0  0  0  0  0
   -4.1801    2.4134    0.0000 C   0  0  0  0  0  0  0  0  0  0  0  0
   -3.4656    2.0009    0.0000 N   0  0  0  0  0  0  0  0  0  0  0  0
   -4.1801    3.2384    0.0000 N   0  0  0  0  0  0  0  0  0  0  0  0
   -5.6091    0.7634    0.0000 N   0  0  0  0  0  0  0  0  0  0  0  0
   -2.7512   -2.5366    0.0000 As  0  0  3  0  0  0  0  0  0  0  0  0
   -2.0837   -3.0215    0.0000 S   0  0  0  0  0  0  0  0  0  0  0  0
   -2.3387   -3.8062    0.0000 C   0  0  0  0  0  0  0  0  0  0  0  0
   -3.1637   -3.8062    0.0000 C   0  0  3  0  0  0  0  0  0  0  0  0
   -3.4186   -3.0215    0.0000 S   0  0  0  0  0  0  0  0  0  0  0  0
   -3.6486   -4.4736    0.0000 C   0  0  0  0  0  0  0  0  0  0  0  0
   -3.3130   -5.2273    0.0000 O   0  0  0  0  0  0  0  0  0  0  0  0
   -1.1430    0.0419    0.0000 H   0  0  0  0  0  0  0  0  0  0  0  0
   -1.1430   -1.8151    0.0000 H   0  0  0  0  0  0  0  0  0  0  0  0
   -4.3593   -1.8151    0.0000 H   0  0  0  0  0  0  0  0  0  0  0  0
   -4.3593    0.0419    0.0000 H   0  0  0  0  0  0  0  0  0  0  0  0
   -1.8986    1.2556    0.0000 H   0  0  0  0  0  0  0  0  0  0  0  0
   -3.3275    3.7306    0.0000 H   0  0  0  0  0  0  0  0  0  0  0  0
   -5.0327    3.7306    0.0000 H   0  0  0  0  0  0  0  0  0  0  0  0
   -6.4617    1.2557    0.0000 H   0  0  0  0  0  0  0  0  0  0  0  0
   -5.6091   -0.2211    0.0000 H   0  0  0  0  0  0  0  0  0  0  0  0
   -1.7098   -4.6719    0.0000 H   0  0  0  0  0  0  0  0  0  0  0  0
   -2.8245   -4.7596    0.0000 H   0  0  0  0  0  0  0  0  0  0  0  0
   -2.5347   -2.9406    0.0000 H   0  0  0  0  0  0  0  0  0  0  0  0
   -4.7127   -4.3618    0.0000 H   0  0  0  0  0  0  0  0  0  0  0  0
   -4.2775   -5.3393    0.0000 H   0  0  0  0  0  0  0  0  0  0  0  0
   -3.8831   -6.0121    0.0000 H   0  0  0  0  0  0  0  0  0  0  0  0
  1  2  2  0  0  0  0
  1  6  1  0  0  0  0
  1 23  1  0  0  0  0
  2  3  1  0  0  0  0
  2 24  1  0  0  0  0
  3  4  2  0  0  0  0
  3 16  1  0  0  0  0
  4  5  1  0  0  0  0
  4 25  1  0  0  0  0
  5  6  2  0  0  0  0
  5 26  1  0  0  0  0
  6  7  1  0  0  0  0
  7  8  1  0  0  0  0
  7 27  1  0  0  0  0
  8  9  2  0  0  0  0
  8 13  1  0  0  0  0
  9 10  1  0  0  0  0
 10 11  2  0  0  0  0
 10 15  1  0  0  0  0
 11 12  1  0  0  0  0
 12 13  2  0  0  0  0
 12 14  1  0  0  0  0
 14 28  1  0  0  0  0
 14 29  1  0  0  0  0
 15 30  1  0  0  0  0
 15 31  1  0  0  0  0
 16 17  1  0  0  0  0
 16 20  1  0  0  0  0
 17 18  1  0  0  0  0
 18 19  1  0  0  0  0
 18 32  1  0  0  0  0
 18 33  1  0  0  0  0
 19 20  1  0  0  0  0
 19 21  1  0  0  0  0
 19 34  1  0  0  0  0
 21 22  1  0  0  0  0
 21 35  1  0  0  0  0
 21 36  1  0  0  0  0
 22 37  1  0  0  0  0
M  END
>  <DRUGBANK_ID>
DB12864

>  <COMMON_NAME>
Melarsoprol

>  <CAS_NUMBER>
494-79-1

>  <UNII>
ZF3786Q2E8

>  <SYNONYMS>
Melarsoprol

$$$$
