
 OpenBabel10282417072D

 54 55  0  0  0  0  0  0  0  0999 V2000
    4.1529   -0.0497    0.0000 S   0  0  0  0  0  0  0  0  0  0  0  0
    1.9544   -1.7176    0.0000 O   0  0  0  0  0  0  0  0  0  0  0  0
    3.8558   -2.7822    0.0000 O   0  5  0  0  0  0  0  0  0  0  0  0
    5.2149   -2.3407    0.0000 O   0  0  0  0  0  0  0  0  0  0  0  0
    0.9419   -0.7250    0.0000 O   0  0  0  0  0  0  0  0  0  0  0  0
   -2.5509    2.7822    0.0000 O   0  5  0  0  0  0  0  0  0  0  0  0
   -1.1714    2.4096    0.0000 O   0  0  0  0  0  0  0  0  0  0  0  0
   -3.3483    2.5704    0.0000 O   0  0  0  0  0  0  0  0  0  0  0  0
    3.3684   -1.1296    0.0000 N   0  0  0  0  0  0  0  0  0  0  0  0
    1.9544    0.2833    0.0000 N   0  0  0  0  0  0  0  0  0  0  0  0
   -2.9812    1.1893    0.0000 N   0  0  0  0  0  0  0  0  0  0  0  0
   -4.9429    2.1466    0.0000 N   0  3  0  0  0  0  0  0  0  0  0  0
    3.3684   -0.3046    0.0000 C   0  0  1  0  0  0  0  0  0  0  0  0
    4.6379   -0.7172    0.0000 C   0  0  0  0  0  0  0  0  0  0  0  0
    4.1529   -1.3845    0.0000 C   0  0  2  0  0  0  0  0  0  0  0  0
    2.5365   -0.3013    0.0000 C   0  0  1  0  0  0  0  0  0  0  0  0
    2.5365   -1.1330    0.0000 C   0  0  0  0  0  0  0  0  0  0  0  0
    5.3054   -1.2020    0.0000 C   0  0  0  0  0  0  0  0  0  0  0  0
    5.3054   -0.2322    0.0000 C   0  0  0  0  0  0  0  0  0  0  0  0
    4.4080   -2.1692    0.0000 C   0  0  0  0  0  0  0  0  0  0  0  0
    1.1571    0.0714    0.0000 C   0  0  0  0  0  0  0  0  0  0  0  0
    0.5749    0.6559    0.0000 C   0  0  0  0  0  0  0  0  0  0  0  0
   -0.2223    0.4441    0.0000 C   0  0  0  0  0  0  0  0  0  0  0  0
   -0.8044    1.0285    0.0000 C   0  0  0  0  0  0  0  0  0  0  0  0
   -1.6018    0.8166    0.0000 C   0  0  0  0  0  0  0  0  0  0  0  0
   -2.1840    1.4013    0.0000 C   0  0  1  0  0  0  0  0  0  0  0  0
   -1.9688    2.1978    0.0000 C   0  0  0  0  0  0  0  0  0  0  0  0
   -3.5635    1.7740    0.0000 C   0  0  0  0  0  0  0  0  0  0  0  0
   -4.3607    1.5621    0.0000 C   0  0  0  0  0  0  0  0  0  0  0  0
    3.2665    0.3474    0.0000 H   0  0  0  0  0  0  0  0  0  0  0  0
    2.0878    0.7770    0.0000 H   0  0  0  0  0  0  0  0  0  0  0  0
   -3.1146    0.6956    0.0000 H   0  0  0  0  0  0  0  0  0  0  0  0
   -4.5805    2.5075    0.0000 H   0  0  0  0  0  0  0  0  0  0  0  0
   -5.3054    1.7857    0.0000 H   0  0  0  0  0  0  0  0  0  0  0  0
   -5.3039    2.5090    0.0000 H   0  0  0  0  0  0  0  0  0  0  0  0
    3.3964   -2.1412    0.0000 H   0  0  0  0  0  0  0  0  0  0  0  0
    2.9490    0.6860    0.0000 H   0  0  0  0  0  0  0  0  0  0  0  0
    5.1937   -2.2662    0.0000 H   0  0  0  0  0  0  0  0  0  0  0  0
    6.2828   -0.7666    0.0000 H   0  0  0  0  0  0  0  0  0  0  0  0
    6.1712   -1.8308    0.0000 H   0  0  0  0  0  0  0  0  0  0  0  0
    6.2829   -0.6674    0.0000 H   0  0  0  0  0  0  0  0  0  0  0  0
    5.1935    0.8319    0.0000 H   0  0  0  0  0  0  0  0  0  0  0  0
    6.1710    0.3968    0.0000 H   0  0  0  0  0  0  0  0  0  0  0  0
    0.8539    1.6889    0.0000 H   0  0  0  0  0  0  0  0  0  0  0  0
   -0.1801    1.4141    0.0000 H   0  0  0  0  0  0  0  0  0  0  0  0
   -0.5013   -0.5889    0.0000 H   0  0  0  0  0  0  0  0  0  0  0  0
   -1.2564    0.1692    0.0000 H   0  0  0  0  0  0  0  0  0  0  0  0
   -0.5254    2.0615    0.0000 H   0  0  0  0  0  0  0  0  0  0  0  0
   -1.5595    1.7866    0.0000 H   0  0  0  0  0  0  0  0  0  0  0  0
   -1.8809   -0.2164    0.0000 H   0  0  0  0  0  0  0  0  0  0  0  0
   -2.6359    0.5419    0.0000 H   0  0  0  0  0  0  0  0  0  0  0  0
   -2.4630    0.3683    0.0000 H   0  0  0  0  0  0  0  0  0  0  0  0
   -4.6397    0.5291    0.0000 H   0  0  0  0  0  0  0  0  0  0  0  0
   -3.6056    0.8040    0.0000 H   0  0  0  0  0  0  0  0  0  0  0  0
  1 13  1  0  0  0  0
  1 14  1  0  0  0  0
  2 17  2  0  0  0  0
  3 20  1  0  0  0  0
  4 20  2  0  0  0  0
  5 21  2  0  0  0  0
  6 27  1  0  0  0  0
  7 27  2  0  0  0  0
  8 28  2  0  0  0  0
  9 13  1  0  0  0  0
  9 15  1  0  0  0  0
  9 17  1  0  0  0  0
 10 21  1  0  0  0  0
 10 31  1  0  0  0  0
 11 28  1  0  0  0  0
 11 32  1  0  0  0  0
 12 29  1  0  0  0  0
 12 33  1  0  0  0  0
 12 34  1  0  0  0  0
 12 35  1  0  0  0  0
 13 16  1  0  0  0  0
 13 30  1  6  0  0  0
 14 15  1  0  0  0  0
 14 18  1  0  0  0  0
 14 19  1  0  0  0  0
 15 20  1  0  0  0  0
 15 36  1  1  0  0  0
 16 10  1  0  0  0  0
 16 17  1  0  0  0  0
 16 37  1  6  0  0  0
 18 38  1  0  0  0  0
 18 39  1  0  0  0  0
 18 40  1  0  0  0  0
 19 41  1  0  0  0  0
 19 42  1  0  0  0  0
 19 43  1  0  0  0  0
 21 22  1  0  0  0  0
 22 23  1  0  0  0  0
 22 44  1  0  0  0  0
 22 45  1  0  0  0  0
 23 24  1  0  0  0  0
 23 46  1  0  0  0  0
 23 47  1  0  0  0  0
 24 25  1  0  0  0  0
 24 48  1  0  0  0  0
 24 49  1  0  0  0  0
 25 26  1  0  0  0  0
 25 50  1  0  0  0  0
 25 51  1  0  0  0  0
 26 11  1  0  0  0  0
 26 27  1  0  0  0  0
 26 52  1  1  0  0  0
 28 29  1  0  0  0  0
 29 53  1  0  0  0  0
 29 54  1  0  0  0  0
M  CHG  3   3  -1   6  -1  12   1
M  END
>  <DRUGBANK_ID>
DB03820

>  <SECONDARY_ACCESSION_NUMBERS>
EXPT01725

>  <COMMON_NAME>
(2S,5R,6R)-6-({(6S)-6-[(Ammonioacetyl)amino]-6-carboxylatohexanoyl}amino)-3,3-dimethyl-7-oxo-4-thia-1-azabicyclo[3.2.0]heptane-2-carboxylate

$$$$
