
 OpenBabel10282417072D

 56 59  0  0  0  0  0  0  0  0999 V2000
    0.8057   -2.6946    0.0000 N   0  0  0  0  0  0  0  0  0  0  0  0
    0.3931   -3.4091    0.0000 N   0  0  0  0  0  0  0  0  0  0  0  0
   -0.4318   -3.4091    0.0000 C   0  0  0  0  0  0  0  0  0  0  0  0
   -0.8443   -2.6946    0.0000 N   0  0  0  0  0  0  0  0  0  0  0  0
   -0.4318   -1.9801    0.0000 C   0  0  0  0  0  0  0  0  0  0  0  0
    0.3932   -1.9801    0.0000 C   0  0  0  0  0  0  0  0  0  0  0  0
    0.9452   -1.3671    0.0000 C   0  0  0  0  0  0  0  0  0  0  0  0
    1.6988   -1.7026    0.0000 C   0  0  0  0  0  0  0  0  0  0  0  0
    1.6126   -2.5231    0.0000 C   0  0  0  0  0  0  0  0  0  0  0  0
    2.4133   -1.2901    0.0000 C   0  0  0  0  0  0  0  0  0  0  0  0
    2.4133   -0.4651    0.0000 O   0  0  0  0  0  0  0  0  0  0  0  0
    3.1278   -1.7026    0.0000 N   0  0  0  0  0  0  0  0  0  0  0  0
    3.8423   -1.2901    0.0000 C   0  0  0  0  0  0  0  0  0  0  0  0
    4.5568   -1.7027    0.0000 C   0  0  0  0  0  0  0  0  0  0  0  0
    5.2712   -1.2902    0.0000 C   0  0  0  0  0  0  0  0  0  0  0  0
    0.7736   -0.5601    0.0000 C   0  0  0  0  0  0  0  0  0  0  0  0
   -0.8443   -1.2657    0.0000 N   0  0  0  0  0  0  0  0  0  0  0  0
   -1.6693   -1.2657    0.0000 C   0  0  0  0  0  0  0  0  0  0  0  0
   -2.0818   -1.9802    0.0000 C   0  0  0  0  0  0  0  0  0  0  0  0
   -2.9067   -1.9801    0.0000 C   0  0  0  0  0  0  0  0  0  0  0  0
   -3.3192   -1.2657    0.0000 C   0  0  0  0  0  0  0  0  0  0  0  0
   -2.9068   -0.5512    0.0000 C   0  0  0  0  0  0  0  0  0  0  0  0
   -2.0818   -0.5512    0.0000 C   0  0  0  0  0  0  0  0  0  0  0  0
   -3.3193    0.1631    0.0000 C   0  0  0  0  0  0  0  0  0  0  0  0
   -2.9068    0.8776    0.0000 O   0  0  0  0  0  0  0  0  0  0  0  0
   -4.1442    0.1632    0.0000 N   0  0  0  0  0  0  0  0  0  0  0  0
   -4.5567    0.8776    0.0000 C   0  0  0  0  0  0  0  0  0  0  0  0
   -4.5568    1.7027    0.0000 C   0  0  0  0  0  0  0  0  0  0  0  0
   -5.2712    1.2902    0.0000 C   0  0  0  0  0  0  0  0  0  0  0  0
   -1.6693   -2.6946    0.0000 C   0  0  0  0  0  0  0  0  0  0  0  0
   -0.9478   -4.3028    0.0000 H   0  0  0  0  0  0  0  0  0  0  0  0
    2.3795   -3.2136    0.0000 H   0  0  0  0  0  0  0  0  0  0  0  0
    3.1278   -2.6871    0.0000 H   0  0  0  0  0  0  0  0  0  0  0  0
    3.8424   -0.2201    0.0000 H   0  0  0  0  0  0  0  0  0  0  0  0
    4.7690   -0.7552    0.0000 H   0  0  0  0  0  0  0  0  0  0  0  0
    4.5568   -2.7727    0.0000 H   0  0  0  0  0  0  0  0  0  0  0  0
    5.4835   -2.2377    0.0000 H   0  0  0  0  0  0  0  0  0  0  0  0
    6.1979   -1.8252    0.0000 H   0  0  0  0  0  0  0  0  0  0  0  0
    5.2712   -0.2202    0.0000 H   0  0  0  0  0  0  0  0  0  0  0  0
    6.1978   -0.7552    0.0000 H   0  0  0  0  0  0  0  0  0  0  0  0
    1.5687    0.1559    0.0000 H   0  0  0  0  0  0  0  0  0  0  0  0
   -0.2441   -0.2295    0.0000 H   0  0  0  0  0  0  0  0  0  0  0  0
    0.5511    0.4865    0.0000 H   0  0  0  0  0  0  0  0  0  0  0  0
   -0.3521   -0.4131    0.0000 H   0  0  0  0  0  0  0  0  0  0  0  0
   -3.4227   -2.8738    0.0000 H   0  0  0  0  0  0  0  0  0  0  0  0
   -4.3512   -1.2658    0.0000 H   0  0  0  0  0  0  0  0  0  0  0  0
   -1.5658    0.3425    0.0000 H   0  0  0  0  0  0  0  0  0  0  0  0
   -4.6365   -0.6894    0.0000 H   0  0  0  0  0  0  0  0  0  0  0  0
   -5.0917    1.8042    0.0000 H   0  0  0  0  0  0  0  0  0  0  0  0
   -4.0219    2.6294    0.0000 H   0  0  0  0  0  0  0  0  0  0  0  0
   -5.3135    2.4593    0.0000 H   0  0  0  0  0  0  0  0  0  0  0  0
   -6.3412    1.2902    0.0000 H   0  0  0  0  0  0  0  0  0  0  0  0
   -5.5481    2.3237    0.0000 H   0  0  0  0  0  0  0  0  0  0  0  0
   -2.2043   -3.6213    0.0000 H   0  0  0  0  0  0  0  0  0  0  0  0
   -0.5993   -2.6946    0.0000 H   0  0  0  0  0  0  0  0  0  0  0  0
   -1.1343   -3.6212    0.0000 H   0  0  0  0  0  0  0  0  0  0  0  0
  1  2  1  0  0  0  0
  3  2  2  0  0  0  0
  3  4  1  0  0  0  0
  3 31  1  0  0  0  0
  5  4  2  0  0  0  0
  5 17  1  0  0  0  0
  5  6  1  0  0  0  0
  6  1  1  0  0  0  0
  6  7  2  0  0  0  0
  7  8  1  0  0  0  0
  8  9  2  0  0  0  0
  9  1  1  0  0  0  0
  9 32  1  0  0  0  0
 10  8  1  0  0  0  0
 10 11  2  0  0  0  0
 10 12  1  0  0  0  0
 12 33  1  0  0  0  0
 13 12  1  0  0  0  0
 13 14  1  0  0  0  0
 13 34  1  0  0  0  0
 13 35  1  0  0  0  0
 14 15  1  0  0  0  0
 14 36  1  0  0  0  0
 14 37  1  0  0  0  0
 15 38  1  0  0  0  0
 15 39  1  0  0  0  0
 15 40  1  0  0  0  0
 16  7  1  0  0  0  0
 16 41  1  0  0  0  0
 16 42  1  0  0  0  0
 16 43  1  0  0  0  0
 17 44  1  0  0  0  0
 18 17  1  0  0  0  0
 18 23  2  0  0  0  0
 18 19  1  0  0  0  0
 19 20  2  0  0  0  0
 19 30  1  0  0  0  0
 20 21  1  0  0  0  0
 20 45  1  0  0  0  0
 21 22  2  0  0  0  0
 21 46  1  0  0  0  0
 22 24  1  0  0  0  0
 22 23  1  0  0  0  0
 23 47  1  0  0  0  0
 24 26  1  0  0  0  0
 24 25  2  0  0  0  0
 26 48  1  0  0  0  0
 27 26  1  0  0  0  0
 27 29  1  0  0  0  0
 27 28  1  0  0  0  0
 27 49  1  0  0  0  0
 28 29  1  0  0  0  0
 28 50  1  0  0  0  0
 28 51  1  0  0  0  0
 29 52  1  0  0  0  0
 29 53  1  0  0  0  0
 30 54  1  0  0  0  0
 30 55  1  0  0  0  0
 30 56  1  0  0  0  0
M  END
>  <DRUGBANK_ID>
DB12696

>  <COMMON_NAME>
BMS-582949

>  <CAS_NUMBER>
623152-17-0

>  <UNII>
CR743OME9E

$$$$
