
 OpenBabel10282417072D

 48 47  0  0  0  0  0  0  0  0999 V2000
   11.8557   -4.9590    0.0000 C   0  0  0  0  0  0  0  0  0  0  0  0
   12.2682   -5.6735    0.0000 C   0  0  0  0  0  0  0  0  0  0  0  0
   11.8557   -6.3880    0.0000 C   0  0  0  0  0  0  0  0  0  0  0  0
   12.2682   -7.1024    0.0000 C   0  0  0  0  0  0  0  0  0  0  0  0
   11.8557   -7.8169    0.0000 C   0  0  0  0  0  0  0  0  0  0  0  0
   12.2682   -8.5314    0.0000 C   0  0  0  0  0  0  0  0  0  0  0  0
   11.8557   -9.2459    0.0000 C   0  0  0  0  0  0  0  0  0  0  0  0
   12.2682   -9.9604    0.0000 C   0  0  0  0  0  0  0  0  0  0  0  0
   13.0932   -9.9604    0.0000 C   0  0  0  0  0  0  0  0  0  0  0  0
   13.5057  -10.6749    0.0000 C   0  0  0  0  0  0  0  0  0  0  0  0
   14.3307  -10.6749    0.0000 C   0  0  0  0  0  0  0  0  0  0  0  0
   14.7432  -11.3893    0.0000 C   0  0  0  0  0  0  0  0  0  0  0  0
   15.5682  -11.3893    0.0000 C   0  0  0  0  0  0  0  0  0  0  0  0
   15.9807  -12.1038    0.0000 C   0  0  0  0  0  0  0  0  0  0  0  0
   16.8057  -12.1038    0.0000 C   0  0  0  0  0  0  0  0  0  0  0  0
   17.2182  -12.8183    0.0000 C   0  0  0  0  0  0  0  0  0  0  0  0
   16.8057  -13.5327    0.0000 O   0  0  0  0  0  0  0  0  0  0  0  0
   18.0432  -12.8183    0.0000 O   0  0  0  0  0  0  0  0  0  0  0  0
   12.3907   -4.0324    0.0000 H   0  0  0  0  0  0  0  0  0  0  0  0
   10.7857   -4.9590    0.0000 H   0  0  0  0  0  0  0  0  0  0  0  0
   11.3207   -4.0323    0.0000 H   0  0  0  0  0  0  0  0  0  0  0  0
   13.3382   -5.6735    0.0000 H   0  0  0  0  0  0  0  0  0  0  0  0
   12.8032   -6.6001    0.0000 H   0  0  0  0  0  0  0  0  0  0  0  0
   10.7857   -6.3880    0.0000 H   0  0  0  0  0  0  0  0  0  0  0  0
   11.3207   -7.3147    0.0000 H   0  0  0  0  0  0  0  0  0  0  0  0
   13.3382   -7.1024    0.0000 H   0  0  0  0  0  0  0  0  0  0  0  0
   12.8032   -8.0290    0.0000 H   0  0  0  0  0  0  0  0  0  0  0  0
   10.7857   -7.8169    0.0000 H   0  0  0  0  0  0  0  0  0  0  0  0
   11.3207   -8.7435    0.0000 H   0  0  0  0  0  0  0  0  0  0  0  0
   13.3382   -8.5314    0.0000 H   0  0  0  0  0  0  0  0  0  0  0  0
   12.8032   -9.4580    0.0000 H   0  0  0  0  0  0  0  0  0  0  0  0
   10.8237   -9.2459    0.0000 H   0  0  0  0  0  0  0  0  0  0  0  0
   11.7522  -10.8541    0.0000 H   0  0  0  0  0  0  0  0  0  0  0  0
   13.6282   -9.0338    0.0000 H   0  0  0  0  0  0  0  0  0  0  0  0
   14.1632   -9.9604    0.0000 H   0  0  0  0  0  0  0  0  0  0  0  0
   12.9707  -11.6015    0.0000 H   0  0  0  0  0  0  0  0  0  0  0  0
   14.0407  -11.6015    0.0000 H   0  0  0  0  0  0  0  0  0  0  0  0
   14.8657   -9.7482    0.0000 H   0  0  0  0  0  0  0  0  0  0  0  0
   15.4007  -10.6749    0.0000 H   0  0  0  0  0  0  0  0  0  0  0  0
   14.2082  -12.3160    0.0000 H   0  0  0  0  0  0  0  0  0  0  0  0
   15.2782  -12.3159    0.0000 H   0  0  0  0  0  0  0  0  0  0  0  0
   16.1032  -10.4627    0.0000 H   0  0  0  0  0  0  0  0  0  0  0  0
   16.6382  -11.3893    0.0000 H   0  0  0  0  0  0  0  0  0  0  0  0
   15.4457  -13.0304    0.0000 H   0  0  0  0  0  0  0  0  0  0  0  0
   16.5157  -13.0304    0.0000 H   0  0  0  0  0  0  0  0  0  0  0  0
   17.3407  -11.1772    0.0000 H   0  0  0  0  0  0  0  0  0  0  0  0
   17.8757  -12.1038    0.0000 H   0  0  0  0  0  0  0  0  0  0  0  0
   15.8687  -13.5327    0.0000 H   0  0  0  0  0  0  0  0  0  0  0  0
  1  2  1  0  0  0  0
  1 19  1  0  0  0  0
  1 20  1  0  0  0  0
  1 21  1  0  0  0  0
  2  3  1  0  0  0  0
  2 22  1  0  0  0  0
  2 23  1  0  0  0  0
  3  4  1  0  0  0  0
  3 24  1  0  0  0  0
  3 25  1  0  0  0  0
  4  5  1  0  0  0  0
  4 26  1  0  0  0  0
  4 27  1  0  0  0  0
  5  6  1  0  0  0  0
  5 28  1  0  0  0  0
  5 29  1  0  0  0  0
  6  7  1  0  0  0  0
  6 30  1  0  0  0  0
  6 31  1  0  0  0  0
  7  8  2  0  0  0  0
  7 32  1  0  0  0  0
  8  9  1  0  0  0  0
  8 33  1  0  0  0  0
  9 10  1  0  0  0  0
  9 34  1  0  0  0  0
  9 35  1  0  0  0  0
 10 11  1  0  0  0  0
 10 36  1  0  0  0  0
 10 37  1  0  0  0  0
 11 12  1  0  0  0  0
 11 38  1  0  0  0  0
 11 39  1  0  0  0  0
 12 13  1  0  0  0  0
 12 40  1  0  0  0  0
 12 41  1  0  0  0  0
 13 14  1  0  0  0  0
 13 42  1  0  0  0  0
 13 43  1  0  0  0  0
 14 15  1  0  0  0  0
 14 44  1  0  0  0  0
 14 45  1  0  0  0  0
 15 16  1  0  0  0  0
 15 46  1  0  0  0  0
 15 47  1  0  0  0  0
 16 17  1  0  0  0  0
 16 18  2  0  0  0  0
 17 48  1  0  0  0  0
M  END
>  <DRUGBANK_ID>
DB04257

>  <SECONDARY_ACCESSION_NUMBERS>
EXPT02495

>  <COMMON_NAME>
Palmitoleic Acid

>  <CAS_NUMBER>
373-49-9

>  <UNII>
209B6YPZ4I

>  <SYNONYMS>
(9Z)-hexadecenoic acid; (Z)-9-hexadecenoic acid; (Z)-hexadec-9-enoic acid; 9-cis-hexadecenoic acid; cis-9-Hexadecenoic acid; palmitolinoleic acid; zoomaric acid

$$$$
