
 OpenBabel10282417072D

 27 26  0  0  0  0  0  0  0  0999 V2000
    1.0709    0.8246    0.0000 C   0  0  0  0  0  0  0  0  0  0  0  0
    0.3610   -0.4155    0.0000 N   0  0  0  0  0  0  0  0  0  0  0  0
    0.3569    0.4113    0.0000 C   0  0  1  0  0  0  0  0  0  0  0  0
    1.0709   -0.8245    0.0000 C   0  0  0  0  0  0  0  0  0  0  0  0
   -1.7849    0.8163    0.0000 C   0  0  0  0  0  0  0  0  0  0  0  0
    1.0709    1.6513    0.0000 O   0  0  0  0  0  0  0  0  0  0  0  0
    1.0750   -1.6512    0.0000 O   0  0  0  0  0  0  0  0  0  0  0  0
   -1.7849    1.6430    0.0000 O   0  0  0  0  0  0  0  0  0  0  0  0
   -0.3569    0.8246    0.0000 C   0  0  0  0  0  0  0  0  0  0  0  0
   -1.0709    0.4113    0.0000 C   0  0  0  0  0  0  0  0  0  0  0  0
   -2.4989    0.4029    0.0000 N   0  0  0  0  0  0  0  0  0  0  0  0
    1.7849    0.4155    0.0000 O   0  0  0  0  0  0  0  0  0  0  0  0
    2.4989   -0.8162    0.0000 N   0  0  0  0  0  0  0  0  0  0  0  0
    1.7890   -0.4069    0.0000 C   0  0  0  0  0  0  0  0  0  0  0  0
   -0.4902   -0.9102    0.0000 H   0  0  0  0  0  0  0  0  0  0  0  0
    1.2852   -0.1209    0.0000 H   0  0  0  0  0  0  0  0  0  0  0  0
   -0.3568    1.8946    0.0000 H   0  0  0  0  0  0  0  0  0  0  0  0
   -1.2838    1.3591    0.0000 H   0  0  0  0  0  0  0  0  0  0  0  0
   -1.0662   -0.6587    0.0000 H   0  0  0  0  0  0  0  0  0  0  0  0
   -0.1428   -0.1211    0.0000 H   0  0  0  0  0  0  0  0  0  0  0  0
   -3.3521    0.8941    0.0000 H   0  0  0  0  0  0  0  0  0  0  0  0
   -2.4977   -0.5816    0.0000 H   0  0  0  0  0  0  0  0  0  0  0  0
    1.7880   -0.5215    0.0000 H   0  0  0  0  0  0  0  0  0  0  0  0
    2.4995   -1.8362    0.0000 H   0  0  0  0  0  0  0  0  0  0  0  0
    3.3819   -0.3057    0.0000 H   0  0  0  0  0  0  0  0  0  0  0  0
    1.7870    0.6631    0.0000 H   0  0  0  0  0  0  0  0  0  0  0  0
    0.8610    0.1258    0.0000 H   0  0  0  0  0  0  0  0  0  0  0  0
  2 15  1  0  0  0  0
  3  2  1  0  0  0  0
  3  1  1  0  0  0  0
  3 16  1  6  0  0  0
  4  2  1  0  0  0  0
  5 10  1  0  0  0  0
  6  1  2  0  0  0  0
  7  4  2  0  0  0  0
  8  5  2  0  0  0  0
  9  3  1  0  0  0  0
  9 17  1  0  0  0  0
  9 18  1  0  0  0  0
 10  9  1  0  0  0  0
 10 19  1  0  0  0  0
 10 20  1  0  0  0  0
 11  5  1  0  0  0  0
 11 21  1  0  0  0  0
 11 22  1  0  0  0  0
 12  1  1  0  0  0  0
 12 23  1  0  0  0  0
 13 14  1  0  0  0  0
 13 24  1  0  0  0  0
 13 25  1  0  0  0  0
 14  4  1  0  0  0  0
 14 26  1  0  0  0  0
 14 27  1  0  0  0  0
M  END
>  <DRUGBANK_ID>
DB15990

>  <COMMON_NAME>
Glycylglutamine

>  <CAS_NUMBER>
13115-71-4

>  <UNII>
H7125Z98HT

>  <SYNONYMS>
Gly-gln; Glycyl-glutamine; Glycyl-L-glutamine

$$$$
