
 OpenBabel10282417072D

 49 51  0  0  0  0  0  0  0  0999 V2000
   -4.2868   -6.6000    0.0000 C   0  0  0  0  0  0  0  0  0  0  0  0
   -4.2868   -5.7750    0.0000 N   0  0  0  0  0  0  0  0  0  0  0  0
   -5.0013   -5.3625    0.0000 C   0  0  0  0  0  0  0  0  0  0  0  0
   -5.7158   -5.7750    0.0000 C   0  0  0  0  0  0  0  0  0  0  0  0
   -6.4302   -5.3625    0.0000 C   0  0  0  0  0  0  0  0  0  0  0  0
   -3.5724   -5.3625    0.0000 C   0  0  0  0  0  0  0  0  0  0  0  0
   -2.8579   -5.7750    0.0000 C   0  0  0  0  0  0  0  0  0  0  0  0
   -2.1434   -5.3625    0.0000 C   0  0  0  0  0  0  0  0  0  0  0  0
   -1.4289   -5.7750    0.0000 C   0  0  0  0  0  0  0  0  0  0  0  0
   -1.4289   -6.6000    0.0000 C   0  0  0  0  0  0  0  0  0  0  0  0
   -2.1434   -7.0125    0.0000 C   0  0  0  0  0  0  0  0  0  0  0  0
   -2.8579   -6.6000    0.0000 C   0  0  0  0  0  0  0  0  0  0  0  0
   -0.7145   -7.0125    0.0000 C   0  0  0  0  0  0  0  0  0  0  0  0
    0.0000   -6.6000    0.0000 C   0  0  0  0  0  0  0  0  0  0  0  0
    0.7145   -7.0125    0.0000 C   0  0  0  0  0  0  0  0  0  0  0  0
    0.7145   -7.8375    0.0000 C   0  0  0  0  0  0  0  0  0  0  0  0
    0.0000   -8.2500    0.0000 C   0  0  0  0  0  0  0  0  0  0  0  0
   -0.7145   -7.8375    0.0000 C   0  0  0  0  0  0  0  0  0  0  0  0
    1.4289   -8.2500    0.0000 C   0  0  0  0  0  0  0  0  0  0  0  0
    1.4289   -9.0750    0.0000 O   0  0  0  0  0  0  0  0  0  0  0  0
    2.1434   -7.8375    0.0000 C   0  0  0  0  0  0  0  0  0  0  0  0
    2.1434   -7.0125    0.0000 C   0  0  0  0  0  0  0  0  0  0  0  0
    2.8579   -6.6000    0.0000 C   0  0  0  0  0  0  0  0  0  0  0  0
    3.5724   -7.0125    0.0000 C   0  0  0  0  0  0  0  0  0  0  0  0
    4.2868   -6.6000    0.0000 Br  0  0  0  0  0  0  0  0  0  0  0  0
    3.5724   -7.8375    0.0000 C   0  0  0  0  0  0  0  0  0  0  0  0
    2.8579   -8.2500    0.0000 C   0  0  0  0  0  0  0  0  0  0  0  0
   -5.2134   -7.1350    0.0000 H   0  0  0  0  0  0  0  0  0  0  0  0
   -3.3602   -7.1350    0.0000 H   0  0  0  0  0  0  0  0  0  0  0  0
   -4.2868   -7.6700    0.0000 H   0  0  0  0  0  0  0  0  0  0  0  0
   -5.0013   -4.2925    0.0000 H   0  0  0  0  0  0  0  0  0  0  0  0
   -5.9279   -4.8275    0.0000 H   0  0  0  0  0  0  0  0  0  0  0  0
   -5.7158   -6.8070    0.0000 H   0  0  0  0  0  0  0  0  0  0  0  0
   -6.4302   -4.3305    0.0000 H   0  0  0  0  0  0  0  0  0  0  0  0
   -7.3240   -5.8785    0.0000 H   0  0  0  0  0  0  0  0  0  0  0  0
   -3.5724   -4.2925    0.0000 H   0  0  0  0  0  0  0  0  0  0  0  0
   -2.6458   -4.8275    0.0000 H   0  0  0  0  0  0  0  0  0  0  0  0
   -2.1434   -4.3305    0.0000 H   0  0  0  0  0  0  0  0  0  0  0  0
   -0.5352   -5.2590    0.0000 H   0  0  0  0  0  0  0  0  0  0  0  0
   -2.1434   -8.0445    0.0000 H   0  0  0  0  0  0  0  0  0  0  0  0
   -3.7516   -7.1160    0.0000 H   0  0  0  0  0  0  0  0  0  0  0  0
    0.0000   -5.5680    0.0000 H   0  0  0  0  0  0  0  0  0  0  0  0
    1.6082   -6.4965    0.0000 H   0  0  0  0  0  0  0  0  0  0  0  0
    0.0000   -9.2820    0.0000 H   0  0  0  0  0  0  0  0  0  0  0  0
   -1.6082   -8.3535    0.0000 H   0  0  0  0  0  0  0  0  0  0  0  0
    1.2497   -6.4965    0.0000 H   0  0  0  0  0  0  0  0  0  0  0  0
    2.8579   -5.5680    0.0000 H   0  0  0  0  0  0  0  0  0  0  0  0
    4.4661   -8.3535    0.0000 H   0  0  0  0  0  0  0  0  0  0  0  0
    2.8579   -9.2820    0.0000 H   0  0  0  0  0  0  0  0  0  0  0  0
  1  2  1  0  0  0  0
  1 28  1  0  0  0  0
  1 29  1  0  0  0  0
  1 30  1  0  0  0  0
  2  3  1  0  0  0  0
  2  6  1  0  0  0  0
  3  4  1  0  0  0  0
  3 31  1  0  0  0  0
  3 32  1  0  0  0  0
  4  5  2  0  0  0  0
  4 33  1  0  0  0  0
  5 34  1  0  0  0  0
  5 35  1  0  0  0  0
  6  7  1  0  0  0  0
  6 36  1  0  0  0  0
  6 37  1  0  0  0  0
  7  8  2  0  0  0  0
  7 12  1  0  0  0  0
  8  9  1  0  0  0  0
  8 38  1  0  0  0  0
  9 10  2  0  0  0  0
  9 39  1  0  0  0  0
 10 11  1  0  0  0  0
 10 13  1  0  0  0  0
 11 12  2  0  0  0  0
 11 40  1  0  0  0  0
 12 41  1  0  0  0  0
 13 14  2  0  0  0  0
 13 18  1  0  0  0  0
 14 15  1  0  0  0  0
 14 42  1  0  0  0  0
 15 16  2  0  0  0  0
 15 43  1  0  0  0  0
 16 17  1  0  0  0  0
 16 19  1  0  0  0  0
 17 18  2  0  0  0  0
 17 44  1  0  0  0  0
 18 45  1  0  0  0  0
 19 20  2  0  0  0  0
 19 21  1  0  0  0  0
 21 22  2  0  0  0  0
 21 27  1  0  0  0  0
 22 23  1  0  0  0  0
 22 46  1  0  0  0  0
 23 24  2  0  0  0  0
 23 47  1  0  0  0  0
 24 25  1  0  0  0  0
 24 26  1  0  0  0  0
 26 27  2  0  0  0  0
 26 48  1  0  0  0  0
 27 49  1  0  0  0  0
M  END
>  <DRUGBANK_ID>
DB03234

>  <SECONDARY_ACCESSION_NUMBERS>
EXPT02736

>  <COMMON_NAME>
(4'-{[Allyl(Methyl)Amino]Methyl}-1,1'-Biphenyl-4-Yl)(4-Bromophenyl)Methanone

$$$$
