
 OpenBabel10282417072D

 25 25  0  0  0  0  0  0  0  0999 V2000
   -0.7128   -0.0024    0.0000 N   0  0  0  0  0  0  0  0  0  0  0  0
    0.0010    0.4108    0.0000 C   0  0  0  0  0  0  0  0  0  0  0  0
    0.7148   -0.0024    0.0000 N   0  0  0  0  0  0  0  0  0  0  0  0
    1.4288    0.4108    0.0000 C   0  0  0  0  0  0  0  0  0  0  0  0
    2.1427   -0.0024    0.0000 N   0  0  0  0  0  0  0  0  0  0  0  0
   -1.4276    0.4114    0.0000 C   0  0  0  0  0  0  0  0  0  0  0  0
   -2.1394    0.0015    0.0000 C   0  0  0  0  0  0  0  0  0  0  0  0
   -2.1427   -0.8236    0.0000 O   0  0  0  0  0  0  0  0  0  0  0  0
   -1.4279   -1.2375    0.0000 C   0  0  0  0  0  0  0  0  0  0  0  0
   -0.7098   -0.8259    0.0000 C   0  0  0  0  0  0  0  0  0  0  0  0
   -0.0032    1.2375    0.0000 N   0  0  0  0  0  0  0  0  0  0  0  0
    1.4288    1.2375    0.0000 N   0  0  0  0  0  0  0  0  0  0  0  0
    0.7147   -0.9869    0.0000 H   0  0  0  0  0  0  0  0  0  0  0  0
    2.1416   -0.9869    0.0000 H   0  0  0  0  0  0  0  0  0  0  0  0
    2.9958    0.4889    0.0000 H   0  0  0  0  0  0  0  0  0  0  0  0
   -1.4264    1.4814    0.0000 H   0  0  0  0  0  0  0  0  0  0  0  0
   -0.5003    0.9453    0.0000 H   0  0  0  0  0  0  0  0  0  0  0  0
   -3.0647    0.5389    0.0000 H   0  0  0  0  0  0  0  0  0  0  0  0
   -3.0678   -0.5305    0.0000 H   0  0  0  0  0  0  0  0  0  0  0  0
   -1.4303   -2.3075    0.0000 H   0  0  0  0  0  0  0  0  0  0  0  0
   -0.5027   -1.7750    0.0000 H   0  0  0  0  0  0  0  0  0  0  0  0
    0.2170   -1.3607    0.0000 H   0  0  0  0  0  0  0  0  0  0  0  0
   -0.7113   -1.8959    0.0000 H   0  0  0  0  0  0  0  0  0  0  0  0
    0.8469    1.7341    0.0000 H   0  0  0  0  0  0  0  0  0  0  0  0
    2.2814    1.7298    0.0000 H   0  0  0  0  0  0  0  0  0  0  0  0
  1  2  1  0  0  0  0
  1 10  1  0  0  0  0
  1  6  1  0  0  0  0
  2 11  2  0  0  0  0
  2  3  1  0  0  0  0
  3  4  1  0  0  0  0
  3 13  1  0  0  0  0
  4  5  1  0  0  0  0
  4 12  2  0  0  0  0
  5 14  1  0  0  0  0
  5 15  1  0  0  0  0
  6  7  1  0  0  0  0
  6 16  1  0  0  0  0
  6 17  1  0  0  0  0
  7  8  1  0  0  0  0
  7 18  1  0  0  0  0
  7 19  1  0  0  0  0
  8  9  1  0  0  0  0
  9 10  1  0  0  0  0
  9 20  1  0  0  0  0
  9 21  1  0  0  0  0
 10 22  1  0  0  0  0
 10 23  1  0  0  0  0
 11 24  1  0  0  0  0
 12 25  1  0  0  0  0
M  END
>  <DRUGBANK_ID>
DB13597

>  <COMMON_NAME>
Moroxydine

>  <CAS_NUMBER>
3731-59-7

>  <UNII>
O611591WAH

>  <SYNONYMS>
Moroxidina; Moroxydine; Moroxydinum

$$$$
