GWB
 OpenBabel10282417072D

 37 39  0  0  0  0  0  0  0  0999 V2000
    0.2765    1.0395    0.0000 C   0  0  0  0  0  0  0  0  0  0  0  0
   -0.4380    1.4520    0.0000 C   0  0  0  0  0  0  0  0  0  0  0  0
   -1.1524    1.8645    0.0000 C   0  0  0  0  0  0  0  0  0  0  0  0
   -1.9774    1.8645    0.0000 C   0  0  0  0  0  0  0  0  0  0  0  0
   -1.5649    2.5790    0.0000 C   0  0  0  0  0  0  0  0  0  0  0  0
    0.9910   -1.8480    0.0000 N   0  0  0  0  0  0  0  0  0  0  0  0
    0.2765   -1.4355    0.0000 C   0  0  0  0  0  0  0  0  0  0  0  0
   -0.4380   -1.8480    0.0000 O   0  0  0  0  0  0  0  0  0  0  0  0
    0.2765   -0.6105    0.0000 C   0  0  0  0  0  0  0  0  0  0  0  0
    0.9910   -0.1980    0.0000 C   0  0  0  0  0  0  0  0  0  0  0  0
    0.9910    0.6270    0.0000 O   0  0  0  0  0  0  0  0  0  0  0  0
    1.7054   -1.4355    0.0000 C   0  0  0  0  0  0  0  0  0  0  0  0
    1.7054   -0.6105    0.0000 C   0  0  0  0  0  0  0  0  0  0  0  0
    2.4199   -0.1980    0.0000 C   0  0  0  0  0  0  0  0  0  0  0  0
    3.1344   -0.6105    0.0000 C   0  0  0  0  0  0  0  0  0  0  0  0
    3.1344   -1.4355    0.0000 C   0  0  0  0  0  0  0  0  0  0  0  0
    2.4199   -1.8480    0.0000 C   0  0  0  0  0  0  0  0  0  0  0  0
    3.8489   -0.1980    0.0000 F   0  0  0  0  0  0  0  0  0  0  0  0
   -0.4380   -0.1980    0.0000 C   0  0  0  0  0  0  0  0  0  0  0  0
   -0.4380    0.6270    0.0000 C   0  0  0  0  0  0  0  0  0  0  0  0
   -1.1524   -0.6105    0.0000 C   0  0  0  0  0  0  0  0  0  0  0  0
   -2.0790    2.3995    0.0000 H   0  0  0  0  0  0  0  0  0  0  0  0
   -2.9040    1.3295    0.0000 H   0  0  0  0  0  0  0  0  0  0  0  0
   -2.7340    2.6211    0.0000 H   0  0  0  0  0  0  0  0  0  0  0  0
   -1.5649    3.6490    0.0000 H   0  0  0  0  0  0  0  0  0  0  0  0
   -2.5984    2.8559    0.0000 H   0  0  0  0  0  0  0  0  0  0  0  0
    0.9910   -2.8325    0.0000 H   0  0  0  0  0  0  0  0  0  0  0  0
    2.4199    0.8340    0.0000 H   0  0  0  0  0  0  0  0  0  0  0  0
    4.0281   -1.9515    0.0000 H   0  0  0  0  0  0  0  0  0  0  0  0
    2.4199   -2.8800    0.0000 H   0  0  0  0  0  0  0  0  0  0  0  0
   -1.3647    0.3370    0.0000 H   0  0  0  0  0  0  0  0  0  0  0  0
    0.4886    1.1620    0.0000 H   0  0  0  0  0  0  0  0  0  0  0  0
   -1.3646    1.1620    0.0000 H   0  0  0  0  0  0  0  0  0  0  0  0
   -0.4380    1.6970    0.0000 H   0  0  0  0  0  0  0  0  0  0  0  0
   -2.0791   -0.0755    0.0000 H   0  0  0  0  0  0  0  0  0  0  0  0
   -1.1524   -1.6805    0.0000 H   0  0  0  0  0  0  0  0  0  0  0  0
   -2.0790   -1.1455    0.0000 H   0  0  0  0  0  0  0  0  0  0  0  0
  1  2  3  0  0  0  0
  1 11  1  0  0  0  0
  2  3  1  0  0  0  0
  3  4  1  0  0  0  0
  3  5  1  0  0  0  0
  3 22  1  0  0  0  0
  4  5  1  0  0  0  0
  4 23  1  0  0  0  0
  4 24  1  0  0  0  0
  5 25  1  0  0  0  0
  5 26  1  0  0  0  0
  6  7  1  0  0  0  0
  6 12  1  0  0  0  0
  6 27  1  0  0  0  0
  7  8  2  0  0  0  0
  7  9  1  0  0  0  0
  9 10  2  0  0  0  0
  9 19  1  0  0  0  0
 10 11  1  0  0  0  0
 10 13  1  0  0  0  0
 12 13  1  0  0  0  0
 12 17  2  0  0  0  0
 13 14  2  0  0  0  0
 14 15  1  0  0  0  0
 14 28  1  0  0  0  0
 15 16  2  0  0  0  0
 15 18  1  0  0  0  0
 16 17  1  0  0  0  0
 16 29  1  0  0  0  0
 17 30  1  0  0  0  0
 19 20  1  0  0  0  0
 19 21  1  0  0  0  0
 19 31  1  0  0  0  0
 20 32  1  0  0  0  0
 20 33  1  0  0  0  0
 20 34  1  0  0  0  0
 21 35  1  0  0  0  0
 21 36  1  0  0  0  0
 21 37  1  0  0  0  0
M  END
>  <DRUGBANK_ID>
DB07864

>  <COMMON_NAME>
4-[(CYCLOPROPYLETHYNYL)OXY]-6-FLUORO-3-ISOPROPYLQUINOLIN-2(1H)-ONE

$$$$
