
 OpenBabel10282417072D

 45 45  0  0  0  0  0  0  0  0999 V2000
   -2.0096   -4.3896    0.0000 O   0  0  0  0  0  0  0  0  0  0  0  0
    1.6672   -2.7156    0.0000 O   0  0  0  0  0  0  0  0  0  0  0  0
    2.4140    4.3896    0.0000 O   0  5  0  0  0  0  0  0  0  0  0  0
    1.1086    3.8084    0.0000 O   0  0  0  0  0  0  0  0  0  0  0  0
   -0.3861   -3.8126    0.0000 N   0  0  0  0  0  0  0  0  0  0  0  0
    0.5112   -1.8757    0.0000 N   0  0  0  0  0  0  0  0  0  0  0  0
   -2.4512   -3.0306    0.0000 N   0  0  0  0  0  0  0  0  0  0  0  0
    2.6370   -1.3808    0.0000 N   0  0  0  0  0  0  0  0  0  0  0  0
    2.1153    1.5475    0.0000 N   0  0  0  0  0  0  0  0  0  0  0  0
    2.2646    2.9685    0.0000 N   0  0  0  0  0  0  0  0  0  0  0  0
    0.9593    2.3873    0.0000 N   0  0  0  0  0  0  0  0  0  0  0  0
    1.9291    3.7222    0.0000 N   0  3  0  0  0  0  0  0  0  0  0  0
    0.0263   -2.5431    0.0000 C   0  0  2  0  0  0  0  0  0  0  0  0
   -0.7986   -2.5431    0.0000 C   0  0  0  0  0  0  0  0  0  0  0  0
   -1.0535   -3.3277    0.0000 C   0  0  1  0  0  0  0  0  0  0  0  0
    0.2812   -3.3277    0.0000 C   0  0  0  0  0  0  0  0  0  0  0  0
   -1.8381   -3.5826    0.0000 C   0  0  0  0  0  0  0  0  0  0  0  0
    1.3316   -1.9620    0.0000 C   0  0  0  0  0  0  0  0  0  0  0  0
    1.8166   -1.2946    0.0000 C   0  0  2  0  0  0  0  0  0  0  0  0
    1.4810   -0.5409    0.0000 C   0  0  0  0  0  0  0  0  0  0  0  0
    1.9659    0.1264    0.0000 C   0  0  0  0  0  0  0  0  0  0  0  0
    1.6304    0.8800    0.0000 C   0  0  0  0  0  0  0  0  0  0  0  0
    1.7797    2.3011    0.0000 C   0  0  0  0  0  0  0  0  0  0  0  0
   -0.3861   -4.8326    0.0000 H   0  0  0  0  0  0  0  0  0  0  0  0
    0.1108   -0.9763    0.0000 H   0  0  0  0  0  0  0  0  0  0  0  0
   -2.2465   -2.0676    0.0000 H   0  0  0  0  0  0  0  0  0  0  0  0
   -3.3875   -3.3349    0.0000 H   0  0  0  0  0  0  0  0  0  0  0  0
    3.0519   -2.3126    0.0000 H   0  0  0  0  0  0  0  0  0  0  0  0
    3.2365   -0.5556    0.0000 H   0  0  0  0  0  0  0  0  0  0  0  0
    3.2437    2.8656    0.0000 H   0  0  0  0  0  0  0  0  0  0  0  0
    0.5588    3.2867    0.0000 H   0  0  0  0  0  0  0  0  0  0  0  0
    0.3807    1.5908    0.0000 H   0  0  0  0  0  0  0  0  0  0  0  0
   -0.4595   -1.5897    0.0000 H   0  0  0  0  0  0  0  0  0  0  0  0
   -1.4275   -1.6775    0.0000 H   0  0  0  0  0  0  0  0  0  0  0  0
   -1.8554   -2.7105    0.0000 H   0  0  0  0  0  0  0  0  0  0  0  0
   -1.2209   -4.3845    0.0000 H   0  0  0  0  0  0  0  0  0  0  0  0
    1.2988   -3.6583    0.0000 H   0  0  0  0  0  0  0  0  0  0  0  0
    1.0378   -2.5711    0.0000 H   0  0  0  0  0  0  0  0  0  0  0  0
    2.2518   -2.2721    0.0000 H   0  0  0  0  0  0  0  0  0  0  0  0
    0.4169   -0.4290    0.0000 H   0  0  0  0  0  0  0  0  0  0  0  0
    1.0458    0.4366    0.0000 H   0  0  0  0  0  0  0  0  0  0  0  0
    3.0300    0.0145    0.0000 H   0  0  0  0  0  0  0  0  0  0  0  0
    2.5949    0.9920    0.0000 H   0  0  0  0  0  0  0  0  0  0  0  0
    0.5663    0.9918    0.0000 H   0  0  0  0  0  0  0  0  0  0  0  0
    1.0015    0.0144    0.0000 H   0  0  0  0  0  0  0  0  0  0  0  0
  1 17  2  0  0  0  0
  2 18  2  0  0  0  0
  3 12  1  0  0  0  0
  4 12  2  0  0  0  0
  5 15  1  0  0  0  0
  5 16  1  0  0  0  0
  5 24  1  0  0  0  0
  6 18  1  0  0  0  0
  6 25  1  0  0  0  0
  7 17  1  0  0  0  0
  7 26  1  0  0  0  0
  7 27  1  0  0  0  0
  8 28  1  0  0  0  0
  8 29  1  0  0  0  0
  9 22  1  0  0  0  0
  9 23  2  0  0  0  0
 10 12  1  0  0  0  0
 10 23  1  0  0  0  0
 10 30  1  0  0  0  0
 11 23  1  0  0  0  0
 11 31  1  0  0  0  0
 11 32  1  0  0  0  0
 13  6  1  0  0  0  0
 13 14  1  0  0  0  0
 13 16  1  0  0  0  0
 13 33  1  6  0  0  0
 14 15  1  0  0  0  0
 14 34  1  0  0  0  0
 14 35  1  0  0  0  0
 15 17  1  0  0  0  0
 15 36  1  1  0  0  0
 16 37  1  0  0  0  0
 16 38  1  0  0  0  0
 18 19  1  0  0  0  0
 19  8  1  0  0  0  0
 19 20  1  0  0  0  0
 19 39  1  1  0  0  0
 20 21  1  0  0  0  0
 20 40  1  0  0  0  0
 20 41  1  0  0  0  0
 21 22  1  0  0  0  0
 21 42  1  0  0  0  0
 21 43  1  0  0  0  0
 22 44  1  0  0  0  0
 22 45  1  0  0  0  0
M  CHG  2   3  -1  12   1
M  END
>  <DRUGBANK_ID>
DB02077

>  <SECONDARY_ACCESSION_NUMBERS>
EXPT01254

>  <COMMON_NAME>
L-N(omega)-nitroarginine-(4R)-amino-L-proline amide

$$$$
