847
 OpenBabel10282417072D

 11 10  0  0  0  0  0  0  0  0999 V2000
    4.2366    0.4620    0.0000 S   0  0  0  0  0  0  0  0  0  0  0  0
    2.0931    0.0495    0.0000 N   0  0  0  0  0  0  0  0  0  0  0  0
    2.8076    0.4620    0.0000 C   0  0  0  0  0  0  0  0  0  0  0  0
    3.5220    0.0495    0.0000 C   0  0  0  0  0  0  0  0  0  0  0  0
    5.4143   -0.2181    0.0000 H   0  0  0  0  0  0  0  0  0  0  0  0
    1.2098    0.5595    0.0000 H   0  0  0  0  0  0  0  0  0  0  0  0
    2.0931   -0.9705    0.0000 H   0  0  0  0  0  0  0  0  0  0  0  0
    2.8076    1.5320    0.0000 H   0  0  0  0  0  0  0  0  0  0  0  0
    3.7343    0.9970    0.0000 H   0  0  0  0  0  0  0  0  0  0  0  0
    3.5219   -1.0205    0.0000 H   0  0  0  0  0  0  0  0  0  0  0  0
    2.5953   -0.4855    0.0000 H   0  0  0  0  0  0  0  0  0  0  0  0
  1  4  1  0  0  0  0
  1  5  1  0  0  0  0
  2  3  1  0  0  0  0
  2  6  1  0  0  0  0
  2  7  1  0  0  0  0
  3  4  1  0  0  0  0
  3  8  1  0  0  0  0
  3  9  1  0  0  0  0
  4 10  1  0  0  0  0
  4 11  1  0  0  0  0
M  END
>  <DRUGBANK_ID>
DB00847

>  <SECONDARY_ACCESSION_NUMBERS>
APRD00896

>  <COMMON_NAME>
Cysteamine

>  <CAS_NUMBER>
60-23-1

>  <UNII>
5UX2SD1KE2

>  <SYNONYMS>
2-amino-1-ethanethiol; 2-amino-ethanethiol; 2-aminoethanethiol; beta-aminoethanethiol; beta-Mercaptoethylamine; Cysteamine; MEA; Mercaptamina; Mercaptamine; Mercaptaminum; Thioethanolamine; β-aminoethylthiol; β-MEA

$$$$
