
 OpenBabel10282417072D

154158  0  0  1  0  0  0  0  0999 V2000
    0.7145   -4.5375    0.0000 H   0  0  0  0  0  0  0  0  0  0  0  0
    1.4289   -4.9500    0.0000 C   0  0  1  0  0  0  0  0  0  0  0  0
    2.1434   -5.3625    0.0000 C   0  0  0  0  0  0  0  0  0  0  0  0
    2.1434   -6.1875    0.0000 C   0  0  1  0  0  0  0  0  0  0  0  0
    2.9559   -6.0442    0.0000 C   0  0  0  0  0  0  0  0  0  0  0  0
    2.4256   -6.9627    0.0000 O   0  0  0  0  0  0  0  0  0  0  0  0
    1.4289   -6.6000    0.0000 C   0  0  1  0  0  0  0  0  0  0  0  0
    1.4289   -7.4250    0.0000 O   0  0  0  0  0  0  0  0  0  0  0  0
    0.7145   -7.8375    0.0000 C   0  0  0  0  0  0  0  0  0  0  0  0
    0.7145   -8.6625    0.0000 C   0  0  0  0  0  0  0  0  0  0  0  0
    1.4289   -9.0750    0.0000 C   0  0  0  0  0  0  0  0  0  0  0  0
    1.4289   -9.9000    0.0000 C   0  0  0  0  0  0  0  0  0  0  0  0
    0.7145  -10.3125    0.0000 C   0  0  0  0  0  0  0  0  0  0  0  0
    0.7145  -11.1375    0.0000 F   0  0  0  0  0  0  0  0  0  0  0  0
   -0.0000   -9.9000    0.0000 C   0  0  0  0  0  0  0  0  0  0  0  0
   -0.0000   -9.0750    0.0000 C   0  0  0  0  0  0  0  0  0  0  0  0
    0.7145   -6.1875    0.0000 C   0  0  2  0  0  0  0  0  0  0  0  0
   -0.0000   -6.6000    0.0000 C   0  0  0  0  0  0  0  0  0  0  0  0
    0.7145   -5.3625    0.0000 O   0  0  0  0  0  0  0  0  0  0  0  0
    1.4289   -4.1250    0.0000 O   0  0  0  0  0  0  0  0  0  0  0  0
    2.1434   -3.7125    0.0000 C   0  0  2  0  0  0  0  0  0  0  0  0
    2.8579   -4.1250    0.0000 C   0  0  1  0  0  0  0  0  0  0  0  0
    2.8579   -4.9500    0.0000 C   0  0  0  0  0  0  0  0  0  0  0  0
    3.5724   -3.7125    0.0000 O   0  0  0  0  0  0  0  0  0  0  0  0
    3.5724   -2.8875    0.0000 C   0  0  1  0  0  0  0  0  0  0  0  0
    3.5724   -2.0625    0.0000 H   0  0  0  0  0  0  0  0  0  0  0  0
    4.2868   -2.4750    0.0000 O   0  0  0  0  0  0  0  0  0  0  0  0
    5.0013   -2.8875    0.0000 C   0  0  1  0  0  0  0  0  0  0  0  0
    5.7158   -2.4750    0.0000 C   0  0  0  0  0  0  0  0  0  0  0  0
    5.0013   -2.0625    0.0000 C   0  0  0  0  0  0  0  0  0  0  0  0
    5.0013   -1.2375    0.0000 C   0  0  0  0  0  0  0  0  0  0  0  0
    5.7158   -0.8250    0.0000 O   0  0  0  0  0  0  0  0  0  0  0  0
    5.7158   -1.6500    0.0000 C   0  0  0  0  0  0  0  0  0  0  0  0
    6.4302   -1.2375    0.0000 C   0  0  1  0  0  0  0  0  0  0  0  0
    6.4302   -0.4125    0.0000 C   0  0  0  0  0  0  0  0  0  0  0  0
    7.1447   -1.6500    0.0000 C   0  0  0  0  0  0  0  0  0  0  0  0
    7.8592   -1.2375    0.0000 O   0  0  0  0  0  0  0  0  0  0  0  0
    7.1447   -2.4750    0.0000 C   0  0  0  0  0  0  0  0  0  0  0  0
    7.8592   -2.8875    0.0000 C   0  0  0  0  0  0  0  0  0  0  0  0
    7.8592   -3.7125    0.0000 C   0  0  0  0  0  0  0  0  0  0  0  0
    7.1447   -4.1250    0.0000 C   0  0  0  0  0  0  0  0  0  0  0  0
    8.5737   -4.1250    0.0000 C   0  0  0  0  0  0  0  0  0  0  0  0
    8.5737   -4.9500    0.0000 C   0  0  2  0  0  0  0  0  0  0  0  0
    9.2881   -5.3625    0.0000 C   0  0  0  0  0  0  0  0  0  0  0  0
   10.0026   -4.9500    0.0000 O   0  0  0  0  0  0  0  0  0  0  0  0
   10.0026   -4.1250    0.0000 C   0  0  2  0  0  0  0  0  0  0  0  0
    9.2881   -3.7125    0.0000 O   0  0  0  0  0  0  0  0  0  0  0  0
    9.2881   -2.8875    0.0000 C   0  0  2  0  0  0  0  0  0  0  0  0
    8.5737   -2.4750    0.0000 C   0  0  0  0  0  0  0  0  0  0  0  0
   10.0026   -2.4750    0.0000 C   0  0  1  0  0  0  0  0  0  0  0  0
   10.0026   -1.6500    0.0000 O   0  0  0  0  0  0  0  0  0  0  0  0
   10.7171   -2.8875    0.0000 C   0  0  1  0  0  0  0  0  0  0  0  0
   11.4315   -2.4750    0.0000 O   0  0  0  0  0  0  0  0  0  0  0  0
   12.1460   -2.8875    0.0000 C   0  0  0  0  0  0  0  0  0  0  0  0
   10.7171   -3.7125    0.0000 C   0  0  1  0  0  0  0  0  0  0  0  0
   11.4315   -4.1250    0.0000 O   0  0  0  0  0  0  0  0  0  0  0  0
   11.4315   -4.9500    0.0000 C   0  0  0  0  0  0  0  0  0  0  0  0
    7.8592   -5.3625    0.0000 C   0  0  1  0  0  0  0  0  0  0  0  0
    7.8592   -6.1875    0.0000 C   0  0  0  0  0  0  0  0  0  0  0  0
    7.1447   -6.6000    0.0000 C   0  0  0  0  0  0  0  0  0  0  0  0
    7.1447   -4.9500    0.0000 O   0  0  0  0  0  0  0  0  0  0  0  0
    6.4302   -5.3625    0.0000 C   0  0  0  0  0  0  0  0  0  0  0  0
    6.4302   -6.1875    0.0000 O   0  0  0  0  0  0  0  0  0  0  0  0
    5.7158   -4.9500    0.0000 C   0  0  0  0  0  0  0  0  0  0  0  0
    5.7158   -4.1250    0.0000 C   0  0  1  0  0  0  0  0  0  0  0  0
    6.4302   -3.7125    0.0000 O   0  0  0  0  0  0  0  0  0  0  0  0
    5.0013   -3.7125    0.0000 C   0  0  2  0  0  0  0  0  0  0  0  0
    4.2868   -4.1250    0.0000 C   0  0  0  0  0  0  0  0  0  0  0  0
    2.8579   -2.4750    0.0000 C   0  0  2  0  0  0  0  0  0  0  0  0
    2.8579   -1.6500    0.0000 O   0  0  0  0  0  0  0  0  0  0  0  0
    2.1434   -2.8875    0.0000 C   0  0  1  0  0  0  0  0  0  0  0  0
    1.4289   -2.4750    0.0000 N   0  0  0  0  0  0  0  0  0  0  0  0
    1.4289   -1.6500    0.0000 C   0  0  0  0  0  0  0  0  0  0  0  0
    0.7145   -2.8875    0.0000 C   0  0  0  0  0  0  0  0  0  0  0  0
    3.0700   -4.8275    0.0000 H   0  0  0  0  0  0  0  0  0  0  0  0
    3.0700   -5.8975    0.0000 H   0  0  0  0  0  0  0  0  0  0  0  0
    3.6437   -6.8638    0.0000 H   0  0  0  0  0  0  0  0  0  0  0  0
    3.3218   -5.0387    0.0000 H   0  0  0  0  0  0  0  0  0  0  0  0
    4.0096   -5.8584    0.0000 H   0  0  0  0  0  0  0  0  0  0  0  0
    1.8021   -7.7058    0.0000 H   0  0  0  0  0  0  0  0  0  0  0  0
    2.3555   -7.1350    0.0000 H   0  0  0  0  0  0  0  0  0  0  0  0
   -0.2122   -7.3025    0.0000 H   0  0  0  0  0  0  0  0  0  0  0  0
   -0.2121   -8.3725    0.0000 H   0  0  0  0  0  0  0  0  0  0  0  0
    2.3226   -8.5590    0.0000 H   0  0  0  0  0  0  0  0  0  0  0  0
    2.3226  -10.4160    0.0000 H   0  0  0  0  0  0  0  0  0  0  0  0
   -0.8937  -10.4160    0.0000 H   0  0  0  0  0  0  0  0  0  0  0  0
   -0.8937   -8.5590    0.0000 H   0  0  0  0  0  0  0  0  0  0  0  0
    0.7145   -7.2575    0.0000 H   0  0  0  0  0  0  0  0  0  0  0  0
   -0.9266   -6.0650    0.0000 H   0  0  0  0  0  0  0  0  0  0  0  0
   -0.0000   -7.6700    0.0000 H   0  0  0  0  0  0  0  0  0  0  0  0
   -0.9267   -7.1350    0.0000 H   0  0  0  0  0  0  0  0  0  0  0  0
    2.1434   -4.7825    0.0000 H   0  0  0  0  0  0  0  0  0  0  0  0
    1.9313   -4.6600    0.0000 H   0  0  0  0  0  0  0  0  0  0  0  0
    1.9313   -5.4850    0.0000 H   0  0  0  0  0  0  0  0  0  0  0  0
    3.7845   -5.4850    0.0000 H   0  0  0  0  0  0  0  0  0  0  0  0
    2.8579   -6.0200    0.0000 H   0  0  0  0  0  0  0  0  0  0  0  0
    5.0013   -1.8175    0.0000 H   0  0  0  0  0  0  0  0  0  0  0  0
    5.1808   -1.5484    0.0000 H   0  0  0  0  0  0  0  0  0  0  0  0
    4.0747   -2.5975    0.0000 H   0  0  0  0  0  0  0  0  0  0  0  0
    4.0747   -1.5275    0.0000 H   0  0  0  0  0  0  0  0  0  0  0  0
    4.1076   -0.7215    0.0000 H   0  0  0  0  0  0  0  0  0  0  0  0
    4.7891   -1.1150    0.0000 H   0  0  0  0  0  0  0  0  0  0  0  0
    5.7158   -0.5800    0.0000 H   0  0  0  0  0  0  0  0  0  0  0  0
    5.5035   -0.7025    0.0000 H   0  0  0  0  0  0  0  0  0  0  0  0
    7.3568    0.1225    0.0000 H   0  0  0  0  0  0  0  0  0  0  0  0
    5.5036    0.1225    0.0000 H   0  0  0  0  0  0  0  0  0  0  0  0
    6.4302    0.6575    0.0000 H   0  0  0  0  0  0  0  0  0  0  0  0
    6.2510   -2.9910    0.0000 H   0  0  0  0  0  0  0  0  0  0  0  0
    8.7529   -2.3715    0.0000 H   0  0  0  0  0  0  0  0  0  0  0  0
    6.2181   -3.5900    0.0000 H   0  0  0  0  0  0  0  0  0  0  0  0
    7.1447   -5.1950    0.0000 H   0  0  0  0  0  0  0  0  0  0  0  0
    6.2180   -4.6600    0.0000 H   0  0  0  0  0  0  0  0  0  0  0  0
    9.4674   -3.6090    0.0000 H   0  0  0  0  0  0  0  0  0  0  0  0
    9.5004   -4.4150    0.0000 H   0  0  0  0  0  0  0  0  0  0  0  0
    9.2881   -6.4325    0.0000 H   0  0  0  0  0  0  0  0  0  0  0  0
   10.2147   -5.8975    0.0000 H   0  0  0  0  0  0  0  0  0  0  0  0
    9.0760   -4.6600    0.0000 H   0  0  0  0  0  0  0  0  0  0  0  0
    8.3614   -3.4225    0.0000 H   0  0  0  0  0  0  0  0  0  0  0  0
    8.5737   -1.4050    0.0000 H   0  0  0  0  0  0  0  0  0  0  0  0
    7.6470   -3.0100    0.0000 H   0  0  0  0  0  0  0  0  0  0  0  0
    7.6471   -1.9400    0.0000 H   0  0  0  0  0  0  0  0  0  0  0  0
    9.0760   -1.9400    0.0000 H   0  0  0  0  0  0  0  0  0  0  0  0
   10.8426   -1.1650    0.0000 H   0  0  0  0  0  0  0  0  0  0  0  0
   10.7171   -1.8175    0.0000 H   0  0  0  0  0  0  0  0  0  0  0  0
   12.1460   -3.9575    0.0000 H   0  0  0  0  0  0  0  0  0  0  0  0
   13.0726   -2.3525    0.0000 H   0  0  0  0  0  0  0  0  0  0  0  0
   13.0727   -3.4225    0.0000 H   0  0  0  0  0  0  0  0  0  0  0  0
   11.6438   -3.1775    0.0000 H   0  0  0  0  0  0  0  0  0  0  0  0
   10.5049   -5.4850    0.0000 H   0  0  0  0  0  0  0  0  0  0  0  0
   12.3581   -5.4850    0.0000 H   0  0  0  0  0  0  0  0  0  0  0  0
   11.4315   -6.0200    0.0000 H   0  0  0  0  0  0  0  0  0  0  0  0
    8.7858   -5.8975    0.0000 H   0  0  0  0  0  0  0  0  0  0  0  0
    8.7858   -6.7225    0.0000 H   0  0  0  0  0  0  0  0  0  0  0  0
    7.8592   -7.2575    0.0000 H   0  0  0  0  0  0  0  0  0  0  0  0
    6.2181   -6.0650    0.0000 H   0  0  0  0  0  0  0  0  0  0  0  0
    7.1447   -7.6700    0.0000 H   0  0  0  0  0  0  0  0  0  0  0  0
    6.2180   -7.1350    0.0000 H   0  0  0  0  0  0  0  0  0  0  0  0
    4.7891   -5.4850    0.0000 H   0  0  0  0  0  0  0  0  0  0  0  0
    4.7892   -4.4150    0.0000 H   0  0  0  0  0  0  0  0  0  0  0  0
    6.6425   -4.6600    0.0000 H   0  0  0  0  0  0  0  0  0  0  0  0
    7.2703   -4.1975    0.0000 H   0  0  0  0  0  0  0  0  0  0  0  0
    5.0013   -4.7825    0.0000 H   0  0  0  0  0  0  0  0  0  0  0  0
    3.3602   -3.5900    0.0000 H   0  0  0  0  0  0  0  0  0  0  0  0
    4.2868   -5.1950    0.0000 H   0  0  0  0  0  0  0  0  0  0  0  0
    3.3601   -4.6600    0.0000 H   0  0  0  0  0  0  0  0  0  0  0  0
    3.7845   -1.9400    0.0000 H   0  0  0  0  0  0  0  0  0  0  0  0
    3.6979   -1.1650    0.0000 H   0  0  0  0  0  0  0  0  0  0  0  0
    2.1434   -1.8175    0.0000 H   0  0  0  0  0  0  0  0  0  0  0  0
    2.3555   -1.1150    0.0000 H   0  0  0  0  0  0  0  0  0  0  0  0
    0.5023   -1.1150    0.0000 H   0  0  0  0  0  0  0  0  0  0  0  0
    1.4289   -0.5800    0.0000 H   0  0  0  0  0  0  0  0  0  0  0  0
   -0.2122   -2.3525    0.0000 H   0  0  0  0  0  0  0  0  0  0  0  0
    0.7145   -3.9575    0.0000 H   0  0  0  0  0  0  0  0  0  0  0  0
   -0.2121   -3.4225    0.0000 H   0  0  0  0  0  0  0  0  0  0  0  0
  2  1  1  6  0  0  0
  2  3  1  0  0  0  0
  2 19  1  0  0  0  0
  2 20  1  0  0  0  0
  3 75  1  0  0  0  0
  3 76  1  0  0  0  0
  4  3  1  0  0  0  0
  4  5  1  0  0  0  0
  4  6  1  1  0  0  0
  5 77  1  0  0  0  0
  5 78  1  0  0  0  0
  5 79  1  0  0  0  0
  6 80  1  0  0  0  0
  7  4  1  0  0  0  0
  7  8  1  0  0  0  0
  7 17  1  0  0  0  0
  7 81  1  6  0  0  0
  8  9  1  0  0  0  0
  9 10  1  0  0  0  0
  9 82  1  0  0  0  0
  9 83  1  0  0  0  0
 10 11  2  0  0  0  0
 10 16  1  0  0  0  0
 11 12  1  0  0  0  0
 11 84  1  0  0  0  0
 12 13  2  0  0  0  0
 12 85  1  0  0  0  0
 13 14  1  0  0  0  0
 13 15  1  0  0  0  0
 15 16  2  0  0  0  0
 15 86  1  0  0  0  0
 16 87  1  0  0  0  0
 17 18  1  0  0  0  0
 17 19  1  0  0  0  0
 17 88  1  1  0  0  0
 18 89  1  0  0  0  0
 18 90  1  0  0  0  0
 18 91  1  0  0  0  0
 21 20  1  0  0  0  0
 21 22  1  0  0  0  0
 21 71  1  0  0  0  0
 21 92  1  6  0  0  0
 22 23  1  0  0  0  0
 22 24  1  0  0  0  0
 22 93  1  1  0  0  0
 23 94  1  0  0  0  0
 23 95  1  0  0  0  0
 23 96  1  0  0  0  0
 25 24  1  0  0  0  0
 25 26  1  1  0  0  0
 25 27  1  0  0  0  0
 28 27  1  0  0  0  0
 28 29  1  0  0  0  0
 28 67  1  0  0  0  0
 28 97  1  6  0  0  0
 29 30  1  0  0  0  0
 29 33  1  0  0  0  0
 29 98  1  0  0  0  0
 30 31  1  0  0  0  0
 30 99  1  0  0  0  0
 30100  1  0  0  0  0
 31 32  2  0  0  0  0
 31101  1  0  0  0  0
 33102  1  0  0  0  0
 33103  1  0  0  0  0
 34 33  1  0  0  0  0
 34 35  1  0  0  0  0
 34 36  1  0  0  0  0
 34104  1  6  0  0  0
 35105  1  0  0  0  0
 35106  1  0  0  0  0
 35107  1  0  0  0  0
 36 37  2  0  0  0  0
 36 38  1  0  0  0  0
 38 39  2  0  0  0  0
 38108  1  0  0  0  0
 39 40  1  0  0  0  0
 39109  1  0  0  0  0
 40 41  1  0  0  0  0
 40 42  2  0  0  0  0
 41110  1  0  0  0  0
 41111  1  0  0  0  0
 41112  1  0  0  0  0
 42113  1  0  0  0  0
 43 42  1  0  0  0  0
 43 44  1  0  0  0  0
 43 58  1  0  0  0  0
 43114  1  1  0  0  0
 44 45  1  0  0  0  0
 44115  1  0  0  0  0
 44116  1  0  0  0  0
 46 45  1  0  0  0  0
 46 47  1  0  0  0  0
 46117  1  1  0  0  0
 48 47  1  0  0  0  0
 48 49  1  0  0  0  0
 48118  1  1  0  0  0
 49119  1  0  0  0  0
 49120  1  0  0  0  0
 49121  1  0  0  0  0
 50 48  1  0  0  0  0
 50 51  1  0  0  0  0
 50 52  1  0  0  0  0
 50122  1  6  0  0  0
 51123  1  0  0  0  0
 52 53  1  0  0  0  0
 52 55  1  0  0  0  0
 52124  1  6  0  0  0
 53 54  1  0  0  0  0
 54125  1  0  0  0  0
 54126  1  0  0  0  0
 54127  1  0  0  0  0
 55 46  1  0  0  0  0
 55 56  1  0  0  0  0
 55128  1  6  0  0  0
 56 57  1  0  0  0  0
 57129  1  0  0  0  0
 57130  1  0  0  0  0
 57131  1  0  0  0  0
 58 59  1  0  0  0  0
 58 61  1  0  0  0  0
 58132  1  6  0  0  0
 59 60  1  0  0  0  0
 59133  1  0  0  0  0
 59134  1  0  0  0  0
 60135  1  0  0  0  0
 60136  1  0  0  0  0
 60137  1  0  0  0  0
 61 62  1  0  0  0  0
 62 63  2  0  0  0  0
 62 64  1  0  0  0  0
 64138  1  0  0  0  0
 64139  1  0  0  0  0
 65 64  1  0  0  0  0
 65 66  1  0  0  0  0
 65140  1  1  0  0  0
 66141  1  0  0  0  0
 67 65  1  0  0  0  0
 67 68  1  0  0  0  0
 67142  1  1  0  0  0
 68143  1  0  0  0  0
 68144  1  0  0  0  0
 68145  1  0  0  0  0
 69 25  1  0  0  0  0
 69 70  1  0  0  0  0
 69146  1  6  0  0  0
 70147  1  0  0  0  0
 71 69  1  0  0  0  0
 71 72  1  0  0  0  0
 71148  1  1  0  0  0
 72 73  1  0  0  0  0
 72 74  1  0  0  0  0
 73149  1  0  0  0  0
 73150  1  0  0  0  0
 73151  1  0  0  0  0
 74152  1  0  0  0  0
 74153  1  0  0  0  0
 74154  1  0  0  0  0
M  END
>  <DRUGBANK_ID>
DB17769

>  <COMMON_NAME>
Flubentylosin

>  <CAS_NUMBER>
1809266-03-2

>  <UNII>
HXL1F57P8O

>  <SYNONYMS>
4''-(p-fluorobenzyl)tylosin a; 4b-o-((4-fluorophenyl)methyl)tylosin; Tylosin, 4b-o-((4-fluorophenyl)methyl)-

$$$$
