
 OpenBabel10282417072D

 32 31  0  0  1  0  0  0  0  0999 V2000
    3.9039   -1.4289    0.0000 C   0  0  0  0  0  0  0  0  0  0  0  0
    3.1895   -1.8414    0.0000 C   0  0  0  0  0  0  0  0  0  0  0  0
    4.6184   -1.8414    0.0000 C   0  0  0  0  0  0  0  0  0  0  0  0
    2.4750   -1.4289    0.0000 C   0  0  1  0  0  0  0  0  0  0  0  0
    1.7605   -1.8414    0.0000 C   0  0  0  0  0  0  0  0  0  0  0  0
    2.4750   -0.6039    0.0000 N   0  0  0  0  0  0  0  0  0  0  0  0
    6.4599   -1.1270    0.0000 N   0  0  0  0  0  0  0  0  0  0  0  0
    5.3329   -1.4289    0.0000 N   0  0  0  0  0  0  0  0  0  0  0  0
    6.7618   -2.2539    0.0000 N   0  0  0  0  0  0  0  0  0  0  0  0
    1.0461   -1.4289    0.0000 O   0  0  0  0  0  0  0  0  0  0  0  0
    1.7605   -2.6664    0.0000 O   0  0  0  0  0  0  0  0  0  0  0  0
    5.6349   -2.5559    0.0000 O   0  0  0  0  0  0  0  0  0  0  0  0
    8.1908   -1.4289    0.0000 O   0  0  0  0  0  0  0  0  0  0  0  0
    7.8888   -2.5559    0.0000 O   0  0  0  0  0  0  0  0  0  0  0  0
    7.0638   -1.1270    0.0000 O   0  0  0  0  0  0  0  0  0  0  0  0
    6.0474   -1.8414    0.0000 P   0  0  1  0  0  0  0  0  0  0  0  0
    7.4763   -1.8414    0.0000 S   0  0  0  0  0  0  0  0  0  0  0  0
    2.4750   -2.2539    0.0000 H   0  0  0  0  0  0  0  0  0  0  0  0
    3.9039   -0.3589    0.0000 H   0  0  0  0  0  0  0  0  0  0  0  0
    4.8305   -0.8939    0.0000 H   0  0  0  0  0  0  0  0  0  0  0  0
    3.1895   -2.9114    0.0000 H   0  0  0  0  0  0  0  0  0  0  0  0
    2.2629   -2.3764    0.0000 H   0  0  0  0  0  0  0  0  0  0  0  0
    4.6184   -2.9114    0.0000 H   0  0  0  0  0  0  0  0  0  0  0  0
    5.5450   -2.3764    0.0000 H   0  0  0  0  0  0  0  0  0  0  0  0
    3.3583   -0.0939    0.0000 H   0  0  0  0  0  0  0  0  0  0  0  0
    1.5917   -0.0939    0.0000 H   0  0  0  0  0  0  0  0  0  0  0  0
    7.4799   -1.1270    0.0000 H   0  0  0  0  0  0  0  0  0  0  0  0
    5.9499   -0.2436    0.0000 H   0  0  0  0  0  0  0  0  0  0  0  0
    5.3329   -0.4089    0.0000 H   0  0  0  0  0  0  0  0  0  0  0  0
    6.7618   -3.2739    0.0000 H   0  0  0  0  0  0  0  0  0  0  0  0
    0.9490   -3.1349    0.0000 H   0  0  0  0  0  0  0  0  0  0  0  0
    9.0308   -1.9139    0.0000 H   0  0  0  0  0  0  0  0  0  0  0  0
  1 19  1  0  0  0  0
  1 20  1  0  0  0  0
  2  1  1  0  0  0  0
  2 21  1  0  0  0  0
  2 22  1  0  0  0  0
  3  1  1  0  0  0  0
  3 23  1  0  0  0  0
  3 24  1  0  0  0  0
  4  2  1  0  0  0  0
  4  6  1  0  0  0  0
  4 18  1  6  0  0  0
  5  4  1  0  0  0  0
  6 25  1  0  0  0  0
  6 26  1  0  0  0  0
  7 27  1  0  0  0  0
  7 28  1  0  0  0  0
  8  3  1  0  0  0  0
  8 29  1  0  0  0  0
  9 30  1  0  0  0  0
 10  5  2  0  0  0  0
 11  5  1  0  0  0  0
 11 31  1  0  0  0  0
 13 32  1  0  0  0  0
 16  7  1  0  0  0  0
 16  8  1  0  0  0  0
 16  9  1  0  0  0  0
 16 12  2  1  0  0  0
 17  9  1  0  0  0  0
 17 13  1  0  0  0  0
 17 14  2  0  0  0  0
 17 15  2  0  0  0  0
M  END
>  <DRUGBANK_ID>
DB02965

>  <SECONDARY_ACCESSION_NUMBERS>
EXPT02674

>  <COMMON_NAME>
Ndelta-(N'-Sulphodiaminophosphinyl)-L-Ornithine

$$$$
