NPZ
 OpenBabel10282417072D

 34 37  0  0  0  0  0  0  0  0999 V2000
   -0.2709    1.3375    0.0000 C   0  0  0  0  0  0  0  0  0  0  0  0
    0.5361    1.1660    0.0000 N   0  0  0  0  0  0  0  0  0  0  0  0
   -0.8229    0.7244    0.0000 C   0  0  0  0  0  0  0  0  0  0  0  0
   -0.5258    2.1221    0.0000 N   0  0  0  0  0  0  0  0  0  0  0  0
   -1.3328    2.2936    0.0000 C   0  0  0  0  0  0  0  0  0  0  0  0
   -1.8848    1.6805    0.0000 N   0  0  0  0  0  0  0  0  0  0  0  0
   -1.6299    0.8959    0.0000 C   0  0  0  0  0  0  0  0  0  0  0  0
   -2.0424    0.1815    0.0000 N   0  0  0  0  0  0  0  0  0  0  0  0
   -2.8629    0.0952    0.0000 C   0  0  0  0  0  0  0  0  0  0  0  0
   -1.4904   -0.4316    0.0000 N   0  0  0  0  0  0  0  0  0  0  0  0
   -0.7367   -0.0961    0.0000 C   0  0  0  0  0  0  0  0  0  0  0  0
   -0.0222   -0.5086    0.0000 C   0  0  0  0  0  0  0  0  0  0  0  0
    0.6923   -0.0961    0.0000 C   0  0  0  0  0  0  0  0  0  0  0  0
   -0.0222   -1.3336    0.0000 C   0  0  0  0  0  0  0  0  0  0  0  0
    0.6923   -1.7461    0.0000 C   0  0  0  0  0  0  0  0  0  0  0  0
    1.4067   -1.3336    0.0000 C   0  0  0  0  0  0  0  0  0  0  0  0
    1.4067   -0.5086    0.0000 C   0  0  0  0  0  0  0  0  0  0  0  0
    2.1212   -1.7461    0.0000 C   0  0  0  0  0  0  0  0  0  0  0  0
    2.8357   -1.3336    0.0000 C   0  0  0  0  0  0  0  0  0  0  0  0
    2.8357   -0.5086    0.0000 C   0  0  0  0  0  0  0  0  0  0  0  0
    2.1212   -0.0961    0.0000 C   0  0  0  0  0  0  0  0  0  0  0  0
    0.8404    0.2297    0.0000 H   0  0  0  0  0  0  0  0  0  0  0  0
    1.1948    1.8977    0.0000 H   0  0  0  0  0  0  0  0  0  0  0  0
   -1.6517    3.2751    0.0000 H   0  0  0  0  0  0  0  0  0  0  0  0
   -3.4919    0.9608    0.0000 H   0  0  0  0  0  0  0  0  0  0  0  0
   -3.2980   -0.8823    0.0000 H   0  0  0  0  0  0  0  0  0  0  0  0
   -3.9270   -0.0167    0.0000 H   0  0  0  0  0  0  0  0  0  0  0  0
    0.6923    0.9359    0.0000 H   0  0  0  0  0  0  0  0  0  0  0  0
   -0.9159   -1.8496    0.0000 H   0  0  0  0  0  0  0  0  0  0  0  0
    0.6923   -2.7781    0.0000 H   0  0  0  0  0  0  0  0  0  0  0  0
    2.1212   -2.7781    0.0000 H   0  0  0  0  0  0  0  0  0  0  0  0
    3.7294   -1.8496    0.0000 H   0  0  0  0  0  0  0  0  0  0  0  0
    3.7294    0.0074    0.0000 H   0  0  0  0  0  0  0  0  0  0  0  0
    2.1212    0.9359    0.0000 H   0  0  0  0  0  0  0  0  0  0  0  0
  1  3  2  0  0  0  0
  2  1  1  0  0  0  0
  2 22  1  0  0  0  0
  2 23  1  0  0  0  0
  3  7  1  0  0  0  0
  3 11  1  0  0  0  0
  4  5  2  0  0  0  0
  4  1  1  0  0  0  0
  5  6  1  0  0  0  0
  5 24  1  0  0  0  0
  6  7  2  0  0  0  0
  7  8  1  0  0  0  0
  8  9  1  0  0  0  0
  8 10  1  0  0  0  0
  9 25  1  0  0  0  0
  9 26  1  0  0  0  0
  9 27  1  0  0  0  0
 11 12  1  0  0  0  0
 11 10  2  0  0  0  0
 12 13  2  0  0  0  0
 13 28  1  0  0  0  0
 14 12  1  0  0  0  0
 14 29  1  0  0  0  0
 15 14  2  0  0  0  0
 15 16  1  0  0  0  0
 15 30  1  0  0  0  0
 16 17  1  0  0  0  0
 17 13  1  0  0  0  0
 17 21  2  0  0  0  0
 18 16  2  0  0  0  0
 18 19  1  0  0  0  0
 18 31  1  0  0  0  0
 19 20  2  0  0  0  0
 19 32  1  0  0  0  0
 20 21  1  0  0  0  0
 20 33  1  0  0  0  0
 21 34  1  0  0  0  0
M  END
>  <DRUGBANK_ID>
DB08300

>  <COMMON_NAME>
1-methyl-3-naphthalen-2-yl-1H-pyrazolo[3,4-d]pyrimidin-4-amine

$$$$
