
 OpenBabel10282417072D

 10  9  0  0  0  0  0  0  0  0999 V2000
   -0.7145    0.2062    0.0000 C   0  0  0  0  0  0  0  0  0  0  0  0
    0.0000   -0.2062    0.0000 C   0  0  0  0  0  0  0  0  0  0  0  0
    0.7145    0.2062    0.0000 C   0  0  0  0  0  0  0  0  0  0  0  0
   -1.4289   -0.2062    0.0000 O   0  0  0  0  0  0  0  0  0  0  0  0
   -0.7145    1.0312    0.0000 O   0  0  0  0  0  0  0  0  0  0  0  0
    1.4289   -0.2062    0.0000 O   0  0  0  0  0  0  0  0  0  0  0  0
    0.7145    1.0312    0.0000 O   0  0  0  0  0  0  0  0  0  0  0  0
    0.0000   -1.0312    0.0000 O   0  0  0  0  0  0  0  0  0  0  0  0
   -2.2403    0.2624    0.0000 H   0  0  0  0  0  0  0  0  0  0  0  0
    1.4290   -1.1432    0.0000 H   0  0  0  0  0  0  0  0  0  0  0  0
  2  1  1  0  0  0  0
  3  2  1  0  0  0  0
  4  1  1  0  0  0  0
  4  9  1  0  0  0  0
  5  1  2  0  0  0  0
  6  3  1  0  0  0  0
  6 10  1  0  0  0  0
  7  3  2  0  0  0  0
  8  2  2  0  0  0  0
M  END
>  <DRUGBANK_ID>
DB03589

>  <SECONDARY_ACCESSION_NUMBERS>
EXPT02110

>  <COMMON_NAME>
Mesoxalic acid

>  <CAS_NUMBER>
473-90-5

>  <UNII>
62R514HE48

>  <SYNONYMS>
alpha-Ketomalonic acid; Ketomalonic acid; Oxomalonic acid

$$$$
