
 OpenBabel10282417072D

 35 37  0  0  0  0  0  0  0  0999 V2000
    0.5450   -0.9817    0.0000 C   0  0  0  0  0  0  0  0  0  0  0  0
    0.8806   -0.2280    0.0000 C   0  0  0  0  0  0  0  0  0  0  0  0
   -0.2754   -1.0679    0.0000 C   0  0  0  0  0  0  0  0  0  0  0  0
    0.3957    0.4394    0.0000 C   0  0  0  0  0  0  0  0  0  0  0  0
   -0.7604   -0.4005    0.0000 C   0  0  0  0  0  0  0  0  0  0  0  0
   -2.9458    2.8672    0.0000 C   0  0  0  0  0  0  0  0  0  0  0  0
   -3.3874    1.5082    0.0000 C   0  0  0  0  0  0  0  0  0  0  0  0
   -3.7304    3.1221    0.0000 C   0  0  0  0  0  0  0  0  0  0  0  0
   -4.1720    1.7631    0.0000 C   0  0  0  0  0  0  0  0  0  0  0  0
   -1.3222    3.1152    0.0000 C   0  0  0  0  0  0  0  0  0  0  0  0
   -0.6548    1.8053    0.0000 C   0  0  0  0  0  0  0  0  0  0  0  0
   -2.7743    2.0602    0.0000 C   0  0  0  0  0  0  0  0  0  0  0  0
   -1.3222    2.2902    0.0000 C   0  0  0  0  0  0  0  0  0  0  0  0
   -4.3435    2.5701    0.0000 C   0  0  0  0  0  0  0  0  0  0  0  0
   -0.4248    0.3532    0.0000 C   0  0  0  0  0  0  0  0  0  0  0  0
   -0.6078    3.5277    0.0000 C   0  0  0  0  0  0  0  0  0  0  0  0
   -1.9897    1.8053    0.0000 C   0  0  0  0  0  0  0  0  0  0  0  0
   -5.1282    2.8250    0.0000 Cl  0  0  0  0  0  0  0  0  0  0  0  0
   -1.7347    1.0206    0.0000 N   0  0  0  0  0  0  0  0  0  0  0  0
   -0.9097    1.0206    0.0000 N   0  0  0  0  0  0  0  0  0  0  0  0
    0.1067    3.1152    0.0000 O   0  0  0  0  0  0  0  0  0  0  0  0
   -0.6078    4.3527    0.0000 O   0  0  0  0  0  0  0  0  0  0  0  0
    1.1516   -1.8166    0.0000 H   0  0  0  0  0  0  0  0  0  0  0  0
    1.9069   -0.1201    0.0000 H   0  0  0  0  0  0  0  0  0  0  0  0
   -0.6951   -2.0107    0.0000 H   0  0  0  0  0  0  0  0  0  0  0  0
    0.8155    1.3822    0.0000 H   0  0  0  0  0  0  0  0  0  0  0  0
   -1.7867   -0.5084    0.0000 H   0  0  0  0  0  0  0  0  0  0  0  0
   -2.1789    3.5577    0.0000 H   0  0  0  0  0  0  0  0  0  0  0  0
   -3.1728    0.4988    0.0000 H   0  0  0  0  0  0  0  0  0  0  0  0
   -3.9450    4.1315    0.0000 H   0  0  0  0  0  0  0  0  0  0  0  0
   -4.9389    1.0726    0.0000 H   0  0  0  0  0  0  0  0  0  0  0  0
   -2.2489    3.6502    0.0000 H   0  0  0  0  0  0  0  0  0  0  0  0
   -1.3222    4.1852    0.0000 H   0  0  0  0  0  0  0  0  0  0  0  0
    0.3267    2.1242    0.0000 H   0  0  0  0  0  0  0  0  0  0  0  0
    0.2037    4.8212    0.0000 H   0  0  0  0  0  0  0  0  0  0  0  0
  1 23  1  0  0  0  0
  2  1  2  0  0  0  0
  2 24  1  0  0  0  0
  3  1  1  0  0  0  0
  3 25  1  0  0  0  0
  4  2  1  0  0  0  0
  4 26  1  0  0  0  0
  5  3  2  0  0  0  0
  5 27  1  0  0  0  0
  6 28  1  0  0  0  0
  7 29  1  0  0  0  0
  8  6  1  0  0  0  0
  8 30  1  0  0  0  0
  9  7  2  0  0  0  0
  9 31  1  0  0  0  0
 10 32  1  0  0  0  0
 10 33  1  0  0  0  0
 11 34  1  0  0  0  0
 12  6  2  0  0  0  0
 12  7  1  0  0  0  0
 13 10  1  0  0  0  0
 13 11  2  0  0  0  0
 14  8  2  0  0  0  0
 14  9  1  0  0  0  0
 15  4  2  0  0  0  0
 15  5  1  0  0  0  0
 16 10  1  0  0  0  0
 17 12  1  0  0  0  0
 17 13  1  0  0  0  0
 18 14  1  0  0  0  0
 19 17  2  0  0  0  0
 20 11  1  0  0  0  0
 20 15  1  0  0  0  0
 20 19  1  0  0  0  0
 21 16  2  0  0  0  0
 22 16  1  0  0  0  0
 22 35  1  0  0  0  0
M  END
>  <DRUGBANK_ID>
DB13432

>  <COMMON_NAME>
Lonazolac

>  <CAS_NUMBER>
53808-88-1

>  <UNII>
13097143QI

>  <SYNONYMS>
Lonazolac; lonazolaco

$$$$
