10U
 OpenBabel10282417072D

 56 58  0  0  0  0  0  0  0  0999 V2000
    0.0243    0.9907    0.0000 N   0  0  0  0  0  0  0  0  0  0  0  0
    0.8090    1.2457    0.0000 C   0  0  0  0  0  0  0  0  0  0  0  0
    1.4220    0.6936    0.0000 O   0  0  0  0  0  0  0  0  0  0  0  0
    0.9805    2.0526    0.0000 C   0  0  0  0  0  0  0  0  0  0  0  0
   -0.6431    1.4757    0.0000 C   0  0  0  0  0  0  0  0  0  0  0  0
   -1.3105    0.9907    0.0000 C   0  0  0  0  0  0  0  0  0  0  0  0
   -1.0556    0.2061    0.0000 C   0  0  0  0  0  0  0  0  0  0  0  0
   -0.2306    0.2061    0.0000 C   0  0  1  0  0  0  0  0  0  0  0  0
    0.2543   -0.4613    0.0000 C   0  0  0  0  0  0  0  0  0  0  0  0
   -0.0812   -1.2150    0.0000 N   0  0  0  0  0  0  0  0  0  0  0  0
    0.4037   -1.8824    0.0000 C   0  0  0  0  0  0  0  0  0  0  0  0
    0.0681   -2.6361    0.0000 C   0  0  0  0  0  0  0  0  0  0  0  0
   -0.7524   -2.7224    0.0000 C   0  0  0  0  0  0  0  0  0  0  0  0
   -1.0879   -3.4760    0.0000 C   0  0  0  0  0  0  0  0  0  0  0  0
   -0.6030   -4.1435    0.0000 C   0  0  0  0  0  0  0  0  0  0  0  0
   -0.9385   -4.8971    0.0000 C   0  0  0  0  0  0  0  0  0  0  0  0
   -0.4536   -5.5646    0.0000 N   0  0  0  0  0  0  0  0  0  0  0  0
   -1.7590   -4.9834    0.0000 N   0  0  0  0  0  0  0  0  0  0  0  0
    0.2175   -4.0572    0.0000 C   0  0  0  0  0  0  0  0  0  0  0  0
    0.5530   -3.3036    0.0000 C   0  0  0  0  0  0  0  0  0  0  0  0
    1.0748   -0.3751    0.0000 O   0  0  0  0  0  0  0  0  0  0  0  0
    1.7651    2.3076    0.0000 N   0  0  0  0  0  0  0  0  0  0  0  0
    1.9366    3.1146    0.0000 C   0  0  0  0  0  0  0  0  0  0  0  0
    2.6903    3.4501    0.0000 C   0  0  0  0  0  0  0  0  0  0  0  0
    2.6041    4.2706    0.0000 C   0  0  0  0  0  0  0  0  0  0  0  0
    1.7971    4.4421    0.0000 C   0  0  0  0  0  0  0  0  0  0  0  0
    1.3846    3.7277    0.0000 C   0  0  0  0  0  0  0  0  0  0  0  0
   -0.4957   -0.3142    0.0000 H   0  0  0  0  0  0  0  0  0  0  0  0
    0.1853    2.7685    0.0000 H   0  0  0  0  0  0  0  0  0  0  0  0
    1.2029    3.0992    0.0000 H   0  0  0  0  0  0  0  0  0  0  0  0
   -0.6431    2.5457    0.0000 H   0  0  0  0  0  0  0  0  0  0  0  0
   -1.5965    1.9614    0.0000 H   0  0  0  0  0  0  0  0  0  0  0  0
   -2.3281    1.3213    0.0000 H   0  0  0  0  0  0  0  0  0  0  0  0
   -1.4780    2.0475    0.0000 H   0  0  0  0  0  0  0  0  0  0  0  0
   -1.6845   -0.6595    0.0000 H   0  0  0  0  0  0  0  0  0  0  0  0
   -0.5698   -0.7473    0.0000 H   0  0  0  0  0  0  0  0  0  0  0  0
   -1.0603   -1.3179    0.0000 H   0  0  0  0  0  0  0  0  0  0  0  0
    1.4678   -1.7706    0.0000 H   0  0  0  0  0  0  0  0  0  0  0  0
    1.0326   -2.7481    0.0000 H   0  0  0  0  0  0  0  0  0  0  0  0
   -1.3590   -1.8875    0.0000 H   0  0  0  0  0  0  0  0  0  0  0  0
   -2.1142   -3.5839    0.0000 H   0  0  0  0  0  0  0  0  0  0  0  0
   -0.8541   -6.4640    0.0000 H   0  0  0  0  0  0  0  0  0  0  0  0
   -2.3377   -4.1870    0.0000 H   0  0  0  0  0  0  0  0  0  0  0  0
   -2.1594   -5.8828    0.0000 H   0  0  0  0  0  0  0  0  0  0  0  0
    0.8241   -4.8921    0.0000 H   0  0  0  0  0  0  0  0  0  0  0  0
    1.5793   -3.1957    0.0000 H   0  0  0  0  0  0  0  0  0  0  0  0
    2.5231    1.6251    0.0000 H   0  0  0  0  0  0  0  0  0  0  0  0
    2.1591    4.1612    0.0000 H   0  0  0  0  0  0  0  0  0  0  0  0
    3.6169    2.9150    0.0000 H   0  0  0  0  0  0  0  0  0  0  0  0
    3.5877    4.0328    0.0000 H   0  0  0  0  0  0  0  0  0  0  0  0
    3.3993    4.9866    0.0000 H   0  0  0  0  0  0  0  0  0  0  0  0
    2.3271    5.3041    0.0000 H   0  0  0  0  0  0  0  0  0  0  0  0
    1.3619    5.4196    0.0000 H   0  0  0  0  0  0  0  0  0  0  0  0
    0.7286    4.4981    0.0000 H   0  0  0  0  0  0  0  0  0  0  0  0
    0.3205    3.6159    0.0000 H   0  0  0  0  0  0  0  0  0  0  0  0
    0.8019    4.6251    0.0000 H   0  0  0  0  0  0  0  0  0  0  0  0
  1  2  1  0  0  0  0
  2  4  1  0  0  0  0
  2  3  2  0  0  0  0
  4 22  1  0  0  0  0
  4 29  1  0  0  0  0
  4 30  1  0  0  0  0
  5  1  1  0  0  0  0
  5 31  1  0  0  0  0
  5 32  1  0  0  0  0
  6  7  1  0  0  0  0
  6  5  1  0  0  0  0
  6 33  1  0  0  0  0
  6 34  1  0  0  0  0
  7  8  1  0  0  0  0
  7 35  1  0  0  0  0
  7 36  1  0  0  0  0
  8  1  1  0  0  0  0
  8 28  1  1  0  0  0
  8  9  1  0  0  0  0
  9 10  1  0  0  0  0
 10 37  1  0  0  0  0
 11 10  1  0  0  0  0
 11 12  1  0  0  0  0
 11 38  1  0  0  0  0
 11 39  1  0  0  0  0
 12 20  2  0  0  0  0
 12 13  1  0  0  0  0
 13 14  2  0  0  0  0
 13 40  1  0  0  0  0
 14 15  1  0  0  0  0
 14 41  1  0  0  0  0
 15 16  1  0  0  0  0
 16 18  1  0  0  0  0
 16 17  2  0  0  0  0
 17 42  1  0  0  0  0
 18 43  1  0  0  0  0
 18 44  1  0  0  0  0
 19 15  2  0  0  0  0
 19 45  1  0  0  0  0
 20 19  1  0  0  0  0
 20 46  1  0  0  0  0
 21  9  2  0  0  0  0
 22 23  1  0  0  0  0
 22 47  1  0  0  0  0
 23 27  1  0  0  0  0
 23 48  1  0  0  0  0
 24 23  1  0  0  0  0
 24 25  1  0  0  0  0
 24 49  1  0  0  0  0
 24 50  1  0  0  0  0
 25 26  1  0  0  0  0
 25 51  1  0  0  0  0
 25 52  1  0  0  0  0
 26 53  1  0  0  0  0
 26 54  1  0  0  0  0
 27 26  1  0  0  0  0
 27 55  1  0  0  0  0
 27 56  1  0  0  0  0
M  END
>  <DRUGBANK_ID>
DB06845

>  <COMMON_NAME>
(S)-N-(4-carbamimidoylbenzyl)-1-(2-(cyclopentylamino)ethanoyl)pyrrolidine-2-carboxamide

$$$$
