
 OpenBabel10282417072D

 22 21  0  0  0  0  0  0  0  0999 V2000
    1.0461    1.4289    0.0000 O   0  0  0  0  0  0  0  0  0  0  0  0
    1.7605    1.8414    0.0000 C   0  0  0  0  0  0  0  0  0  0  0  0
    2.4750    1.4289    0.0000 C   0  0  0  0  0  0  0  0  0  0  0  0
    3.1895    1.8414    0.0000 C   0  0  0  0  0  0  0  0  0  0  0  0
    3.9039    1.4289    0.0000 C   0  0  0  0  0  0  0  0  0  0  0  0
    4.6184    1.8414    0.0000 C   0  0  0  0  0  0  0  0  0  0  0  0
    5.3329    1.4289    0.0000 C   0  0  0  0  0  0  0  0  0  0  0  0
    6.0474    1.8414    0.0000 O   0  0  0  0  0  0  0  0  0  0  0  0
    0.2060    1.9139    0.0000 H   0  0  0  0  0  0  0  0  0  0  0  0
    1.7605    2.9114    0.0000 H   0  0  0  0  0  0  0  0  0  0  0  0
    2.6871    2.3764    0.0000 H   0  0  0  0  0  0  0  0  0  0  0  0
    2.4750    0.3589    0.0000 H   0  0  0  0  0  0  0  0  0  0  0  0
    3.4016    0.8939    0.0000 H   0  0  0  0  0  0  0  0  0  0  0  0
    3.1895    2.9114    0.0000 H   0  0  0  0  0  0  0  0  0  0  0  0
    4.1162    2.3764    0.0000 H   0  0  0  0  0  0  0  0  0  0  0  0
    3.9039    0.3589    0.0000 H   0  0  0  0  0  0  0  0  0  0  0  0
    4.8305    0.8939    0.0000 H   0  0  0  0  0  0  0  0  0  0  0  0
    4.6184    2.9114    0.0000 H   0  0  0  0  0  0  0  0  0  0  0  0
    5.5450    2.3764    0.0000 H   0  0  0  0  0  0  0  0  0  0  0  0
    5.3329    0.3589    0.0000 H   0  0  0  0  0  0  0  0  0  0  0  0
    6.2595    0.8939    0.0000 H   0  0  0  0  0  0  0  0  0  0  0  0
    6.8874    1.3564    0.0000 H   0  0  0  0  0  0  0  0  0  0  0  0
  1  2  1  0  0  0  0
  1  9  1  0  0  0  0
  2  3  1  0  0  0  0
  2 10  1  0  0  0  0
  2 11  1  0  0  0  0
  3  4  1  0  0  0  0
  3 12  1  0  0  0  0
  3 13  1  0  0  0  0
  4  5  1  0  0  0  0
  4 14  1  0  0  0  0
  4 15  1  0  0  0  0
  5  6  1  0  0  0  0
  5 16  1  0  0  0  0
  5 17  1  0  0  0  0
  6  7  1  0  0  0  0
  6 18  1  0  0  0  0
  6 19  1  0  0  0  0
  7  8  1  0  0  0  0
  7 20  1  0  0  0  0
  7 21  1  0  0  0  0
  8 22  1  0  0  0  0
M  END
>  <DRUGBANK_ID>
DB02210

>  <SECONDARY_ACCESSION_NUMBERS>
EXPT01731

>  <COMMON_NAME>
Hexane-1,6-Diol

>  <CAS_NUMBER>
629-11-8

>  <UNII>
ZIA319275I

$$$$
