441
 OpenBabel10282417072D

 29 30  0  0  1  0  0  0  0  0999 V2000
    5.1206   -1.3156    0.0000 F   0  0  0  0  0  0  0  0  0  0  0  0
    4.8209   -0.3932    0.0000 F   0  0  0  0  0  0  0  0  0  0  0  0
    3.0011   -1.0607    0.0000 O   0  0  0  0  0  0  0  0  0  0  0  0
    4.5660   -2.5127    0.0000 O   0  0  0  0  0  0  0  0  0  0  0  0
    1.9506   -2.4265    0.0000 O   0  0  0  0  0  0  0  0  0  0  0  0
    2.2396    0.2492    0.0000 O   0  0  0  0  0  0  0  0  0  0  0  0
    3.6685    0.2492    0.0000 N   0  0  0  0  0  0  0  0  0  0  0  0
    2.9541    1.4867    0.0000 N   0  0  0  0  0  0  0  0  0  0  0  0
    3.6685    2.7242    0.0000 N   0  0  0  0  0  0  0  0  0  0  0  0
    4.0810   -1.8453    0.0000 C   0  0  1  0  0  0  0  0  0  0  0  0
    4.3361   -1.0607    0.0000 C   0  0  0  0  0  0  0  0  0  0  0  0
    3.2560   -1.8453    0.0000 C   0  0  1  0  0  0  0  0  0  0  0  0
    3.6685   -0.5758    0.0000 C   0  0  1  0  0  0  0  0  0  0  0  0
    2.7711   -2.5127    0.0000 C   0  0  0  0  0  0  0  0  0  0  0  0
    4.3831    0.6617    0.0000 C   0  0  0  0  0  0  0  0  0  0  0  0
    2.9541    0.6617    0.0000 C   0  0  0  0  0  0  0  0  0  0  0  0
    4.3831    1.4867    0.0000 C   0  0  0  0  0  0  0  0  0  0  0  0
    3.6685    1.8992    0.0000 C   0  0  0  0  0  0  0  0  0  0  0  0
    4.1716   -3.3989    0.0000 H   0  0  0  0  0  0  0  0  0  0  0  0
    1.5560   -1.5404    0.0000 H   0  0  0  0  0  0  0  0  0  0  0  0
    4.5211    3.2165    0.0000 H   0  0  0  0  0  0  0  0  0  0  0  0
    2.8159    3.2165    0.0000 H   0  0  0  0  0  0  0  0  0  0  0  0
    5.1378   -1.6780    0.0000 H   0  0  0  0  0  0  0  0  0  0  0  0
    2.1992   -1.6779    0.0000 H   0  0  0  0  0  0  0  0  0  0  0  0
    2.7151   -0.0900    0.0000 H   0  0  0  0  0  0  0  0  0  0  0  0
    3.2063   -3.4902    0.0000 H   0  0  0  0  0  0  0  0  0  0  0  0
    3.8352   -2.6245    0.0000 H   0  0  0  0  0  0  0  0  0  0  0  0
    5.2768    0.1457    0.0000 H   0  0  0  0  0  0  0  0  0  0  0  0
    5.2768    2.0027    0.0000 H   0  0  0  0  0  0  0  0  0  0  0  0
  1 11  1  0  0  0  0
  2 11  1  0  0  0  0
  3 12  1  0  0  0  0
  3 13  1  0  0  0  0
  4 19  1  0  0  0  0
  5 14  1  0  0  0  0
  5 20  1  0  0  0  0
  6 16  2  0  0  0  0
  7 15  1  0  0  0  0
  7 16  1  0  0  0  0
  8 16  1  0  0  0  0
  8 18  2  0  0  0  0
  9 18  1  0  0  0  0
  9 21  1  0  0  0  0
  9 22  1  0  0  0  0
 10  4  1  0  0  0  0
 10 11  1  0  0  0  0
 10 12  1  0  0  0  0
 10 23  1  1  0  0  0
 11 13  1  0  0  0  0
 12 14  1  0  0  0  0
 12 24  1  6  0  0  0
 13  7  1  0  0  0  0
 13 25  1  6  0  0  0
 14 26  1  0  0  0  0
 14 27  1  0  0  0  0
 15 17  2  0  0  0  0
 15 28  1  0  0  0  0
 17 18  1  0  0  0  0
 17 29  1  0  0  0  0
M  END
>  <DRUGBANK_ID>
DB00441

>  <SECONDARY_ACCESSION_NUMBERS>
APRD00201

>  <COMMON_NAME>
Gemcitabine

>  <CAS_NUMBER>
95058-81-4

>  <UNII>
B76N6SBZ8R

>  <SYNONYMS>
2'-Deoxy-2',2'-difluorocytidine; 2',2'-Difluorodeoxycytidine; 4-amino-1-((2R,4R,5R)-3,3-difluoro-4-hydroxy-5-(hydroxymethyl)-tetrahydrofuran-2-yl)pyrimidin-2(1H)-one; Gemcitabin; Gemcitabina; Gemcitabine; Gemcitabinum

$$$$
