
 OpenBabel10282417072D

 54 58  0  0  0  0  0  0  0  0999 V2000
    5.4704   -3.6944    0.0000 N   0  0  0  0  0  0  0  0  0  0  0  0
    4.8746   -4.2650    0.0000 C   0  0  0  0  0  0  0  0  0  0  0  0
    4.0825   -4.0343    0.0000 C   0  0  0  0  0  0  0  0  0  0  0  0
    3.8862   -3.2329    0.0000 C   0  0  0  0  0  0  0  0  0  0  0  0
    3.0942   -3.0022    0.0000 C   0  0  0  0  0  0  0  0  0  0  0  0
    2.4983   -3.5729    0.0000 C   0  0  0  0  0  0  0  0  0  0  0  0
    2.6946   -4.3742    0.0000 C   0  0  0  0  0  0  0  0  0  0  0  0
    3.4867   -4.6049    0.0000 C   0  0  0  0  0  0  0  0  0  0  0  0
    1.7715   -3.1825    0.0000 N   0  0  0  0  0  0  0  0  0  0  0  0
    1.0285   -3.5411    0.0000 C   0  0  0  0  0  0  0  0  0  0  0  0
    0.9675   -4.3638    0.0000 C   0  0  0  0  0  0  0  0  0  0  0  0
    0.2245   -4.7224    0.0000 C   0  0  0  0  0  0  0  0  0  0  0  0
   -0.4575   -4.2582    0.0000 C   0  0  0  0  0  0  0  0  0  0  0  0
    0.0067   -3.5762    0.0000 F   0  0  0  0  0  0  0  0  0  0  0  0
   -0.9217   -4.9402    0.0000 F   0  0  0  0  0  0  0  0  0  0  0  0
   -1.1395   -3.7940    0.0000 F   0  0  0  0  0  0  0  0  0  0  0  0
    1.9182   -2.3707    0.0000 C   0  0  0  0  0  0  0  0  0  0  0  0
    1.3475   -1.7748    0.0000 C   0  0  0  0  0  0  0  0  0  0  0  0
    1.5782   -0.9827    0.0000 N   0  0  0  0  0  0  0  0  0  0  0  0
    2.3547   -0.7038    0.0000 C   0  0  0  0  0  0  0  0  0  0  0  0
    3.0367   -1.1680    0.0000 O   0  0  0  0  0  0  0  0  0  0  0  0
    2.3293    0.1208    0.0000 C   0  0  0  0  0  0  0  0  0  0  0  0
    2.6415    0.8845    0.0000 C   0  0  0  0  0  0  0  0  0  0  0  0
    3.1467    0.2322    0.0000 C   0  0  0  0  0  0  0  0  0  0  0  0
    1.5372    0.3515    0.0000 C   0  0  0  0  0  0  0  0  0  0  0  0
    1.0730   -0.3305    0.0000 C   0  0  0  0  0  0  0  0  0  0  0  0
    0.2503   -0.2695    0.0000 C   0  0  0  0  0  0  0  0  0  0  0  0
   -0.1083    0.4735    0.0000 C   0  0  0  0  0  0  0  0  0  0  0  0
   -0.9310    0.5345    0.0000 F   0  0  0  0  0  0  0  0  0  0  0  0
    0.3559    1.1555    0.0000 C   0  0  0  0  0  0  0  0  0  0  0  0
    1.1787    1.0945    0.0000 C   0  0  0  0  0  0  0  0  0  0  0  0
    2.7356   -2.2592    0.0000 N   0  0  0  0  0  0  0  0  0  0  0  0
    6.4497   -3.9796    0.0000 H   0  0  0  0  0  0  0  0  0  0  0  0
    5.2277   -2.7037    0.0000 H   0  0  0  0  0  0  0  0  0  0  0  0
    5.1291   -5.3043    0.0000 H   0  0  0  0  0  0  0  0  0  0  0  0
    4.1018   -5.0051    0.0000 H   0  0  0  0  0  0  0  0  0  0  0  0
    4.6315   -2.5191    0.0000 H   0  0  0  0  0  0  0  0  0  0  0  0
    1.9493   -5.0880    0.0000 H   0  0  0  0  0  0  0  0  0  0  0  0
    3.7322   -5.6073    0.0000 H   0  0  0  0  0  0  0  0  0  0  0  0
    0.1439   -2.9391    0.0000 H   0  0  0  0  0  0  0  0  0  0  0  0
    0.0648   -4.0061    0.0000 H   0  0  0  0  0  0  0  0  0  0  0  0
    1.8521   -4.9658    0.0000 H   0  0  0  0  0  0  0  0  0  0  0  0
    0.8884   -5.4309    0.0000 H   0  0  0  0  0  0  0  0  0  0  0  0
    0.1454   -5.7895    0.0000 H   0  0  0  0  0  0  0  0  0  0  0  0
   -0.7392   -5.1874    0.0000 H   0  0  0  0  0  0  0  0  0  0  0  0
    0.3082   -2.0293    0.0000 H   0  0  0  0  0  0  0  0  0  0  0  0
    0.6074   -1.0020    0.0000 H   0  0  0  0  0  0  0  0  0  0  0  0
    2.4970    1.9447    0.0000 H   0  0  0  0  0  0  0  0  0  0  0  0
    3.6282    1.2984    0.0000 H   0  0  0  0  0  0  0  0  0  0  0  0
    4.1371   -0.1728    0.0000 H   0  0  0  0  0  0  0  0  0  0  0  0
    3.0119   -0.8293    0.0000 H   0  0  0  0  0  0  0  0  0  0  0  0
   -0.3303   -1.1227    0.0000 H   0  0  0  0  0  0  0  0  0  0  0  0
   -0.0926    2.0849    0.0000 H   0  0  0  0  0  0  0  0  0  0  0  0
    1.7594    1.9476    0.0000 H   0  0  0  0  0  0  0  0  0  0  0  0
  1  2  1  0  0  0  0
  1 33  1  0  0  0  0
  1 34  1  0  0  0  0
  2  3  1  0  0  0  0
  2 35  1  0  0  0  0
  2 36  1  0  0  0  0
  3  4  2  0  0  0  0
  3  8  1  0  0  0  0
  4  5  1  0  0  0  0
  4 37  1  0  0  0  0
  5  6  2  0  0  0  0
  5 32  1  0  0  0  0
  6  7  1  0  0  0  0
  6  9  1  0  0  0  0
  7  8  2  0  0  0  0
  7 38  1  0  0  0  0
  8 39  1  0  0  0  0
  9 10  1  0  0  0  0
  9 17  1  0  0  0  0
 10 11  1  0  0  0  0
 10 40  1  0  0  0  0
 10 41  1  0  0  0  0
 11 12  1  0  0  0  0
 11 42  1  0  0  0  0
 11 43  1  0  0  0  0
 12 13  1  0  0  0  0
 12 44  1  0  0  0  0
 12 45  1  0  0  0  0
 13 14  1  0  0  0  0
 13 15  1  0  0  0  0
 13 16  1  0  0  0  0
 17 18  1  0  0  0  0
 17 32  2  0  0  0  0
 18 19  1  0  0  0  0
 18 46  1  0  0  0  0
 18 47  1  0  0  0  0
 19 20  1  0  0  0  0
 19 26  1  0  0  0  0
 20 21  2  0  0  0  0
 20 22  1  0  0  0  0
 22 23  1  0  0  0  0
 22 24  1  0  0  0  0
 22 25  1  0  0  0  0
 23 24  1  0  0  0  0
 23 48  1  0  0  0  0
 23 49  1  0  0  0  0
 24 50  1  0  0  0  0
 24 51  1  0  0  0  0
 25 26  2  0  0  0  0
 25 31  1  0  0  0  0
 26 27  1  0  0  0  0
 27 28  2  0  0  0  0
 27 52  1  0  0  0  0
 28 29  1  0  0  0  0
 28 30  1  0  0  0  0
 30 31  2  0  0  0  0
 30 53  1  0  0  0  0
 31 54  1  0  0  0  0
M  END
>  <DRUGBANK_ID>
DB15674

>  <COMMON_NAME>
Sisunatovir

>  <CAS_NUMBER>
1903763-82-5

>  <UNII>
KE63TTO7WK

>  <SYNONYMS>
Sisunatovir

$$$$
