AXA
 OpenBabel10282417072D

 54 58  0  0  0  0  0  0  0  0999 V2000
    2.1498    1.0167    0.0000 C   0  0  0  0  0  0  0  0  0  0  0  0
    2.7018    1.6298    0.0000 C   0  0  0  0  0  0  0  0  0  0  0  0
    2.4469    2.4144    0.0000 N   0  0  0  0  0  0  0  0  0  0  0  0
    2.9989    3.0275    0.0000 C   0  0  0  0  0  0  0  0  0  0  0  0
    2.7440    3.8121    0.0000 O   0  0  0  0  0  0  0  0  0  0  0  0
    3.8059    2.8560    0.0000 C   0  0  0  0  0  0  0  0  0  0  0  0
    4.0608    2.0713    0.0000 O   0  0  0  0  0  0  0  0  0  0  0  0
    3.5088    1.4582    0.0000 C   0  0  0  0  0  0  0  0  0  0  0  0
    3.7637    0.6736    0.0000 C   0  0  0  0  0  0  0  0  0  0  0  0
    3.2117    0.0605    0.0000 C   0  0  0  0  0  0  0  0  0  0  0  0
    2.4047    0.2320    0.0000 C   0  0  0  0  0  0  0  0  0  0  0  0
    1.8527   -0.3810    0.0000 C   0  0  0  0  0  0  0  0  0  0  0  0
    2.1076   -1.1657    0.0000 N   0  0  0  0  0  0  0  0  0  0  0  0
    1.5556   -1.7788    0.0000 C   0  0  0  0  0  0  0  0  0  0  0  0
    1.8105   -2.5634    0.0000 O   0  0  0  0  0  0  0  0  0  0  0  0
    0.7486   -1.6072    0.0000 C   0  0  0  0  0  0  0  0  0  0  0  0
    0.1966   -2.2203    0.0000 N   0  0  0  0  0  0  0  0  0  0  0  0
    0.4937   -0.8226    0.0000 N   0  0  0  0  0  0  0  0  0  0  0  0
   -0.3133   -0.6511    0.0000 C   0  0  0  0  0  0  0  0  0  0  0  0
   -0.5682    0.1335    0.0000 O   0  0  0  0  0  0  0  0  0  0  0  0
   -0.8653   -1.2642    0.0000 C   0  0  0  0  0  0  0  0  0  0  0  0
   -1.6903   -1.2642    0.0000 C   0  0  0  0  0  0  0  0  0  0  0  0
   -0.6104   -2.0488    0.0000 C   0  0  0  0  0  0  0  0  0  0  0  0
   -1.2778   -2.5337    0.0000 S   0  0  0  0  0  0  0  0  0  0  0  0
   -1.9452   -2.0488    0.0000 C   0  0  0  0  0  0  0  0  0  0  0  0
   -2.7522   -2.2203    0.0000 C   0  0  0  0  0  0  0  0  0  0  0  0
   -3.3043   -1.6072    0.0000 C   0  0  0  0  0  0  0  0  0  0  0  0
   -3.0493   -0.8226    0.0000 C   0  0  0  0  0  0  0  0  0  0  0  0
   -2.2423   -0.6511    0.0000 C   0  0  1  0  0  0  0  0  0  0  0  0
   -1.9874    0.1335    0.0000 C   0  0  0  0  0  0  0  0  0  0  0  0
   -2.5394    0.7466    0.0000 C   0  0  0  0  0  0  0  0  0  0  0  0
   -3.3464    0.5751    0.0000 O   0  0  0  0  0  0  0  0  0  0  0  0
   -2.2845    1.5312    0.0000 N   0  0  0  0  0  0  0  0  0  0  0  0
   -1.6712   -0.5297    0.0000 H   0  0  0  0  0  0  0  0  0  0  0  0
    1.1404    1.2313    0.0000 H   0  0  0  0  0  0  0  0  0  0  0  0
    1.4839    2.6191    0.0000 H   0  0  0  0  0  0  0  0  0  0  0  0
    4.5219    3.6512    0.0000 H   0  0  0  0  0  0  0  0  0  0  0  0
    4.8525    2.6335    0.0000 H   0  0  0  0  0  0  0  0  0  0  0  0
    4.7731    0.4590    0.0000 H   0  0  0  0  0  0  0  0  0  0  0  0
    3.5306   -0.9210    0.0000 H   0  0  0  0  0  0  0  0  0  0  0  0
    0.8061   -0.1585    0.0000 H   0  0  0  0  0  0  0  0  0  0  0  0
    1.1367   -1.1761    0.0000 H   0  0  0  0  0  0  0  0  0  0  0  0
    3.0706   -1.3704    0.0000 H   0  0  0  0  0  0  0  0  0  0  0  0
    1.1525   -0.0910    0.0000 H   0  0  0  0  0  0  0  0  0  0  0  0
   -3.0828   -3.2379    0.0000 H   0  0  0  0  0  0  0  0  0  0  0  0
   -3.7988   -2.4428    0.0000 H   0  0  0  0  0  0  0  0  0  0  0  0
   -4.3509   -1.8297    0.0000 H   0  0  0  0  0  0  0  0  0  0  0  0
   -4.0202   -0.8120    0.0000 H   0  0  0  0  0  0  0  0  0  0  0  0
   -3.7652   -0.0274    0.0000 H   0  0  0  0  0  0  0  0  0  0  0  0
   -2.7186    0.1950    0.0000 H   0  0  0  0  0  0  0  0  0  0  0  0
   -0.9408    0.3560    0.0000 H   0  0  0  0  0  0  0  0  0  0  0  0
   -1.6567    1.1511    0.0000 H   0  0  0  0  0  0  0  0  0  0  0  0
   -1.3215    1.7359    0.0000 H   0  0  0  0  0  0  0  0  0  0  0  0
   -2.9433    2.2628    0.0000 H   0  0  0  0  0  0  0  0  0  0  0  0
  1  2  2  0  0  0  0
  1 11  1  0  0  0  0
  1 35  1  0  0  0  0
  2  3  1  0  0  0  0
  2  8  1  0  0  0  0
  3  4  1  0  0  0  0
  3 36  1  0  0  0  0
  4  5  2  0  0  0  0
  4  6  1  0  0  0  0
  6  7  1  0  0  0  0
  6 37  1  0  0  0  0
  6 38  1  0  0  0  0
  7  8  1  0  0  0  0
  8  9  2  0  0  0  0
  9 10  1  0  0  0  0
  9 39  1  0  0  0  0
 10 11  2  0  0  0  0
 10 40  1  0  0  0  0
 11 12  1  0  0  0  0
 12 13  1  0  0  0  0
 12 41  1  0  0  0  0
 12 42  1  0  0  0  0
 13 14  1  0  0  0  0
 13 43  1  0  0  0  0
 14 15  2  0  0  0  0
 14 16  1  0  0  0  0
 16 17  2  0  0  0  0
 16 18  1  0  0  0  0
 17 23  1  0  0  0  0
 18 19  1  0  0  0  0
 18 44  1  0  0  0  0
 19 20  2  0  0  0  0
 19 21  1  0  0  0  0
 21 22  1  0  0  0  0
 21 23  2  0  0  0  0
 22 25  2  0  0  0  0
 22 29  1  0  0  0  0
 23 24  1  0  0  0  0
 24 25  1  0  0  0  0
 25 26  1  0  0  0  0
 26 27  1  0  0  0  0
 26 45  1  0  0  0  0
 26 46  1  0  0  0  0
 27 28  1  0  0  0  0
 27 47  1  0  0  0  0
 27 48  1  0  0  0  0
 28 29  1  0  0  0  0
 28 49  1  0  0  0  0
 28 50  1  0  0  0  0
 29 30  1  0  0  0  0
 29 34  1  6  0  0  0
 30 31  1  0  0  0  0
 30 51  1  0  0  0  0
 30 52  1  0  0  0  0
 31 32  2  0  0  0  0
 31 33  1  0  0  0  0
 33 53  1  0  0  0  0
 33 54  1  0  0  0  0
M  END
>  <DRUGBANK_ID>
DB07397

>  <COMMON_NAME>
(5S)-5-(2-amino-2-oxoethyl)-4-oxo-N-[(3-oxo-3,4-dihydro-2H-1,4-benzoxazin-6-yl)methyl]-3,4,5,6,7,8-hexahydro[1]benzothieno[2,3-d]pyrimidine-2-carboxamide

$$$$
