GG5
 OpenBabel10282417072D

 28 30  0  0  0  0  0  0  0  0999 V2000
    0.5645    1.7703    0.0000 C   0  0  0  0  0  0  0  0  0  0  0  0
   -0.1500    2.1828    0.0000 N   0  0  0  0  0  0  0  0  0  0  0  0
   -0.8644    1.7703    0.0000 C   0  0  0  0  0  0  0  0  0  0  0  0
   -0.8644    0.9453    0.0000 C   0  0  0  0  0  0  0  0  0  0  0  0
   -0.1500    0.5328    0.0000 C   0  0  0  0  0  0  0  0  0  0  0  0
    0.5645    0.9453    0.0000 C   0  0  0  0  0  0  0  0  0  0  0  0
   -0.1500   -0.2922    0.0000 C   0  0  0  0  0  0  0  0  0  0  0  0
   -0.8174   -0.7771    0.0000 C   0  0  0  0  0  0  0  0  0  0  0  0
   -0.5625   -1.5618    0.0000 N   0  0  0  0  0  0  0  0  0  0  0  0
    0.2625   -1.5618    0.0000 N   0  0  0  0  0  0  0  0  0  0  0  0
    0.5175   -0.7771    0.0000 C   0  0  0  0  0  0  0  0  0  0  0  0
    1.3021   -0.5222    0.0000 C   0  0  0  0  0  0  0  0  0  0  0  0
    1.4736    0.2848    0.0000 C   0  0  0  0  0  0  0  0  0  0  0  0
    2.2582    0.5397    0.0000 C   0  0  0  0  0  0  0  0  0  0  0  0
    2.8713   -0.0123    0.0000 C   0  0  0  0  0  0  0  0  0  0  0  0
    2.6998   -0.8193    0.0000 C   0  0  0  0  0  0  0  0  0  0  0  0
    1.9152   -1.0742    0.0000 C   0  0  0  0  0  0  0  0  0  0  0  0
    3.6560    0.2426    0.0000 F   0  0  0  0  0  0  0  0  0  0  0  0
    1.4582    2.2863    0.0000 H   0  0  0  0  0  0  0  0  0  0  0  0
   -1.7581    2.2863    0.0000 H   0  0  0  0  0  0  0  0  0  0  0  0
   -1.7581    0.4293    0.0000 H   0  0  0  0  0  0  0  0  0  0  0  0
    1.4582    0.4293    0.0000 H   0  0  0  0  0  0  0  0  0  0  0  0
   -1.7989   -0.4582    0.0000 H   0  0  0  0  0  0  0  0  0  0  0  0
   -1.1412   -2.3583    0.0000 H   0  0  0  0  0  0  0  0  0  0  0  0
    0.7067    0.9753    0.0000 H   0  0  0  0  0  0  0  0  0  0  0  0
    2.4728    1.5491    0.0000 H   0  0  0  0  0  0  0  0  0  0  0  0
    3.4667   -1.5098    0.0000 H   0  0  0  0  0  0  0  0  0  0  0  0
    1.7006   -2.0836    0.0000 H   0  0  0  0  0  0  0  0  0  0  0  0
  1  6  2  0  0  0  0
  1  2  1  0  0  0  0
  1 19  1  0  0  0  0
  2  3  2  0  0  0  0
  3  4  1  0  0  0  0
  3 20  1  0  0  0  0
  4  5  2  0  0  0  0
  4 21  1  0  0  0  0
  5  6  1  0  0  0  0
  5  7  1  0  0  0  0
  6 22  1  0  0  0  0
  7 11  1  0  0  0  0
  7  8  2  0  0  0  0
  8  9  1  0  0  0  0
  8 23  1  0  0  0  0
  9 10  1  0  0  0  0
  9 24  1  0  0  0  0
 10 11  2  0  0  0  0
 11 12  1  0  0  0  0
 12 13  2  0  0  0  0
 12 17  1  0  0  0  0
 13 14  1  0  0  0  0
 13 25  1  0  0  0  0
 14 15  2  0  0  0  0
 14 26  1  0  0  0  0
 15 18  1  0  0  0  0
 15 16  1  0  0  0  0
 16 17  2  0  0  0  0
 16 27  1  0  0  0  0
 17 28  1  0  0  0  0
M  END
>  <DRUGBANK_ID>
DB07829

>  <COMMON_NAME>
4-[3-(4-FLUOROPHENYL)-1H-PYRAZOL-4-YL]PYRIDINE

$$$$
