
 OpenBabel10282417072D

 40 41  0  0  0  0  0  0  0  0999 V2000
    0.1122   -0.3596    0.0000 C   0  0  3  0  0  0  0  0  0  0  0  0
    0.9368   -0.3596    0.0000 C   0  0  3  0  0  0  0  0  0  0  0  0
    0.5245    0.3550    0.0000 C   0  0  0  0  0  0  0  0  0  0  0  0
   -0.3000   -1.0743    0.0000 C   0  0  0  0  0  0  0  0  0  0  0  0
   -1.1247   -1.0696    0.0000 N   0  0  0  0  0  0  0  0  0  0  0  0
   -0.3046    0.3550    0.0000 C   0  0  0  0  0  0  0  0  0  0  0  0
    0.1076   -1.7980    0.0000 O   0  0  0  0  0  0  0  0  0  0  0  0
    1.6514   -0.7719    0.0000 C   0  0  0  0  0  0  0  0  0  0  0  0
    2.3661   -0.3596    0.0000 N   0  0  0  0  0  0  0  0  0  0  0  0
   -1.5414   -1.7842    0.0000 C   0  0  0  0  0  0  0  0  0  0  0  0
   -1.5369   -0.3550    0.0000 C   0  0  0  0  0  0  0  0  0  0  0  0
    0.1076    1.0833    0.0000 C   0  0  0  0  0  0  0  0  0  0  0  0
   -1.1293    0.3687    0.0000 C   0  0  0  0  0  0  0  0  0  0  0  0
   -2.3661   -1.7842    0.0000 C   0  0  0  0  0  0  0  0  0  0  0  0
   -2.3615   -0.3459    0.0000 C   0  0  0  0  0  0  0  0  0  0  0  0
   -1.5552    1.0696    0.0000 C   0  0  0  0  0  0  0  0  0  0  0  0
   -0.3138    1.7980    0.0000 C   0  0  0  0  0  0  0  0  0  0  0  0
   -1.1430    1.7888    0.0000 C   0  0  0  0  0  0  0  0  0  0  0  0
    0.6600   -1.3932    0.0000 H   0  0  0  0  0  0  0  0  0  0  0  0
    0.5245    1.4250    0.0000 H   0  0  0  0  0  0  0  0  0  0  0  0
    1.5581    0.6318    0.0000 H   0  0  0  0  0  0  0  0  0  0  0  0
    1.6514   -1.8419    0.0000 H   0  0  0  0  0  0  0  0  0  0  0  0
    2.5779   -1.3071    0.0000 H   0  0  0  0  0  0  0  0  0  0  0  0
    3.2493   -0.8699    0.0000 H   0  0  0  0  0  0  0  0  0  0  0  0
    2.3665    0.6604    0.0000 H   0  0  0  0  0  0  0  0  0  0  0  0
   -1.0084   -2.7120    0.0000 H   0  0  0  0  0  0  0  0  0  0  0  0
   -2.0774   -2.7103    0.0000 H   0  0  0  0  0  0  0  0  0  0  0  0
   -0.9966    0.5686    0.0000 H   0  0  0  0  0  0  0  0  0  0  0  0
   -2.0641    0.5761    0.0000 H   0  0  0  0  0  0  0  0  0  0  0  0
    1.1396    1.0924    0.0000 H   0  0  0  0  0  0  0  0  0  0  0  0
   -1.6427   -0.5265    0.0000 H   0  0  0  0  0  0  0  0  0  0  0  0
   -2.9011   -0.8576    0.0000 H   0  0  0  0  0  0  0  0  0  0  0  0
   -2.9011   -2.7108    0.0000 H   0  0  0  0  0  0  0  0  0  0  0  0
   -3.4361   -1.7842    0.0000 H   0  0  0  0  0  0  0  0  0  0  0  0
   -2.8862    0.5866    0.0000 H   0  0  0  0  0  0  0  0  0  0  0  0
   -2.9067   -1.2666    0.0000 H   0  0  0  0  0  0  0  0  0  0  0  0
   -3.4314   -0.3341    0.0000 H   0  0  0  0  0  0  0  0  0  0  0  0
   -2.5871    1.0564    0.0000 H   0  0  0  0  0  0  0  0  0  0  0  0
    0.1931    2.6969    0.0000 H   0  0  0  0  0  0  0  0  0  0  0  0
   -1.6654    2.6788    0.0000 H   0  0  0  0  0  0  0  0  0  0  0  0
  1  4  1  0  0  0  0
  2  1  1  0  0  0  0
  2  8  1  0  0  0  0
  2 19  1  0  0  0  0
  3  1  1  0  0  0  0
  3  2  1  0  0  0  0
  3 20  1  0  0  0  0
  3 21  1  0  0  0  0
  5  4  1  0  0  0  0
  6  1  1  0  0  0  0
  7  4  2  0  0  0  0
  8 22  1  0  0  0  0
  8 23  1  0  0  0  0
  9  8  1  0  0  0  0
  9 24  1  0  0  0  0
  9 25  1  0  0  0  0
 10  5  1  0  0  0  0
 10 26  1  0  0  0  0
 10 27  1  0  0  0  0
 11  5  1  0  0  0  0
 11 28  1  0  0  0  0
 11 29  1  0  0  0  0
 12  6  2  0  0  0  0
 12 30  1  0  0  0  0
 13  6  1  0  0  0  0
 13 31  1  0  0  0  0
 14 10  1  0  0  0  0
 14 32  1  0  0  0  0
 14 33  1  0  0  0  0
 14 34  1  0  0  0  0
 15 11  1  0  0  0  0
 15 35  1  0  0  0  0
 15 36  1  0  0  0  0
 15 37  1  0  0  0  0
 16 13  2  0  0  0  0
 16 38  1  0  0  0  0
 17 12  1  0  0  0  0
 17 18  2  0  0  0  0
 17 39  1  0  0  0  0
 18 16  1  0  0  0  0
 18 40  1  0  0  0  0
M  END
>  <DRUGBANK_ID>
DB04896

>  <COMMON_NAME>
Milnacipran

>  <CAS_NUMBER>
92623-85-3

>  <UNII>
G56VK1HF36

>  <SYNONYMS>
(+-)-Milnacipran; Midalcipran; Milnacipran; Milnacipranum

$$$$
