
 OpenBabel10282417072D

 59 63  0  0  0  0  0  0  0  0999 V2000
    8.4295    2.4477    0.0000 C   0  0  0  0  0  0  0  0  0  0  0  0
    7.6061    2.3956    0.0000 N   0  0  0  0  0  0  0  0  0  0  0  0
    7.1493    3.0826    0.0000 C   0  0  0  0  0  0  0  0  0  0  0  0
    7.2396    1.6565    0.0000 C   0  0  0  0  0  0  0  0  0  0  0  0
    6.4162    1.6045    0.0000 C   0  0  0  0  0  0  0  0  0  0  0  0
    6.0496    0.8654    0.0000 N   0  0  0  0  0  0  0  0  0  0  0  0
    5.2362    0.7275    0.0000 C   0  0  0  0  0  0  0  0  0  0  0  0
    5.1160   -0.0887    0.0000 C   0  0  0  0  0  0  0  0  0  0  0  0
    5.8551   -0.4553    0.0000 C   0  0  0  0  0  0  0  0  0  0  0  0
    6.4321    0.1344    0.0000 C   0  0  0  0  0  0  0  0  0  0  0  0
    7.2312   -0.0705    0.0000 C   0  0  0  0  0  0  0  0  0  0  0  0
    7.4534   -0.8650    0.0000 C   0  0  0  0  0  0  0  0  0  0  0  0
    6.8763   -1.4547    0.0000 C   0  0  0  0  0  0  0  0  0  0  0  0
    6.0772   -1.2498    0.0000 C   0  0  0  0  0  0  0  0  0  0  0  0
    8.2525   -1.0699    0.0000 Cl  0  0  0  0  0  0  0  0  0  0  0  0
    4.3850   -0.4711    0.0000 C   0  0  0  0  0  0  0  0  0  0  0  0
    4.3507   -1.2954    0.0000 O   0  0  0  0  0  0  0  0  0  0  0  0
    3.6883   -0.0293    0.0000 N   0  0  0  0  0  0  0  0  0  0  0  0
    2.9573   -0.4118    0.0000 C   0  0  0  0  0  0  0  0  0  0  0  0
    2.2606    0.0300    0.0000 C   0  0  0  0  0  0  0  0  0  0  0  0
    2.2948    0.8543    0.0000 C   0  0  0  0  0  0  0  0  0  0  0  0
    3.0258    1.2368    0.0000 C   0  0  0  0  0  0  0  0  0  0  0  0
    3.7225    0.7950    0.0000 C   0  0  0  0  0  0  0  0  0  0  0  0
    1.5279    0.5504    0.0000 C   0  0  0  0  0  0  0  0  0  0  0  0
    1.2406   -0.2230    0.0000 C   0  0  0  0  0  0  0  0  0  0  0  0
    0.4272   -0.3609    0.0000 C   0  0  0  0  0  0  0  0  0  0  0  0
   -0.0989    0.2746    0.0000 C   0  0  0  0  0  0  0  0  0  0  0  0
    0.1884    1.0480    0.0000 C   0  0  0  0  0  0  0  0  0  0  0  0
    1.0018    1.1859    0.0000 C   0  0  0  0  0  0  0  0  0  0  0  0
    1.4436    1.8826    0.0000 C   0  0  0  0  0  0  0  0  0  0  0  0
    2.2428    1.6777    0.0000 O   0  0  0  0  0  0  0  0  0  0  0  0
    9.0219    1.5567    0.0000 H   0  0  0  0  0  0  0  0  0  0  0  0
    8.9049    3.4063    0.0000 H   0  0  0  0  0  0  0  0  0  0  0  0
    9.4974    2.5153    0.0000 H   0  0  0  0  0  0  0  0  0  0  0  0
    7.6247    4.0412    0.0000 H   0  0  0  0  0  0  0  0  0  0  0  0
    6.0814    3.0150    0.0000 H   0  0  0  0  0  0  0  0  0  0  0  0
    6.5568    3.9736    0.0000 H   0  0  0  0  0  0  0  0  0  0  0  0
    7.8320    0.7655    0.0000 H   0  0  0  0  0  0  0  0  0  0  0  0
    6.7641    0.6980    0.0000 H   0  0  0  0  0  0  0  0  0  0  0  0
    5.8238    2.4956    0.0000 H   0  0  0  0  0  0  0  0  0  0  0  0
    5.3483    1.5370    0.0000 H   0  0  0  0  0  0  0  0  0  0  0  0
    4.4986    1.4493    0.0000 H   0  0  0  0  0  0  0  0  0  0  0  0
    7.9530    0.6671    0.0000 H   0  0  0  0  0  0  0  0  0  0  0  0
    7.1541   -2.4486    0.0000 H   0  0  0  0  0  0  0  0  0  0  0  0
    5.3554   -1.9874    0.0000 H   0  0  0  0  0  0  0  0  0  0  0  0
    2.9129   -1.4809    0.0000 H   0  0  0  0  0  0  0  0  0  0  0  0
    2.0092   -0.9079    0.0000 H   0  0  0  0  0  0  0  0  0  0  0  0
    1.3126   -0.4661    0.0000 H   0  0  0  0  0  0  0  0  0  0  0  0
    1.3569    0.6030    0.0000 H   0  0  0  0  0  0  0  0  0  0  0  0
    3.0702    2.3059    0.0000 H   0  0  0  0  0  0  0  0  0  0  0  0
    3.9739    1.7329    0.0000 H   0  0  0  0  0  0  0  0  0  0  0  0
    4.6705    1.2911    0.0000 H   0  0  0  0  0  0  0  0  0  0  0  0
    4.6262    0.2220    0.0000 H   0  0  0  0  0  0  0  0  0  0  0  0
    1.8987   -1.0179    0.0000 H   0  0  0  0  0  0  0  0  0  0  0  0
    0.0678   -1.3283    0.0000 H   0  0  0  0  0  0  0  0  0  0  0  0
   -1.1164    0.1021    0.0000 H   0  0  0  0  0  0  0  0  0  0  0  0
   -0.4697    1.8429    0.0000 H   0  0  0  0  0  0  0  0  0  0  0  0
    1.0494    2.8773    0.0000 H   0  0  0  0  0  0  0  0  0  0  0  0
    2.1509    2.6855    0.0000 H   0  0  0  0  0  0  0  0  0  0  0  0
  1  2  1  0  0  0  0
  1 32  1  0  0  0  0
  1 33  1  0  0  0  0
  1 34  1  0  0  0  0
  2  3  1  0  0  0  0
  2  4  1  0  0  0  0
  3 35  1  0  0  0  0
  3 36  1  0  0  0  0
  3 37  1  0  0  0  0
  4  5  1  0  0  0  0
  4 38  1  0  0  0  0
  4 39  1  0  0  0  0
  5  6  1  0  0  0  0
  5 40  1  0  0  0  0
  5 41  1  0  0  0  0
  6  7  1  0  0  0  0
  6 10  1  0  0  0  0
  7  8  2  0  0  0  0
  7 42  1  0  0  0  0
  8  9  1  0  0  0  0
  8 16  1  0  0  0  0
  9 10  1  0  0  0  0
  9 14  2  0  0  0  0
 10 11  2  0  0  0  0
 11 12  1  0  0  0  0
 11 43  1  0  0  0  0
 12 13  2  0  0  0  0
 12 15  1  0  0  0  0
 13 14  1  0  0  0  0
 13 44  1  0  0  0  0
 14 45  1  0  0  0  0
 16 17  2  0  0  0  0
 16 18  1  0  0  0  0
 18 19  1  0  0  0  0
 18 23  1  0  0  0  0
 19 20  1  0  0  0  0
 19 46  1  0  0  0  0
 19 47  1  0  0  0  0
 20 21  1  0  0  0  0
 20 48  1  0  0  0  0
 20 49  1  0  0  0  0
 21 22  1  0  0  0  0
 21 24  1  0  0  0  0
 21 31  1  0  0  0  0
 22 23  1  0  0  0  0
 22 50  1  0  0  0  0
 22 51  1  0  0  0  0
 23 52  1  0  0  0  0
 23 53  1  0  0  0  0
 24 25  2  0  0  0  0
 24 29  1  0  0  0  0
 25 26  1  0  0  0  0
 25 54  1  0  0  0  0
 26 27  2  0  0  0  0
 26 55  1  0  0  0  0
 27 28  1  0  0  0  0
 27 56  1  0  0  0  0
 28 29  2  0  0  0  0
 28 57  1  0  0  0  0
 29 30  1  0  0  0  0
 30 31  1  0  0  0  0
 30 58  1  0  0  0  0
 30 59  1  0  0  0  0
M  END
>  <DRUGBANK_ID>
DB12721

>  <COMMON_NAME>
RO-5028442

>  <CAS_NUMBER>
920022-47-5

>  <UNII>
LZ0EU1YHCK

$$$$
