
 OpenBabel10282417072D

 50 54  0  0  0  0  0  0  0  0999 V2000
    0.4916    0.8237    0.0000 N   0  0  0  0  0  0  0  0  0  0  0  0
    0.9765    0.1563    0.0000 C   0  0  0  0  0  0  0  0  0  0  0  0
    0.4916   -0.5112    0.0000 C   0  0  0  0  0  0  0  0  0  0  0  0
   -0.2931   -0.2562    0.0000 C   0  0  0  0  0  0  0  0  0  0  0  0
   -1.0075   -0.6687    0.0000 C   0  0  0  0  0  0  0  0  0  0  0  0
   -1.7220   -0.2562    0.0000 C   0  0  0  0  0  0  0  0  0  0  0  0
   -1.7220    0.5688    0.0000 C   0  0  0  0  0  0  0  0  0  0  0  0
   -1.0075    0.9813    0.0000 C   0  0  0  0  0  0  0  0  0  0  0  0
   -0.2931    0.5688    0.0000 C   0  0  0  0  0  0  0  0  0  0  0  0
   -2.5066   -0.5112    0.0000 N   0  0  0  0  0  0  0  0  0  0  0  0
   -2.5066    0.8237    0.0000 C   0  0  0  0  0  0  0  0  0  0  0  0
   -2.9915    0.1563    0.0000 C   0  0  0  0  0  0  0  0  0  0  0  0
    0.7110   -1.3064    0.0000 C   0  0  0  0  0  0  0  0  0  0  0  0
    1.4697   -1.6307    0.0000 C   0  0  0  0  0  0  0  0  0  0  0  0
    2.1961   -1.2397    0.0000 C   0  0  0  0  0  0  0  0  0  0  0  0
    2.3435   -0.4280    0.0000 C   0  0  0  0  0  0  0  0  0  0  0  0
    1.8007    0.1933    0.0000 C   0  0  0  0  0  0  0  0  0  0  0  0
    3.0280    0.7179    0.0000 N   0  0  0  0  0  0  0  0  0  0  0  0
    2.2238    0.9015    0.0000 N   0  0  0  0  0  0  0  0  0  0  0  0
    3.1021   -0.1038    0.0000 C   0  0  0  0  0  0  0  0  0  0  0  0
   -3.8165    0.1563    0.0000 O   0  0  0  0  0  0  0  0  0  0  0  0
   -3.1197    1.3757    0.0000 C   0  0  0  0  0  0  0  0  0  0  0  0
   -2.3351    1.6307    0.0000 C   0  0  0  0  0  0  0  0  0  0  0  0
    3.8165   -0.5163    0.0000 C   0  0  0  0  0  0  0  0  0  0  0  0
   -2.7616   -1.2958    0.0000 C   0  0  0  0  0  0  0  0  0  0  0  0
   -3.5685   -1.4673    0.0000 C   0  0  0  0  0  0  0  0  0  0  0  0
    0.7959    1.7600    0.0000 H   0  0  0  0  0  0  0  0  0  0  0  0
   -1.0075   -1.7007    0.0000 H   0  0  0  0  0  0  0  0  0  0  0  0
   -1.0075    2.0133    0.0000 H   0  0  0  0  0  0  0  0  0  0  0  0
   -0.0948   -2.0104    0.0000 H   0  0  0  0  0  0  0  0  0  0  0  0
   -0.3138   -0.9986    0.0000 H   0  0  0  0  0  0  0  0  0  0  0  0
    1.5178   -2.6996    0.0000 H   0  0  0  0  0  0  0  0  0  0  0  0
    2.4004   -2.1587    0.0000 H   0  0  0  0  0  0  0  0  0  0  0  0
    3.0617   -1.8686    0.0000 H   0  0  0  0  0  0  0  0  0  0  0  0
    3.1892   -0.8414    0.0000 H   0  0  0  0  0  0  0  0  0  0  0  0
    3.7694    1.3657    0.0000 H   0  0  0  0  0  0  0  0  0  0  0  0
   -2.8973    2.4223    0.0000 H   0  0  0  0  0  0  0  0  0  0  0  0
   -4.1373    1.0450    0.0000 H   0  0  0  0  0  0  0  0  0  0  0  0
   -3.9149    2.0916    0.0000 H   0  0  0  0  0  0  0  0  0  0  0  0
   -1.3175    1.9614    0.0000 H   0  0  0  0  0  0  0  0  0  0  0  0
   -3.1303    2.3466    0.0000 H   0  0  0  0  0  0  0  0  0  0  0  0
   -2.1127    2.6773    0.0000 H   0  0  0  0  0  0  0  0  0  0  0  0
    3.8165   -1.5863    0.0000 H   0  0  0  0  0  0  0  0  0  0  0  0
    4.7432    0.0187    0.0000 H   0  0  0  0  0  0  0  0  0  0  0  0
    4.7431   -1.0513    0.0000 H   0  0  0  0  0  0  0  0  0  0  0  0
   -2.0457   -2.0910    0.0000 H   0  0  0  0  0  0  0  0  0  0  0  0
   -1.7150   -1.0734    0.0000 H   0  0  0  0  0  0  0  0  0  0  0  0
   -4.2845   -0.6721    0.0000 H   0  0  0  0  0  0  0  0  0  0  0  0
   -3.8992   -2.4849    0.0000 H   0  0  0  0  0  0  0  0  0  0  0  0
   -4.6151   -1.6898    0.0000 H   0  0  0  0  0  0  0  0  0  0  0  0
  1  2  1  0  0  0  0
  1  9  1  0  0  0  0
  1 27  1  0  0  0  0
  2  3  2  0  0  0  0
  3  4  1  0  0  0  0
  4  5  1  0  0  0  0
  4  9  2  0  0  0  0
  5  6  2  0  0  0  0
  5 28  1  0  0  0  0
  6  7  1  0  0  0  0
  7  8  2  0  0  0  0
  8  9  1  0  0  0  0
  8 29  1  0  0  0  0
 10 12  1  0  0  0  0
 10  6  1  0  0  0  0
 10 25  1  0  0  0  0
 11 12  1  0  0  0  0
 11  7  1  0  0  0  0
 11 22  1  0  0  0  0
 11 23  1  0  0  0  0
 12 21  2  0  0  0  0
 13 14  1  0  0  0  0
 13  3  1  0  0  0  0
 13 30  1  0  0  0  0
 13 31  1  0  0  0  0
 14 15  1  0  0  0  0
 14 32  1  0  0  0  0
 14 33  1  0  0  0  0
 15 16  1  0  0  0  0
 15 34  1  0  0  0  0
 15 35  1  0  0  0  0
 16 17  1  0  0  0  0
 17  2  1  0  0  0  0
 18 19  1  0  0  0  0
 18 20  1  0  0  0  0
 18 36  1  0  0  0  0
 19 17  2  0  0  0  0
 20 16  2  0  0  0  0
 20 24  1  0  0  0  0
 22 37  1  0  0  0  0
 22 38  1  0  0  0  0
 22 39  1  0  0  0  0
 23 40  1  0  0  0  0
 23 41  1  0  0  0  0
 23 42  1  0  0  0  0
 24 43  1  0  0  0  0
 24 44  1  0  0  0  0
 24 45  1  0  0  0  0
 25 26  1  0  0  0  0
 25 46  1  0  0  0  0
 25 47  1  0  0  0  0
 26 48  1  0  0  0  0
 26 49  1  0  0  0  0
 26 50  1  0  0  0  0
M  END
>  <DRUGBANK_ID>
DB07266

>  <COMMON_NAME>
AKI-001

>  <CAS_NUMBER>
925218-37-7

>  <UNII>
LM7NL857V1

$$$$
