SM5
 OpenBabel10282417072D

 51 55  0  0  0  0  0  0  0  0999 V2000
    2.0216    0.2701    0.0000 C   0  0  0  0  0  0  0  0  0  0  0  0
    1.2011    0.3563    0.0000 N   0  0  0  0  0  0  0  0  0  0  0  0
   -1.5336   -1.5712    0.0000 C   0  0  0  0  0  0  0  0  0  0  0  0
   -0.8191   -1.1587    0.0000 C   0  0  0  0  0  0  0  0  0  0  0  0
   -0.8191   -0.3337    0.0000 C   0  0  0  0  0  0  0  0  0  0  0  0
   -1.5336    0.0788    0.0000 C   0  0  0  0  0  0  0  0  0  0  0  0
   -2.2480   -0.3337    0.0000 C   0  0  0  0  0  0  0  0  0  0  0  0
   -2.2480   -1.1587    0.0000 C   0  0  0  0  0  0  0  0  0  0  0  0
   -0.4600    2.2583    0.0000 C   0  0  0  0  0  0  0  0  0  0  0  0
    0.7886    1.0708    0.0000 N   0  0  0  0  0  0  0  0  0  0  0  0
   -1.0730    2.8103    0.0000 C   0  0  0  0  0  0  0  0  0  0  0  0
   -2.0292    1.7484    0.0000 C   0  0  0  0  0  0  0  0  0  0  0  0
    3.1776   -0.5698    0.0000 C   0  0  0  0  0  0  0  0  0  0  0  0
   -1.4161    1.1964    0.0000 C   0  0  0  0  0  0  0  0  0  0  0  0
    0.6491   -0.2568    0.0000 C   0  0  0  0  0  0  0  0  0  0  0  0
   -0.6315    1.4513    0.0000 C   0  0  0  0  0  0  0  0  0  0  0  0
   -0.1046    0.0788    0.0000 C   0  0  0  0  0  0  0  0  0  0  0  0
    2.5065    0.9375    0.0000 C   0  0  0  0  0  0  0  0  0  0  0  0
    3.3270    0.8513    0.0000 C   0  0  0  0  0  0  0  0  0  0  0  0
   -0.0184    0.8993    0.0000 C   0  0  0  0  0  0  0  0  0  0  0  0
   -1.8577    2.5554    0.0000 N   0  0  0  0  0  0  0  0  0  0  0  0
    3.6625    0.0976    0.0000 N   0  0  0  0  0  0  0  0  0  0  0  0
    2.3571   -0.4836    0.0000 C   0  0  0  0  0  0  0  0  0  0  0  0
   -3.0327   -0.0788    0.0000 C   0  0  0  0  0  0  0  0  0  0  0  0
   -3.5176   -0.7462    0.0000 C   0  0  0  0  0  0  0  0  0  0  0  0
   -3.0327   -1.4136    0.0000 C   0  0  0  0  0  0  0  0  0  0  0  0
   -3.2876   -2.1983    0.0000 N   0  0  0  0  0  0  0  0  0  0  0  0
   -4.0946   -2.3698    0.0000 O   0  0  0  0  0  0  0  0  0  0  0  0
    3.0857    0.1582    0.0000 H   0  0  0  0  0  0  0  0  0  0  0  0
   -1.5336   -2.6032    0.0000 H   0  0  0  0  0  0  0  0  0  0  0  0
    0.0746   -1.6747    0.0000 H   0  0  0  0  0  0  0  0  0  0  0  0
   -1.5336    1.1108    0.0000 H   0  0  0  0  0  0  0  0  0  0  0  0
    0.5215    2.5772    0.0000 H   0  0  0  0  0  0  0  0  0  0  0  0
   -0.8584    3.8197    0.0000 H   0  0  0  0  0  0  0  0  0  0  0  0
   -3.0107    1.4295    0.0000 H   0  0  0  0  0  0  0  0  0  0  0  0
    3.6128   -1.5473    0.0000 H   0  0  0  0  0  0  0  0  0  0  0  0
    2.5487   -1.4355    0.0000 H   0  0  0  0  0  0  0  0  0  0  0  0
   -1.6307    0.1870    0.0000 H   0  0  0  0  0  0  0  0  0  0  0  0
    0.8637   -1.2662    0.0000 H   0  0  0  0  0  0  0  0  0  0  0  0
    2.0713    1.9150    0.0000 H   0  0  0  0  0  0  0  0  0  0  0  0
    1.4424    1.0493    0.0000 H   0  0  0  0  0  0  0  0  0  0  0  0
    3.9559    1.7169    0.0000 H   0  0  0  0  0  0  0  0  0  0  0  0
    4.3911    0.7394    0.0000 H   0  0  0  0  0  0  0  0  0  0  0  0
    4.6769   -0.0091    0.0000 H   0  0  0  0  0  0  0  0  0  0  0  0
    1.7282   -1.3492    0.0000 H   0  0  0  0  0  0  0  0  0  0  0  0
    1.2930   -0.3717    0.0000 H   0  0  0  0  0  0  0  0  0  0  0  0
   -3.3634    0.9388    0.0000 H   0  0  0  0  0  0  0  0  0  0  0  0
   -4.0895    0.0886    0.0000 H   0  0  0  0  0  0  0  0  0  0  0  0
   -4.5876   -0.7462    0.0000 H   0  0  0  0  0  0  0  0  0  0  0  0
   -4.0034   -1.6996    0.0000 H   0  0  0  0  0  0  0  0  0  0  0  0
   -4.7215   -1.6734    0.0000 H   0  0  0  0  0  0  0  0  0  0  0  0
  1 29  1  0  0  0  0
  2  1  1  0  0  0  0
  2 15  1  0  0  0  0
  3 30  1  0  0  0  0
  4  3  1  0  0  0  0
  4 31  1  0  0  0  0
  5  4  2  0  0  0  0
  6  7  2  0  0  0  0
  6  5  1  0  0  0  0
  6 32  1  0  0  0  0
  7  8  1  0  0  0  0
  8 26  1  0  0  0  0
  8  3  2  0  0  0  0
  9 33  1  0  0  0  0
 10 20  2  0  0  0  0
 10  2  1  0  0  0  0
 11  9  1  0  0  0  0
 11 34  1  0  0  0  0
 12 14  2  0  0  0  0
 12 21  1  0  0  0  0
 12 35  1  0  0  0  0
 13 36  1  0  0  0  0
 13 37  1  0  0  0  0
 14 16  1  0  0  0  0
 14 38  1  0  0  0  0
 15 39  1  0  0  0  0
 16 20  1  0  0  0  0
 16  9  2  0  0  0  0
 17 15  2  0  0  0  0
 17  5  1  0  0  0  0
 18 19  1  0  0  0  0
 18  1  1  0  0  0  0
 18 40  1  0  0  0  0
 18 41  1  0  0  0  0
 19 42  1  0  0  0  0
 19 43  1  0  0  0  0
 20 17  1  0  0  0  0
 21 11  2  0  0  0  0
 22 13  1  0  0  0  0
 22 19  1  0  0  0  0
 22 44  1  0  0  0  0
 23 13  1  0  0  0  0
 23  1  1  0  0  0  0
 23 45  1  0  0  0  0
 23 46  1  0  0  0  0
 24  7  1  0  0  0  0
 24 25  1  0  0  0  0
 24 47  1  0  0  0  0
 24 48  1  0  0  0  0
 25 26  1  0  0  0  0
 25 49  1  0  0  0  0
 25 50  1  0  0  0  0
 26 27  2  0  0  0  0
 27 28  1  0  0  0  0
 28 51  1  0  0  0  0
M  END
>  <DRUGBANK_ID>
DB08553

>  <COMMON_NAME>
(1E)-5-(1-piperidin-4-yl-3-pyridin-4-yl-1H-pyrazol-4-yl)-2,3-dihydro-1H-inden-1-one oxime

$$$$
