
 OpenBabel10282417072D

 44 43  0  0  0  0  0  0  0  0999 V2000
    1.7605    1.8414    0.0000 C   0  0  0  0  0  0  0  0  0  0  0  0
    2.4750    1.4289    0.0000 C   0  0  0  0  0  0  0  0  0  0  0  0
    3.1895    1.8414    0.0000 C   0  0  0  0  0  0  0  0  0  0  0  0
    3.9039    1.4289    0.0000 C   0  0  0  0  0  0  0  0  0  0  0  0
    4.6184    1.8414    0.0000 C   0  0  0  0  0  0  0  0  0  0  0  0
    5.3329    1.4289    0.0000 C   0  0  0  0  0  0  0  0  0  0  0  0
    6.0474    1.8414    0.0000 C   0  0  0  0  0  0  0  0  0  0  0  0
    6.7618    1.4289    0.0000 C   0  0  0  0  0  0  0  0  0  0  0  0
    7.4763    1.8414    0.0000 C   0  0  0  0  0  0  0  0  0  0  0  0
    7.8888    1.1270    0.0000 F   0  0  0  0  0  0  0  0  0  0  0  0
    7.0638    2.5559    0.0000 F   0  0  0  0  0  0  0  0  0  0  0  0
    8.1908    2.2539    0.0000 C   0  0  0  0  0  0  0  0  0  0  0  0
    8.6033    1.5395    0.0000 F   0  0  0  0  0  0  0  0  0  0  0  0
    7.7783    2.9684    0.0000 F   0  0  0  0  0  0  0  0  0  0  0  0
    8.9052    2.6664    0.0000 C   0  0  0  0  0  0  0  0  0  0  0  0
    9.3177    1.9520    0.0000 F   0  0  0  0  0  0  0  0  0  0  0  0
    8.4927    3.3809    0.0000 F   0  0  0  0  0  0  0  0  0  0  0  0
    9.6197    3.0789    0.0000 C   0  0  0  0  0  0  0  0  0  0  0  0
   10.0322    2.3645    0.0000 F   0  0  0  0  0  0  0  0  0  0  0  0
    9.2072    3.7934    0.0000 F   0  0  0  0  0  0  0  0  0  0  0  0
   10.3342    3.4914    0.0000 C   0  0  0  0  0  0  0  0  0  0  0  0
   10.7467    2.7770    0.0000 F   0  0  0  0  0  0  0  0  0  0  0  0
    9.9217    4.2059    0.0000 F   0  0  0  0  0  0  0  0  0  0  0  0
   11.0487    3.9039    0.0000 C   0  0  0  0  0  0  0  0  0  0  0  0
   11.7631    4.3164    0.0000 F   0  0  0  0  0  0  0  0  0  0  0  0
   11.4612    3.1895    0.0000 F   0  0  0  0  0  0  0  0  0  0  0  0
   10.6362    4.6184    0.0000 F   0  0  0  0  0  0  0  0  0  0  0  0
    1.7605    2.9114    0.0000 H   0  0  0  0  0  0  0  0  0  0  0  0
    0.8339    1.3064    0.0000 H   0  0  0  0  0  0  0  0  0  0  0  0
    0.8338    2.3764    0.0000 H   0  0  0  0  0  0  0  0  0  0  0  0
    2.4750    0.3589    0.0000 H   0  0  0  0  0  0  0  0  0  0  0  0
    3.4016    0.8939    0.0000 H   0  0  0  0  0  0  0  0  0  0  0  0
    3.1895    2.9114    0.0000 H   0  0  0  0  0  0  0  0  0  0  0  0
    4.1162    2.3764    0.0000 H   0  0  0  0  0  0  0  0  0  0  0  0
    3.9039    0.3589    0.0000 H   0  0  0  0  0  0  0  0  0  0  0  0
    4.8305    0.8939    0.0000 H   0  0  0  0  0  0  0  0  0  0  0  0
    4.6184    2.9114    0.0000 H   0  0  0  0  0  0  0  0  0  0  0  0
    5.5450    2.3764    0.0000 H   0  0  0  0  0  0  0  0  0  0  0  0
    5.3329    0.3589    0.0000 H   0  0  0  0  0  0  0  0  0  0  0  0
    6.2595    0.8939    0.0000 H   0  0  0  0  0  0  0  0  0  0  0  0
    6.0474    2.9114    0.0000 H   0  0  0  0  0  0  0  0  0  0  0  0
    6.9741    2.3764    0.0000 H   0  0  0  0  0  0  0  0  0  0  0  0
    6.7618    0.3589    0.0000 H   0  0  0  0  0  0  0  0  0  0  0  0
    7.6884    0.8939    0.0000 H   0  0  0  0  0  0  0  0  0  0  0  0
  1  2  1  0  0  0  0
  1 28  1  0  0  0  0
  1 29  1  0  0  0  0
  1 30  1  0  0  0  0
  2  3  1  0  0  0  0
  2 31  1  0  0  0  0
  2 32  1  0  0  0  0
  3  4  1  0  0  0  0
  3 33  1  0  0  0  0
  3 34  1  0  0  0  0
  4  5  1  0  0  0  0
  4 35  1  0  0  0  0
  4 36  1  0  0  0  0
  5  6  1  0  0  0  0
  5 37  1  0  0  0  0
  5 38  1  0  0  0  0
  6  7  1  0  0  0  0
  6 39  1  0  0  0  0
  6 40  1  0  0  0  0
  7  8  1  0  0  0  0
  7 41  1  0  0  0  0
  7 42  1  0  0  0  0
  8  9  1  0  0  0  0
  8 43  1  0  0  0  0
  8 44  1  0  0  0  0
  9 10  1  0  0  0  0
  9 11  1  0  0  0  0
  9 12  1  0  0  0  0
 12 13  1  0  0  0  0
 12 14  1  0  0  0  0
 12 15  1  0  0  0  0
 15 16  1  0  0  0  0
 15 17  1  0  0  0  0
 15 18  1  0  0  0  0
 18 19  1  0  0  0  0
 18 20  1  0  0  0  0
 18 21  1  0  0  0  0
 21 22  1  0  0  0  0
 21 23  1  0  0  0  0
 21 24  1  0  0  0  0
 24 25  1  0  0  0  0
 24 26  1  0  0  0  0
 24 27  1  0  0  0  0
M  END
>  <DRUGBANK_ID>
DB17823

>  <COMMON_NAME>
Perfluorohexyloctane

>  <CAS_NUMBER>
133331-77-8

>  <UNII>
7VYX4ELWQM

>  <SYNONYMS>
1-(perfluorohexyl)octane; F6H8; NOV03; Tetradecane, 1,1,1,2,2,3,3,4,4,5,5,6,6-tridecafluoro-

$$$$
