
 OpenBabel10282417072D

 15 15  0  0  0  0  0  0  0  0999 V2000
    0.7103   -0.8066    0.0000 C   0  0  0  0  0  0  0  0  0  0  0  0
    0.7103    0.0197    0.0000 C   0  0  0  0  0  0  0  0  0  0  0  0
    0.0125   -1.2229    0.0000 N   0  0  0  0  0  0  0  0  0  0  0  0
    1.4247   -1.2319    0.0000 C   0  0  0  0  0  0  0  0  0  0  0  0
    0.0125    0.4202    0.0000 C   0  0  0  0  0  0  0  0  0  0  0  0
   -0.6982   -0.8066    0.0000 C   0  0  0  0  0  0  0  0  0  0  0  0
   -0.6928    0.0067    0.0000 N   0  0  0  0  0  0  0  0  0  0  0  0
    0.0125    1.2319    0.0000 O   0  0  0  0  0  0  0  0  0  0  0  0
   -1.4247   -1.2229    0.0000 S   0  0  0  0  0  0  0  0  0  0  0  0
    1.6034    0.5368    0.0000 H   0  0  0  0  0  0  0  0  0  0  0  0
    0.0164   -2.2074    0.0000 H   0  0  0  0  0  0  0  0  0  0  0  0
    1.4104   -2.3018    0.0000 H   0  0  0  0  0  0  0  0  0  0  0  0
    2.3584   -0.7093    0.0000 H   0  0  0  0  0  0  0  0  0  0  0  0
    2.3441   -1.7792    0.0000 H   0  0  0  0  0  0  0  0  0  0  0  0
   -1.5454    0.4989    0.0000 H   0  0  0  0  0  0  0  0  0  0  0  0
  1  2  2  0  0  0  0
  1  3  1  0  0  0  0
  1  4  1  0  0  0  0
  2  5  1  0  0  0  0
  2 10  1  0  0  0  0
  3  6  1  0  0  0  0
  3 11  1  0  0  0  0
  4 12  1  0  0  0  0
  4 13  1  0  0  0  0
  4 14  1  0  0  0  0
  5  7  1  0  0  0  0
  5  8  2  0  0  0  0
  6  9  2  0  0  0  0
  6  7  1  0  0  0  0
  7 15  1  0  0  0  0
M  END
>  <DRUGBANK_ID>
DB13644

>  <COMMON_NAME>
Methylthiouracil

>  <CAS_NUMBER>
56-04-2

>  <UNII>
QW24888U5F

>  <SYNONYMS>
Methylthiouracil; Methylthiouracile; Methylthiouracilum; Metiltiouracilo

$$$$
