1247
 OpenBabel10282417072D

 30 31  0  0  0  0  0  0  0  0999 V2000
    3.3809    2.7761    0.0000 O   0  0  0  0  0  0  0  0  0  0  0  0
    4.5079    0.2690    0.0000 O   0  0  0  0  0  0  0  0  0  0  0  0
    3.0790   -0.5560    0.0000 N   0  0  0  0  0  0  0  0  0  0  0  0
    3.0790    0.2690    0.0000 N   0  0  0  0  0  0  0  0  0  0  0  0
    3.1260    1.9915    0.0000 N   0  0  0  0  0  0  0  0  0  0  0  0
    2.3645   -0.9685    0.0000 C   0  0  0  0  0  0  0  0  0  0  0  0
    2.3645   -1.7935    0.0000 C   0  0  0  0  0  0  0  0  0  0  0  0
    3.0790   -2.2060    0.0000 C   0  0  0  0  0  0  0  0  0  0  0  0
    1.6500   -2.2060    0.0000 C   0  0  0  0  0  0  0  0  0  0  0  0
    3.7935    1.5065    0.0000 C   0  0  0  0  0  0  0  0  0  0  0  0
    3.7935    0.6815    0.0000 C   0  0  0  0  0  0  0  0  0  0  0  0
    3.0790   -3.0310    0.0000 C   0  0  0  0  0  0  0  0  0  0  0  0
    1.6500   -3.0310    0.0000 C   0  0  0  0  0  0  0  0  0  0  0  0
    4.4609    1.9915    0.0000 C   0  0  0  0  0  0  0  0  0  0  0  0
    4.2060    2.7761    0.0000 C   0  0  0  0  0  0  0  0  0  0  0  0
    2.3645   -3.4435    0.0000 C   0  0  0  0  0  0  0  0  0  0  0  0
    4.6909    3.4435    0.0000 C   0  0  0  0  0  0  0  0  0  0  0  0
    3.9623   -1.0660    0.0000 H   0  0  0  0  0  0  0  0  0  0  0  0
    2.2264    0.7613    0.0000 H   0  0  0  0  0  0  0  0  0  0  0  0
    1.4379   -0.4335    0.0000 H   0  0  0  0  0  0  0  0  0  0  0  0
    1.4379   -1.5035    0.0000 H   0  0  0  0  0  0  0  0  0  0  0  0
    3.9727   -1.6900    0.0000 H   0  0  0  0  0  0  0  0  0  0  0  0
    0.7563   -1.6900    0.0000 H   0  0  0  0  0  0  0  0  0  0  0  0
    3.9727   -3.5470    0.0000 H   0  0  0  0  0  0  0  0  0  0  0  0
    0.7563   -3.5470    0.0000 H   0  0  0  0  0  0  0  0  0  0  0  0
    5.4424    1.6726    0.0000 H   0  0  0  0  0  0  0  0  0  0  0  0
    2.3645   -4.4755    0.0000 H   0  0  0  0  0  0  0  0  0  0  0  0
    5.7550    3.3316    0.0000 H   0  0  0  0  0  0  0  0  0  0  0  0
    4.2557    4.4210    0.0000 H   0  0  0  0  0  0  0  0  0  0  0  0
    5.3198    4.3091    0.0000 H   0  0  0  0  0  0  0  0  0  0  0  0
  1  5  1  0  0  0  0
  1 15  1  0  0  0  0
  2 11  2  0  0  0  0
  3  4  1  0  0  0  0
  3  6  1  0  0  0  0
  3 18  1  0  0  0  0
  4 11  1  0  0  0  0
  4 19  1  0  0  0  0
  5 10  2  0  0  0  0
  6  7  1  0  0  0  0
  6 20  1  0  0  0  0
  6 21  1  0  0  0  0
  7  8  2  0  0  0  0
  7  9  1  0  0  0  0
  8 12  1  0  0  0  0
  8 22  1  0  0  0  0
  9 13  2  0  0  0  0
  9 23  1  0  0  0  0
 10 11  1  0  0  0  0
 10 14  1  0  0  0  0
 12 16  2  0  0  0  0
 12 24  1  0  0  0  0
 13 16  1  0  0  0  0
 13 25  1  0  0  0  0
 14 15  2  0  0  0  0
 14 26  1  0  0  0  0
 15 17  1  0  0  0  0
 16 27  1  0  0  0  0
 17 28  1  0  0  0  0
 17 29  1  0  0  0  0
 17 30  1  0  0  0  0
M  END
>  <DRUGBANK_ID>
DB01247

>  <SECONDARY_ACCESSION_NUMBERS>
APRD00701

>  <COMMON_NAME>
Isocarboxazid

>  <CAS_NUMBER>
59-63-2

>  <UNII>
34237V843T

>  <SYNONYMS>
Isocarboxazid; Isocarboxazida; Isocarboxazide; Isocarboxazidum

$$$$
