
 OpenBabel10282417072D

 47 48  0  0  0  0  0  0  0  0999 V2000
   -1.4289    4.9500    0.0000 C   0  0  0  0  0  0  0  0  0  0  0  0
    0.0000    4.9500    0.0000 C   0  0  0  0  0  0  0  0  0  0  0  0
   -5.0013    2.8875    0.0000 C   0  0  0  0  0  0  0  0  0  0  0  0
   -4.2868    2.4750    0.0000 C   0  0  0  0  0  0  0  0  0  0  0  0
   -5.0013    3.7125    0.0000 C   0  0  0  0  0  0  0  0  0  0  0  0
   -3.5724    2.8875    0.0000 C   0  0  0  0  0  0  0  0  0  0  0  0
   -4.2868    4.1250    0.0000 C   0  0  0  0  0  0  0  0  0  0  0  0
   -2.1434    3.7125    0.0000 C   0  0  0  0  0  0  0  0  0  0  0  0
   -2.8579    4.1250    0.0000 C   0  0  0  0  0  0  0  0  0  0  0  0
    2.1434    3.7125    0.0000 C   0  0  0  0  0  0  0  0  0  0  0  0
    1.4289    4.9500    0.0000 C   0  0  0  0  0  0  0  0  0  0  0  0
    2.8579    4.1250    0.0000 C   0  0  0  0  0  0  0  0  0  0  0  0
    2.1434    5.3625    0.0000 C   0  0  0  0  0  0  0  0  0  0  0  0
   -1.4289    4.1250    0.0000 C   0  0  3  0  0  0  0  0  0  0  0  0
    0.0000    4.1250    0.0000 C   0  0  3  0  0  0  0  0  0  0  0  0
   -3.5724    3.7125    0.0000 C   0  0  0  0  0  0  0  0  0  0  0  0
    1.4289    4.1250    0.0000 C   0  0  0  0  0  0  0  0  0  0  0  0
    2.8579    4.9500    0.0000 C   0  0  0  0  0  0  0  0  0  0  0  0
    0.7145    3.7125    0.0000 C   0  0  3  0  0  0  0  0  0  0  0  0
   -0.7145    3.7125    0.0000 N   0  0  0  0  0  0  0  0  0  0  0  0
    3.5724    5.3625    0.0000 O   0  0  0  0  0  0  0  0  0  0  0  0
    0.7145    2.8875    0.0000 O   0  0  0  0  0  0  0  0  0  0  0  0
   -0.5023    5.4850    0.0000 H   0  0  0  0  0  0  0  0  0  0  0  0
   -2.3555    5.4850    0.0000 H   0  0  0  0  0  0  0  0  0  0  0  0
   -1.4289    6.0200    0.0000 H   0  0  0  0  0  0  0  0  0  0  0  0
    0.9266    5.4850    0.0000 H   0  0  0  0  0  0  0  0  0  0  0  0
   -0.9266    5.4850    0.0000 H   0  0  0  0  0  0  0  0  0  0  0  0
    0.0000    6.0200    0.0000 H   0  0  0  0  0  0  0  0  0  0  0  0
   -5.8950    2.3715    0.0000 H   0  0  0  0  0  0  0  0  0  0  0  0
   -4.2868    1.4430    0.0000 H   0  0  0  0  0  0  0  0  0  0  0  0
   -5.8950    4.2285    0.0000 H   0  0  0  0  0  0  0  0  0  0  0  0
   -2.6787    2.3715    0.0000 H   0  0  0  0  0  0  0  0  0  0  0  0
   -4.2868    5.1570    0.0000 H   0  0  0  0  0  0  0  0  0  0  0  0
   -2.1434    2.6425    0.0000 H   0  0  0  0  0  0  0  0  0  0  0  0
   -1.2168    3.1775    0.0000 H   0  0  0  0  0  0  0  0  0  0  0  0
   -2.8579    5.1950    0.0000 H   0  0  0  0  0  0  0  0  0  0  0  0
   -3.7845    4.6600    0.0000 H   0  0  0  0  0  0  0  0  0  0  0  0
    2.1434    2.6805    0.0000 H   0  0  0  0  0  0  0  0  0  0  0  0
    0.5352    5.4660    0.0000 H   0  0  0  0  0  0  0  0  0  0  0  0
    3.7516    3.6090    0.0000 H   0  0  0  0  0  0  0  0  0  0  0  0
    2.1434    6.3945    0.0000 H   0  0  0  0  0  0  0  0  0  0  0  0
   -2.3555    4.6600    0.0000 H   0  0  0  0  0  0  0  0  0  0  0  0
    0.9266    4.6600    0.0000 H   0  0  0  0  0  0  0  0  0  0  0  0
    0.7145    4.7825    0.0000 H   0  0  0  0  0  0  0  0  0  0  0  0
   -0.7145    2.6925    0.0000 H   0  0  0  0  0  0  0  0  0  0  0  0
    4.3839    4.8940    0.0000 H   0  0  0  0  0  0  0  0  0  0  0  0
   -0.1255    2.4025    0.0000 H   0  0  0  0  0  0  0  0  0  0  0  0
  1 23  1  0  0  0  0
  1 24  1  0  0  0  0
  1 25  1  0  0  0  0
  2 26  1  0  0  0  0
  2 27  1  0  0  0  0
  2 28  1  0  0  0  0
  3 29  1  0  0  0  0
  4  3  2  0  0  0  0
  4 30  1  0  0  0  0
  5  3  1  0  0  0  0
  5 31  1  0  0  0  0
  6  4  1  0  0  0  0
  6 32  1  0  0  0  0
  7  5  2  0  0  0  0
  7 33  1  0  0  0  0
  8 34  1  0  0  0  0
  8 35  1  0  0  0  0
  9  8  1  0  0  0  0
  9 36  1  0  0  0  0
  9 37  1  0  0  0  0
 10 38  1  0  0  0  0
 11 39  1  0  0  0  0
 12 10  1  0  0  0  0
 12 40  1  0  0  0  0
 13 11  2  0  0  0  0
 13 41  1  0  0  0  0
 14  1  1  0  0  0  0
 14  8  1  0  0  0  0
 14 42  1  0  0  0  0
 15  2  1  0  0  0  0
 15 43  1  0  0  0  0
 16  6  2  0  0  0  0
 16  7  1  0  0  0  0
 16  9  1  0  0  0  0
 17 10  2  0  0  0  0
 17 11  1  0  0  0  0
 18 12  2  0  0  0  0
 18 13  1  0  0  0  0
 19 15  1  0  0  0  0
 19 17  1  0  0  0  0
 19 44  1  0  0  0  0
 20 14  1  0  0  0  0
 20 15  1  0  0  0  0
 20 45  1  0  0  0  0
 21 18  1  0  0  0  0
 21 46  1  0  0  0  0
 22 19  1  0  0  0  0
 22 47  1  0  0  0  0
M  END
>  <DRUGBANK_ID>
DB06152

>  <COMMON_NAME>
Nylidrin

>  <CAS_NUMBER>
447-41-6

>  <UNII>
695DKH33EI

>  <SYNONYMS>
Bufenina; Buphenin; Buphenine; Bupheninum

$$$$
