
 OpenBabel10282417072D

 95 99  0  0  1  0  0  0  0  0999 V2000
    1.9520    1.1270    0.0000 H   0  0  0  0  0  0  0  0  0  0  0  0
    2.7770    1.1270    0.0000 C   0  0  2  0  0  0  0  0  0  0  0  0
    3.6020    1.1270    0.0000 C   0  0  0  0  0  0  0  0  0  0  0  0
    4.0145    0.4125    0.0000 C   0  0  0  0  0  0  0  0  0  0  0  0
    3.6020   -0.3020    0.0000 C   0  0  0  0  0  0  0  0  0  0  0  0
    4.0145   -1.0164    0.0000 C   0  0  0  0  0  0  0  0  0  0  0  0
    2.7770   -0.3020    0.0000 C   0  0  0  0  0  0  0  0  0  0  0  0
    2.3645    0.4125    0.0000 C   0  0  1  0  0  0  0  0  0  0  0  0
    3.1895    0.4125    0.0000 H   0  0  0  0  0  0  0  0  0  0  0  0
    1.5395    0.4125    0.0000 C   0  0  0  0  0  0  0  0  0  0  0  0
    1.1270   -0.3020    0.0000 C   0  0  0  0  0  0  0  0  0  0  0  0
    1.5395   -1.0164    0.0000 O   0  0  0  0  0  0  0  0  0  0  0  0
    1.1270   -1.7309    0.0000 C   0  0  2  0  0  0  0  0  0  0  0  0
    1.5395   -2.4454    0.0000 O   0  0  0  0  0  0  0  0  0  0  0  0
    1.1270   -3.1599    0.0000 C   0  0  2  0  0  0  0  0  0  0  0  0
    1.5395   -3.8743    0.0000 C   0  0  0  0  0  0  0  0  0  0  0  0
    1.1270   -4.5888    0.0000 O   0  0  0  0  0  0  0  0  0  0  0  0
    1.5395   -5.3033    0.0000 C   0  0  2  0  0  0  0  0  0  0  0  0
    2.3645   -5.3033    0.0000 O   0  0  0  0  0  0  0  0  0  0  0  0
    2.7770   -6.0177    0.0000 C   0  0  2  0  0  0  0  0  0  0  0  0
    3.6020   -6.0177    0.0000 C   0  0  0  0  0  0  0  0  0  0  0  0
    4.0145   -6.7322    0.0000 O   0  0  0  0  0  0  0  0  0  0  0  0
    2.3645   -6.7322    0.0000 C   0  0  1  0  0  0  0  0  0  0  0  0
    2.7770   -7.4467    0.0000 O   0  0  0  0  0  0  0  0  0  0  0  0
    1.5395   -6.7322    0.0000 C   0  0  2  0  0  0  0  0  0  0  0  0
    1.1270   -7.4467    0.0000 O   0  0  0  0  0  0  0  0  0  0  0  0
    1.1270   -6.0177    0.0000 C   0  0  1  0  0  0  0  0  0  0  0  0
    0.3020   -6.0177    0.0000 O   0  0  0  0  0  0  0  0  0  0  0  0
    0.3020   -3.1599    0.0000 C   0  0  1  0  0  0  0  0  0  0  0  0
   -0.1105   -3.8743    0.0000 O   0  0  0  0  0  0  0  0  0  0  0  0
   -0.1105   -2.4454    0.0000 C   0  0  2  0  0  0  0  0  0  0  0  0
   -0.9355   -2.4454    0.0000 O   0  0  0  0  0  0  0  0  0  0  0  0
    0.3020   -1.7309    0.0000 C   0  0  1  0  0  0  0  0  0  0  0  0
   -0.1105   -1.0164    0.0000 O   0  0  0  0  0  0  0  0  0  0  0  0
    0.3020   -0.3020    0.0000 C   0  0  0  0  0  0  0  0  0  0  0  0
   -0.1105    0.4125    0.0000 C   0  0  0  0  0  0  0  0  0  0  0  0
   -0.9355    0.4125    0.0000 C   0  0  0  0  0  0  0  0  0  0  0  0
   -1.3480    1.1270    0.0000 C   0  0  0  0  0  0  0  0  0  0  0  0
   -2.1730    1.1270    0.0000 C   0  0  0  0  0  0  0  0  0  0  0  0
   -2.5855    1.8414    0.0000 C   0  0  0  0  0  0  0  0  0  0  0  0
   -2.1730    2.5559    0.0000 C   0  0  0  0  0  0  0  0  0  0  0  0
    0.3020    1.1270    0.0000 C   0  0  0  0  0  0  0  0  0  0  0  0
    1.1270    1.1270    0.0000 C   0  0  0  0  0  0  0  0  0  0  0  0
    1.5395    1.8414    0.0000 O   0  0  0  0  0  0  0  0  0  0  0  0
    2.3645    1.8414    0.0000 C   0  0  0  0  0  0  0  0  0  0  0  0
    2.3933    2.6659    0.0000 C   0  0  0  0  0  0  0  0  0  0  0  0
    3.0641    2.2786    0.0000 C   0  0  0  0  0  0  0  0  0  0  0  0
    4.1370    2.0536    0.0000 H   0  0  0  0  0  0  0  0  0  0  0  0
    4.6720    1.1270    0.0000 H   0  0  0  0  0  0  0  0  0  0  0  0
    5.0845    0.4125    0.0000 H   0  0  0  0  0  0  0  0  0  0  0  0
    4.5495   -0.5141    0.0000 H   0  0  0  0  0  0  0  0  0  0  0  0
    3.4795   -1.9431    0.0000 H   0  0  0  0  0  0  0  0  0  0  0  0
    5.0845   -1.0164    0.0000 H   0  0  0  0  0  0  0  0  0  0  0  0
    4.5495   -1.9430    0.0000 H   0  0  0  0  0  0  0  0  0  0  0  0
    2.2610   -1.1957    0.0000 H   0  0  0  0  0  0  0  0  0  0  0  0
    2.1970   -1.7309    0.0000 H   0  0  0  0  0  0  0  0  0  0  0  0
    2.1970   -3.1599    0.0000 H   0  0  0  0  0  0  0  0  0  0  0  0
    2.6095   -3.8743    0.0000 H   0  0  0  0  0  0  0  0  0  0  0  0
    2.0745   -4.8009    0.0000 H   0  0  0  0  0  0  0  0  0  0  0  0
    2.0745   -4.3767    0.0000 H   0  0  0  0  0  0  0  0  0  0  0  0
    3.3120   -5.0910    0.0000 H   0  0  0  0  0  0  0  0  0  0  0  0
    4.1370   -5.0911    0.0000 H   0  0  0  0  0  0  0  0  0  0  0  0
    4.6720   -6.0177    0.0000 H   0  0  0  0  0  0  0  0  0  0  0  0
    3.5295   -7.5722    0.0000 H   0  0  0  0  0  0  0  0  0  0  0  0
    3.4345   -6.7322    0.0000 H   0  0  0  0  0  0  0  0  0  0  0  0
    2.2920   -8.2867    0.0000 H   0  0  0  0  0  0  0  0  0  0  0  0
    2.0745   -7.6588    0.0000 H   0  0  0  0  0  0  0  0  0  0  0  0
    0.1570   -7.4467    0.0000 H   0  0  0  0  0  0  0  0  0  0  0  0
    0.5920   -6.9443    0.0000 H   0  0  0  0  0  0  0  0  0  0  0  0
   -0.1830   -5.1777    0.0000 H   0  0  0  0  0  0  0  0  0  0  0  0
    0.8370   -4.0866    0.0000 H   0  0  0  0  0  0  0  0  0  0  0  0
   -1.0805   -3.8743    0.0000 H   0  0  0  0  0  0  0  0  0  0  0  0
   -0.6455   -3.3720    0.0000 H   0  0  0  0  0  0  0  0  0  0  0  0
   -1.4205   -1.6054    0.0000 H   0  0  0  0  0  0  0  0  0  0  0  0
   -0.7680   -1.7309    0.0000 H   0  0  0  0  0  0  0  0  0  0  0  0
    0.3745   -0.1764    0.0000 H   0  0  0  0  0  0  0  0  0  0  0  0
   -0.2140   -1.1957    0.0000 H   0  0  0  0  0  0  0  0  0  0  0  0
   -1.4705   -0.5141    0.0000 H   0  0  0  0  0  0  0  0  0  0  0  0
   -2.0055    0.4125    0.0000 H   0  0  0  0  0  0  0  0  0  0  0  0
   -0.8130    2.0536    0.0000 H   0  0  0  0  0  0  0  0  0  0  0  0
   -1.8830    2.0536    0.0000 H   0  0  0  0  0  0  0  0  0  0  0  0
   -2.7080    0.2003    0.0000 H   0  0  0  0  0  0  0  0  0  0  0  0
   -3.2430    1.1270    0.0000 H   0  0  0  0  0  0  0  0  0  0  0  0
   -3.6555    1.8414    0.0000 H   0  0  0  0  0  0  0  0  0  0  0  0
   -3.1205    2.7680    0.0000 H   0  0  0  0  0  0  0  0  0  0  0  0
   -1.1030    2.5559    0.0000 H   0  0  0  0  0  0  0  0  0  0  0  0
   -2.7080    3.4825    0.0000 H   0  0  0  0  0  0  0  0  0  0  0  0
   -1.6380    3.4826    0.0000 H   0  0  0  0  0  0  0  0  0  0  0  0
   -0.2140    2.0207    0.0000 H   0  0  0  0  0  0  0  0  0  0  0  0
    3.3381    3.1682    0.0000 H   0  0  0  0  0  0  0  0  0  0  0  0
    1.4859    3.2329    0.0000 H   0  0  0  0  0  0  0  0  0  0  0  0
    2.4307    3.7352    0.0000 H   0  0  0  0  0  0  0  0  0  0  0  0
    4.0089    1.7763    0.0000 H   0  0  0  0  0  0  0  0  0  0  0  0
    3.0267    3.3479    0.0000 H   0  0  0  0  0  0  0  0  0  0  0  0
    3.9715    2.8457    0.0000 H   0  0  0  0  0  0  0  0  0  0  0  0
  2  1  1  1  0  0  0
  2  3  1  0  0  0  0
  2  8  1  0  0  0  0
  2 45  1  0  0  0  0
  3  4  1  0  0  0  0
  3 48  1  0  0  0  0
  3 49  1  0  0  0  0
  4  5  1  0  0  0  0
  4 50  1  0  0  0  0
  4 51  1  0  0  0  0
  5  6  1  0  0  0  0
  5  7  2  0  0  0  0
  6 52  1  0  0  0  0
  6 53  1  0  0  0  0
  6 54  1  0  0  0  0
  7 55  1  0  0  0  0
  8  7  1  0  0  0  0
  8  9  1  6  0  0  0
  8 10  1  0  0  0  0
 10 11  2  0  0  0  0
 10 43  1  0  0  0  0
 11 12  1  0  0  0  0
 11 35  1  0  0  0  0
 13 12  1  0  0  0  0
 13 14  1  0  0  0  0
 13 56  1  1  0  0  0
 15 14  1  0  0  0  0
 15 16  1  0  0  0  0
 15 57  1  1  0  0  0
 16 17  1  0  0  0  0
 16 58  1  0  0  0  0
 16 59  1  0  0  0  0
 18 17  1  0  0  0  0
 18 19  1  0  0  0  0
 18 60  1  1  0  0  0
 20 19  1  0  0  0  0
 20 21  1  0  0  0  0
 20 61  1  1  0  0  0
 21 22  1  0  0  0  0
 21 62  1  0  0  0  0
 21 63  1  0  0  0  0
 22 64  1  0  0  0  0
 23 20  1  0  0  0  0
 23 24  1  0  0  0  0
 23 25  1  0  0  0  0
 23 65  1  6  0  0  0
 24 66  1  0  0  0  0
 25 26  1  0  0  0  0
 25 27  1  0  0  0  0
 25 67  1  1  0  0  0
 26 68  1  0  0  0  0
 27 18  1  0  0  0  0
 27 28  1  0  0  0  0
 27 69  1  6  0  0  0
 28 70  1  0  0  0  0
 29 15  1  0  0  0  0
 29 30  1  0  0  0  0
 29 31  1  0  0  0  0
 29 71  1  6  0  0  0
 30 72  1  0  0  0  0
 31 32  1  0  0  0  0
 31 33  1  0  0  0  0
 31 73  1  1  0  0  0
 32 74  1  0  0  0  0
 33 13  1  0  0  0  0
 33 34  1  0  0  0  0
 33 75  1  6  0  0  0
 34 76  1  0  0  0  0
 35 36  2  0  0  0  0
 35 77  1  0  0  0  0
 36 37  1  0  0  0  0
 36 42  1  0  0  0  0
 37 38  1  0  0  0  0
 37 78  1  0  0  0  0
 37 79  1  0  0  0  0
 38 39  1  0  0  0  0
 38 80  1  0  0  0  0
 38 81  1  0  0  0  0
 39 40  1  0  0  0  0
 39 82  1  0  0  0  0
 39 83  1  0  0  0  0
 40 41  1  0  0  0  0
 40 84  1  0  0  0  0
 40 85  1  0  0  0  0
 41 86  1  0  0  0  0
 41 87  1  0  0  0  0
 41 88  1  0  0  0  0
 42 43  2  0  0  0  0
 42 89  1  0  0  0  0
 43 44  1  0  0  0  0
 44 45  1  0  0  0  0
 45 46  1  0  0  0  0
 45 47  1  0  0  0  0
 46 90  1  0  0  0  0
 46 91  1  0  0  0  0
 46 92  1  0  0  0  0
 47 93  1  0  0  0  0
 47 94  1  0  0  0  0
 47 95  1  0  0  0  0
M  END
>  <DRUGBANK_ID>
DB18537

>  <COMMON_NAME>
VB-310

>  <CAS_NUMBER>
2699021-76-4

>  <UNII>
SH72P2DRU7

$$$$
