
 OpenBabel10282417072D

 81 82  0  0  0  0  0  0  0  0999 V2000
   -4.0349   -1.0691    0.0000 C   0  0  0  0  0  0  0  0  0  0  0  0
   -3.5077   -1.7037    0.0000 C   0  0  0  0  0  0  0  0  0  0  0  0
   -2.6946   -1.5645    0.0000 C   0  0  0  0  0  0  0  0  0  0  0  0
   -2.1335   -2.1159    0.0000 C   0  0  0  0  0  0  0  0  0  0  0  0
   -1.3759   -1.6994    0.0000 C   0  0  0  0  0  0  0  0  0  0  0  0
   -0.6404   -2.1029    0.0000 C   0  0  0  0  0  0  0  0  0  0  0  0
    0.0590   -1.7162    0.0000 C   0  0  0  0  0  0  0  0  0  0  0  0
    0.1985   -0.9244    0.0000 N   0  0  0  0  0  0  0  0  0  0  0  0
    1.0167   -0.7416    0.0000 C   0  0  0  0  0  0  0  0  0  0  0  0
    1.3911   -0.0356    0.0000 C   0  0  0  0  0  0  0  0  0  0  0  0
    0.9749    0.6927    0.0000 C   0  0  0  0  0  0  0  0  0  0  0  0
    1.3781    1.4575    0.0000 C   0  0  0  0  0  0  0  0  0  0  0  0
    0.8170    2.0089    0.0000 C   0  0  0  0  0  0  0  0  0  0  0  0
    0.0591    1.6217    0.0000 C   0  0  0  0  0  0  0  0  0  0  0  0
    0.2127    0.8032    0.0000 N   0  5  0  0  0  0  0  0  0  0  0  0
   -0.6469    1.9961    0.0000 C   0  0  0  0  0  0  0  0  0  0  0  0
   -1.3755    1.6092    0.0000 C   0  0  0  0  0  0  0  0  0  0  0  0
   -1.5442    0.8171    0.0000 N   0  0  0  0  0  0  0  0  0  0  0  0
   -2.3334    0.6639    0.0000 C   0  0  0  0  0  0  0  0  0  0  0  0
   -2.7074   -0.1007    0.0000 C   0  0  0  0  0  0  0  0  0  0  0  0
   -2.3206   -0.8000    0.0000 C   0  0  0  0  0  0  0  0  0  0  0  0
   -1.4996   -0.9392    0.0000 N   0  5  0  0  0  0  0  0  0  0  0  0
   -2.6909    1.3634    0.0000 C   0  0  0  0  0  0  0  0  0  0  0  0
   -2.1104    1.9541    0.0000 C   0  0  0  0  0  0  0  0  0  0  0  0
   -2.2561    2.7661    0.0000 C   0  0  0  0  0  0  0  0  0  0  0  0
   -1.6258    3.2984    0.0000 C   0  0  0  0  0  0  0  0  0  0  0  0
   -3.5063    1.4884    0.0000 C   0  0  0  0  0  0  0  0  0  0  0  0
    0.9421    2.8244    0.0000 C   0  0  0  0  0  0  0  0  0  0  0  0
    2.1933    1.5845    0.0000 C   0  0  0  0  0  0  0  0  0  0  0  0
    2.4910    2.3539    0.0000 C   0  0  0  0  0  0  0  0  0  0  0  0
    3.3062    2.4808    0.0000 C   0  0  0  0  0  0  0  0  0  0  0  0
    3.6038    3.2503    0.0000 O   0  0  0  0  0  0  0  0  0  0  0  0
    3.8237    1.8383    0.0000 O   0  0  0  0  0  0  0  0  0  0  0  0
    1.4042   -1.5287    0.0000 C   0  0  0  0  0  0  0  0  0  0  0  0
    0.8528   -2.0899    0.0000 C   0  0  0  0  0  0  0  0  0  0  0  0
    0.9982   -2.9020    0.0000 C   0  0  0  0  0  0  0  0  0  0  0  0
    2.2188   -1.6597    0.0000 C   0  0  0  0  0  0  0  0  0  0  0  0
    2.5125   -2.4307    0.0000 C   0  0  0  0  0  0  0  0  0  0  0  0
    3.3270   -2.5618    0.0000 C   0  0  0  0  0  0  0  0  0  0  0  0
    3.8478   -1.9219    0.0000 O   0  0  0  0  0  0  0  0  0  0  0  0
    3.6208   -3.3327    0.0000 O   0  0  0  0  0  0  0  0  0  0  0  0
   -2.2461   -2.9331    0.0000 C   0  0  0  0  0  0  0  0  0  0  0  0
    7.1478    0.0000    0.0000 Cl  0  5  0  0  0  0  0  0  0  0  0  0
    0.0000   -4.9827    0.0000 Cl  0  5  0  0  0  0  0  0  0  0  0  0
    6.3228    0.0000    0.0000 Sn  0  0  0  0  0  0  0  0  0  0  0  0
   -3.6640   -0.0654    0.0000 H   0  0  0  0  0  0  0  0  0  0  0  0
   -5.0895   -1.2497    0.0000 H   0  0  0  0  0  0  0  0  0  0  0  0
   -4.7186   -0.2461    0.0000 H   0  0  0  0  0  0  0  0  0  0  0  0
   -3.8786   -2.7073    0.0000 H   0  0  0  0  0  0  0  0  0  0  0  0
   -2.8240   -2.5268    0.0000 H   0  0  0  0  0  0  0  0  0  0  0  0
   -0.6387   -3.1349    0.0000 H   0  0  0  0  0  0  0  0  0  0  0  0
    2.4230   -0.0193    0.0000 H   0  0  0  0  0  0  0  0  0  0  0  0
   -0.6472    3.0281    0.0000 H   0  0  0  0  0  0  0  0  0  0  0  0
   -3.7391   -0.1267    0.0000 H   0  0  0  0  0  0  0  0  0  0  0  0
   -3.2627    3.1290    0.0000 H   0  0  0  0  0  0  0  0  0  0  0  0
   -2.4452    3.8193    0.0000 H   0  0  0  0  0  0  0  0  0  0  0  0
   -0.6192    2.9356    0.0000 H   0  0  0  0  0  0  0  0  0  0  0  0
   -1.8149    4.3515    0.0000 H   0  0  0  0  0  0  0  0  0  0  0  0
   -0.8083    3.9888    0.0000 H   0  0  0  0  0  0  0  0  0  0  0  0
   -3.8947    2.4854    0.0000 H   0  0  0  0  0  0  0  0  0  0  0  0
   -4.1755    0.6535    0.0000 H   0  0  0  0  0  0  0  0  0  0  0  0
   -4.5639    1.6505    0.0000 H   0  0  0  0  0  0  0  0  0  0  0  0
    1.9392    3.2127    0.0000 H   0  0  0  0  0  0  0  0  0  0  0  0
    0.1073    3.4937    0.0000 H   0  0  0  0  0  0  0  0  0  0  0  0
    1.1043    3.8820    0.0000 H   0  0  0  0  0  0  0  0  0  0  0  0
    2.8645    0.7512    0.0000 H   0  0  0  0  0  0  0  0  0  0  0  0
    3.2506    1.7491    0.0000 H   0  0  0  0  0  0  0  0  0  0  0  0
    1.8198    3.1872    0.0000 H   0  0  0  0  0  0  0  0  0  0  0  0
    2.8771    3.3518    0.0000 H   0  0  0  0  0  0  0  0  0  0  0  0
    3.4856    0.9644    0.0000 H   0  0  0  0  0  0  0  0  0  0  0  0
    0.1803   -3.5919    0.0000 H   0  0  0  0  0  0  0  0  0  0  0  0
    2.0046   -3.2653    0.0000 H   0  0  0  0  0  0  0  0  0  0  0  0
    1.1868   -3.9553    0.0000 H   0  0  0  0  0  0  0  0  0  0  0  0
    2.8942   -0.8298    0.0000 H   0  0  0  0  0  0  0  0  0  0  0  0
    3.2752   -1.8297    0.0000 H   0  0  0  0  0  0  0  0  0  0  0  0
    1.8370   -3.2605    0.0000 H   0  0  0  0  0  0  0  0  0  0  0  0
    2.8934   -3.4306    0.0000 H   0  0  0  0  0  0  0  0  0  0  0  0
    3.0294   -4.0595    0.0000 H   0  0  0  0  0  0  0  0  0  0  0  0
   -3.2371   -3.3366    0.0000 H   0  0  0  0  0  0  0  0  0  0  0  0
   -1.4012   -3.5896    0.0000 H   0  0  0  0  0  0  0  0  0  0  0  0
   -2.3922   -3.9931    0.0000 H   0  0  0  0  0  0  0  0  0  0  0  0
  1  2  1  0  0  0  0
  1 46  1  0  0  0  0
  1 47  1  0  0  0  0
  1 48  1  0  0  0  0
  2  3  1  0  0  0  0
  2 49  1  0  0  0  0
  2 50  1  0  0  0  0
  3  4  1  0  0  0  0
  3 21  2  0  0  0  0
  4  5  2  0  0  0  0
  4 42  1  0  0  0  0
  5  6  1  0  0  0  0
  5 22  1  0  0  0  0
  6  7  2  0  0  0  0
  6 51  1  0  0  0  0
  7  8  1  0  0  0  0
  7 35  1  0  0  0  0
  8  9  2  0  0  0  0
  9 10  1  0  0  0  0
  9 34  1  0  0  0  0
 10 11  2  0  0  0  0
 10 52  1  0  0  0  0
 11 12  1  0  0  0  0
 11 15  1  0  0  0  0
 12 13  2  0  0  0  0
 12 29  1  0  0  0  0
 13 14  1  0  0  0  0
 13 28  1  0  0  0  0
 14 15  1  0  0  0  0
 14 16  2  0  0  0  0
 16 17  1  0  0  0  0
 16 53  1  0  0  0  0
 17 18  2  0  0  0  0
 17 24  1  0  0  0  0
 18 19  1  0  0  0  0
 19 20  2  0  0  0  0
 19 23  1  0  0  0  0
 20 21  1  0  0  0  0
 20 54  1  0  0  0  0
 21 22  1  0  0  0  0
 23 24  2  0  0  0  0
 23 27  1  0  0  0  0
 24 25  1  0  0  0  0
 25 26  1  0  0  0  0
 25 55  1  0  0  0  0
 25 56  1  0  0  0  0
 26 57  1  0  0  0  0
 26 58  1  0  0  0  0
 26 59  1  0  0  0  0
 27 60  1  0  0  0  0
 27 61  1  0  0  0  0
 27 62  1  0  0  0  0
 28 63  1  0  0  0  0
 28 64  1  0  0  0  0
 28 65  1  0  0  0  0
 29 30  1  0  0  0  0
 29 66  1  0  0  0  0
 29 67  1  0  0  0  0
 30 31  1  0  0  0  0
 30 68  1  0  0  0  0
 30 69  1  0  0  0  0
 31 32  2  0  0  0  0
 31 33  1  0  0  0  0
 33 70  1  0  0  0  0
 34 35  2  0  0  0  0
 34 37  1  0  0  0  0
 35 36  1  0  0  0  0
 36 71  1  0  0  0  0
 36 72  1  0  0  0  0
 36 73  1  0  0  0  0
 37 38  1  0  0  0  0
 37 74  1  0  0  0  0
 37 75  1  0  0  0  0
 38 39  1  0  0  0  0
 38 76  1  0  0  0  0
 38 77  1  0  0  0  0
 39 40  2  0  0  0  0
 39 41  1  0  0  0  0
 41 78  1  0  0  0  0
 42 79  1  0  0  0  0
 42 80  1  0  0  0  0
 42 81  1  0  0  0  0
M  CHG  5  15  -1  22  -1  43  -1  44  -1  45   4
M  END
>  <DRUGBANK_ID>
DB04912

>  <COMMON_NAME>
Stannsoporfin

>  <CAS_NUMBER>
106344-20-1

>  <UNII>
0KAE1U0G7Q

>  <SYNONYMS>
Sn Mesoporphyrin; SnMP; Stannsoporfin; Tin mesoporphyrin

$$$$
