
 OpenBabel10282417072D

 37 40  0  0  0  0  0  0  0  0999 V2000
   -2.1462   -1.1034    0.0000 C   0  0  0  0  0  0  0  0  0  0  0  0
   -2.8637   -0.6961    0.0000 I   0  0  0  0  0  0  0  0  0  0  0  0
   -2.1403   -1.9284    0.0000 C   0  0  0  0  0  0  0  0  0  0  0  0
   -2.8518   -2.3461    0.0000 O   0  0  0  0  0  0  0  0  0  0  0  0
   -1.4228   -2.3357    0.0000 C   0  0  0  0  0  0  0  0  0  0  0  0
   -1.4168   -3.1607    0.0000 I   0  0  0  0  0  0  0  0  0  0  0  0
   -0.7114   -1.9180    0.0000 C   0  0  0  0  0  0  0  0  0  0  0  0
   -0.7175   -1.0931    0.0000 C   0  0  0  0  0  0  0  0  0  0  0  0
   -0.0059   -0.6754    0.0000 C   0  0  0  0  0  0  0  0  0  0  0  0
    0.7113   -1.0826    0.0000 C   0  0  0  0  0  0  0  0  0  0  0  0
    1.4229   -0.6649    0.0000 C   0  0  0  0  0  0  0  0  0  0  0  0
    2.1403   -1.0722    0.0000 C   0  0  0  0  0  0  0  0  0  0  0  0
    2.8518   -0.6546    0.0000 I   0  0  0  0  0  0  0  0  0  0  0  0
    2.1464   -1.8972    0.0000 C   0  0  0  0  0  0  0  0  0  0  0  0
    2.8638   -2.3045    0.0000 O   0  0  0  0  0  0  0  0  0  0  0  0
    1.4348   -2.3149    0.0000 C   0  0  0  0  0  0  0  0  0  0  0  0
    1.4408   -3.1398    0.0000 I   0  0  0  0  0  0  0  0  0  0  0  0
    0.7174   -1.9076    0.0000 C   0  0  0  0  0  0  0  0  0  0  0  0
    0.0060   -2.3253    0.0000 O   0  0  0  0  0  0  0  0  0  0  0  0
   -0.0158    0.6858    0.0000 C   0  0  0  0  0  0  0  0  0  0  0  0
    0.6956    1.1034    0.0000 C   0  0  0  0  0  0  0  0  0  0  0  0
    1.4130    0.6961    0.0000 C   0  0  0  0  0  0  0  0  0  0  0  0
    1.4189   -0.1287    0.0000 O   0  0  0  0  0  0  0  0  0  0  0  0
    2.1245    1.1138    0.0000 O   0  0  0  0  0  0  0  0  0  0  0  0
    0.6895    1.9284    0.0000 C   0  0  0  0  0  0  0  0  0  0  0  0
    1.4011    2.3461    0.0000 Cl  0  0  0  0  0  0  0  0  0  0  0  0
   -0.0278    2.3357    0.0000 C   0  0  0  0  0  0  0  0  0  0  0  0
   -0.0338    3.1607    0.0000 Cl  0  0  0  0  0  0  0  0  0  0  0  0
   -0.7392    1.9181    0.0000 C   0  0  0  0  0  0  0  0  0  0  0  0
   -1.4567    2.3253    0.0000 Cl  0  0  0  0  0  0  0  0  0  0  0  0
   -0.7332    1.0931    0.0000 C   0  0  0  0  0  0  0  0  0  0  0  0
   -1.4446    0.6754    0.0000 Cl  0  0  0  0  0  0  0  0  0  0  0  0
   -1.4348   -0.6858    0.0000 C   0  0  0  0  0  0  0  0  0  0  0  0
   -3.6666   -1.8835    0.0000 H   0  0  0  0  0  0  0  0  0  0  0  0
    1.4155    0.3671    0.0000 H   0  0  0  0  0  0  0  0  0  0  0  0
    2.9393    0.6512    0.0000 H   0  0  0  0  0  0  0  0  0  0  0  0
   -1.4422    0.3462    0.0000 H   0  0  0  0  0  0  0  0  0  0  0  0
  1  2  1  0  0  0  0
  1  3  2  0  0  0  0
  3  4  1  0  0  0  0
  3  5  1  0  0  0  0
  4 34  1  0  0  0  0
  5  6  1  0  0  0  0
  5  7  2  0  0  0  0
  7 19  1  0  0  0  0
  8  7  1  0  0  0  0
  8 33  2  0  0  0  0
  9  8  1  0  0  0  0
  9 20  1  0  0  0  0
 10  9  2  0  0  0  0
 10 18  1  0  0  0  0
 11 10  1  0  0  0  0
 11 35  1  0  0  0  0
 12 11  2  0  0  0  0
 12 13  1  0  0  0  0
 14 12  1  0  0  0  0
 14 15  2  0  0  0  0
 16 14  1  0  0  0  0
 16 17  1  0  0  0  0
 18 16  2  0  0  0  0
 19 18  1  0  0  0  0
 20 21  2  0  0  0  0
 21 22  1  0  0  0  0
 21 25  1  0  0  0  0
 22 23  2  0  0  0  0
 22 24  1  0  0  0  0
 24 36  1  0  0  0  0
 25 26  1  0  0  0  0
 25 27  2  0  0  0  0
 27 28  1  0  0  0  0
 27 29  1  0  0  0  0
 29 30  1  0  0  0  0
 29 31  2  0  0  0  0
 31 20  1  0  0  0  0
 31 32  1  0  0  0  0
 33  1  1  0  0  0  0
 33 37  1  0  0  0  0
M  ISO  4   2 131   6 131  13 131  17 131
M  END
>  <DRUGBANK_ID>
DB09388

>  <COMMON_NAME>
Rose bengal I-131

>  <CAS_NUMBER>
99689-97-1

>  <UNII>
MKF129JIZX

>  <SYNONYMS>
Robenogatope I-131

$$$$
