226
 OpenBabel10282417072D

 23 24  0  0  0  0  0  0  0  0999 V2000
    0.2275   -3.3509    0.0000 O   0  0  0  0  0  0  0  0  0  0  0  0
    0.2275   -2.5259    0.0000 C   0  0  0  0  0  0  0  0  0  0  0  0
    0.9419   -2.1134    0.0000 C   0  0  0  0  0  0  0  0  0  0  0  0
    1.6564   -2.5259    0.0000 C   0  0  0  0  0  0  0  0  0  0  0  0
    2.3709   -2.1134    0.0000 C   0  0  0  0  0  0  0  0  0  0  0  0
    3.0854   -2.5259    0.0000 O   0  0  0  0  0  0  0  0  0  0  0  0
    2.3709   -1.2884    0.0000 C   0  0  0  0  0  0  0  0  0  0  0  0
    1.6564   -0.8759    0.0000 C   0  0  0  0  0  0  0  0  0  0  0  0
    1.6564   -0.0509    0.0000 O   0  0  0  0  0  0  0  0  0  0  0  0
    0.9419   -1.2884    0.0000 C   0  0  0  0  0  0  0  0  0  0  0  0
    0.2275   -0.8759    0.0000 C   0  0  0  0  0  0  0  0  0  0  0  0
    0.2275   -0.0509    0.0000 O   0  0  0  0  0  0  0  0  0  0  0  0
   -0.4870   -1.2884    0.0000 C   0  0  0  0  0  0  0  0  0  0  0  0
   -0.4870   -2.1134    0.0000 C   0  0  0  0  0  0  0  0  0  0  0  0
   -1.2015   -2.5259    0.0000 O   0  0  0  0  0  0  0  0  0  0  0  0
   -0.5840   -3.8194    0.0000 H   0  0  0  0  0  0  0  0  0  0  0  0
    1.6564   -3.5579    0.0000 H   0  0  0  0  0  0  0  0  0  0  0  0
    3.0854   -3.4629    0.0000 H   0  0  0  0  0  0  0  0  0  0  0  0
    3.2646   -0.7724    0.0000 H   0  0  0  0  0  0  0  0  0  0  0  0
    2.4679    0.4176    0.0000 H   0  0  0  0  0  0  0  0  0  0  0  0
    1.0390    0.4176    0.0000 H   0  0  0  0  0  0  0  0  0  0  0  0
   -1.3807   -0.7724    0.0000 H   0  0  0  0  0  0  0  0  0  0  0  0
   -2.0130   -2.0574    0.0000 H   0  0  0  0  0  0  0  0  0  0  0  0
  1  2  1  0  0  0  0
  1 16  1  0  0  0  0
  2 14  2  0  0  0  0
  2  3  1  0  0  0  0
  3 10  1  0  0  0  0
  4  3  2  0  0  0  0
  4  5  1  0  0  0  0
  4 17  1  0  0  0  0
  5  7  2  0  0  0  0
  6  5  1  0  0  0  0
  6 18  1  0  0  0  0
  7  8  1  0  0  0  0
  7 19  1  0  0  0  0
  8  9  1  0  0  0  0
  9 20  1  0  0  0  0
 10 11  1  0  0  0  0
 10  8  2  0  0  0  0
 11 12  1  0  0  0  0
 12 21  1  0  0  0  0
 13 11  2  0  0  0  0
 13 22  1  0  0  0  0
 14 13  1  0  0  0  0
 15 14  1  0  0  0  0
 15 23  1  0  0  0  0
M  END
>  <DRUGBANK_ID>
DB06915

>  <COMMON_NAME>
naphthalene-1,2,4,5,7-pentol

$$$$
