
 OpenBabel10282417072D

 70 74  0  0  0  0  0  0  0  0999 V2000
    1.0310   -1.8148    0.0000 C   0  0  0  0  0  0  0  0  0  0  0  0
    1.3132   -1.0396    0.0000 C   0  0  0  0  0  0  0  0  0  0  0  0
    2.1256   -0.8963    0.0000 O   0  0  0  0  0  0  0  0  0  0  0  0
    2.4078   -0.1211    0.0000 C   0  0  0  0  0  0  0  0  0  0  0  0
    1.8775    0.5109    0.0000 O   0  0  0  0  0  0  0  0  0  0  0  0
    3.2203    0.0222    0.0000 C   0  0  0  0  0  0  0  0  0  0  0  0
    3.5024    0.7974    0.0000 O   0  0  0  0  0  0  0  0  0  0  0  0
    4.3149    0.9407    0.0000 N   0  0  0  0  0  0  0  0  0  0  0  0
    4.5971    1.7160    0.0000 C   0  0  0  0  0  0  0  0  0  0  0  0
    5.4095    1.8592    0.0000 C   0  0  0  0  0  0  0  0  0  0  0  0
    5.6917    2.6345    0.0000 C   0  0  0  0  0  0  0  0  0  0  0  0
    6.5042    2.7777    0.0000 C   0  0  0  0  0  0  0  0  0  0  0  0
    7.0345    2.1457    0.0000 C   0  0  0  0  0  0  0  0  0  0  0  0
    6.7523    1.3705    0.0000 C   0  0  0  0  0  0  0  0  0  0  0  0
    5.9398    1.2272    0.0000 N   0  0  0  0  0  0  0  0  0  0  0  0
    4.0668    2.3479    0.0000 C   0  0  0  0  0  0  0  0  0  0  0  0
    3.7846    3.1232    0.0000 C   0  0  0  0  0  0  0  0  0  0  0  0
    4.5971    2.9799    0.0000 C   0  0  0  0  0  0  0  0  0  0  0  0
    3.3523    1.9354    0.0000 C   0  0  0  0  0  0  0  0  0  0  0  0
    3.3523    1.1104    0.0000 C   0  0  0  0  0  0  0  0  0  0  0  0
    2.6378    0.6979    0.0000 C   0  0  0  0  0  0  0  0  0  0  0  0
    1.9233    1.1104    0.0000 C   0  0  0  0  0  0  0  0  0  0  0  0
    1.1387    0.8555    0.0000 N   0  0  0  0  0  0  0  0  0  0  0  0
    0.8838    0.0709    0.0000 C   0  0  0  0  0  0  0  0  0  0  0  0
    0.6538    1.5229    0.0000 C   0  0  0  0  0  0  0  0  0  0  0  0
   -0.1712    1.5229    0.0000 C   0  0  0  0  0  0  0  0  0  0  0  0
   -0.5837    0.8085    0.0000 N   0  0  0  0  0  0  0  0  0  0  0  0
   -1.4087    0.8085    0.0000 C   0  0  0  0  0  0  0  0  0  0  0  0
   -1.8212    0.0940    0.0000 C   0  0  0  0  0  0  0  0  0  0  0  0
   -2.6462    0.0940    0.0000 C   0  0  0  0  0  0  0  0  0  0  0  0
   -3.0587    0.8085    0.0000 C   0  0  0  0  0  0  0  0  0  0  0  0
   -2.6462    1.5229    0.0000 C   0  0  0  0  0  0  0  0  0  0  0  0
   -1.8212    1.5229    0.0000 C   0  0  0  0  0  0  0  0  0  0  0  0
   -3.8837    0.8085    0.0000 C   0  0  0  0  0  0  0  0  0  0  0  0
   -4.2962    1.5229    0.0000 N   0  0  0  0  0  0  0  0  0  0  0  0
   -4.2962    0.0940    0.0000 N   0  0  0  0  0  0  0  0  0  0  0  0
    1.1387    2.1904    0.0000 N   0  0  0  0  0  0  0  0  0  0  0  0
    1.9233    1.9354    0.0000 C   0  0  0  0  0  0  0  0  0  0  0  0
    2.6378    2.3479    0.0000 C   0  0  0  0  0  0  0  0  0  0  0  0
   -0.0228   -2.0005    0.0000 H   0  0  0  0  0  0  0  0  0  0  0  0
    1.7187   -2.6345    0.0000 H   0  0  0  0  0  0  0  0  0  0  0  0
    0.6650   -2.8203    0.0000 H   0  0  0  0  0  0  0  0  0  0  0  0
    0.6254   -0.2199    0.0000 H   0  0  0  0  0  0  0  0  0  0  0  0
    1.6791   -0.0341    0.0000 H   0  0  0  0  0  0  0  0  0  0  0  0
    3.9081   -0.7974    0.0000 H   0  0  0  0  0  0  0  0  0  0  0  0
    4.2740    0.2081    0.0000 H   0  0  0  0  0  0  0  0  0  0  0  0
    5.0284    3.4251    0.0000 H   0  0  0  0  0  0  0  0  0  0  0  0
    6.8572    3.7474    0.0000 H   0  0  0  0  0  0  0  0  0  0  0  0
    8.0508    2.3249    0.0000 H   0  0  0  0  0  0  0  0  0  0  0  0
    7.4157    0.5799    0.0000 H   0  0  0  0  0  0  0  0  0  0  0  0
    2.9649    3.8110    0.0000 H   0  0  0  0  0  0  0  0  0  0  0  0
    4.2368    4.0929    0.0000 H   0  0  0  0  0  0  0  0  0  0  0  0
    5.6026    3.3458    0.0000 H   0  0  0  0  0  0  0  0  0  0  0  0
    5.2108    2.1034    0.0000 H   0  0  0  0  0  0  0  0  0  0  0  0
    4.2460    0.5944    0.0000 H   0  0  0  0  0  0  0  0  0  0  0  0
    2.6378   -0.3341    0.0000 H   0  0  0  0  0  0  0  0  0  0  0  0
   -0.1628   -0.1516    0.0000 H   0  0  0  0  0  0  0  0  0  0  0  0
    1.5998   -0.7242    0.0000 H   0  0  0  0  0  0  0  0  0  0  0  0
    0.5532   -0.9467    0.0000 H   0  0  0  0  0  0  0  0  0  0  0  0
   -0.7062    2.4496    0.0000 H   0  0  0  0  0  0  0  0  0  0  0  0
   -1.2412    1.5229    0.0000 H   0  0  0  0  0  0  0  0  0  0  0  0
   -0.0915   -0.0441    0.0000 H   0  0  0  0  0  0  0  0  0  0  0  0
   -1.3052   -0.7997    0.0000 H   0  0  0  0  0  0  0  0  0  0  0  0
   -3.1622   -0.7997    0.0000 H   0  0  0  0  0  0  0  0  0  0  0  0
   -3.1622    2.4166    0.0000 H   0  0  0  0  0  0  0  0  0  0  0  0
   -1.3052    2.4166    0.0000 H   0  0  0  0  0  0  0  0  0  0  0  0
   -3.8040    2.3755    0.0000 H   0  0  0  0  0  0  0  0  0  0  0  0
   -5.2807    1.5229    0.0000 H   0  0  0  0  0  0  0  0  0  0  0  0
   -5.2807    0.0940    0.0000 H   0  0  0  0  0  0  0  0  0  0  0  0
    2.6378    3.3799    0.0000 H   0  0  0  0  0  0  0  0  0  0  0  0
  1  2  1  0  0  0  0
  1 40  1  0  0  0  0
  1 41  1  0  0  0  0
  1 42  1  0  0  0  0
  2  3  1  0  0  0  0
  2 43  1  0  0  0  0
  2 44  1  0  0  0  0
  3  4  1  0  0  0  0
  4  5  2  0  0  0  0
  4  6  1  0  0  0  0
  6  7  1  0  0  0  0
  6 45  1  0  0  0  0
  6 46  1  0  0  0  0
  7  8  1  0  0  0  0
  8  9  2  0  0  0  0
  9 10  1  0  0  0  0
  9 16  1  0  0  0  0
 10 11  2  0  0  0  0
 10 15  1  0  0  0  0
 11 12  1  0  0  0  0
 11 47  1  0  0  0  0
 12 13  2  0  0  0  0
 12 48  1  0  0  0  0
 13 14  1  0  0  0  0
 13 49  1  0  0  0  0
 14 15  2  0  0  0  0
 14 50  1  0  0  0  0
 16 17  1  0  0  0  0
 16 18  1  0  0  0  0
 16 19  1  0  0  0  0
 17 18  1  0  0  0  0
 17 51  1  0  0  0  0
 17 52  1  0  0  0  0
 18 53  1  0  0  0  0
 18 54  1  0  0  0  0
 19 20  2  0  0  0  0
 19 39  1  0  0  0  0
 20 21  1  0  0  0  0
 20 55  1  0  0  0  0
 21 22  2  0  0  0  0
 21 56  1  0  0  0  0
 22 23  1  0  0  0  0
 22 38  1  0  0  0  0
 23 24  1  0  0  0  0
 23 25  1  0  0  0  0
 24 57  1  0  0  0  0
 24 58  1  0  0  0  0
 24 59  1  0  0  0  0
 25 26  1  0  0  0  0
 25 37  2  0  0  0  0
 26 27  1  0  0  0  0
 26 60  1  0  0  0  0
 26 61  1  0  0  0  0
 27 28  1  0  0  0  0
 27 62  1  0  0  0  0
 28 29  2  0  0  0  0
 28 33  1  0  0  0  0
 29 30  1  0  0  0  0
 29 63  1  0  0  0  0
 30 31  2  0  0  0  0
 30 64  1  0  0  0  0
 31 32  1  0  0  0  0
 31 34  1  0  0  0  0
 32 33  2  0  0  0  0
 32 65  1  0  0  0  0
 33 66  1  0  0  0  0
 34 35  1  0  0  0  0
 34 36  2  0  0  0  0
 35 67  1  0  0  0  0
 35 68  1  0  0  0  0
 36 69  1  0  0  0  0
 37 38  1  0  0  0  0
 38 39  2  0  0  0  0
 39 70  1  0  0  0  0
M  END
>  <DRUGBANK_ID>
DB04107

>  <SECONDARY_ACCESSION_NUMBERS>
EXPT02999

>  <COMMON_NAME>
[(1-{2[(4-Carbamimidoyl-Phenylamino)-Methyl]-1-Methyl-1h-Benzoimidazol-5-Yl}-Cyclopropyl)-Pyridin-2-Yl-Methyleneaminooxy]-Acetic Acid Ethyl Ester

$$$$
