
 OpenBabel10282417072D

 40 39  0  0  0  0  0  0  0  0999 V2000
    2.1434   -1.7053    0.0000 S   0  0  0  0  0  0  0  0  0  0  0  0
    1.7309   -2.4197    0.0000 O   0  0  0  0  0  0  0  0  0  0  0  0
    0.0000   -1.2928    0.0000 O   0  0  0  0  0  0  0  0  0  0  0  0
    2.8579   -0.4677    0.0000 O   0  0  0  0  0  0  0  0  0  0  0  0
    2.5559   -0.9908    0.0000 O   0  0  0  0  0  0  0  0  0  0  0  0
    2.8579   -2.1178    0.0000 O   0  0  0  0  0  0  0  0  0  0  0  0
   -3.5724   -0.0552    0.0000 O   0  0  0  0  0  0  0  0  0  0  0  0
   -2.8579   -1.2928    0.0000 O   0  0  0  0  0  0  0  0  0  0  0  0
    3.5724    2.4197    0.0000 O   0  0  0  0  0  0  0  0  0  0  0  0
    2.1434    2.4197    0.0000 O   0  0  0  0  0  0  0  0  0  0  0  0
    0.7145   -0.0552    0.0000 N   0  0  0  0  0  0  0  0  0  0  0  0
    2.1434    0.7697    0.0000 N   0  0  0  0  0  0  0  0  0  0  0  0
   -2.1434    0.7697    0.0000 N   0  0  0  0  0  0  0  0  0  0  0  0
    1.4289   -0.4677    0.0000 C   0  0  1  0  0  0  0  0  0  0  0  0
    1.4289   -1.2928    0.0000 C   0  0  0  0  0  0  0  0  0  0  0  0
   -0.7145   -0.0552    0.0000 C   0  0  0  0  0  0  0  0  0  0  0  0
   -1.4289   -0.4677    0.0000 C   0  0  0  0  0  0  0  0  0  0  0  0
    0.0000   -0.4677    0.0000 C   0  0  0  0  0  0  0  0  0  0  0  0
   -2.1434   -0.0552    0.0000 C   0  0  1  0  0  0  0  0  0  0  0  0
    2.1434   -0.0552    0.0000 C   0  0  0  0  0  0  0  0  0  0  0  0
   -2.8579   -0.4677    0.0000 C   0  0  0  0  0  0  0  0  0  0  0  0
    2.8579    1.1822    0.0000 C   0  0  0  0  0  0  0  0  0  0  0  0
    2.8579    2.0072    0.0000 C   0  0  0  0  0  0  0  0  0  0  0  0
    0.7145    0.4562    0.0000 H   0  0  0  0  0  0  0  0  0  0  0  0
    1.7004    1.0254    0.0000 H   0  0  0  0  0  0  0  0  0  0  0  0
   -2.5863    1.0254    0.0000 H   0  0  0  0  0  0  0  0  0  0  0  0
   -1.7004    1.0254    0.0000 H   0  0  0  0  0  0  0  0  0  0  0  0
    0.7609   -2.4197    0.0000 H   0  0  0  0  0  0  0  0  0  0  0  0
   -3.5724    0.8818    0.0000 H   0  0  0  0  0  0  0  0  0  0  0  0
    4.3839    1.9512    0.0000 H   0  0  0  0  0  0  0  0  0  0  0  0
    0.5022   -1.0027    0.0000 H   0  0  0  0  0  0  0  0  0  0  0  0
    0.5023   -1.8278    0.0000 H   0  0  0  0  0  0  0  0  0  0  0  0
    0.5023   -0.7578    0.0000 H   0  0  0  0  0  0  0  0  0  0  0  0
   -0.7145    1.0148    0.0000 H   0  0  0  0  0  0  0  0  0  0  0  0
    0.2121    0.4798    0.0000 H   0  0  0  0  0  0  0  0  0  0  0  0
   -1.4289   -1.5377    0.0000 H   0  0  0  0  0  0  0  0  0  0  0  0
   -2.3555   -1.0027    0.0000 H   0  0  0  0  0  0  0  0  0  0  0  0
   -1.2168    0.4798    0.0000 H   0  0  0  0  0  0  0  0  0  0  0  0
    3.7845    0.6472    0.0000 H   0  0  0  0  0  0  0  0  0  0  0  0
    3.7845    1.7172    0.0000 H   0  0  0  0  0  0  0  0  0  0  0  0
  1  2  1  0  0  0  0
  1  5  2  0  0  0  0
  1  6  2  0  0  0  0
  1 15  1  0  0  0  0
  2 28  1  0  0  0  0
  3 18  2  0  0  0  0
  4 20  2  0  0  0  0
  7 21  1  0  0  0  0
  7 29  1  0  0  0  0
  8 21  2  0  0  0  0
  9 23  1  0  0  0  0
  9 30  1  0  0  0  0
 10 23  2  0  0  0  0
 11 18  1  0  0  0  0
 11 24  1  0  0  0  0
 12 20  1  0  0  0  0
 12 22  1  0  0  0  0
 12 25  1  0  0  0  0
 13 26  1  0  0  0  0
 13 27  1  0  0  0  0
 14 11  1  0  0  0  0
 14 15  1  0  0  0  0
 14 20  1  0  0  0  0
 14 31  1  1  0  0  0
 15 32  1  0  0  0  0
 15 33  1  0  0  0  0
 16 17  1  0  0  0  0
 16 18  1  0  0  0  0
 16 34  1  0  0  0  0
 16 35  1  0  0  0  0
 17 19  1  0  0  0  0
 17 36  1  0  0  0  0
 17 37  1  0  0  0  0
 19 13  1  0  0  0  0
 19 21  1  0  0  0  0
 19 38  1  6  0  0  0
 22 23  1  0  0  0  0
 22 39  1  0  0  0  0
 22 40  1  0  0  0  0
M  END
>  <DRUGBANK_ID>
DB03003

>  <SECONDARY_ACCESSION_NUMBERS>
EXPT01662

>  <COMMON_NAME>
Glutathione sulfonic acid

>  <CAS_NUMBER>
3773-07-7

>  <UNII>
ZU672FB3GH

$$$$
