
 OpenBabel10282417072D

 47 49  0  0  0  0  0  0  0  0999 V2000
    0.0000   -0.8251    0.0000 C   0  0  0  0  0  0  0  0  0  0  0  0
    0.0000   -0.0001    0.0000 C   0  0  0  0  0  0  0  0  0  0  0  0
   -0.7145   -1.2377    0.0000 C   0  0  0  0  0  0  0  0  0  0  0  0
   -0.7146    0.4122    0.0000 C   0  0  0  0  0  0  0  0  0  0  0  0
   -1.4289   -0.8252    0.0000 C   0  0  0  0  0  0  0  0  0  0  0  0
   -1.4289   -0.0002    0.0000 C   0  0  0  0  0  0  0  0  0  0  0  0
    0.7144   -1.2375    0.0000 O   0  0  0  0  0  0  0  0  0  0  0  0
    1.4289   -0.8251    0.0000 C   0  0  0  0  0  0  0  0  0  0  0  0
    1.4289   -0.0001    0.0000 C   0  0  0  0  0  0  0  0  0  0  0  0
    2.1435   -1.2375    0.0000 N   0  0  0  0  0  0  0  0  0  0  0  0
    2.1435    0.4123    0.0000 C   0  0  0  0  0  0  0  0  0  0  0  0
    2.8578   -0.8251    0.0000 C   0  0  0  0  0  0  0  0  0  0  0  0
    2.8578   -0.0001    0.0000 N   0  0  0  0  0  0  0  0  0  0  0  0
    2.1434    1.2374    0.0000 O   0  0  0  0  0  0  0  0  0  0  0  0
   -0.7144   -2.0627    0.0000 C   0  0  0  0  0  0  0  0  0  0  0  0
    0.0000   -2.4751    0.0000 C   0  0  0  0  0  0  0  0  0  0  0  0
   -1.4289   -2.4752    0.0000 C   0  0  0  0  0  0  0  0  0  0  0  0
   -2.1434   -2.0626    0.0000 O   0  0  0  0  0  0  0  0  0  0  0  0
   -2.8578   -2.4752    0.0000 C   0  0  0  0  0  0  0  0  0  0  0  0
    0.7145   -2.0626    0.0000 O   0  0  0  0  0  0  0  0  0  0  0  0
    0.0000   -3.3001    0.0000 O   0  0  0  0  0  0  0  0  0  0  0  0
    1.4289   -2.4752    0.0000 C   0  0  0  0  0  0  0  0  0  0  0  0
    1.4289    1.6497    0.0000 C   0  0  0  0  0  0  0  0  0  0  0  0
    1.4288    2.4748    0.0000 C   0  0  0  0  0  0  0  0  0  0  0  0
    0.7145    1.2372    0.0000 C   0  0  0  0  0  0  0  0  0  0  0  0
    0.7142    2.8872    0.0000 C   0  0  0  0  0  0  0  0  0  0  0  0
    0.0000    1.6496    0.0000 C   0  0  0  0  0  0  0  0  0  0  0  0
   -0.0001    2.4745    0.0000 C   0  0  0  0  0  0  0  0  0  0  0  0
    2.1432    2.8873    0.0000 C   0  0  0  0  0  0  0  0  0  0  0  0
    2.8576    3.3000    0.0000 N   0  0  0  0  0  0  0  0  0  0  0  0
    0.8937    0.5160    0.0000 H   0  0  0  0  0  0  0  0  0  0  0  0
   -0.7147    1.4442    0.0000 H   0  0  0  0  0  0  0  0  0  0  0  0
   -2.3226   -1.3412    0.0000 H   0  0  0  0  0  0  0  0  0  0  0  0
   -2.3226    0.5158    0.0000 H   0  0  0  0  0  0  0  0  0  0  0  0
    0.5352    0.5160    0.0000 H   0  0  0  0  0  0  0  0  0  0  0  0
    3.7515   -1.3411    0.0000 H   0  0  0  0  0  0  0  0  0  0  0  0
   -1.4290   -3.5072    0.0000 H   0  0  0  0  0  0  0  0  0  0  0  0
   -3.7845   -1.9403    0.0000 H   0  0  0  0  0  0  0  0  0  0  0  0
   -2.8576   -3.5452    0.0000 H   0  0  0  0  0  0  0  0  0  0  0  0
   -3.7844   -3.0103    0.0000 H   0  0  0  0  0  0  0  0  0  0  0  0
    1.4287   -3.5452    0.0000 H   0  0  0  0  0  0  0  0  0  0  0  0
    2.3556   -1.9403    0.0000 H   0  0  0  0  0  0  0  0  0  0  0  0
    2.3555   -3.0103    0.0000 H   0  0  0  0  0  0  0  0  0  0  0  0
    0.7146    0.2052    0.0000 H   0  0  0  0  0  0  0  0  0  0  0  0
    0.7139    3.9192    0.0000 H   0  0  0  0  0  0  0  0  0  0  0  0
   -0.8937    1.1335    0.0000 H   0  0  0  0  0  0  0  0  0  0  0  0
   -0.8940    2.9903    0.0000 H   0  0  0  0  0  0  0  0  0  0  0  0
  1  7  1  0  0  0  0
  2  1  1  0  0  0  0
  2 31  1  0  0  0  0
  3  1  2  0  0  0  0
  3 15  1  0  0  0  0
  4  2  2  0  0  0  0
  4 32  1  0  0  0  0
  5  3  1  0  0  0  0
  5 33  1  0  0  0  0
  6  4  1  0  0  0  0
  6  5  2  0  0  0  0
  6 34  1  0  0  0  0
  7  8  1  0  0  0  0
  9  8  1  0  0  0  0
  9 35  1  0  0  0  0
 10  8  2  0  0  0  0
 11  9  2  0  0  0  0
 11 14  1  0  0  0  0
 12 10  1  0  0  0  0
 12 36  1  0  0  0  0
 13 11  1  0  0  0  0
 13 12  2  0  0  0  0
 14 23  1  0  0  0  0
 15 16  1  0  0  0  0
 15 17  2  0  0  0  0
 16 20  1  0  0  0  0
 16 21  2  0  0  0  0
 17 18  1  0  0  0  0
 17 37  1  0  0  0  0
 18 19  1  0  0  0  0
 19 38  1  0  0  0  0
 19 39  1  0  0  0  0
 19 40  1  0  0  0  0
 20 22  1  0  0  0  0
 22 41  1  0  0  0  0
 22 42  1  0  0  0  0
 22 43  1  0  0  0  0
 24 23  1  0  0  0  0
 24 29  1  0  0  0  0
 25 23  2  0  0  0  0
 25 44  1  0  0  0  0
 26 24  2  0  0  0  0
 26 45  1  0  0  0  0
 27 25  1  0  0  0  0
 27 46  1  0  0  0  0
 28 26  1  0  0  0  0
 28 27  2  0  0  0  0
 28 47  1  0  0  0  0
 30 29  3  0  0  0  0
M  END
>  <DRUGBANK_ID>
DB07401

>  <COMMON_NAME>
Azoxystrobin

>  <CAS_NUMBER>
131860-33-8

>  <UNII>
NYH7Y08IPM

$$$$
