1420
 OpenBabel10282417072D

 57 60  0  0  1  0  0  0  0  0999 V2000
    7.1363    1.2335    0.0000 O   0  0  0  0  0  0  0  0  0  0  0  0
    1.6500   -2.3202    0.0000 O   0  0  0  0  0  0  0  0  0  0  0  0
    8.4945    0.7896    0.0000 O   0  0  0  0  0  0  0  0  0  0  0  0
    6.0993   -0.6270    0.0000 C   0  0  2  0  0  0  0  0  0  0  0  0
    6.0993    0.1980    0.0000 C   0  0  2  0  0  0  0  0  0  0  0  0
    5.3849   -1.0395    0.0000 C   0  0  1  0  0  0  0  0  0  0  0  0
    4.6703   -0.6270    0.0000 C   0  0  1  0  0  0  0  0  0  0  0  0
    3.9196   -1.0452    0.0000 C   0  0  2  0  0  0  0  0  0  0  0  0
    5.3849    0.6105    0.0000 C   0  0  0  0  0  0  0  0  0  0  0  0
    4.6703    0.1980    0.0000 C   0  0  0  0  0  0  0  0  0  0  0  0
    6.8799    0.4494    0.0000 C   0  0  2  0  0  0  0  0  0  0  0  0
    6.8799   -0.8785    0.0000 C   0  0  0  0  0  0  0  0  0  0  0  0
    5.3981   -1.8987    0.0000 C   0  0  0  0  0  0  0  0  0  0  0  0
    7.3614   -0.2145    0.0000 C   0  0  0  0  0  0  0  0  0  0  0  0
    3.9130   -1.9045    0.0000 C   0  0  0  0  0  0  0  0  0  0  0  0
    6.0993    1.0230    0.0000 C   0  0  0  0  0  0  0  0  0  0  0  0
    4.6572   -2.3342    0.0000 C   0  0  0  0  0  0  0  0  0  0  0  0
    3.1550   -0.5798    0.0000 C   0  0  0  0  0  0  0  0  0  0  0  0
    3.9259   -0.2202    0.0000 C   0  0  0  0  0  0  0  0  0  0  0  0
    2.3730   -1.0153    0.0000 C   0  0  0  0  0  0  0  0  0  0  0  0
    3.1413   -2.3580    0.0000 C   0  0  0  0  0  0  0  0  0  0  0  0
    2.3660   -1.9105    0.0000 C   0  0  0  0  0  0  0  0  0  0  0  0
    7.9435    1.4037    0.0000 C   0  0  0  0  0  0  0  0  0  0  0  0
    8.1998    2.1879    0.0000 C   0  0  0  0  0  0  0  0  0  0  0  0
    9.0071    2.3580    0.0000 C   0  0  0  0  0  0  0  0  0  0  0  0
    6.1691   -1.2833    0.0000 H   0  0  0  0  0  0  0  0  0  0  0  0
    5.9589   -1.3651    0.0000 H   0  0  0  0  0  0  0  0  0  0  0  0
    5.2420   -0.2970    0.0000 H   0  0  0  0  0  0  0  0  0  0  0  0
    5.3850    1.6805    0.0000 H   0  0  0  0  0  0  0  0  0  0  0  0
    4.4583    1.1456    0.0000 H   0  0  0  0  0  0  0  0  0  0  0  0
    3.7437    0.7330    0.0000 H   0  0  0  0  0  0  0  0  0  0  0  0
    4.6704    1.2680    0.0000 H   0  0  0  0  0  0  0  0  0  0  0  0
    6.1250    1.2077    0.0000 H   0  0  0  0  0  0  0  0  0  0  0  0
    7.2123   -1.8956    0.0000 H   0  0  0  0  0  0  0  0  0  0  0  0
    7.9369   -1.0445    0.0000 H   0  0  0  0  0  0  0  0  0  0  0  0
    6.3309   -2.4229    0.0000 H   0  0  0  0  0  0  0  0  0  0  0  0
    5.4085   -2.9686    0.0000 H   0  0  0  0  0  0  0  0  0  0  0  0
    8.4314   -0.2145    0.0000 H   0  0  0  0  0  0  0  0  0  0  0  0
    7.8476   -1.1676    0.0000 H   0  0  0  0  0  0  0  0  0  0  0  0
    7.0259    1.5580    0.0000 H   0  0  0  0  0  0  0  0  0  0  0  0
    5.1727    1.5580    0.0000 H   0  0  0  0  0  0  0  0  0  0  0  0
    6.0993    2.0930    0.0000 H   0  0  0  0  0  0  0  0  0  0  0  0
    4.6614   -3.4042    0.0000 H   0  0  0  0  0  0  0  0  0  0  0  0
    3.7316   -2.8710    0.0000 H   0  0  0  0  0  0  0  0  0  0  0  0
    3.1757    0.4900    0.0000 H   0  0  0  0  0  0  0  0  0  0  0  0
    2.2378   -0.0288    0.0000 H   0  0  0  0  0  0  0  0  0  0  0  0
    4.8566    0.3077    0.0000 H   0  0  0  0  0  0  0  0  0  0  0  0
    3.0034    0.3219    0.0000 H   0  0  0  0  0  0  0  0  0  0  0  0
    3.9341    0.8498    0.0000 H   0  0  0  0  0  0  0  0  0  0  0  0
    1.4526   -0.4695    0.0000 H   0  0  0  0  0  0  0  0  0  0  0  0
    1.4412   -1.5413    0.0000 H   0  0  0  0  0  0  0  0  0  0  0  0
    3.1453   -3.3900    0.0000 H   0  0  0  0  0  0  0  0  0  0  0  0
    7.4852    2.9843    0.0000 H   0  0  0  0  0  0  0  0  0  0  0  0
    8.5322    3.2049    0.0000 H   0  0  0  0  0  0  0  0  0  0  0  0
    9.7217    1.5616    0.0000 H   0  0  0  0  0  0  0  0  0  0  0  0
    9.3396    3.3750    0.0000 H   0  0  0  0  0  0  0  0  0  0  0  0
   10.0541    2.5786    0.0000 H   0  0  0  0  0  0  0  0  0  0  0  0
  1 23  1  0  0  0  0
  2 22  2  0  0  0  0
  3 23  2  0  0  0  0
  4  5  1  0  0  0  0
  4  6  1  0  0  0  0
  4 12  1  0  0  0  0
  4 26  1  6  0  0  0
  5  9  1  0  0  0  0
  5 11  1  0  0  0  0
  5 16  1  1  0  0  0
  6  7  1  0  0  0  0
  6 13  1  0  0  0  0
  6 27  1  1  0  0  0
  7  8  1  0  0  0  0
  7 10  1  0  0  0  0
  7 28  1  6  0  0  0
  8 15  1  0  0  0  0
  8 18  1  0  0  0  0
  8 19  1  1  0  0  0
  9 10  1  0  0  0  0
  9 29  1  0  0  0  0
  9 30  1  0  0  0  0
 10 31  1  0  0  0  0
 10 32  1  0  0  0  0
 11  1  1  0  0  0  0
 11 14  1  0  0  0  0
 11 33  1  6  0  0  0
 12 14  1  0  0  0  0
 12 34  1  0  0  0  0
 12 35  1  0  0  0  0
 13 17  1  0  0  0  0
 13 36  1  0  0  0  0
 13 37  1  0  0  0  0
 14 38  1  0  0  0  0
 14 39  1  0  0  0  0
 15 17  1  0  0  0  0
 15 21  2  0  0  0  0
 16 40  1  0  0  0  0
 16 41  1  0  0  0  0
 16 42  1  0  0  0  0
 17 43  1  0  0  0  0
 17 44  1  0  0  0  0
 18 20  1  0  0  0  0
 18 45  1  0  0  0  0
 18 46  1  0  0  0  0
 19 47  1  0  0  0  0
 19 48  1  0  0  0  0
 19 49  1  0  0  0  0
 20 22  1  0  0  0  0
 20 50  1  0  0  0  0
 20 51  1  0  0  0  0
 21 22  1  0  0  0  0
 21 52  1  0  0  0  0
 23 24  1  0  0  0  0
 24 25  1  0  0  0  0
 24 53  1  0  0  0  0
 24 54  1  0  0  0  0
 25 55  1  0  0  0  0
 25 56  1  0  0  0  0
 25 57  1  0  0  0  0
M  END
>  <DRUGBANK_ID>
DB01420

>  <SECONDARY_ACCESSION_NUMBERS>
DBSALT001032

>  <COMMON_NAME>
Testosterone propionate

>  <CAS_NUMBER>
57-85-2

>  <UNII>
WI93Z9138A

>  <SYNONYMS>
Testosterone propionate

$$$$
