80A
 OpenBabel10282417072D

 44 46  0  0  0  0  0  0  0  0999 V2000
    0.3570    1.2109    0.0000 C   0  0  0  0  0  0  0  0  0  0  0  0
    0.1854    0.4040    0.0000 C   0  0  0  0  0  0  0  0  0  0  0  0
    0.7985   -0.1481    0.0000 C   0  0  0  0  0  0  0  0  0  0  0  0
    1.5832    0.1069    0.0000 C   0  0  0  0  0  0  0  0  0  0  0  0
    1.7547    0.9138    0.0000 C   0  0  0  0  0  0  0  0  0  0  0  0
    1.1416    1.4659    0.0000 C   0  0  0  0  0  0  0  0  0  0  0  0
    1.3131    2.2728    0.0000 C   0  0  1  0  0  0  0  0  0  0  0  0
    0.7000    2.8249    0.0000 O   0  0  0  0  0  0  0  0  0  0  0  0
    2.0977    2.5278    0.0000 C   0  0  0  0  0  0  0  0  0  0  0  0
    2.7108    1.9757    0.0000 C   0  0  0  0  0  0  0  0  0  0  0  0
    3.4955    2.2307    0.0000 C   0  0  0  0  0  0  0  0  0  0  0  0
    3.6670    3.0377    0.0000 N   0  0  0  0  0  0  0  0  0  0  0  0
    3.0539    3.5897    0.0000 C   0  0  0  0  0  0  0  0  0  0  0  0
    2.2693    3.3348    0.0000 C   0  0  0  0  0  0  0  0  0  0  0  0
    0.6270   -0.9550    0.0000 O   0  0  0  0  0  0  0  0  0  0  0  0
   -0.1576   -1.2100    0.0000 C   0  0  0  0  0  0  0  0  0  0  0  0
   -0.3291   -2.0170    0.0000 C   0  0  0  0  0  0  0  0  0  0  0  0
   -1.1138   -2.2719    0.0000 N   0  0  0  0  0  0  0  0  0  0  0  0
   -1.3687   -3.0565    0.0000 C   0  0  0  0  0  0  0  0  0  0  0  0
   -2.1937   -3.0565    0.0000 C   0  0  0  0  0  0  0  0  0  0  0  0
   -2.4486   -2.2719    0.0000 C   0  0  0  0  0  0  0  0  0  0  0  0
   -1.7812   -1.7870    0.0000 C   0  0  0  0  0  0  0  0  0  0  0  0
    0.7578    2.0924    0.0000 H   0  0  0  0  0  0  0  0  0  0  0  0
   -0.4099    1.9015    0.0000 H   0  0  0  0  0  0  0  0  0  0  0  0
   -0.7961    0.0852    0.0000 H   0  0  0  0  0  0  0  0  0  0  0  0
    2.3501   -0.5836    0.0000 H   0  0  0  0  0  0  0  0  0  0  0  0
    2.7362    1.2327    0.0000 H   0  0  0  0  0  0  0  0  0  0  0  0
    0.9017    3.7737    0.0000 H   0  0  0  0  0  0  0  0  0  0  0  0
    2.4962    0.9663    0.0000 H   0  0  0  0  0  0  0  0  0  0  0  0
    4.2625    1.5402    0.0000 H   0  0  0  0  0  0  0  0  0  0  0  0
    3.2685    4.5991    0.0000 H   0  0  0  0  0  0  0  0  0  0  0  0
    1.5024    4.0254    0.0000 H   0  0  0  0  0  0  0  0  0  0  0  0
   -0.9528   -0.4941    0.0000 H   0  0  0  0  0  0  0  0  0  0  0  0
   -1.1752   -1.5407    0.0000 H   0  0  0  0  0  0  0  0  0  0  0  0
    0.4661   -2.7330    0.0000 H   0  0  0  0  0  0  0  0  0  0  0  0
   -0.5516   -3.0636    0.0000 H   0  0  0  0  0  0  0  0  0  0  0  0
   -0.7398   -3.9221    0.0000 H   0  0  0  0  0  0  0  0  0  0  0  0
   -1.8545   -4.0099    0.0000 H   0  0  0  0  0  0  0  0  0  0  0  0
   -2.8226   -3.9221    0.0000 H   0  0  0  0  0  0  0  0  0  0  0  0
   -3.2505   -2.8891    0.0000 H   0  0  0  0  0  0  0  0  0  0  0  0
   -3.4662   -1.9412    0.0000 H   0  0  0  0  0  0  0  0  0  0  0  0
   -2.6160   -1.2151    0.0000 H   0  0  0  0  0  0  0  0  0  0  0  0
   -1.7812   -0.7170    0.0000 H   0  0  0  0  0  0  0  0  0  0  0  0
   -0.8278   -1.3012    0.0000 H   0  0  0  0  0  0  0  0  0  0  0  0
  1  6  2  0  0  0  0
  1  2  1  0  0  0  0
  1 24  1  0  0  0  0
  2  3  2  0  0  0  0
  2 25  1  0  0  0  0
  3  4  1  0  0  0  0
  3 15  1  0  0  0  0
  4 26  1  0  0  0  0
  5  4  2  0  0  0  0
  5 27  1  0  0  0  0
  6  5  1  0  0  0  0
  7  6  1  0  0  0  0
  7 23  1  6  0  0  0
  7  8  1  0  0  0  0
  8 28  1  0  0  0  0
  9  7  1  0  0  0  0
  9 14  1  0  0  0  0
 10  9  2  0  0  0  0
 10 29  1  0  0  0  0
 11 10  1  0  0  0  0
 11 12  2  0  0  0  0
 11 30  1  0  0  0  0
 12 13  1  0  0  0  0
 13 14  2  0  0  0  0
 13 31  1  0  0  0  0
 14 32  1  0  0  0  0
 16 15  1  0  0  0  0
 16 17  1  0  0  0  0
 16 33  1  0  0  0  0
 16 34  1  0  0  0  0
 17 35  1  0  0  0  0
 17 36  1  0  0  0  0
 18 17  1  0  0  0  0
 18 19  1  0  0  0  0
 19 37  1  0  0  0  0
 19 38  1  0  0  0  0
 20 19  1  0  0  0  0
 20 39  1  0  0  0  0
 20 40  1  0  0  0  0
 21 20  1  0  0  0  0
 21 22  1  0  0  0  0
 21 41  1  0  0  0  0
 21 42  1  0  0  0  0
 22 18  1  0  0  0  0
 22 43  1  0  0  0  0
 22 44  1  0  0  0  0
M  END
>  <DRUGBANK_ID>
DB07258

>  <COMMON_NAME>
(R)-pyridin-4-yl[4-(2-pyrrolidin-1-ylethoxy)phenyl]methanol

$$$$
