
 OpenBabel10282417072D

 70 74  0  0  1  0  0  0  0  0999 V2000
    0.3343    3.3935    0.0000 C   0  0  0  0  0  0  0  0  0  0  0  0
   -0.7145    4.5375    0.0000 C   0  0  0  0  0  0  0  0  0  0  0  0
    0.0000    7.4250    0.0000 C   0  0  0  0  0  0  0  0  0  0  0  0
    1.4289    7.4250    0.0000 C   0  0  0  0  0  0  0  0  0  0  0  0
    0.6165    2.6183    0.0000 C   0  0  0  0  0  0  0  0  0  0  0  0
    7.1447    2.4750    0.0000 C   0  0  0  0  0  0  0  0  0  0  0  0
    6.4302    2.0625    0.0000 C   0  0  0  0  0  0  0  0  0  0  0  0
    7.1447    3.3000    0.0000 C   0  0  0  0  0  0  0  0  0  0  0  0
    3.5724    2.0625    0.0000 C   0  0  0  0  0  0  0  0  0  0  0  0
    1.4289    5.7750    0.0000 C   0  0  0  0  0  0  0  0  0  0  0  0
    2.1434    2.0625    0.0000 C   0  0  0  0  0  0  0  0  0  0  0  0
    1.4289    3.3000    0.0000 C   0  0  0  0  0  0  0  0  0  0  0  0
    0.0000    4.9500    0.0000 C   0  0  1  0  0  0  0  0  0  0  0  0
    2.8579    2.4750    0.0000 C   0  0  0  0  0  0  0  0  0  0  0  0
    5.7158    2.4750    0.0000 C   0  0  0  0  0  0  0  0  0  0  0  0
    4.2868    2.4750    0.0000 C   0  0  0  0  0  0  0  0  0  0  0  0
    0.7145    6.1875    0.0000 C   0  0  1  0  0  0  0  0  0  0  0  0
    6.4302    3.7125    0.0000 C   0  0  0  0  0  0  0  0  0  0  0  0
    2.1434    3.7125    0.0000 C   0  0  1  0  0  0  0  0  0  0  0  0
    1.4289    4.9500    0.0000 C   0  0  1  0  0  0  0  0  0  0  0  0
    2.8579    3.3000    0.0000 C   0  0  0  0  0  0  0  0  0  0  0  0
    5.7158    3.3000    0.0000 C   0  0  0  0  0  0  0  0  0  0  0  0
    4.2868    3.3000    0.0000 C   0  0  0  0  0  0  0  0  0  0  0  0
    0.0000    5.7750    0.0000 C   0  0  2  0  0  0  0  0  0  0  0  0
    5.0013    2.0625    0.0000 C   0  0  0  0  0  0  0  0  0  0  0  0
    3.5724    3.7125    0.0000 C   0  0  0  0  0  0  0  0  0  0  0  0
    5.0013    3.7125    0.0000 C   0  0  0  0  0  0  0  0  0  0  0  0
    1.4289    2.4750    0.0000 C   0  0  2  0  0  0  0  0  0  0  0  0
    0.7145    7.0125    0.0000 N   0  0  0  0  0  0  0  0  0  0  0  0
    6.4302    4.5375    0.0000 O   0  0  0  0  0  0  0  0  0  0  0  0
   -0.7145    6.1875    0.0000 O   0  0  0  0  0  0  0  0  0  0  0  0
    5.0013    1.2375    0.0000 O   0  0  0  0  0  0  0  0  0  0  0  0
    3.5724    4.5375    0.0000 O   0  0  0  0  0  0  0  0  0  0  0  0
    5.0013    4.5375    0.0000 O   0  0  0  0  0  0  0  0  0  0  0  0
    1.1468    1.6998    0.0000 O   0  0  0  0  0  0  0  0  0  0  0  0
    0.7145    4.5375    0.0000 O   0  0  0  0  0  0  0  0  0  0  0  0
    2.1434    4.5375    0.0000 O   0  0  0  0  0  0  0  0  0  0  0  0
   -0.8125    5.0933    0.0000 H   0  0  0  0  0  0  0  0  0  0  0  0
    1.4289    6.6000    0.0000 H   0  0  0  0  0  0  0  0  0  0  0  0
    1.4289    4.1250    0.0000 H   0  0  0  0  0  0  0  0  0  0  0  0
    2.1434    5.3625    0.0000 H   0  0  0  0  0  0  0  0  0  0  0  0
   -0.8125    5.6317    0.0000 H   0  0  0  0  0  0  0  0  0  0  0  0
    1.0220    4.2132    0.0000 H   0  0  0  0  0  0  0  0  0  0  0  0
   -0.7195    3.5792    0.0000 H   0  0  0  0  0  0  0  0  0  0  0  0
   -0.0317    4.3990    0.0000 H   0  0  0  0  0  0  0  0  0  0  0  0
   -1.6411    5.0725    0.0000 H   0  0  0  0  0  0  0  0  0  0  0  0
   -0.7145    3.4675    0.0000 H   0  0  0  0  0  0  0  0  0  0  0  0
   -1.6412    4.0025    0.0000 H   0  0  0  0  0  0  0  0  0  0  0  0
   -0.0000    8.4950    0.0000 H   0  0  0  0  0  0  0  0  0  0  0  0
   -0.9266    6.8900    0.0000 H   0  0  0  0  0  0  0  0  0  0  0  0
   -0.9267    7.9600    0.0000 H   0  0  0  0  0  0  0  0  0  0  0  0
    2.3556    6.8900    0.0000 H   0  0  0  0  0  0  0  0  0  0  0  0
    1.4289    8.4950    0.0000 H   0  0  0  0  0  0  0  0  0  0  0  0
    2.3555    7.9600    0.0000 H   0  0  0  0  0  0  0  0  0  0  0  0
   -0.0713    1.7986    0.0000 H   0  0  0  0  0  0  0  0  0  0  0  0
    0.9824    1.6128    0.0000 H   0  0  0  0  0  0  0  0  0  0  0  0
    8.0384    1.9590    0.0000 H   0  0  0  0  0  0  0  0  0  0  0  0
    6.4302    1.0305    0.0000 H   0  0  0  0  0  0  0  0  0  0  0  0
    8.0384    3.8160    0.0000 H   0  0  0  0  0  0  0  0  0  0  0  0
    3.5724    1.0305    0.0000 H   0  0  0  0  0  0  0  0  0  0  0  0
    2.3556    6.3100    0.0000 H   0  0  0  0  0  0  0  0  0  0  0  0
    2.3555    5.2400    0.0000 H   0  0  0  0  0  0  0  0  0  0  0  0
    2.1434    0.9925    0.0000 H   0  0  0  0  0  0  0  0  0  0  0  0
    1.2168    1.5275    0.0000 H   0  0  0  0  0  0  0  0  0  0  0  0
    0.5023    3.8350    0.0000 H   0  0  0  0  0  0  0  0  0  0  0  0
    0.5023    2.7650    0.0000 H   0  0  0  0  0  0  0  0  0  0  0  0
    7.2417    5.0060    0.0000 H   0  0  0  0  0  0  0  0  0  0  0  0
   -0.7145    7.1575    0.0000 H   0  0  0  0  0  0  0  0  0  0  0  0
    4.3839    5.0060    0.0000 H   0  0  0  0  0  0  0  0  0  0  0  0
    0.1915    1.5313    0.0000 H   0  0  0  0  0  0  0  0  0  0  0  0
  1 43  1  0  0  0  0
  1 44  1  0  0  0  0
  1 45  1  0  0  0  0
  2 46  1  0  0  0  0
  2 47  1  0  0  0  0
  2 48  1  0  0  0  0
  3 49  1  0  0  0  0
  3 50  1  0  0  0  0
  3 51  1  0  0  0  0
  4 52  1  0  0  0  0
  4 53  1  0  0  0  0
  4 54  1  0  0  0  0
  5  1  1  0  0  0  0
  5 55  1  0  0  0  0
  5 56  1  0  0  0  0
  6 57  1  0  0  0  0
  7  6  2  0  0  0  0
  7 58  1  0  0  0  0
  8  6  1  0  0  0  0
  8 59  1  0  0  0  0
  9 60  1  0  0  0  0
 10 61  1  0  0  0  0
 10 62  1  0  0  0  0
 11 63  1  0  0  0  0
 11 64  1  0  0  0  0
 12 65  1  0  0  0  0
 12 66  1  0  0  0  0
 13  2  1  0  0  0  0
 13 38  1  6  0  0  0
 14  9  2  0  0  0  0
 14 11  1  0  0  0  0
 15  7  1  0  0  0  0
 16  9  1  0  0  0  0
 17 10  1  0  0  0  0
 17 29  1  0  0  0  0
 17 39  1  6  0  0  0
 18  8  2  0  0  0  0
 19 12  1  0  0  0  0
 19 37  1  0  0  0  0
 19 40  1  1  0  0  0
 20 10  1  0  0  0  0
 20 37  1  0  0  0  0
 20 41  1  1  0  0  0
 21 14  1  0  0  0  0
 21 19  1  0  0  0  0
 22 15  2  0  0  0  0
 22 18  1  0  0  0  0
 23 16  2  0  0  0  0
 24 13  1  0  0  0  0
 24 17  1  0  0  0  0
 24 31  1  0  0  0  0
 24 42  1  6  0  0  0
 25 15  1  0  0  0  0
 25 16  1  0  0  0  0
 26 21  2  0  0  0  0
 26 23  1  0  0  0  0
 27 22  1  0  0  0  0
 27 23  1  0  0  0  0
 28  5  1  0  0  0  0
 28 11  1  0  0  0  0
 28 12  1  0  0  0  0
 28 35  1  6  0  0  0
 29  3  1  0  0  0  0
 29  4  1  0  0  0  0
 30 18  1  0  0  0  0
 30 67  1  0  0  0  0
 31 68  1  0  0  0  0
 32 25  2  0  0  0  0
 33 26  1  0  0  0  0
 33 69  1  0  0  0  0
 34 27  2  0  0  0  0
 35 70  1  0  0  0  0
 36 13  1  0  0  0  0
 36 20  1  0  0  0  0
M  END
>  <DRUGBANK_ID>
DB04131

>  <SECONDARY_ACCESSION_NUMBERS>
EXPT00485

>  <COMMON_NAME>
10-(4-Dimethylamino-5-Hydroxy-6-Methyl-Tetrahydro-Pyran-2-Yloxy)-8-Ethyl-1,8,11-Trihydroxy-7,8,9,10-Tetrahydro-Naphthacene-5,12-Dione

$$$$
