TLX
 OpenBabel10282417072D

 43 44  0  0  0  0  0  0  0  0999 V2000
   -0.5890   -0.0125    0.0000 N   0  0  0  0  0  0  0  0  0  0  0  0
   -0.5890   -0.8375    0.0000 C   0  0  0  0  0  0  0  0  0  0  0  0
   -1.3035   -1.2500    0.0000 C   0  0  0  0  0  0  0  0  0  0  0  0
   -2.0180   -0.8375    0.0000 C   0  0  0  0  0  0  0  0  0  0  0  0
   -2.0180   -0.0125    0.0000 N   0  0  2  0  0  0  0  0  0  0  0  0
   -2.6311    0.5395    0.0000 C   0  0  0  0  0  0  0  0  0  0  0  0
   -2.2955    1.2932    0.0000 C   0  0  0  0  0  0  0  0  0  0  0  0
   -1.4750    1.2070    0.0000 C   0  0  0  0  0  0  0  0  0  0  0  0
   -1.3035    0.4000    0.0000 C   0  0  1  0  0  0  0  0  0  0  0  0
    0.1254    0.4000    0.0000 C   0  0  0  0  0  0  0  0  0  0  0  0
    0.8399   -0.0125    0.0000 C   0  0  2  0  0  0  0  0  0  0  0  0
    1.5544    0.4000    0.0000 C   0  0  0  0  0  0  0  0  0  0  0  0
    2.2688   -0.0125    0.0000 C   0  0  0  0  0  0  0  0  0  0  0  0
    2.9833    0.4000    0.0000 C   0  0  0  0  0  0  0  0  0  0  0  0
    2.2688   -0.8375    0.0000 C   0  0  0  0  0  0  0  0  0  0  0  0
    0.8399   -0.8375    0.0000 N   0  0  0  0  0  0  0  0  0  0  0  0
   -0.8311    0.7432    0.0000 H   0  0  0  0  0  0  0  0  0  0  0  0
    0.8399    0.5714    0.0000 H   0  0  0  0  0  0  0  0  0  0  0  0
    0.3376   -1.3725    0.0000 H   0  0  0  0  0  0  0  0  0  0  0  0
   -0.5890   -1.9075    0.0000 H   0  0  0  0  0  0  0  0  0  0  0  0
   -1.3035   -2.3200    0.0000 H   0  0  0  0  0  0  0  0  0  0  0  0
   -2.2301   -1.7850    0.0000 H   0  0  0  0  0  0  0  0  0  0  0  0
   -2.9446   -1.3725    0.0000 H   0  0  0  0  0  0  0  0  0  0  0  0
   -2.9446   -0.3025    0.0000 H   0  0  0  0  0  0  0  0  0  0  0  0
   -3.6777    0.3170    0.0000 H   0  0  0  0  0  0  0  0  0  0  0  0
   -3.3045    1.3711    0.0000 H   0  0  0  0  0  0  0  0  0  0  0  0
   -2.8305    2.2198    0.0000 H   0  0  0  0  0  0  0  0  0  0  0  0
   -1.7128    2.1906    0.0000 H   0  0  0  0  0  0  0  0  0  0  0  0
   -0.7590    2.0022    0.0000 H   0  0  0  0  0  0  0  0  0  0  0  0
   -0.4415    0.9300    0.0000 H   0  0  0  0  0  0  0  0  0  0  0  0
    0.1254    1.4700    0.0000 H   0  0  0  0  0  0  0  0  0  0  0  0
    1.0520    0.9350    0.0000 H   0  0  0  0  0  0  0  0  0  0  0  0
    1.5544    1.4700    0.0000 H   0  0  0  0  0  0  0  0  0  0  0  0
    2.4811    0.9350    0.0000 H   0  0  0  0  0  0  0  0  0  0  0  0
    3.1954   -0.5475    0.0000 H   0  0  0  0  0  0  0  0  0  0  0  0
    3.9099   -0.1350    0.0000 H   0  0  0  0  0  0  0  0  0  0  0  0
    2.9833    1.4700    0.0000 H   0  0  0  0  0  0  0  0  0  0  0  0
    3.9100    0.9350    0.0000 H   0  0  0  0  0  0  0  0  0  0  0  0
    1.3422   -1.3725    0.0000 H   0  0  0  0  0  0  0  0  0  0  0  0
    3.1954   -1.3725    0.0000 H   0  0  0  0  0  0  0  0  0  0  0  0
    2.2688   -1.9075    0.0000 H   0  0  0  0  0  0  0  0  0  0  0  0
   -0.0434   -1.3475    0.0000 H   0  0  0  0  0  0  0  0  0  0  0  0
    1.7232   -1.3475    0.0000 H   0  0  0  0  0  0  0  0  0  0  0  0
  1  2  1  0  0  0  0
  1  9  1  0  0  0  0
  1 10  1  0  0  0  0
  2  3  1  0  0  0  0
  2 19  1  0  0  0  0
  2 20  1  0  0  0  0
  3  4  1  0  0  0  0
  3 21  1  0  0  0  0
  3 22  1  0  0  0  0
  4 23  1  0  0  0  0
  4 24  1  0  0  0  0
  5  4  1  6  0  0  0
  5  6  1  0  0  0  0
  5  9  1  0  0  0  0
  6  7  1  0  0  0  0
  6 25  1  0  0  0  0
  6 26  1  0  0  0  0
  7  8  1  0  0  0  0
  7 27  1  0  0  0  0
  7 28  1  0  0  0  0
  8  9  1  0  0  0  0
  8 29  1  0  0  0  0
  8 30  1  0  0  0  0
  9 17  1  6  0  0  0
 10 11  1  0  0  0  0
 10 31  1  0  0  0  0
 10 32  1  0  0  0  0
 11 12  1  0  0  0  0
 11 16  1  0  0  0  0
 11 18  1  1  0  0  0
 12 13  1  0  0  0  0
 12 33  1  0  0  0  0
 12 34  1  0  0  0  0
 13 14  1  0  0  0  0
 13 15  1  0  0  0  0
 13 35  1  0  0  0  0
 14 36  1  0  0  0  0
 14 37  1  0  0  0  0
 14 38  1  0  0  0  0
 15 39  1  0  0  0  0
 15 40  1  0  0  0  0
 15 41  1  0  0  0  0
 16 42  1  0  0  0  0
 16 43  1  0  0  0  0
M  END
>  <DRUGBANK_ID>
DB08629

>  <COMMON_NAME>
N1-(2-AMINO-4-METHYLPENTYL)OCTAHYDRO-PYRROLO[1,2-A] PYRIMIDINE

$$$$
