
 OpenBabel10282417072D

 19 18  0  0  1  0  0  0  0  0999 V2000
   10.3181  -13.2426    0.0000 C   0  0  0  0  0  0  0  0  0  0  0  0
   11.1430  -13.2426    0.0000 C   0  0  0  0  0  0  0  0  0  0  0  0
    9.9056  -13.9572    0.0000 C   0  0  1  0  0  0  0  0  0  0  0  0
   10.3181  -14.6717    0.0000 C   0  0  0  0  0  0  0  0  0  0  0  0
    9.0807  -13.9572    0.0000 N   0  0  0  0  0  0  0  0  0  0  0  0
   12.3804  -12.5281    0.0000 N   0  0  0  0  0  0  0  0  0  0  0  0
    9.9056  -15.3862    0.0000 O   0  0  0  0  0  0  0  0  0  0  0  0
   11.1430  -14.6717    0.0000 O   0  0  0  0  0  0  0  0  0  0  0  0
   11.5555  -12.5281    0.0000 O   0  0  0  0  0  0  0  0  0  0  0  0
    9.7831  -12.3160    0.0000 H   0  0  0  0  0  0  0  0  0  0  0  0
   10.8531  -12.3159    0.0000 H   0  0  0  0  0  0  0  0  0  0  0  0
   11.6780  -14.1692    0.0000 H   0  0  0  0  0  0  0  0  0  0  0  0
   12.2130  -13.2426    0.0000 H   0  0  0  0  0  0  0  0  0  0  0  0
    9.3706  -13.0306    0.0000 H   0  0  0  0  0  0  0  0  0  0  0  0
    8.5707  -13.0739    0.0000 H   0  0  0  0  0  0  0  0  0  0  0  0
    8.5707  -14.8405    0.0000 H   0  0  0  0  0  0  0  0  0  0  0  0
   12.8904  -13.4114    0.0000 H   0  0  0  0  0  0  0  0  0  0  0  0
   12.8904  -11.6448    0.0000 H   0  0  0  0  0  0  0  0  0  0  0  0
    8.9686  -15.3862    0.0000 H   0  0  0  0  0  0  0  0  0  0  0  0
  1  3  1  0  0  0  0
  1  2  1  0  0  0  0
  1 10  1  0  0  0  0
  1 11  1  0  0  0  0
  2  9  1  0  0  0  0
  2 12  1  0  0  0  0
  2 13  1  0  0  0  0
  3  5  1  0  0  0  0
  3  4  1  0  0  0  0
  3 14  1  6  0  0  0
  4  7  1  0  0  0  0
  4  8  2  0  0  0  0
  5 15  1  0  0  0  0
  5 16  1  0  0  0  0
  6  9  1  0  0  0  0
  6 17  1  0  0  0  0
  6 18  1  0  0  0  0
  7 19  1  0  0  0  0
M  END
>  <DRUGBANK_ID>
DB02821

>  <SECONDARY_ACCESSION_NUMBERS>
EXPT00828

>  <COMMON_NAME>
Canaline

>  <CAS_NUMBER>
496-93-5

>  <UNII>
T7H2XP1ZNS

$$$$
