
 OpenBabel10282417072D

 26 27  0  0  0  0  0  0  0  0999 V2000
    1.4289    3.3000    0.0000 C   0  0  0  0  0  0  0  0  0  0  0  0
    2.1434    3.7125    0.0000 C   0  0  0  0  0  0  0  0  0  0  0  0
    0.7145    3.7125    0.0000 C   0  0  0  0  0  0  0  0  0  0  0  0
    2.8579    8.2500    0.0000 C   0  0  0  0  0  0  0  0  0  0  0  0
    2.1434    8.6625    0.0000 C   0  0  0  0  0  0  0  0  0  0  0  0
    2.1434    4.5375    0.0000 C   0  0  0  0  0  0  0  0  0  0  0  0
    0.7145    4.5375    0.0000 C   0  0  0  0  0  0  0  0  0  0  0  0
    2.8579    7.4250    0.0000 C   0  0  0  0  0  0  0  0  0  0  0  0
    1.4289    8.2500    0.0000 C   0  0  0  0  0  0  0  0  0  0  0  0
    1.4289    4.9500    0.0000 C   0  0  0  0  0  0  0  0  0  0  0  0
    2.1434    7.0125    0.0000 C   0  0  0  0  0  0  0  0  0  0  0  0
    1.4289    7.4250    0.0000 C   0  0  0  0  0  0  0  0  0  0  0  0
    2.1434    6.1875    0.0000 C   0  0  0  0  0  0  0  0  0  0  0  0
    0.7145    7.0125    0.0000 O   0  0  0  0  0  0  0  0  0  0  0  0
    2.8579    5.7750    0.0000 O   0  0  0  0  0  0  0  0  0  0  0  0
    1.4289    5.7750    0.0000 O   0  0  0  0  0  0  0  0  0  0  0  0
    1.4289    2.2680    0.0000 H   0  0  0  0  0  0  0  0  0  0  0  0
    3.0371    3.1965    0.0000 H   0  0  0  0  0  0  0  0  0  0  0  0
   -0.1792    3.1965    0.0000 H   0  0  0  0  0  0  0  0  0  0  0  0
    3.7516    8.7660    0.0000 H   0  0  0  0  0  0  0  0  0  0  0  0
    2.1434    9.6945    0.0000 H   0  0  0  0  0  0  0  0  0  0  0  0
    3.0371    5.0535    0.0000 H   0  0  0  0  0  0  0  0  0  0  0  0
   -0.1792    5.0535    0.0000 H   0  0  0  0  0  0  0  0  0  0  0  0
    3.7516    6.9090    0.0000 H   0  0  0  0  0  0  0  0  0  0  0  0
    0.5352    8.7660    0.0000 H   0  0  0  0  0  0  0  0  0  0  0  0
   -0.0970    7.4810    0.0000 H   0  0  0  0  0  0  0  0  0  0  0  0
  1 17  1  0  0  0  0
  2  1  2  0  0  0  0
  2 18  1  0  0  0  0
  3  1  1  0  0  0  0
  3 19  1  0  0  0  0
  4 20  1  0  0  0  0
  5  4  2  0  0  0  0
  5 21  1  0  0  0  0
  6  2  1  0  0  0  0
  6 22  1  0  0  0  0
  7  3  2  0  0  0  0
  7 23  1  0  0  0  0
  8  4  1  0  0  0  0
  8 24  1  0  0  0  0
  9  5  1  0  0  0  0
  9 25  1  0  0  0  0
 10  6  2  0  0  0  0
 10  7  1  0  0  0  0
 11  8  2  0  0  0  0
 12  9  2  0  0  0  0
 12 11  1  0  0  0  0
 13 11  1  0  0  0  0
 14 12  1  0  0  0  0
 14 26  1  0  0  0  0
 15 13  2  0  0  0  0
 16 10  1  0  0  0  0
 16 13  1  0  0  0  0
M  END
>  <DRUGBANK_ID>
DB11071

>  <COMMON_NAME>
Phenyl salicylate

>  <CAS_NUMBER>
118-55-8

>  <UNII>
28A37T47QO

>  <SYNONYMS>
Salol

$$$$
