7NH
 OpenBabel10282417072D

 45 48  0  0  0  0  0  0  0  0999 V2000
    3.7971   -1.0726    0.0000 N   0  0  0  0  0  0  0  0  0  0  0  0
    3.7971   -1.8976    0.0000 C   0  0  0  0  0  0  0  0  0  0  0  0
    3.0826   -2.3101    0.0000 C   0  0  0  0  0  0  0  0  0  0  0  0
    2.3682   -1.8976    0.0000 C   0  0  0  0  0  0  0  0  0  0  0  0
    2.3682   -1.0726    0.0000 C   0  0  0  0  0  0  0  0  0  0  0  0
    3.0826   -0.6601    0.0000 C   0  0  0  0  0  0  0  0  0  0  0  0
    1.5836   -2.1525    0.0000 N   0  0  0  0  0  0  0  0  0  0  0  0
    1.5836   -0.8176    0.0000 C   0  0  0  0  0  0  0  0  0  0  0  0
    1.0986   -1.4851    0.0000 C   0  0  0  0  0  0  0  0  0  0  0  0
    0.2736   -1.4851    0.0000 C   0  0  0  0  0  0  0  0  0  0  0  0
   -0.1389   -2.1995    0.0000 C   0  0  0  0  0  0  0  0  0  0  0  0
   -0.9639   -2.1995    0.0000 C   0  0  0  0  0  0  0  0  0  0  0  0
   -1.3764   -1.4851    0.0000 C   0  0  0  0  0  0  0  0  0  0  0  0
   -0.9639   -0.7706    0.0000 C   0  0  0  0  0  0  0  0  0  0  0  0
   -0.1389   -0.7706    0.0000 C   0  0  0  0  0  0  0  0  0  0  0  0
    0.2736   -0.0561    0.0000 O   0  0  0  0  0  0  0  0  0  0  0  0
   -1.3764   -0.0561    0.0000 C   0  0  0  0  0  0  0  0  0  0  0  0
   -2.2014   -0.0561    0.0000 C   0  0  0  0  0  0  0  0  0  0  0  0
   -2.6139    0.6583    0.0000 C   0  0  0  0  0  0  0  0  0  0  0  0
   -2.2014    1.3728    0.0000 C   0  0  0  0  0  0  0  0  0  0  0  0
   -1.3764    1.3728    0.0000 C   0  0  0  0  0  0  0  0  0  0  0  0
   -0.9639    0.6583    0.0000 C   0  0  0  0  0  0  0  0  0  0  0  0
   -0.9639    2.0873    0.0000 C   0  0  0  0  0  0  0  0  0  0  0  0
   -1.3764    2.8018    0.0000 N   0  0  0  0  0  0  0  0  0  0  0  0
   -0.9639    3.5162    0.0000 C   0  0  0  0  0  0  0  0  0  0  0  0
   -1.3764    4.2307    0.0000 O   0  0  0  0  0  0  0  0  0  0  0  0
   -0.1389    3.5162    0.0000 N   0  0  0  0  0  0  0  0  0  0  0  0
    4.6908   -2.4136    0.0000 H   0  0  0  0  0  0  0  0  0  0  0  0
    3.0826   -3.3421    0.0000 H   0  0  0  0  0  0  0  0  0  0  0  0
    3.0826    0.3719    0.0000 H   0  0  0  0  0  0  0  0  0  0  0  0
    1.2794   -3.0888    0.0000 H   0  0  0  0  0  0  0  0  0  0  0  0
    1.2647    0.1639    0.0000 H   0  0  0  0  0  0  0  0  0  0  0  0
    0.3771   -3.0932    0.0000 H   0  0  0  0  0  0  0  0  0  0  0  0
   -1.4799   -3.0932    0.0000 H   0  0  0  0  0  0  0  0  0  0  0  0
   -2.4084   -1.4851    0.0000 H   0  0  0  0  0  0  0  0  0  0  0  0
    1.2106   -0.0561    0.0000 H   0  0  0  0  0  0  0  0  0  0  0  0
   -2.7174   -0.9498    0.0000 H   0  0  0  0  0  0  0  0  0  0  0  0
   -3.6459    0.6583    0.0000 H   0  0  0  0  0  0  0  0  0  0  0  0
   -2.7174    2.2665    0.0000 H   0  0  0  0  0  0  0  0  0  0  0  0
    0.0681    0.6583    0.0000 H   0  0  0  0  0  0  0  0  0  0  0  0
    0.1061    2.0873    0.0000 H   0  0  0  0  0  0  0  0  0  0  0  0
   -0.4289    3.0139    0.0000 H   0  0  0  0  0  0  0  0  0  0  0  0
   -2.3609    2.8018    0.0000 H   0  0  0  0  0  0  0  0  0  0  0  0
    0.3534    2.6636    0.0000 H   0  0  0  0  0  0  0  0  0  0  0  0
    0.3533    4.3688    0.0000 H   0  0  0  0  0  0  0  0  0  0  0  0
  1  2  1  0  0  0  0
  1  6  2  0  0  0  0
  2  3  2  0  0  0  0
  2 28  1  0  0  0  0
  3  4  1  0  0  0  0
  3 29  1  0  0  0  0
  4  5  2  0  0  0  0
  4  7  1  0  0  0  0
  5  6  1  0  0  0  0
  5  8  1  0  0  0  0
  6 30  1  0  0  0  0
  7  9  1  0  0  0  0
  7 31  1  0  0  0  0
  8  9  2  0  0  0  0
  8 32  1  0  0  0  0
  9 10  1  0  0  0  0
 10 11  2  0  0  0  0
 10 15  1  0  0  0  0
 11 12  1  0  0  0  0
 11 33  1  0  0  0  0
 12 13  2  0  0  0  0
 12 34  1  0  0  0  0
 13 14  1  0  0  0  0
 13 35  1  0  0  0  0
 14 15  2  0  0  0  0
 14 17  1  0  0  0  0
 15 16  1  0  0  0  0
 16 36  1  0  0  0  0
 17 18  2  0  0  0  0
 17 22  1  0  0  0  0
 18 19  1  0  0  0  0
 18 37  1  0  0  0  0
 19 20  2  0  0  0  0
 19 38  1  0  0  0  0
 20 21  1  0  0  0  0
 20 39  1  0  0  0  0
 21 22  2  0  0  0  0
 21 23  1  0  0  0  0
 22 40  1  0  0  0  0
 23 24  1  0  0  0  0
 23 41  1  0  0  0  0
 23 42  1  0  0  0  0
 24 25  1  0  0  0  0
 24 43  1  0  0  0  0
 25 26  2  0  0  0  0
 25 27  1  0  0  0  0
 27 44  1  0  0  0  0
 27 45  1  0  0  0  0
M  END
>  <DRUGBANK_ID>
DB07247

>  <COMMON_NAME>
[2'-HYDROXY-3'-(1H-PYRROLO[3,2-C]PYRIDIN-2-YL)-BIPHENYL-3-YLMETHYL]-UREA

$$$$
