1533
 OpenBabel10282417072D

 40 41  0  0  1  0  0  0  0  0999 V2000
    5.9762   -0.3195    0.0000 S   0  0  0  0  0  0  0  0  0  0  0  0
    3.8405   -1.7065    0.0000 S   0  0  0  0  0  0  0  0  0  0  0  0
    3.0791    1.2535    0.0000 N   0  0  0  0  0  0  0  0  0  0  0  0
    3.7935    0.8410    0.0000 C   0  0  3  0  0  0  0  0  0  0  0  0
    2.3645    0.8410    0.0000 C   0  0  0  0  0  0  0  0  0  0  0  0
    3.0791    2.0786    0.0000 C   0  0  0  0  0  0  0  0  0  0  0  0
    3.7935    0.0160    0.0000 C   0  0  0  0  0  0  0  0  0  0  0  0
    4.5080    1.2535    0.0000 C   0  0  0  0  0  0  0  0  0  0  0  0
    4.5080   -0.3965    0.0000 C   0  0  0  0  0  0  0  0  0  0  0  0
    1.6500    1.2535    0.0000 C   0  0  0  0  0  0  0  0  0  0  0  0
    2.3645    2.4911    0.0000 C   0  0  0  0  0  0  0  0  0  0  0  0
    5.2224    0.0160    0.0000 C   0  0  0  0  0  0  0  0  0  0  0  0
    4.5080   -1.2215    0.0000 C   0  0  0  0  0  0  0  0  0  0  0  0
    5.3087    0.8365    0.0000 C   0  0  0  0  0  0  0  0  0  0  0  0
    5.1754   -1.7065    0.0000 C   0  0  0  0  0  0  0  0  0  0  0  0
    6.1157    1.0081    0.0000 C   0  0  0  0  0  0  0  0  0  0  0  0
    4.9205   -2.4911    0.0000 C   0  0  0  0  0  0  0  0  0  0  0  0
    6.5282    0.2935    0.0000 C   0  0  0  0  0  0  0  0  0  0  0  0
    4.0955   -2.4911    0.0000 C   0  0  0  0  0  0  0  0  0  0  0  0
    2.8668    0.3060    0.0000 H   0  0  0  0  0  0  0  0  0  0  0  0
    2.3645   -0.2290    0.0000 H   0  0  0  0  0  0  0  0  0  0  0  0
    1.4378    0.3060    0.0000 H   0  0  0  0  0  0  0  0  0  0  0  0
    4.0057    2.6136    0.0000 H   0  0  0  0  0  0  0  0  0  0  0  0
    3.0790    3.1486    0.0000 H   0  0  0  0  0  0  0  0  0  0  0  0
    2.8998   -0.5000    0.0000 H   0  0  0  0  0  0  0  0  0  0  0  0
    5.4346    0.7185    0.0000 H   0  0  0  0  0  0  0  0  0  0  0  0
    4.5080    2.3235    0.0000 H   0  0  0  0  0  0  0  0  0  0  0  0
    5.4347    1.7885    0.0000 H   0  0  0  0  0  0  0  0  0  0  0  0
    1.6500    2.3235    0.0000 H   0  0  0  0  0  0  0  0  0  0  0  0
    0.7234    0.7185    0.0000 H   0  0  0  0  0  0  0  0  0  0  0  0
    0.7233    1.7885    0.0000 H   0  0  0  0  0  0  0  0  0  0  0  0
    2.3644    3.5611    0.0000 H   0  0  0  0  0  0  0  0  0  0  0  0
    1.4379    1.9560    0.0000 H   0  0  0  0  0  0  0  0  0  0  0  0
    1.4378    3.0260    0.0000 H   0  0  0  0  0  0  0  0  0  0  0  0
    4.5418    1.5270    0.0000 H   0  0  0  0  0  0  0  0  0  0  0  0
    6.1569   -1.3876    0.0000 H   0  0  0  0  0  0  0  0  0  0  0  0
    6.5355    1.9509    0.0000 H   0  0  0  0  0  0  0  0  0  0  0  0
    5.5271   -3.3260    0.0000 H   0  0  0  0  0  0  0  0  0  0  0  0
    7.5545    0.1856    0.0000 H   0  0  0  0  0  0  0  0  0  0  0  0
    3.4889   -3.3260    0.0000 H   0  0  0  0  0  0  0  0  0  0  0  0
  1 12  1  0  0  0  0
  1 18  1  0  0  0  0
  2 13  1  0  0  0  0
  2 19  1  0  0  0  0
  3  4  1  0  0  0  0
  3  5  1  0  0  0  0
  3  6  1  0  0  0  0
  4  7  1  0  0  0  0
  4  8  1  0  0  0  0
  4 20  1  0  0  0  0
  5 10  1  0  0  0  0
  5 21  1  0  0  0  0
  5 22  1  0  0  0  0
  6 11  1  0  0  0  0
  6 23  1  0  0  0  0
  6 24  1  0  0  0  0
  7  9  2  0  0  0  0
  7 25  1  0  0  0  0
  8 26  1  0  0  0  0
  8 27  1  0  0  0  0
  8 28  1  0  0  0  0
  9 12  1  0  0  0  0
  9 13  1  0  0  0  0
 10 29  1  0  0  0  0
 10 30  1  0  0  0  0
 10 31  1  0  0  0  0
 11 32  1  0  0  0  0
 11 33  1  0  0  0  0
 11 34  1  0  0  0  0
 12 14  2  0  0  0  0
 13 15  2  0  0  0  0
 14 16  1  0  0  0  0
 14 35  1  0  0  0  0
 15 17  1  0  0  0  0
 15 36  1  0  0  0  0
 16 18  2  0  0  0  0
 16 37  1  0  0  0  0
 17 19  2  0  0  0  0
 17 38  1  0  0  0  0
 18 39  1  0  0  0  0
 19 40  1  0  0  0  0
M  END
>  <DRUGBANK_ID>
DB01533

>  <COMMON_NAME>
Diethylthiambutene

>  <CAS_NUMBER>
86-14-6

>  <UNII>
2Z91X9052O

>  <SYNONYMS>
Diethylthiambutene

$$$$
