
 OpenBabel10282417072D

120126  0  0  1  0  0  0  0  0999 V2000
   -9.3861   13.3433    0.0000 C   0  0  0  0  0  0  0  0  0  0  0  0
   -8.8558   12.4248    0.0000 C   0  0  0  0  0  0  0  0  0  0  0  0
   -4.2868   -1.6500    0.0000 C   0  0  0  0  0  0  0  0  0  0  0  0
   -3.5724   -1.2375    0.0000 C   0  0  0  0  0  0  0  0  0  0  0  0
   -5.0013   -1.2375    0.0000 C   0  0  0  0  0  0  0  0  0  0  0  0
   -3.5724   -0.4125    0.0000 C   0  0  0  0  0  0  0  0  0  0  0  0
   -5.0013   -0.4125    0.0000 C   0  0  0  0  0  0  0  0  0  0  0  0
   -5.7158   14.0250    0.0000 C   0  0  0  0  0  0  0  0  0  0  0  0
   -6.4302   15.2625    0.0000 C   0  0  0  0  0  0  0  0  0  0  0  0
   -5.7158    8.2500    0.0000 C   0  0  0  0  0  0  0  0  0  0  0  0
   -7.1447    8.2500    0.0000 C   0  0  0  0  0  0  0  0  0  0  0  0
   -5.0013   14.4375    0.0000 C   0  0  0  0  0  0  0  0  0  0  0  0
   -5.7158   15.6750    0.0000 C   0  0  0  0  0  0  0  0  0  0  0  0
   -5.7158    9.0750    0.0000 C   0  0  0  0  0  0  0  0  0  0  0  0
   -7.1447    9.0750    0.0000 C   0  0  0  0  0  0  0  0  0  0  0  0
   -5.0013    4.5375    0.0000 C   0  0  0  0  0  0  0  0  0  0  0  0
   -5.0013    3.7125    0.0000 C   0  0  0  0  0  0  0  0  0  0  0  0
   -7.8592   14.4375    0.0000 C   0  0  0  0  0  0  0  0  0  0  0  0
   -4.2868    2.4750    0.0000 C   0  0  0  0  0  0  0  0  0  0  0  0
   -8.5737   14.0250    0.0000 C   0  0  0  0  0  0  0  0  0  0  0  0
   -4.2868    3.3000    0.0000 C   0  0  0  0  0  0  0  0  0  0  0  0
   -7.1447   11.5500    0.0000 C   0  0  0  0  0  0  0  0  0  0  0  0
   -5.7158   11.5500    0.0000 C   0  0  0  0  0  0  0  0  0  0  0  0
   -7.1447   10.7250    0.0000 C   0  0  0  0  0  0  0  0  0  0  0  0
   -5.7158   10.7250    0.0000 C   0  0  0  0  0  0  0  0  0  0  0  0
   -2.8579    3.3000    0.0000 C   0  0  0  0  0  0  0  0  0  0  0  0
   -3.5724    4.5375    0.0000 C   0  0  0  0  0  0  0  0  0  0  0  0
   -2.1434    3.7125    0.0000 C   0  0  0  0  0  0  0  0  0  0  0  0
   -2.8579    4.9500    0.0000 C   0  0  0  0  0  0  0  0  0  0  0  0
   -6.4302    4.5375    0.0000 C   0  0  0  0  0  0  0  0  0  0  0  0
   -7.8592   12.7875    0.0000 C   0  0  0  0  0  0  0  0  0  0  0  0
   -6.4302   12.7875    0.0000 C   0  0  0  0  0  0  0  0  0  0  0  0
   -5.0013    1.2375    0.0000 C   0  0  0  0  0  0  0  0  0  0  0  0
   -6.4302   14.4375    0.0000 C   0  0  0  0  0  0  0  0  0  0  0  0
   -6.4302    7.8375    0.0000 C   0  0  0  0  0  0  0  0  0  0  0  0
   -7.1447   13.2000    0.0000 C   0  0  0  0  0  0  0  0  0  0  0  0
   -5.0013   15.2625    0.0000 C   0  0  0  0  0  0  0  0  0  0  0  0
   -5.0013    2.0625    0.0000 C   0  0  2  0  0  0  0  0  0  0  0  0
   -6.4302    9.4875    0.0000 C   0  0  0  0  0  0  0  0  0  0  0  0
   -4.2868    0.0000    0.0000 C   0  0  0  0  0  0  0  0  0  0  0  0
   -5.7158    4.9500    0.0000 C   0  0  0  0  0  0  0  0  0  0  0  0
   -7.1447   14.0250    0.0000 C   0  0  0  0  0  0  0  0  0  0  0  0
   -5.7158    3.3000    0.0000 C   0  0  0  0  0  0  0  0  0  0  0  0
   -6.4302    3.7125    0.0000 C   0  0  0  0  0  0  0  0  0  0  0  0
   -6.4302    7.0125    0.0000 C   0  0  0  0  0  0  0  0  0  0  0  0
   -8.5737   13.2000    0.0000 C   0  0  0  0  0  0  0  0  0  0  0  0
   -7.5572    4.0145    0.0000 C   0  0  0  0  0  0  0  0  0  0  0  0
   -4.2868   15.6750    0.0000 Cl  0  0  0  0  0  0  0  0  0  0  0  0
   -7.9697    4.7289    0.0000 F   0  0  0  0  0  0  0  0  0  0  0  0
   -6.8427    4.4270    0.0000 F   0  0  0  0  0  0  0  0  0  0  0  0
   -8.2717    3.6020    0.0000 F   0  0  0  0  0  0  0  0  0  0  0  0
   -5.7158    2.4750    0.0000 N   0  0  0  0  0  0  0  0  0  0  0  0
   -5.7158    6.6000    0.0000 N   0  0  0  0  0  0  0  0  0  0  0  0
   -3.5724    3.7125    0.0000 N   0  0  0  0  0  0  0  0  0  0  0  0
   -6.4302   11.9625    0.0000 N   0  0  0  0  0  0  0  0  0  0  0  0
   -6.4302   10.3125    0.0000 N   0  0  0  0  0  0  0  0  0  0  0  0
   -7.1447    6.6000    0.0000 O   0  0  0  0  0  0  0  0  0  0  0  0
   -6.7322    2.5855    0.0000 O   0  0  0  0  0  0  0  0  0  0  0  0
   -7.8592    2.8875    0.0000 O   0  0  0  0  0  0  0  0  0  0  0  0
   -6.5408    5.7750    0.0000 O   0  0  0  0  0  0  0  0  0  0  0  0
   -4.8908    5.7750    0.0000 O   0  0  0  0  0  0  0  0  0  0  0  0
   -2.1434    4.5375    0.0000 O   0  0  0  0  0  0  0  0  0  0  0  0
   -4.2868    0.8250    0.0000 S   0  0  0  0  0  0  0  0  0  0  0  0
   -7.1447    3.3000    0.0000 S   0  0  0  0  0  0  0  0  0  0  0  0
   -5.7158    5.7750    0.0000 S   0  0  0  0  0  0  0  0  0  0  0  0
   -4.2868    1.6500    0.0000 H   0  0  0  0  0  0  0  0  0  0  0  0
   -9.7520   14.3488    0.0000 H   0  0  0  0  0  0  0  0  0  0  0  0
  -10.0739   12.5237    0.0000 H   0  0  0  0  0  0  0  0  0  0  0  0
  -10.4398   13.5292    0.0000 H   0  0  0  0  0  0  0  0  0  0  0  0
   -9.9095   12.2389    0.0000 H   0  0  0  0  0  0  0  0  0  0  0  0
   -8.1680   11.6052    0.0000 H   0  0  0  0  0  0  0  0  0  0  0  0
   -9.2217   11.4193    0.0000 H   0  0  0  0  0  0  0  0  0  0  0  0
   -4.2868   -2.6820    0.0000 H   0  0  0  0  0  0  0  0  0  0  0  0
   -2.6787   -1.7535    0.0000 H   0  0  0  0  0  0  0  0  0  0  0  0
   -5.8950   -1.7535    0.0000 H   0  0  0  0  0  0  0  0  0  0  0  0
   -2.6787    0.1035    0.0000 H   0  0  0  0  0  0  0  0  0  0  0  0
   -5.8950    0.1035    0.0000 H   0  0  0  0  0  0  0  0  0  0  0  0
   -5.7158   12.9930    0.0000 H   0  0  0  0  0  0  0  0  0  0  0  0
   -7.3239   15.7785    0.0000 H   0  0  0  0  0  0  0  0  0  0  0  0
   -4.8221    7.7340    0.0000 H   0  0  0  0  0  0  0  0  0  0  0  0
   -8.0384    7.7340    0.0000 H   0  0  0  0  0  0  0  0  0  0  0  0
   -4.1076   13.9215    0.0000 H   0  0  0  0  0  0  0  0  0  0  0  0
   -5.7158   16.7070    0.0000 H   0  0  0  0  0  0  0  0  0  0  0  0
   -4.8221    9.5910    0.0000 H   0  0  0  0  0  0  0  0  0  0  0  0
   -8.0384    9.5910    0.0000 H   0  0  0  0  0  0  0  0  0  0  0  0
   -4.1076    5.0535    0.0000 H   0  0  0  0  0  0  0  0  0  0  0  0
   -4.1076    3.1965    0.0000 H   0  0  0  0  0  0  0  0  0  0  0  0
   -7.8592   15.5075    0.0000 H   0  0  0  0  0  0  0  0  0  0  0  0
   -6.9326   14.9725    0.0000 H   0  0  0  0  0  0  0  0  0  0  0  0
   -3.3602    1.9400    0.0000 H   0  0  0  0  0  0  0  0  0  0  0  0
   -4.2868    1.4050    0.0000 H   0  0  0  0  0  0  0  0  0  0  0  0
   -9.5003   14.5600    0.0000 H   0  0  0  0  0  0  0  0  0  0  0  0
   -9.5003   13.4900    0.0000 H   0  0  0  0  0  0  0  0  0  0  0  0
   -5.2135    3.8350    0.0000 H   0  0  0  0  0  0  0  0  0  0  0  0
   -4.2868    4.3700    0.0000 H   0  0  0  0  0  0  0  0  0  0  0  0
   -8.0713   12.0850    0.0000 H   0  0  0  0  0  0  0  0  0  0  0  0
   -7.1447   12.6200    0.0000 H   0  0  0  0  0  0  0  0  0  0  0  0
   -4.7891   12.0850    0.0000 H   0  0  0  0  0  0  0  0  0  0  0  0
   -5.7158   12.6200    0.0000 H   0  0  0  0  0  0  0  0  0  0  0  0
   -8.0713   10.1900    0.0000 H   0  0  0  0  0  0  0  0  0  0  0  0
   -7.1447    9.6550    0.0000 H   0  0  0  0  0  0  0  0  0  0  0  0
   -4.7891   10.1900    0.0000 H   0  0  0  0  0  0  0  0  0  0  0  0
   -5.7158    9.6550    0.0000 H   0  0  0  0  0  0  0  0  0  0  0  0
   -2.8579    2.2300    0.0000 H   0  0  0  0  0  0  0  0  0  0  0  0
   -3.7845    2.7650    0.0000 H   0  0  0  0  0  0  0  0  0  0  0  0
   -4.4990    5.0725    0.0000 H   0  0  0  0  0  0  0  0  0  0  0  0
   -4.4990    4.0025    0.0000 H   0  0  0  0  0  0  0  0  0  0  0  0
   -1.2168    3.1775    0.0000 H   0  0  0  0  0  0  0  0  0  0  0  0
   -1.2168    4.2475    0.0000 H   0  0  0  0  0  0  0  0  0  0  0  0
   -2.8579    6.0200    0.0000 H   0  0  0  0  0  0  0  0  0  0  0  0
   -1.9313    5.4850    0.0000 H   0  0  0  0  0  0  0  0  0  0  0  0
   -7.3239    5.0535    0.0000 H   0  0  0  0  0  0  0  0  0  0  0  0
   -7.8592   11.7175    0.0000 H   0  0  0  0  0  0  0  0  0  0  0  0
   -8.7858   12.2525    0.0000 H   0  0  0  0  0  0  0  0  0  0  0  0
   -5.5036   13.3225    0.0000 H   0  0  0  0  0  0  0  0  0  0  0  0
   -5.5036   12.2525    0.0000 H   0  0  0  0  0  0  0  0  0  0  0  0
   -5.9279    0.7025    0.0000 H   0  0  0  0  0  0  0  0  0  0  0  0
   -5.0013    0.1675    0.0000 H   0  0  0  0  0  0  0  0  0  0  0  0
   -6.5684    1.9827    0.0000 H   0  0  0  0  0  0  0  0  0  0  0  0
   -4.8632    7.0922    0.0000 H   0  0  0  0  0  0  0  0  0  0  0  0
  1 67  1  0  0  0  0
  1 68  1  0  0  0  0
  1 69  1  0  0  0  0
  2 70  1  0  0  0  0
  2 71  1  0  0  0  0
  2 72  1  0  0  0  0
  3 73  1  0  0  0  0
  4  3  2  0  0  0  0
  4 74  1  0  0  0  0
  5  3  1  0  0  0  0
  5 75  1  0  0  0  0
  6  4  1  0  0  0  0
  6 76  1  0  0  0  0
  7  5  2  0  0  0  0
  7 77  1  0  0  0  0
  8 78  1  0  0  0  0
  9 79  1  0  0  0  0
 10 80  1  0  0  0  0
 11 81  1  0  0  0  0
 12  8  1  0  0  0  0
 12 82  1  0  0  0  0
 13  9  2  0  0  0  0
 13 83  1  0  0  0  0
 14 10  1  0  0  0  0
 14 84  1  0  0  0  0
 15 11  2  0  0  0  0
 15 85  1  0  0  0  0
 16 86  1  0  0  0  0
 17 16  2  0  0  0  0
 17 87  1  0  0  0  0
 18 88  1  0  0  0  0
 18 89  1  0  0  0  0
 19 90  1  0  0  0  0
 19 91  1  0  0  0  0
 20 18  1  0  0  0  0
 20 92  1  0  0  0  0
 20 93  1  0  0  0  0
 21 19  1  0  0  0  0
 21 94  1  0  0  0  0
 21 95  1  0  0  0  0
 22 96  1  0  0  0  0
 22 97  1  0  0  0  0
 23 98  1  0  0  0  0
 23 99  1  0  0  0  0
 24 22  1  0  0  0  0
 24100  1  0  0  0  0
 24101  1  0  0  0  0
 25 23  1  0  0  0  0
 25102  1  0  0  0  0
 25103  1  0  0  0  0
 26104  1  0  0  0  0
 26105  1  0  0  0  0
 27106  1  0  0  0  0
 27107  1  0  0  0  0
 28 26  1  0  0  0  0
 28108  1  0  0  0  0
 28109  1  0  0  0  0
 29 27  1  0  0  0  0
 29110  1  0  0  0  0
 29111  1  0  0  0  0
 30112  1  0  0  0  0
 31113  1  0  0  0  0
 31114  1  0  0  0  0
 32115  1  0  0  0  0
 32116  1  0  0  0  0
 33117  1  0  0  0  0
 33118  1  0  0  0  0
 34  8  2  0  0  0  0
 34  9  1  0  0  0  0
 35 10  2  0  0  0  0
 35 11  1  0  0  0  0
 36 31  1  0  0  0  0
 36 32  1  0  0  0  0
 37 12  2  0  0  0  0
 37 13  1  0  0  0  0
 38 19  1  0  0  0  0
 38 33  1  0  0  0  0
 38 52  1  0  0  0  0
 38 66  1  1  0  0  0
 39 14  2  0  0  0  0
 39 15  1  0  0  0  0
 40  6  2  0  0  0  0
 40  7  1  0  0  0  0
 41 16  1  0  0  0  0
 41 30  2  0  0  0  0
 42 18  1  0  0  0  0
 42 34  1  0  0  0  0
 42 36  2  0  0  0  0
 43 17  1  0  0  0  0
 44 30  1  0  0  0  0
 44 43  2  0  0  0  0
 45 35  1  0  0  0  0
 46  1  1  0  0  0  0
 46  2  1  0  0  0  0
 46 20  1  0  0  0  0
 46 31  1  0  0  0  0
 48 37  1  0  0  0  0
 49 47  1  0  0  0  0
 50 47  1  0  0  0  0
 51 47  1  0  0  0  0
 52 43  1  0  0  0  0
 52119  1  0  0  0  0
 53 45  1  0  0  0  0
 53120  1  0  0  0  0
 54 21  1  0  0  0  0
 54 26  1  0  0  0  0
 54 27  1  0  0  0  0
 55 22  1  0  0  0  0
 55 23  1  0  0  0  0
 55 32  1  0  0  0  0
 56 24  1  0  0  0  0
 56 25  1  0  0  0  0
 56 39  1  0  0  0  0
 57 45  2  0  0  0  0
 62 28  1  0  0  0  0
 62 29  1  0  0  0  0
 63 33  1  0  0  0  0
 63 40  1  0  0  0  0
 64 44  1  0  0  0  0
 64 47  1  0  0  0  0
 64 58  2  0  0  0  0
 64 59  2  0  0  0  0
 65 41  1  0  0  0  0
 65 53  1  0  0  0  0
 65 60  2  0  0  0  0
 65 61  2  0  0  0  0
M  END
>  <DRUGBANK_ID>
DB12340

>  <SECONDARY_ACCESSION_NUMBERS>
DB05764

>  <COMMON_NAME>
Navitoclax

>  <CAS_NUMBER>
923564-51-6

>  <UNII>
XKJ5VVK2WD

>  <SYNONYMS>
(R)-4-(3-Morpholin-4-Yl-1-Phenylsulfanylmethyl-Propylamino)-N-(4-{4-[2-(4-Chlorophenyl)-5,5-Dimethylcyclohex-1-Enylmethyl]-Piperazin-1-Yl}-Benzoyl)-3-Trifluoromethanesulfonylbenzenesulfonamide; Navitoclax

$$$$
