
 OpenBabel10282417072D

 46 48  0  0  1  0  0  0  0  0999 V2000
   -0.4672    3.4789    0.0000 C   0  0  0  0  0  0  0  0  0  0  0  0
    0.3453    3.6222    0.0000 C   0  0  0  0  0  0  0  0  0  0  0  0
    0.6274    4.3974    0.0000 C   0  0  0  0  0  0  0  0  0  0  0  0
    1.4399    4.5407    0.0000 C   0  0  0  0  0  0  0  0  0  0  0  0
    1.9702    3.9087    0.0000 C   0  0  0  0  0  0  0  0  0  0  0  0
    1.6880    3.1335    0.0000 C   0  0  0  0  0  0  0  0  0  0  0  0
    0.8756    2.9902    0.0000 C   0  0  0  0  0  0  0  0  0  0  0  0
    2.2183    2.5015    0.0000 C   0  0  0  0  0  0  0  0  0  0  0  0
    2.7486    1.8695    0.0000 C   0  0  0  0  0  0  0  0  0  0  0  0
    3.2789    1.2375    0.0000 C   0  0  2  0  0  0  0  0  0  0  0  0
    3.9934    0.8250    0.0000 C   0  0  0  0  0  0  0  0  0  0  0  0
    3.9934    0.0000    0.0000 C   0  0  0  0  0  0  0  0  0  0  0  0
    3.2789   -0.4125    0.0000 C   0  0  0  0  0  0  0  0  0  0  0  0
    2.5645    0.0000    0.0000 C   0  0  2  0  0  0  0  0  0  0  0  0
    2.5645    0.8250    0.0000 C   0  0  1  0  0  0  0  0  0  0  0  0
    1.7798    1.0799    0.0000 C   0  0  0  0  0  0  0  0  0  0  0  0
    1.2949    0.4125    0.0000 C   0  0  0  0  0  0  0  0  0  0  0  0
    1.7798   -0.2549    0.0000 N   0  0  0  0  0  0  0  0  0  0  0  0
    1.5249   -1.0396    0.0000 C   0  0  0  0  0  0  0  0  0  0  0  0
    2.0769   -1.6527    0.0000 O   0  0  0  0  0  0  0  0  0  0  0  0
    0.7179   -1.2111    0.0000 O   0  0  0  0  0  0  0  0  0  0  0  0
    0.4630   -1.9957    0.0000 C   0  0  0  0  0  0  0  0  0  0  0  0
    3.8092    1.8695    0.0000 O   0  0  0  0  0  0  0  0  0  0  0  0
   -1.1550    4.2985    0.0000 H   0  0  0  0  0  0  0  0  0  0  0  0
   -0.8331    2.4734    0.0000 H   0  0  0  0  0  0  0  0  0  0  0  0
   -1.5209    3.2931    0.0000 H   0  0  0  0  0  0  0  0  0  0  0  0
   -0.0360    5.1879    0.0000 H   0  0  0  0  0  0  0  0  0  0  0  0
    1.7928    5.5105    0.0000 H   0  0  0  0  0  0  0  0  0  0  0  0
    2.9865    4.0879    0.0000 H   0  0  0  0  0  0  0  0  0  0  0  0
    0.5227    2.0204    0.0000 H   0  0  0  0  0  0  0  0  0  0  0  0
    4.9200    1.3600    0.0000 H   0  0  0  0  0  0  0  0  0  0  0  0
    4.9200    0.2900    0.0000 H   0  0  0  0  0  0  0  0  0  0  0  0
    4.9200   -0.5350    0.0000 H   0  0  0  0  0  0  0  0  0  0  0  0
    3.9934   -1.0700    0.0000 H   0  0  0  0  0  0  0  0  0  0  0  0
    3.2789   -1.4825    0.0000 H   0  0  0  0  0  0  0  0  0  0  0  0
    2.3522   -0.9475    0.0000 H   0  0  0  0  0  0  0  0  0  0  0  0
    2.4526   -1.0641    0.0000 H   0  0  0  0  0  0  0  0  0  0  0  0
    1.6989    0.1960    0.0000 H   0  0  0  0  0  0  0  0  0  0  0  0
    1.4491    2.0975    0.0000 H   0  0  0  0  0  0  0  0  0  0  0  0
    0.7230    1.2473    0.0000 H   0  0  0  0  0  0  0  0  0  0  0  0
    0.2249    0.4125    0.0000 H   0  0  0  0  0  0  0  0  0  0  0  0
    0.8091   -0.5409    0.0000 H   0  0  0  0  0  0  0  0  0  0  0  0
   -0.5836   -2.2182    0.0000 H   0  0  0  0  0  0  0  0  0  0  0  0
    1.1790   -2.7908    0.0000 H   0  0  0  0  0  0  0  0  0  0  0  0
    0.1324   -3.0133    0.0000 H   0  0  0  0  0  0  0  0  0  0  0  0
    4.7645    1.7011    0.0000 H   0  0  0  0  0  0  0  0  0  0  0  0
  1  2  1  0  0  0  0
  1 24  1  0  0  0  0
  1 25  1  0  0  0  0
  1 26  1  0  0  0  0
  2  3  2  0  0  0  0
  2  7  1  0  0  0  0
  3  4  1  0  0  0  0
  3 27  1  0  0  0  0
  4  5  2  0  0  0  0
  4 28  1  0  0  0  0
  5  6  1  0  0  0  0
  5 29  1  0  0  0  0
  6  7  2  0  0  0  0
  6  8  1  0  0  0  0
  7 30  1  0  0  0  0
  8  9  3  0  0  0  0
 10  9  1  6  0  0  0
 10 11  1  0  0  0  0
 10 15  1  0  0  0  0
 10 23  1  0  0  0  0
 11 12  1  0  0  0  0
 11 31  1  0  0  0  0
 11 32  1  0  0  0  0
 12 13  1  0  0  0  0
 12 33  1  0  0  0  0
 12 34  1  0  0  0  0
 13 14  1  0  0  0  0
 13 35  1  0  0  0  0
 13 36  1  0  0  0  0
 14 15  1  0  0  0  0
 14 18  1  0  0  0  0
 14 37  1  6  0  0  0
 15 16  1  0  0  0  0
 15 38  1  6  0  0  0
 16 17  1  0  0  0  0
 16 39  1  0  0  0  0
 16 40  1  0  0  0  0
 17 18  1  0  0  0  0
 17 41  1  0  0  0  0
 17 42  1  0  0  0  0
 18 19  1  0  0  0  0
 19 20  2  0  0  0  0
 19 21  1  0  0  0  0
 21 22  1  0  0  0  0
 22 43  1  0  0  0  0
 22 44  1  0  0  0  0
 22 45  1  0  0  0  0
 23 46  1  0  0  0  0
M  END
>  <DRUGBANK_ID>
DB13004

>  <COMMON_NAME>
Mavoglurant

>  <CAS_NUMBER>
543906-09-8

>  <UNII>
GT0I9SV4F6

>  <SYNONYMS>
Mavoglurant

$$$$
