1506
 OpenBabel10282417072D

 30 31  0  0  0  0  0  0  0  0999 V2000
    2.1615    0.7145    0.0000 N   0  0  0  0  0  0  0  0  0  0  0  0
    2.5741    0.0000    0.0000 C   0  0  0  0  0  0  0  0  0  0  0  0
    3.2885   -0.4125    0.0000 C   0  0  0  0  0  0  0  0  0  0  0  0
    1.8596   -0.4125    0.0000 C   0  0  0  0  0  0  0  0  0  0  0  0
    3.2885   -1.2375    0.0000 C   0  0  0  0  0  0  0  0  0  0  0  0
    1.8596   -1.2375    0.0000 C   0  0  0  0  0  0  0  0  0  0  0  0
    2.5741   -1.6500    0.0000 C   0  0  0  0  0  0  0  0  0  0  0  0
    3.2885    0.4125    0.0000 C   0  0  0  0  0  0  0  0  0  0  0  0
    4.0031    0.0000    0.0000 C   0  0  0  0  0  0  0  0  0  0  0  0
    3.2885    1.2375    0.0000 C   0  0  0  0  0  0  0  0  0  0  0  0
    4.7175    0.4125    0.0000 C   0  0  0  0  0  0  0  0  0  0  0  0
    4.0031    1.6500    0.0000 C   0  0  0  0  0  0  0  0  0  0  0  0
    4.7175    1.2375    0.0000 C   0  0  0  0  0  0  0  0  0  0  0  0
    2.6714    1.5979    0.0000 H   0  0  0  0  0  0  0  0  0  0  0  0
    1.1415    0.7144    0.0000 H   0  0  0  0  0  0  0  0  0  0  0  0
    4.2152    0.1225    0.0000 H   0  0  0  0  0  0  0  0  0  0  0  0
    4.2151   -0.9475    0.0000 H   0  0  0  0  0  0  0  0  0  0  0  0
    0.9330    0.1225    0.0000 H   0  0  0  0  0  0  0  0  0  0  0  0
    0.9330   -0.9475    0.0000 H   0  0  0  0  0  0  0  0  0  0  0  0
    4.2152   -1.7725    0.0000 H   0  0  0  0  0  0  0  0  0  0  0  0
    3.2885   -2.3075    0.0000 H   0  0  0  0  0  0  0  0  0  0  0  0
    0.9330   -1.7725    0.0000 H   0  0  0  0  0  0  0  0  0  0  0  0
    1.8596   -2.3075    0.0000 H   0  0  0  0  0  0  0  0  0  0  0  0
    2.5741   -2.7200    0.0000 H   0  0  0  0  0  0  0  0  0  0  0  0
    1.6475   -2.1850    0.0000 H   0  0  0  0  0  0  0  0  0  0  0  0
    4.0032   -1.0320    0.0000 H   0  0  0  0  0  0  0  0  0  0  0  0
    2.3948    1.7535    0.0000 H   0  0  0  0  0  0  0  0  0  0  0  0
    5.6112   -0.1035    0.0000 H   0  0  0  0  0  0  0  0  0  0  0  0
    4.0032    2.6820    0.0000 H   0  0  0  0  0  0  0  0  0  0  0  0
    5.6112    1.7535    0.0000 H   0  0  0  0  0  0  0  0  0  0  0  0
  1  2  1  0  0  0  0
  1 14  1  0  0  0  0
  1 15  1  0  0  0  0
  2  3  1  0  0  0  0
  2  4  1  0  0  0  0
  2  8  1  0  0  0  0
  3  5  1  0  0  0  0
  3 16  1  0  0  0  0
  3 17  1  0  0  0  0
  4  6  1  0  0  0  0
  4 18  1  0  0  0  0
  4 19  1  0  0  0  0
  5  7  1  0  0  0  0
  5 20  1  0  0  0  0
  5 21  1  0  0  0  0
  6  7  1  0  0  0  0
  6 22  1  0  0  0  0
  6 23  1  0  0  0  0
  7 24  1  0  0  0  0
  7 25  1  0  0  0  0
  8  9  2  0  0  0  0
  8 10  1  0  0  0  0
  9 11  1  0  0  0  0
  9 26  1  0  0  0  0
 10 12  2  0  0  0  0
 10 27  1  0  0  0  0
 11 13  2  0  0  0  0
 11 28  1  0  0  0  0
 12 13  1  0  0  0  0
 12 29  1  0  0  0  0
 13 30  1  0  0  0  0
M  END
>  <DRUGBANK_ID>
DB01506

>  <COMMON_NAME>
1-Phenylcyclohexylamine

>  <CAS_NUMBER>
2201-24-3

>  <UNII>
HBO2D49I2S

$$$$
