BRV
 OpenBabel10282417072D

 20 20  0  0  0  0  0  0  0  0999 V2000
    0.1059   -1.5485    0.0000 C   0  0  0  0  0  0  0  0  0  0  0  0
   -1.3230    0.9265    0.0000 C   0  0  0  0  0  0  0  0  0  0  0  0
    0.8204    0.5140    0.0000 C   0  0  0  0  0  0  0  0  0  0  0  0
    0.8204   -0.3110    0.0000 C   0  0  0  0  0  0  0  0  0  0  0  0
    0.1059   -0.7235    0.0000 C   0  0  0  0  0  0  0  0  0  0  0  0
   -0.6085   -0.3110    0.0000 C   0  0  0  0  0  0  0  0  0  0  0  0
    1.5349    0.9265    0.0000 N   0  0  0  0  0  0  0  0  0  0  0  0
   -1.3230   -0.7235    0.0000 Br  0  0  0  0  0  0  0  0  0  0  0  0
    1.5349   -0.7235    0.0000 Br  0  0  0  0  0  0  0  0  0  0  0  0
    0.1059    1.7515    0.0000 Br  0  0  0  0  0  0  0  0  0  0  0  0
   -0.6085    0.5140    0.0000 C   0  0  0  0  0  0  0  0  0  0  0  0
    0.1059    0.9265    0.0000 C   0  0  0  0  0  0  0  0  0  0  0  0
   -2.0375    0.5140    0.0000 O   0  0  0  0  0  0  0  0  0  0  0  0
   -1.3230    1.7515    0.0000 O   0  0  0  0  0  0  0  0  0  0  0  0
   -0.6085   -1.9610    0.0000 O   0  0  0  0  0  0  0  0  0  0  0  0
    0.8204   -1.9610    0.0000 O   0  0  0  0  0  0  0  0  0  0  0  0
    2.3875    0.4342    0.0000 H   0  0  0  0  0  0  0  0  0  0  0  0
    1.5349    1.9110    0.0000 H   0  0  0  0  0  0  0  0  0  0  0  0
   -2.8490    0.9825    0.0000 H   0  0  0  0  0  0  0  0  0  0  0  0
    0.8204   -2.8980    0.0000 H   0  0  0  0  0  0  0  0  0  0  0  0
  1  5  1  0  0  0  0
  1 15  2  0  0  0  0
  1 16  1  0  0  0  0
  2 11  1  0  0  0  0
  2 13  1  0  0  0  0
  2 14  2  0  0  0  0
  3  4  2  0  0  0  0
  3  7  1  0  0  0  0
  3 12  1  0  0  0  0
  4  5  1  0  0  0  0
  4  9  1  0  0  0  0
  5  6  2  0  0  0  0
  6  8  1  0  0  0  0
  6 11  1  0  0  0  0
  7 17  1  0  0  0  0
  7 18  1  0  0  0  0
 10 12  1  0  0  0  0
 11 12  2  0  0  0  0
 13 19  1  0  0  0  0
 16 20  1  0  0  0  0
M  END
>  <DRUGBANK_ID>
DB07491

>  <COMMON_NAME>
5-amino-2,4,6-tribromobenzene-1,3-dicarboxylic acid

>  <UNII>
T86LB7G8ZX

$$$$
