
 OpenBabel10282417072D

 45 47  0  0  0  0  0  0  0  0999 V2000
    2.4115    4.0059    0.0000 F   0  0  0  0  0  0  0  0  0  0  0  0
    3.7464    4.9757    0.0000 F   0  0  0  0  0  0  0  0  0  0  0  0
    2.5941    5.1583    0.0000 F   0  0  0  0  0  0  0  0  0  0  0  0
    3.9764   -0.7462    0.0000 O   0  0  0  0  0  0  0  0  0  0  0  0
    3.2149   -3.7062    0.0000 O   0  0  0  0  0  0  0  0  0  0  0  0
    4.3889    3.8233    0.0000 O   0  0  0  0  0  0  0  0  0  0  0  0
    2.9600   -4.4908    0.0000 N   0  0  0  0  0  0  0  0  0  0  0  0
    3.3089    3.0387    0.0000 N   0  0  0  0  0  0  0  0  0  0  0  0
    4.6439    3.0387    0.0000 N   0  0  0  0  0  0  0  0  0  0  0  0
    3.2619   -1.9837    0.0000 C   0  0  0  0  0  0  0  0  0  0  0  0
    2.5474   -2.3962    0.0000 C   0  0  0  0  0  0  0  0  0  0  0  0
    3.2619   -1.1587    0.0000 C   0  0  0  0  0  0  0  0  0  0  0  0
    3.9764    0.0788    0.0000 C   0  0  0  0  0  0  0  0  0  0  0  0
    4.6909    0.4913    0.0000 C   0  0  0  0  0  0  0  0  0  0  0  0
    3.2619    0.4913    0.0000 C   0  0  0  0  0  0  0  0  0  0  0  0
    3.9764    1.7288    0.0000 C   0  0  0  0  0  0  0  0  0  0  0  0
    4.6909    1.3163    0.0000 C   0  0  0  0  0  0  0  0  0  0  0  0
    3.2619    1.3163    0.0000 C   0  0  0  0  0  0  0  0  0  0  0  0
    2.5474   -3.2212    0.0000 C   0  0  0  0  0  0  0  0  0  0  0  0
    5.4053    0.0788    0.0000 C   0  0  0  0  0  0  0  0  0  0  0  0
    2.5474    0.0788    0.0000 C   0  0  0  0  0  0  0  0  0  0  0  0
    1.8800   -3.7062    0.0000 C   0  0  0  0  0  0  0  0  0  0  0  0
    3.9764    2.5538    0.0000 C   0  0  0  0  0  0  0  0  0  0  0  0
    2.1349   -4.4908    0.0000 C   0  0  0  0  0  0  0  0  0  0  0  0
    1.6500   -5.1583    0.0000 C   0  0  0  0  0  0  0  0  0  0  0  0
    3.5639    3.8233    0.0000 C   0  0  0  0  0  0  0  0  0  0  0  0
    3.0790    4.4908    0.0000 C   0  0  0  0  0  0  0  0  0  0  0  0
    4.1885   -2.5187    0.0000 H   0  0  0  0  0  0  0  0  0  0  0  0
    4.1885   -1.4487    0.0000 H   0  0  0  0  0  0  0  0  0  0  0  0
    1.6208   -1.8612    0.0000 H   0  0  0  0  0  0  0  0  0  0  0  0
    1.6208   -2.9312    0.0000 H   0  0  0  0  0  0  0  0  0  0  0  0
    2.3353   -0.6237    0.0000 H   0  0  0  0  0  0  0  0  0  0  0  0
    2.3353   -1.6937    0.0000 H   0  0  0  0  0  0  0  0  0  0  0  0
    5.5846    1.8323    0.0000 H   0  0  0  0  0  0  0  0  0  0  0  0
    2.3682    1.8323    0.0000 H   0  0  0  0  0  0  0  0  0  0  0  0
    5.4053   -0.9912    0.0000 H   0  0  0  0  0  0  0  0  0  0  0  0
    6.3320    0.6138    0.0000 H   0  0  0  0  0  0  0  0  0  0  0  0
    6.3319   -0.4562    0.0000 H   0  0  0  0  0  0  0  0  0  0  0  0
    1.6208    0.6138    0.0000 H   0  0  0  0  0  0  0  0  0  0  0  0
    2.5474   -0.9912    0.0000 H   0  0  0  0  0  0  0  0  0  0  0  0
    1.6207   -0.4562    0.0000 H   0  0  0  0  0  0  0  0  0  0  0  0
    0.8985   -3.3873    0.0000 H   0  0  0  0  0  0  0  0  0  0  0  0
    0.5859   -5.0465    0.0000 H   0  0  0  0  0  0  0  0  0  0  0  0
    2.0853   -6.1358    0.0000 H   0  0  0  0  0  0  0  0  0  0  0  0
    1.0211   -6.0240    0.0000 H   0  0  0  0  0  0  0  0  0  0  0  0
  1 27  1  0  0  0  0
  2 27  1  0  0  0  0
  3 27  1  0  0  0  0
  4 12  1  0  0  0  0
  4 13  1  0  0  0  0
  5  7  1  0  0  0  0
  5 19  1  0  0  0  0
  6  9  1  0  0  0  0
  6 26  1  0  0  0  0
  7 24  2  0  0  0  0
  8 23  1  0  0  0  0
  8 26  2  0  0  0  0
  9 23  2  0  0  0  0
 10 11  1  0  0  0  0
 10 12  1  0  0  0  0
 10 28  1  0  0  0  0
 10 29  1  0  0  0  0
 11 19  1  0  0  0  0
 11 30  1  0  0  0  0
 11 31  1  0  0  0  0
 12 32  1  0  0  0  0
 12 33  1  0  0  0  0
 13 14  2  0  0  0  0
 13 15  1  0  0  0  0
 14 17  1  0  0  0  0
 14 20  1  0  0  0  0
 15 18  2  0  0  0  0
 15 21  1  0  0  0  0
 16 17  2  0  0  0  0
 16 18  1  0  0  0  0
 16 23  1  0  0  0  0
 17 34  1  0  0  0  0
 18 35  1  0  0  0  0
 19 22  2  0  0  0  0
 20 36  1  0  0  0  0
 20 37  1  0  0  0  0
 20 38  1  0  0  0  0
 21 39  1  0  0  0  0
 21 40  1  0  0  0  0
 21 41  1  0  0  0  0
 22 24  1  0  0  0  0
 22 42  1  0  0  0  0
 24 25  1  0  0  0  0
 25 43  1  0  0  0  0
 25 44  1  0  0  0  0
 25 45  1  0  0  0  0
 26 27  1  0  0  0  0
M  END
>  <DRUGBANK_ID>
DB05105

>  <SECONDARY_ACCESSION_NUMBERS>
DB08716

>  <COMMON_NAME>
Pleconaril

>  <CAS_NUMBER>
153168-05-9

>  <UNII>
9H4570Q89D

>  <SYNONYMS>
Pleconaril

$$$$
