
 OpenBabel10282417072D

 86 87  0  0  0  0  0  0  0  0999 V2000
   -4.2869   -1.6500    0.0000 C   0  0  0  0  0  0  0  0  0  0  0  0
   -4.2869   -0.8249    0.0000 C   0  0  0  0  0  0  0  0  0  0  0  0
   -2.1435   -0.4124    0.0000 C   0  0  0  0  0  0  0  0  0  0  0  0
   -2.8580   -0.8249    0.0000 C   0  0  0  0  0  0  0  0  0  0  0  0
   -3.5724   -0.4124    0.0000 C   0  0  0  0  0  0  0  0  0  0  0  0
   -5.0014   -0.4124    0.0000 C   0  0  0  0  0  0  0  0  0  0  0  0
   -5.7158   -0.8249    0.0000 O   0  0  0  0  0  0  0  0  0  0  0  0
   -5.0014    0.4124    0.0000 C   0  0  0  0  0  0  0  0  0  0  0  0
   -5.7158    0.8249    0.0000 C   0  0  0  0  0  0  0  0  0  0  0  0
   -4.2869    0.8249    0.0000 C   0  0  0  0  0  0  0  0  0  0  0  0
   -4.2869    1.6500    0.0000 C   0  0  0  0  0  0  0  0  0  0  0  0
   -3.5724    0.4124    0.0000 C   0  0  0  0  0  0  0  0  0  0  0  0
   -2.8580    0.8249    0.0000 O   0  0  0  0  0  0  0  0  0  0  0  0
    6.4303   -0.4124    0.0000 C   0  0  0  0  0  0  0  0  0  0  0  0
    6.4303    0.4124    0.0000 C   0  0  0  0  0  0  0  0  0  0  0  0
    7.1447    0.8249    0.0000 C   0  0  0  0  0  0  0  0  0  0  0  0
    5.7158    0.8249    0.0000 C   0  0  0  0  0  0  0  0  0  0  0  0
    5.0013    0.4124    0.0000 C   0  0  0  0  0  0  0  0  0  0  0  0
    4.2868    0.8249    0.0000 C   0  0  0  0  0  0  0  0  0  0  0  0
    3.5723    0.4124    0.0000 C   0  0  1  0  0  0  0  0  0  0  0  0
    3.5723   -0.4124    0.0000 C   0  0  0  0  0  0  0  0  0  0  0  0
    2.8579    0.8249    0.0000 C   0  0  0  0  0  0  0  0  0  0  0  0
    2.1433    0.4124    0.0000 C   0  0  0  0  0  0  0  0  0  0  0  0
    1.4289    0.8249    0.0000 C   0  0  0  0  0  0  0  0  0  0  0  0
    0.7144    0.4124    0.0000 C   0  0  1  0  0  0  0  0  0  0  0  0
    0.7144   -0.4124    0.0000 C   0  0  0  0  0  0  0  0  0  0  0  0
    0.0000    0.8249    0.0000 C   0  0  0  0  0  0  0  0  0  0  0  0
   -0.7144    0.4124    0.0000 C   0  0  0  0  0  0  0  0  0  0  0  0
   -1.4290    0.8249    0.0000 C   0  0  0  0  0  0  0  0  0  0  0  0
   -2.1435    0.4124    0.0000 C   0  0  2  0  0  0  0  0  0  0  0  0
   -1.4290    0.0000    0.0000 C   0  0  0  0  0  0  0  0  0  0  0  0
   -6.4302   -0.4124    0.0000 C   0  0  0  0  0  0  0  0  0  0  0  0
   -7.1447   -0.8249    0.0000 C   0  0  0  0  0  0  0  0  0  0  0  0
   -6.4302    0.4124    0.0000 O   0  0  0  0  0  0  0  0  0  0  0  0
   -5.2135   -2.1850    0.0000 H   0  0  0  0  0  0  0  0  0  0  0  0
   -3.3603   -2.1850    0.0000 H   0  0  0  0  0  0  0  0  0  0  0  0
   -4.2869   -2.7200    0.0000 H   0  0  0  0  0  0  0  0  0  0  0  0
   -1.2169   -0.9474    0.0000 H   0  0  0  0  0  0  0  0  0  0  0  0
   -2.1435   -1.4824    0.0000 H   0  0  0  0  0  0  0  0  0  0  0  0
   -2.8580   -1.8949    0.0000 H   0  0  0  0  0  0  0  0  0  0  0  0
   -3.7847   -1.3599    0.0000 H   0  0  0  0  0  0  0  0  0  0  0  0
   -5.7158    1.8949    0.0000 H   0  0  0  0  0  0  0  0  0  0  0  0
   -6.6425    0.2899    0.0000 H   0  0  0  0  0  0  0  0  0  0  0  0
   -6.6424    1.3599    0.0000 H   0  0  0  0  0  0  0  0  0  0  0  0
   -3.3603    2.1850    0.0000 H   0  0  0  0  0  0  0  0  0  0  0  0
   -5.2135    2.1850    0.0000 H   0  0  0  0  0  0  0  0  0  0  0  0
   -4.2869    2.7200    0.0000 H   0  0  0  0  0  0  0  0  0  0  0  0
    5.5037   -0.9474    0.0000 H   0  0  0  0  0  0  0  0  0  0  0  0
    7.3569   -0.9474    0.0000 H   0  0  0  0  0  0  0  0  0  0  0  0
    6.4303   -1.4824    0.0000 H   0  0  0  0  0  0  0  0  0  0  0  0
    6.4303    1.4824    0.0000 H   0  0  0  0  0  0  0  0  0  0  0  0
    8.0714    0.2899    0.0000 H   0  0  0  0  0  0  0  0  0  0  0  0
    7.1447    1.8949    0.0000 H   0  0  0  0  0  0  0  0  0  0  0  0
    8.0713    1.3599    0.0000 H   0  0  0  0  0  0  0  0  0  0  0  0
    5.7158    1.8949    0.0000 H   0  0  0  0  0  0  0  0  0  0  0  0
    4.7892    1.3599    0.0000 H   0  0  0  0  0  0  0  0  0  0  0  0
    5.0013   -0.6576    0.0000 H   0  0  0  0  0  0  0  0  0  0  0  0
    4.0747   -0.1226    0.0000 H   0  0  0  0  0  0  0  0  0  0  0  0
    4.2868    1.8949    0.0000 H   0  0  0  0  0  0  0  0  0  0  0  0
    3.3602    1.3599    0.0000 H   0  0  0  0  0  0  0  0  0  0  0  0
    4.4989   -0.1226    0.0000 H   0  0  0  0  0  0  0  0  0  0  0  0
    2.6457   -0.9474    0.0000 H   0  0  0  0  0  0  0  0  0  0  0  0
    4.4989   -0.9474    0.0000 H   0  0  0  0  0  0  0  0  0  0  0  0
    3.5723   -1.4824    0.0000 H   0  0  0  0  0  0  0  0  0  0  0  0
    2.8580    1.8949    0.0000 H   0  0  0  0  0  0  0  0  0  0  0  0
    1.9313    1.3600    0.0000 H   0  0  0  0  0  0  0  0  0  0  0  0
    2.1432   -0.6576    0.0000 H   0  0  0  0  0  0  0  0  0  0  0  0
    1.2166   -0.1226    0.0000 H   0  0  0  0  0  0  0  0  0  0  0  0
    1.4289    1.8949    0.0000 H   0  0  0  0  0  0  0  0  0  0  0  0
    0.5023    1.3599    0.0000 H   0  0  0  0  0  0  0  0  0  0  0  0
    1.6410   -0.1226    0.0000 H   0  0  0  0  0  0  0  0  0  0  0  0
   -0.2122   -0.9474    0.0000 H   0  0  0  0  0  0  0  0  0  0  0  0
    1.6410   -0.9474    0.0000 H   0  0  0  0  0  0  0  0  0  0  0  0
    0.7144   -1.4824    0.0000 H   0  0  0  0  0  0  0  0  0  0  0  0
    0.0000    1.8949    0.0000 H   0  0  0  0  0  0  0  0  0  0  0  0
   -0.9267    1.3599    0.0000 H   0  0  0  0  0  0  0  0  0  0  0  0
   -0.7143   -0.6576    0.0000 H   0  0  0  0  0  0  0  0  0  0  0  0
   -1.6410   -0.1227    0.0000 H   0  0  0  0  0  0  0  0  0  0  0  0
   -1.4290    1.8949    0.0000 H   0  0  0  0  0  0  0  0  0  0  0  0
   -0.5024    1.3600    0.0000 H   0  0  0  0  0  0  0  0  0  0  0  0
   -1.4289   -1.0700    0.0000 H   0  0  0  0  0  0  0  0  0  0  0  0
   -0.5024    0.5351    0.0000 H   0  0  0  0  0  0  0  0  0  0  0  0
   -0.5023   -0.5349    0.0000 H   0  0  0  0  0  0  0  0  0  0  0  0
   -8.0713   -0.2899    0.0000 H   0  0  0  0  0  0  0  0  0  0  0  0
   -7.1447   -1.8949    0.0000 H   0  0  0  0  0  0  0  0  0  0  0  0
   -8.0714   -1.3599    0.0000 H   0  0  0  0  0  0  0  0  0  0  0  0
  1 35  1  0  0  0  0
  1 36  1  0  0  0  0
  1 37  1  0  0  0  0
  2  1  1  0  0  0  0
  2  6  1  0  0  0  0
  3  4  1  0  0  0  0
  3 38  1  0  0  0  0
  3 39  1  0  0  0  0
  4  5  1  0  0  0  0
  4 40  1  0  0  0  0
  4 41  1  0  0  0  0
  5  2  2  0  0  0  0
  6  7  1  0  0  0  0
  7 32  1  0  0  0  0
  8  6  2  0  0  0  0
  8  9  1  0  0  0  0
  9 42  1  0  0  0  0
  9 43  1  0  0  0  0
  9 44  1  0  0  0  0
 10  8  1  0  0  0  0
 10 11  1  0  0  0  0
 11 45  1  0  0  0  0
 11 46  1  0  0  0  0
 11 47  1  0  0  0  0
 12 10  2  0  0  0  0
 12  5  1  0  0  0  0
 12 13  1  0  0  0  0
 14 15  1  0  0  0  0
 14 48  1  0  0  0  0
 14 49  1  0  0  0  0
 14 50  1  0  0  0  0
 15 16  1  0  0  0  0
 15 17  1  0  0  0  0
 15 51  1  0  0  0  0
 16 52  1  0  0  0  0
 16 53  1  0  0  0  0
 16 54  1  0  0  0  0
 17 18  1  0  0  0  0
 17 55  1  0  0  0  0
 17 56  1  0  0  0  0
 18 19  1  0  0  0  0
 18 57  1  0  0  0  0
 18 58  1  0  0  0  0
 19 20  1  0  0  0  0
 19 59  1  0  0  0  0
 19 60  1  0  0  0  0
 20 21  1  0  0  0  0
 20 22  1  0  0  0  0
 20 61  1  6  0  0  0
 21 62  1  0  0  0  0
 21 63  1  0  0  0  0
 21 64  1  0  0  0  0
 22 23  1  0  0  0  0
 22 65  1  0  0  0  0
 22 66  1  0  0  0  0
 23 24  1  0  0  0  0
 23 67  1  0  0  0  0
 23 68  1  0  0  0  0
 24 25  1  0  0  0  0
 24 69  1  0  0  0  0
 24 70  1  0  0  0  0
 25 26  1  0  0  0  0
 25 27  1  0  0  0  0
 25 71  1  6  0  0  0
 26 72  1  0  0  0  0
 26 73  1  0  0  0  0
 26 74  1  0  0  0  0
 27 28  1  0  0  0  0
 27 75  1  0  0  0  0
 27 76  1  0  0  0  0
 28 29  1  0  0  0  0
 28 77  1  0  0  0  0
 28 78  1  0  0  0  0
 29 79  1  0  0  0  0
 29 80  1  0  0  0  0
 30 29  1  6  0  0  0
 30  3  1  0  0  0  0
 30 13  1  0  0  0  0
 30 31  1  0  0  0  0
 31 81  1  0  0  0  0
 31 82  1  0  0  0  0
 31 83  1  0  0  0  0
 32 33  1  0  0  0  0
 32 34  2  0  0  0  0
 33 84  1  0  0  0  0
 33 85  1  0  0  0  0
 33 86  1  0  0  0  0
M  END
>  <DRUGBANK_ID>
DB14002

>  <SECONDARY_ACCESSION_NUMBERS>
DBSALT001457

>  <COMMON_NAME>
D-alpha-Tocopherol acetate

>  <CAS_NUMBER>
58-95-7

>  <UNII>
A7E6112E4N

>  <SYNONYMS>
(+)-alfa-tocopherol acetate; alpha-tocopheryl acetate, D-; D-alpha tocoferil acetate; D-alpha tocopheryl acetate; D-alpha-Tocopheryl acetate; RRR-alpha-tocopheryl acetate; Vitamin E acetate, D-

$$$$
