535
 OpenBabel10282417072D

 39 41  0  0  1  0  0  0  0  0999 V2000
    3.7935   -0.6744    0.0000 S   0  0  0  0  0  0  0  0  0  0  0  0
    9.4318   -1.0832    0.0000 S   0  0  0  0  0  0  0  0  0  0  0  0
    5.9220    1.1511    0.0000 O   0  0  0  0  0  0  0  0  0  0  0  0
    3.0791    2.2132    0.0000 O   0  0  0  0  0  0  0  0  0  0  0  0
    4.5080    2.2132    0.0000 O   0  0  0  0  0  0  0  0  0  0  0  0
    6.9345    0.1585    0.0000 O   0  0  0  0  0  0  0  0  0  0  0  0
    6.2890   -2.2309    0.0000 O   0  0  0  0  0  0  0  0  0  0  0  0
    4.5080    0.5632    0.0000 N   0  0  0  0  0  0  0  0  0  0  0  0
    5.9220   -0.8499    0.0000 N   0  0  0  0  0  0  0  0  0  0  0  0
    7.0863   -2.0190    0.0000 N   0  0  0  0  0  0  0  0  0  0  0  0
    8.3961   -0.2411    0.0000 N   0  0  0  0  0  0  0  0  0  0  0  0
    9.7404    0.3542    0.0000 N   0  0  0  0  0  0  0  0  0  0  0  0
    4.5080   -0.2619    0.0000 C   0  0  1  0  0  0  0  0  0  0  0  0
    5.3398   -0.2652    0.0000 C   0  0  1  0  0  0  0  0  0  0  0  0
    5.3398    0.5665    0.0000 C   0  0  0  0  0  0  0  0  0  0  0  0
    3.7935    0.9757    0.0000 C   0  0  0  0  0  0  0  0  0  0  0  0
    3.0791   -0.2619    0.0000 C   0  0  0  0  0  0  0  0  0  0  0  0
    3.0791    0.5632    0.0000 C   0  0  0  0  0  0  0  0  0  0  0  0
    3.7935    1.8007    0.0000 C   0  0  0  0  0  0  0  0  0  0  0  0
    6.7194   -0.6380    0.0000 C   0  0  0  0  0  0  0  0  0  0  0  0
    2.3645    0.9757    0.0000 C   0  0  0  0  0  0  0  0  0  0  0  0
    7.3015   -1.2225    0.0000 C   0  0  0  0  0  0  0  0  0  0  0  0
    1.6500    0.5632    0.0000 C   0  0  0  0  0  0  0  0  0  0  0  0
    8.0989   -1.0106    0.0000 C   0  0  0  0  0  0  0  0  0  0  0  0
    8.7389   -1.5312    0.0000 C   0  0  0  0  0  0  0  0  0  0  0  0
    9.2199   -0.2859    0.0000 C   0  0  0  0  0  0  0  0  0  0  0  0
    4.6775   -0.8998    0.0000 H   0  0  0  0  0  0  0  0  0  0  0  0
    3.0791    3.1502    0.0000 H   0  0  0  0  0  0  0  0  0  0  0  0
    5.6278   -1.5670    0.0000 H   0  0  0  0  0  0  0  0  0  0  0  0
    5.6652   -1.8003    0.0000 H   0  0  0  0  0  0  0  0  0  0  0  0
   10.7125    0.1982    0.0000 H   0  0  0  0  0  0  0  0  0  0  0  0
    9.3895    1.2740    0.0000 H   0  0  0  0  0  0  0  0  0  0  0  0
    4.9273   -1.2525    0.0000 H   0  0  0  0  0  0  0  0  0  0  0  0
    2.1524   -0.7969    0.0000 H   0  0  0  0  0  0  0  0  0  0  0  0
    2.1525    0.2731    0.0000 H   0  0  0  0  0  0  0  0  0  0  0  0
    2.3645    2.0077    0.0000 H   0  0  0  0  0  0  0  0  0  0  0  0
    0.7563    1.0792    0.0000 H   0  0  0  0  0  0  0  0  0  0  0  0
    1.6500   -0.4688    0.0000 H   0  0  0  0  0  0  0  0  0  0  0  0
    8.6827   -2.5617    0.0000 H   0  0  0  0  0  0  0  0  0  0  0  0
  1 13  1  0  0  0  0
  1 17  1  0  0  0  0
  2 25  1  0  0  0  0
  2 26  1  0  0  0  0
  3 15  2  0  0  0  0
  4 19  1  0  0  0  0
  4 28  1  0  0  0  0
  5 19  2  0  0  0  0
  6 20  2  0  0  0  0
  7 10  1  0  0  0  0
  7 29  1  0  0  0  0
  8 13  1  0  0  0  0
  8 15  1  0  0  0  0
  8 16  1  0  0  0  0
  9 20  1  0  0  0  0
  9 30  1  0  0  0  0
 10 22  2  0  0  0  0
 11 24  1  0  0  0  0
 11 26  2  0  0  0  0
 12 26  1  0  0  0  0
 12 31  1  0  0  0  0
 12 32  1  0  0  0  0
 13 14  1  0  0  0  0
 13 27  1  6  0  0  0
 14  9  1  0  0  0  0
 14 15  1  0  0  0  0
 14 33  1  6  0  0  0
 16 18  2  0  0  0  0
 16 19  1  0  0  0  0
 17 18  1  0  0  0  0
 17 34  1  0  0  0  0
 17 35  1  0  0  0  0
 18 21  1  0  0  0  0
 20 22  1  0  0  0  0
 21 23  2  0  0  0  0
 21 36  1  0  0  0  0
 22 24  1  0  0  0  0
 23 37  1  0  0  0  0
 23 38  1  0  0  0  0
 24 25  2  0  0  0  0
 25 39  1  0  0  0  0
M  END
>  <DRUGBANK_ID>
DB00535

>  <SECONDARY_ACCESSION_NUMBERS>
APRD00644

>  <COMMON_NAME>
Cefdinir

>  <CAS_NUMBER>
91832-40-5

>  <UNII>
CI0FAO63WC

>  <SYNONYMS>
(6R,7R,Z)-7-(2-(2-aminothiazol-4-yl)-2-(hydroxyimino)acetamido)-8-oxo-3-vinyl-5-thia-1-aza-bicyclo[4.2.0]oct-2-ene-2-carboxylic acid; (6R,7R)-7-{2-(2-Amino-thiazol-4-yl)-2-[(Z)-hydroxyimino]-acetylamino}-8-oxo-3-vinyl-5-thia-1-aza-bicyclo[4.2.0]oct-2-ene-2-carboxylic acid; Cefdinir; Cefdinirum; CFDN

$$$$
