
 OpenBabel10282417072D

 61 64  0  0  1  0  0  0  0  0999 V2000
    2.1587    2.5708    0.0000 O   0  0  0  0  0  0  0  0  0  0  0  0
    4.8165   -0.8250    0.0000 O   0  0  0  0  0  0  0  0  0  0  0  0
    3.3875    0.8250    0.0000 N   0  0  0  0  0  0  0  0  0  0  0  0
    5.5310    0.4125    0.0000 N   0  0  0  0  0  0  0  0  0  0  0  0
    3.3013    1.6455    0.0000 C   0  0  0  0  0  0  0  0  0  0  0  0
    2.6339    0.4895    0.0000 C   0  0  0  0  0  0  0  0  0  0  0  0
    2.4943    1.8170    0.0000 C   0  0  2  0  0  0  0  0  0  0  0  0
    2.0818    1.1026    0.0000 C   0  0  0  0  0  0  0  0  0  0  0  0
    4.1020    0.4125    0.0000 C   0  0  0  0  0  0  0  0  0  0  0  0
    4.8165    0.8250    0.0000 C   0  0  2  0  0  0  0  0  0  0  0  0
    4.8165    1.6500    0.0000 C   0  0  0  0  0  0  0  0  0  0  0  0
    5.5310   -0.4125    0.0000 C   0  0  0  0  0  0  0  0  0  0  0  0
    6.2455   -0.8250    0.0000 C   0  0  0  0  0  0  0  0  0  0  0  0
    6.2455    0.8250    0.0000 C   0  0  0  0  0  0  0  0  0  0  0  0
    4.1020    2.0625    0.0000 C   0  0  0  0  0  0  0  0  0  0  0  0
    5.5310    2.0625    0.0000 C   0  0  0  0  0  0  0  0  0  0  0  0
    6.2455   -1.6500    0.0000 C   0  0  0  0  0  0  0  0  0  0  0  0
    6.9599   -0.4125    0.0000 C   0  0  0  0  0  0  0  0  0  0  0  0
    4.1020    2.8876    0.0000 C   0  0  0  0  0  0  0  0  0  0  0  0
    5.5310    2.8876    0.0000 C   0  0  0  0  0  0  0  0  0  0  0  0
    4.8165    3.3001    0.0000 C   0  0  0  0  0  0  0  0  0  0  0  0
    6.9599   -2.0625    0.0000 C   0  0  0  0  0  0  0  0  0  0  0  0
    6.9599    0.4125    0.0000 C   0  0  0  0  0  0  0  0  0  0  0  0
    5.5310   -2.0625    0.0000 C   0  0  0  0  0  0  0  0  0  0  0  0
    7.6745   -0.8250    0.0000 C   0  0  0  0  0  0  0  0  0  0  0  0
    6.9599   -2.8876    0.0000 C   0  0  0  0  0  0  0  0  0  0  0  0
    7.6745    0.8250    0.0000 C   0  0  0  0  0  0  0  0  0  0  0  0
    5.5310   -2.8876    0.0000 C   0  0  0  0  0  0  0  0  0  0  0  0
    8.3889   -0.4125    0.0000 C   0  0  0  0  0  0  0  0  0  0  0  0
    6.2455   -3.3001    0.0000 C   0  0  0  0  0  0  0  0  0  0  0  0
    8.3889    0.4125    0.0000 C   0  0  0  0  0  0  0  0  0  0  0  0
    2.7289    3.3555    0.0000 H   0  0  0  0  0  0  0  0  0  0  0  0
    4.0965    2.3615    0.0000 H   0  0  0  0  0  0  0  0  0  0  0  0
    3.0243    2.6790    0.0000 H   0  0  0  0  0  0  0  0  0  0  0  0
    2.4114   -0.5571    0.0000 H   0  0  0  0  0  0  0  0  0  0  0  0
    1.6004    0.2125    0.0000 H   0  0  0  0  0  0  0  0  0  0  0  0
    3.1677    2.6486    0.0000 H   0  0  0  0  0  0  0  0  0  0  0  0
    1.0177    0.9907    0.0000 H   0  0  0  0  0  0  0  0  0  0  0  0
    1.4991    2.0000    0.0000 H   0  0  0  0  0  0  0  0  0  0  0  0
    4.1020   -0.6575    0.0000 H   0  0  0  0  0  0  0  0  0  0  0  0
    5.0286   -0.1225    0.0000 H   0  0  0  0  0  0  0  0  0  0  0  0
    4.8165   -0.2450    0.0000 H   0  0  0  0  0  0  0  0  0  0  0  0
    7.1722   -1.3600    0.0000 H   0  0  0  0  0  0  0  0  0  0  0  0
    7.1721    0.2900    0.0000 H   0  0  0  0  0  0  0  0  0  0  0  0
    6.2455    1.8950    0.0000 H   0  0  0  0  0  0  0  0  0  0  0  0
    7.1722    1.3600    0.0000 H   0  0  0  0  0  0  0  0  0  0  0  0
    3.2083    1.5465    0.0000 H   0  0  0  0  0  0  0  0  0  0  0  0
    6.4247    1.5465    0.0000 H   0  0  0  0  0  0  0  0  0  0  0  0
    3.2083    3.4036    0.0000 H   0  0  0  0  0  0  0  0  0  0  0  0
    6.4247    3.4036    0.0000 H   0  0  0  0  0  0  0  0  0  0  0  0
    4.8165    4.3321    0.0000 H   0  0  0  0  0  0  0  0  0  0  0  0
    7.8536   -1.5465    0.0000 H   0  0  0  0  0  0  0  0  0  0  0  0
    6.0662    0.9285    0.0000 H   0  0  0  0  0  0  0  0  0  0  0  0
    4.6373   -1.5465    0.0000 H   0  0  0  0  0  0  0  0  0  0  0  0
    7.6746   -1.8570    0.0000 H   0  0  0  0  0  0  0  0  0  0  0  0
    7.8536   -3.4036    0.0000 H   0  0  0  0  0  0  0  0  0  0  0  0
    7.6746    1.8570    0.0000 H   0  0  0  0  0  0  0  0  0  0  0  0
    4.6373   -3.4036    0.0000 H   0  0  0  0  0  0  0  0  0  0  0  0
    9.2826   -0.9285    0.0000 H   0  0  0  0  0  0  0  0  0  0  0  0
    6.2455   -4.3321    0.0000 H   0  0  0  0  0  0  0  0  0  0  0  0
    9.2826    0.9285    0.0000 H   0  0  0  0  0  0  0  0  0  0  0  0
  1 32  1  0  0  0  0
  2 12  2  0  0  0  0
  3  5  1  0  0  0  0
  3  6  1  0  0  0  0
  3  9  1  0  0  0  0
  4 12  1  0  0  0  0
  4 14  1  0  0  0  0
  5  7  1  0  0  0  0
  5 33  1  0  0  0  0
  5 34  1  0  0  0  0
  6  8  1  0  0  0  0
  6 35  1  0  0  0  0
  6 36  1  0  0  0  0
  7  1  1  0  0  0  0
  7  8  1  0  0  0  0
  7 37  1  1  0  0  0
  8 38  1  0  0  0  0
  8 39  1  0  0  0  0
  9 10  1  0  0  0  0
  9 40  1  0  0  0  0
  9 41  1  0  0  0  0
 10  4  1  0  0  0  0
 10 11  1  0  0  0  0
 10 42  1  1  0  0  0
 11 15  2  0  0  0  0
 11 16  1  0  0  0  0
 12 13  1  0  0  0  0
 13 17  1  0  0  0  0
 13 18  1  0  0  0  0
 13 43  1  0  0  0  0
 14 44  1  0  0  0  0
 14 45  1  0  0  0  0
 14 46  1  0  0  0  0
 15 19  1  0  0  0  0
 15 47  1  0  0  0  0
 16 20  2  0  0  0  0
 16 48  1  0  0  0  0
 17 22  2  0  0  0  0
 17 24  1  0  0  0  0
 18 23  2  0  0  0  0
 18 25  1  0  0  0  0
 19 21  2  0  0  0  0
 19 49  1  0  0  0  0
 20 21  1  0  0  0  0
 20 50  1  0  0  0  0
 21 51  1  0  0  0  0
 22 26  1  0  0  0  0
 22 52  1  0  0  0  0
 23 27  1  0  0  0  0
 23 53  1  0  0  0  0
 24 28  2  0  0  0  0
 24 54  1  0  0  0  0
 25 29  2  0  0  0  0
 25 55  1  0  0  0  0
 26 30  2  0  0  0  0
 26 56  1  0  0  0  0
 27 31  2  0  0  0  0
 27 57  1  0  0  0  0
 28 30  1  0  0  0  0
 28 58  1  0  0  0  0
 29 31  1  0  0  0  0
 29 59  1  0  0  0  0
 30 60  1  0  0  0  0
 31 61  1  0  0  0  0
M  END
>  <DRUGBANK_ID>
DB05104

>  <COMMON_NAME>
Asimadoline

>  <CAS_NUMBER>
153205-46-0

>  <UNII>
D0VK52NV5M

>  <SYNONYMS>
Asimadoline

$$$$
