TF5
 OpenBabel10282417072D

 30 31  0  0  0  0  0  0  0  0999 V2000
    0.8549    1.4291    0.0000 C   0  0  0  0  0  0  0  0  0  0  0  0
    0.8549   -2.6959    0.0000 C   0  0  0  0  0  0  0  0  0  0  0  0
    1.5694   -2.2834    0.0000 C   0  0  0  0  0  0  0  0  0  0  0  0
    0.1405    0.1916    0.0000 C   0  0  0  0  0  0  0  0  0  0  0  0
    0.8549   -0.2209    0.0000 C   0  0  0  0  0  0  0  0  0  0  0  0
    3.7128   -1.0459    0.0000 C   0  0  0  0  0  0  0  0  0  0  0  0
    2.9984   -1.4584    0.0000 C   0  0  0  0  0  0  0  0  0  0  0  0
    2.2839   -1.0459    0.0000 C   0  0  0  0  0  0  0  0  0  0  0  0
    2.2839   -0.2209    0.0000 C   0  0  0  0  0  0  0  0  0  0  0  0
    1.5694   -1.4584    0.0000 O   0  0  0  0  0  0  0  0  0  0  0  0
    3.7128   -0.2209    0.0000 C   0  0  0  0  0  0  0  0  0  0  0  0
   -0.5740   -0.2209    0.0000 F   0  0  0  0  0  0  0  0  0  0  0  0
    0.8549   -1.0459    0.0000 F   0  0  0  0  0  0  0  0  0  0  0  0
    0.1405    1.0166    0.0000 C   0  0  0  0  0  0  0  0  0  0  0  0
   -0.5740    1.4291    0.0000 F   0  0  0  0  0  0  0  0  0  0  0  0
    1.5694    1.0166    0.0000 C   0  0  0  0  0  0  0  0  0  0  0  0
    1.5694    0.1916    0.0000 C   0  0  0  0  0  0  0  0  0  0  0  0
    2.9984    0.1916    0.0000 C   0  0  0  0  0  0  0  0  0  0  0  0
    0.8549   -3.5209    0.0000 O   0  0  0  0  0  0  0  0  0  0  0  0
    0.8549    2.4611    0.0000 H   0  0  0  0  0  0  0  0  0  0  0  0
   -0.0717   -2.1609    0.0000 H   0  0  0  0  0  0  0  0  0  0  0  0
   -0.0717   -3.2309    0.0000 H   0  0  0  0  0  0  0  0  0  0  0  0
    2.4960   -2.8184    0.0000 H   0  0  0  0  0  0  0  0  0  0  0  0
    2.4960   -1.7484    0.0000 H   0  0  0  0  0  0  0  0  0  0  0  0
    4.6065   -1.5619    0.0000 H   0  0  0  0  0  0  0  0  0  0  0  0
    2.9984   -2.4904    0.0000 H   0  0  0  0  0  0  0  0  0  0  0  0
    4.6065    0.2951    0.0000 H   0  0  0  0  0  0  0  0  0  0  0  0
    2.4631    1.5326    0.0000 H   0  0  0  0  0  0  0  0  0  0  0  0
    2.9984    1.2236    0.0000 H   0  0  0  0  0  0  0  0  0  0  0  0
    0.0149   -4.0059    0.0000 H   0  0  0  0  0  0  0  0  0  0  0  0
  1 16  2  0  0  0  0
  1 14  1  0  0  0  0
  1 20  1  0  0  0  0
  2  3  1  0  0  0  0
  2 19  1  0  0  0  0
  2 21  1  0  0  0  0
  2 22  1  0  0  0  0
  3 10  1  0  0  0  0
  3 23  1  0  0  0  0
  3 24  1  0  0  0  0
  4 14  2  0  0  0  0
  4  5  1  0  0  0  0
  4 12  1  0  0  0  0
  5 17  2  0  0  0  0
  5 13  1  0  0  0  0
  6  7  2  0  0  0  0
  6 11  1  0  0  0  0
  6 25  1  0  0  0  0
  7  8  1  0  0  0  0
  7 26  1  0  0  0  0
  8 10  1  0  0  0  0
  8  9  2  0  0  0  0
  9 18  1  0  0  0  0
  9 17  1  0  0  0  0
 11 18  2  0  0  0  0
 11 27  1  0  0  0  0
 14 15  1  0  0  0  0
 16 17  1  0  0  0  0
 16 28  1  0  0  0  0
 18 29  1  0  0  0  0
 19 30  1  0  0  0  0
M  END
>  <DRUGBANK_ID>
DB08611

>  <COMMON_NAME>
2-[(2',3',4'-TRIFLUOROBIPHENYL-2-YL)OXY]ETHANOL

$$$$
