
 OpenBabel10282417072D

 71 75  0  0  0  0  0  0  0  0999 V2000
    7.9731   -6.2691    0.0000 C   0  0  0  0  0  0  0  0  0  0  0  0
    6.1236   -0.0259    0.0000 C   0  0  0  0  0  0  0  0  0  0  0  0
    5.9400   -0.8302    0.0000 C   0  0  0  0  0  0  0  0  0  0  0  0
    8.3604   -5.5407    0.0000 C   0  0  0  0  0  0  0  0  0  0  0  0
    7.1486   -6.2979    0.0000 C   0  0  0  0  0  0  0  0  0  0  0  0
    4.5181   -2.1077    0.0000 C   0  0  0  0  0  0  0  0  0  0  0  0
    5.5188    0.5351    0.0000 C   0  0  0  0  0  0  0  0  0  0  0  0
    5.1517   -1.0734    0.0000 C   0  0  0  0  0  0  0  0  0  0  0  0
    4.2161    0.9370    0.0000 C   0  0  0  0  0  0  0  0  0  0  0  0
    3.3911    0.9370    0.0000 C   0  0  0  0  0  0  0  0  0  0  0  0
    2.0884    0.5351    0.0000 C   0  0  0  0  0  0  0  0  0  0  0  0
    1.4836   -0.0259    0.0000 C   0  0  0  0  0  0  0  0  0  0  0  0
    6.6615   -3.3452    0.0000 C   0  0  0  0  0  0  0  0  0  0  0  0
    5.9470   -4.5827    0.0000 C   0  0  0  0  0  0  0  0  0  0  0  0
    4.5181   -2.9327    0.0000 C   0  0  0  0  0  0  0  0  0  0  0  0
    7.9232   -4.8411    0.0000 C   0  0  0  0  0  0  0  0  0  0  0  0
    6.7114   -5.5983    0.0000 C   0  0  0  0  0  0  0  0  0  0  0  0
    3.8036   -1.6952    0.0000 C   0  0  0  0  0  0  0  0  0  0  0  0
    5.9470   -2.9327    0.0000 C   0  0  0  0  0  0  0  0  0  0  0  0
    5.2326   -4.1702    0.0000 C   0  0  0  0  0  0  0  0  0  0  0  0
    2.4555   -1.0734    0.0000 C   0  0  0  0  0  0  0  0  0  0  0  0
    4.7305    0.2919    0.0000 C   0  0  0  0  0  0  0  0  0  0  0  0
    2.8767    0.2919    0.0000 C   0  0  0  0  0  0  0  0  0  0  0  0
    1.6672   -0.8302    0.0000 C   0  0  0  0  0  0  0  0  0  0  0  0
    4.5469   -0.5123    0.0000 C   0  0  0  0  0  0  0  0  0  0  0  0
    3.0603   -0.5123    0.0000 C   0  0  0  0  0  0  0  0  0  0  0  0
    7.4860   -4.1990    0.0000 C   0  0  0  0  0  0  0  0  0  0  0  0
    6.6615   -4.1702    0.0000 C   0  0  0  0  0  0  0  0  0  0  0  0
    1.0624   -1.3914    0.0000 Cl  0  0  0  0  0  0  0  0  0  0  0  0
    8.2275   -4.5607    0.0000 N   0  0  0  0  0  0  0  0  0  0  0  0
    5.2326   -3.3452    0.0000 N   0  0  0  0  0  0  0  0  0  0  0  0
    7.0987   -4.8699    0.0000 N   0  0  0  0  0  0  0  0  0  0  0  0
    3.8036   -0.8702    0.0000 N   0  0  0  0  0  0  0  0  0  0  0  0
    7.9232   -3.4994    0.0000 O   0  0  0  0  0  0  0  0  0  0  0  0
    8.5401   -7.1765    0.0000 H   0  0  0  0  0  0  0  0  0  0  0  0
    7.4708   -7.2139    0.0000 H   0  0  0  0  0  0  0  0  0  0  0  0
    7.1097    0.2783    0.0000 H   0  0  0  0  0  0  0  0  0  0  0  0
    6.6965   -1.5321    0.0000 H   0  0  0  0  0  0  0  0  0  0  0  0
    9.4297   -5.5033    0.0000 H   0  0  0  0  0  0  0  0  0  0  0  0
    8.8627   -4.5959    0.0000 H   0  0  0  0  0  0  0  0  0  0  0  0
    6.6463   -7.2427    0.0000 H   0  0  0  0  0  0  0  0  0  0  0  0
    6.0793   -6.3353    0.0000 H   0  0  0  0  0  0  0  0  0  0  0  0
    5.4447   -1.5727    0.0000 H   0  0  0  0  0  0  0  0  0  0  0  0
    4.5181   -1.0377    0.0000 H   0  0  0  0  0  0  0  0  0  0  0  0
    5.7483    1.5412    0.0000 H   0  0  0  0  0  0  0  0  0  0  0  0
    4.9221   -2.0795    0.0000 H   0  0  0  0  0  0  0  0  0  0  0  0
    4.6804    1.9010    0.0000 H   0  0  0  0  0  0  0  0  0  0  0  0
    5.2794    1.0568    0.0000 H   0  0  0  0  0  0  0  0  0  0  0  0
    2.9268    1.9010    0.0000 H   0  0  0  0  0  0  0  0  0  0  0  0
    2.3278    1.0568    0.0000 H   0  0  0  0  0  0  0  0  0  0  0  0
    1.8589    1.5412    0.0000 H   0  0  0  0  0  0  0  0  0  0  0  0
    0.4975    0.2783    0.0000 H   0  0  0  0  0  0  0  0  0  0  0  0
    7.5881   -2.8102    0.0000 H   0  0  0  0  0  0  0  0  0  0  0  0
    7.5881   -3.8802    0.0000 H   0  0  0  0  0  0  0  0  0  0  0  0
    5.9470   -5.6527    0.0000 H   0  0  0  0  0  0  0  0  0  0  0  0
    6.8736   -5.1177    0.0000 H   0  0  0  0  0  0  0  0  0  0  0  0
    3.5915   -3.4677    0.0000 H   0  0  0  0  0  0  0  0  0  0  0  0
    4.5181   -4.0027    0.0000 H   0  0  0  0  0  0  0  0  0  0  0  0
    8.4255   -3.8963    0.0000 H   0  0  0  0  0  0  0  0  0  0  0  0
    7.3562   -3.9337    0.0000 H   0  0  0  0  0  0  0  0  0  0  0  0
    5.6421   -5.6357    0.0000 H   0  0  0  0  0  0  0  0  0  0  0  0
    6.1444   -4.6909    0.0000 H   0  0  0  0  0  0  0  0  0  0  0  0
    2.8770   -2.2302    0.0000 H   0  0  0  0  0  0  0  0  0  0  0  0
    2.8770   -1.1602    0.0000 H   0  0  0  0  0  0  0  0  0  0  0  0
    5.9470   -1.8627    0.0000 H   0  0  0  0  0  0  0  0  0  0  0  0
    5.0203   -2.3977    0.0000 H   0  0  0  0  0  0  0  0  0  0  0  0
    4.3059   -4.7052    0.0000 H   0  0  0  0  0  0  0  0  0  0  0  0
    4.3060   -3.6352    0.0000 H   0  0  0  0  0  0  0  0  0  0  0  0
    2.6851   -2.0795    0.0000 H   0  0  0  0  0  0  0  0  0  0  0  0
    8.2961   -5.5428    0.0000 H   0  0  0  0  0  0  0  0  0  0  0  0
    8.8596   -3.5321    0.0000 H   0  0  0  0  0  0  0  0  0  0  0  0
  1 35  1  0  0  0  0
  1 36  1  0  0  0  0
  2 37  1  0  0  0  0
  3  2  2  0  0  0  0
  3 38  1  0  0  0  0
  4  1  1  0  0  0  0
  4 39  1  0  0  0  0
  4 40  1  0  0  0  0
  5  1  1  0  0  0  0
  5 41  1  0  0  0  0
  5 42  1  0  0  0  0
  6 43  1  0  0  0  0
  6 44  1  0  0  0  0
  7  2  1  0  0  0  0
  7 45  1  0  0  0  0
  8  3  1  0  0  0  0
  8 46  1  0  0  0  0
  9 47  1  0  0  0  0
  9 48  1  0  0  0  0
 10  9  1  0  0  0  0
 10 49  1  0  0  0  0
 10 50  1  0  0  0  0
 11 51  1  0  0  0  0
 12 11  2  0  0  0  0
 12 52  1  0  0  0  0
 13 53  1  0  0  0  0
 13 54  1  0  0  0  0
 14 55  1  0  0  0  0
 14 56  1  0  0  0  0
 15  6  1  0  0  0  0
 15 57  1  0  0  0  0
 15 58  1  0  0  0  0
 16  4  1  0  0  0  0
 16 59  1  0  0  0  0
 16 60  1  0  0  0  0
 17  5  1  0  0  0  0
 17 61  1  0  0  0  0
 17 62  1  0  0  0  0
 18  6  1  0  0  0  0
 18 63  1  0  0  0  0
 18 64  1  0  0  0  0
 19 13  1  0  0  0  0
 19 65  1  0  0  0  0
 19 66  1  0  0  0  0
 20 14  1  0  0  0  0
 20 67  1  0  0  0  0
 20 68  1  0  0  0  0
 21 69  1  0  0  0  0
 22  7  2  0  0  0  0
 22  9  1  0  0  0  0
 23 10  1  0  0  0  0
 23 11  1  0  0  0  0
 24 12  1  0  0  0  0
 24 21  2  0  0  0  0
 25  8  2  0  0  0  0
 25 22  1  0  0  0  0
 26 21  1  0  0  0  0
 26 23  2  0  0  0  0
 28 13  1  0  0  0  0
 28 14  1  0  0  0  0
 28 27  1  0  0  0  0
 29 24  1  0  0  0  0
 30 27  2  0  0  0  0
 30 70  1  0  0  0  0
 31 15  1  0  0  0  0
 31 19  1  0  0  0  0
 31 20  1  0  0  0  0
 32 16  1  0  0  0  0
 32 17  1  0  0  0  0
 32 28  1  0  0  0  0
 33 18  1  0  0  0  0
 33 25  1  0  0  0  0
 33 26  1  0  0  0  0
 34 27  1  0  0  0  0
 34 71  1  0  0  0  0
M  END
>  <DRUGBANK_ID>
DB09003

>  <COMMON_NAME>
Clocapramine

>  <CAS_NUMBER>
47739-98-0

>  <UNII>
6EEL1GB72K

>  <SYNONYMS>
Clocapramina; Clocapramine; Clocapraminum

$$$$
