
 OpenBabel10282417072D

 64 68  0  0  1  0  0  0  0  0999 V2000
    5.7158    4.9500    0.0000 C   0  0  0  0  0  0  0  0  0  0  0  0
    6.4302    4.5375    0.0000 O   0  0  0  0  0  0  0  0  0  0  0  0
    7.1447    4.9500    0.0000 C   0  0  0  0  0  0  0  0  0  0  0  0
    7.8592    4.5375    0.0000 C   0  0  0  0  0  0  0  0  0  0  0  0
    8.5737    4.9500    0.0000 N   0  0  0  0  0  0  0  0  0  0  0  0
    9.2881    4.5375    0.0000 C   0  0  0  0  0  0  0  0  0  0  0  0
   10.0026    4.9500    0.0000 C   0  0  0  0  0  0  0  0  0  0  0  0
   10.7171    4.5375    0.0000 C   0  0  0  0  0  0  0  0  0  0  0  0
   11.4315    4.9500    0.0000 C   0  0  0  0  0  0  0  0  0  0  0  0
   12.1460    4.5375    0.0000 C   0  0  0  0  0  0  0  0  0  0  0  0
   12.8605    4.9500    0.0000 N   0  0  0  0  0  0  0  0  0  0  0  0
   13.5749    4.5375    0.0000 C   0  0  0  0  0  0  0  0  0  0  0  0
   14.2894    4.9500    0.0000 N   0  0  0  0  0  0  0  0  0  0  0  0
   15.0039    4.5375    0.0000 C   0  0  0  0  0  0  0  0  0  0  0  0
   15.0039    3.7125    0.0000 C   0  0  0  0  0  0  0  0  0  0  0  0
   15.7184    3.3000    0.0000 C   0  0  0  0  0  0  0  0  0  0  0  0
   15.7184    2.4750    0.0000 C   0  0  1  0  0  0  0  0  0  0  0  0
   16.4328    2.0625    0.0000 C   0  0  0  0  0  0  0  0  0  0  0  0
   17.1473    2.4750    0.0000 C   0  0  0  0  0  0  0  0  0  0  0  0
   17.8618    2.0625    0.0000 C   0  0  0  0  0  0  0  0  0  0  0  0
   17.8618    1.2375    0.0000 C   0  0  0  0  0  0  0  0  0  0  0  0
   17.1473    0.8250    0.0000 C   0  0  0  0  0  0  0  0  0  0  0  0
   16.4328    1.2375    0.0000 C   0  0  0  0  0  0  0  0  0  0  0  0
   15.7184    0.8250    0.0000 F   0  0  0  0  0  0  0  0  0  0  0  0
   15.0039    2.0625    0.0000 C   0  0  0  0  0  0  0  0  0  0  0  0
   15.0039    1.2375    0.0000 C   0  0  0  0  0  0  0  0  0  0  0  0
   14.2894    0.8250    0.0000 C   0  0  0  0  0  0  0  0  0  0  0  0
   13.5749    1.2375    0.0000 C   0  0  0  0  0  0  0  0  0  0  0  0
   13.5749    2.0625    0.0000 C   0  0  0  0  0  0  0  0  0  0  0  0
   14.2894    2.4750    0.0000 C   0  0  0  0  0  0  0  0  0  0  0  0
   14.2894    3.3000    0.0000 C   0  0  0  0  0  0  0  0  0  0  0  0
   13.5749    3.7125    0.0000 N   0  0  0  0  0  0  0  0  0  0  0  0
   12.1460    3.7125    0.0000 C   0  0  0  0  0  0  0  0  0  0  0  0
   11.4315    3.3000    0.0000 C   0  0  0  0  0  0  0  0  0  0  0  0
   10.7171    3.7125    0.0000 C   0  0  0  0  0  0  0  0  0  0  0  0
    5.7158    6.0200    0.0000 H   0  0  0  0  0  0  0  0  0  0  0  0
    4.7891    4.4150    0.0000 H   0  0  0  0  0  0  0  0  0  0  0  0
    4.7892    5.4850    0.0000 H   0  0  0  0  0  0  0  0  0  0  0  0
    7.1447    6.0200    0.0000 H   0  0  0  0  0  0  0  0  0  0  0  0
    8.0713    5.4850    0.0000 H   0  0  0  0  0  0  0  0  0  0  0  0
    7.8592    3.4675    0.0000 H   0  0  0  0  0  0  0  0  0  0  0  0
    8.7858    4.0025    0.0000 H   0  0  0  0  0  0  0  0  0  0  0  0
    8.5737    5.9700    0.0000 H   0  0  0  0  0  0  0  0  0  0  0  0
    9.2881    3.4675    0.0000 H   0  0  0  0  0  0  0  0  0  0  0  0
   10.2147    4.0025    0.0000 H   0  0  0  0  0  0  0  0  0  0  0  0
   10.0026    6.0200    0.0000 H   0  0  0  0  0  0  0  0  0  0  0  0
   10.9292    5.4850    0.0000 H   0  0  0  0  0  0  0  0  0  0  0  0
   11.4315    5.9820    0.0000 H   0  0  0  0  0  0  0  0  0  0  0  0
   12.8605    5.9345    0.0000 H   0  0  0  0  0  0  0  0  0  0  0  0
   15.8976    5.0535    0.0000 H   0  0  0  0  0  0  0  0  0  0  0  0
   16.6450    3.8350    0.0000 H   0  0  0  0  0  0  0  0  0  0  0  0
   16.6450    2.7650    0.0000 H   0  0  0  0  0  0  0  0  0  0  0  0
   16.6451    3.0100    0.0000 H   0  0  0  0  0  0  0  0  0  0  0  0
   17.1473    3.5070    0.0000 H   0  0  0  0  0  0  0  0  0  0  0  0
   18.7555    2.5785    0.0000 H   0  0  0  0  0  0  0  0  0  0  0  0
   18.7555    0.7215    0.0000 H   0  0  0  0  0  0  0  0  0  0  0  0
   17.1473   -0.2070    0.0000 H   0  0  0  0  0  0  0  0  0  0  0  0
   15.8976    0.7215    0.0000 H   0  0  0  0  0  0  0  0  0  0  0  0
   14.2894   -0.2070    0.0000 H   0  0  0  0  0  0  0  0  0  0  0  0
   12.6812    0.7215    0.0000 H   0  0  0  0  0  0  0  0  0  0  0  0
   12.6812    2.5785    0.0000 H   0  0  0  0  0  0  0  0  0  0  0  0
   13.0397    3.1965    0.0000 H   0  0  0  0  0  0  0  0  0  0  0  0
   11.4315    2.2680    0.0000 H   0  0  0  0  0  0  0  0  0  0  0  0
    9.8234    3.1965    0.0000 H   0  0  0  0  0  0  0  0  0  0  0  0
  1  2  1  0  0  0  0
  1 36  1  0  0  0  0
  1 37  1  0  0  0  0
  1 38  1  0  0  0  0
  2  3  1  0  0  0  0
  3  4  1  0  0  0  0
  3 39  1  0  0  0  0
  3 40  1  0  0  0  0
  4  5  1  0  0  0  0
  4 41  1  0  0  0  0
  4 42  1  0  0  0  0
  5  6  1  0  0  0  0
  5 43  1  0  0  0  0
  6  7  1  0  0  0  0
  6 44  1  0  0  0  0
  6 45  1  0  0  0  0
  7  8  1  0  0  0  0
  7 46  1  0  0  0  0
  7 47  1  0  0  0  0
  8  9  2  0  0  0  0
  8 35  1  0  0  0  0
  9 10  1  0  0  0  0
  9 48  1  0  0  0  0
 10 11  1  0  0  0  0
 10 33  2  0  0  0  0
 11 12  1  0  0  0  0
 11 49  1  0  0  0  0
 12 13  2  0  0  0  0
 12 32  1  0  0  0  0
 13 14  1  0  0  0  0
 14 15  2  0  0  0  0
 14 50  1  0  0  0  0
 15 16  1  0  0  0  0
 15 31  1  0  0  0  0
 16 51  1  0  0  0  0
 16 52  1  0  0  0  0
 17 16  1  0  0  0  0
 17 18  1  0  0  0  0
 17 25  1  0  0  0  0
 17 53  1  6  0  0  0
 18 19  2  0  0  0  0
 18 23  1  0  0  0  0
 19 20  1  0  0  0  0
 19 54  1  0  0  0  0
 20 21  2  0  0  0  0
 20 55  1  0  0  0  0
 21 22  1  0  0  0  0
 21 56  1  0  0  0  0
 22 23  2  0  0  0  0
 22 57  1  0  0  0  0
 23 24  1  0  0  0  0
 25 26  2  0  0  0  0
 25 30  1  0  0  0  0
 26 27  1  0  0  0  0
 26 58  1  0  0  0  0
 27 28  2  0  0  0  0
 27 59  1  0  0  0  0
 28 29  1  0  0  0  0
 28 60  1  0  0  0  0
 29 30  2  0  0  0  0
 29 61  1  0  0  0  0
 30 31  1  0  0  0  0
 31 32  2  0  0  0  0
 33 34  1  0  0  0  0
 33 62  1  0  0  0  0
 34 35  2  0  0  0  0
 34 63  1  0  0  0  0
 35 64  1  0  0  0  0
M  END
>  <DRUGBANK_ID>
DB14889

>  <COMMON_NAME>
Derazantinib

>  <CAS_NUMBER>
1234356-69-4

>  <UNII>
N9B0H171MJ

>  <SYNONYMS>
Derazantinib

$$$$
