
 OpenBabel10282417072D

 33 35  0  0  0  0  0  0  0  0999 V2000
   -3.1907    0.9214    0.0000 Cl  0  0  0  0  0  0  0  0  0  0  0  0
   -0.3816    1.7464    0.0000 S   0  0  0  0  0  0  0  0  0  0  0  0
   -1.8808    0.2540    0.0000 S   0  0  0  0  0  0  0  0  0  0  0  0
    0.1486    2.3785    0.0000 O   0  0  0  0  0  0  0  0  0  0  0  0
   -0.9120    2.3785    0.0000 O   0  0  0  0  0  0  0  0  0  0  0  0
   -0.3816   -0.7285    0.0000 O   0  0  0  0  0  0  0  0  0  0  0  0
    1.7617    0.5089    0.0000 O   0  0  0  0  0  0  0  0  0  0  0  0
    0.3328    1.3339    0.0000 N   0  0  0  0  0  0  0  0  0  0  0  0
    1.0473   -0.7285    0.0000 N   0  0  0  0  0  0  0  0  0  0  0  0
    1.7617   -1.9660    0.0000 N   0  0  0  0  0  0  0  0  0  0  0  0
   -1.0960    1.3339    0.0000 C   0  0  0  0  0  0  0  0  0  0  0  0
   -1.0960    0.5089    0.0000 C   0  0  0  0  0  0  0  0  0  0  0  0
    0.3328    0.5089    0.0000 C   0  0  0  0  0  0  0  0  0  0  0  0
   -0.3816    0.0964    0.0000 C   0  0  0  0  0  0  0  0  0  0  0  0
   -1.8808    1.5888    0.0000 C   0  0  0  0  0  0  0  0  0  0  0  0
   -2.3657    0.9214    0.0000 C   0  0  0  0  0  0  0  0  0  0  0  0
    1.0473    0.0964    0.0000 C   0  0  0  0  0  0  0  0  0  0  0  0
    1.0473    1.7464    0.0000 C   0  0  0  0  0  0  0  0  0  0  0  0
    1.7617   -1.1410    0.0000 C   0  0  0  0  0  0  0  0  0  0  0  0
    2.4762   -0.7285    0.0000 C   0  0  0  0  0  0  0  0  0  0  0  0
    2.4762   -2.3785    0.0000 C   0  0  0  0  0  0  0  0  0  0  0  0
    3.1907   -1.1410    0.0000 C   0  0  0  0  0  0  0  0  0  0  0  0
    3.1907   -1.9660    0.0000 C   0  0  0  0  0  0  0  0  0  0  0  0
   -1.1931   -1.1970    0.0000 H   0  0  0  0  0  0  0  0  0  0  0  0
    0.1947   -1.2207    0.0000 H   0  0  0  0  0  0  0  0  0  0  0  0
   -2.1998    2.5703    0.0000 H   0  0  0  0  0  0  0  0  0  0  0  0
    1.9739    1.2114    0.0000 H   0  0  0  0  0  0  0  0  0  0  0  0
    1.0473    2.8164    0.0000 H   0  0  0  0  0  0  0  0  0  0  0  0
    1.9740    2.2814    0.0000 H   0  0  0  0  0  0  0  0  0  0  0  0
    2.4762    0.3035    0.0000 H   0  0  0  0  0  0  0  0  0  0  0  0
    2.4762   -3.4105    0.0000 H   0  0  0  0  0  0  0  0  0  0  0  0
    4.0844   -0.6250    0.0000 H   0  0  0  0  0  0  0  0  0  0  0  0
    4.0844   -2.4820    0.0000 H   0  0  0  0  0  0  0  0  0  0  0  0
  1 16  1  0  0  0  0
  2  4  2  0  0  0  0
  2  5  2  0  0  0  0
  2  8  1  0  0  0  0
  2 11  1  0  0  0  0
  3 12  1  0  0  0  0
  3 16  1  0  0  0  0
  6 14  1  0  0  0  0
  6 24  1  0  0  0  0
  7 17  2  0  0  0  0
  8 13  1  0  0  0  0
  8 18  1  0  0  0  0
  9 17  1  0  0  0  0
  9 19  1  0  0  0  0
  9 25  1  0  0  0  0
 10 19  1  0  0  0  0
 10 21  2  0  0  0  0
 11 12  2  0  0  0  0
 11 15  1  0  0  0  0
 12 14  1  0  0  0  0
 13 14  2  0  0  0  0
 13 17  1  0  0  0  0
 15 16  2  0  0  0  0
 15 26  1  0  0  0  0
 18 27  1  0  0  0  0
 18 28  1  0  0  0  0
 18 29  1  0  0  0  0
 19 20  2  0  0  0  0
 20 22  1  0  0  0  0
 20 30  1  0  0  0  0
 21 23  1  0  0  0  0
 21 31  1  0  0  0  0
 22 23  2  0  0  0  0
 22 32  1  0  0  0  0
 23 33  1  0  0  0  0
M  END
>  <DRUGBANK_ID>
DB06725

>  <COMMON_NAME>
Lornoxicam

>  <CAS_NUMBER>
70374-39-9

>  <UNII>
ER09126G7A

>  <SYNONYMS>
Chlortenoxicam; Lornoxicam; Lornoxicamum

$$$$
