
 OpenBabel10282417072D

 56 58  0  0  1  0  0  0  0  0999 V2000
   -3.2997    0.7891    0.0000 C   0  0  0  0  0  0  0  0  0  0  0  0
   -3.6011    0.0211    0.0000 C   0  0  0  0  0  0  0  0  0  0  0  0
   -2.5114    1.0323    0.0000 C   0  0  0  0  0  0  0  0  0  0  0  0
   -3.1886   -0.6933    0.0000 C   0  0  0  0  0  0  0  0  0  0  0  0
   -0.4008    2.2175    0.0000 C   0  0  0  0  0  0  0  0  0  0  0  0
   -1.8297    2.2175    0.0000 C   0  0  0  0  0  0  0  0  0  0  0  0
   -1.0822   -2.5766    0.0000 C   0  0  0  0  0  0  0  0  0  0  0  0
   -0.7642   -1.1835    0.0000 C   0  0  0  0  0  0  0  0  0  0  0  0
   -0.4008    3.0425    0.0000 C   0  0  0  0  0  0  0  0  0  0  0  0
   -1.8297    3.0425    0.0000 C   0  0  0  0  0  0  0  0  0  0  0  0
   -0.2779   -2.7601    0.0000 C   0  0  0  0  0  0  0  0  0  0  0  0
    0.0401   -1.3670    0.0000 C   0  0  0  0  0  0  0  0  0  0  0  0
   -1.1153    0.9800    0.0000 C   0  0  0  0  0  0  0  0  0  0  0  0
   -2.1297   -1.6046    0.0000 C   0  0  0  0  0  0  0  0  0  0  0  0
   -1.1153    1.8050    0.0000 C   0  0  0  0  0  0  0  0  0  0  0  0
   -1.3254   -1.7882    0.0000 C   0  0  0  0  0  0  0  0  0  0  0  0
   -1.1153    3.4550    0.0000 C   0  0  0  0  0  0  0  0  0  0  0  0
    0.2833   -2.1554    0.0000 C   0  0  0  0  0  0  0  0  0  0  0  0
   -1.8297    0.5675    0.0000 C   0  0  1  0  0  0  0  0  0  0  0  0
   -2.3729   -0.8163    0.0000 C   0  0  1  0  0  0  0  0  0  0  0  0
   -1.7681   -0.2552    0.0000 C   0  0  0  0  0  0  0  0  0  0  0  0
   -1.1153    4.2800    0.0000 C   0  0  0  0  0  0  0  0  0  0  0  0
    1.0876   -2.3390    0.0000 C   0  0  0  0  0  0  0  0  0  0  0  0
   -1.8297    4.6925    0.0000 N   0  0  0  0  0  0  0  0  0  0  0  0
   -0.4008    4.6925    0.0000 N   0  0  0  0  0  0  0  0  0  0  0  0
    1.6487   -1.7342    0.0000 N   0  0  0  0  0  0  0  0  0  0  0  0
    1.3308   -3.1273    0.0000 N   0  0  0  0  0  0  0  0  0  0  0  0
   -1.0001   -0.5566    0.0000 O   0  0  0  0  0  0  0  0  0  0  0  0
   -1.7989    1.3920    0.0000 H   0  0  0  0  0  0  0  0  0  0  0  0
   -2.9110   -1.4416    0.0000 H   0  0  0  0  0  0  0  0  0  0  0  0
   -4.0275    1.5734    0.0000 H   0  0  0  0  0  0  0  0  0  0  0  0
   -3.0228    1.8227    0.0000 H   0  0  0  0  0  0  0  0  0  0  0  0
   -4.6681   -0.0589    0.0000 H   0  0  0  0  0  0  0  0  0  0  0  0
   -4.1010   -0.9249    0.0000 H   0  0  0  0  0  0  0  0  0  0  0  0
   -2.3519    2.0904    0.0000 H   0  0  0  0  0  0  0  0  0  0  0  0
   -1.5307    1.4602    0.0000 H   0  0  0  0  0  0  0  0  0  0  0  0
   -3.7914   -1.5774    0.0000 H   0  0  0  0  0  0  0  0  0  0  0  0
   -2.7608   -1.6740    0.0000 H   0  0  0  0  0  0  0  0  0  0  0  0
    0.4929    1.7015    0.0000 H   0  0  0  0  0  0  0  0  0  0  0  0
   -2.7234    1.7015    0.0000 H   0  0  0  0  0  0  0  0  0  0  0  0
   -1.7841   -3.3331    0.0000 H   0  0  0  0  0  0  0  0  0  0  0  0
   -1.0684   -0.1973    0.0000 H   0  0  0  0  0  0  0  0  0  0  0  0
    0.4929    3.5585    0.0000 H   0  0  0  0  0  0  0  0  0  0  0  0
   -2.7234    3.5585    0.0000 H   0  0  0  0  0  0  0  0  0  0  0  0
    0.0263   -3.7463    0.0000 H   0  0  0  0  0  0  0  0  0  0  0  0
    0.7420   -0.6105    0.0000 H   0  0  0  0  0  0  0  0  0  0  0  0
   -0.1886    0.4450    0.0000 H   0  0  0  0  0  0  0  0  0  0  0  0
   -1.1153   -0.0900    0.0000 H   0  0  0  0  0  0  0  0  0  0  0  0
   -2.8575   -2.3890    0.0000 H   0  0  0  0  0  0  0  0  0  0  0  0
   -3.1729   -1.3665    0.0000 H   0  0  0  0  0  0  0  0  0  0  0  0
   -1.8297    5.6770    0.0000 H   0  0  0  0  0  0  0  0  0  0  0  0
   -2.6823    4.2003    0.0000 H   0  0  0  0  0  0  0  0  0  0  0  0
    0.4518    4.2002    0.0000 H   0  0  0  0  0  0  0  0  0  0  0  0
    2.6085   -1.9532    0.0000 H   0  0  0  0  0  0  0  0  0  0  0  0
    1.3585   -0.7935    0.0000 H   0  0  0  0  0  0  0  0  0  0  0  0
    0.6612   -3.8490    0.0000 H   0  0  0  0  0  0  0  0  0  0  0  0
  1 31  1  0  0  0  0
  1 32  1  0  0  0  0
  2  1  1  0  0  0  0
  2 33  1  0  0  0  0
  2 34  1  0  0  0  0
  3  1  1  0  0  0  0
  3 35  1  0  0  0  0
  3 36  1  0  0  0  0
  4  2  1  0  0  0  0
  4 37  1  0  0  0  0
  4 38  1  0  0  0  0
  5 39  1  0  0  0  0
  6 40  1  0  0  0  0
  7 41  1  0  0  0  0
  8 42  1  0  0  0  0
  9  5  1  0  0  0  0
  9 43  1  0  0  0  0
 10  6  2  0  0  0  0
 10 44  1  0  0  0  0
 11  7  1  0  0  0  0
 11 45  1  0  0  0  0
 12  8  2  0  0  0  0
 12 46  1  0  0  0  0
 13 47  1  0  0  0  0
 13 48  1  0  0  0  0
 14 49  1  0  0  0  0
 14 50  1  0  0  0  0
 15  5  2  0  0  0  0
 15  6  1  0  0  0  0
 15 13  1  0  0  0  0
 16  7  2  0  0  0  0
 16  8  1  0  0  0  0
 16 14  1  0  0  0  0
 17  9  2  0  0  0  0
 17 10  1  0  0  0  0
 18 11  2  0  0  0  0
 18 12  1  0  0  0  0
 19  3  1  0  0  0  0
 19 13  1  0  0  0  0
 19 29  1  6  0  0  0
 20  4  1  0  0  0  0
 20 14  1  0  0  0  0
 20 30  1  1  0  0  0
 21 19  1  0  0  0  0
 21 20  1  0  0  0  0
 22 17  1  0  0  0  0
 23 18  1  0  0  0  0
 24 22  1  0  0  0  0
 24 51  1  0  0  0  0
 24 52  1  0  0  0  0
 25 22  2  0  0  0  0
 25 53  1  0  0  0  0
 26 23  1  0  0  0  0
 26 54  1  0  0  0  0
 26 55  1  0  0  0  0
 27 23  2  0  0  0  0
 27 56  1  0  0  0  0
 28 21  2  0  0  0  0
M  END
>  <DRUGBANK_ID>
DB02081

>  <SECONDARY_ACCESSION_NUMBERS>
EXPT00632

>  <COMMON_NAME>
Bis-Benzamidine

$$$$
