AHC
 OpenBabel10282417072D

 23 23  0  0  0  0  0  0  0  0999 V2000
    0.8281    1.1296    0.0000 C   0  0  0  0  0  0  0  0  0  0  0  0
    1.5426    1.5421    0.0000 C   0  0  0  0  0  0  0  0  0  0  0  0
    1.5426    2.3671    0.0000 O   0  0  0  0  0  0  0  0  0  0  0  0
    2.2570    1.1296    0.0000 O   0  0  0  0  0  0  0  0  0  0  0  0
    0.8281    0.3046    0.0000 C   0  0  0  0  0  0  0  0  0  0  0  0
    0.1136   -0.1079    0.0000 C   0  0  0  0  0  0  0  0  0  0  0  0
    0.1136   -0.9329    0.0000 C   0  0  0  0  0  0  0  0  0  0  0  0
   -0.6008    0.3046    0.0000 C   0  0  0  0  0  0  0  0  0  0  0  0
   -0.6008   -1.3454    0.0000 C   0  0  0  0  0  0  0  0  0  0  0  0
   -1.3153   -0.1079    0.0000 C   0  0  0  0  0  0  0  0  0  0  0  0
   -1.3153   -0.9329    0.0000 C   0  0  0  0  0  0  0  0  0  0  0  0
   -2.0298   -1.3454    0.0000 N   0  0  0  0  0  0  0  0  0  0  0  0
   -0.0985    1.6646    0.0000 H   0  0  0  0  0  0  0  0  0  0  0  0
   -0.0985    0.5946    0.0000 H   0  0  0  0  0  0  0  0  0  0  0  0
    2.2570    0.1926    0.0000 H   0  0  0  0  0  0  0  0  0  0  0  0
    1.7547   -0.2304    0.0000 H   0  0  0  0  0  0  0  0  0  0  0  0
    0.8281   -0.7654    0.0000 H   0  0  0  0  0  0  0  0  0  0  0  0
    1.0073   -1.4489    0.0000 H   0  0  0  0  0  0  0  0  0  0  0  0
   -0.6008    1.3366    0.0000 H   0  0  0  0  0  0  0  0  0  0  0  0
   -0.6008   -2.3774    0.0000 H   0  0  0  0  0  0  0  0  0  0  0  0
   -2.2090    0.4081    0.0000 H   0  0  0  0  0  0  0  0  0  0  0  0
   -2.8824   -0.8531    0.0000 H   0  0  0  0  0  0  0  0  0  0  0  0
   -2.0298   -2.3299    0.0000 H   0  0  0  0  0  0  0  0  0  0  0  0
  1  2  1  0  0  0  0
  1  5  1  0  0  0  0
  1 13  1  0  0  0  0
  1 14  1  0  0  0  0
  2  3  2  0  0  0  0
  2  4  1  0  0  0  0
  4 15  1  0  0  0  0
  5  6  1  0  0  0  0
  5 16  1  0  0  0  0
  5 17  1  0  0  0  0
  6  7  2  0  0  0  0
  6  8  1  0  0  0  0
  7  9  1  0  0  0  0
  7 18  1  0  0  0  0
  8 10  2  0  0  0  0
  8 19  1  0  0  0  0
  9 11  2  0  0  0  0
  9 20  1  0  0  0  0
 10 11  1  0  0  0  0
 10 21  1  0  0  0  0
 11 12  1  0  0  0  0
 12 22  1  0  0  0  0
 12 23  1  0  0  0  0
M  END
>  <DRUGBANK_ID>
DB03210

>  <SECONDARY_ACCESSION_NUMBERS>
EXPT00463

>  <COMMON_NAME>
4-Aminohydrocinnamic Acid

>  <UNII>
00J8IS9IQI

$$$$
