344
 OpenBabel10282417072D

 22 24  0  0  0  0  0  0  0  0999 V2000
   -1.9773   -0.6225    0.0000 N   0  0  0  0  0  0  0  0  0  0  0  0
   -2.4622    0.0449    0.0000 C   0  0  0  0  0  0  0  0  0  0  0  0
   -1.9773    0.7124    0.0000 N   0  0  0  0  0  0  0  0  0  0  0  0
   -1.1927    0.4574    0.0000 C   0  0  0  0  0  0  0  0  0  0  0  0
   -0.4782    0.8699    0.0000 C   0  0  0  0  0  0  0  0  0  0  0  0
    0.2363    0.4574    0.0000 C   0  0  0  0  0  0  0  0  0  0  0  0
    0.9507    0.8699    0.0000 N   0  0  0  0  0  0  0  0  0  0  0  0
    1.6652    0.4574    0.0000 C   0  0  0  0  0  0  0  0  0  0  0  0
    2.3797    0.8699    0.0000 N   0  0  0  0  0  0  0  0  0  0  0  0
    1.6652   -0.3676    0.0000 N   0  0  0  0  0  0  0  0  0  0  0  0
    0.9507   -0.7801    0.0000 C   0  0  0  0  0  0  0  0  0  0  0  0
    0.9507   -1.6051    0.0000 O   0  0  0  0  0  0  0  0  0  0  0  0
    0.2363   -0.3676    0.0000 C   0  0  0  0  0  0  0  0  0  0  0  0
   -0.4782   -0.7801    0.0000 C   0  0  0  0  0  0  0  0  0  0  0  0
   -1.1927   -0.3676    0.0000 C   0  0  0  0  0  0  0  0  0  0  0  0
   -3.4942    0.0449    0.0000 H   0  0  0  0  0  0  0  0  0  0  0  0
   -2.2815    1.6487    0.0000 H   0  0  0  0  0  0  0  0  0  0  0  0
   -0.4782    1.9019    0.0000 H   0  0  0  0  0  0  0  0  0  0  0  0
    3.2323    0.3776    0.0000 H   0  0  0  0  0  0  0  0  0  0  0  0
    2.3797    1.8544    0.0000 H   0  0  0  0  0  0  0  0  0  0  0  0
    2.5178   -0.8599    0.0000 H   0  0  0  0  0  0  0  0  0  0  0  0
   -0.4782   -1.8121    0.0000 H   0  0  0  0  0  0  0  0  0  0  0  0
  1  2  2  0  0  0  0
  1 15  1  0  0  0  0
  2  3  1  0  0  0  0
  2 16  1  0  0  0  0
  3  4  1  0  0  0  0
  3 17  1  0  0  0  0
  4  5  1  0  0  0  0
  4 15  2  0  0  0  0
  5  6  2  0  0  0  0
  5 18  1  0  0  0  0
  6  7  1  0  0  0  0
  6 13  1  0  0  0  0
  7  8  2  0  0  0  0
  8  9  1  0  0  0  0
  8 10  1  0  0  0  0
  9 19  1  0  0  0  0
  9 20  1  0  0  0  0
 10 11  1  0  0  0  0
 10 21  1  0  0  0  0
 11 12  2  0  0  0  0
 11 13  1  0  0  0  0
 13 14  2  0  0  0  0
 14 15  1  0  0  0  0
 14 22  1  0  0  0  0
M  END
>  <DRUGBANK_ID>
DB07012

>  <COMMON_NAME>
6-AMINO-3,7-DIHYDRO-IMIDAZO[4,5-G]QUINAZOLIN-8-ONE

$$$$
