ITA
 OpenBabel10282417072D

 38 40  0  0  0  0  0  0  0  0999 V2000
    1.3642    0.6489    0.0000 C   0  0  0  0  0  0  0  0  0  0  0  0
    0.6498    1.0614    0.0000 C   0  0  0  0  0  0  0  0  0  0  0  0
   -0.0647    0.6489    0.0000 C   0  0  0  0  0  0  0  0  0  0  0  0
   -0.0647   -0.1761    0.0000 C   0  0  0  0  0  0  0  0  0  0  0  0
    0.6498   -0.5886    0.0000 C   0  0  0  0  0  0  0  0  0  0  0  0
    1.3642   -0.1761    0.0000 C   0  0  0  0  0  0  0  0  0  0  0  0
    2.0787   -0.5886    0.0000 C   0  0  0  0  0  0  0  0  0  0  0  0
    2.2502   -1.3956    0.0000 C   0  0  0  0  0  0  0  0  0  0  0  0
    3.0707   -1.4818    0.0000 N   0  0  0  0  0  0  0  0  0  0  0  0
    3.4832   -2.1963    0.0000 C   0  0  0  0  0  0  0  0  0  0  0  0
    3.0707   -2.9108    0.0000 C   0  0  0  0  0  0  0  0  0  0  0  0
    3.4832   -3.6252    0.0000 O   0  0  0  0  0  0  0  0  0  0  0  0
    2.2457   -2.9108    0.0000 O   0  0  0  0  0  0  0  0  0  0  0  0
    3.4063   -0.7282    0.0000 S   0  0  0  0  0  0  0  0  0  0  0  0
    4.1207   -1.1407    0.0000 O   0  0  0  0  0  0  0  0  0  0  0  0
    3.8912   -0.0607    0.0000 O   0  0  0  0  0  0  0  0  0  0  0  0
    2.7932   -0.1761    0.0000 C   0  0  0  0  0  0  0  0  0  0  0  0
    2.7932    0.6489    0.0000 C   0  0  0  0  0  0  0  0  0  0  0  0
    3.5076    1.0614    0.0000 C   0  0  0  0  0  0  0  0  0  0  0  0
    4.2221    0.6489    0.0000 O   0  0  0  0  0  0  0  0  0  0  0  0
    4.9366    1.0614    0.0000 C   0  0  0  0  0  0  0  0  0  0  0  0
    5.6511    0.6489    0.0000 C   0  0  0  0  0  0  0  0  0  0  0  0
    6.3655    1.0614    0.0000 O   0  0  0  0  0  0  0  0  0  0  0  0
    5.6511   -0.1761    0.0000 O   0  0  0  0  0  0  0  0  0  0  0  0
    3.5076    1.8864    0.0000 O   0  0  0  0  0  0  0  0  0  0  0  0
    2.0787    1.0614    0.0000 C   0  0  0  0  0  0  0  0  0  0  0  0
    1.6982   -2.0087    0.0000 O   0  0  0  0  0  0  0  0  0  0  0  0
    0.6498    2.0934    0.0000 H   0  0  0  0  0  0  0  0  0  0  0  0
   -0.9584    1.1649    0.0000 H   0  0  0  0  0  0  0  0  0  0  0  0
   -0.9584   -0.6921    0.0000 H   0  0  0  0  0  0  0  0  0  0  0  0
    0.6498   -1.6206    0.0000 H   0  0  0  0  0  0  0  0  0  0  0  0
    4.5532   -2.1963    0.0000 H   0  0  0  0  0  0  0  0  0  0  0  0
    4.0182   -3.1229    0.0000 H   0  0  0  0  0  0  0  0  0  0  0  0
    1.7772   -2.0993    0.0000 H   0  0  0  0  0  0  0  0  0  0  0  0
    4.9366    2.1314    0.0000 H   0  0  0  0  0  0  0  0  0  0  0  0
    5.8632    1.5964    0.0000 H   0  0  0  0  0  0  0  0  0  0  0  0
    4.8396   -0.6446    0.0000 H   0  0  0  0  0  0  0  0  0  0  0  0
    2.0787    2.0934    0.0000 H   0  0  0  0  0  0  0  0  0  0  0  0
  1 26  2  0  0  0  0
  1  2  1  0  0  0  0
  1  6  1  0  0  0  0
  2  3  2  0  0  0  0
  2 28  1  0  0  0  0
  3  4  1  0  0  0  0
  3 29  1  0  0  0  0
  4  5  2  0  0  0  0
  4 30  1  0  0  0  0
  5  6  1  0  0  0  0
  5 31  1  0  0  0  0
  6  7  2  0  0  0  0
  7  8  1  0  0  0  0
  7 17  1  0  0  0  0
  8 27  2  0  0  0  0
  8  9  1  0  0  0  0
  9 10  1  0  0  0  0
  9 14  1  0  0  0  0
 10 11  1  0  0  0  0
 10 32  1  0  0  0  0
 10 33  1  0  0  0  0
 11 12  2  0  0  0  0
 11 13  1  0  0  0  0
 13 34  1  0  0  0  0
 14 15  2  0  0  0  0
 14 16  2  0  0  0  0
 14 17  1  0  0  0  0
 17 18  2  0  0  0  0
 18 19  1  0  0  0  0
 18 26  1  0  0  0  0
 19 20  1  0  0  0  0
 19 25  2  0  0  0  0
 20 21  1  0  0  0  0
 21 22  1  0  0  0  0
 21 35  1  0  0  0  0
 21 36  1  0  0  0  0
 22 23  2  0  0  0  0
 22 24  1  0  0  0  0
 24 37  1  0  0  0  0
 26 38  1  0  0  0  0
M  END
>  <DRUGBANK_ID>
DB07999

>  <COMMON_NAME>
{4-[(CARBOXYMETHOXY)CARBONYL]-3,3-DIOXIDO-1-OXONAPHTHO[1,2-D]ISOTHIAZOL-2(1H)-YL}ACETIC ACID

$$$$
