
 OpenBabel10282417072D

 25 25  0  0  0  0  0  0  0  0999 V2000
   20.6008  -15.3723    0.0000 O   0  0  0  0  0  0  0  0  0  0  0  0
   21.3153  -19.0848    0.0000 O   0  0  0  0  0  0  0  0  0  0  0  0
   22.0298  -14.5473    0.0000 N   0  0  0  0  0  0  0  0  0  0  0  0
   21.3153  -15.7848    0.0000 C   0  0  3  0  0  0  0  0  0  0  0  0
   22.0298  -15.3723    0.0000 C   0  0  0  0  0  0  0  0  0  0  0  0
   22.7443  -14.1348    0.0000 C   0  0  0  0  0  0  0  0  0  0  0  0
   21.3153  -18.2598    0.0000 C   0  0  0  0  0  0  0  0  0  0  0  0
   21.3153  -16.6098    0.0000 C   0  0  0  0  0  0  0  0  0  0  0  0
   20.6008  -17.8473    0.0000 C   0  0  0  0  0  0  0  0  0  0  0  0
   22.0298  -17.8473    0.0000 C   0  0  0  0  0  0  0  0  0  0  0  0
   20.6008  -17.0223    0.0000 C   0  0  0  0  0  0  0  0  0  0  0  0
   22.0298  -17.0223    0.0000 C   0  0  0  0  0  0  0  0  0  0  0  0
   20.6008  -14.4023    0.0000 H   0  0  0  0  0  0  0  0  0  0  0  0
   20.5038  -19.5533    0.0000 H   0  0  0  0  0  0  0  0  0  0  0  0
   21.1465  -14.0373    0.0000 H   0  0  0  0  0  0  0  0  0  0  0  0
   21.3153  -14.7148    0.0000 H   0  0  0  0  0  0  0  0  0  0  0  0
   22.9564  -15.9073    0.0000 H   0  0  0  0  0  0  0  0  0  0  0  0
   22.0298  -16.4423    0.0000 H   0  0  0  0  0  0  0  0  0  0  0  0
   23.6709  -14.6698    0.0000 H   0  0  0  0  0  0  0  0  0  0  0  0
   22.7443  -13.0648    0.0000 H   0  0  0  0  0  0  0  0  0  0  0  0
   23.6710  -13.5998    0.0000 H   0  0  0  0  0  0  0  0  0  0  0  0
   19.7071  -18.3633    0.0000 H   0  0  0  0  0  0  0  0  0  0  0  0
   22.9235  -18.3633    0.0000 H   0  0  0  0  0  0  0  0  0  0  0  0
   19.7071  -16.5063    0.0000 H   0  0  0  0  0  0  0  0  0  0  0  0
   22.9235  -16.5063    0.0000 H   0  0  0  0  0  0  0  0  0  0  0  0
  1  4  1  0  0  0  0
  1 13  1  0  0  0  0
  2  7  1  0  0  0  0
  2 14  1  0  0  0  0
  3  5  1  0  0  0  0
  3  6  1  0  0  0  0
  3 15  1  0  0  0  0
  4  5  1  0  0  0  0
  4  8  1  0  0  0  0
  4 16  1  0  0  0  0
  5 17  1  0  0  0  0
  5 18  1  0  0  0  0
  6 19  1  0  0  0  0
  6 20  1  0  0  0  0
  6 21  1  0  0  0  0
  7  9  1  0  0  0  0
  7 10  2  0  0  0  0
  8 11  1  0  0  0  0
  8 12  2  0  0  0  0
  9 11  2  0  0  0  0
  9 22  1  0  0  0  0
 10 12  1  0  0  0  0
 10 23  1  0  0  0  0
 11 24  1  0  0  0  0
 12 25  1  0  0  0  0
M  END
>  <DRUGBANK_ID>
DB09203

>  <COMMON_NAME>
Synephrine

>  <CAS_NUMBER>
94-07-5

>  <UNII>
PEG5DP7434

>  <SYNONYMS>
(Â±)-Synephrine; Oxedrine; p-synephrine

$$$$
