198
 OpenBabel10282417072D

 43 44  0  0  0  0  0  0  0  0999 V2000
   -2.9292   -0.5728    0.0000 C   0  0  0  0  0  0  0  0  0  0  0  0
   -3.6437   -0.1603    0.0000 C   0  0  0  0  0  0  0  0  0  0  0  0
   -3.6437    0.6647    0.0000 C   0  0  0  0  0  0  0  0  0  0  0  0
   -4.3581    1.0772    0.0000 F   0  0  0  0  0  0  0  0  0  0  0  0
   -2.9292    1.0772    0.0000 C   0  0  0  0  0  0  0  0  0  0  0  0
   -2.2147    0.6647    0.0000 C   0  0  0  0  0  0  0  0  0  0  0  0
   -2.2147   -0.1603    0.0000 C   0  0  0  0  0  0  0  0  0  0  0  0
   -1.5002   -0.5728    0.0000 S   0  0  0  0  0  0  0  0  0  0  0  0
   -1.9127   -1.2873    0.0000 O   0  0  0  0  0  0  0  0  0  0  0  0
   -1.0877    0.1417    0.0000 O   0  0  0  0  0  0  0  0  0  0  0  0
   -0.7858   -0.9853    0.0000 C   0  0  0  0  0  0  0  0  0  0  0  0
   -0.0713   -0.5728    0.0000 C   0  0  1  0  0  0  0  0  0  0  0  0
    0.3412   -1.2873    0.0000 O   0  0  0  0  0  0  0  0  0  0  0  0
   -0.4838    0.1417    0.0000 C   0  0  0  0  0  0  0  0  0  0  0  0
    0.6432   -0.1603    0.0000 C   0  0  0  0  0  0  0  0  0  0  0  0
    0.6432    0.6647    0.0000 O   0  0  0  0  0  0  0  0  0  0  0  0
    1.3576   -0.5728    0.0000 N   0  0  0  0  0  0  0  0  0  0  0  0
    2.0721   -0.1603    0.0000 C   0  0  0  0  0  0  0  0  0  0  0  0
    2.0721    0.6647    0.0000 C   0  0  0  0  0  0  0  0  0  0  0  0
    2.7866   -0.5728    0.0000 C   0  0  0  0  0  0  0  0  0  0  0  0
    3.5011   -0.1603    0.0000 C   0  0  0  0  0  0  0  0  0  0  0  0
    3.5011    0.6647    0.0000 C   0  0  0  0  0  0  0  0  0  0  0  0
    4.2155    1.0772    0.0000 C   0  0  0  0  0  0  0  0  0  0  0  0
    4.9300    1.4897    0.0000 N   0  0  0  0  0  0  0  0  0  0  0  0
    2.7866    1.0772    0.0000 C   0  0  0  0  0  0  0  0  0  0  0  0
    2.7866    1.9022    0.0000 C   0  0  0  0  0  0  0  0  0  0  0  0
    2.7866    2.7272    0.0000 F   0  0  0  0  0  0  0  0  0  0  0  0
    3.6116    1.9022    0.0000 F   0  0  0  0  0  0  0  0  0  0  0  0
    1.9616    1.9022    0.0000 F   0  0  0  0  0  0  0  0  0  0  0  0
   -2.9292   -1.6048    0.0000 H   0  0  0  0  0  0  0  0  0  0  0  0
   -4.5374   -0.6763    0.0000 H   0  0  0  0  0  0  0  0  0  0  0  0
   -2.9292    2.1092    0.0000 H   0  0  0  0  0  0  0  0  0  0  0  0
   -1.3210    1.1807    0.0000 H   0  0  0  0  0  0  0  0  0  0  0  0
   -0.7858   -2.0553    0.0000 H   0  0  0  0  0  0  0  0  0  0  0  0
    0.1408   -1.5203    0.0000 H   0  0  0  0  0  0  0  0  0  0  0  0
   -0.1438   -2.1273    0.0000 H   0  0  0  0  0  0  0  0  0  0  0  0
    0.0512    1.0683    0.0000 H   0  0  0  0  0  0  0  0  0  0  0  0
   -1.5538    0.1417    0.0000 H   0  0  0  0  0  0  0  0  0  0  0  0
   -1.0188    1.0684    0.0000 H   0  0  0  0  0  0  0  0  0  0  0  0
    1.3576   -1.5573    0.0000 H   0  0  0  0  0  0  0  0  0  0  0  0
    1.1784    1.1807    0.0000 H   0  0  0  0  0  0  0  0  0  0  0  0
    2.7866   -1.6048    0.0000 H   0  0  0  0  0  0  0  0  0  0  0  0
    4.3948   -0.6763    0.0000 H   0  0  0  0  0  0  0  0  0  0  0  0
  1  2  2  0  0  0  0
  1  7  1  0  0  0  0
  1 30  1  0  0  0  0
  2  3  1  0  0  0  0
  2 31  1  0  0  0  0
  3  4  1  0  0  0  0
  3  5  2  0  0  0  0
  5  6  1  0  0  0  0
  5 32  1  0  0  0  0
  6  7  2  0  0  0  0
  6 33  1  0  0  0  0
  7  8  1  0  0  0  0
  8  9  2  0  0  0  0
  8 10  2  0  0  0  0
  8 11  1  0  0  0  0
 11 12  1  0  0  0  0
 11 34  1  0  0  0  0
 11 35  1  0  0  0  0
 12 13  1  6  0  0  0
 12 14  1  0  0  0  0
 12 15  1  0  0  0  0
 13 36  1  0  0  0  0
 14 37  1  0  0  0  0
 14 38  1  0  0  0  0
 14 39  1  0  0  0  0
 15 16  2  0  0  0  0
 15 17  1  0  0  0  0
 17 18  1  0  0  0  0
 17 40  1  0  0  0  0
 18 19  2  0  0  0  0
 18 20  1  0  0  0  0
 19 25  1  0  0  0  0
 19 41  1  0  0  0  0
 20 21  2  0  0  0  0
 20 42  1  0  0  0  0
 21 22  1  0  0  0  0
 21 43  1  0  0  0  0
 22 23  1  0  0  0  0
 22 25  2  0  0  0  0
 23 24  3  0  0  0  0
 25 26  1  0  0  0  0
 26 27  1  0  0  0  0
 26 28  1  0  0  0  0
 26 29  1  0  0  0  0
M  END
>  <DRUGBANK_ID>
DB02932

>  <SECONDARY_ACCESSION_NUMBERS>
EXPT00064

>  <COMMON_NAME>
(R)-Bicalutamide

>  <CAS_NUMBER>
113299-40-4

>  <UNII>
Z9DL98I0AF

>  <SYNONYMS>
(-)-Bicalutamide

$$$$
