
 OpenBabel10282417072D

 44 47  0  0  1  0  0  0  0  0999 V2000
    4.7791    1.5503    0.0000 C   0  0  0  0  0  0  0  0  0  0  0  0
    4.1170    1.0582    0.0000 C   0  0  0  0  0  0  0  0  0  0  0  0
    4.2121    0.2387    0.0000 C   0  0  0  0  0  0  0  0  0  0  0  0
    3.5499   -0.2534    0.0000 C   0  0  0  0  0  0  0  0  0  0  0  0
    2.8196   -0.1578    0.0000 C   0  0  0  0  0  0  0  0  0  0  0  0
    2.6976    0.8935    0.0000 C   0  0  0  0  0  0  0  0  0  0  0  0
    3.1279    1.3587    0.0000 C   0  0  0  0  0  0  0  0  0  0  0  0
    2.0508    1.4057    0.0000 C   0  0  2  0  0  0  0  0  0  0  0  0
    2.7782    1.7950    0.0000 C   0  0  0  0  0  0  0  0  0  0  0  0
    3.4790    1.3597    0.0000 C   0  0  0  0  0  0  0  0  0  0  0  0
    3.4525    0.5351    0.0000 C   0  0  0  0  0  0  0  0  0  0  0  0
    2.7251    0.1459    0.0000 C   0  0  0  0  0  0  0  0  0  0  0  0
    2.0243    0.5811    0.0000 C   0  0  2  0  0  0  0  0  0  0  0  0
    1.4609   -0.6678    0.0000 C   0  0  2  0  0  0  0  0  0  0  0  0
    2.2804   -0.5727    0.0000 C   0  0  0  0  0  0  0  0  0  0  0  0
    0.8142   -0.1556    0.0000 N   0  0  0  0  0  0  0  0  0  0  0  0
    0.7191    0.6639    0.0000 C   0  0  0  0  0  0  0  0  0  0  0  0
    1.2313    1.3106    0.0000 C   0  0  0  0  0  0  0  0  0  0  0  0
    0.0935   -0.5571    0.0000 C   0  0  0  0  0  0  0  0  0  0  0  0
    5.7613    1.1257    0.0000 H   0  0  0  0  0  0  0  0  0  0  0  0
    4.6557    2.6132    0.0000 H   0  0  0  0  0  0  0  0  0  0  0  0
    5.6379    2.1886    0.0000 H   0  0  0  0  0  0  0  0  0  0  0  0
    5.1594   -0.1709    0.0000 H   0  0  0  0  0  0  0  0  0  0  0  0
    3.8097   -1.2522    0.0000 H   0  0  0  0  0  0  0  0  0  0  0  0
    2.8579    2.3548    0.0000 H   0  0  0  0  0  0  0  0  0  0  0  0
    2.8127    2.8644    0.0000 H   0  0  0  0  0  0  0  0  0  0  0  0
    3.7216    2.2999    0.0000 H   0  0  0  0  0  0  0  0  0  0  0  0
    4.4224    1.8646    0.0000 H   0  0  0  0  0  0  0  0  0  0  0  0
    4.3880    0.7952    0.0000 H   0  0  0  0  0  0  0  0  0  0  0  0
    4.3614   -0.0295    0.0000 H   0  0  0  0  0  0  0  0  0  0  0  0
    3.4180   -0.5343    0.0000 H   0  0  0  0  0  0  0  0  0  0  0  0
    2.6906   -0.9235    0.0000 H   0  0  0  0  0  0  0  0  0  0  0  0
    1.7817   -0.3590    0.0000 H   0  0  0  0  0  0  0  0  0  0  0  0
    2.9677    1.0861    0.0000 H   0  0  0  0  0  0  0  0  0  0  0  0
    1.2080    0.3719    0.0000 H   0  0  0  0  0  0  0  0  0  0  0  0
    2.6829   -1.5641    0.0000 H   0  0  0  0  0  0  0  0  0  0  0  0
    3.3132   -0.8526    0.0000 H   0  0  0  0  0  0  0  0  0  0  0  0
   -0.3101    0.9567    0.0000 H   0  0  0  0  0  0  0  0  0  0  0  0
    0.3908    1.6823    0.0000 H   0  0  0  0  0  0  0  0  0  0  0  0
    0.7106    2.2454    0.0000 H   0  0  0  0  0  0  0  0  0  0  0  0
    1.7192    2.2629    0.0000 H   0  0  0  0  0  0  0  0  0  0  0  0
   -0.8248   -0.0080    0.0000 H   0  0  0  0  0  0  0  0  0  0  0  0
    0.0771   -1.6270    0.0000 H   0  0  0  0  0  0  0  0  0  0  0  0
   -0.8412   -1.0778    0.0000 H   0  0  0  0  0  0  0  0  0  0  0  0
  1  2  1  0  0  0  0
  1 20  1  0  0  0  0
  1 21  1  0  0  0  0
  1 22  1  0  0  0  0
  2  3  2  0  0  0  0
  2  7  1  0  0  0  0
  3  4  1  0  0  0  0
  3 23  1  0  0  0  0
  4  5  2  0  0  0  0
  4 24  1  0  0  0  0
  5  6  1  0  0  0  0
  5 15  1  0  0  0  0
  6  7  2  0  0  0  0
  7 25  1  0  0  0  0
  8  6  1  6  0  0  0
  8  9  1  0  0  0  0
  8 13  1  0  0  0  0
  8 18  1  0  0  0  0
  9 10  1  0  0  0  0
  9 26  1  0  0  0  0
  9 27  1  0  0  0  0
 10 11  1  0  0  0  0
 10 28  1  0  0  0  0
 10 29  1  0  0  0  0
 11 12  1  0  0  0  0
 11 30  1  0  0  0  0
 11 31  1  0  0  0  0
 12 32  1  0  0  0  0
 12 33  1  0  0  0  0
 13 12  1  0  0  0  0
 13 14  1  0  0  0  0
 13 34  1  1  0  0  0
 14 15  1  0  0  0  0
 14 16  1  0  0  0  0
 14 35  1  1  0  0  0
 15 36  1  0  0  0  0
 15 37  1  0  0  0  0
 16 17  1  0  0  0  0
 16 19  1  0  0  0  0
 17 18  1  0  0  0  0
 17 38  1  0  0  0  0
 17 39  1  0  0  0  0
 18 40  1  0  0  0  0
 18 41  1  0  0  0  0
 19 42  1  0  0  0  0
 19 43  1  0  0  0  0
 19 44  1  0  0  0  0
M  END
>  <DRUGBANK_ID>
DB13810

>  <COMMON_NAME>
Dimemorfan

>  <CAS_NUMBER>
36309-01-0

>  <UNII>
623OAC38YU

>  <SYNONYMS>
Dimemorfan; Dimemorfano

$$$$
