
 OpenBabel10282417072D

 23 22  0  0  0  0  0  0  0  0999 V2000
   -0.7144   -0.2062    0.0000 C   0  0  0  0  0  0  0  0  0  0  0  0
   -1.4288    0.2062    0.0000 C   0  0  0  0  0  0  0  0  0  0  0  0
   -0.7144   -1.0312    0.0000 C   0  0  0  0  0  0  0  0  0  0  0  0
    0.0000    0.2062    0.0000 S   0  0  0  0  0  0  0  0  0  0  0  0
   -2.1433   -0.2062    0.0000 C   0  0  0  0  0  0  0  0  0  0  0  0
   -1.4288    1.0312    0.0000 C   0  0  0  0  0  0  0  0  0  0  0  0
   -1.4288   -1.4437    0.0000 C   0  0  0  0  0  0  0  0  0  0  0  0
    0.7145   -0.2062    0.0000 Hg  0  0  0  0  0  0  0  0  0  0  0  0
   -2.1433   -1.0312    0.0000 C   0  0  0  0  0  0  0  0  0  0  0  0
   -2.1433    1.4437    0.0000 O   0  0  0  0  0  0  0  0  0  0  0  0
   -0.7144    1.4437    0.0000 O   0  5  0  0  0  0  0  0  0  0  0  0
    1.4289    0.2062    0.0000 C   0  0  0  0  0  0  0  0  0  0  0  0
    2.1434   -0.2062    0.0000 C   0  0  0  0  0  0  0  0  0  0  0  0
    0.7632    1.3635    0.0000 Na  0  3  0  0  0  0  0  0  0  0  0  0
    0.1793   -1.5472    0.0000 H   0  0  0  0  0  0  0  0  0  0  0  0
   -3.0370    0.3099    0.0000 H   0  0  0  0  0  0  0  0  0  0  0  0
   -1.4288   -2.4757    0.0000 H   0  0  0  0  0  0  0  0  0  0  0  0
   -3.0370   -1.5472    0.0000 H   0  0  0  0  0  0  0  0  0  0  0  0
    1.4289    1.2762    0.0000 H   0  0  0  0  0  0  0  0  0  0  0  0
    2.3555    0.7413    0.0000 H   0  0  0  0  0  0  0  0  0  0  0  0
    2.1435   -1.2762    0.0000 H   0  0  0  0  0  0  0  0  0  0  0  0
    3.0700    0.3289    0.0000 H   0  0  0  0  0  0  0  0  0  0  0  0
    3.0701   -0.7411    0.0000 H   0  0  0  0  0  0  0  0  0  0  0  0
  1  2  1  0  0  0  0
  1  3  2  0  0  0  0
  1  4  1  0  0  0  0
  2  5  2  0  0  0  0
  2  6  1  0  0  0  0
  3  7  1  0  0  0  0
  3 15  1  0  0  0  0
  4  8  1  0  0  0  0
  5  9  1  0  0  0  0
  5 16  1  0  0  0  0
  6 10  2  0  0  0  0
  6 11  1  0  0  0  0
  7  9  2  0  0  0  0
  7 17  1  0  0  0  0
  8 12  1  0  0  0  0
  9 18  1  0  0  0  0
 12 13  1  0  0  0  0
 12 19  1  0  0  0  0
 12 20  1  0  0  0  0
 13 21  1  0  0  0  0
 13 22  1  0  0  0  0
 13 23  1  0  0  0  0
M  CHG  2  11  -1  14   1
M  END
>  <DRUGBANK_ID>
DB11590

>  <COMMON_NAME>
Thimerosal

>  <CAS_NUMBER>
54-64-8

>  <UNII>
2225PI3MOV

>  <SYNONYMS>
[(o-carboxyphenyl)thio]ethylmercury sodium salt; BTL-TML-COVID; BTL-TML-HSV; BTL-TML001; ethyl(2-mercaptobenzoato-S)mercury sodium salt; ethylmercurithiosalicylate sodium; ethylmercurithiosalicylic acid sodium salt; mercurothiolate; o-(ethylmercurithio)benzoic acid sodium salt; sodium ethylmercurithiosalicylate; sodium merthiolate; Thimerosal; Thiomersal; Thiomersalate; Thiomersalum; Tiomersal

$$$$
