22U
 OpenBabel10282417072D

 51 53  0  0  0  0  0  0  0  0999 V2000
    2.5308   -0.6744    0.0000 C   0  0  0  0  0  0  0  0  0  0  0  0
    1.5746   -1.7364    0.0000 N   0  0  0  0  0  0  0  0  0  0  0  0
    1.7462   -0.9294    0.0000 C   0  0  1  0  0  0  0  0  0  0  0  0
    1.1331   -0.3774    0.0000 C   0  0  0  0  0  0  0  0  0  0  0  0
    1.3046    0.4296    0.0000 O   0  0  0  0  0  0  0  0  0  0  0  0
    0.3484   -0.6323    0.0000 N   0  0  0  0  0  0  0  0  0  0  0  0
    0.0935   -1.4169    0.0000 C   0  0  0  0  0  0  0  0  0  0  0  0
   -0.7315   -1.4169    0.0000 C   0  0  0  0  0  0  0  0  0  0  0  0
   -0.9864   -0.6323    0.0000 C   0  0  0  0  0  0  0  0  0  0  0  0
   -0.3190   -0.1474    0.0000 C   0  0  1  0  0  0  0  0  0  0  0  0
   -0.3190    0.6776    0.0000 C   0  0  0  0  0  0  0  0  0  0  0  0
   -1.0335    1.0901    0.0000 N   0  0  0  0  0  0  0  0  0  0  0  0
   -1.0335    1.9151    0.0000 C   0  0  0  0  0  0  0  0  0  0  0  0
   -1.7479    2.3276    0.0000 C   0  0  0  0  0  0  0  0  0  0  0  0
   -2.4624    1.9151    0.0000 C   0  0  0  0  0  0  0  0  0  0  0  0
   -3.1769    2.3276    0.0000 C   0  0  0  0  0  0  0  0  0  0  0  0
   -3.1769    3.1526    0.0000 C   0  0  0  0  0  0  0  0  0  0  0  0
   -2.4624    3.5651    0.0000 C   0  0  0  0  0  0  0  0  0  0  0  0
   -1.7479    3.1526    0.0000 C   0  0  0  0  0  0  0  0  0  0  0  0
    0.3955    1.0901    0.0000 O   0  0  0  0  0  0  0  0  0  0  0  0
    3.1439   -1.2265    0.0000 C   0  0  0  0  0  0  0  0  0  0  0  0
    3.9285   -0.9715    0.0000 C   0  0  0  0  0  0  0  0  0  0  0  0
    4.5416   -1.5236    0.0000 C   0  0  0  0  0  0  0  0  0  0  0  0
    4.3701   -2.3305    0.0000 C   0  0  0  0  0  0  0  0  0  0  0  0
    3.5854   -2.5855    0.0000 C   0  0  0  0  0  0  0  0  0  0  0  0
    2.9723   -2.0335    0.0000 C   0  0  0  0  0  0  0  0  0  0  0  0
   -3.8914    1.9151    0.0000 Cl  0  0  0  0  0  0  0  0  0  0  0  0
    2.1801   -1.3201    0.0000 H   0  0  0  0  0  0  0  0  0  0  0  0
    0.2013    0.1177    0.0000 H   0  0  0  0  0  0  0  0  0  0  0  0
    2.7533    0.3722    0.0000 H   0  0  0  0  0  0  0  0  0  0  0  0
    3.5484   -0.3438    0.0000 H   0  0  0  0  0  0  0  0  0  0  0  0
    0.6045   -2.0515    0.0000 H   0  0  0  0  0  0  0  0  0  0  0  0
    2.3326   -2.4190    0.0000 H   0  0  0  0  0  0  0  0  0  0  0  0
    0.7224   -2.2825    0.0000 H   0  0  0  0  0  0  0  0  0  0  0  0
   -0.3923   -2.3703    0.0000 H   0  0  0  0  0  0  0  0  0  0  0  0
   -1.3604   -2.2825    0.0000 H   0  0  0  0  0  0  0  0  0  0  0  0
   -1.7883   -1.2495    0.0000 H   0  0  0  0  0  0  0  0  0  0  0  0
   -2.0040   -0.3016    0.0000 H   0  0  0  0  0  0  0  0  0  0  0  0
   -1.1538    0.4245    0.0000 H   0  0  0  0  0  0  0  0  0  0  0  0
   -1.8861    0.5978    0.0000 H   0  0  0  0  0  0  0  0  0  0  0  0
   -0.1068    2.4501    0.0000 H   0  0  0  0  0  0  0  0  0  0  0  0
   -1.0335    2.9851    0.0000 H   0  0  0  0  0  0  0  0  0  0  0  0
   -2.4624    0.8831    0.0000 H   0  0  0  0  0  0  0  0  0  0  0  0
   -4.0706    3.6686    0.0000 H   0  0  0  0  0  0  0  0  0  0  0  0
   -2.4624    4.5971    0.0000 H   0  0  0  0  0  0  0  0  0  0  0  0
   -0.8542    3.6686    0.0000 H   0  0  0  0  0  0  0  0  0  0  0  0
    4.1431    0.0380    0.0000 H   0  0  0  0  0  0  0  0  0  0  0  0
    5.5231   -1.2047    0.0000 H   0  0  0  0  0  0  0  0  0  0  0  0
    5.1370   -3.0210    0.0000 H   0  0  0  0  0  0  0  0  0  0  0  0
    3.3709   -3.5950    0.0000 H   0  0  0  0  0  0  0  0  0  0  0  0
    1.9908   -2.3524    0.0000 H   0  0  0  0  0  0  0  0  0  0  0  0
  1  3  1  0  0  0  0
  1 21  1  0  0  0  0
  1 30  1  0  0  0  0
  1 31  1  0  0  0  0
  2 32  1  0  0  0  0
  2 33  1  0  0  0  0
  3  2  1  0  0  0  0
  3  4  1  0  0  0  0
  3 28  1  6  0  0  0
  4  5  2  0  0  0  0
  4  6  1  0  0  0  0
  6  7  1  0  0  0  0
  6 10  1  0  0  0  0
  7  8  1  0  0  0  0
  7 34  1  0  0  0  0
  7 35  1  0  0  0  0
  8  9  1  0  0  0  0
  8 36  1  0  0  0  0
  8 37  1  0  0  0  0
  9 10  1  0  0  0  0
  9 38  1  0  0  0  0
  9 39  1  0  0  0  0
 10 11  1  0  0  0  0
 10 29  1  6  0  0  0
 11 12  1  0  0  0  0
 11 20  2  0  0  0  0
 12 13  1  0  0  0  0
 12 40  1  0  0  0  0
 13 14  1  0  0  0  0
 13 41  1  0  0  0  0
 13 42  1  0  0  0  0
 14 15  2  0  0  0  0
 14 19  1  0  0  0  0
 15 16  1  0  0  0  0
 15 43  1  0  0  0  0
 16 17  2  0  0  0  0
 16 27  1  0  0  0  0
 17 18  1  0  0  0  0
 17 44  1  0  0  0  0
 18 19  2  0  0  0  0
 18 45  1  0  0  0  0
 19 46  1  0  0  0  0
 21 22  2  0  0  0  0
 21 26  1  0  0  0  0
 22 23  1  0  0  0  0
 22 47  1  0  0  0  0
 23 24  2  0  0  0  0
 23 48  1  0  0  0  0
 24 25  1  0  0  0  0
 24 49  1  0  0  0  0
 25 26  2  0  0  0  0
 25 50  1  0  0  0  0
 26 51  1  0  0  0  0
M  END
>  <DRUGBANK_ID>
DB06919

>  <COMMON_NAME>
D-phenylalanyl-N-(3-chlorobenzyl)-L-prolinamide

$$$$
