
 OpenBabel10282417072D

 45 47  0  0  0  0  0  0  0  0999 V2000
   -2.7899    1.5732    0.0000 C   0  0  0  0  0  0  0  0  0  0  0  0
   -3.5044    1.9857    0.0000 C   0  0  0  0  0  0  0  0  0  0  0  0
   -4.2189    1.5731    0.0000 C   0  0  0  0  0  0  0  0  0  0  0  0
   -4.2190    0.7482    0.0000 C   0  0  0  0  0  0  0  0  0  0  0  0
   -3.5045    0.3357    0.0000 C   0  0  0  0  0  0  0  0  0  0  0  0
   -2.7899    0.7482    0.0000 C   0  0  0  0  0  0  0  0  0  0  0  0
   -2.0753    0.3357    0.0000 S   0  0  0  0  0  0  0  0  0  0  0  0
   -2.0755    1.9858    0.0000 N   0  0  0  0  0  0  0  0  0  0  0  0
   -0.6465    1.9858    0.0000 C   0  0  0  0  0  0  0  0  0  0  0  0
   -1.3609    1.5733    0.0000 C   0  0  0  0  0  0  0  0  0  0  0  0
   -1.3609    0.7482    0.0000 C   0  0  0  0  0  0  0  0  0  0  0  0
   -0.6465    0.3357    0.0000 C   0  0  0  0  0  0  0  0  0  0  0  0
    0.0679    0.7482    0.0000 C   0  0  0  0  0  0  0  0  0  0  0  0
    0.0679    1.5733    0.0000 C   0  0  0  0  0  0  0  0  0  0  0  0
   -2.6587   -0.2476    0.0000 O   0  0  0  0  0  0  0  0  0  0  0  0
   -1.4919   -0.2475    0.0000 O   0  0  0  0  0  0  0  0  0  0  0  0
   -2.0755    2.8108    0.0000 C   0  0  0  0  0  0  0  0  0  0  0  0
   -2.7900    3.2232    0.0000 C   0  0  3  0  0  0  0  0  0  0  0  0
   -3.5045    2.8107    0.0000 C   0  0  0  0  0  0  0  0  0  0  0  0
   -2.7901    4.0482    0.0000 C   0  0  0  0  0  0  0  0  0  0  0  0
   -4.2189    3.2231    0.0000 N   0  0  0  0  0  0  0  0  0  0  0  0
   -4.9334    2.8106    0.0000 C   0  0  0  0  0  0  0  0  0  0  0  0
   -4.2190    4.0481    0.0000 C   0  0  0  0  0  0  0  0  0  0  0  0
   -3.5045    3.0177    0.0000 H   0  0  0  0  0  0  0  0  0  0  0  0
   -5.1126    2.0891    0.0000 H   0  0  0  0  0  0  0  0  0  0  0  0
   -5.1128    0.2322    0.0000 H   0  0  0  0  0  0  0  0  0  0  0  0
   -3.5045   -0.6963    0.0000 H   0  0  0  0  0  0  0  0  0  0  0  0
   -0.6465    3.0178    0.0000 H   0  0  0  0  0  0  0  0  0  0  0  0
   -0.6465   -0.6963    0.0000 H   0  0  0  0  0  0  0  0  0  0  0  0
    0.9616    0.2322    0.0000 H   0  0  0  0  0  0  0  0  0  0  0  0
    0.9616    2.0893    0.0000 H   0  0  0  0  0  0  0  0  0  0  0  0
   -1.1489    3.3459    0.0000 H   0  0  0  0  0  0  0  0  0  0  0  0
   -2.0756    3.8808    0.0000 H   0  0  0  0  0  0  0  0  0  0  0  0
   -2.7899    2.1532    0.0000 H   0  0  0  0  0  0  0  0  0  0  0  0
   -3.5045    1.7407    0.0000 H   0  0  0  0  0  0  0  0  0  0  0  0
   -4.4311    2.2757    0.0000 H   0  0  0  0  0  0  0  0  0  0  0  0
   -1.8635    4.5833    0.0000 H   0  0  0  0  0  0  0  0  0  0  0  0
   -3.7168    4.5831    0.0000 H   0  0  0  0  0  0  0  0  0  0  0  0
   -2.7902    5.1182    0.0000 H   0  0  0  0  0  0  0  0  0  0  0  0
   -5.8600    3.3456    0.0000 H   0  0  0  0  0  0  0  0  0  0  0  0
   -4.9334    1.7406    0.0000 H   0  0  0  0  0  0  0  0  0  0  0  0
   -5.8601    2.2756    0.0000 H   0  0  0  0  0  0  0  0  0  0  0  0
   -3.2924    4.5832    0.0000 H   0  0  0  0  0  0  0  0  0  0  0  0
   -5.1457    4.5830    0.0000 H   0  0  0  0  0  0  0  0  0  0  0  0
   -4.2191    5.1181    0.0000 H   0  0  0  0  0  0  0  0  0  0  0  0
  1  2  2  0  0  0  0
  1  8  1  0  0  0  0
  2  3  1  0  0  0  0
  2 24  1  0  0  0  0
  3  4  2  0  0  0  0
  3 25  1  0  0  0  0
  4  5  1  0  0  0  0
  4 26  1  0  0  0  0
  5  6  2  0  0  0  0
  5 27  1  0  0  0  0
  6  1  1  0  0  0  0
  6  7  1  0  0  0  0
  7 11  1  0  0  0  0
  7 15  2  0  0  0  0
  7 16  2  0  0  0  0
  8 17  1  0  0  0  0
  9 10  2  0  0  0  0
  9 28  1  0  0  0  0
 10 11  1  0  0  0  0
 10  8  1  0  0  0  0
 11 12  2  0  0  0  0
 12 13  1  0  0  0  0
 12 29  1  0  0  0  0
 13 14  2  0  0  0  0
 13 30  1  0  0  0  0
 14  9  1  0  0  0  0
 14 31  1  0  0  0  0
 17 18  1  0  0  0  0
 17 32  1  0  0  0  0
 17 33  1  0  0  0  0
 18 19  1  0  0  0  0
 18 20  1  0  0  0  0
 18 34  1  0  0  0  0
 19 21  1  0  0  0  0
 19 35  1  0  0  0  0
 19 36  1  0  0  0  0
 20 37  1  0  0  0  0
 20 38  1  0  0  0  0
 20 39  1  0  0  0  0
 21 22  1  0  0  0  0
 21 23  1  0  0  0  0
 22 40  1  0  0  0  0
 22 41  1  0  0  0  0
 22 42  1  0  0  0  0
 23 43  1  0  0  0  0
 23 44  1  0  0  0  0
 23 45  1  0  0  0  0
M  END
>  <DRUGBANK_ID>
DB13820

>  <COMMON_NAME>
Oxomemazine

>  <CAS_NUMBER>
3689-50-7

>  <UNII>
305MB38V1C

>  <SYNONYMS>
Oxomemazine

$$$$
