
 OpenBabel10282417072D

 55 57  0  0  0  0  0  0  0  0999 V2000
   -3.9296   -2.6813    0.0000 N   0  0  0  0  0  0  0  0  0  0  0  0
   -3.2151   -2.2688    0.0000 C   0  0  0  0  0  0  0  0  0  0  0  0
   -3.2151   -1.4438    0.0000 C   0  0  0  0  0  0  0  0  0  0  0  0
   -2.5006   -1.0313    0.0000 N   0  0  0  0  0  0  0  0  0  0  0  0
   -2.5006   -2.6813    0.0000 N   0  0  0  0  0  0  0  0  0  0  0  0
   -4.6440   -1.4438    0.0000 N   0  0  0  0  0  0  0  0  0  0  0  0
   -1.7862   -2.2688    0.0000 C   0  0  0  0  0  0  0  0  0  0  0  0
   -1.7862   -1.4438    0.0000 C   0  0  2  0  0  0  0  0  0  0  0  0
   -1.0716   -1.0313    0.0000 C   0  0  0  0  0  0  0  0  0  0  0  0
   -0.3572   -1.4438    0.0000 N   0  0  0  0  0  0  0  0  0  0  0  0
    0.3572   -1.0311    0.0000 C   0  0  0  0  0  0  0  0  0  0  0  0
    1.7861   -1.0311    0.0000 C   0  0  0  0  0  0  0  0  0  0  0  0
    1.0717   -1.4436    0.0000 C   0  0  0  0  0  0  0  0  0  0  0  0
    0.3572   -0.2061    0.0000 C   0  0  0  0  0  0  0  0  0  0  0  0
    1.0717    0.2063    0.0000 C   0  0  0  0  0  0  0  0  0  0  0  0
    1.7861   -0.2061    0.0000 C   0  0  0  0  0  0  0  0  0  0  0  0
    2.5006    0.2063    0.0000 C   0  0  0  0  0  0  0  0  0  0  0  0
    2.5006    1.0313    0.0000 O   0  0  0  0  0  0  0  0  0  0  0  0
    3.2150   -0.2061    0.0000 N   0  0  0  0  0  0  0  0  0  0  0  0
    3.9296    2.6813    0.0000 O   0  0  0  0  0  0  0  0  0  0  0  0
    3.9296    0.2063    0.0000 C   0  0  2  0  0  0  0  0  0  0  0  0
    5.3585    0.2063    0.0000 O   0  0  0  0  0  0  0  0  0  0  0  0
    4.6439   -0.2061    0.0000 C   0  0  0  0  0  0  0  0  0  0  0  0
    4.6439   -1.0311    0.0000 O   0  0  0  0  0  0  0  0  0  0  0  0
    3.9296    1.0313    0.0000 C   0  0  0  0  0  0  0  0  0  0  0  0
    4.6441    1.4438    0.0000 C   0  0  0  0  0  0  0  0  0  0  0  0
    4.6441    2.2688    0.0000 C   0  0  0  0  0  0  0  0  0  0  0  0
    5.3585    2.6813    0.0000 O   0  0  0  0  0  0  0  0  0  0  0  0
   -3.9296   -1.0313    0.0000 C   0  0  0  0  0  0  0  0  0  0  0  0
   -3.9296   -0.2063    0.0000 O   0  0  0  0  0  0  0  0  0  0  0  0
   -4.6440   -2.2688    0.0000 C   0  0  0  0  0  0  0  0  0  0  0  0
   -5.3585   -2.6813    0.0000 N   0  0  0  0  0  0  0  0  0  0  0  0
   -2.5006   -0.0468    0.0000 H   0  0  0  0  0  0  0  0  0  0  0  0
   -2.5006   -3.6658    0.0000 H   0  0  0  0  0  0  0  0  0  0  0  0
   -5.4966   -0.9516    0.0000 H   0  0  0  0  0  0  0  0  0  0  0  0
   -0.8595   -2.8038    0.0000 H   0  0  0  0  0  0  0  0  0  0  0  0
   -0.8596   -1.7338    0.0000 H   0  0  0  0  0  0  0  0  0  0  0  0
   -1.7861   -0.3738    0.0000 H   0  0  0  0  0  0  0  0  0  0  0  0
   -1.0715    0.0387    0.0000 H   0  0  0  0  0  0  0  0  0  0  0  0
   -0.1449   -0.4963    0.0000 H   0  0  0  0  0  0  0  0  0  0  0  0
   -0.3571   -2.4283    0.0000 H   0  0  0  0  0  0  0  0  0  0  0  0
    2.6798   -1.5471    0.0000 H   0  0  0  0  0  0  0  0  0  0  0  0
    1.0717   -2.4756    0.0000 H   0  0  0  0  0  0  0  0  0  0  0  0
   -0.5365    0.3100    0.0000 H   0  0  0  0  0  0  0  0  0  0  0  0
    1.0717    1.2383    0.0000 H   0  0  0  0  0  0  0  0  0  0  0  0
    3.2149   -1.1906    0.0000 H   0  0  0  0  0  0  0  0  0  0  0  0
    3.0030    0.7414    0.0000 H   0  0  0  0  0  0  0  0  0  0  0  0
    6.1699   -0.2623    0.0000 H   0  0  0  0  0  0  0  0  0  0  0  0
    3.0030    1.5663    0.0000 H   0  0  0  0  0  0  0  0  0  0  0  0
    3.9296    2.1013    0.0000 H   0  0  0  0  0  0  0  0  0  0  0  0
    5.5707    0.9088    0.0000 H   0  0  0  0  0  0  0  0  0  0  0  0
    5.5707    1.9788    0.0000 H   0  0  0  0  0  0  0  0  0  0  0  0
    6.1700    2.2128    0.0000 H   0  0  0  0  0  0  0  0  0  0  0  0
   -6.2111   -2.1890    0.0000 H   0  0  0  0  0  0  0  0  0  0  0  0
   -5.3585   -3.6658    0.0000 H   0  0  0  0  0  0  0  0  0  0  0  0
  1  2  1  0  0  0  0
  2  3  2  0  0  0  0
  2  5  1  0  0  0  0
  3  4  1  0  0  0  0
  3 29  1  0  0  0  0
  4  8  1  0  0  0  0
  4 33  1  0  0  0  0
  5 34  1  0  0  0  0
  6 35  1  0  0  0  0
  7  5  1  0  0  0  0
  7  8  1  0  0  0  0
  7 36  1  0  0  0  0
  7 37  1  0  0  0  0
  8  9  1  0  0  0  0
  8 38  1  6  0  0  0
  9 10  1  0  0  0  0
  9 39  1  0  0  0  0
  9 40  1  0  0  0  0
 10 11  1  0  0  0  0
 10 41  1  0  0  0  0
 11 14  1  0  0  0  0
 12 13  1  0  0  0  0
 12 16  2  0  0  0  0
 12 42  1  0  0  0  0
 13 11  2  0  0  0  0
 13 43  1  0  0  0  0
 14 15  2  0  0  0  0
 14 44  1  0  0  0  0
 15 16  1  0  0  0  0
 15 45  1  0  0  0  0
 16 17  1  0  0  0  0
 17 19  1  0  0  0  0
 17 18  2  0  0  0  0
 19 46  1  0  0  0  0
 21 19  1  0  0  0  0
 21 25  1  0  0  0  0
 21 23  1  0  0  0  0
 21 47  1  6  0  0  0
 22 48  1  0  0  0  0
 23 22  1  0  0  0  0
 23 24  2  0  0  0  0
 25 26  1  0  0  0  0
 25 49  1  0  0  0  0
 25 50  1  0  0  0  0
 26 27  1  0  0  0  0
 26 51  1  0  0  0  0
 26 52  1  0  0  0  0
 27 20  2  0  0  0  0
 27 28  1  0  0  0  0
 28 53  1  0  0  0  0
 29  6  1  0  0  0  0
 29 30  2  0  0  0  0
 31  1  2  0  0  0  0
 31  6  1  0  0  0  0
 31 32  1  0  0  0  0
 32 54  1  0  0  0  0
 32 55  1  0  0  0  0
M  END
>  <DRUGBANK_ID>
DB02031

>  <SECONDARY_ACCESSION_NUMBERS>
EXPT03050

>  <COMMON_NAME>
(6S)-5,6,7,8-tetrahydrofolic acid

>  <CAS_NUMBER>
135-16-0

>  <SYNONYMS>
(6S)-5,6,7,8-tetrahydrofolate; (6S)-5,6,7,8-tetrahydropteroylglutamate; (6S)-H4folate; (6S)-tetrahydrofolate; (6S)-Tetrahydrofolic acid; (6S)-THFA

$$$$
