
 OpenBabel10282417072D

 43 44  0  0  0  0  0  0  0  0999 V2000
    2.4787   -0.3695    0.0000 N   0  0  0  0  0  0  0  0  0  0  0  0
    2.4787    0.4567    0.0000 C   0  0  1  0  0  0  0  0  0  0  0  0
    3.1913   -0.7978    0.0000 C   0  0  0  0  0  0  0  0  0  0  0  0
    1.6525   -0.3695    0.0000 C   0  0  0  0  0  0  0  0  0  0  0  0
    1.6525    0.4567    0.0000 C   0  0  1  0  0  0  0  0  0  0  0  0
    3.1913    0.8698    0.0000 S   0  0  0  0  0  0  0  0  0  0  0  0
    3.9152   -0.3770    0.0000 C   0  0  0  0  0  0  0  0  0  0  0  0
    3.1837   -1.6241    0.0000 C   0  0  0  0  0  0  0  0  0  0  0  0
    1.0688   -0.9494    0.0000 O   0  0  0  0  0  0  0  0  0  0  0  0
    0.3676    0.8016    0.0000 N   0  0  0  0  0  0  0  0  0  0  0  0
    3.9152    0.4567    0.0000 C   0  0  0  0  0  0  0  0  0  0  0  0
    4.6278   -0.7865    0.0000 C   0  0  0  0  0  0  0  0  0  0  0  0
    2.4674   -2.0259    0.0000 O   0  0  0  0  0  0  0  0  0  0  0  0
    3.8963   -2.0372    0.0000 O   0  0  0  0  0  0  0  0  0  0  0  0
   -0.3448    1.2110    0.0000 C   0  0  0  0  0  0  0  0  0  0  0  0
   -1.0574    0.8016    0.0000 C   0  0  0  0  0  0  0  0  0  0  0  0
   -0.3448    2.0372    0.0000 O   0  0  0  0  0  0  0  0  0  0  0  0
   -1.7737    1.2110    0.0000 C   0  0  0  0  0  0  0  0  0  0  0  0
   -2.4863    0.8016    0.0000 C   0  0  0  0  0  0  0  0  0  0  0  0
   -3.1989    1.2110    0.0000 C   0  0  2  0  0  0  0  0  0  0  0  0
   -3.9152    0.8016    0.0000 C   0  0  0  0  0  0  0  0  0  0  0  0
   -3.1989    2.0372    0.0000 N   0  0  0  0  0  0  0  0  0  0  0  0
   -4.6278    1.2147    0.0000 O   0  0  0  0  0  0  0  0  0  0  0  0
   -3.9115   -0.0246    0.0000 O   0  0  0  0  0  0  0  0  0  0  0  0
    2.4787    1.2792    0.0000 H   0  0  0  0  0  0  0  0  0  0  0  0
    1.7924    1.5175    0.0000 H   0  0  0  0  0  0  0  0  0  0  0  0
   -0.0084   -0.1083    0.0000 H   0  0  0  0  0  0  0  0  0  0  0  0
    4.8405    0.9940    0.0000 H   0  0  0  0  0  0  0  0  0  0  0  0
    4.8425   -0.0771    0.0000 H   0  0  0  0  0  0  0  0  0  0  0  0
    4.6300   -1.8565    0.0000 H   0  0  0  0  0  0  0  0  0  0  0  0
    5.5534   -0.2496    0.0000 H   0  0  0  0  0  0  0  0  0  0  0  0
    5.5555   -1.3196    0.0000 H   0  0  0  0  0  0  0  0  0  0  0  0
    1.6618   -1.5474    0.0000 H   0  0  0  0  0  0  0  0  0  0  0  0
   -1.0562   -0.2684    0.0000 H   0  0  0  0  0  0  0  0  0  0  0  0
   -1.9826    0.2641    0.0000 H   0  0  0  0  0  0  0  0  0  0  0  0
   -1.7749    2.2810    0.0000 H   0  0  0  0  0  0  0  0  0  0  0  0
   -2.7001    1.7465    0.0000 H   0  0  0  0  0  0  0  0  0  0  0  0
   -2.4863   -0.2684    0.0000 H   0  0  0  0  0  0  0  0  0  0  0  0
   -3.4124    0.2656    0.0000 H   0  0  0  0  0  0  0  0  0  0  0  0
   -2.2728    1.7470    0.0000 H   0  0  0  0  0  0  0  0  0  0  0  0
   -2.3156    2.5472    0.0000 H   0  0  0  0  0  0  0  0  0  0  0  0
   -4.0822    2.5472    0.0000 H   0  0  0  0  0  0  0  0  0  0  0  0
   -4.6261    2.1517    0.0000 H   0  0  0  0  0  0  0  0  0  0  0  0
  1  2  1  0  0  0  0
  1  3  1  0  0  0  0
  1  4  1  0  0  0  0
  2  5  1  0  0  0  0
  2  6  1  0  0  0  0
  2 25  1  6  0  0  0
  3  7  2  0  0  0  0
  3  8  1  0  0  0  0
  4  9  2  0  0  0  0
  4  5  1  0  0  0  0
  5 10  1  0  0  0  0
  5 26  1  6  0  0  0
  6 11  1  0  0  0  0
  7 12  1  0  0  0  0
  7 11  1  0  0  0  0
  8 13  1  0  0  0  0
  8 14  2  0  0  0  0
 10 15  1  0  0  0  0
 10 27  1  0  0  0  0
 11 28  1  0  0  0  0
 11 29  1  0  0  0  0
 12 30  1  0  0  0  0
 12 31  1  0  0  0  0
 12 32  1  0  0  0  0
 13 33  1  0  0  0  0
 15 16  1  0  0  0  0
 15 17  2  0  0  0  0
 16 18  1  0  0  0  0
 16 34  1  0  0  0  0
 16 35  1  0  0  0  0
 18 19  1  0  0  0  0
 18 36  1  0  0  0  0
 18 37  1  0  0  0  0
 19 20  1  0  0  0  0
 19 38  1  0  0  0  0
 19 39  1  0  0  0  0
 20 21  1  0  0  0  0
 20 22  1  0  0  0  0
 20 40  1  1  0  0  0
 21 23  1  0  0  0  0
 21 24  2  0  0  0  0
 22 41  1  0  0  0  0
 22 42  1  0  0  0  0
 23 43  1  0  0  0  0
M  END
>  <DRUGBANK_ID>
DB03938

>  <SECONDARY_ACCESSION_NUMBERS>
EXPT02469

>  <COMMON_NAME>
Deacetoxycephalosporin C

>  <CAS_NUMBER>
26924-74-3

>  <SYNONYMS>
DAOC; De(acetyloxy)cephalosporin C; Deacetoxycephalosporin C; Deacetoxycephalosporin-C

$$$$
