
 OpenBabel10282417072D

 97101  0  0  1  0  0  0  0  0999 V2000
    3.7400   -4.3893    0.0000 C   0  0  0  0  0  0  0  0  0  0  0  0
    3.7400   -3.5643    0.0000 C   0  0  0  0  0  0  0  0  0  0  0  0
    3.0255   -3.1518    0.0000 O   0  0  0  0  0  0  0  0  0  0  0  0
    2.3110   -3.5643    0.0000 C   0  0  0  0  0  0  0  0  0  0  0  0
    1.5966   -3.1518    0.0000 C   0  0  0  0  0  0  0  0  0  0  0  0
    0.8821   -3.5643    0.0000 C   0  0  0  0  0  0  0  0  0  0  0  0
    0.8821   -4.3893    0.0000 C   0  0  0  0  0  0  0  0  0  0  0  0
    1.5966   -4.8018    0.0000 C   0  0  0  0  0  0  0  0  0  0  0  0
    2.3110   -4.3893    0.0000 C   0  0  0  0  0  0  0  0  0  0  0  0
    1.5966   -5.6268    0.0000 C   0  0  0  0  0  0  0  0  0  0  0  0
    1.5966   -6.4518    0.0000 C   0  0  0  0  0  0  0  0  0  0  0  0
    2.4216   -5.6268    0.0000 C   0  0  0  0  0  0  0  0  0  0  0  0
    0.7716   -5.6268    0.0000 C   0  0  0  0  0  0  0  0  0  0  0  0
    1.5966   -2.3268    0.0000 C   0  0  0  0  0  0  0  0  0  0  0  0
    0.7716   -2.3268    0.0000 N   0  0  0  0  0  0  0  0  0  0  0  0
    0.5166   -1.5422    0.0000 C   0  0  1  0  0  0  0  0  0  0  0  0
    0.1041   -0.8277    0.0000 C   0  0  0  0  0  0  0  0  0  0  0  0
   -0.2371   -1.8777    0.0000 C   0  0  0  0  0  0  0  0  0  0  0  0
   -0.3233   -2.6982    0.0000 C   0  0  0  0  0  0  0  0  0  0  0  0
   -1.0770   -3.0338    0.0000 C   0  0  0  0  0  0  0  0  0  0  0  0
   -1.7444   -2.5488    0.0000 C   0  0  0  0  0  0  0  0  0  0  0  0
   -2.4981   -2.8844    0.0000 Cl  0  0  0  0  0  0  0  0  0  0  0  0
   -1.6582   -1.7284    0.0000 C   0  0  0  0  0  0  0  0  0  0  0  0
   -0.9045   -1.3928    0.0000 C   0  0  0  0  0  0  0  0  0  0  0  0
    1.1841   -1.0572    0.0000 C   0  0  2  0  0  0  0  0  0  0  0  0
    0.6320   -0.4441    0.0000 C   0  0  0  0  0  0  0  0  0  0  0  0
    1.8515   -1.5422    0.0000 N   0  0  0  0  0  0  0  0  0  0  0  0
    2.6361   -1.2872    0.0000 C   0  0  0  0  0  0  0  0  0  0  0  0
    3.0486   -0.5728    0.0000 O   0  0  0  0  0  0  0  0  0  0  0  0
    3.2492   -1.8393    0.0000 N   0  0  0  0  0  0  0  0  0  0  0  0
    4.0338   -1.5843    0.0000 C   0  0  0  0  0  0  0  0  0  0  0  0
    4.6469   -2.1364    0.0000 C   0  0  0  0  0  0  0  0  0  0  0  0
    4.4754   -2.9433    0.0000 N   0  0  0  0  0  0  0  0  0  0  0  0
    5.0885   -3.4954    0.0000 C   0  0  0  0  0  0  0  0  0  0  0  0
    4.9170   -4.3023    0.0000 C   0  0  0  0  0  0  0  0  0  0  0  0
    4.1323   -4.5573    0.0000 C   0  0  0  0  0  0  0  0  0  0  0  0
    3.9608   -5.3642    0.0000 S   0  0  0  0  0  0  0  0  0  0  0  0
    3.7893   -6.1712    0.0000 C   0  0  0  0  0  0  0  0  0  0  0  0
    3.1538   -5.1927    0.0000 O   0  0  0  0  0  0  0  0  0  0  0  0
    4.7678   -5.5358    0.0000 O   0  0  0  0  0  0  0  0  0  0  0  0
    3.6908   -3.1983    0.0000 C   0  0  0  0  0  0  0  0  0  0  0  0
    3.0777   -2.6462    0.0000 C   0  0  0  0  0  0  0  0  0  0  0  0
    1.7361   -0.4441    0.0000 C   0  0  0  0  0  0  0  0  0  0  0  0
    1.4812    0.3405    0.0000 C   0  0  0  0  0  0  0  0  0  0  0  0
    2.0332    0.9536    0.0000 C   0  0  0  0  0  0  0  0  0  0  0  0
    2.8402    0.7820    0.0000 C   0  0  0  0  0  0  0  0  0  0  0  0
    3.3922    1.3951    0.0000 Cl  0  0  0  0  0  0  0  0  0  0  0  0
    3.0951   -0.0026    0.0000 C   0  0  0  0  0  0  0  0  0  0  0  0
    2.5431   -0.6157    0.0000 C   0  0  0  0  0  0  0  0  0  0  0  0
    2.8134   -4.9243    0.0000 H   0  0  0  0  0  0  0  0  0  0  0  0
    4.6666   -4.9243    0.0000 H   0  0  0  0  0  0  0  0  0  0  0  0
    3.7400   -5.4593    0.0000 H   0  0  0  0  0  0  0  0  0  0  0  0
    4.6666   -3.0293    0.0000 H   0  0  0  0  0  0  0  0  0  0  0  0
    3.7400   -2.4943    0.0000 H   0  0  0  0  0  0  0  0  0  0  0  0
   -0.0116   -3.0483    0.0000 H   0  0  0  0  0  0  0  0  0  0  0  0
   -0.0116   -4.9053    0.0000 H   0  0  0  0  0  0  0  0  0  0  0  0
    3.2047   -4.9053    0.0000 H   0  0  0  0  0  0  0  0  0  0  0  0
    0.6700   -6.9868    0.0000 H   0  0  0  0  0  0  0  0  0  0  0  0
    2.5232   -6.9868    0.0000 H   0  0  0  0  0  0  0  0  0  0  0  0
    1.5966   -7.5218    0.0000 H   0  0  0  0  0  0  0  0  0  0  0  0
    2.9566   -6.5534    0.0000 H   0  0  0  0  0  0  0  0  0  0  0  0
    2.9566   -4.7002    0.0000 H   0  0  0  0  0  0  0  0  0  0  0  0
    3.4916   -5.6268    0.0000 H   0  0  0  0  0  0  0  0  0  0  0  0
    0.2366   -4.7002    0.0000 H   0  0  0  0  0  0  0  0  0  0  0  0
    0.2366   -6.5534    0.0000 H   0  0  0  0  0  0  0  0  0  0  0  0
   -0.2984   -5.6268    0.0000 H   0  0  0  0  0  0  0  0  0  0  0  0
    0.6391    0.0989    0.0000 H   0  0  0  0  0  0  0  0  0  0  0  0
   -0.9659   -0.8277    0.0000 H   0  0  0  0  0  0  0  0  0  0  0  0
   -0.4309    0.0990    0.0000 H   0  0  0  0  0  0  0  0  0  0  0  0
    0.5116   -3.3048    0.0000 H   0  0  0  0  0  0  0  0  0  0  0  0
   -1.1849   -4.0601    0.0000 H   0  0  0  0  0  0  0  0  0  0  0  0
   -2.4931   -1.1218    0.0000 H   0  0  0  0  0  0  0  0  0  0  0  0
   -0.7966   -0.3665    0.0000 H   0  0  0  0  0  0  0  0  0  0  0  0
    0.9626    0.5735    0.0000 H   0  0  0  0  0  0  0  0  0  0  0  0
   -0.4146   -0.6666    0.0000 H   0  0  0  0  0  0  0  0  0  0  0  0
   -0.0840    0.3510    0.0000 H   0  0  0  0  0  0  0  0  0  0  0  0
    4.2563   -0.5377    0.0000 H   0  0  0  0  0  0  0  0  0  0  0  0
    5.0514   -1.2537    0.0000 H   0  0  0  0  0  0  0  0  0  0  0  0
    5.6645   -1.8058    0.0000 H   0  0  0  0  0  0  0  0  0  0  0  0
    5.4421   -2.8524    0.0000 H   0  0  0  0  0  0  0  0  0  0  0  0
    6.1061   -3.1648    0.0000 H   0  0  0  0  0  0  0  0  0  0  0  0
    5.8837   -4.2114    0.0000 H   0  0  0  0  0  0  0  0  0  0  0  0
    5.7122   -5.0182    0.0000 H   0  0  0  0  0  0  0  0  0  0  0  0
    4.6946   -5.3489    0.0000 H   0  0  0  0  0  0  0  0  0  0  0  0
    3.3371   -3.8414    0.0000 H   0  0  0  0  0  0  0  0  0  0  0  0
    3.1147   -4.8880    0.0000 H   0  0  0  0  0  0  0  0  0  0  0  0
    2.7717   -6.5019    0.0000 H   0  0  0  0  0  0  0  0  0  0  0  0
    4.5845   -6.8871    0.0000 H   0  0  0  0  0  0  0  0  0  0  0  0
    3.5669   -7.2178    0.0000 H   0  0  0  0  0  0  0  0  0  0  0  0
    3.4683   -4.2449    0.0000 H   0  0  0  0  0  0  0  0  0  0  0  0
    2.6732   -3.5289    0.0000 H   0  0  0  0  0  0  0  0  0  0  0  0
    2.0601   -2.9768    0.0000 H   0  0  0  0  0  0  0  0  0  0  0  0
    2.2825   -1.9302    0.0000 H   0  0  0  0  0  0  0  0  0  0  0  0
    0.4718    0.5551    0.0000 H   0  0  0  0  0  0  0  0  0  0  0  0
    1.7143    1.9351    0.0000 H   0  0  0  0  0  0  0  0  0  0  0  0
    4.1045   -0.2172    0.0000 H   0  0  0  0  0  0  0  0  0  0  0  0
    2.8620   -1.5972    0.0000 H   0  0  0  0  0  0  0  0  0  0  0  0
  1  2  1  0  0  0  0
  1 50  1  0  0  0  0
  1 51  1  0  0  0  0
  1 52  1  0  0  0  0
  2  3  1  0  0  0  0
  2 53  1  0  0  0  0
  2 54  1  0  0  0  0
  3  4  1  0  0  0  0
  4  5  2  0  0  0  0
  4  9  1  0  0  0  0
  5  6  1  0  0  0  0
  5 14  1  0  0  0  0
  6  7  2  0  0  0  0
  6 55  1  0  0  0  0
  7  8  1  0  0  0  0
  7 56  1  0  0  0  0
  8  9  2  0  0  0  0
  8 10  1  0  0  0  0
  9 57  1  0  0  0  0
 10 11  1  0  0  0  0
 10 12  1  0  0  0  0
 10 13  1  0  0  0  0
 11 58  1  0  0  0  0
 11 59  1  0  0  0  0
 11 60  1  0  0  0  0
 12 61  1  0  0  0  0
 12 62  1  0  0  0  0
 12 63  1  0  0  0  0
 13 64  1  0  0  0  0
 13 65  1  0  0  0  0
 13 66  1  0  0  0  0
 14 15  2  0  0  0  0
 14 27  1  0  0  0  0
 16 15  1  0  0  0  0
 16 17  1  6  0  0  0
 16 18  1  0  0  0  0
 16 25  1  0  0  0  0
 17 67  1  0  0  0  0
 17 68  1  0  0  0  0
 17 69  1  0  0  0  0
 18 19  2  0  0  0  0
 18 24  1  0  0  0  0
 19 20  1  0  0  0  0
 19 70  1  0  0  0  0
 20 21  2  0  0  0  0
 20 71  1  0  0  0  0
 21 22  1  0  0  0  0
 21 23  1  0  0  0  0
 23 24  2  0  0  0  0
 23 72  1  0  0  0  0
 24 73  1  0  0  0  0
 25 26  1  6  0  0  0
 25 27  1  0  0  0  0
 25 43  1  0  0  0  0
 26 74  1  0  0  0  0
 26 75  1  0  0  0  0
 26 76  1  0  0  0  0
 27 28  1  0  0  0  0
 28 29  2  0  0  0  0
 28 30  1  0  0  0  0
 30 31  1  0  0  0  0
 30 42  1  0  0  0  0
 31 32  1  0  0  0  0
 31 77  1  0  0  0  0
 31 78  1  0  0  0  0
 32 33  1  0  0  0  0
 32 79  1  0  0  0  0
 32 80  1  0  0  0  0
 33 34  1  0  0  0  0
 33 41  1  0  0  0  0
 34 35  1  0  0  0  0
 34 81  1  0  0  0  0
 34 82  1  0  0  0  0
 35 36  1  0  0  0  0
 35 83  1  0  0  0  0
 35 84  1  0  0  0  0
 36 37  1  0  0  0  0
 36 85  1  0  0  0  0
 36 86  1  0  0  0  0
 37 38  1  0  0  0  0
 37 39  2  0  0  0  0
 37 40  2  0  0  0  0
 38 87  1  0  0  0  0
 38 88  1  0  0  0  0
 38 89  1  0  0  0  0
 41 42  1  0  0  0  0
 41 90  1  0  0  0  0
 41 91  1  0  0  0  0
 42 92  1  0  0  0  0
 42 93  1  0  0  0  0
 43 44  2  0  0  0  0
 43 49  1  0  0  0  0
 44 45  1  0  0  0  0
 44 94  1  0  0  0  0
 45 46  2  0  0  0  0
 45 95  1  0  0  0  0
 46 47  1  0  0  0  0
 46 48  1  0  0  0  0
 48 49  2  0  0  0  0
 48 96  1  0  0  0  0
 49 97  1  0  0  0  0
M  END
>  <DRUGBANK_ID>
DB14793

>  <COMMON_NAME>
RO-5045337

>  <CAS_NUMBER>
939981-39-2

>  <UNII>
Q8MI0X869M

$$$$
