
 OpenBabel10282417072D

  1  0  0  0  0  0  0  0  0  0999 V2000
    0.0000    0.0000    0.0000 V   0  0  0  0  0  0  0  0  0  0  0  0
M  END
>  <DRUGBANK_ID>
DB13971

>  <COMMON_NAME>
Vanadium

>  <CAS_NUMBER>
7440-62-2

>  <UNII>
00J9J9XKDE

>  <SYNONYMS>
vanadio; Vanadium metallicum; Vanadium, elemental

$$$$
