
 OpenBabel10282417072D

 62 64  0  0  0  0  0  0  0  0999 V2000
   -0.7739   -0.2040    0.0000 P   0  0  2  0  0  0  0  0  0  0  0  0
   -1.5138    0.2040    0.0000 O   0  0  0  0  0  0  0  0  0  0  0  0
    0.5867   -0.2040    0.0000 O   0  0  0  0  0  0  0  0  0  0  0  0
   -0.3656    0.5358    0.0000 O   0  0  0  0  0  0  0  0  0  0  0  0
   -2.8490   -1.7349    0.0000 O   0  0  0  0  0  0  0  0  0  0  0  0
   -2.1516   -2.9681    0.0000 O   0  0  0  0  0  0  0  0  0  0  0  0
    2.0241    0.6208    0.0000 N   0  0  0  0  0  0  0  0  0  0  0  0
    2.0241    1.9731    0.0000 N   0  0  0  0  0  0  0  0  0  0  0  0
    3.5550    0.4507    0.0000 N   0  0  0  0  0  0  0  0  0  0  0  0
    4.2522    1.7264    0.0000 N   0  0  0  0  0  0  0  0  0  0  0  0
   -1.4372   -0.9099    0.0000 N   0  0  0  0  0  0  0  0  0  0  0  0
    3.5550    2.9681    0.0000 N   0  0  0  0  0  0  0  0  0  0  0  0
    2.8066    0.8674    0.0000 C   0  0  0  0  0  0  0  0  0  0  0  0
    2.8066    1.7264    0.0000 C   0  0  0  0  0  0  0  0  0  0  0  0
    3.5550    2.1431    0.0000 C   0  0  0  0  0  0  0  0  0  0  0  0
    1.5734    1.2757    0.0000 C   0  0  0  0  0  0  0  0  0  0  0  0
    2.0241   -0.2040    0.0000 C   0  0  0  0  0  0  0  0  0  0  0  0
    1.3267   -0.6207    0.0000 C   0  0  1  0  0  0  0  0  0  0  0  0
   -0.0340   -0.6207    0.0000 C   0  0  0  0  0  0  0  0  0  0  0  0
    4.2522    0.8674    0.0000 C   0  0  0  0  0  0  0  0  0  0  0  0
   -1.4372   -1.7349    0.0000 C   0  0  2  0  0  0  0  0  0  0  0  0
   -2.3387    0.2040    0.0000 C   0  0  0  0  0  0  0  0  0  0  0  0
   -2.1516   -2.1431    0.0000 C   0  0  0  0  0  0  0  0  0  0  0  0
   -2.7555    0.9184    0.0000 C   0  0  0  0  0  0  0  0  0  0  0  0
   -2.7555   -0.5102    0.0000 C   0  0  0  0  0  0  0  0  0  0  0  0
    1.3267   -1.4031    0.0000 C   0  0  0  0  0  0  0  0  0  0  0  0
   -0.7228   -2.1431    0.0000 C   0  0  0  0  0  0  0  0  0  0  0  0
   -3.5805    0.9184    0.0000 C   0  0  0  0  0  0  0  0  0  0  0  0
   -3.5805   -0.5102    0.0000 C   0  0  0  0  0  0  0  0  0  0  0  0
   -3.9887    0.2040    0.0000 C   0  0  0  0  0  0  0  0  0  0  0  0
   -3.5549   -2.1431    0.0000 C   0  0  0  0  0  0  0  0  0  0  0  0
   -4.2522   -1.7349    0.0000 C   0  0  0  0  0  0  0  0  0  0  0  0
   -3.5549   -2.9681    0.0000 C   0  0  0  0  0  0  0  0  0  0  0  0
   -2.3855   -0.5343    0.0000 H   0  0  0  0  0  0  0  0  0  0  0  0
    4.4076    3.4604    0.0000 H   0  0  0  0  0  0  0  0  0  0  0  0
    2.7024    3.4604    0.0000 H   0  0  0  0  0  0  0  0  0  0  0  0
    0.5415    1.2607    0.0000 H   0  0  0  0  0  0  0  0  0  0  0  0
    2.9547   -0.7320    0.0000 H   0  0  0  0  0  0  0  0  0  0  0  0
    2.0361   -1.2739    0.0000 H   0  0  0  0  0  0  0  0  0  0  0  0
    0.4029   -1.1607    0.0000 H   0  0  0  0  0  0  0  0  0  0  0  0
    0.0079   -1.6899    0.0000 H   0  0  0  0  0  0  0  0  0  0  0  0
    0.9199   -1.1055    0.0000 H   0  0  0  0  0  0  0  0  0  0  0  0
    5.1498    0.3582    0.0000 H   0  0  0  0  0  0  0  0  0  0  0  0
   -0.5118   -1.1978    0.0000 H   0  0  0  0  0  0  0  0  0  0  0  0
   -2.2415    1.8133    0.0000 H   0  0  0  0  0  0  0  0  0  0  0  0
   -2.2416   -1.4051    0.0000 H   0  0  0  0  0  0  0  0  0  0  0  0
    0.4001   -1.9381    0.0000 H   0  0  0  0  0  0  0  0  0  0  0  0
    2.2533   -1.9381    0.0000 H   0  0  0  0  0  0  0  0  0  0  0  0
    1.3267   -2.4731    0.0000 H   0  0  0  0  0  0  0  0  0  0  0  0
   -0.7180   -3.2131    0.0000 H   0  0  0  0  0  0  0  0  0  0  0  0
    0.2014   -1.6040    0.0000 H   0  0  0  0  0  0  0  0  0  0  0  0
    0.2062   -2.6739    0.0000 H   0  0  0  0  0  0  0  0  0  0  0  0
   -4.0985    1.8110    0.0000 H   0  0  0  0  0  0  0  0  0  0  0  0
   -4.0984   -1.4028    0.0000 H   0  0  0  0  0  0  0  0  0  0  0  0
   -5.0207    0.2039    0.0000 H   0  0  0  0  0  0  0  0  0  0  0  0
   -4.4832   -2.6753    0.0000 H   0  0  0  0  0  0  0  0  0  0  0  0
   -4.2458   -0.6649    0.0000 H   0  0  0  0  0  0  0  0  0  0  0  0
   -5.1820   -2.2643    0.0000 H   0  0  0  0  0  0  0  0  0  0  0  0
   -5.1756   -1.1943    0.0000 H   0  0  0  0  0  0  0  0  0  0  0  0
   -4.4815   -3.5031    0.0000 H   0  0  0  0  0  0  0  0  0  0  0  0
   -2.6283   -3.5031    0.0000 H   0  0  0  0  0  0  0  0  0  0  0  0
   -3.5549   -4.0381    0.0000 H   0  0  0  0  0  0  0  0  0  0  0  0
  1  2  1  0  0  0  0
  1  4  2  6  0  0  0
  1 11  1  0  0  0  0
  1 19  1  0  0  0  0
  2 22  1  0  0  0  0
  3 18  1  0  0  0  0
  3 19  1  0  0  0  0
  5 23  1  0  0  0  0
  5 31  1  0  0  0  0
  6 23  2  0  0  0  0
  7 13  1  0  0  0  0
  7 16  1  0  0  0  0
  7 17  1  0  0  0  0
  8 14  1  0  0  0  0
  8 16  2  0  0  0  0
  9 13  2  0  0  0  0
  9 20  1  0  0  0  0
 10 15  1  0  0  0  0
 10 20  2  0  0  0  0
 11 21  1  0  0  0  0
 11 34  1  0  0  0  0
 12 15  1  0  0  0  0
 12 35  1  0  0  0  0
 12 36  1  0  0  0  0
 13 14  1  0  0  0  0
 14 15  2  0  0  0  0
 16 37  1  0  0  0  0
 17 18  1  0  0  0  0
 17 38  1  0  0  0  0
 17 39  1  0  0  0  0
 18 26  1  0  0  0  0
 18 40  1  6  0  0  0
 19 41  1  0  0  0  0
 19 42  1  0  0  0  0
 20 43  1  0  0  0  0
 21 23  1  0  0  0  0
 21 27  1  0  0  0  0
 21 44  1  6  0  0  0
 22 24  2  0  0  0  0
 22 25  1  0  0  0  0
 24 28  1  0  0  0  0
 24 45  1  0  0  0  0
 25 29  2  0  0  0  0
 25 46  1  0  0  0  0
 26 47  1  0  0  0  0
 26 48  1  0  0  0  0
 26 49  1  0  0  0  0
 27 50  1  0  0  0  0
 27 51  1  0  0  0  0
 27 52  1  0  0  0  0
 28 30  2  0  0  0  0
 28 53  1  0  0  0  0
 29 30  1  0  0  0  0
 29 54  1  0  0  0  0
 30 55  1  0  0  0  0
 31 32  1  0  0  0  0
 31 33  1  0  0  0  0
 31 56  1  0  0  0  0
 32 57  1  0  0  0  0
 32 58  1  0  0  0  0
 32 59  1  0  0  0  0
 33 60  1  0  0  0  0
 33 61  1  0  0  0  0
 33 62  1  0  0  0  0
M  END
>  <DRUGBANK_ID>
DB09299

>  <COMMON_NAME>
Tenofovir alafenamide

>  <CAS_NUMBER>
379270-37-8

>  <UNII>
EL9943AG5J

>  <SYNONYMS>
Tenofovir alafenamide

$$$$
