
 OpenBabel10282417072D

 83 88  0  0  1  0  0  0  0  0999 V2000
    6.7602    3.5162    0.0000 C   0  0  0  0  0  0  0  0  0  0  0  0
    7.2920    2.8855    0.0000 C   0  0  1  0  0  0  0  0  0  0  0  0
    8.1041    3.0307    0.0000 C   0  0  1  0  0  0  0  0  0  0  0  0
    8.6360    2.4000    0.0000 C   0  0  2  0  0  0  0  0  0  0  0  0
    8.3557    1.6241    0.0000 C   0  0  1  0  0  0  0  0  0  0  0  0
    7.5435    1.4789    0.0000 C   0  0  1  0  0  0  0  0  0  0  0  0
    7.0117    2.1096    0.0000 O   0  0  0  0  0  0  0  0  0  0  0  0
    7.2632    0.7029    0.0000 O   0  0  0  0  0  0  0  0  0  0  0  0
    6.4511    0.5577    0.0000 C   0  0  1  0  0  0  0  0  0  0  0  0
    6.1708   -0.2182    0.0000 C   0  0  0  0  0  0  0  0  0  0  0  0
    5.3587   -0.3634    0.0000 C   0  0  0  0  0  0  0  0  0  0  0  0
    4.8269    0.2673    0.0000 C   0  0  1  0  0  0  0  0  0  0  0  0
    5.1072    1.0432    0.0000 C   0  0  1  0  0  0  0  0  0  0  0  0
    5.9193    1.1884    0.0000 C   0  0  0  0  0  0  0  0  0  0  0  0
    4.5754    1.6739    0.0000 C   0  0  0  0  0  0  0  0  0  0  0  0
    3.7633    1.5287    0.0000 C   0  0  0  0  0  0  0  0  0  0  0  0
    3.4830    0.7528    0.0000 C   0  0  2  0  0  0  0  0  0  0  0  0
    4.0148    0.1221    0.0000 C   0  0  2  0  0  0  0  0  0  0  0  0
    3.7345   -0.6539    0.0000 C   0  0  0  0  0  0  0  0  0  0  0  0
    2.9224   -0.7991    0.0000 C   0  0  0  0  0  0  0  0  0  0  0  0
    2.3905   -0.1684    0.0000 C   0  0  1  0  0  0  0  0  0  0  0  0
    2.6708    0.6076    0.0000 C   0  0  2  0  0  0  0  0  0  0  0  0
    2.0195    1.1139    0.0000 C   0  0  0  0  0  0  0  0  0  0  0  0
    1.3367    0.6509    0.0000 C   0  0  0  0  0  0  0  0  0  0  0  0
    1.5660   -0.1416    0.0000 C   0  0  2  0  0  0  0  0  0  0  0  0
    1.0596   -0.7929    0.0000 C   0  0  0  0  0  0  0  0  0  0  0  0
    1.2889   -1.5854    0.0000 C   0  0  0  0  0  0  0  0  0  0  0  0
    0.6061   -2.0484    0.0000 C   0  0  0  0  0  0  0  0  0  0  0  0
    0.5793   -2.8729    0.0000 O   0  0  0  0  0  0  0  0  0  0  0  0
   -0.0452   -1.5420    0.0000 O   0  0  0  0  0  0  0  0  0  0  0  0
    0.2351   -0.7661    0.0000 C   0  0  0  0  0  0  0  0  0  0  0  0
    2.8685    1.4085    0.0000 O   0  0  0  0  0  0  0  0  0  0  0  0
    2.0307   -0.9107    0.0000 C   0  0  0  0  0  0  0  0  0  0  0  0
    4.5466   -0.5086    0.0000 C   0  0  0  0  0  0  0  0  0  0  0  0
    5.0784   -1.1393    0.0000 O   0  0  0  0  0  0  0  0  0  0  0  0
    8.8875    0.9934    0.0000 O   0  0  0  0  0  0  0  0  0  0  0  0
    9.4481    2.5452    0.0000 O   0  0  0  0  0  0  0  0  0  0  0  0
    9.7284    3.3211    0.0000 C   0  0  0  0  0  0  0  0  0  0  0  0
    8.3844    3.8066    0.0000 O   0  0  0  0  0  0  0  0  0  0  0  0
    7.1238    4.5225    0.0000 H   0  0  0  0  0  0  0  0  0  0  0  0
    5.7069    3.3279    0.0000 H   0  0  0  0  0  0  0  0  0  0  0  0
    6.0705    4.3342    0.0000 H   0  0  0  0  0  0  0  0  0  0  0  0
    7.6556    3.8918    0.0000 H   0  0  0  0  0  0  0  0  0  0  0  0
    7.4144    3.8487    0.0000 H   0  0  0  0  0  0  0  0  0  0  0  0
    8.9995    3.4064    0.0000 H   0  0  0  0  0  0  0  0  0  0  0  0
    9.4090    1.8124    0.0000 H   0  0  0  0  0  0  0  0  0  0  0  0
    8.2333    0.6609    0.0000 H   0  0  0  0  0  0  0  0  0  0  0  0
    7.1408   -0.2603    0.0000 H   0  0  0  0  0  0  0  0  0  0  0  0
    6.8605   -1.0362    0.0000 H   0  0  0  0  0  0  0  0  0  0  0  0
    5.8072   -1.2245    0.0000 H   0  0  0  0  0  0  0  0  0  0  0  0
    4.9951   -1.3697    0.0000 H   0  0  0  0  0  0  0  0  0  0  0  0
    4.3054   -0.5517    0.0000 H   0  0  0  0  0  0  0  0  0  0  0  0
    5.7969    0.2252    0.0000 H   0  0  0  0  0  0  0  0  0  0  0  0
    6.2829    2.1947    0.0000 H   0  0  0  0  0  0  0  0  0  0  0  0
    6.9726    1.3767    0.0000 H   0  0  0  0  0  0  0  0  0  0  0  0
    4.9390    2.6802    0.0000 H   0  0  0  0  0  0  0  0  0  0  0  0
    3.8857    2.4919    0.0000 H   0  0  0  0  0  0  0  0  0  0  0  0
    3.0736    2.3467    0.0000 H   0  0  0  0  0  0  0  0  0  0  0  0
    2.7100    1.3404    0.0000 H   0  0  0  0  0  0  0  0  0  0  0  0
    4.5363    0.9411    0.0000 H   0  0  0  0  0  0  0  0  0  0  0  0
    2.9615   -0.0662    0.0000 H   0  0  0  0  0  0  0  0  0  0  0  0
    4.4243   -1.4719    0.0000 H   0  0  0  0  0  0  0  0  0  0  0  0
    3.3710   -1.6602    0.0000 H   0  0  0  0  0  0  0  0  0  0  0  0
    2.5589   -1.8055    0.0000 H   0  0  0  0  0  0  0  0  0  0  0  0
    1.8691   -0.9875    0.0000 H   0  0  0  0  0  0  0  0  0  0  0  0
    2.0542    2.1833    0.0000 H   0  0  0  0  0  0  0  0  0  0  0  0
    1.0824    1.6303    0.0000 H   0  0  0  0  0  0  0  0  0  0  0  0
    0.3303    1.0144    0.0000 H   0  0  0  0  0  0  0  0  0  0  0  0
    0.5559   -0.0807    0.0000 H   0  0  0  0  0  0  0  0  0  0  0  0
    0.5152    0.0601    0.0000 H   0  0  0  0  0  0  0  0  0  0  0  0
    2.2595   -1.9360    0.0000 H   0  0  0  0  0  0  0  0  0  0  0  0
   -0.3654    0.1195    0.0000 H   0  0  0  0  0  0  0  0  0  0  0  0
    0.7516    0.1710    0.0000 H   0  0  0  0  0  0  0  0  0  0  0  0
    3.8003    1.6780    0.0000 H   0  0  0  0  0  0  0  0  0  0  0  0
    0.9635   -0.9879    0.0000 H   0  0  0  0  0  0  0  0  0  0  0  0
    2.6312   -1.7963    0.0000 H   0  0  0  0  0  0  0  0  0  0  0  0
    1.5640   -1.8736    0.0000 H   0  0  0  0  0  0  0  0  0  0  0  0
    3.5307   -0.6902    0.0000 H   0  0  0  0  0  0  0  0  0  0  0  0
    8.5579    0.0811    0.0000 H   0  0  0  0  0  0  0  0  0  0  0  0
   10.7817    3.5094    0.0000 H   0  0  0  0  0  0  0  0  0  0  0  0
    9.0387    4.1391    0.0000 H   0  0  0  0  0  0  0  0  0  0  0  0
   10.0920    4.3274    0.0000 H   0  0  0  0  0  0  0  0  0  0  0  0
    9.3393    3.9773    0.0000 H   0  0  0  0  0  0  0  0  0  0  0  0
  1 40  1  0  0  0  0
  1 41  1  0  0  0  0
  1 42  1  0  0  0  0
  2  1  1  0  0  0  0
  2  3  1  0  0  0  0
  2  7  1  0  0  0  0
  2 43  1  6  0  0  0
  3  4  1  0  0  0  0
  3 39  1  0  0  0  0
  3 44  1  1  0  0  0
  4  5  1  0  0  0  0
  4 37  1  0  0  0  0
  4 45  1  6  0  0  0
  5  6  1  0  0  0  0
  5 36  1  0  0  0  0
  5 46  1  1  0  0  0
  6  7  1  0  0  0  0
  6  8  1  0  0  0  0
  6 47  1  1  0  0  0
  9  8  1  0  0  0  0
  9 10  1  0  0  0  0
  9 14  1  0  0  0  0
  9 48  1  6  0  0  0
 10 11  1  0  0  0  0
 10 49  1  0  0  0  0
 10 50  1  0  0  0  0
 11 12  1  0  0  0  0
 11 51  1  0  0  0  0
 11 52  1  0  0  0  0
 12 13  1  0  0  0  0
 12 18  1  0  0  0  0
 12 34  1  1  0  0  0
 13 14  1  0  0  0  0
 13 15  1  0  0  0  0
 13 53  1  1  0  0  0
 14 54  1  0  0  0  0
 14 55  1  0  0  0  0
 15 16  1  0  0  0  0
 15 56  1  0  0  0  0
 15 57  1  0  0  0  0
 16 58  1  0  0  0  0
 16 59  1  0  0  0  0
 17 16  1  0  0  0  0
 17 18  1  0  0  0  0
 17 22  1  0  0  0  0
 17 60  1  1  0  0  0
 18 19  1  0  0  0  0
 18 61  1  6  0  0  0
 19 20  1  0  0  0  0
 19 62  1  0  0  0  0
 19 63  1  0  0  0  0
 20 21  1  0  0  0  0
 20 64  1  0  0  0  0
 20 65  1  0  0  0  0
 21 22  1  0  0  0  0
 21 25  1  0  0  0  0
 21 33  1  1  0  0  0
 22 23  1  0  0  0  0
 22 32  1  1  0  0  0
 23 24  1  0  0  0  0
 23 66  1  0  0  0  0
 23 67  1  0  0  0  0
 24 25  1  0  0  0  0
 24 68  1  0  0  0  0
 24 69  1  0  0  0  0
 25 26  1  0  0  0  0
 25 70  1  6  0  0  0
 26 27  2  0  0  0  0
 26 31  1  0  0  0  0
 27 28  1  0  0  0  0
 27 71  1  0  0  0  0
 28 29  2  0  0  0  0
 28 30  1  0  0  0  0
 30 31  1  0  0  0  0
 31 72  1  0  0  0  0
 31 73  1  0  0  0  0
 32 74  1  0  0  0  0
 33 75  1  0  0  0  0
 33 76  1  0  0  0  0
 33 77  1  0  0  0  0
 34 35  2  0  0  0  0
 34 78  1  0  0  0  0
 36 79  1  0  0  0  0
 37 38  1  0  0  0  0
 38 80  1  0  0  0  0
 38 81  1  0  0  0  0
 38 82  1  0  0  0  0
 39 83  1  0  0  0  0
M  END
>  <DRUGBANK_ID>
DB13756

>  <COMMON_NAME>
Peruvoside

>  <CAS_NUMBER>
1182-87-2

>  <UNII>
CT36KGC6A6

$$$$
