
 OpenBabel10282417072D

 80 81  0  0  0  0  0  0  0  0999 V2000
   -0.3572   -0.8250    0.0000 F   0  0  0  0  0  0  0  0  0  0  0  0
   -0.3572    0.8250    0.0000 O   0  0  0  0  0  0  0  0  0  0  0  0
   -1.0717    0.4125    0.0000 O   0  0  0  0  0  0  0  0  0  0  0  0
    1.7862    0.4125    0.0000 O   0  0  0  0  0  0  0  0  0  0  0  0
   -1.7862   -1.6500    0.0000 O   0  0  0  0  0  0  0  0  0  0  0  0
    0.3572    0.4125    0.0000 O   0  0  0  0  0  0  0  0  0  0  0  0
   -3.2152   -4.1250    0.0000 O   0  0  0  0  0  0  0  0  0  0  0  0
   -1.0717    2.0625    0.0000 N   0  0  0  0  0  0  0  0  0  0  0  0
   -2.5006    0.4125    0.0000 N   0  0  0  0  0  0  0  0  0  0  0  0
    1.0717    1.6500    0.0000 N   0  0  0  0  0  0  0  0  0  0  0  0
   -1.7862    1.6500    0.0000 C   0  0  1  0  0  0  0  0  0  0  0  0
   -2.5006    2.0625    0.0000 C   0  0  0  0  0  0  0  0  0  0  0  0
   -2.5006    2.8875    0.0000 C   0  0  0  0  0  0  0  0  0  0  0  0
    0.3572    2.0625    0.0000 C   0  0  1  0  0  0  0  0  0  0  0  0
    0.3572    2.8875    0.0000 C   0  0  0  0  0  0  0  0  0  0  0  0
    1.0717    3.3000    0.0000 C   0  0  0  0  0  0  0  0  0  0  0  0
   -0.3572    1.6500    0.0000 C   0  0  0  0  0  0  0  0  0  0  0  0
   -1.7862    0.8250    0.0000 C   0  0  0  0  0  0  0  0  0  0  0  0
   -1.7862    3.3000    0.0000 C   0  0  0  0  0  0  0  0  0  0  0  0
   -3.2152    3.3000    0.0000 C   0  0  0  0  0  0  0  0  0  0  0  0
   -2.5006   -0.4125    0.0000 C   0  0  1  0  0  0  0  0  0  0  0  0
    1.7862    2.8875    0.0000 C   0  0  0  0  0  0  0  0  0  0  0  0
    1.0717    4.1250    0.0000 C   0  0  0  0  0  0  0  0  0  0  0  0
   -3.2152   -0.8250    0.0000 C   0  0  0  0  0  0  0  0  0  0  0  0
   -1.7862   -0.8250    0.0000 C   0  0  0  0  0  0  0  0  0  0  0  0
   -3.2152   -1.6500    0.0000 C   0  0  0  0  0  0  0  0  0  0  0  0
    1.0717    0.8250    0.0000 C   0  0  0  0  0  0  0  0  0  0  0  0
   -1.0717   -0.4125    0.0000 C   0  0  0  0  0  0  0  0  0  0  0  0
   -2.5006   -2.0625    0.0000 C   0  0  0  0  0  0  0  0  0  0  0  0
   -3.9296   -2.0625    0.0000 C   0  0  0  0  0  0  0  0  0  0  0  0
   -2.5006   -2.8875    0.0000 C   0  0  0  0  0  0  0  0  0  0  0  0
   -3.9296   -2.8875    0.0000 C   0  0  0  0  0  0  0  0  0  0  0  0
   -3.2152   -3.3000    0.0000 C   0  0  0  0  0  0  0  0  0  0  0  0
    1.7862   -0.4125    0.0000 C   0  0  0  0  0  0  0  0  0  0  0  0
    2.5006   -0.8250    0.0000 C   0  0  0  0  0  0  0  0  0  0  0  0
    3.2152   -0.4125    0.0000 C   0  0  0  0  0  0  0  0  0  0  0  0
    2.5006   -1.6500    0.0000 C   0  0  0  0  0  0  0  0  0  0  0  0
    3.9296   -0.8250    0.0000 C   0  0  0  0  0  0  0  0  0  0  0  0
    3.2152   -2.0625    0.0000 C   0  0  0  0  0  0  0  0  0  0  0  0
    3.9296   -1.6500    0.0000 C   0  0  0  0  0  0  0  0  0  0  0  0
   -1.0717    2.5740    0.0000 H   0  0  0  0  0  0  0  0  0  0  0  0
   -2.9437    0.6682    0.0000 H   0  0  0  0  0  0  0  0  0  0  0  0
    1.5146    1.9057    0.0000 H   0  0  0  0  0  0  0  0  0  0  0  0
   -4.0267   -4.5935    0.0000 H   0  0  0  0  0  0  0  0  0  0  0  0
   -1.7862    2.7200    0.0000 H   0  0  0  0  0  0  0  0  0  0  0  0
   -3.4273    1.5275    0.0000 H   0  0  0  0  0  0  0  0  0  0  0  0
   -3.4272    2.5975    0.0000 H   0  0  0  0  0  0  0  0  0  0  0  0
   -2.5007    3.9575    0.0000 H   0  0  0  0  0  0  0  0  0  0  0  0
    1.2838    2.5975    0.0000 H   0  0  0  0  0  0  0  0  0  0  0  0
   -0.5694    3.4225    0.0000 H   0  0  0  0  0  0  0  0  0  0  0  0
    0.3572    3.9575    0.0000 H   0  0  0  0  0  0  0  0  0  0  0  0
    1.9983    3.8350    0.0000 H   0  0  0  0  0  0  0  0  0  0  0  0
   -0.8595    2.7650    0.0000 H   0  0  0  0  0  0  0  0  0  0  0  0
   -1.7862    4.3700    0.0000 H   0  0  0  0  0  0  0  0  0  0  0  0
   -0.8596    3.8350    0.0000 H   0  0  0  0  0  0  0  0  0  0  0  0
   -3.2153    4.3700    0.0000 H   0  0  0  0  0  0  0  0  0  0  0  0
   -4.1418    2.7649    0.0000 H   0  0  0  0  0  0  0  0  0  0  0  0
   -4.1419    3.8349    0.0000 H   0  0  0  0  0  0  0  0  0  0  0  0
   -3.4272    0.1225    0.0000 H   0  0  0  0  0  0  0  0  0  0  0  0
    1.7862    1.8175    0.0000 H   0  0  0  0  0  0  0  0  0  0  0  0
    2.7128    3.4225    0.0000 H   0  0  0  0  0  0  0  0  0  0  0  0
    2.7129    2.3525    0.0000 H   0  0  0  0  0  0  0  0  0  0  0  0
    1.9983    4.6600    0.0000 H   0  0  0  0  0  0  0  0  0  0  0  0
    0.1451    4.6600    0.0000 H   0  0  0  0  0  0  0  0  0  0  0  0
    1.0717    5.1950    0.0000 H   0  0  0  0  0  0  0  0  0  0  0  0
   -4.1418   -0.2900    0.0000 H   0  0  0  0  0  0  0  0  0  0  0  0
   -4.1419   -1.3600    0.0000 H   0  0  0  0  0  0  0  0  0  0  0  0
   -1.0717    0.6575    0.0000 H   0  0  0  0  0  0  0  0  0  0  0  0
   -1.9983    0.1225    0.0000 H   0  0  0  0  0  0  0  0  0  0  0  0
   -1.6069   -1.5465    0.0000 H   0  0  0  0  0  0  0  0  0  0  0  0
   -4.8233   -1.5465    0.0000 H   0  0  0  0  0  0  0  0  0  0  0  0
   -1.6069   -3.4035    0.0000 H   0  0  0  0  0  0  0  0  0  0  0  0
   -4.8233   -3.4035    0.0000 H   0  0  0  0  0  0  0  0  0  0  0  0
    0.8595   -0.9475    0.0000 H   0  0  0  0  0  0  0  0  0  0  0  0
    1.7862   -1.4825    0.0000 H   0  0  0  0  0  0  0  0  0  0  0  0
    3.2153    0.6195    0.0000 H   0  0  0  0  0  0  0  0  0  0  0  0
    1.6069   -2.1660    0.0000 H   0  0  0  0  0  0  0  0  0  0  0  0
    4.8233   -0.3090    0.0000 H   0  0  0  0  0  0  0  0  0  0  0  0
    3.2153   -3.0945    0.0000 H   0  0  0  0  0  0  0  0  0  0  0  0
    4.8233   -2.1660    0.0000 H   0  0  0  0  0  0  0  0  0  0  0  0
  1 28  1  0  0  0  0
  2 17  2  0  0  0  0
  3 18  2  0  0  0  0
  4 27  1  0  0  0  0
  4 34  1  0  0  0  0
  5 25  2  0  0  0  0
  6 27  2  0  0  0  0
  7 33  1  0  0  0  0
  7 44  1  0  0  0  0
  8 17  1  0  0  0  0
  8 41  1  0  0  0  0
  9 18  1  0  0  0  0
  9 42  1  0  0  0  0
 10 27  1  0  0  0  0
 10 43  1  0  0  0  0
 11  8  1  0  0  0  0
 11 12  1  0  0  0  0
 11 18  1  0  0  0  0
 11 45  1  1  0  0  0
 12 13  1  0  0  0  0
 12 46  1  0  0  0  0
 12 47  1  0  0  0  0
 13 19  1  0  0  0  0
 13 20  1  0  0  0  0
 13 48  1  0  0  0  0
 14 10  1  0  0  0  0
 14 15  1  0  0  0  0
 14 17  1  0  0  0  0
 14 49  1  1  0  0  0
 15 16  1  0  0  0  0
 15 50  1  0  0  0  0
 15 51  1  0  0  0  0
 16 22  1  0  0  0  0
 16 23  1  0  0  0  0
 16 52  1  0  0  0  0
 19 53  1  0  0  0  0
 19 54  1  0  0  0  0
 19 55  1  0  0  0  0
 20 56  1  0  0  0  0
 20 57  1  0  0  0  0
 20 58  1  0  0  0  0
 21  9  1  0  0  0  0
 21 24  1  0  0  0  0
 21 25  1  0  0  0  0
 21 59  1  1  0  0  0
 22 60  1  0  0  0  0
 22 61  1  0  0  0  0
 22 62  1  0  0  0  0
 23 63  1  0  0  0  0
 23 64  1  0  0  0  0
 23 65  1  0  0  0  0
 24 26  1  0  0  0  0
 24 66  1  0  0  0  0
 24 67  1  0  0  0  0
 25 28  1  0  0  0  0
 26 29  2  0  0  0  0
 26 30  1  0  0  0  0
 28 68  1  0  0  0  0
 28 69  1  0  0  0  0
 29 31  1  0  0  0  0
 29 70  1  0  0  0  0
 30 32  2  0  0  0  0
 30 71  1  0  0  0  0
 31 33  2  0  0  0  0
 31 72  1  0  0  0  0
 32 33  1  0  0  0  0
 32 73  1  0  0  0  0
 34 35  1  0  0  0  0
 34 74  1  0  0  0  0
 34 75  1  0  0  0  0
 35 36  2  0  0  0  0
 35 37  1  0  0  0  0
 36 38  1  0  0  0  0
 36 76  1  0  0  0  0
 37 39  2  0  0  0  0
 37 77  1  0  0  0  0
 38 40  2  0  0  0  0
 38 78  1  0  0  0  0
 39 40  1  0  0  0  0
 39 79  1  0  0  0  0
 40 80  1  0  0  0  0
M  END
>  <DRUGBANK_ID>
DB04653

>  <COMMON_NAME>
N-[(benzyloxy)carbonyl]-L-leucyl-N-[(1S)-3-fluoro-1-(4-hydroxybenzyl)-2-oxopropyl]-L-leucinamide

>  <CAS_NUMBER>
133410-84-1

>  <UNII>
55GY047QB0

>  <SYNONYMS>
Calpain inhibitor IV; CBZ-LEU-LEU-TYR-CH2F; N-[(benzyloxy)carbonyl]leucyl-N(1)-[3-fluoro-1-(4-hydroxybenzyl)-2-oxopropyl]leucinamide

$$$$
