
 OpenBabel10282417072D

 28 29  0  0  0  0  0  0  0  0999 V2000
    0.0000    3.3000    0.0000 C   0  0  0  0  0  0  0  0  0  0  0  0
    6.4302    1.2375    0.0000 C   0  0  0  0  0  0  0  0  0  0  0  0
    0.0000    2.4750    0.0000 C   0  0  0  0  0  0  0  0  0  0  0  0
    0.7145    3.7125    0.0000 C   0  0  0  0  0  0  0  0  0  0  0  0
    6.4302    2.0625    0.0000 C   0  0  0  0  0  0  0  0  0  0  0  0
    5.7158    0.8250    0.0000 C   0  0  0  0  0  0  0  0  0  0  0  0
    0.7145    2.0625    0.0000 C   0  0  0  0  0  0  0  0  0  0  0  0
    1.4289    3.3000    0.0000 C   0  0  0  0  0  0  0  0  0  0  0  0
    5.7158    2.4750    0.0000 C   0  0  0  0  0  0  0  0  0  0  0  0
    5.0013    1.2375    0.0000 C   0  0  0  0  0  0  0  0  0  0  0  0
    1.4289    2.4750    0.0000 C   0  0  0  0  0  0  0  0  0  0  0  0
    5.0013    2.0625    0.0000 C   0  0  0  0  0  0  0  0  0  0  0  0
    2.1434    2.0625    0.0000 C   0  0  0  0  0  0  0  0  0  0  0  0
    4.2868    2.4750    0.0000 C   0  0  0  0  0  0  0  0  0  0  0  0
    2.1434    1.2375    0.0000 O   0  0  0  0  0  0  0  0  0  0  0  0
    4.2868    3.3000    0.0000 O   0  0  0  0  0  0  0  0  0  0  0  0
    2.8579    2.4750    0.0000 O   0  0  0  0  0  0  0  0  0  0  0  0
    3.5724    2.0625    0.0000 O   0  0  0  0  0  0  0  0  0  0  0  0
   -0.8937    3.8160    0.0000 H   0  0  0  0  0  0  0  0  0  0  0  0
    7.3239    0.7215    0.0000 H   0  0  0  0  0  0  0  0  0  0  0  0
   -0.8937    1.9590    0.0000 H   0  0  0  0  0  0  0  0  0  0  0  0
    0.7145    4.7445    0.0000 H   0  0  0  0  0  0  0  0  0  0  0  0
    7.3239    2.5785    0.0000 H   0  0  0  0  0  0  0  0  0  0  0  0
    5.7158   -0.2070    0.0000 H   0  0  0  0  0  0  0  0  0  0  0  0
    0.7145    1.0305    0.0000 H   0  0  0  0  0  0  0  0  0  0  0  0
    2.3226    3.8160    0.0000 H   0  0  0  0  0  0  0  0  0  0  0  0
    5.7158    3.5070    0.0000 H   0  0  0  0  0  0  0  0  0  0  0  0
    4.1076    0.7215    0.0000 H   0  0  0  0  0  0  0  0  0  0  0  0
  1 19  1  0  0  0  0
  2 20  1  0  0  0  0
  3  1  2  0  0  0  0
  3 21  1  0  0  0  0
  4  1  1  0  0  0  0
  4 22  1  0  0  0  0
  5  2  2  0  0  0  0
  5 23  1  0  0  0  0
  6  2  1  0  0  0  0
  6 24  1  0  0  0  0
  7  3  1  0  0  0  0
  7 25  1  0  0  0  0
  8  4  2  0  0  0  0
  8 26  1  0  0  0  0
  9  5  1  0  0  0  0
  9 27  1  0  0  0  0
 10  6  2  0  0  0  0
 10 28  1  0  0  0  0
 11  7  2  0  0  0  0
 11  8  1  0  0  0  0
 12  9  2  0  0  0  0
 12 10  1  0  0  0  0
 13 11  1  0  0  0  0
 14 12  1  0  0  0  0
 15 13  2  0  0  0  0
 16 14  2  0  0  0  0
 17 13  1  0  0  0  0
 18 14  1  0  0  0  0
 18 17  1  0  0  0  0
M  END
>  <DRUGBANK_ID>
DB09096

>  <COMMON_NAME>
Benzoyl peroxide

>  <CAS_NUMBER>
94-36-0

>  <UNII>
W9WZN9A0GM

>  <SYNONYMS>
Benzoyl benzenecarboperoxoate; Benzoyl peroxide; Bepio; Per√≥xido de benzoilo

$$$$
