
 OpenBabel10282417072D

 41 41  0  0  1  0  0  0  0  0999 V2000
    0.3829   -0.0000    0.0000 C   0  0  0  0  0  0  0  0  0  0  0  0
    0.7954    0.7145    0.0000 C   0  0  2  0  0  0  0  0  0  0  0  0
    0.3829    1.4289    0.0000 C   0  0  1  0  0  0  0  0  0  0  0  0
    0.7954    2.1434    0.0000 C   0  0  1  0  0  0  0  0  0  0  0  0
    1.6204    2.1434    0.0000 C   0  0  2  0  0  0  0  0  0  0  0  0
    2.0329    1.4289    0.0000 C   0  0  1  0  0  0  0  0  0  0  0  0
    1.6204    0.7145    0.0000 O   0  0  0  0  0  0  0  0  0  0  0  0
    2.8579    1.4289    0.0000 O   0  0  0  0  0  0  0  0  0  0  0  0
    3.2704    0.7145    0.0000 C   0  0  2  0  0  0  0  0  0  0  0  0
    2.8579    0.0000    0.0000 C   0  0  0  0  0  0  0  0  0  0  0  0
    2.0329    0.0000    0.0000 O   0  0  0  0  0  0  0  0  0  0  0  0
    4.0954    0.7145    0.0000 C   0  0  1  0  0  0  0  0  0  0  0  0
    4.5079    0.0000    0.0000 C   0  0  2  0  0  0  0  0  0  0  0  0
    5.3329    0.0000    0.0000 C   0  0  0  0  0  0  0  0  0  0  0  0
    5.7454   -0.7145    0.0000 O   0  0  0  0  0  0  0  0  0  0  0  0
    4.0954   -0.7145    0.0000 O   0  0  0  0  0  0  0  0  0  0  0  0
    4.5079    1.4289    0.0000 O   0  0  0  0  0  0  0  0  0  0  0  0
    2.0329    2.8579    0.0000 O   0  0  0  0  0  0  0  0  0  0  0  0
    0.3829    2.8579    0.0000 O   0  0  0  0  0  0  0  0  0  0  0  0
   -0.4421    1.4289    0.0000 O   0  0  0  0  0  0  0  0  0  0  0  0
    0.7954   -0.7145    0.0000 O   0  0  0  0  0  0  0  0  0  0  0  0
   -0.6871    0.0000    0.0000 H   0  0  0  0  0  0  0  0  0  0  0  0
   -0.1521   -0.9266    0.0000 H   0  0  0  0  0  0  0  0  0  0  0  0
   -0.2746    0.7145    0.0000 H   0  0  0  0  0  0  0  0  0  0  0  0
   -0.1521    0.5022    0.0000 H   0  0  0  0  0  0  0  0  0  0  0  0
   -0.2746    2.1434    0.0000 H   0  0  0  0  0  0  0  0  0  0  0  0
    1.0854    3.0700    0.0000 H   0  0  0  0  0  0  0  0  0  0  0  0
    2.5679    2.3555    0.0000 H   0  0  0  0  0  0  0  0  0  0  0  0
    2.2004    0.7145    0.0000 H   0  0  0  0  0  0  0  0  0  0  0  0
    3.3929   -0.9266    0.0000 H   0  0  0  0  0  0  0  0  0  0  0  0
    2.3229   -0.9266    0.0000 H   0  0  0  0  0  0  0  0  0  0  0  0
    1.5479    0.8400    0.0000 H   0  0  0  0  0  0  0  0  0  0  0  0
    3.5604    1.6412    0.0000 H   0  0  0  0  0  0  0  0  0  0  0  0
    3.4379    0.0000    0.0000 H   0  0  0  0  0  0  0  0  0  0  0  0
    5.8489    0.8937    0.0000 H   0  0  0  0  0  0  0  0  0  0  0  0
    3.1254   -0.7145    0.0000 H   0  0  0  0  0  0  0  0  0  0  0  0
    5.4779    1.4289    0.0000 H   0  0  0  0  0  0  0  0  0  0  0  0
    3.0029    2.8579    0.0000 H   0  0  0  0  0  0  0  0  0  0  0  0
    0.8679    3.6979    0.0000 H   0  0  0  0  0  0  0  0  0  0  0  0
   -0.9271    2.2689    0.0000 H   0  0  0  0  0  0  0  0  0  0  0  0
    0.3104   -1.5545    0.0000 H   0  0  0  0  0  0  0  0  0  0  0  0
  1 21  1  0  0  0  0
  1 22  1  0  0  0  0
  1 23  1  0  0  0  0
  2  1  1  0  0  0  0
  2  3  1  0  0  0  0
  2  7  1  0  0  0  0
  2 24  1  1  0  0  0
  3  4  1  0  0  0  0
  3 20  1  0  0  0  0
  3 25  1  1  0  0  0
  4  5  1  0  0  0  0
  4 19  1  0  0  0  0
  4 26  1  1  0  0  0
  5  6  1  0  0  0  0
  5 18  1  0  0  0  0
  5 27  1  6  0  0  0
  6  7  1  0  0  0  0
  6  8  1  0  0  0  0
  6 28  1  1  0  0  0
  9  8  1  0  0  0  0
  9 10  1  0  0  0  0
  9 12  1  0  0  0  0
  9 29  1  6  0  0  0
 10 11  1  0  0  0  0
 10 30  1  0  0  0  0
 10 31  1  0  0  0  0
 11 32  1  0  0  0  0
 12 13  1  0  0  0  0
 12 17  1  0  0  0  0
 12 33  1  1  0  0  0
 13 14  1  0  0  0  0
 13 16  1  0  0  0  0
 13 34  1  1  0  0  0
 14 15  2  0  0  0  0
 14 35  1  0  0  0  0
 16 36  1  0  0  0  0
 17 37  1  0  0  0  0
 18 38  1  0  0  0  0
 19 39  1  0  0  0  0
 20 40  1  0  0  0  0
 21 41  1  0  0  0  0
M  END
>  <DRUGBANK_ID>
DB12767

>  <COMMON_NAME>
Gaxilose

>  <CAS_NUMBER>
14087-31-1

>  <UNII>
A571S2B3JE

>  <SYNONYMS>
Gaxilosa; Gaxilose

$$$$
