SX7
 OpenBabel10282417072D

 50 53  0  0  0  0  0  0  0  0999 V2000
    0.7036    1.6046    0.0000 O   0  0  0  0  0  0  0  0  0  0  0  0
   -2.7094   -1.6954    0.0000 C   0  0  0  0  0  0  0  0  0  0  0  0
   -2.2244   -1.0280    0.0000 C   0  0  0  0  0  0  0  0  0  0  0  0
   -0.7570    1.1385    0.0000 C   0  0  0  0  0  0  0  0  0  0  0  0
   -1.9945    0.4241    0.0000 N   0  0  0  0  0  0  0  0  0  0  0  0
   -2.4794   -0.2434    0.0000 C   0  0  0  0  0  0  0  0  0  0  0  0
   -3.2640    0.0116    0.0000 C   0  0  0  0  0  0  0  0  0  0  0  0
   -3.2640    0.8366    0.0000 C   0  0  0  0  0  0  0  0  0  0  0  0
   -1.1695    0.4241    0.0000 C   0  0  0  0  0  0  0  0  0  0  0  0
    1.4181    1.1921    0.0000 C   0  0  0  0  0  0  0  0  0  0  0  0
    2.1325    1.6046    0.0000 N   0  0  0  0  0  0  0  0  0  0  0  0
    2.1325    2.4296    0.0000 C   0  0  0  0  0  0  0  0  0  0  0  0
    2.8470    1.1921    0.0000 C   0  0  0  0  0  0  0  0  0  0  0  0
    1.4181    0.3671    0.0000 C   0  0  0  0  0  0  0  0  0  0  0  0
    2.1325   -0.0454    0.0000 C   0  0  0  0  0  0  0  0  0  0  0  0
    2.8470    0.3671    0.0000 N   0  0  0  0  0  0  0  0  0  0  0  0
    2.1325   -0.8704    0.0000 C   0  0  0  0  0  0  0  0  0  0  0  0
    1.4181   -1.2829    0.0000 C   0  0  0  0  0  0  0  0  0  0  0  0
    0.7036   -0.0454    0.0000 C   0  0  0  0  0  0  0  0  0  0  0  0
    0.7036   -0.8704    0.0000 C   0  0  0  0  0  0  0  0  0  0  0  0
   -0.0109   -1.2829    0.0000 C   0  0  0  0  0  0  0  0  0  0  0  0
   -0.0109   -2.1079    0.0000 C   0  0  0  0  0  0  0  0  0  0  0  0
   -0.7254   -2.5204    0.0000 N   0  0  0  0  0  0  0  0  0  0  0  0
   -0.7254   -0.8704    0.0000 C   0  0  0  0  0  0  0  0  0  0  0  0
   -1.4398   -1.2829    0.0000 C   0  0  0  0  0  0  0  0  0  0  0  0
   -1.4398   -2.1079    0.0000 C   0  0  0  0  0  0  0  0  0  0  0  0
   -2.2244   -2.3629    0.0000 N   0  0  0  0  0  0  0  0  0  0  0  0
   -2.4794    1.0915    0.0000 N   0  0  0  0  0  0  0  0  0  0  0  0
   -3.7414   -1.6954    0.0000 H   0  0  0  0  0  0  0  0  0  0  0  0
    0.3130    1.1385    0.0000 H   0  0  0  0  0  0  0  0  0  0  0  0
   -1.2920    2.0652    0.0000 H   0  0  0  0  0  0  0  0  0  0  0  0
   -0.2220    2.0651    0.0000 H   0  0  0  0  0  0  0  0  0  0  0  0
   -4.0989   -0.5950    0.0000 H   0  0  0  0  0  0  0  0  0  0  0  0
   -4.0989    1.4432    0.0000 H   0  0  0  0  0  0  0  0  0  0  0  0
   -0.6345   -0.5026    0.0000 H   0  0  0  0  0  0  0  0  0  0  0  0
   -1.7045   -0.5025    0.0000 H   0  0  0  0  0  0  0  0  0  0  0  0
    3.0591    2.9646    0.0000 H   0  0  0  0  0  0  0  0  0  0  0  0
    1.2059    2.9646    0.0000 H   0  0  0  0  0  0  0  0  0  0  0  0
    2.1325    3.4996    0.0000 H   0  0  0  0  0  0  0  0  0  0  0  0
    2.8470    0.1221    0.0000 H   0  0  0  0  0  0  0  0  0  0  0  0
    3.7736    1.7271    0.0000 H   0  0  0  0  0  0  0  0  0  0  0  0
    3.7737    0.6571    0.0000 H   0  0  0  0  0  0  0  0  0  0  0  0
    3.6996   -0.1252    0.0000 H   0  0  0  0  0  0  0  0  0  0  0  0
    2.8470    1.3516    0.0000 H   0  0  0  0  0  0  0  0  0  0  0  0
    3.0262   -1.3864    0.0000 H   0  0  0  0  0  0  0  0  0  0  0  0
    1.4181   -2.3149    0.0000 H   0  0  0  0  0  0  0  0  0  0  0  0
   -0.1901    0.4706    0.0000 H   0  0  0  0  0  0  0  0  0  0  0  0
    0.8828   -2.6239    0.0000 H   0  0  0  0  0  0  0  0  0  0  0  0
   -0.7254    0.1616    0.0000 H   0  0  0  0  0  0  0  0  0  0  0  0
   -2.5286   -3.2992    0.0000 H   0  0  0  0  0  0  0  0  0  0  0  0
  1 10  2  0  0  0  0
  2  3  2  0  0  0  0
  2 27  1  0  0  0  0
  2 29  1  0  0  0  0
  3  6  1  0  0  0  0
  3 25  1  0  0  0  0
  4  9  1  0  0  0  0
  4 30  1  0  0  0  0
  4 31  1  0  0  0  0
  4 32  1  0  0  0  0
  5  6  1  0  0  0  0
  5  9  1  0  0  0  0
  5 28  1  0  0  0  0
  6  7  2  0  0  0  0
  7  8  1  0  0  0  0
  7 33  1  0  0  0  0
  8 28  2  0  0  0  0
  8 34  1  0  0  0  0
  9 35  1  0  0  0  0
  9 36  1  0  0  0  0
 10 11  1  0  0  0  0
 10 14  1  0  0  0  0
 11 12  1  0  0  0  0
 11 13  1  0  0  0  0
 12 37  1  0  0  0  0
 12 38  1  0  0  0  0
 12 39  1  0  0  0  0
 13 40  1  0  0  0  0
 13 41  1  0  0  0  0
 13 42  1  0  0  0  0
 14 15  2  0  0  0  0
 14 19  1  0  0  0  0
 15 16  1  0  0  0  0
 15 17  1  0  0  0  0
 16 43  1  0  0  0  0
 16 44  1  0  0  0  0
 17 18  2  0  0  0  0
 17 45  1  0  0  0  0
 18 20  1  0  0  0  0
 18 46  1  0  0  0  0
 19 20  2  0  0  0  0
 19 47  1  0  0  0  0
 20 21  1  0  0  0  0
 21 22  2  0  0  0  0
 21 24  1  0  0  0  0
 22 23  1  0  0  0  0
 22 48  1  0  0  0  0
 23 26  2  0  0  0  0
 24 25  2  0  0  0  0
 24 49  1  0  0  0  0
 25 26  1  0  0  0  0
 26 27  1  0  0  0  0
 27 50  1  0  0  0  0
M  END
>  <DRUGBANK_ID>
DB08583

>  <COMMON_NAME>
2-amino-5-[3-(1-ethyl-1H-pyrazol-5-yl)-1H-pyrrolo[2,3-b]pyridin-5-yl]-N,N-dimethylbenzamide

>  <UNII>
DH982UZX58

$$$$
