
 OpenBabel10282417072D

 38 39  0  0  0  0  0  0  0  0999 V2000
   -0.1767    0.7455    0.0000 C   0  0  0  0  0  0  0  0  0  0  0  0
   -1.2567   -0.0390    0.0000 N   0  0  0  0  0  0  0  0  0  0  0  0
   -2.0537   -0.2527    0.0000 C   0  0  0  0  0  0  0  0  0  0  0  0
   -1.0018    0.7455    0.0000 C   0  0  0  0  0  0  0  0  0  0  0  0
   -1.4143    1.4599    0.0000 C   0  0  0  0  0  0  0  0  0  0  0  0
   -0.5891   -0.5240    0.0000 N   0  0  0  0  0  0  0  0  0  0  0  0
   -0.5891   -1.3490    0.0000 C   0  0  0  0  0  0  0  0  0  0  0  0
   -0.5891   -2.9991    0.0000 C   0  0  0  0  0  0  0  0  0  0  0  0
    0.1252   -2.5866    0.0000 C   0  0  0  0  0  0  0  0  0  0  0  0
    0.1252   -1.7616    0.0000 C   0  0  0  0  0  0  0  0  0  0  0  0
   -1.3037   -1.7616    0.0000 C   0  0  0  0  0  0  0  0  0  0  0  0
   -1.3037   -2.5866    0.0000 C   0  0  0  0  0  0  0  0  0  0  0  0
    0.0782   -0.0390    0.0000 C   0  0  0  0  0  0  0  0  0  0  0  0
    0.8751   -0.2527    0.0000 O   0  0  0  0  0  0  0  0  0  0  0  0
    0.2359    1.4599    0.0000 N   0  0  0  0  0  0  0  0  0  0  0  0
    1.0610    1.4599    0.0000 C   0  0  0  0  0  0  0  0  0  0  0  0
   -0.1767    2.1745    0.0000 C   0  0  0  0  0  0  0  0  0  0  0  0
    1.4734    2.1745    0.0000 S   0  0  0  0  0  0  0  0  0  0  0  0
    2.0537    2.1592    0.0000 O   0  0  0  0  0  0  0  0  0  0  0  0
    0.7469    2.5655    0.0000 O   0  0  0  0  0  0  0  0  0  0  0  0
    1.4490    2.9991    0.0000 O   0  0  0  0  0  0  0  0  0  0  0  0
   -2.8104    0.5038    0.0000 H   0  0  0  0  0  0  0  0  0  0  0  0
   -2.3305   -1.2863    0.0000 H   0  0  0  0  0  0  0  0  0  0  0  0
   -3.0872   -0.5298    0.0000 H   0  0  0  0  0  0  0  0  0  0  0  0
   -0.8793    2.3866    0.0000 H   0  0  0  0  0  0  0  0  0  0  0  0
   -2.4843    1.4599    0.0000 H   0  0  0  0  0  0  0  0  0  0  0  0
   -1.9493    2.3865    0.0000 H   0  0  0  0  0  0  0  0  0  0  0  0
   -0.5890   -4.0311    0.0000 H   0  0  0  0  0  0  0  0  0  0  0  0
    1.0190   -3.1026    0.0000 H   0  0  0  0  0  0  0  0  0  0  0  0
    1.0190   -1.2457    0.0000 H   0  0  0  0  0  0  0  0  0  0  0  0
   -2.1974   -1.2456    0.0000 H   0  0  0  0  0  0  0  0  0  0  0  0
   -2.1974   -3.1026    0.0000 H   0  0  0  0  0  0  0  0  0  0  0  0
    1.5961    0.5333    0.0000 H   0  0  0  0  0  0  0  0  0  0  0  0
    2.1310    1.4600    0.0000 H   0  0  0  0  0  0  0  0  0  0  0  0
    0.3583    3.1012    0.0000 H   0  0  0  0  0  0  0  0  0  0  0  0
   -1.2467    2.1745    0.0000 H   0  0  0  0  0  0  0  0  0  0  0  0
   -0.7117    3.1011    0.0000 H   0  0  0  0  0  0  0  0  0  0  0  0
    2.5164    1.3067    0.0000 H   0  0  0  0  0  0  0  0  0  0  0  0
  1  4  2  0  0  0  0
  1 15  1  0  0  0  0
  2  3  1  0  0  0  0
  3 22  1  0  0  0  0
  3 23  1  0  0  0  0
  3 24  1  0  0  0  0
  4  2  1  0  0  0  0
  4  5  1  0  0  0  0
  5 25  1  0  0  0  0
  5 26  1  0  0  0  0
  5 27  1  0  0  0  0
  6 13  1  0  0  0  0
  6  2  1  0  0  0  0
  6  7  1  0  0  0  0
  7 11  1  0  0  0  0
  8  9  2  0  0  0  0
  8 12  1  0  0  0  0
  8 28  1  0  0  0  0
  9 10  1  0  0  0  0
  9 29  1  0  0  0  0
 10  7  2  0  0  0  0
 10 30  1  0  0  0  0
 11 12  2  0  0  0  0
 11 31  1  0  0  0  0
 12 32  1  0  0  0  0
 13  1  1  0  0  0  0
 13 14  2  0  0  0  0
 15 16  1  0  0  0  0
 15 17  1  0  0  0  0
 16 18  1  0  0  0  0
 16 33  1  0  0  0  0
 16 34  1  0  0  0  0
 17 35  1  0  0  0  0
 17 36  1  0  0  0  0
 17 37  1  0  0  0  0
 18 19  1  0  0  0  0
 19 38  1  0  0  0  0
 20 18  2  0  0  0  0
 21 18  2  0  0  0  0
M  END
>  <DRUGBANK_ID>
DB04817

>  <COMMON_NAME>
Metamizole

>  <CAS_NUMBER>
50567-35-6

>  <UNII>
934T64RMNJ

>  <SYNONYMS>
Dipyrone; Metamizol

$$$$
