S2D
 OpenBabel10282417072D

 25 25  0  0  0  0  0  0  0  0999 V2000
    0.0241    1.1776    0.0000 O   0  0  0  0  0  0  0  0  0  0  0  0
    0.0241    0.3526    0.0000 C   0  0  0  0  0  0  0  0  0  0  0  0
   -0.6904   -0.0599    0.0000 C   0  0  0  0  0  0  0  0  0  0  0  0
   -0.6904   -0.8849    0.0000 C   0  0  0  0  0  0  0  0  0  0  0  0
   -1.4048   -1.2974    0.0000 C   0  0  0  0  0  0  0  0  0  0  0  0
   -2.1193   -0.8849    0.0000 C   0  0  0  0  0  0  0  0  0  0  0  0
   -2.1193   -0.0599    0.0000 C   0  0  0  0  0  0  0  0  0  0  0  0
   -1.4048    0.3526    0.0000 C   0  0  0  0  0  0  0  0  0  0  0  0
    0.7386   -0.0599    0.0000 N   0  0  0  0  0  0  0  0  0  0  0  0
    1.4530    0.3526    0.0000 C   0  0  2  0  0  0  0  0  0  0  0  0
    1.4530    1.1776    0.0000 C   0  0  0  0  0  0  0  0  0  0  0  0
    2.1675   -0.0599    0.0000 C   0  0  0  0  0  0  0  0  0  0  0  0
    2.8820    0.3526    0.0000 O   0  0  0  0  0  0  0  0  0  0  0  0
    2.1675   -0.8849    0.0000 O   0  0  0  0  0  0  0  0  0  0  0  0
    0.9473    0.6445    0.0000 H   0  0  0  0  0  0  0  0  0  0  0  0
    0.2033   -1.4009    0.0000 H   0  0  0  0  0  0  0  0  0  0  0  0
   -1.4048   -2.3294    0.0000 H   0  0  0  0  0  0  0  0  0  0  0  0
   -3.0130   -1.4009    0.0000 H   0  0  0  0  0  0  0  0  0  0  0  0
   -3.0130    0.4561    0.0000 H   0  0  0  0  0  0  0  0  0  0  0  0
   -1.4048    1.3846    0.0000 H   0  0  0  0  0  0  0  0  0  0  0  0
    0.7386   -1.0444    0.0000 H   0  0  0  0  0  0  0  0  0  0  0  0
    2.3796    1.7126    0.0000 H   0  0  0  0  0  0  0  0  0  0  0  0
    0.5264    1.7126    0.0000 H   0  0  0  0  0  0  0  0  0  0  0  0
    1.4530    2.2476    0.0000 H   0  0  0  0  0  0  0  0  0  0  0  0
    1.3560   -1.3534    0.0000 H   0  0  0  0  0  0  0  0  0  0  0  0
  1  2  2  0  0  0  0
  2  3  1  0  0  0  0
  2  9  1  0  0  0  0
  3  4  1  0  0  0  0
  3  8  2  0  0  0  0
  4  5  2  0  0  0  0
  4 16  1  0  0  0  0
  5  6  1  0  0  0  0
  5 17  1  0  0  0  0
  6  7  2  0  0  0  0
  6 18  1  0  0  0  0
  7  8  1  0  0  0  0
  7 19  1  0  0  0  0
  8 20  1  0  0  0  0
  9 10  1  0  0  0  0
  9 21  1  0  0  0  0
 10 11  1  0  0  0  0
 10 12  1  0  0  0  0
 10 15  1  1  0  0  0
 11 22  1  0  0  0  0
 11 23  1  0  0  0  0
 11 24  1  0  0  0  0
 12 13  2  0  0  0  0
 12 14  1  0  0  0  0
 14 25  1  0  0  0  0
M  END
>  <DRUGBANK_ID>
DB08508

>  <COMMON_NAME>
N-BENZOYL-D-ALANINE

$$$$
