
 OpenBabel10282417072D

 62 66  0  0  0  0  0  0  0  0999 V2000
   -3.5724    3.7125    0.0000 O   0  0  0  0  0  0  0  0  0  0  0  0
   -2.8579    3.3000    0.0000 C   0  0  0  0  0  0  0  0  0  0  0  0
   -2.1434    3.7125    0.0000 C   0  0  0  0  0  0  0  0  0  0  0  0
   -1.4289    3.3000    0.0000 C   0  0  0  0  0  0  0  0  0  0  0  0
   -1.4289    2.4750    0.0000 N   0  0  0  0  0  0  0  0  0  0  0  0
   -2.1434    2.0625    0.0000 C   0  0  0  0  0  0  0  0  0  0  0  0
   -2.8579    2.4750    0.0000 C   0  0  0  0  0  0  0  0  0  0  0  0
   -0.7145    2.0625    0.0000 C   0  0  0  0  0  0  0  0  0  0  0  0
    0.0000    2.4750    0.0000 C   0  0  0  0  0  0  0  0  0  0  0  0
    0.7145    2.0625    0.0000 C   0  0  0  0  0  0  0  0  0  0  0  0
    0.7145    1.2375    0.0000 C   0  0  0  0  0  0  0  0  0  0  0  0
    1.4289    0.8250    0.0000 N   0  0  0  0  0  0  0  0  0  0  0  0
    1.4289    0.0000    0.0000 C   0  0  0  0  0  0  0  0  0  0  0  0
    2.1434   -0.4125    0.0000 C   0  0  0  0  0  0  0  0  0  0  0  0
    2.8579    0.0000    0.0000 C   0  0  0  0  0  0  0  0  0  0  0  0
    2.8579    0.8250    0.0000 O   0  0  0  0  0  0  0  0  0  0  0  0
    3.5724   -0.4125    0.0000 N   0  0  0  0  0  0  0  0  0  0  0  0
    3.5724   -1.2375    0.0000 N   0  0  0  0  0  0  0  0  0  0  0  0
    2.8579   -1.6500    0.0000 C   0  0  0  0  0  0  0  0  0  0  0  0
    2.1434   -1.2375    0.0000 C   0  0  0  0  0  0  0  0  0  0  0  0
    1.4289   -1.6500    0.0000 N   0  0  0  0  0  0  0  0  0  0  0  0
    0.7145   -1.2375    0.0000 C   0  0  0  0  0  0  0  0  0  0  0  0
    0.7145   -0.4125    0.0000 N   0  0  0  0  0  0  0  0  0  0  0  0
    0.0000   -1.6500    0.0000 N   0  0  0  0  0  0  0  0  0  0  0  0
    0.0000   -2.4750    0.0000 C   0  0  0  0  0  0  0  0  0  0  0  0
   -0.7145   -2.8875    0.0000 C   0  0  0  0  0  0  0  0  0  0  0  0
   -1.4289   -2.4750    0.0000 C   0  0  0  0  0  0  0  0  0  0  0  0
   -2.1434   -2.8875    0.0000 C   0  0  0  0  0  0  0  0  0  0  0  0
   -2.8579   -2.4750    0.0000 C   0  0  0  0  0  0  0  0  0  0  0  0
   -3.5724   -2.0625    0.0000 N   0  0  0  0  0  0  0  0  0  0  0  0
   -1.4289   -1.6500    0.0000 C   0  0  0  0  0  0  0  0  0  0  0  0
   -0.7145   -1.2375    0.0000 C   0  0  0  0  0  0  0  0  0  0  0  0
    0.0000    0.8250    0.0000 C   0  0  0  0  0  0  0  0  0  0  0  0
   -0.7145    1.2375    0.0000 C   0  0  0  0  0  0  0  0  0  0  0  0
   -3.5724    4.6825    0.0000 H   0  0  0  0  0  0  0  0  0  0  0  0
   -1.9313    2.7650    0.0000 H   0  0  0  0  0  0  0  0  0  0  0  0
   -2.1434    4.7825    0.0000 H   0  0  0  0  0  0  0  0  0  0  0  0
   -1.2168    4.2475    0.0000 H   0  0  0  0  0  0  0  0  0  0  0  0
   -0.5023    3.8350    0.0000 H   0  0  0  0  0  0  0  0  0  0  0  0
   -0.5023    2.7650    0.0000 H   0  0  0  0  0  0  0  0  0  0  0  0
   -2.1434    0.9925    0.0000 H   0  0  0  0  0  0  0  0  0  0  0  0
   -3.0700    1.5275    0.0000 H   0  0  0  0  0  0  0  0  0  0  0  0
   -3.7845    1.9400    0.0000 H   0  0  0  0  0  0  0  0  0  0  0  0
   -3.7845    3.0100    0.0000 H   0  0  0  0  0  0  0  0  0  0  0  0
    0.0000    3.5070    0.0000 H   0  0  0  0  0  0  0  0  0  0  0  0
    1.6082    2.5785    0.0000 H   0  0  0  0  0  0  0  0  0  0  0  0
    2.2815    1.3172    0.0000 H   0  0  0  0  0  0  0  0  0  0  0  0
    4.4250    0.0798    0.0000 H   0  0  0  0  0  0  0  0  0  0  0  0
    2.8579   -2.6820    0.0000 H   0  0  0  0  0  0  0  0  0  0  0  0
    0.9266   -3.0100    0.0000 H   0  0  0  0  0  0  0  0  0  0  0  0
   -0.0000   -3.5450    0.0000 H   0  0  0  0  0  0  0  0  0  0  0  0
   -0.7145   -3.9575    0.0000 H   0  0  0  0  0  0  0  0  0  0  0  0
   -1.6412   -3.4225    0.0000 H   0  0  0  0  0  0  0  0  0  0  0  0
   -2.3555   -1.9400    0.0000 H   0  0  0  0  0  0  0  0  0  0  0  0
   -2.1434   -3.9575    0.0000 H   0  0  0  0  0  0  0  0  0  0  0  0
   -3.0700   -3.4225    0.0000 H   0  0  0  0  0  0  0  0  0  0  0  0
   -2.3556   -1.1150    0.0000 H   0  0  0  0  0  0  0  0  0  0  0  0
   -1.4289   -0.5800    0.0000 H   0  0  0  0  0  0  0  0  0  0  0  0
   -0.7145   -0.1675    0.0000 H   0  0  0  0  0  0  0  0  0  0  0  0
    0.2121   -0.7025    0.0000 H   0  0  0  0  0  0  0  0  0  0  0  0
    0.0000   -0.2070    0.0000 H   0  0  0  0  0  0  0  0  0  0  0  0
   -1.6082    0.7215    0.0000 H   0  0  0  0  0  0  0  0  0  0  0  0
  1  2  1  0  0  0  0
  1 35  1  0  0  0  0
  2  3  1  0  0  0  0
  2  7  1  0  0  0  0
  2 36  1  0  0  0  0
  3  4  1  0  0  0  0
  3 37  1  0  0  0  0
  3 38  1  0  0  0  0
  4  5  1  0  0  0  0
  4 39  1  0  0  0  0
  4 40  1  0  0  0  0
  5  6  1  0  0  0  0
  5  8  1  0  0  0  0
  6  7  1  0  0  0  0
  6 41  1  0  0  0  0
  6 42  1  0  0  0  0
  7 43  1  0  0  0  0
  7 44  1  0  0  0  0
  8  9  2  0  0  0  0
  8 34  1  0  0  0  0
  9 10  1  0  0  0  0
  9 45  1  0  0  0  0
 10 11  2  0  0  0  0
 10 46  1  0  0  0  0
 11 12  1  0  0  0  0
 11 33  1  0  0  0  0
 12 13  1  0  0  0  0
 12 47  1  0  0  0  0
 13 14  2  0  0  0  0
 13 23  1  0  0  0  0
 14 15  1  0  0  0  0
 14 20  1  0  0  0  0
 15 16  2  0  0  0  0
 15 17  1  0  0  0  0
 17 18  1  0  0  0  0
 17 48  1  0  0  0  0
 18 19  2  0  0  0  0
 19 20  1  0  0  0  0
 19 49  1  0  0  0  0
 20 21  2  0  0  0  0
 21 22  1  0  0  0  0
 22 23  2  0  0  0  0
 22 24  1  0  0  0  0
 24 25  1  0  0  0  0
 24 32  1  0  0  0  0
 25 26  1  0  0  0  0
 25 50  1  0  0  0  0
 25 51  1  0  0  0  0
 26 27  1  0  0  0  0
 26 52  1  0  0  0  0
 26 53  1  0  0  0  0
 27 28  1  0  0  0  0
 27 31  1  0  0  0  0
 27 54  1  0  0  0  0
 28 29  1  0  0  0  0
 28 55  1  0  0  0  0
 28 56  1  0  0  0  0
 29 30  3  0  0  0  0
 31 32  1  0  0  0  0
 31 57  1  0  0  0  0
 31 58  1  0  0  0  0
 32 59  1  0  0  0  0
 32 60  1  0  0  0  0
 33 34  2  0  0  0  0
 33 61  1  0  0  0  0
 34 62  1  0  0  0  0
M  END
>  <DRUGBANK_ID>
DB15670

>  <COMMON_NAME>
Gusacitinib

>  <CAS_NUMBER>
1425381-60-7

>  <UNII>
4801QYW816

>  <SYNONYMS>
1-(4-(4-(4-HYDROXY-PIPERIDIN-1-YL)-PHENYLAMINO)-5-OXO-5,6-DIHYDRO-PYRIMIDO(4,5-D)PYRIDAZIN-2-YL)-PIPERIDIN-4-YL-ACETONITRILE; Gusacitinib

$$$$
