
 OpenBabel10282417072D

 52 54  0  0  0  0  0  0  0  0999 V2000
   -3.9732    1.4508    0.0000 C   0  0  0  0  0  0  0  0  0  0  0  0
   -3.2587    1.8633    0.0000 C   0  0  0  0  0  0  0  0  0  0  0  0
   -2.5442    1.4508    0.0000 N   0  0  0  0  0  0  0  0  0  0  0  0
   -1.8298    1.8633    0.0000 S   0  0  0  0  0  0  0  0  0  0  0  0
   -4.6876    1.8633    0.0000 C   0  0  0  0  0  0  0  0  0  0  0  0
   -1.2323    1.5947    0.0000 N   0  0  0  0  0  0  0  0  0  0  0  0
   -2.3194    2.4194    0.0000 O   0  0  0  0  0  0  0  0  0  0  0  0
   -1.3411    2.5281    0.0000 O   0  0  0  0  0  0  0  0  0  0  0  0
   -1.2331    0.8551    0.0000 C   0  0  0  0  0  0  0  0  0  0  0  0
   -1.9476    0.4426    0.0000 N   0  0  0  0  0  0  0  0  0  0  0  0
   -1.9476   -0.3824    0.0000 C   0  0  0  0  0  0  0  0  0  0  0  0
   -1.2331   -0.7949    0.0000 N   0  0  0  0  0  0  0  0  0  0  0  0
   -0.5186   -0.3824    0.0000 C   0  0  0  0  0  0  0  0  0  0  0  0
   -0.5186    0.4426    0.0000 C   0  0  0  0  0  0  0  0  0  0  0  0
    0.1957   -0.7949    0.0000 O   0  0  0  0  0  0  0  0  0  0  0  0
    0.9102   -0.3824    0.0000 C   0  0  0  0  0  0  0  0  0  0  0  0
    1.6247   -0.7949    0.0000 C   0  0  0  0  0  0  0  0  0  0  0  0
    2.3391   -0.3824    0.0000 O   0  0  0  0  0  0  0  0  0  0  0  0
    3.7681   -0.3823    0.0000 N   0  0  0  0  0  0  0  0  0  0  0  0
    3.0536   -0.7949    0.0000 C   0  0  0  0  0  0  0  0  0  0  0  0
    3.0536   -1.6199    0.0000 N   0  0  0  0  0  0  0  0  0  0  0  0
    3.7681   -2.0324    0.0000 C   0  0  0  0  0  0  0  0  0  0  0  0
    4.4825   -1.6199    0.0000 C   0  0  0  0  0  0  0  0  0  0  0  0
    4.4825   -0.7949    0.0000 C   0  0  0  0  0  0  0  0  0  0  0  0
    5.2362   -1.9554    0.0000 Br  0  0  0  0  0  0  0  0  0  0  0  0
    0.9102    2.0926    0.0000 C   0  0  0  0  0  0  0  0  0  0  0  0
    0.1957    1.6801    0.0000 C   0  0  0  0  0  0  0  0  0  0  0  0
    0.1957    0.8551    0.0000 C   0  0  0  0  0  0  0  0  0  0  0  0
    0.9102    0.4425    0.0000 C   0  0  0  0  0  0  0  0  0  0  0  0
    1.6247    0.8551    0.0000 C   0  0  0  0  0  0  0  0  0  0  0  0
    1.6247    1.6801    0.0000 C   0  0  0  0  0  0  0  0  0  0  0  0
    2.3391    2.0926    0.0000 Br  0  0  0  0  0  0  0  0  0  0  0  0
   -3.9732    0.3808    0.0000 H   0  0  0  0  0  0  0  0  0  0  0  0
   -4.8999    0.9158    0.0000 H   0  0  0  0  0  0  0  0  0  0  0  0
   -3.2587    2.9333    0.0000 H   0  0  0  0  0  0  0  0  0  0  0  0
   -2.3321    2.3983    0.0000 H   0  0  0  0  0  0  0  0  0  0  0  0
   -2.5442    0.4308    0.0000 H   0  0  0  0  0  0  0  0  0  0  0  0
   -4.6876    2.9333    0.0000 H   0  0  0  0  0  0  0  0  0  0  0  0
   -5.6143    1.3283    0.0000 H   0  0  0  0  0  0  0  0  0  0  0  0
   -5.6142    2.3983    0.0000 H   0  0  0  0  0  0  0  0  0  0  0  0
   -0.4054    2.1290    0.0000 H   0  0  0  0  0  0  0  0  0  0  0  0
   -2.8413   -0.8984    0.0000 H   0  0  0  0  0  0  0  0  0  0  0  0
    0.9102    0.6876    0.0000 H   0  0  0  0  0  0  0  0  0  0  0  0
    1.8368    0.1526    0.0000 H   0  0  0  0  0  0  0  0  0  0  0  0
    1.6247   -1.8649    0.0000 H   0  0  0  0  0  0  0  0  0  0  0  0
    2.5514   -1.3299    0.0000 H   0  0  0  0  0  0  0  0  0  0  0  0
    3.7681   -3.0644    0.0000 H   0  0  0  0  0  0  0  0  0  0  0  0
    5.3763   -0.2790    0.0000 H   0  0  0  0  0  0  0  0  0  0  0  0
    0.9102    3.1246    0.0000 H   0  0  0  0  0  0  0  0  0  0  0  0
   -0.6980    2.1961    0.0000 H   0  0  0  0  0  0  0  0  0  0  0  0
    0.9102   -0.5895    0.0000 H   0  0  0  0  0  0  0  0  0  0  0  0
    2.5185    0.3391    0.0000 H   0  0  0  0  0  0  0  0  0  0  0  0
  1  2  1  0  0  0  0
  1  5  1  0  0  0  0
  1 33  1  0  0  0  0
  1 34  1  0  0  0  0
  2  3  1  0  0  0  0
  2 35  1  0  0  0  0
  2 36  1  0  0  0  0
  3  4  1  0  0  0  0
  3 37  1  0  0  0  0
  4  6  1  0  0  0  0
  4  7  2  0  0  0  0
  4  8  2  0  0  0  0
  5 38  1  0  0  0  0
  5 39  1  0  0  0  0
  5 40  1  0  0  0  0
  6  9  1  0  0  0  0
  6 41  1  0  0  0  0
  9 10  1  0  0  0  0
  9 14  2  0  0  0  0
 10 11  2  0  0  0  0
 11 12  1  0  0  0  0
 11 42  1  0  0  0  0
 12 13  2  0  0  0  0
 13 14  1  0  0  0  0
 13 15  1  0  0  0  0
 14 28  1  0  0  0  0
 15 16  1  0  0  0  0
 16 17  1  0  0  0  0
 16 43  1  0  0  0  0
 16 44  1  0  0  0  0
 17 18  1  0  0  0  0
 17 45  1  0  0  0  0
 17 46  1  0  0  0  0
 18 20  1  0  0  0  0
 19 20  1  0  0  0  0
 19 24  2  0  0  0  0
 20 21  2  0  0  0  0
 21 22  1  0  0  0  0
 22 23  2  0  0  0  0
 22 47  1  0  0  0  0
 23 24  1  0  0  0  0
 23 25  1  0  0  0  0
 24 48  1  0  0  0  0
 26 27  2  0  0  0  0
 26 31  1  0  0  0  0
 26 49  1  0  0  0  0
 27 28  1  0  0  0  0
 27 50  1  0  0  0  0
 28 29  2  0  0  0  0
 29 30  1  0  0  0  0
 29 51  1  0  0  0  0
 30 31  2  0  0  0  0
 30 52  1  0  0  0  0
 31 32  1  0  0  0  0
M  END
>  <DRUGBANK_ID>
DB08932

>  <COMMON_NAME>
Macitentan

>  <CAS_NUMBER>
441798-33-0

>  <UNII>
Z9K9Y9WMVL

>  <SYNONYMS>
MacitentÃ¡n; Macitentan; Macitentanum

$$$$
