
 OpenBabel10282417072D

 46 46  0  0  0  0  0  0  0  0999 V2000
    2.1434   -2.0625    0.0000 C   0  0  0  0  0  0  0  0  0  0  0  0
    1.8414   -0.9355    0.0000 C   0  0  0  0  0  0  0  0  0  0  0  0
    1.0164   -2.3644    0.0000 C   0  0  0  0  0  0  0  0  0  0  0  0
   -2.1434   -2.0625    0.0000 C   0  0  0  0  0  0  0  0  0  0  0  0
   -1.0164   -2.3644    0.0000 C   0  0  0  0  0  0  0  0  0  0  0  0
   -1.8414   -0.9355    0.0000 C   0  0  0  0  0  0  0  0  0  0  0  0
    0.0000    0.8250    0.0000 C   0  0  0  0  0  0  0  0  0  0  0  0
    0.7144   -0.4125    0.0000 C   0  0  0  0  0  0  0  0  0  0  0  0
   -0.7144   -0.4125    0.0000 C   0  0  0  0  0  0  0  0  0  0  0  0
   -1.4289    0.8250    0.0000 C   0  0  0  0  0  0  0  0  0  0  0  0
    0.0000    0.0000    0.0000 C   0  0  0  0  0  0  0  0  0  0  0  0
   -0.7144    1.2375    0.0000 C   0  0  0  0  0  0  0  0  0  0  0  0
    0.7144   -1.2375    0.0000 C   0  0  0  0  0  0  0  0  0  0  0  0
   -0.7144   -1.2375    0.0000 C   0  0  0  0  0  0  0  0  0  0  0  0
    0.0000   -1.6500    0.0000 C   0  0  0  0  0  0  0  0  0  0  0  0
   -0.7144    2.0625    0.0000 C   0  0  0  0  0  0  0  0  0  0  0  0
    1.4289   -1.6500    0.0000 C   0  0  0  0  0  0  0  0  0  0  0  0
   -1.4289   -1.6500    0.0000 C   0  0  0  0  0  0  0  0  0  0  0  0
   -2.1434    0.4125    0.0000 N   0  0  0  0  0  0  0  0  0  0  0  0
   -1.4289    2.4750    0.0000 N   0  0  0  0  0  0  0  0  0  0  0  0
    0.0000   -2.4750    0.0000 O   0  0  0  0  0  0  0  0  0  0  0  0
    0.0000    2.4750    0.0000 S   0  0  0  0  0  0  0  0  0  0  0  0
    0.7144    1.2375    0.0000 H   0  0  0  0  0  0  0  0  0  0  0  0
    2.1434   -3.1325    0.0000 H   0  0  0  0  0  0  0  0  0  0  0  0
    3.0700   -1.5275    0.0000 H   0  0  0  0  0  0  0  0  0  0  0  0
    3.0701   -2.5975    0.0000 H   0  0  0  0  0  0  0  0  0  0  0  0
    2.9114   -0.9355    0.0000 H   0  0  0  0  0  0  0  0  0  0  0  0
    1.3064   -0.0089    0.0000 H   0  0  0  0  0  0  0  0  0  0  0  0
    2.3764   -0.0088    0.0000 H   0  0  0  0  0  0  0  0  0  0  0  0
   -0.0536   -2.3644    0.0000 H   0  0  0  0  0  0  0  0  0  0  0  0
    1.5514   -3.2911    0.0000 H   0  0  0  0  0  0  0  0  0  0  0  0
    0.4814   -3.2910    0.0000 H   0  0  0  0  0  0  0  0  0  0  0  0
   -3.0700   -1.5275    0.0000 H   0  0  0  0  0  0  0  0  0  0  0  0
   -2.1434   -3.1325    0.0000 H   0  0  0  0  0  0  0  0  0  0  0  0
   -3.0701   -2.5975    0.0000 H   0  0  0  0  0  0  0  0  0  0  0  0
   -1.5514   -3.2911    0.0000 H   0  0  0  0  0  0  0  0  0  0  0  0
    0.0536   -2.3644    0.0000 H   0  0  0  0  0  0  0  0  0  0  0  0
   -0.4814   -3.2910    0.0000 H   0  0  0  0  0  0  0  0  0  0  0  0
   -1.3064   -0.0089    0.0000 H   0  0  0  0  0  0  0  0  0  0  0  0
   -2.9114   -0.9355    0.0000 H   0  0  0  0  0  0  0  0  0  0  0  0
   -2.3764   -0.0088    0.0000 H   0  0  0  0  0  0  0  0  0  0  0  0
    1.6081    0.1035    0.0000 H   0  0  0  0  0  0  0  0  0  0  0  0
   -1.6081    0.1035    0.0000 H   0  0  0  0  0  0  0  0  0  0  0  0
   -1.4289    3.4595    0.0000 H   0  0  0  0  0  0  0  0  0  0  0  0
   -0.8115   -2.9435    0.0000 H   0  0  0  0  0  0  0  0  0  0  0  0
    1.1778    1.7951    0.0000 H   0  0  0  0  0  0  0  0  0  0  0  0
  1 24  1  0  0  0  0
  1 25  1  0  0  0  0
  1 26  1  0  0  0  0
  2 27  1  0  0  0  0
  2 28  1  0  0  0  0
  2 29  1  0  0  0  0
  3 30  1  0  0  0  0
  3 31  1  0  0  0  0
  3 32  1  0  0  0  0
  4 33  1  0  0  0  0
  4 34  1  0  0  0  0
  4 35  1  0  0  0  0
  5 36  1  0  0  0  0
  5 37  1  0  0  0  0
  5 38  1  0  0  0  0
  6 39  1  0  0  0  0
  6 40  1  0  0  0  0
  6 41  1  0  0  0  0
  8 42  1  0  0  0  0
  9 43  1  0  0  0  0
 11  7  1  0  0  0  0
 11  8  2  0  0  0  0
 11  9  1  0  0  0  0
 12  7  2  0  0  0  0
 12 10  1  0  0  0  0
 13  8  1  0  0  0  0
 14  9  2  0  0  0  0
 15 13  2  0  0  0  0
 15 14  1  0  0  0  0
 16 12  1  0  0  0  0
 17  1  1  0  0  0  0
 17  2  1  0  0  0  0
 17  3  1  0  0  0  0
 17 13  1  0  0  0  0
 18  4  1  0  0  0  0
 18  5  1  0  0  0  0
 18  6  1  0  0  0  0
 18 14  1  0  0  0  0
 19 10  3  0  0  0  0
 20 16  2  0  0  0  0
 20 44  1  0  0  0  0
 21 15  1  0  0  0  0
 21 45  1  0  0  0  0
 22 16  1  0  0  0  0
 22 46  1  0  0  0  0
 23  7  1  0  0  0  0
M  END
>  <DRUGBANK_ID>
DB16776

>  <COMMON_NAME>
Tyrphostin AG 879

>  <CAS_NUMBER>
148741-30-4

>  <SYNONYMS>
AG 879; AG-879; AG879; Tyrphostin AG-879; Tyrphostin AG879

$$$$
