
 OpenBabel10282417072D

 42 45  0  0  0  0  0  0  0  0999 V2000
   -0.3126   -0.4468    0.0000 C   0  0  0  0  0  0  0  0  0  0  0  0
   -0.3126   -1.2718    0.0000 C   0  0  0  0  0  0  0  0  0  0  0  0
   -1.0270   -0.0343    0.0000 C   0  0  0  0  0  0  0  0  0  0  0  0
   -1.0270   -1.6844    0.0000 C   0  0  0  0  0  0  0  0  0  0  0  0
   -1.7416   -0.4468    0.0000 C   0  0  0  0  0  0  0  0  0  0  0  0
   -1.7416   -1.2718    0.0000 C   0  0  0  0  0  0  0  0  0  0  0  0
    0.4720   -0.1919    0.0000 C   0  0  2  0  0  0  0  0  0  0  0  0
    0.9569   -0.8593    0.0000 C   0  0  2  0  0  0  0  0  0  0  0  0
    0.4720   -1.5268    0.0000 N   0  0  0  0  0  0  0  0  0  0  0  0
    1.7416   -1.1142    0.0000 C   0  0  2  0  0  0  0  0  0  0  0  0
    1.7416   -1.9393    0.0000 C   0  0  2  0  0  0  0  0  0  0  0  0
    0.9569   -2.1943    0.0000 C   0  0  0  0  0  0  0  0  0  0  0  0
   -1.0270    0.7906    0.0000 O   0  0  0  0  0  0  0  0  0  0  0  0
   -1.0270   -2.5094    0.0000 O   0  0  0  0  0  0  0  0  0  0  0  0
   -2.4560   -0.0343    0.0000 N   0  0  0  0  0  0  0  0  0  0  0  0
    2.4560   -1.5268    0.0000 N   0  0  0  0  0  0  0  0  0  0  0  0
   -2.4560   -1.6844    0.0000 C   0  0  0  0  0  0  0  0  0  0  0  0
    1.4418   -0.1919    0.0000 O   0  0  0  0  0  0  0  0  0  0  0  0
    0.7269    0.5926    0.0000 C   0  0  0  0  0  0  0  0  0  0  0  0
    0.1749    1.2058    0.0000 O   0  0  0  0  0  0  0  0  0  0  0  0
    0.4298    1.9904    0.0000 C   0  0  0  0  0  0  0  0  0  0  0  0
    1.2368    2.1619    0.0000 N   0  0  0  0  0  0  0  0  0  0  0  0
   -0.1221    2.6035    0.0000 O   0  0  0  0  0  0  0  0  0  0  0  0
    1.9451   -0.5444    0.0000 H   0  0  0  0  0  0  0  0  0  0  0  0
    1.9215   -2.6035    0.0000 H   0  0  0  0  0  0  0  0  0  0  0  0
    1.4499    0.6893    0.0000 C   0  0  0  0  0  0  0  0  0  0  0  0
   -0.2846    0.5647    0.0000 H   0  0  0  0  0  0  0  0  0  0  0  0
    0.6262   -3.2119    0.0000 H   0  0  0  0  0  0  0  0  0  0  0  0
   -0.0999   -2.3616    0.0000 H   0  0  0  0  0  0  0  0  0  0  0  0
   -2.4560    0.9502    0.0000 H   0  0  0  0  0  0  0  0  0  0  0  0
   -3.3086   -0.5265    0.0000 H   0  0  0  0  0  0  0  0  0  0  0  0
    3.4760   -1.5269    0.0000 H   0  0  0  0  0  0  0  0  0  0  0  0
   -3.3827   -1.1495    0.0000 H   0  0  0  0  0  0  0  0  0  0  0  0
   -2.4558   -2.7544    0.0000 H   0  0  0  0  0  0  0  0  0  0  0  0
   -3.3826   -2.2195    0.0000 H   0  0  0  0  0  0  0  0  0  0  0  0
    1.7735    0.8150    0.0000 H   0  0  0  0  0  0  0  0  0  0  0  0
    1.0576    1.6102    0.0000 H   0  0  0  0  0  0  0  0  0  0  0  0
    1.8955    1.4302    0.0000 H   0  0  0  0  0  0  0  0  0  0  0  0
    1.5411    3.0982    0.0000 H   0  0  0  0  0  0  0  0  0  0  0  0
    2.3814    1.2158    0.0000 H   0  0  0  0  0  0  0  0  0  0  0  0
    0.5282    1.2328    0.0000 H   0  0  0  0  0  0  0  0  0  0  0  0
    1.4597    1.7593    0.0000 H   0  0  0  0  0  0  0  0  0  0  0  0
  2  1  2  0  0  0  0
  3  1  1  0  0  0  0
  4  2  1  0  0  0  0
  5  3  1  0  0  0  0
  6  4  1  0  0  0  0
  6  5  2  0  0  0  0
  7  1  1  0  0  0  0
  7 19  1  0  0  0  0
  7 27  1  6  0  0  0
  8  7  1  0  0  0  0
  8 18  1  6  0  0  0
  9  2  1  0  0  0  0
  9  8  1  0  0  0  0
 10  8  1  0  0  0  0
 10 24  1  6  0  0  0
 11 10  1  0  0  0  0
 11 16  1  0  0  0  0
 11 25  1  6  0  0  0
 12 11  1  0  0  0  0
 12  9  1  0  0  0  0
 12 28  1  0  0  0  0
 12 29  1  0  0  0  0
 13  3  2  0  0  0  0
 14  4  2  0  0  0  0
 15  5  1  0  0  0  0
 15 30  1  0  0  0  0
 15 31  1  0  0  0  0
 16 10  1  0  0  0  0
 16 32  1  0  0  0  0
 17  6  1  0  0  0  0
 17 33  1  0  0  0  0
 17 34  1  0  0  0  0
 17 35  1  0  0  0  0
 19 36  1  0  0  0  0
 19 37  1  0  0  0  0
 20 19  1  0  0  0  0
 21 20  1  0  0  0  0
 22 21  1  0  0  0  0
 22 38  1  0  0  0  0
 22 39  1  0  0  0  0
 23 21  2  0  0  0  0
 26 18  1  0  0  0  0
 26 40  1  0  0  0  0
 26 41  1  0  0  0  0
 26 42  1  0  0  0  0
M  END
>  <DRUGBANK_ID>
DB00305

>  <SECONDARY_ACCESSION_NUMBERS>
APRD00284

>  <COMMON_NAME>
Mitomycin

>  <CAS_NUMBER>
50-07-7

>  <UNII>
50SG953SK6

>  <SYNONYMS>
7-Amino-9alpha-methoxymitosane; Ametycine; Mitamycin; Mitocin-C; Mitomycin; Mitomycin C; Mitomycin-C; MMC

$$$$
