
 OpenBabel10282417072D

 33 33  0  0  0  0  0  0  0  0999 V2000
    3.2556    0.5684    0.0000 N   0  0  0  0  0  0  0  0  0  0  0  0
    3.9085    0.0939    0.0000 C   0  0  0  0  0  0  0  0  0  0  0  0
    3.6590   -0.6736    0.0000 N   0  0  0  0  0  0  0  0  0  0  0  0
    2.6026    0.0938    0.0000 C   0  0  0  0  0  0  0  0  0  0  0  0
    2.8519   -0.6736    0.0000 C   0  0  0  0  0  0  0  0  0  0  0  0
    2.2254   -1.1903    0.0000 C   0  0  0  0  0  0  0  0  0  0  0  0
    1.3568   -0.6829    0.0000 S   0  0  0  0  0  0  0  0  0  0  0  0
    0.4653   -1.1365    0.0000 C   0  0  0  0  0  0  0  0  0  0  0  0
   -0.3725   -0.6369    0.0000 C   0  0  0  0  0  0  0  0  0  0  0  0
   -1.1643   -1.0903    0.0000 N   0  0  0  0  0  0  0  0  0  0  0  0
   -2.0098   -0.6369    0.0000 C   0  0  0  0  0  0  0  0  0  0  0  0
   -2.9707   -1.0903    0.0000 N   0  0  0  0  0  0  0  0  0  0  0  0
   -3.9085   -0.6598    0.0000 C   0  0  0  0  0  0  0  0  0  0  0  0
   -2.0098    0.2779    0.0000 N   0  0  0  0  0  0  0  0  0  0  0  0
   -1.2196    0.7340    0.0000 C   0  0  0  0  0  0  0  0  0  0  0  0
   -0.4295    1.1903    0.0000 N   0  0  0  0  0  0  0  0  0  0  0  0
    1.8104    0.3240    0.0000 C   0  0  0  0  0  0  0  0  0  0  0  0
    3.2556    1.5529    0.0000 H   0  0  0  0  0  0  0  0  0  0  0  0
    4.8900    0.4127    0.0000 H   0  0  0  0  0  0  0  0  0  0  0  0
    2.3114   -2.2568    0.0000 H   0  0  0  0  0  0  0  0  0  0  0  0
    1.3196   -1.7598    0.0000 H   0  0  0  0  0  0  0  0  0  0  0  0
    0.4294   -2.2059    0.0000 H   0  0  0  0  0  0  0  0  0  0  0  0
   -0.4738   -1.6493    0.0000 H   0  0  0  0  0  0  0  0  0  0  0  0
   -0.3630    0.4331    0.0000 H   0  0  0  0  0  0  0  0  0  0  0  0
   -1.2958   -0.0962    0.0000 H   0  0  0  0  0  0  0  0  0  0  0  0
   -1.1506   -2.0747    0.0000 H   0  0  0  0  0  0  0  0  0  0  0  0
   -2.9655   -2.0748    0.0000 H   0  0  0  0  0  0  0  0  0  0  0  0
   -4.0081    0.4056    0.0000 H   0  0  0  0  0  0  0  0  0  0  0  0
   -4.7813   -1.2788    0.0000 H   0  0  0  0  0  0  0  0  0  0  0  0
   -4.8809   -0.2134    0.0000 H   0  0  0  0  0  0  0  0  0  0  0  0
    1.5552    1.3631    0.0000 H   0  0  0  0  0  0  0  0  0  0  0  0
    1.0381   -0.4166    0.0000 H   0  0  0  0  0  0  0  0  0  0  0  0
    0.7829    0.6226    0.0000 H   0  0  0  0  0  0  0  0  0  0  0  0
  1 18  1  0  0  0  0
  2  1  1  0  0  0  0
  2 19  1  0  0  0  0
  3  2  2  0  0  0  0
  4  1  1  0  0  0  0
  5  3  1  0  0  0  0
  5  4  2  0  0  0  0
  6  5  1  0  0  0  0
  6 20  1  0  0  0  0
  6 21  1  0  0  0  0
  7  6  1  0  0  0  0
  8  7  1  0  0  0  0
  8 22  1  0  0  0  0
  8 23  1  0  0  0  0
  9  8  1  0  0  0  0
  9 24  1  0  0  0  0
  9 25  1  0  0  0  0
 10  9  1  0  0  0  0
 10 26  1  0  0  0  0
 11 10  1  0  0  0  0
 12 11  1  0  0  0  0
 12 27  1  0  0  0  0
 13 12  1  0  0  0  0
 13 28  1  0  0  0  0
 13 29  1  0  0  0  0
 13 30  1  0  0  0  0
 14 11  2  0  0  0  0
 14 15  1  0  0  0  0
 16 15  3  0  0  0  0
 17  4  1  0  0  0  0
 17 31  1  0  0  0  0
 17 32  1  0  0  0  0
 17 33  1  0  0  0  0
M  END
>  <DRUGBANK_ID>
DB00501

>  <SECONDARY_ACCESSION_NUMBERS>
APRD00568

>  <COMMON_NAME>
Cimetidine

>  <CAS_NUMBER>
51481-61-9

>  <UNII>
80061L1WGD

>  <SYNONYMS>
1-Cyano-2-methyl-3-(2-(((5-methyl-4-imidazolyl)methyl)thio)ethyl)guanidine; 2-cyano-1-methyl-3-(2-(((5-methylimidazol-4-yl)methyl)thio)ethyl)guanidine; Cimetidin; Cimetidina; Cim√©tidine; Cimetidine; Cimetidinum; N-cyano-N'-methyl-N''-(2-([(5-methyl-1H-imidazol-4-yl)methyl]sulfanyl)ethyl)guanidine; N''-cyano-N-methyl-N'-(2-{[(5-methyl-1H-imidazol-4-yl)methyl]thio}ethyl)guanidine

$$$$
