
 OpenBabel10282417072D

133136  0  0  1  0  0  0  0  0999 V2000
   -2.9735    2.2036    0.0000 C   0  0  2  0  0  0  0  0  0  0  0  0
   -3.6952    1.8014    0.0000 H   0  0  0  0  0  0  0  0  0  0  0  0
   -2.2886    2.6693    0.0000 O   0  0  0  0  0  0  0  0  0  0  0  0
   -2.3471    3.4898    0.0000 C   0  0  1  0  0  0  0  0  0  0  0  0
   -3.0894    3.8516    0.0000 C   0  0  2  0  0  0  0  0  0  0  0  0
   -3.7700    3.3953    0.0000 C   0  0  0  0  0  0  0  0  0  0  0  0
   -3.7174    2.5679    0.0000 C   0  0  0  0  0  0  0  0  0  0  0  0
   -3.0894    4.6872    0.0000 N   0  0  0  0  0  0  0  0  0  0  0  0
   -3.8107    5.1036    0.0000 C   0  0  0  0  0  0  0  0  0  0  0  0
   -2.3817    5.1037    0.0000 C   0  0  0  0  0  0  0  0  0  0  0  0
   -1.6324    3.9150    0.0000 C   0  0  0  0  0  0  0  0  0  0  0  0
   -3.0939    1.4361    0.0000 O   0  0  0  0  0  0  0  0  0  0  0  0
   -2.6255    0.4440    0.0000 C   0  0  2  0  0  0  0  0  0  0  0  0
   -1.9190    0.0383    0.0000 C   0  0  1  0  0  0  0  0  0  0  0  0
   -1.9190   -0.7738    0.0000 C   0  0  0  0  0  0  0  0  0  0  0  0
   -1.2114   -1.1865    0.0000 C   0  0  1  0  0  0  0  0  0  0  0  0
   -1.2114   -2.0108    0.0000 C   0  0  1  0  0  0  0  0  0  0  0  0
   -1.9143   -2.4121    0.0000 C   0  0  1  0  0  0  0  0  0  0  0  0
   -2.6406   -2.0049    0.0000 O   0  0  0  0  0  0  0  0  0  0  0  0
   -2.6406   -1.1770    0.0000 C   0  0  0  0  0  0  0  0  0  0  0  0
   -1.9143   -3.2371    0.0000 C   0  0  1  0  0  0  0  0  0  0  0  0
   -2.6358   -3.6522    0.0000 C   0  0  0  0  0  0  0  0  0  0  0  0
   -3.3485   -3.2303    0.0000 C   0  0  0  0  0  0  0  0  0  0  0  0
   -4.0565   -3.6468    0.0000 O   0  0  0  0  0  0  0  0  0  0  0  0
   -4.7682   -3.2303    0.0000 C   0  0  2  0  0  0  0  0  0  0  0  0
   -5.4896   -3.6468    0.0000 C   0  0  0  0  0  0  0  0  0  0  0  0
   -4.7682   -2.4026    0.0000 C   0  0  0  0  0  0  0  0  0  0  0  0
   -4.0565   -1.9910    0.0000 C   0  0  0  0  0  0  0  0  0  0  0  0
   -4.0565   -1.1657    0.0000 C   0  0  0  0  0  0  0  0  0  0  0  0
   -3.3367   -0.7742    0.0000 C   0  0  0  0  0  0  0  0  0  0  0  0
   -3.3367    0.0447    0.0000 C   0  0  0  0  0  0  0  0  0  0  0  0
   -3.3485   -2.3981    0.0000 O   0  0  0  0  0  0  0  0  0  0  0  0
   -1.2022   -3.6560    0.0000 O   0  0  0  0  0  0  0  0  0  0  0  0
   -0.4084   -2.2669    0.0000 O   0  0  0  0  0  0  0  0  0  0  0  0
    0.4140   -2.2669    0.0000 C   0  0  2  0  0  0  0  0  0  0  0  0
    0.7910   -3.0046    0.0000 O   0  0  0  0  0  0  0  0  0  0  0  0
    1.6138   -3.0516    0.0000 C   0  0  1  0  0  0  0  0  0  0  0  0
    2.0667   -2.3539    0.0000 C   0  0  2  0  0  0  0  0  0  0  0  0
    1.6992   -1.6163    0.0000 C   0  0  1  0  0  0  0  0  0  0  0  0
    0.8694   -1.5672    0.0000 C   0  0  1  0  0  0  0  0  0  0  0  0
    0.3191   -0.9428    0.0000 O   0  0  0  0  0  0  0  0  0  0  0  0
    2.1485   -0.9193    0.0000 N   0  0  0  0  0  0  0  0  0  0  0  0
    1.7751   -0.1761    0.0000 C   0  0  0  0  0  0  0  0  0  0  0  0
    2.9576   -0.7475    0.0000 C   0  0  0  0  0  0  0  0  0  0  0  0
    2.8983   -2.3539    0.0000 O   0  0  0  0  0  0  0  0  0  0  0  0
    3.4461   -3.0183    0.0000 C   0  0  2  0  0  0  0  0  0  0  0  0
    3.1831   -3.8064    0.0000 O   0  0  0  0  0  0  0  0  0  0  0  0
    3.8120   -4.4998    0.0000 C   0  0  2  0  0  0  0  0  0  0  0  0
    4.5372   -4.2623    0.0000 C   0  0  1  0  0  0  0  0  0  0  0  0
    4.8047   -3.4791    0.0000 C   0  0  1  0  0  0  0  0  0  0  0  0
    4.2584   -2.8515    0.0000 C   0  0  0  0  0  0  0  0  0  0  0  0
    5.4121   -2.9173    0.0000 O   0  0  0  0  0  0  0  0  0  0  0  0
    5.4896   -3.9272    0.0000 C   0  0  0  0  0  0  0  0  0  0  0  0
    5.0891   -4.8785    0.0000 O   0  0  0  0  0  0  0  0  0  0  0  0
    3.6217   -5.1037    0.0000 C   0  0  0  0  0  0  0  0  0  0  0  0
    3.7019   -2.2314    0.0000 H   0  0  0  0  0  0  0  0  0  0  0  0
    2.1592   -3.6706    0.0000 C   0  0  0  0  0  0  0  0  0  0  0  0
   -0.0043   -2.9761    0.0000 H   0  0  0  0  0  0  0  0  0  0  0  0
   -0.6287   -0.6035    0.0000 C   0  0  0  0  0  0  0  0  0  0  0  0
   -0.4162    0.1827    0.0000 C   0  0  0  0  0  0  0  0  0  0  0  0
    0.3376    0.3215    0.0000 O   0  0  0  0  0  0  0  0  0  0  0  0
   -1.3364    0.6175    0.0000 C   0  0  0  0  0  0  0  0  0  0  0  0
   -1.3987    2.9943    0.0000 H   0  0  0  0  0  0  0  0  0  0  0  0
   -2.1821    4.4187    0.0000 H   0  0  0  0  0  0  0  0  0  0  0  0
   -4.7296    3.8687    0.0000 H   0  0  0  0  0  0  0  0  0  0  0  0
   -4.6603    2.8018    0.0000 H   0  0  0  0  0  0  0  0  0  0  0  0
   -4.6068    1.9731    0.0000 H   0  0  0  0  0  0  0  0  0  0  0  0
   -3.6457    1.5003    0.0000 H   0  0  0  0  0  0  0  0  0  0  0  0
   -3.8107    6.1736    0.0000 H   0  0  0  0  0  0  0  0  0  0  0  0
   -4.7373    4.5686    0.0000 H   0  0  0  0  0  0  0  0  0  0  0  0
   -4.7374    5.6386    0.0000 H   0  0  0  0  0  0  0  0  0  0  0  0
   -1.4506    4.5764    0.0000 H   0  0  0  0  0  0  0  0  0  0  0  0
   -2.3906    6.1737    0.0000 H   0  0  0  0  0  0  0  0  0  0  0  0
   -1.4595    5.6464    0.0000 H   0  0  0  0  0  0  0  0  0  0  0  0
   -0.6988    3.3922    0.0000 H   0  0  0  0  0  0  0  0  0  0  0  0
   -1.6464    4.9849    0.0000 H   0  0  0  0  0  0  0  0  0  0  0  0
   -0.7128    4.4621    0.0000 H   0  0  0  0  0  0  0  0  0  0  0  0
   -1.8392    1.1697    0.0000 H   0  0  0  0  0  0  0  0  0  0  0  0
   -2.0584    1.0992    0.0000 H   0  0  0  0  0  0  0  0  0  0  0  0
   -2.8468   -1.3068    0.0000 H   0  0  0  0  0  0  0  0  0  0  0  0
   -1.9225   -1.8438    0.0000 H   0  0  0  0  0  0  0  0  0  0  0  0
   -1.3489   -0.1254    0.0000 H   0  0  0  0  0  0  0  0  0  0  0  0
   -0.3475   -1.3795    0.0000 H   0  0  0  0  0  0  0  0  0  0  0  0
   -1.9185   -1.3421    0.0000 H   0  0  0  0  0  0  0  0  0  0  0  0
   -1.7140   -0.6420    0.0000 H   0  0  0  0  0  0  0  0  0  0  0  0
   -3.5672   -0.6420    0.0000 H   0  0  0  0  0  0  0  0  0  0  0  0
   -2.6406   -0.1070    0.0000 H   0  0  0  0  0  0  0  0  0  0  0  0
   -0.9855   -2.7059    0.0000 H   0  0  0  0  0  0  0  0  0  0  0  0
   -2.6424   -4.7222    0.0000 H   0  0  0  0  0  0  0  0  0  0  0  0
   -3.5670   -4.1793    0.0000 H   0  0  0  0  0  0  0  0  0  0  0  0
   -4.7713   -4.3003    0.0000 H   0  0  0  0  0  0  0  0  0  0  0  0
   -6.4162   -3.1118    0.0000 H   0  0  0  0  0  0  0  0  0  0  0  0
   -5.4896   -4.7168    0.0000 H   0  0  0  0  0  0  0  0  0  0  0  0
   -6.4162   -4.1818    0.0000 H   0  0  0  0  0  0  0  0  0  0  0  0
   -5.6950   -1.8679    0.0000 H   0  0  0  0  0  0  0  0  0  0  0  0
   -4.7688   -1.3326    0.0000 H   0  0  0  0  0  0  0  0  0  0  0  0
   -3.1626   -2.5067    0.0000 H   0  0  0  0  0  0  0  0  0  0  0  0
   -4.9436   -0.6384    0.0000 H   0  0  0  0  0  0  0  0  0  0  0  0
   -2.4496   -1.3015    0.0000 H   0  0  0  0  0  0  0  0  0  0  0  0
   -4.2273    0.5661    0.0000 H   0  0  0  0  0  0  0  0  0  0  0  0
   -1.2101   -4.6260    0.0000 H   0  0  0  0  0  0  0  0  0  0  0  0
    1.1457   -4.0138    0.0000 H   0  0  0  0  0  0  0  0  0  0  0  0
    2.5774   -3.2942    0.0000 H   0  0  0  0  0  0  0  0  0  0  0  0
    2.7676   -1.6753    0.0000 H   0  0  0  0  0  0  0  0  0  0  0  0
    1.3384   -0.6055    0.0000 H   0  0  0  0  0  0  0  0  0  0  0  0
    0.6286   -0.0235    0.0000 H   0  0  0  0  0  0  0  0  0  0  0  0
    2.3629    0.7180    0.0000 H   0  0  0  0  0  0  0  0  0  0  0  0
    0.7069   -0.1141    0.0000 H   0  0  0  0  0  0  0  0  0  0  0  0
    1.2947    0.7800    0.0000 H   0  0  0  0  0  0  0  0  0  0  0  0
    3.6734   -1.5428    0.0000 H   0  0  0  0  0  0  0  0  0  0  0  0
    3.2885    0.2701    0.0000 H   0  0  0  0  0  0  0  0  0  0  0  0
    4.0043   -0.5253    0.0000 H   0  0  0  0  0  0  0  0  0  0  0  0
    2.7668   -4.7288    0.0000 H   0  0  0  0  0  0  0  0  0  0  0  0
    4.2601   -5.2958    0.0000 H   0  0  0  0  0  0  0  0  0  0  0  0
    4.6011   -1.8379    0.0000 H   0  0  0  0  0  0  0  0  0  0  0  0
    3.5499   -2.0497    0.0000 H   0  0  0  0  0  0  0  0  0  0  0  0
    6.3386   -3.2047    0.0000 H   0  0  0  0  0  0  0  0  0  0  0  0
    5.4300   -4.9955    0.0000 H   0  0  0  0  0  0  0  0  0  0  0  0
    6.4446   -3.4447    0.0000 H   0  0  0  0  0  0  0  0  0  0  0  0
    6.3850   -4.5130    0.0000 H   0  0  0  0  0  0  0  0  0  0  0  0
    4.7869   -5.8002    0.0000 H   0  0  0  0  0  0  0  0  0  0  0  0
    2.5771   -5.3355    0.0000 H   0  0  0  0  0  0  0  0  0  0  0  0
    4.3447   -5.8925    0.0000 H   0  0  0  0  0  0  0  0  0  0  0  0
    3.3001   -6.1242    0.0000 H   0  0  0  0  0  0  0  0  0  0  0  0
    1.8176   -4.6846    0.0000 H   0  0  0  0  0  0  0  0  0  0  0  0
    3.2082   -3.4594    0.0000 H   0  0  0  0  0  0  0  0  0  0  0  0
    2.8666   -4.4734    0.0000 H   0  0  0  0  0  0  0  0  0  0  0  0
    0.2974   -1.1394    0.0000 H   0  0  0  0  0  0  0  0  0  0  0  0
    0.3605   -0.1956    0.0000 H   0  0  0  0  0  0  0  0  0  0  0  0
   -1.1155    0.9417    0.0000 H   0  0  0  0  0  0  0  0  0  0  0  0
   -0.3037    0.3375    0.0000 H   0  0  0  0  0  0  0  0  0  0  0  0
   -1.6103    1.6518    0.0000 H   0  0  0  0  0  0  0  0  0  0  0  0
   -0.5776    1.3719    0.0000 H   0  0  0  0  0  0  0  0  0  0  0  0
  1  2  1  6  0  0  0
  1  3  1  0  0  0  0
  1  7  1  0  0  0  0
  1 12  1  0  0  0  0
  3  4  1  0  0  0  0
  4  5  1  0  0  0  0
  4 11  1  0  0  0  0
  4 63  1  6  0  0  0
  5  6  1  0  0  0  0
  5  8  1  0  0  0  0
  5 64  1  1  0  0  0
  6  7  1  0  0  0  0
  6 65  1  0  0  0  0
  6 66  1  0  0  0  0
  7 67  1  0  0  0  0
  7 68  1  0  0  0  0
  8  9  1  0  0  0  0
  8 10  1  0  0  0  0
  9 69  1  0  0  0  0
  9 70  1  0  0  0  0
  9 71  1  0  0  0  0
 10 72  1  0  0  0  0
 10 73  1  0  0  0  0
 10 74  1  0  0  0  0
 11 75  1  0  0  0  0
 11 76  1  0  0  0  0
 11 77  1  0  0  0  0
 13 12  1  0  0  0  0
 13 31  1  0  0  0  0
 13 78  1  1  0  0  0
 14 13  1  0  0  0  0
 14 62  1  0  0  0  0
 14 79  1  1  0  0  0
 15 14  1  0  0  0  0
 15 80  1  0  0  0  0
 15 81  1  0  0  0  0
 16 15  1  0  0  0  0
 16 59  1  0  0  0  0
 16 82  1  1  0  0  0
 17 16  1  0  0  0  0
 17 34  1  0  0  0  0
 17 83  1  1  0  0  0
 18 17  1  0  0  0  0
 18 19  1  0  0  0  0
 18 84  1  1  0  0  0
 19 20  1  0  0  0  0
 20 85  1  0  0  0  0
 20 86  1  0  0  0  0
 20 87  1  0  0  0  0
 21 18  1  0  0  0  0
 21 33  1  0  0  0  0
 21 88  1  1  0  0  0
 22 21  1  0  0  0  0
 22 89  1  0  0  0  0
 22 90  1  0  0  0  0
 23 22  1  0  0  0  0
 23 32  2  0  0  0  0
 24 23  1  0  0  0  0
 25 24  1  0  0  0  0
 25 26  1  0  0  0  0
 25 91  1  1  0  0  0
 26 92  1  0  0  0  0
 26 93  1  0  0  0  0
 26 94  1  0  0  0  0
 27 25  1  0  0  0  0
 27 28  1  0  0  0  0
 27 95  1  0  0  0  0
 27 96  1  0  0  0  0
 28 29  2  0  0  0  0
 28 97  1  0  0  0  0
 29 98  1  0  0  0  0
 30 29  1  0  0  0  0
 30 99  1  0  0  0  0
 31 30  2  0  0  0  0
 31100  1  0  0  0  0
 33101  1  0  0  0  0
 34 35  1  0  0  0  0
 35 36  1  0  0  0  0
 35 40  1  0  0  0  0
 35 58  1  6  0  0  0
 36 37  1  0  0  0  0
 37 38  1  0  0  0  0
 37 57  1  0  0  0  0
 37102  1  6  0  0  0
 38 39  1  0  0  0  0
 38 45  1  0  0  0  0
 38103  1  1  0  0  0
 39 40  1  0  0  0  0
 39 42  1  0  0  0  0
 39104  1  6  0  0  0
 40 41  1  0  0  0  0
 40105  1  1  0  0  0
 41106  1  0  0  0  0
 42 43  1  0  0  0  0
 42 44  1  0  0  0  0
 43107  1  0  0  0  0
 43108  1  0  0  0  0
 43109  1  0  0  0  0
 44110  1  0  0  0  0
 44111  1  0  0  0  0
 44112  1  0  0  0  0
 45 46  1  0  0  0  0
 46 47  1  0  0  0  0
 46 51  1  0  0  0  0
 46 56  1  6  0  0  0
 47 48  1  0  0  0  0
 48 49  1  0  0  0  0
 48 55  1  0  0  0  0
 48113  1  1  0  0  0
 49 50  1  0  0  0  0
 49 54  1  0  0  0  0
 49114  1  6  0  0  0
 50 51  1  0  0  0  0
 50 52  1  1  0  0  0
 50 53  1  0  0  0  0
 51115  1  0  0  0  0
 51116  1  0  0  0  0
 52117  1  0  0  0  0
 53118  1  0  0  0  0
 53119  1  0  0  0  0
 53120  1  0  0  0  0
 54121  1  0  0  0  0
 55122  1  0  0  0  0
 55123  1  0  0  0  0
 55124  1  0  0  0  0
 57125  1  0  0  0  0
 57126  1  0  0  0  0
 57127  1  0  0  0  0
 59 60  1  0  0  0  0
 59128  1  0  0  0  0
 59129  1  0  0  0  0
 60 61  2  0  0  0  0
 60130  1  0  0  0  0
 62131  1  0  0  0  0
 62132  1  0  0  0  0
 62133  1  0  0  0  0
M  END
>  <DRUGBANK_ID>
DB06145

>  <COMMON_NAME>
Spiramycin

>  <CAS_NUMBER>
24916-50-5

>  <UNII>
033ECH6IFG

>  <SYNONYMS>
Demycarosylturimycin H; Foromacidin A; Foromacidine A; Spiramycin 1; Spiramycin A; Spiramycin I

$$$$
