
 OpenBabel10282417072D

 97100  0  0  0  0  0  0  0  0999 V2000
   -2.3521    0.7625    0.0000 C   0  0  1  0  0  0  0  0  0  0  0  0
   -2.3521   -0.6542    0.0000 C   0  0  1  0  0  0  0  0  0  0  0  0
   -1.6400   -1.0625    0.0000 C   0  0  1  0  0  0  0  0  0  0  0  0
   -1.3275    1.3585    0.0000 C   0  0  1  0  0  0  0  0  0  0  0  0
   -1.3353    2.5375    0.0000 C   0  0  1  0  0  0  0  0  0  0  0  0
   -0.6228    2.9501    0.0000 C   0  0  2  0  0  0  0  0  0  0  0  0
    0.0896    2.5375    0.0000 C   0  0  2  0  0  0  0  0  0  0  0  0
    0.8021    2.9501    0.0000 C   0  0  0  0  0  0  0  0  0  0  0  0
    1.5148    2.5375    0.0000 C   0  0  0  0  0  0  0  0  0  0  0  0
    2.2272    2.9501    0.0000 C   0  0  0  0  0  0  0  0  0  0  0  0
    2.9398    2.5375    0.0000 C   0  0  0  0  0  0  0  0  0  0  0  0
    3.6523    2.9501    0.0000 C   0  0  0  0  0  0  0  0  0  0  0  0
    2.9398    1.7125    0.0000 C   0  0  0  0  0  0  0  0  0  0  0  0
    2.2252    1.3001    0.0000 O   0  0  0  0  0  0  0  0  0  0  0  0
    0.8272   -2.9502    0.0000 C   0  0  1  0  0  0  0  0  0  0  0  0
   -0.2020   -3.5377    0.0000 O   0  0  0  0  0  0  0  0  0  0  0  0
   -0.9187   -3.1252    0.0000 C   0  0  0  0  0  0  0  0  0  0  0  0
   -0.9228   -2.3001    0.0000 C   0  0  0  0  0  0  0  0  0  0  0  0
   -1.6395   -1.8876    0.0000 C   0  0  2  0  0  0  0  0  0  0  0  0
    1.1050   -0.8166    0.0000 C   0  0  0  0  0  0  0  0  0  0  0  0
    1.8168   -0.4038    0.0000 C   0  0  0  0  0  0  0  0  0  0  0  0
    2.5321   -0.8129    0.0000 C   0  0  0  0  0  0  0  0  0  0  0  0
    2.5329   -1.6398    0.0000 C   0  0  0  0  0  0  0  0  0  0  0  0
    3.2483   -2.0508    0.0000 C   0  0  0  0  0  0  0  0  0  0  0  0
    3.9633   -1.6361    0.0000 C   0  0  0  0  0  0  0  0  0  0  0  0
    3.9587   -0.8061    0.0000 C   0  0  0  0  0  0  0  0  0  0  0  0
    3.2427   -0.3989    0.0000 C   0  0  0  0  0  0  0  0  0  0  0  0
    1.8186   -2.0570    0.0000 C   0  0  0  0  0  0  0  0  0  0  0  0
    1.1040   -1.6472    0.0000 C   0  0  0  0  0  0  0  0  0  0  0  0
    0.4934   -2.2001    0.0000 O   0  0  0  0  0  0  0  0  0  0  0  0
    1.6496   -2.8632    0.0000 C   0  0  0  0  0  0  0  0  0  0  0  0
    0.0896    1.7125    0.0000 C   0  0  0  0  0  0  0  0  0  0  0  0
   -0.6100    0.9513    0.0000 O   0  0  0  0  0  0  0  0  0  0  0  0
   -3.0661   -1.0677    0.0000 O   0  0  0  0  0  0  0  0  0  0  0  0
   -3.0678    1.1730    0.0000 C   0  0  0  0  0  0  0  0  0  0  0  0
   -0.6228    3.7751    0.0000 O   0  0  0  0  0  0  0  0  0  0  0  0
   -2.0520    2.9462    0.0000 C   0  0  0  0  0  0  0  0  0  0  0  0
   -2.3537   -2.3006    0.0000 O   0  0  0  0  0  0  0  0  0  0  0  0
   -3.7855   -0.6542    0.0000 C   0  0  0  0  0  0  0  0  0  0  0  0
   -3.7870    0.1707    0.0000 O   0  0  0  0  0  0  0  0  0  0  0  0
   -4.4992   -1.0681    0.0000 C   0  0  0  0  0  0  0  0  0  0  0  0
    1.8105    0.4249    0.0000 O   0  0  0  0  0  0  0  0  0  0  0  0
    3.2355    0.4291    0.0000 O   0  0  0  0  0  0  0  0  0  0  0  0
    4.4992    0.6917    0.0000 N   0  0  0  0  0  0  0  0  0  0  0  0
    0.8230   -3.7751    0.0000 C   0  0  0  0  0  0  0  0  0  0  0  0
   -3.0685   -1.8889    0.0000 C   0  0  0  0  0  0  0  0  0  0  0  0
    3.2439   -2.8751    0.0000 O   0  0  0  0  0  0  0  0  0  0  0  0
    2.2314   -3.4461    0.0000 O   0  0  0  0  0  0  0  0  0  0  0  0
    0.3903   -0.4044    0.0000 C   0  0  0  0  0  0  0  0  0  0  0  0
   -0.9262   -0.6488    0.0000 C   0  0  0  0  0  0  0  0  0  0  0  0
   -3.2780    0.2262    0.0000 H   0  0  0  0  0  0  0  0  0  0  0  0
   -2.3498   -1.7242    0.0000 H   0  0  0  0  0  0  0  0  0  0  0  0
   -1.6425    0.0075    0.0000 H   0  0  0  0  0  0  0  0  0  0  0  0
   -0.4046    1.9000    0.0000 H   0  0  0  0  0  0  0  0  0  0  0  0
   -1.3389    3.6075    0.0000 H   0  0  0  0  0  0  0  0  0  0  0  0
   -1.5498    3.4845    0.0000 H   0  0  0  0  0  0  0  0  0  0  0  0
   -0.8374    2.0031    0.0000 H   0  0  0  0  0  0  0  0  0  0  0  0
    0.8020    3.9821    0.0000 H   0  0  0  0  0  0  0  0  0  0  0  0
    1.5149    1.5055    0.0000 H   0  0  0  0  0  0  0  0  0  0  0  0
    2.2271    3.9821    0.0000 H   0  0  0  0  0  0  0  0  0  0  0  0
    4.5796    2.4163    0.0000 H   0  0  0  0  0  0  0  0  0  0  0  0
    3.6509    4.0201    0.0000 H   0  0  0  0  0  0  0  0  0  0  0  0
    4.5782    3.4863    0.0000 H   0  0  0  0  0  0  0  0  0  0  0  0
   -1.8108   -3.6440    0.0000 H   0  0  0  0  0  0  0  0  0  0  0  0
   -0.0307   -1.7813    0.0000 H   0  0  0  0  0  0  0  0  0  0  0  0
   -2.5665   -1.3532    0.0000 H   0  0  0  0  0  0  0  0  0  0  0  0
    4.8590   -2.1487    0.0000 H   0  0  0  0  0  0  0  0  0  0  0  0
   -0.8370    1.1775    0.0000 H   0  0  0  0  0  0  0  0  0  0  0  0
    1.0162    1.1775    0.0000 H   0  0  0  0  0  0  0  0  0  0  0  0
    0.0896    0.6425    0.0000 H   0  0  0  0  0  0  0  0  0  0  0  0
   -0.6028   -0.0187    0.0000 H   0  0  0  0  0  0  0  0  0  0  0  0
   -3.0708    2.2430    0.0000 H   0  0  0  0  0  0  0  0  0  0  0  0
   -3.9929    0.6354    0.0000 H   0  0  0  0  0  0  0  0  0  0  0  0
   -3.9960    1.7054    0.0000 H   0  0  0  0  0  0  0  0  0  0  0  0
    0.2172    4.2601    0.0000 H   0  0  0  0  0  0  0  0  0  0  0  0
   -2.0577    4.0162    0.0000 H   0  0  0  0  0  0  0  0  0  0  0  0
   -2.9758    2.4063    0.0000 H   0  0  0  0  0  0  0  0  0  0  0  0
   -2.9815    3.4762    0.0000 H   0  0  0  0  0  0  0  0  0  0  0  0
   -5.4269   -0.5349    0.0000 H   0  0  0  0  0  0  0  0  0  0  0  0
   -4.4971   -2.1381    0.0000 H   0  0  0  0  0  0  0  0  0  0  0  0
   -5.4248   -1.6049    0.0000 H   0  0  0  0  0  0  0  0  0  0  0  0
    2.6184    0.8996    0.0000 H   0  0  0  0  0  0  0  0  0  0  0  0
    4.0429    0.9046    0.0000 H   0  0  0  0  0  0  0  0  0  0  0  0
    5.4330    1.0037    0.0000 H   0  0  0  0  0  0  0  0  0  0  0  0
   -0.1064   -4.3054    0.0000 H   0  0  0  0  0  0  0  0  0  0  0  0
    1.7469   -4.3148    0.0000 H   0  0  0  0  0  0  0  0  0  0  0  0
    0.8176   -4.8451    0.0000 H   0  0  0  0  0  0  0  0  0  0  0  0
   -3.0696   -0.8189    0.0000 H   0  0  0  0  0  0  0  0  0  0  0  0
   -3.9946   -2.4249    0.0000 H   0  0  0  0  0  0  0  0  0  0  0  0
   -3.9957   -1.3549    0.0000 H   0  0  0  0  0  0  0  0  0  0  0  0
    2.4299   -3.3393    0.0000 H   0  0  0  0  0  0  0  0  0  0  0  0
    0.3898    0.6656    0.0000 H   0  0  0  0  0  0  0  0  0  0  0  0
   -0.5361   -0.9398    0.0000 H   0  0  0  0  0  0  0  0  0  0  0  0
   -0.5366    0.1302    0.0000 H   0  0  0  0  0  0  0  0  0  0  0  0
    0.0013   -1.1823    0.0000 H   0  0  0  0  0  0  0  0  0  0  0  0
   -0.9280    0.4212    0.0000 H   0  0  0  0  0  0  0  0  0  0  0  0
   -0.0004   -0.1123    0.0000 H   0  0  0  0  0  0  0  0  0  0  0  0
  1 35  1  0  0  0  0
  1  4  1  0  0  0  0
  1 51  1  1  0  0  0
  2  3  1  0  0  0  0
  2 34  1  0  0  0  0
  2  1  1  0  0  0  0
  2 52  1  6  0  0  0
  3 50  1  0  0  0  0
  3 53  1  1  0  0  0
  4 33  1  0  0  0  0
  4  5  1  0  0  0  0
  4 54  1  6  0  0  0
  5  6  1  0  0  0  0
  5 37  1  0  0  0  0
  5 55  1  1  0  0  0
  6 36  1  0  0  0  0
  6  7  1  0  0  0  0
  6 56  1  6  0  0  0
  7 32  1  0  0  0  0
  7  8  1  0  0  0  0
  7 57  1  1  0  0  0
  8  9  2  0  0  0  0
  8 58  1  0  0  0  0
  9 10  1  0  0  0  0
  9 59  1  0  0  0  0
 10 11  2  0  0  0  0
 10 60  1  0  0  0  0
 11 12  1  0  0  0  0
 11 13  1  0  0  0  0
 12 61  1  0  0  0  0
 12 62  1  0  0  0  0
 12 63  1  0  0  0  0
 13 14  2  0  0  0  0
 15 16  1  0  0  0  0
 15 31  1  0  0  0  0
 15 45  1  6  0  0  0
 16 17  1  0  0  0  0
 17 18  2  0  0  0  0
 17 64  1  0  0  0  0
 18 19  1  0  0  0  0
 18 65  1  0  0  0  0
 19  3  1  0  0  0  0
 19 38  1  0  0  0  0
 19 66  1  1  0  0  0
 20 29  2  0  0  0  0
 20 49  1  0  0  0  0
 21 20  1  0  0  0  0
 21 42  1  0  0  0  0
 22 21  2  0  0  0  0
 22 23  1  0  0  0  0
 23 24  1  0  0  0  0
 24 25  2  0  0  0  0
 24 47  1  0  0  0  0
 25 26  1  0  0  0  0
 25 67  1  0  0  0  0
 26 27  2  0  0  0  0
 26 44  1  0  0  0  0
 27 22  1  0  0  0  0
 27 43  1  0  0  0  0
 28 29  1  0  0  0  0
 28 23  2  0  0  0  0
 29 30  1  0  0  0  0
 30 15  1  0  0  0  0
 31 28  1  0  0  0  0
 31 48  2  0  0  0  0
 32 68  1  0  0  0  0
 32 69  1  0  0  0  0
 32 70  1  0  0  0  0
 33 71  1  0  0  0  0
 34 39  1  0  0  0  0
 35 72  1  0  0  0  0
 35 73  1  0  0  0  0
 35 74  1  0  0  0  0
 36 75  1  0  0  0  0
 37 76  1  0  0  0  0
 37 77  1  0  0  0  0
 37 78  1  0  0  0  0
 38 46  1  0  0  0  0
 39 40  2  0  0  0  0
 39 41  1  0  0  0  0
 41 79  1  0  0  0  0
 41 80  1  0  0  0  0
 41 81  1  0  0  0  0
 42 82  1  0  0  0  0
 43 83  1  0  0  0  0
 44 13  1  0  0  0  0
 44 84  1  0  0  0  0
 45 85  1  0  0  0  0
 45 86  1  0  0  0  0
 45 87  1  0  0  0  0
 46 88  1  0  0  0  0
 46 89  1  0  0  0  0
 46 90  1  0  0  0  0
 47 91  1  0  0  0  0
 49 92  1  0  0  0  0
 49 93  1  0  0  0  0
 49 94  1  0  0  0  0
 50 95  1  0  0  0  0
 50 96  1  0  0  0  0
 50 97  1  0  0  0  0
M  END
>  <DRUGBANK_ID>
DB11753

>  <SECONDARY_ACCESSION_NUMBERS>
DB05378

>  <COMMON_NAME>
Rifamycin

>  <CAS_NUMBER>
6998-60-3

>  <UNII>
DU69T8ZZPA

>  <SYNONYMS>
Rifamicina; Rifamicine SV; Rifamycin; Rifamycin SV; Rifamycine; Rifamycinum; Rifomycin SV

$$$$
