26987
 OpenBabel10282417072D

 50 52  0  0  1  0  0  0  0  0999 V2000
    2.4751   -3.0174    0.0000 Cl  0  0  0  0  0  0  0  0  0  0  0  0
    3.3001    0.2827    0.0000 O   0  0  0  0  0  0  0  0  0  0  0  0
    5.7706    1.7979    0.0000 N   0  0  0  0  0  0  0  0  0  0  0  0
    4.9501    1.7117    0.0000 C   0  0  2  0  0  0  0  0  0  0  0  0
    4.6146    2.4653    0.0000 C   0  0  0  0  0  0  0  0  0  0  0  0
    5.2276    3.0174    0.0000 C   0  0  0  0  0  0  0  0  0  0  0  0
    5.9421    2.6049    0.0000 C   0  0  0  0  0  0  0  0  0  0  0  0
    4.5376    0.9972    0.0000 C   0  0  0  0  0  0  0  0  0  0  0  0
    3.7126    0.9972    0.0000 C   0  0  0  0  0  0  0  0  0  0  0  0
    6.3226    1.1848    0.0000 C   0  0  0  0  0  0  0  0  0  0  0  0
    2.4751    0.2827    0.0000 C   0  0  1  0  0  0  0  0  0  0  0  0
    2.4751   -0.5424    0.0000 C   0  0  0  0  0  0  0  0  0  0  0  0
    2.4751    1.1077    0.0000 C   0  0  0  0  0  0  0  0  0  0  0  0
    1.6500    0.2827    0.0000 C   0  0  0  0  0  0  0  0  0  0  0  0
    1.7606   -0.9549    0.0000 C   0  0  0  0  0  0  0  0  0  0  0  0
    3.1895   -0.9549    0.0000 C   0  0  0  0  0  0  0  0  0  0  0  0
    3.1895    1.5202    0.0000 C   0  0  0  0  0  0  0  0  0  0  0  0
    1.7606    1.5202    0.0000 C   0  0  0  0  0  0  0  0  0  0  0  0
    1.7606   -1.7799    0.0000 C   0  0  0  0  0  0  0  0  0  0  0  0
    3.1895   -1.7799    0.0000 C   0  0  0  0  0  0  0  0  0  0  0  0
    3.1895    2.3452    0.0000 C   0  0  0  0  0  0  0  0  0  0  0  0
    1.7606    2.3452    0.0000 C   0  0  0  0  0  0  0  0  0  0  0  0
    2.4751   -2.1924    0.0000 C   0  0  0  0  0  0  0  0  0  0  0  0
    2.4751    2.7577    0.0000 C   0  0  0  0  0  0  0  0  0  0  0  0
    5.5329    0.8143    0.0000 H   0  0  0  0  0  0  0  0  0  0  0  0
    3.5680    2.6877    0.0000 H   0  0  0  0  0  0  0  0  0  0  0  0
    4.3376    3.4988    0.0000 H   0  0  0  0  0  0  0  0  0  0  0  0
    5.1157    4.0815    0.0000 H   0  0  0  0  0  0  0  0  0  0  0  0
    6.1249    3.6002    0.0000 H   0  0  0  0  0  0  0  0  0  0  0  0
    6.9196    3.0401    0.0000 H   0  0  0  0  0  0  0  0  0  0  0  0
    5.9981    3.6734    0.0000 H   0  0  0  0  0  0  0  0  0  0  0  0
    5.0726    0.0706    0.0000 H   0  0  0  0  0  0  0  0  0  0  0  0
    4.0026    0.0706    0.0000 H   0  0  0  0  0  0  0  0  0  0  0  0
    3.1776    1.9238    0.0000 H   0  0  0  0  0  0  0  0  0  0  0  0
    4.2476    1.9238    0.0000 H   0  0  0  0  0  0  0  0  0  0  0  0
    5.9919    0.1672    0.0000 H   0  0  0  0  0  0  0  0  0  0  0  0
    7.3692    1.4072    0.0000 H   0  0  0  0  0  0  0  0  0  0  0  0
    7.0385    0.3896    0.0000 H   0  0  0  0  0  0  0  0  0  0  0  0
    1.1150    1.2093    0.0000 H   0  0  0  0  0  0  0  0  0  0  0  0
    1.1150   -0.6439    0.0000 H   0  0  0  0  0  0  0  0  0  0  0  0
    0.5800    0.2827    0.0000 H   0  0  0  0  0  0  0  0  0  0  0  0
    0.8669   -0.4389    0.0000 H   0  0  0  0  0  0  0  0  0  0  0  0
    4.0832   -0.4389    0.0000 H   0  0  0  0  0  0  0  0  0  0  0  0
    4.0832    1.0042    0.0000 H   0  0  0  0  0  0  0  0  0  0  0  0
    0.8669    1.0042    0.0000 H   0  0  0  0  0  0  0  0  0  0  0  0
    0.8669   -2.2959    0.0000 H   0  0  0  0  0  0  0  0  0  0  0  0
    4.0832   -2.2959    0.0000 H   0  0  0  0  0  0  0  0  0  0  0  0
    4.0832    2.8612    0.0000 H   0  0  0  0  0  0  0  0  0  0  0  0
    0.8669    2.8612    0.0000 H   0  0  0  0  0  0  0  0  0  0  0  0
    2.4751    3.7897    0.0000 H   0  0  0  0  0  0  0  0  0  0  0  0
  1 23  1  0  0  0  0
  2  9  1  0  0  0  0
  3  4  1  0  0  0  0
  3  7  1  0  0  0  0
  3 10  1  0  0  0  0
  4  5  1  0  0  0  0
  4  8  1  0  0  0  0
  4 25  1  6  0  0  0
  5  6  1  0  0  0  0
  5 26  1  0  0  0  0
  5 27  1  0  0  0  0
  6  7  1  0  0  0  0
  6 28  1  0  0  0  0
  6 29  1  0  0  0  0
  7 30  1  0  0  0  0
  7 31  1  0  0  0  0
  8  9  1  0  0  0  0
  8 32  1  0  0  0  0
  8 33  1  0  0  0  0
  9 34  1  0  0  0  0
  9 35  1  0  0  0  0
 10 36  1  0  0  0  0
 10 37  1  0  0  0  0
 10 38  1  0  0  0  0
 11  2  1  6  0  0  0
 11 12  1  0  0  0  0
 11 13  1  0  0  0  0
 11 14  1  0  0  0  0
 12 15  2  0  0  0  0
 12 16  1  0  0  0  0
 13 17  2  0  0  0  0
 13 18  1  0  0  0  0
 14 39  1  0  0  0  0
 14 40  1  0  0  0  0
 14 41  1  0  0  0  0
 15 19  1  0  0  0  0
 15 42  1  0  0  0  0
 16 20  2  0  0  0  0
 16 43  1  0  0  0  0
 17 21  1  0  0  0  0
 17 44  1  0  0  0  0
 18 22  2  0  0  0  0
 18 45  1  0  0  0  0
 19 23  2  0  0  0  0
 19 46  1  0  0  0  0
 20 23  1  0  0  0  0
 20 47  1  0  0  0  0
 21 24  2  0  0  0  0
 21 48  1  0  0  0  0
 22 24  1  0  0  0  0
 22 49  1  0  0  0  0
 24 50  1  0  0  0  0
M  END
>  <DRUGBANK_ID>
DB00283

>  <SECONDARY_ACCESSION_NUMBERS>
APRD00875

>  <COMMON_NAME>
Clemastine

>  <CAS_NUMBER>
15686-51-8

>  <UNII>
95QN29S1ID

>  <SYNONYMS>
(+)-(2R)-2-(2-(((R)-p-chloro-α-methyl-α-phenylbenzyl)oxy)ethyl)-1-methylpyrrolidine; (+)-(2R)-2-[2-[[(R)-p-chloro-α-methyl-α-phenylbenzyl]oxy]ethyl]-1-methylpyrrolidine; Clemastina; Clemastine; Clemastinum

$$$$
