
 OpenBabel10282417072D

 70 73  0  0  0  0  0  0  0  0999 V2000
    0.1162    3.0085    0.0000 C   0  0  0  0  0  0  0  0  0  0  0  0
    0.6683    3.6216    0.0000 O   0  0  0  0  0  0  0  0  0  0  0  0
    1.4752    3.4501    0.0000 C   0  0  0  0  0  0  0  0  0  0  0  0
    2.0273    4.0632    0.0000 C   0  0  0  0  0  0  0  0  0  0  0  0
    2.8343    3.8916    0.0000 C   0  0  0  0  0  0  0  0  0  0  0  0
    3.3863    4.5047    0.0000 C   0  0  0  0  0  0  0  0  0  0  0  0
    3.0892    3.1070    0.0000 N   0  0  0  0  0  0  0  0  0  0  0  0
    2.5372    2.4939    0.0000 C   0  0  0  0  0  0  0  0  0  0  0  0
    2.7921    1.7093    0.0000 O   0  0  0  0  0  0  0  0  0  0  0  0
    1.7302    2.6655    0.0000 C   0  0  0  0  0  0  0  0  0  0  0  0
    1.1782    2.0524    0.0000 C   0  0  0  0  0  0  0  0  0  0  0  0
    1.4331    1.2677    0.0000 N   0  0  0  0  0  0  0  0  0  0  0  0
    0.8811    0.6546    0.0000 C   0  0  0  0  0  0  0  0  0  0  0  0
    0.0741    0.8262    0.0000 O   0  0  0  0  0  0  0  0  0  0  0  0
    1.1360   -0.1299    0.0000 C   0  0  0  0  0  0  0  0  0  0  0  0
    0.6511   -0.7973    0.0000 C   0  0  0  0  0  0  0  0  0  0  0  0
   -0.1738   -0.7973    0.0000 C   0  0  0  0  0  0  0  0  0  0  0  0
    1.1360   -1.4648    0.0000 N   0  0  0  0  0  0  0  0  0  0  0  0
    1.9206   -1.2098    0.0000 C   0  0  0  0  0  0  0  0  0  0  0  0
    1.9206   -0.3848    0.0000 C   0  0  0  0  0  0  0  0  0  0  0  0
    2.6351    0.0276    0.0000 C   0  0  0  0  0  0  0  0  0  0  0  0
    3.3496   -0.3848    0.0000 C   0  0  0  0  0  0  0  0  0  0  0  0
    3.3496   -1.2098    0.0000 C   0  0  0  0  0  0  0  0  0  0  0  0
    2.6351   -1.6223    0.0000 C   0  0  0  0  0  0  0  0  0  0  0  0
    0.8811   -2.2494    0.0000 C   0  0  1  0  0  0  0  0  0  0  0  0
    0.0741   -2.4209    0.0000 C   0  0  0  0  0  0  0  0  0  0  0  0
   -0.1807   -3.2055    0.0000 C   0  0  0  0  0  0  0  0  0  0  0  0
   -0.9877   -3.3771    0.0000 C   0  0  0  0  0  0  0  0  0  0  0  0
   -1.5398   -2.7640    0.0000 N   0  0  0  0  0  0  0  0  0  0  0  0
   -1.2848   -1.9793    0.0000 C   0  0  0  0  0  0  0  0  0  0  0  0
   -0.4778   -1.8078    0.0000 C   0  0  0  0  0  0  0  0  0  0  0  0
   -2.3467   -2.9355    0.0000 C   0  0  0  0  0  0  0  0  0  0  0  0
   -2.6017   -3.7201    0.0000 C   0  0  0  0  0  0  0  0  0  0  0  0
   -2.8566   -4.5047    0.0000 F   0  0  0  0  0  0  0  0  0  0  0  0
   -3.3863   -3.4652    0.0000 F   0  0  0  0  0  0  0  0  0  0  0  0
   -1.8170   -3.9751    0.0000 F   0  0  0  0  0  0  0  0  0  0  0  0
    1.4331   -2.8625    0.0000 C   0  0  0  0  0  0  0  0  0  0  0  0
   -0.9304    3.2310    0.0000 H   0  0  0  0  0  0  0  0  0  0  0  0
    0.4468    1.9909    0.0000 H   0  0  0  0  0  0  0  0  0  0  0  0
   -0.5998    2.2134    0.0000 H   0  0  0  0  0  0  0  0  0  0  0  0
    1.7085    5.0447    0.0000 H   0  0  0  0  0  0  0  0  0  0  0  0
    4.4329    4.2823    0.0000 H   0  0  0  0  0  0  0  0  0  0  0  0
    3.0556    5.5223    0.0000 H   0  0  0  0  0  0  0  0  0  0  0  0
    4.1022    5.2999    0.0000 H   0  0  0  0  0  0  0  0  0  0  0  0
    4.0522    2.9023    0.0000 H   0  0  0  0  0  0  0  0  0  0  0  0
    0.1316    2.2749    0.0000 H   0  0  0  0  0  0  0  0  0  0  0  0
    0.4622    1.2573    0.0000 H   0  0  0  0  0  0  0  0  0  0  0  0
    2.3961    1.0630    0.0000 H   0  0  0  0  0  0  0  0  0  0  0  0
   -0.7088    0.1293    0.0000 H   0  0  0  0  0  0  0  0  0  0  0  0
   -0.7088   -1.7239    0.0000 H   0  0  0  0  0  0  0  0  0  0  0  0
   -1.2438   -0.7973    0.0000 H   0  0  0  0  0  0  0  0  0  0  0  0
    2.6351    1.0596    0.0000 H   0  0  0  0  0  0  0  0  0  0  0  0
    4.2433    0.1313    0.0000 H   0  0  0  0  0  0  0  0  0  0  0  0
    4.2433   -1.7258    0.0000 H   0  0  0  0  0  0  0  0  0  0  0  0
    2.6351   -2.6543    0.0000 H   0  0  0  0  0  0  0  0  0  0  0  0
    1.9277   -2.0269    0.0000 H   0  0  0  0  0  0  0  0  0  0  0  0
   -0.9725   -2.6434    0.0000 H   0  0  0  0  0  0  0  0  0  0  0  0
    0.5354   -4.0006    0.0000 H   0  0  0  0  0  0  0  0  0  0  0  0
   -0.5112   -4.2232    0.0000 H   0  0  0  0  0  0  0  0  0  0  0  0
   -1.3183   -4.3948    0.0000 H   0  0  0  0  0  0  0  0  0  0  0  0
   -2.0343   -3.5996    0.0000 H   0  0  0  0  0  0  0  0  0  0  0  0
   -2.0007   -1.1841    0.0000 H   0  0  0  0  0  0  0  0  0  0  0  0
   -0.9541   -0.9617    0.0000 H   0  0  0  0  0  0  0  0  0  0  0  0
   -0.1471   -0.7902    0.0000 H   0  0  0  0  0  0  0  0  0  0  0  0
    0.5688   -1.5854    0.0000 H   0  0  0  0  0  0  0  0  0  0  0  0
   -3.0626   -2.1403    0.0000 H   0  0  0  0  0  0  0  0  0  0  0  0
   -3.3933   -3.1579    0.0000 H   0  0  0  0  0  0  0  0  0  0  0  0
    1.1024   -3.8801    0.0000 H   0  0  0  0  0  0  0  0  0  0  0  0
    2.4797   -2.6401    0.0000 H   0  0  0  0  0  0  0  0  0  0  0  0
    2.1490   -3.6577    0.0000 H   0  0  0  0  0  0  0  0  0  0  0  0
  1  2  1  0  0  0  0
  1 38  1  0  0  0  0
  1 39  1  0  0  0  0
  1 40  1  0  0  0  0
  2  3  1  0  0  0  0
  3  4  1  0  0  0  0
  3 10  2  0  0  0  0
  4  5  2  0  0  0  0
  4 41  1  0  0  0  0
  5  6  1  0  0  0  0
  5  7  1  0  0  0  0
  6 42  1  0  0  0  0
  6 43  1  0  0  0  0
  6 44  1  0  0  0  0
  7  8  1  0  0  0  0
  7 45  1  0  0  0  0
  8  9  2  0  0  0  0
  8 10  1  0  0  0  0
 10 11  1  0  0  0  0
 11 12  1  0  0  0  0
 11 46  1  0  0  0  0
 11 47  1  0  0  0  0
 12 13  1  0  0  0  0
 12 48  1  0  0  0  0
 13 14  2  0  0  0  0
 13 15  1  0  0  0  0
 15 16  2  0  0  0  0
 15 20  1  0  0  0  0
 16 17  1  0  0  0  0
 16 18  1  0  0  0  0
 17 49  1  0  0  0  0
 17 50  1  0  0  0  0
 17 51  1  0  0  0  0
 18 19  1  0  0  0  0
 19 20  1  0  0  0  0
 19 24  2  0  0  0  0
 20 21  2  0  0  0  0
 21 22  1  0  0  0  0
 21 52  1  0  0  0  0
 22 23  2  0  0  0  0
 22 53  1  0  0  0  0
 23 24  1  0  0  0  0
 23 54  1  0  0  0  0
 24 55  1  0  0  0  0
 25 18  1  0  0  0  0
 25 26  1  0  0  0  0
 25 37  1  0  0  0  0
 25 56  1  1  0  0  0
 26 27  1  0  0  0  0
 26 31  1  0  0  0  0
 26 57  1  0  0  0  0
 27 28  1  0  0  0  0
 27 58  1  0  0  0  0
 27 59  1  0  0  0  0
 28 29  1  0  0  0  0
 28 60  1  0  0  0  0
 28 61  1  0  0  0  0
 29 30  1  0  0  0  0
 29 32  1  0  0  0  0
 30 31  1  0  0  0  0
 30 62  1  0  0  0  0
 30 63  1  0  0  0  0
 31 64  1  0  0  0  0
 31 65  1  0  0  0  0
 32 33  1  0  0  0  0
 32 66  1  0  0  0  0
 32 67  1  0  0  0  0
 33 34  1  0  0  0  0
 33 35  1  0  0  0  0
 33 36  1  0  0  0  0
 37 68  1  0  0  0  0
 37 69  1  0  0  0  0
 37 70  1  0  0  0  0
M  END
>  <DRUGBANK_ID>
DB14581

>  <COMMON_NAME>
CPI-1205

>  <CAS_NUMBER>
1621862-70-1

>  <UNII>
455J2479FY

$$$$
