667
 OpenBabel10282417072D

 36 38  0  0  0  0  0  0  0  0999 V2000
    3.0409   -0.4801    0.0000 S   0  0  0  0  0  0  0  0  0  0  0  0
    3.4728   -1.1830    0.0000 O   0  0  0  0  0  0  0  0  0  0  0  0
    3.7438   -0.0482    0.0000 O   0  0  0  0  0  0  0  0  0  0  0  0
    2.6090    0.2228    0.0000 O   0  0  0  0  0  0  0  0  0  0  0  0
    2.3380   -0.9120    0.0000 N   0  0  0  0  0  0  0  0  0  0  0  0
    1.7843    0.2003    0.0000 C   0  0  0  0  0  0  0  0  0  0  0  0
    1.3525    0.9032    0.0000 C   0  0  0  0  0  0  0  0  0  0  0  0
    0.5278    0.8806    0.0000 C   0  0  0  0  0  0  0  0  0  0  0  0
    0.1350    0.1552    0.0000 C   0  0  0  0  0  0  0  0  0  0  0  0
    0.5668   -0.5478    0.0000 C   0  0  0  0  0  0  0  0  0  0  0  0
    1.3915   -0.5252    0.0000 C   0  0  0  0  0  0  0  0  0  0  0  0
   -0.6897    0.1326    0.0000 C   0  0  0  0  0  0  0  0  0  0  0  0
   -1.0826   -0.5929    0.0000 C   0  0  0  0  0  0  0  0  0  0  0  0
   -0.6507   -1.2958    0.0000 C   0  0  0  0  0  0  0  0  0  0  0  0
   -1.0120    0.8920    0.0000 C   0  0  0  0  0  0  0  0  0  0  0  0
   -1.8947   -0.7381    0.0000 C   0  0  0  0  0  0  0  0  0  0  0  0
   -1.0435   -2.0213    0.0000 O   0  0  0  0  0  0  0  0  0  0  0  0
    0.1740   -1.2733    0.0000 O   0  0  0  0  0  0  0  0  0  0  0  0
   -2.5146   -0.1937    0.0000 C   0  0  0  0  0  0  0  0  0  0  0  0
   -2.4754    0.6304    0.0000 C   0  0  0  0  0  0  0  0  0  0  0  0
   -1.8067    1.1136    0.0000 C   0  0  0  0  0  0  0  0  0  0  0  0
    1.4410   -0.4264    0.0000 H   0  0  0  0  0  0  0  0  0  0  0  0
    2.3659   -1.9316    0.0000 H   0  0  0  0  0  0  0  0  0  0  0  0
    1.8439    1.8107    0.0000 H   0  0  0  0  0  0  0  0  0  0  0  0
   -0.0125    1.7599    0.0000 H   0  0  0  0  0  0  0  0  0  0  0  0
    1.9318   -1.4045    0.0000 H   0  0  0  0  0  0  0  0  0  0  0  0
   -0.3059    1.6960    0.0000 H   0  0  0  0  0  0  0  0  0  0  0  0
   -1.3170    1.9176    0.0000 H   0  0  0  0  0  0  0  0  0  0  0  0
   -2.1820   -1.7688    0.0000 H   0  0  0  0  0  0  0  0  0  0  0  0
   -2.9203   -1.0432    0.0000 H   0  0  0  0  0  0  0  0  0  0  0  0
   -3.4996   -0.6117    0.0000 H   0  0  0  0  0  0  0  0  0  0  0  0
   -3.3925    0.4180    0.0000 H   0  0  0  0  0  0  0  0  0  0  0  0
   -3.4163    1.1399    0.0000 H   0  0  0  0  0  0  0  0  0  0  0  0
   -2.5446    1.6982    0.0000 H   0  0  0  0  0  0  0  0  0  0  0  0
   -1.9950    2.1669    0.0000 H   0  0  0  0  0  0  0  0  0  0  0  0
   -2.7987    1.5145    0.0000 H   0  0  0  0  0  0  0  0  0  0  0  0
  1  2  2  0  0  0  0
  1  3  2  0  0  0  0
  1  4  1  0  0  0  0
  1  5  1  0  0  0  0
  4  6  1  0  0  0  0
  5 22  1  0  0  0  0
  5 23  1  0  0  0  0
  6  7  2  0  0  0  0
  6 11  1  0  0  0  0
  7  8  1  0  0  0  0
  7 24  1  0  0  0  0
  8  9  2  0  0  0  0
  8 25  1  0  0  0  0
  9 10  1  0  0  0  0
  9 12  1  0  0  0  0
 10 11  2  0  0  0  0
 10 18  1  0  0  0  0
 11 26  1  0  0  0  0
 12 13  2  0  0  0  0
 12 15  1  0  0  0  0
 13 14  1  0  0  0  0
 13 16  1  0  0  0  0
 14 17  2  0  0  0  0
 14 18  1  0  0  0  0
 15 21  1  0  0  0  0
 15 27  1  0  0  0  0
 15 28  1  0  0  0  0
 16 19  1  0  0  0  0
 16 29  1  0  0  0  0
 16 30  1  0  0  0  0
 19 20  1  0  0  0  0
 19 31  1  0  0  0  0
 19 32  1  0  0  0  0
 20 21  1  0  0  0  0
 20 33  1  0  0  0  0
 20 34  1  0  0  0  0
 21 35  1  0  0  0  0
 21 36  1  0  0  0  0
M  END
>  <DRUGBANK_ID>
DB02292

>  <SECONDARY_ACCESSION_NUMBERS>
EXPT00273; DB12437

>  <COMMON_NAME>
Irosustat

>  <CAS_NUMBER>
288628-05-7

>  <UNII>
366037O6O7

>  <SYNONYMS>
6-Oxo-8,9,10,11-Tetrahydro-7h-Cyclohepta[C][1]Benzopyran-3-O-Sulfamate; Irosustat

$$$$
