
 OpenBabel10282417072D

 43 44  0  0  0  0  0  0  0  0999 V2000
   -0.4798   -2.0323    0.0000 N   0  0  0  0  0  0  0  0  0  0  0  0
   -1.2668   -0.9488    0.0000 C   0  0  0  0  0  0  0  0  0  0  0  0
   -0.4798   -0.7008    0.0000 C   0  0  0  0  0  0  0  0  0  0  0  0
    0.0000   -1.3692    0.0000 C   0  0  0  0  0  0  0  0  0  0  0  0
   -1.2668   -1.7736    0.0000 C   0  0  0  0  0  0  0  0  0  0  0  0
   -1.9838   -0.5391    0.0000 C   0  0  0  0  0  0  0  0  0  0  0  0
   -0.2318    0.0862    0.0000 C   0  0  0  0  0  0  0  0  0  0  0  0
    0.8301    1.0511    0.0000 N   0  0  0  0  0  0  0  0  0  0  0  0
    0.5768    0.2641    0.0000 C   0  0  0  0  0  0  0  0  0  0  0  0
   -1.9838    0.2856    0.0000 O   0  0  0  0  0  0  0  0  0  0  0  0
   -2.6955   -1.7736    0.0000 C   0  0  0  0  0  0  0  0  0  0  0  0
   -1.9838   -2.1887    0.0000 C   0  0  0  0  0  0  0  0  0  0  0  0
   -2.6955   -0.9488    0.0000 C   0  0  0  0  0  0  0  0  0  0  0  0
    1.6334    1.2237    0.0000 C   0  0  0  0  0  0  0  0  0  0  0  0
    0.2749    1.6657    0.0000 C   0  0  0  0  0  0  0  0  0  0  0  0
    1.8921    2.0162    0.0000 C   0  0  0  0  0  0  0  0  0  0  0  0
   -0.5337    1.4879    0.0000 C   0  0  0  0  0  0  0  0  0  0  0  0
    2.6955    2.1887    0.0000 C   0  0  0  0  0  0  0  0  0  0  0  0
   -1.0836    2.1024    0.0000 C   0  0  0  0  0  0  0  0  0  0  0  0
   -0.1763   -2.9688    0.0000 H   0  0  0  0  0  0  0  0  0  0  0  0
    1.0320   -1.3711    0.0000 H   0  0  0  0  0  0  0  0  0  0  0  0
   -0.9541    0.8756    0.0000 H   0  0  0  0  0  0  0  0  0  0  0  0
    0.0911    1.1063    0.0000 H   0  0  0  0  0  0  0  0  0  0  0  0
    1.2967   -0.5275    0.0000 H   0  0  0  0  0  0  0  0  0  0  0  0
    1.6226    0.4906    0.0000 H   0  0  0  0  0  0  0  0  0  0  0  0
   -1.1723    0.7541    0.0000 H   0  0  0  0  0  0  0  0  0  0  0  0
   -3.5904   -2.2876    0.0000 H   0  0  0  0  0  0  0  0  0  0  0  0
   -1.9855   -3.2207    0.0000 H   0  0  0  0  0  0  0  0  0  0  0  0
   -3.5889   -0.4322    0.0000 H   0  0  0  0  0  0  0  0  0  0  0  0
    2.3497    0.4288    0.0000 H   0  0  0  0  0  0  0  0  0  0  0  0
    2.6801    1.4457    0.0000 H   0  0  0  0  0  0  0  0  0  0  0  0
    0.6012    2.6847    0.0000 H   0  0  0  0  0  0  0  0  0  0  0  0
   -0.4456    2.4568    0.0000 H   0  0  0  0  0  0  0  0  0  0  0  0
    1.1759    2.8111    0.0000 H   0  0  0  0  0  0  0  0  0  0  0  0
    2.2215    3.0342    0.0000 H   0  0  0  0  0  0  0  0  0  0  0  0
   -0.8623    0.4696    0.0000 H   0  0  0  0  0  0  0  0  0  0  0  0
   -1.5804    1.2660    0.0000 H   0  0  0  0  0  0  0  0  0  0  0  0
    3.4131    1.3950    0.0000 H   0  0  0  0  0  0  0  0  0  0  0  0
    3.0240    3.2070    0.0000 H   0  0  0  0  0  0  0  0  0  0  0  0
    3.7417    2.4133    0.0000 H   0  0  0  0  0  0  0  0  0  0  0  0
   -0.7498    3.1190    0.0000 H   0  0  0  0  0  0  0  0  0  0  0  0
   -2.1309    1.8831    0.0000 H   0  0  0  0  0  0  0  0  0  0  0  0
   -1.7971    2.8998    0.0000 H   0  0  0  0  0  0  0  0  0  0  0  0
  1  4  1  0  0  0  0
  1  5  1  0  0  0  0
  1 20  1  0  0  0  0
  2  5  2  0  0  0  0
  2  6  1  0  0  0  0
  2  3  1  0  0  0  0
  3  4  2  0  0  0  0
  3  7  1  0  0  0  0
  4 21  1  0  0  0  0
  5 12  1  0  0  0  0
  6 10  1  0  0  0  0
  6 13  2  0  0  0  0
  7  9  1  0  0  0  0
  7 22  1  0  0  0  0
  7 23  1  0  0  0  0
  8  9  1  0  0  0  0
  8 14  1  0  0  0  0
  8 15  1  0  0  0  0
  9 24  1  0  0  0  0
  9 25  1  0  0  0  0
 10 26  1  0  0  0  0
 11 12  2  0  0  0  0
 11 13  1  0  0  0  0
 11 27  1  0  0  0  0
 12 28  1  0  0  0  0
 13 29  1  0  0  0  0
 14 16  1  0  0  0  0
 14 30  1  0  0  0  0
 14 31  1  0  0  0  0
 15 17  1  0  0  0  0
 15 32  1  0  0  0  0
 15 33  1  0  0  0  0
 16 18  1  0  0  0  0
 16 34  1  0  0  0  0
 16 35  1  0  0  0  0
 17 19  1  0  0  0  0
 17 36  1  0  0  0  0
 17 37  1  0  0  0  0
 18 38  1  0  0  0  0
 18 39  1  0  0  0  0
 18 40  1  0  0  0  0
 19 41  1  0  0  0  0
 19 42  1  0  0  0  0
 19 43  1  0  0  0  0
M  END
>  <DRUGBANK_ID>
DB13990

>  <COMMON_NAME>
Dipropyl-4-hydroxytryptamine

>  <CAS_NUMBER>
63065-88-3

>  <UNII>
KS597YAU98

>  <SYNONYMS>
3-[2-(Dipropylamino)ethyl]-1H-indol-4-ol; 4-HO-DPT; 4-Hydroxy-N,N-dipropyltryptamine; 4-Hydroxydipropyltryptamine; Deprocin

$$$$
