IDI
 OpenBabel10282417072D

 21 22  0  0  0  0  0  0  0  0999 V2000
   -2.2367   -0.8158    0.0000 I   0  0  0  0  0  0  0  0  0  0  0  0
   -0.8077    0.8342    0.0000 C   0  0  0  0  0  0  0  0  0  0  0  0
   -1.5222    0.4217    0.0000 C   0  0  0  0  0  0  0  0  0  0  0  0
   -1.5222   -0.4033    0.0000 C   0  0  0  0  0  0  0  0  0  0  0  0
   -0.8077   -0.8158    0.0000 C   0  0  0  0  0  0  0  0  0  0  0  0
   -0.0933   -0.4033    0.0000 C   0  0  0  0  0  0  0  0  0  0  0  0
   -0.0933    0.4217    0.0000 C   0  0  0  0  0  0  0  0  0  0  0  0
    0.6212   -0.8158    0.0000 C   0  0  0  0  0  0  0  0  0  0  0  0
    1.3357    0.4217    0.0000 C   0  0  0  0  0  0  0  0  0  0  0  0
    0.6212    0.8342    0.0000 C   0  0  0  0  0  0  0  0  0  0  0  0
    1.3357   -0.4033    0.0000 N   0  0  0  0  0  0  0  0  0  0  0  0
   -0.8077    1.8662    0.0000 H   0  0  0  0  0  0  0  0  0  0  0  0
   -2.4159    0.9377    0.0000 H   0  0  0  0  0  0  0  0  0  0  0  0
   -0.8077   -1.8478    0.0000 H   0  0  0  0  0  0  0  0  0  0  0  0
    0.6212   -1.8858    0.0000 H   0  0  0  0  0  0  0  0  0  0  0  0
    1.5478   -1.3508    0.0000 H   0  0  0  0  0  0  0  0  0  0  0  0
    2.2623    0.9567    0.0000 H   0  0  0  0  0  0  0  0  0  0  0  0
    2.2623   -0.1133    0.0000 H   0  0  0  0  0  0  0  0  0  0  0  0
    0.6212    1.9042    0.0000 H   0  0  0  0  0  0  0  0  0  0  0  0
    1.5478    1.3692    0.0000 H   0  0  0  0  0  0  0  0  0  0  0  0
    2.2190   -0.9133    0.0000 H   0  0  0  0  0  0  0  0  0  0  0  0
  1  4  1  0  0  0  0
  2  3  2  0  0  0  0
  2  7  1  0  0  0  0
  2 12  1  0  0  0  0
  3  4  1  0  0  0  0
  3 13  1  0  0  0  0
  4  5  2  0  0  0  0
  5  6  1  0  0  0  0
  5 14  1  0  0  0  0
  6  7  2  0  0  0  0
  6  8  1  0  0  0  0
  7 10  1  0  0  0  0
  8 11  1  0  0  0  0
  8 15  1  0  0  0  0
  8 16  1  0  0  0  0
  9 10  1  0  0  0  0
  9 11  1  0  0  0  0
  9 17  1  0  0  0  0
  9 18  1  0  0  0  0
 10 19  1  0  0  0  0
 10 20  1  0  0  0  0
 11 21  1  0  0  0  0
M  END
>  <DRUGBANK_ID>
DB03824

>  <SECONDARY_ACCESSION_NUMBERS>
EXPT01840

>  <COMMON_NAME>
7-Iodo-1,2,3,4-Tetrahydro-Isoquinoline

>  <UNII>
AA4AFP7MFA

$$$$
