6OB
 OpenBabel10282417072D

 52 51  0  0  0  0  0  0  0  0999 V2000
   -0.3713   -0.5223    0.0000 C   0  0  1  0  0  0  0  0  0  0  0  0
   -5.3726   -1.7598    0.0000 C   0  0  0  0  0  0  0  0  0  0  0  0
   -4.6581   -2.1723    0.0000 C   0  0  0  0  0  0  0  0  0  0  0  0
   -3.9437   -1.7598    0.0000 C   0  0  0  0  0  0  0  0  0  0  0  0
   -3.2292   -2.1723    0.0000 C   0  0  0  0  0  0  0  0  0  0  0  0
   -2.5147   -1.7598    0.0000 C   0  0  0  0  0  0  0  0  0  0  0  0
   -1.8002   -2.1723    0.0000 C   0  0  0  0  0  0  0  0  0  0  0  0
   -1.0858   -1.7598    0.0000 C   0  0  0  0  0  0  0  0  0  0  0  0
   -1.0858   -0.9348    0.0000 C   0  0  0  0  0  0  0  0  0  0  0  0
   -0.3713    0.3027    0.0000 C   0  0  0  0  0  0  0  0  0  0  0  0
    0.3432    0.7152    0.0000 C   0  0  0  0  0  0  0  0  0  0  0  0
    0.3432    1.5402    0.0000 C   0  0  0  0  0  0  0  0  0  0  0  0
    1.0576    1.9527    0.0000 C   0  0  0  0  0  0  0  0  0  0  0  0
    1.0576    2.7777    0.0000 O   0  0  0  0  0  0  0  0  0  0  0  0
    1.7721    1.5402    0.0000 C   0  0  0  0  0  0  0  0  0  0  0  0
    2.4866    1.9527    0.0000 C   0  0  0  0  0  0  0  0  0  0  0  0
    3.2011    1.5402    0.0000 C   0  0  0  0  0  0  0  0  0  0  0  0
    3.9155    1.9527    0.0000 C   0  0  0  0  0  0  0  0  0  0  0  0
    4.6300    1.5402    0.0000 C   0  0  0  0  0  0  0  0  0  0  0  0
    5.3445    1.9527    0.0000 O   0  0  0  0  0  0  0  0  0  0  0  0
    4.6300    0.7152    0.0000 O   0  0  0  0  0  0  0  0  0  0  0  0
    0.3432   -0.9348    0.0000 O   0  0  0  0  0  0  0  0  0  0  0  0
   -0.8770   -0.2304    0.0000 H   0  0  0  0  0  0  0  0  0  0  0  0
   -5.3726   -0.6898    0.0000 H   0  0  0  0  0  0  0  0  0  0  0  0
   -6.2992   -2.2948    0.0000 H   0  0  0  0  0  0  0  0  0  0  0  0
   -6.2993   -1.2248    0.0000 H   0  0  0  0  0  0  0  0  0  0  0  0
   -4.6581   -3.2423    0.0000 H   0  0  0  0  0  0  0  0  0  0  0  0
   -3.7314   -2.7073    0.0000 H   0  0  0  0  0  0  0  0  0  0  0  0
   -3.9437   -0.6898    0.0000 H   0  0  0  0  0  0  0  0  0  0  0  0
   -3.0171   -1.2248    0.0000 H   0  0  0  0  0  0  0  0  0  0  0  0
   -3.2292   -3.2423    0.0000 H   0  0  0  0  0  0  0  0  0  0  0  0
   -2.3026   -2.7073    0.0000 H   0  0  0  0  0  0  0  0  0  0  0  0
   -2.5147   -0.6898    0.0000 H   0  0  0  0  0  0  0  0  0  0  0  0
   -1.5881   -1.2248    0.0000 H   0  0  0  0  0  0  0  0  0  0  0  0
   -1.8002   -3.2043    0.0000 H   0  0  0  0  0  0  0  0  0  0  0  0
   -0.1921   -2.2758    0.0000 H   0  0  0  0  0  0  0  0  0  0  0  0
   -2.0124   -0.3998    0.0000 H   0  0  0  0  0  0  0  0  0  0  0  0
   -2.0124   -1.4698    0.0000 H   0  0  0  0  0  0  0  0  0  0  0  0
   -1.2650    0.8187    0.0000 H   0  0  0  0  0  0  0  0  0  0  0  0
    1.2369    0.1992    0.0000 H   0  0  0  0  0  0  0  0  0  0  0  0
   -0.5835    2.0752    0.0000 H   0  0  0  0  0  0  0  0  0  0  0  0
    0.3432    2.6102    0.0000 H   0  0  0  0  0  0  0  0  0  0  0  0
    1.7721    0.4702    0.0000 H   0  0  0  0  0  0  0  0  0  0  0  0
    2.6987    1.0052    0.0000 H   0  0  0  0  0  0  0  0  0  0  0  0
    2.4866    3.0227    0.0000 H   0  0  0  0  0  0  0  0  0  0  0  0
    3.4132    2.4877    0.0000 H   0  0  0  0  0  0  0  0  0  0  0  0
    3.2011    0.4702    0.0000 H   0  0  0  0  0  0  0  0  0  0  0  0
    4.1278    1.0052    0.0000 H   0  0  0  0  0  0  0  0  0  0  0  0
    3.9155    3.0227    0.0000 H   0  0  0  0  0  0  0  0  0  0  0  0
    4.8421    2.4877    0.0000 H   0  0  0  0  0  0  0  0  0  0  0  0
    3.8185    0.2467    0.0000 H   0  0  0  0  0  0  0  0  0  0  0  0
    0.3432   -1.9048    0.0000 H   0  0  0  0  0  0  0  0  0  0  0  0
  1  9  1  0  0  0  0
  1 10  1  0  0  0  0
  1 23  1  6  0  0  0
  1 22  1  0  0  0  0
  2  3  1  0  0  0  0
  2 24  1  0  0  0  0
  2 25  1  0  0  0  0
  2 26  1  0  0  0  0
  3  4  1  0  0  0  0
  3 27  1  0  0  0  0
  3 28  1  0  0  0  0
  4  5  1  0  0  0  0
  4 29  1  0  0  0  0
  4 30  1  0  0  0  0
  5  6  1  0  0  0  0
  5 31  1  0  0  0  0
  5 32  1  0  0  0  0
  6  7  1  0  0  0  0
  6 33  1  0  0  0  0
  6 34  1  0  0  0  0
  7  8  2  0  0  0  0
  7 35  1  0  0  0  0
  8  9  1  0  0  0  0
  8 36  1  0  0  0  0
  9 37  1  0  0  0  0
  9 38  1  0  0  0  0
 10 11  2  0  0  0  0
 10 39  1  0  0  0  0
 11 12  1  0  0  0  0
 11 40  1  0  0  0  0
 12 13  1  0  0  0  0
 12 41  1  0  0  0  0
 12 42  1  0  0  0  0
 13 14  2  0  0  0  0
 13 15  1  0  0  0  0
 15 16  1  0  0  0  0
 15 43  1  0  0  0  0
 15 44  1  0  0  0  0
 16 17  1  0  0  0  0
 16 45  1  0  0  0  0
 16 46  1  0  0  0  0
 17 18  1  0  0  0  0
 17 47  1  0  0  0  0
 17 48  1  0  0  0  0
 18 19  1  0  0  0  0
 18 49  1  0  0  0  0
 18 50  1  0  0  0  0
 19 20  2  0  0  0  0
 19 21  1  0  0  0  0
 21 51  1  0  0  0  0
 22 52  1  0  0  0  0
M  END
>  <DRUGBANK_ID>
DB07208

>  <COMMON_NAME>
(8E,10S,12Z)-10-hydroxy-6-oxooctadeca-8,12-dienoic acid

$$$$
