
 OpenBabel10282417072D

146153  0  0  0  0  0  0  0  0999 V2000
    2.2839    1.7107    0.0000 C   0  0  0  0  0  0  0  0  0  0  0  0
    3.0872    1.5371    0.0000 C   0  0  1  0  0  0  0  0  0  0  0  0
    2.8358    2.3196    0.0000 C   0  0  0  0  0  0  0  0  0  0  0  0
    4.4790    1.2380    0.0000 C   0  0  1  0  0  0  0  0  0  0  0  0
    3.8654    1.7905    0.0000 C   0  0  2  0  0  0  0  0  0  0  0  0
    4.3121    0.4293    0.0000 C   0  0  0  0  0  0  0  0  0  0  0  0
    3.5254    0.1788    0.0000 C   0  0  1  0  0  0  0  0  0  0  0  0
    2.9111    0.7306    0.0000 C   0  0  1  0  0  0  0  0  0  0  0  0
    2.1303    0.4757    0.0000 C   0  0  1  0  0  0  0  0  0  0  0  0
    1.9577   -0.3309    0.0000 C   0  0  0  0  0  0  0  0  0  0  0  0
    3.3591   -0.6276    0.0000 C   0  0  2  0  0  0  0  0  0  0  0  0
    2.5731   -0.8781    0.0000 C   0  0  2  0  0  0  0  0  0  0  0  0
    3.7916   -1.9856    0.0000 C   0  0  0  0  0  0  0  0  0  0  0  0
    3.9698   -1.1787    0.0000 C   0  0  0  0  0  0  0  0  0  0  0  0
    3.0058   -2.2361    0.0000 C   0  0  0  0  0  0  0  0  0  0  0  0
    2.4027   -1.6791    0.0000 C   0  0  1  0  0  0  0  0  0  0  0  0
    1.6235   -1.9212    0.0000 C   0  0  0  0  0  0  0  0  0  0  0  0
    1.4404   -2.7207    0.0000 C   0  0  0  0  0  0  0  0  0  0  0  0
    2.8291   -3.0353    0.0000 C   0  0  1  0  0  0  0  0  0  0  0  0
    2.0446   -3.2748    0.0000 C   0  0  2  0  0  0  0  0  0  0  0  0
    1.8610   -4.0695    0.0000 C   0  0  0  0  0  0  0  0  0  0  0  0
    2.4586   -4.6304    0.0000 C   0  0  0  0  0  0  0  0  0  0  0  0
    3.2431   -4.3910    0.0000 C   0  0  2  0  0  0  0  0  0  0  0  0
    3.4300   -3.5904    0.0000 C   0  0  2  0  0  0  0  0  0  0  0  0
    4.1439   -0.3682    0.0000 C   0  0  0  0  0  0  0  0  0  0  0  0
    5.2637    1.4955    0.0000 O   0  0  0  0  0  0  0  0  0  0  0  0
    4.0358    2.5985    0.0000 O   0  0  0  0  0  0  0  0  0  0  0  0
    2.0287    2.4938    0.0000 O   0  0  0  0  0  0  0  0  0  0  0  0
    1.5168    1.0283    0.0000 O   0  0  0  0  0  0  0  0  0  0  0  0
    3.1924   -1.4250    0.0000 C   0  0  0  0  0  0  0  0  0  0  0  0
    1.7976   -1.1232    0.0000 C   0  0  0  0  0  0  0  0  0  0  0  0
    3.8463   -4.9549    0.0000 C   0  0  0  0  0  0  0  0  0  0  0  0
    4.2193   -3.3483    0.0000 C   0  0  0  0  0  0  0  0  0  0  0  0
    1.2651   -3.5279    0.0000 C   0  0  0  0  0  0  0  0  0  0  0  0
    0.6516   -2.9756    0.0000 O   0  0  0  0  0  0  0  0  0  0  0  0
    1.0934   -4.3359    0.0000 O   0  0  0  0  0  0  0  0  0  0  0  0
   -0.1339   -3.2307    0.0000 C   0  0  2  0  0  0  0  0  0  0  0  0
   -0.7454   -2.6743    0.0000 O   0  0  0  0  0  0  0  0  0  0  0  0
   -1.5279   -2.9266    0.0000 C   0  0  1  0  0  0  0  0  0  0  0  0
   -1.7040   -3.7337    0.0000 C   0  0  2  0  0  0  0  0  0  0  0  0
   -1.0909   -4.2885    0.0000 C   0  0  1  0  0  0  0  0  0  0  0  0
   -0.3018   -4.0360    0.0000 C   0  0  1  0  0  0  0  0  0  0  0  0
   -2.1394   -2.3718    0.0000 C   0  0  0  0  0  0  0  0  0  0  0  0
   -1.9647   -1.5648    0.0000 O   0  0  0  0  0  0  0  0  0  0  0  0
   -2.4901   -3.9859    0.0000 O   0  0  0  0  0  0  0  0  0  0  0  0
   -1.2654   -5.0955    0.0000 O   0  0  0  0  0  0  0  0  0  0  0  0
    0.3114   -4.5887    0.0000 O   0  0  0  0  0  0  0  0  0  0  0  0
   -2.5763   -1.0098    0.0000 C   0  0  2  0  0  0  0  0  0  0  0  0
   -2.3971   -0.2055    0.0000 O   0  0  0  0  0  0  0  0  0  0  0  0
   -3.0048    0.3484    0.0000 C   0  0  1  0  0  0  0  0  0  0  0  0
   -3.7926    0.1001    0.0000 C   0  0  2  0  0  0  0  0  0  0  0  0
   -3.9696   -0.7073    0.0000 C   0  0  1  0  0  0  0  0  0  0  0  0
   -3.3585   -1.2666    0.0000 C   0  0  1  0  0  0  0  0  0  0  0  0
   -2.8269    1.1548    0.0000 C   0  0  0  0  0  0  0  0  0  0  0  0
   -2.0396    1.4039    0.0000 O   0  0  0  0  0  0  0  0  0  0  0  0
   -3.5323   -2.0737    0.0000 O   0  0  0  0  0  0  0  0  0  0  0  0
   -4.7566   -0.9568    0.0000 O   0  0  0  0  0  0  0  0  0  0  0  0
   -4.4019    0.6574    0.0000 O   0  0  0  0  0  0  0  0  0  0  0  0
   -4.2243    1.4636    0.0000 C   0  0  2  0  0  0  0  0  0  0  0  0
   -3.4357    1.7102    0.0000 O   0  0  0  0  0  0  0  0  0  0  0  0
   -3.2567    2.5127    0.0000 C   0  0  2  0  0  0  0  0  0  0  0  0
   -3.8636    3.0733    0.0000 C   0  0  1  0  0  0  0  0  0  0  0  0
   -4.6524    2.8256    0.0000 C   0  0  2  0  0  0  0  0  0  0  0  0
   -4.8344    2.0174    0.0000 C   0  0  1  0  0  0  0  0  0  0  0  0
   -2.4687    2.7588    0.0000 C   0  0  0  0  0  0  0  0  0  0  0  0
   -3.6828    3.8788    0.0000 O   0  0  0  0  0  0  0  0  0  0  0  0
   -5.6217    1.7685    0.0000 O   0  0  0  0  0  0  0  0  0  0  0  0
   -3.6068    0.9147    0.0000 H   0  0  0  0  0  0  0  0  0  0  0  0
   -5.2598    3.3850    0.0000 O   0  0  0  0  0  0  0  0  0  0  0  0
    2.3033    1.2835    0.0000 H   0  0  0  0  0  0  0  0  0  0  0  0
    2.7493   -0.0720    0.0000 H   0  0  0  0  0  0  0  0  0  0  0  0
    2.2201   -2.4799    0.0000 H   0  0  0  0  0  0  0  0  0  0  0  0
    1.9567    2.7294    0.0000 H   0  0  0  0  0  0  0  0  0  0  0  0
    1.5652    0.9180    0.0000 H   0  0  0  0  0  0  0  0  0  0  0  0
    1.2380    1.9367    0.0000 H   0  0  0  0  0  0  0  0  0  0  0  0
    3.5543    3.1125    0.0000 H   0  0  0  0  0  0  0  0  0  0  0  0
    2.5084    3.3383    0.0000 H   0  0  0  0  0  0  0  0  0  0  0  0
    4.6999    2.2849    0.0000 H   0  0  0  0  0  0  0  0  0  0  0  0
    4.8828    2.1220    0.0000 H   0  0  0  0  0  0  0  0  0  0  0  0
    5.1073   -0.2867    0.0000 H   0  0  0  0  0  0  0  0  0  0  0  0
    4.0866   -0.6167    0.0000 H   0  0  0  0  0  0  0  0  0  0  0  0
    2.3521    1.5225    0.0000 H   0  0  0  0  0  0  0  0  0  0  0  0
    0.9409   -0.6640    0.0000 H   0  0  0  0  0  0  0  0  0  0  0  0
    1.7398   -1.3785    0.0000 H   0  0  0  0  0  0  0  0  0  0  0  0
    4.5539   -2.6813    0.0000 H   0  0  0  0  0  0  0  0  0  0  0  0
    4.9889   -0.8526    0.0000 H   0  0  0  0  0  0  0  0  0  0  0  0
    4.7605   -1.8996    0.0000 H   0  0  0  0  0  0  0  0  0  0  0  0
    0.8387   -1.1939    0.0000 H   0  0  0  0  0  0  0  0  0  0  0  0
    0.6010   -2.2365    0.0000 H   0  0  0  0  0  0  0  0  0  0  0  0
    0.4187   -3.0387    0.0000 H   0  0  0  0  0  0  0  0  0  0  0  0
    1.2067   -3.7649    0.0000 H   0  0  0  0  0  0  0  0  0  0  0  0
    0.8372   -4.3806    0.0000 H   0  0  0  0  0  0  0  0  0  0  0  0
    1.6177   -5.1115    0.0000 H   0  0  0  0  0  0  0  0  0  0  0  0
    2.2159   -5.6725    0.0000 H   0  0  0  0  0  0  0  0  0  0  0  0
    3.2403   -5.3611    0.0000 H   0  0  0  0  0  0  0  0  0  0  0  0
    3.0015   -5.4334    0.0000 H   0  0  0  0  0  0  0  0  0  0  0  0
    3.6678   -2.5472    0.0000 H   0  0  0  0  0  0  0  0  0  0  0  0
    3.9308   -1.4168    0.0000 H   0  0  0  0  0  0  0  0  0  0  0  0
    5.1585   -0.0285    0.0000 H   0  0  0  0  0  0  0  0  0  0  0  0
    4.9454   -1.0771    0.0000 H   0  0  0  0  0  0  0  0  0  0  0  0
    5.9864    0.8486    0.0000 H   0  0  0  0  0  0  0  0  0  0  0  0
    4.9578    2.8997    0.0000 H   0  0  0  0  0  0  0  0  0  0  0  0
    1.7318    3.4173    0.0000 H   0  0  0  0  0  0  0  0  0  0  0  0
    1.7186    1.9771    0.0000 H   0  0  0  0  0  0  0  0  0  0  0  0
    2.9800   -2.4737    0.0000 H   0  0  0  0  0  0  0  0  0  0  0  0
    4.2068   -1.0846    0.0000 H   0  0  0  0  0  0  0  0  0  0  0  0
    3.9944   -2.1333    0.0000 H   0  0  0  0  0  0  0  0  0  0  0  0
    2.0305   -0.0789    0.0000 H   0  0  0  0  0  0  0  0  0  0  0  0
    0.7767   -1.4436    0.0000 H   0  0  0  0  0  0  0  0  0  0  0  0
    1.0096   -0.3993    0.0000 H   0  0  0  0  0  0  0  0  0  0  0  0
    3.6043   -5.9972    0.0000 H   0  0  0  0  0  0  0  0  0  0  0  0
    4.8699   -4.6433    0.0000 H   0  0  0  0  0  0  0  0  0  0  0  0
    4.6279   -5.6856    0.0000 H   0  0  0  0  0  0  0  0  0  0  0  0
    5.0025   -4.0773    0.0000 H   0  0  0  0  0  0  0  0  0  0  0  0
    4.4590   -2.3055    0.0000 H   0  0  0  0  0  0  0  0  0  0  0  0
    5.2423   -3.0345    0.0000 H   0  0  0  0  0  0  0  0  0  0  0  0
    0.0914   -2.1847    0.0000 H   0  0  0  0  0  0  0  0  0  0  0  0
   -1.3023   -1.8807    0.0000 H   0  0  0  0  0  0  0  0  0  0  0  0
   -2.4959   -3.0141    0.0000 H   0  0  0  0  0  0  0  0  0  0  0  0
   -2.1095   -4.6161    0.0000 H   0  0  0  0  0  0  0  0  0  0  0  0
    0.7153   -3.7036    0.0000 H   0  0  0  0  0  0  0  0  0  0  0  0
   -3.1583   -2.6986    0.0000 H   0  0  0  0  0  0  0  0  0  0  0  0
   -2.9319   -1.6528    0.0000 H   0  0  0  0  0  0  0  0  0  0  0  0
   -3.2085   -3.3342    0.0000 H   0  0  0  0  0  0  0  0  0  0  0  0
   -2.1890   -5.3920    0.0000 H   0  0  0  0  0  0  0  0  0  0  0  0
    0.1092   -5.5374    0.0000 H   0  0  0  0  0  0  0  0  0  0  0  0
   -1.5564   -0.6861    0.0000 H   0  0  0  0  0  0  0  0  0  0  0  0
   -1.9849    0.6720    0.0000 H   0  0  0  0  0  0  0  0  0  0  0  0
   -3.5614    1.1448    0.0000 H   0  0  0  0  0  0  0  0  0  0  0  0
   -4.7599    0.0140    0.0000 H   0  0  0  0  0  0  0  0  0  0  0  0
   -2.5632   -1.9824    0.0000 H   0  0  0  0  0  0  0  0  0  0  0  0
   -3.6165    1.8769    0.0000 H   0  0  0  0  0  0  0  0  0  0  0  0
   -2.5964    2.1997    0.0000 H   0  0  0  0  0  0  0  0  0  0  0  0
   -1.3238    0.7493    0.0000 H   0  0  0  0  0  0  0  0  0  0  0  0
   -4.4556   -2.3710    0.0000 H   0  0  0  0  0  0  0  0  0  0  0  0
   -5.4728   -0.3026    0.0000 H   0  0  0  0  0  0  0  0  0  0  0  0
   -2.4693    1.7882    0.0000 H   0  0  0  0  0  0  0  0  0  0  0  0
   -2.8421    3.3917    0.0000 H   0  0  0  0  0  0  0  0  0  0  0  0
   -4.4189    3.8698    0.0000 H   0  0  0  0  0  0  0  0  0  0  0  0
   -5.0631    0.9721    0.0000 H   0  0  0  0  0  0  0  0  0  0  0  0
   -1.6818    2.0338    0.0000 H   0  0  0  0  0  0  0  0  0  0  0  0
   -2.2343    3.8028    0.0000 H   0  0  0  0  0  0  0  0  0  0  0  0
   -1.4474    3.0778    0.0000 H   0  0  0  0  0  0  0  0  0  0  0  0
   -2.7569    4.1680    0.0000 H   0  0  0  0  0  0  0  0  0  0  0  0
   -6.3374    2.4233    0.0000 H   0  0  0  0  0  0  0  0  0  0  0  0
   -5.0475    4.3315    0.0000 H   0  0  0  0  0  0  0  0  0  0  0  0
  1 73  1  0  0  0  0
  1 74  1  0  0  0  0
  1 75  1  0  0  0  0
  2  1  1  1  0  0  0
  2  3  1  0  0  0  0
  2  8  1  0  0  0  0
  3 28  1  0  0  0  0
  3 76  1  0  0  0  0
  3 77  1  0  0  0  0
  4  5  1  0  0  0  0
  4  6  1  0  0  0  0
  4 26  1  0  0  0  0
  4 78  1  1  0  0  0
  5  2  1  0  0  0  0
  5 27  1  0  0  0  0
  5 79  1  6  0  0  0
  6 80  1  0  0  0  0
  6 81  1  0  0  0  0
  7 11  1  0  0  0  0
  7 25  1  1  0  0  0
  7  6  1  0  0  0  0
  7  8  1  0  0  0  0
  8  9  1  0  0  0  0
  8 70  1  6  0  0  0
  9 10  1  0  0  0  0
  9 29  1  0  0  0  0
  9 82  1  6  0  0  0
 10 12  1  0  0  0  0
 10 83  1  0  0  0  0
 10 84  1  0  0  0  0
 11 12  1  0  0  0  0
 11 14  1  0  0  0  0
 11 71  1  6  0  0  0
 12 16  1  0  0  0  0
 12 30  1  1  0  0  0
 13 14  1  0  0  0  0
 13 85  1  0  0  0  0
 14 86  1  0  0  0  0
 14 87  1  0  0  0  0
 15 19  1  0  0  0  0
 15 13  2  0  0  0  0
 15 16  1  0  0  0  0
 16 17  1  0  0  0  0
 16 31  1  6  0  0  0
 17 18  1  0  0  0  0
 17 88  1  0  0  0  0
 17 89  1  0  0  0  0
 18 20  1  0  0  0  0
 18 90  1  0  0  0  0
 18 91  1  0  0  0  0
 19 20  1  0  0  0  0
 19 24  1  0  0  0  0
 19 72  1  1  0  0  0
 20 34  1  1  0  0  0
 20 21  1  0  0  0  0
 21 22  1  0  0  0  0
 21 92  1  0  0  0  0
 21 93  1  0  0  0  0
 22 23  1  0  0  0  0
 22 94  1  0  0  0  0
 22 95  1  0  0  0  0
 23 24  1  0  0  0  0
 23 32  1  0  0  0  0
 23 96  1  1  0  0  0
 24 33  1  0  0  0  0
 24 97  1  6  0  0  0
 25 98  1  0  0  0  0
 25 99  1  0  0  0  0
 25100  1  0  0  0  0
 26101  1  0  0  0  0
 27102  1  0  0  0  0
 28103  1  0  0  0  0
 29104  1  0  0  0  0
 30105  1  0  0  0  0
 30106  1  0  0  0  0
 30107  1  0  0  0  0
 31108  1  0  0  0  0
 31109  1  0  0  0  0
 31110  1  0  0  0  0
 32111  1  0  0  0  0
 32112  1  0  0  0  0
 32113  1  0  0  0  0
 33114  1  0  0  0  0
 33115  1  0  0  0  0
 33116  1  0  0  0  0
 34 35  1  0  0  0  0
 34 36  2  0  0  0  0
 37 35  1  0  0  0  0
 37 38  1  0  0  0  0
 37 42  1  0  0  0  0
 37117  1  6  0  0  0
 38 39  1  0  0  0  0
 39 40  1  0  0  0  0
 39 43  1  0  0  0  0
 39118  1  6  0  0  0
 40 41  1  0  0  0  0
 40 45  1  0  0  0  0
 40119  1  1  0  0  0
 41 42  1  0  0  0  0
 41 46  1  0  0  0  0
 41120  1  6  0  0  0
 42 47  1  0  0  0  0
 42121  1  1  0  0  0
 43 44  1  0  0  0  0
 43122  1  0  0  0  0
 43123  1  0  0  0  0
 45124  1  0  0  0  0
 46125  1  0  0  0  0
 47126  1  0  0  0  0
 48 44  1  0  0  0  0
 48 49  1  0  0  0  0
 48 53  1  0  0  0  0
 48127  1  6  0  0  0
 49 50  1  0  0  0  0
 50 51  1  0  0  0  0
 50 54  1  0  0  0  0
 50128  1  6  0  0  0
 51 52  1  0  0  0  0
 51 58  1  0  0  0  0
 51129  1  1  0  0  0
 52 53  1  0  0  0  0
 52 57  1  0  0  0  0
 52130  1  6  0  0  0
 53 56  1  0  0  0  0
 53131  1  1  0  0  0
 54 55  1  0  0  0  0
 54132  1  0  0  0  0
 54133  1  0  0  0  0
 55134  1  0  0  0  0
 56135  1  0  0  0  0
 57136  1  0  0  0  0
 59 58  1  0  0  0  0
 59 60  1  0  0  0  0
 59 64  1  0  0  0  0
 59 68  1  6  0  0  0
 60 61  1  0  0  0  0
 61 62  1  0  0  0  0
 61 65  1  0  0  0  0
 61137  1  1  0  0  0
 62 63  1  0  0  0  0
 62 66  1  0  0  0  0
 62138  1  6  0  0  0
 63 64  1  0  0  0  0
 63 69  1  0  0  0  0
 63139  1  1  0  0  0
 64 67  1  0  0  0  0
 64140  1  1  0  0  0
 65141  1  0  0  0  0
 65142  1  0  0  0  0
 65143  1  0  0  0  0
 66144  1  0  0  0  0
 67145  1  0  0  0  0
 69146  1  0  0  0  0
M  END
>  <DRUGBANK_ID>
DB15532

>  <COMMON_NAME>
Madecassoside

>  <CAS_NUMBER>
34540-22-2

>  <UNII>
CQ2F5O6YIY

>  <SYNONYMS>
Asiaticoside A; Redermic

$$$$
