
 OpenBabel10282417072D

 46 49  0  0  0  0  0  0  0  0999 V2000
    2.8483   -0.3019    0.0000 C   0  0  0  0  0  0  0  0  0  0  0  0
    2.8483   -1.1269    0.0000 C   0  0  0  0  0  0  0  0  0  0  0  0
    2.1338   -1.5394    0.0000 C   0  0  0  0  0  0  0  0  0  0  0  0
    1.4193   -1.1269    0.0000 C   0  0  0  0  0  0  0  0  0  0  0  0
    1.4193   -0.3019    0.0000 C   0  0  0  0  0  0  0  0  0  0  0  0
    2.1338    0.1105    0.0000 N   0  0  0  0  0  0  0  0  0  0  0  0
    3.5627    0.1105    0.0000 N   0  0  0  0  0  0  0  0  0  0  0  0
    0.6347   -1.3819    0.0000 N   0  0  0  0  0  0  0  0  0  0  0  0
    0.6347   -0.0470    0.0000 C   0  0  0  0  0  0  0  0  0  0  0  0
    0.1498   -0.7144    0.0000 C   0  0  0  0  0  0  0  0  0  0  0  0
   -0.6751   -0.7144    0.0000 C   0  0  0  0  0  0  0  0  0  0  0  0
   -1.0876   -1.4289    0.0000 C   0  0  0  0  0  0  0  0  0  0  0  0
   -1.9126   -1.4289    0.0000 C   0  0  0  0  0  0  0  0  0  0  0  0
   -2.3251   -2.1434    0.0000 C   0  0  0  0  0  0  0  0  0  0  0  0
   -1.9126   -2.8578    0.0000 C   0  0  0  0  0  0  0  0  0  0  0  0
   -1.0876   -2.8578    0.0000 O   0  0  0  0  0  0  0  0  0  0  0  0
   -2.3251   -3.5723    0.0000 O   0  0  0  0  0  0  0  0  0  0  0  0
   -2.3251   -0.7144    0.0000 C   0  0  0  0  0  0  0  0  0  0  0  0
   -1.9126    0.0000    0.0000 C   0  0  0  0  0  0  0  0  0  0  0  0
   -1.0876    0.0000    0.0000 C   0  0  0  0  0  0  0  0  0  0  0  0
   -0.6751    0.7144    0.0000 O   0  0  0  0  0  0  0  0  0  0  0  0
   -2.3251    0.7144    0.0000 C   0  0  0  0  0  0  0  0  0  0  0  0
   -3.1501    0.7144    0.0000 C   0  0  0  0  0  0  0  0  0  0  0  0
   -3.5626    1.4289    0.0000 C   0  0  0  0  0  0  0  0  0  0  0  0
   -3.1501    2.1434    0.0000 C   0  0  0  0  0  0  0  0  0  0  0  0
   -2.3251    2.1434    0.0000 C   0  0  0  0  0  0  0  0  0  0  0  0
   -1.9126    2.8578    0.0000 N   0  3  0  0  0  0  0  0  0  0  0  0
   -2.3251    3.5723    0.0000 O   0  5  0  0  0  0  0  0  0  0  0  0
   -1.0876    2.8578    0.0000 O   0  0  0  0  0  0  0  0  0  0  0  0
   -1.9126    1.4289    0.0000 C   0  0  0  0  0  0  0  0  0  0  0  0
    3.7420   -1.6429    0.0000 H   0  0  0  0  0  0  0  0  0  0  0  0
    2.1338   -2.5714    0.0000 H   0  0  0  0  0  0  0  0  0  0  0  0
    4.4153   -0.3818    0.0000 H   0  0  0  0  0  0  0  0  0  0  0  0
    3.5628    1.0950    0.0000 H   0  0  0  0  0  0  0  0  0  0  0  0
    0.3305   -2.3182    0.0000 H   0  0  0  0  0  0  0  0  0  0  0  0
    0.3158    0.9345    0.0000 H   0  0  0  0  0  0  0  0  0  0  0  0
   -0.5716   -2.3226    0.0000 H   0  0  0  0  0  0  0  0  0  0  0  0
   -3.3951   -2.1434    0.0000 H   0  0  0  0  0  0  0  0  0  0  0  0
   -2.8601   -3.0701    0.0000 H   0  0  0  0  0  0  0  0  0  0  0  0
   -0.6191   -3.6693    0.0000 H   0  0  0  0  0  0  0  0  0  0  0  0
   -3.3571   -0.7144    0.0000 H   0  0  0  0  0  0  0  0  0  0  0  0
    0.2619    0.7144    0.0000 H   0  0  0  0  0  0  0  0  0  0  0  0
   -3.6661   -0.1793    0.0000 H   0  0  0  0  0  0  0  0  0  0  0  0
   -4.5946    1.4289    0.0000 H   0  0  0  0  0  0  0  0  0  0  0  0
   -3.6661    3.0371    0.0000 H   0  0  0  0  0  0  0  0  0  0  0  0
   -0.8806    1.4289    0.0000 H   0  0  0  0  0  0  0  0  0  0  0  0
  1  2  2  0  0  0  0
  1  6  1  0  0  0  0
  1  7  1  0  0  0  0
  2  3  1  0  0  0  0
  2 31  1  0  0  0  0
  3  4  2  0  0  0  0
  3 32  1  0  0  0  0
  4  5  1  0  0  0  0
  4  8  1  0  0  0  0
  5  6  2  0  0  0  0
  5  9  1  0  0  0  0
  7 33  1  0  0  0  0
  7 34  1  0  0  0  0
  8 35  1  0  0  0  0
  9 36  1  0  0  0  0
 10  8  1  0  0  0  0
 10  9  2  0  0  0  0
 11 10  1  0  0  0  0
 11 12  2  0  0  0  0
 11 20  1  0  0  0  0
 12 13  1  0  0  0  0
 12 37  1  0  0  0  0
 13 14  1  0  0  0  0
 13 18  2  0  0  0  0
 14 15  1  0  0  0  0
 14 38  1  0  0  0  0
 14 39  1  0  0  0  0
 15 16  1  0  0  0  0
 15 17  2  0  0  0  0
 16 40  1  0  0  0  0
 18 19  1  0  0  0  0
 18 41  1  0  0  0  0
 19 20  2  0  0  0  0
 20 21  1  0  0  0  0
 21 42  1  0  0  0  0
 22 19  1  0  0  0  0
 22 23  2  0  0  0  0
 22 30  1  0  0  0  0
 23 24  1  0  0  0  0
 23 43  1  0  0  0  0
 24 25  2  0  0  0  0
 24 44  1  0  0  0  0
 25 26  1  0  0  0  0
 25 45  1  0  0  0  0
 26 27  1  0  0  0  0
 26 30  2  0  0  0  0
 27 28  1  0  0  0  0
 27 29  2  0  0  0  0
 30 46  1  0  0  0  0
M  CHG  2  27   1  28  -1
M  END
>  <DRUGBANK_ID>
DB08232

>  <COMMON_NAME>
[5-(5-Amino-1H-pyrrolo[3,2-b]pyridin-2-yl)-6-hydroxy-3'-nitro-3-biphenylyl]acetic acid

$$$$
