8IN
 OpenBabel10282417072D

 54 56  0  0  0  0  0  0  0  0999 V2000
    1.1934   -0.3812    0.0000 C   0  0  0  0  0  0  0  0  0  0  0  0
    0.4789   -0.7937    0.0000 C   0  0  0  0  0  0  0  0  0  0  0  0
   -0.2356   -0.3812    0.0000 C   0  0  0  0  0  0  0  0  0  0  0  0
   -0.2356    0.4438    0.0000 C   0  0  0  0  0  0  0  0  0  0  0  0
    0.4789    0.8563    0.0000 C   0  0  0  0  0  0  0  0  0  0  0  0
    1.1934    0.4438    0.0000 C   0  0  0  0  0  0  0  0  0  0  0  0
   -1.0202   -0.6361    0.0000 N   0  0  0  0  0  0  0  0  0  0  0  0
   -1.5051    0.0313    0.0000 C   0  0  0  0  0  0  0  0  0  0  0  0
   -1.0202    0.6987    0.0000 C   0  0  0  0  0  0  0  0  0  0  0  0
   -1.2751    1.4834    0.0000 C   0  0  0  0  0  0  0  0  0  0  0  0
   -2.0821    1.6549    0.0000 C   0  0  0  0  0  0  0  0  0  0  0  0
   -2.6341    1.0418    0.0000 O   0  0  0  0  0  0  0  0  0  0  0  0
   -2.3370    2.4395    0.0000 N   0  0  0  0  0  0  0  0  0  0  0  0
   -2.3301    0.0313    0.0000 C   0  0  0  0  0  0  0  0  0  0  0  0
   -1.2751   -1.4208    0.0000 C   0  0  0  0  0  0  0  0  0  0  0  0
   -2.0821   -1.5923    0.0000 C   0  0  0  0  0  0  0  0  0  0  0  0
   -2.3370   -2.3769    0.0000 C   0  0  0  0  0  0  0  0  0  0  0  0
   -3.1440   -2.5484    0.0000 C   0  0  0  0  0  0  0  0  0  0  0  0
   -3.6960   -1.9353    0.0000 C   0  0  0  0  0  0  0  0  0  0  0  0
   -3.4411   -1.1507    0.0000 C   0  0  0  0  0  0  0  0  0  0  0  0
   -2.6341   -0.9792    0.0000 C   0  0  0  0  0  0  0  0  0  0  0  0
    1.9079    0.8563    0.0000 O   0  0  0  0  0  0  0  0  0  0  0  0
    2.6223    0.4438    0.0000 C   0  0  0  0  0  0  0  0  0  0  0  0
    3.3368    0.8563    0.0000 C   0  0  0  0  0  0  0  0  0  0  0  0
    4.0513    0.4438    0.0000 C   0  0  0  0  0  0  0  0  0  0  0  0
    4.7657    0.8563    0.0000 P   0  0  0  0  0  0  0  0  0  0  0  0
    5.4802    1.2688    0.0000 O   0  0  0  0  0  0  0  0  0  0  0  0
    5.1782    0.1418    0.0000 O   0  0  0  0  0  0  0  0  0  0  0  0
    4.3532    1.5708    0.0000 O   0  0  0  0  0  0  0  0  0  0  0  0
    2.0871   -0.8972    0.0000 H   0  0  0  0  0  0  0  0  0  0  0  0
    0.4789   -1.8257    0.0000 H   0  0  0  0  0  0  0  0  0  0  0  0
    0.4789    1.8883    0.0000 H   0  0  0  0  0  0  0  0  0  0  0  0
   -0.5591    2.2786    0.0000 H   0  0  0  0  0  0  0  0  0  0  0  0
   -1.6058    2.5010    0.0000 H   0  0  0  0  0  0  0  0  0  0  0  0
   -1.6782    3.1711    0.0000 H   0  0  0  0  0  0  0  0  0  0  0  0
   -3.3000    2.6442    0.0000 H   0  0  0  0  0  0  0  0  0  0  0  0
   -2.8651    0.9579    0.0000 H   0  0  0  0  0  0  0  0  0  0  0  0
   -2.8651   -0.8953    0.0000 H   0  0  0  0  0  0  0  0  0  0  0  0
   -3.4001    0.0313    0.0000 H   0  0  0  0  0  0  0  0  0  0  0  0
   -0.5591   -2.2160    0.0000 H   0  0  0  0  0  0  0  0  0  0  0  0
   -1.6058   -2.4384    0.0000 H   0  0  0  0  0  0  0  0  0  0  0  0
   -1.6465   -3.1438    0.0000 H   0  0  0  0  0  0  0  0  0  0  0  0
   -3.4629   -3.5299    0.0000 H   0  0  0  0  0  0  0  0  0  0  0  0
   -4.7054   -2.1499    0.0000 H   0  0  0  0  0  0  0  0  0  0  0  0
   -4.1316   -0.3838    0.0000 H   0  0  0  0  0  0  0  0  0  0  0  0
   -2.3152    0.0023    0.0000 H   0  0  0  0  0  0  0  0  0  0  0  0
    2.6223   -0.6262    0.0000 H   0  0  0  0  0  0  0  0  0  0  0  0
    3.5489   -0.0912    0.0000 H   0  0  0  0  0  0  0  0  0  0  0  0
    3.3368    1.9263    0.0000 H   0  0  0  0  0  0  0  0  0  0  0  0
    4.2634    1.3913    0.0000 H   0  0  0  0  0  0  0  0  0  0  0  0
    4.0513   -0.6262    0.0000 H   0  0  0  0  0  0  0  0  0  0  0  0
    4.9780   -0.0912    0.0000 H   0  0  0  0  0  0  0  0  0  0  0  0
    4.6932   -0.6982    0.0000 H   0  0  0  0  0  0  0  0  0  0  0  0
    4.8382    2.4108    0.0000 H   0  0  0  0  0  0  0  0  0  0  0  0
  1  2  2  0  0  0  0
  1  6  1  0  0  0  0
  1 30  1  0  0  0  0
  2  3  1  0  0  0  0
  2 31  1  0  0  0  0
  3  4  2  0  0  0  0
  3  7  1  0  0  0  0
  4  5  1  0  0  0  0
  4  9  1  0  0  0  0
  5  6  2  0  0  0  0
  5 32  1  0  0  0  0
  6 22  1  0  0  0  0
  7  8  1  0  0  0  0
  7 15  1  0  0  0  0
  8  9  2  0  0  0  0
  8 14  1  0  0  0  0
  9 10  1  0  0  0  0
 10 11  1  0  0  0  0
 10 33  1  0  0  0  0
 10 34  1  0  0  0  0
 11 12  2  0  0  0  0
 11 13  1  0  0  0  0
 13 35  1  0  0  0  0
 13 36  1  0  0  0  0
 14 37  1  0  0  0  0
 14 38  1  0  0  0  0
 14 39  1  0  0  0  0
 15 16  1  0  0  0  0
 15 40  1  0  0  0  0
 15 41  1  0  0  0  0
 16 17  2  0  0  0  0
 16 21  1  0  0  0  0
 17 18  1  0  0  0  0
 17 42  1  0  0  0  0
 18 19  2  0  0  0  0
 18 43  1  0  0  0  0
 19 20  1  0  0  0  0
 19 44  1  0  0  0  0
 20 21  2  0  0  0  0
 20 45  1  0  0  0  0
 21 46  1  0  0  0  0
 22 23  1  0  0  0  0
 23 24  1  0  0  0  0
 23 47  1  0  0  0  0
 23 48  1  0  0  0  0
 24 25  1  0  0  0  0
 24 49  1  0  0  0  0
 24 50  1  0  0  0  0
 25 26  1  0  0  0  0
 25 51  1  0  0  0  0
 25 52  1  0  0  0  0
 26 27  2  0  0  0  0
 26 28  1  0  0  0  0
 26 29  1  0  0  0  0
 28 53  1  0  0  0  0
 29 54  1  0  0  0  0
M  END
>  <DRUGBANK_ID>
DB02504

>  <SECONDARY_ACCESSION_NUMBERS>
EXPT00335

>  <COMMON_NAME>
[3-(1-Benzyl-3-Carbamoylmethyl-2-Methyl-1h-Indol-5-Yloxy)-Propyl-]-Phosphonic Acid

$$$$
