
 OpenBabel10282417072D

 65 69  0  0  0  0  0  0  0  0999 V2000
   -2.5846    2.1433    0.0000 N   0  0  0  0  0  0  0  0  0  0  0  0
   -1.7596    2.1433    0.0000 C   0  0  0  0  0  0  0  0  0  0  0  0
   -2.9971    1.4289    0.0000 C   0  0  0  0  0  0  0  0  0  0  0  0
   -2.5846    0.7144    0.0000 C   0  0  0  0  0  0  0  0  0  0  0  0
   -3.8221    1.4289    0.0000 C   0  0  0  0  0  0  0  0  0  0  0  0
   -2.9971    0.0000    0.0000 N   0  0  0  0  0  0  0  0  0  0  0  0
   -1.7596    0.7144    0.0000 C   0  0  0  0  0  0  0  0  0  0  0  0
   -1.3471    1.4289    0.0000 C   0  0  0  0  0  0  0  0  0  0  0  0
   -2.5846   -0.7145    0.0000 C   0  0  0  0  0  0  0  0  0  0  0  0
   -1.7596   -0.7145    0.0000 C   0  0  0  0  0  0  0  0  0  0  0  0
   -1.3471    0.0000    0.0000 C   0  0  0  0  0  0  0  0  0  0  0  0
   -0.5221    0.0000    0.0000 C   0  0  0  0  0  0  0  0  0  0  0  0
   -0.1096   -0.7145    0.0000 C   0  0  0  0  0  0  0  0  0  0  0  0
    0.7153   -0.7145    0.0000 C   0  0  2  0  0  0  0  0  0  0  0  0
    0.3028    0.0000    0.0000 C   0  0  0  0  0  0  0  0  0  0  0  0
    0.7153    0.7144    0.0000 C   0  0  0  0  0  0  0  0  0  0  0  0
    1.5403    0.7144    0.0000 C   0  0  0  0  0  0  0  0  0  0  0  0
    1.9528    1.4289    0.0000 C   0  0  0  0  0  0  0  0  0  0  0  0
    1.5403    2.1433    0.0000 C   0  0  0  0  0  0  0  0  0  0  0  0
    0.7153    2.1433    0.0000 C   0  0  0  0  0  0  0  0  0  0  0  0
    0.3028    1.4289    0.0000 C   0  0  0  0  0  0  0  0  0  0  0  0
    1.1278    0.0000    0.0000 C   0  0  0  0  0  0  0  0  0  0  0  0
    1.9528    0.0000    0.0000 C   0  0  0  0  0  0  0  0  0  0  0  0
    2.3653   -0.7145    0.0000 C   0  0  1  0  0  0  0  0  0  0  0  0
    1.9528   -1.4289    0.0000 C   0  0  0  0  0  0  0  0  0  0  0  0
    1.1278   -1.4289    0.0000 C   0  0  1  0  0  0  0  0  0  0  0  0
    0.7153   -2.1433    0.0000 C   0  0  0  0  0  0  0  0  0  0  0  0
   -0.1096   -2.1433    0.0000 C   0  0  0  0  0  0  0  0  0  0  0  0
   -0.5221   -1.4289    0.0000 C   0  0  0  0  0  0  0  0  0  0  0  0
   -1.3471   -1.4289    0.0000 C   0  0  0  0  0  0  0  0  0  0  0  0
   -2.9971   -1.4289    0.0000 O   0  0  0  0  0  0  0  0  0  0  0  0
    1.5403   -2.1433    0.0000 H   0  0  0  0  0  0  0  0  0  0  0  0
    3.0937   -1.1018    0.0000 C   0  0  0  0  0  0  0  0  0  0  0  0
    2.9464    0.0264    0.0000 O   0  0  0  0  0  0  0  0  0  0  0  0
    3.8221   -1.4891    0.0000 F   0  0  0  0  0  0  0  0  0  0  0  0
    3.5105   -0.4617    0.0000 F   0  0  0  0  0  0  0  0  0  0  0  0
    2.7064   -1.8302    0.0000 F   0  0  0  0  0  0  0  0  0  0  0  0
   -1.2436    3.0370    0.0000 H   0  0  0  0  0  0  0  0  0  0  0  0
   -4.3571    2.3555    0.0000 H   0  0  0  0  0  0  0  0  0  0  0  0
   -4.3571    0.5023    0.0000 H   0  0  0  0  0  0  0  0  0  0  0  0
   -4.8921    1.4289    0.0000 H   0  0  0  0  0  0  0  0  0  0  0  0
   -3.9816    0.0000    0.0000 H   0  0  0  0  0  0  0  0  0  0  0  0
   -1.2436   -0.1793    0.0000 H   0  0  0  0  0  0  0  0  0  0  0  0
   -0.3151    1.4289    0.0000 H   0  0  0  0  0  0  0  0  0  0  0  0
   -1.8631    0.8937    0.0000 H   0  0  0  0  0  0  0  0  0  0  0  0
   -0.0061    0.8937    0.0000 H   0  0  0  0  0  0  0  0  0  0  0  0
   -0.7672    0.0000    0.0000 H   0  0  0  0  0  0  0  0  0  0  0  0
   -0.2322   -0.9266    0.0000 H   0  0  0  0  0  0  0  0  0  0  0  0
    2.0563   -0.1793    0.0000 H   0  0  0  0  0  0  0  0  0  0  0  0
    2.9848    1.4289    0.0000 H   0  0  0  0  0  0  0  0  0  0  0  0
    2.0563    3.0370    0.0000 H   0  0  0  0  0  0  0  0  0  0  0  0
    0.1993    3.0370    0.0000 H   0  0  0  0  0  0  0  0  0  0  0  0
   -0.7292    1.4289    0.0000 H   0  0  0  0  0  0  0  0  0  0  0  0
    0.5928    0.9266    0.0000 H   0  0  0  0  0  0  0  0  0  0  0  0
    1.6628    0.9266    0.0000 H   0  0  0  0  0  0  0  0  0  0  0  0
    2.4878    0.9266    0.0000 H   0  0  0  0  0  0  0  0  0  0  0  0
    3.0228   -0.0000    0.0000 H   0  0  0  0  0  0  0  0  0  0  0  0
    2.4878   -2.3556    0.0000 H   0  0  0  0  0  0  0  0  0  0  0  0
    1.4178   -2.3555    0.0000 H   0  0  0  0  0  0  0  0  0  0  0  0
    1.2503   -3.0700    0.0000 H   0  0  0  0  0  0  0  0  0  0  0  0
    0.1803   -3.0699    0.0000 H   0  0  0  0  0  0  0  0  0  0  0  0
   -0.6446   -3.0700    0.0000 H   0  0  0  0  0  0  0  0  0  0  0  0
   -1.1796   -2.1433    0.0000 H   0  0  0  0  0  0  0  0  0  0  0  0
   -1.8631   -2.3226    0.0000 H   0  0  0  0  0  0  0  0  0  0  0  0
    3.9067   -0.1104    0.0000 H   0  0  0  0  0  0  0  0  0  0  0  0
  1  2  2  0  0  0  0
  1  3  1  0  0  0  0
  2  8  1  0  0  0  0
  2 38  1  0  0  0  0
  3  4  2  0  0  0  0
  4  6  1  0  0  0  0
  5  3  1  0  0  0  0
  5 39  1  0  0  0  0
  5 40  1  0  0  0  0
  5 41  1  0  0  0  0
  6 42  1  0  0  0  0
  7  4  1  0  0  0  0
  7 43  1  0  0  0  0
  8  7  2  0  0  0  0
  8 44  1  0  0  0  0
  9  6  1  0  0  0  0
  9 10  1  0  0  0  0
 10 30  2  0  0  0  0
 11 10  1  0  0  0  0
 11 12  2  0  0  0  0
 11 45  1  0  0  0  0
 12 13  1  0  0  0  0
 12 46  1  0  0  0  0
 13 29  2  0  0  0  0
 14 22  1  0  0  0  0
 14 13  1  0  0  0  0
 14 15  1  1  0  0  0
 15 47  1  0  0  0  0
 15 48  1  0  0  0  0
 16 15  1  0  0  0  0
 17 16  2  0  0  0  0
 17 18  1  0  0  0  0
 17 49  1  0  0  0  0
 18 19  2  0  0  0  0
 18 50  1  0  0  0  0
 19 20  1  0  0  0  0
 19 51  1  0  0  0  0
 20 21  2  0  0  0  0
 20 52  1  0  0  0  0
 21 16  1  0  0  0  0
 21 53  1  0  0  0  0
 22 23  1  0  0  0  0
 22 54  1  0  0  0  0
 22 55  1  0  0  0  0
 23 56  1  0  0  0  0
 23 57  1  0  0  0  0
 24 25  1  0  0  0  0
 24 23  1  0  0  0  0
 24 33  1  0  0  0  0
 24 34  1  1  0  0  0
 25 58  1  0  0  0  0
 25 59  1  0  0  0  0
 26 27  1  0  0  0  0
 26 14  1  0  0  0  0
 26 25  1  0  0  0  0
 26 32  1  6  0  0  0
 27 28  1  0  0  0  0
 27 60  1  0  0  0  0
 27 61  1  0  0  0  0
 28 62  1  0  0  0  0
 28 63  1  0  0  0  0
 29 28  1  0  0  0  0
 30 29  1  0  0  0  0
 30 64  1  0  0  0  0
 31  9  2  0  0  0  0
 33 35  1  0  0  0  0
 33 36  1  0  0  0  0
 33 37  1  0  0  0  0
 34 65  1  0  0  0  0
M  END
>  <DRUGBANK_ID>
DB14676

>  <COMMON_NAME>
Fagrocorat

>  <CAS_NUMBER>
1044535-52-5

>  <UNII>
OPM23UN90U

$$$$
