
 OpenBabel10282417072D

 45 48  0  0  0  0  0  0  0  0999 V2000
    0.3638    0.8269    0.0000 C   0  0  2  0  0  0  0  0  0  0  0  0
    0.3638    0.0024    0.0000 N   0  0  0  0  0  0  0  0  0  0  0  0
    1.0778   -0.4098    0.0000 C   0  0  0  0  0  0  0  0  0  0  0  0
    1.7919    0.0024    0.0000 C   0  0  0  0  0  0  0  0  0  0  0  0
    1.7919    0.8269    0.0000 C   0  0  0  0  0  0  0  0  0  0  0  0
    1.0778    1.2390    0.0000 S   0  0  0  0  0  0  0  0  0  0  0  0
   -0.4606    0.8269    0.0000 C   0  0  1  0  0  0  0  0  0  0  0  0
   -0.4606    0.0024    0.0000 C   0  0  0  0  0  0  0  0  0  0  0  0
   -1.1746    1.2390    0.0000 N   0  0  0  0  0  0  0  0  0  0  0  0
   -1.8888    0.8269    0.0000 C   0  0  0  0  0  0  0  0  0  0  0  0
   -1.8888    0.0024    0.0000 O   0  0  0  0  0  0  0  0  0  0  0  0
   -1.1746   -0.4098    0.0000 O   0  0  0  0  0  0  0  0  0  0  0  0
   -2.6026    1.2390    0.0000 C   0  0  0  0  0  0  0  0  0  0  0  0
    2.5170   -0.4163    0.0000 C   0  0  0  0  0  0  0  0  0  0  0  0
    1.0778   -1.2342    0.0000 C   0  0  0  0  0  0  0  0  0  0  0  0
    0.3539   -1.6522    0.0000 O   0  0  0  0  0  0  0  0  0  0  0  0
    1.7819   -1.6407    0.0000 O   0  5  0  0  0  0  0  0  0  0  0  0
   -3.3282    0.8199    0.0000 C   0  0  0  0  0  0  0  0  0  0  0  0
    0.3638    1.6522    0.0000 H   0  0  0  0  0  0  0  0  0  0  0  0
    3.2338   -0.0025    0.0000 N   0  3  0  0  0  0  0  0  0  0  0  0
    3.9484   -0.4150    0.0000 C   0  0  0  0  0  0  0  0  0  0  0  0
    4.6629   -0.0025    0.0000 C   0  0  0  0  0  0  0  0  0  0  0  0
    4.6629    0.8225    0.0000 C   0  0  0  0  0  0  0  0  0  0  0  0
    3.9484    1.2351    0.0000 C   0  0  0  0  0  0  0  0  0  0  0  0
    3.2338    0.8225    0.0000 C   0  0  0  0  0  0  0  0  0  0  0  0
   -3.9904    1.3108    0.0000 S   0  0  0  0  0  0  0  0  0  0  0  0
   -4.6629    0.8322    0.0000 C   0  0  0  0  0  0  0  0  0  0  0  0
   -4.4155    0.0448    0.0000 C   0  0  0  0  0  0  0  0  0  0  0  0
   -3.5902    0.0367    0.0000 C   0  0  0  0  0  0  0  0  0  0  0  0
    2.7185    1.3620    0.0000 H   0  0  0  0  0  0  0  0  0  0  0  0
    1.7917    1.8969    0.0000 H   0  0  0  0  0  0  0  0  0  0  0  0
   -0.1837    1.8605    0.0000 H   0  0  0  0  0  0  0  0  0  0  0  0
   -1.1745    2.2235    0.0000 H   0  0  0  0  0  0  0  0  0  0  0  0
   -2.6027    2.3090    0.0000 H   0  0  0  0  0  0  0  0  0  0  0  0
   -3.5293    1.7739    0.0000 H   0  0  0  0  0  0  0  0  0  0  0  0
    2.5169   -1.4863    0.0000 H   0  0  0  0  0  0  0  0  0  0  0  0
    3.4436   -0.9513    0.0000 H   0  0  0  0  0  0  0  0  0  0  0  0
    3.9484   -1.4470    0.0000 H   0  0  0  0  0  0  0  0  0  0  0  0
    5.5566   -0.5185    0.0000 H   0  0  0  0  0  0  0  0  0  0  0  0
    5.5567    1.3385    0.0000 H   0  0  0  0  0  0  0  0  0  0  0  0
    3.9484    2.2671    0.0000 H   0  0  0  0  0  0  0  0  0  0  0  0
    2.3401    1.3385    0.0000 H   0  0  0  0  0  0  0  0  0  0  0  0
   -5.6412    1.1607    0.0000 H   0  0  0  0  0  0  0  0  0  0  0  0
   -5.0302   -0.7841    0.0000 H   0  0  0  0  0  0  0  0  0  0  0  0
   -2.9913   -0.8038    0.0000 H   0  0  0  0  0  0  0  0  0  0  0  0
  1  2  1  0  0  0  0
  1  6  1  0  0  0  0
  1  7  1  0  0  0  0
  1 19  1  6  0  0  0
  2  3  1  0  0  0  0
  2  8  1  0  0  0  0
  3  4  2  0  0  0  0
  3 15  1  0  0  0  0
  4  5  1  0  0  0  0
  4 14  1  0  0  0  0
  5  6  1  0  0  0  0
  5 30  1  0  0  0  0
  5 31  1  0  0  0  0
  7  8  1  0  0  0  0
  7  9  1  0  0  0  0
  7 32  1  6  0  0  0
  8 12  2  0  0  0  0
  9 10  1  0  0  0  0
  9 33  1  0  0  0  0
 10 11  2  0  0  0  0
 10 13  1  0  0  0  0
 13 18  1  0  0  0  0
 13 34  1  0  0  0  0
 13 35  1  0  0  0  0
 14 20  1  0  0  0  0
 14 36  1  0  0  0  0
 14 37  1  0  0  0  0
 15 16  2  0  0  0  0
 15 17  1  0  0  0  0
 18 26  1  0  0  0  0
 18 29  2  0  0  0  0
 20 21  2  0  0  0  0
 20 25  1  0  0  0  0
 21 22  1  0  0  0  0
 21 38  1  0  0  0  0
 22 23  2  0  0  0  0
 22 39  1  0  0  0  0
 23 24  1  0  0  0  0
 23 40  1  0  0  0  0
 24 25  2  0  0  0  0
 24 41  1  0  0  0  0
 25 42  1  0  0  0  0
 26 27  1  0  0  0  0
 27 28  2  0  0  0  0
 27 43  1  0  0  0  0
 28 29  1  0  0  0  0
 28 44  1  0  0  0  0
 29 45  1  0  0  0  0
M  CHG  2  17  -1  20   1
M  END
>  <DRUGBANK_ID>
DB09008

>  <COMMON_NAME>
Cefaloridine

>  <CAS_NUMBER>
50-59-9

>  <UNII>
LVZ1VC61HB

>  <SYNONYMS>
(6R,7R)-8-oxo-3-(pyridin-1-ium-1-ylmethyl)- 7-[(2-thiophen-2-ylacetyl)amino]-5-thia-1- azabicyclo[4.2.0]oct-2-ene-2-carboxylate; Cefaloridin; Cefaloridina; CÃ©faloridine; Cefaloridine; Cefaloridinum; Cephalomycine; Cephaloridine

$$$$
