
 OpenBabel10282417072D

 13  9  0  0  0  0  0  0  0  0999 V2000
    0.0000    0.0000    0.0000 Cr  0  1  0  0  0  0  0  0  0  0  0  0
    3.2411    0.7145    0.0000 O   0  5  0  0  0  0  0  0  0  0  0  0
    2.8286    0.0000    0.0000 N   0  3  0  0  0  0  0  0  0  0  0  0
    3.2411   -0.7145    0.0000 O   0  5  0  0  0  0  0  0  0  0  0  0
    2.0036    0.0000    0.0000 O   0  0  0  0  0  0  0  0  0  0  0  0
    0.4125   -2.3645    0.0000 O   0  5  0  0  0  0  0  0  0  0  0  0
    0.0000   -3.0789    0.0000 N   0  3  0  0  0  0  0  0  0  0  0  0
    0.4125   -3.7934    0.0000 O   0  5  0  0  0  0  0  0  0  0  0  0
   -0.8250   -3.0789    0.0000 O   0  0  0  0  0  0  0  0  0  0  0  0
    3.6536   -2.3645    0.0000 O   0  5  0  0  0  0  0  0  0  0  0  0
    3.2411   -3.0789    0.0000 N   0  3  0  0  0  0  0  0  0  0  0  0
    3.6536   -3.7934    0.0000 O   0  5  0  0  0  0  0  0  0  0  0  0
    2.4161   -3.0789    0.0000 O   0  0  0  0  0  0  0  0  0  0  0  0
  2  3  1  0  0  0  0
  3  4  1  0  0  0  0
  3  5  2  0  0  0  0
  6  7  1  0  0  0  0
  7  8  1  0  0  0  0
  7  9  2  0  0  0  0
 10 11  1  0  0  0  0
 11 12  1  0  0  0  0
 11 13  2  0  0  0  0
M  CHG  8   1   3   2  -1   3   1   4  -1   6  -1   7   1   8  -1  10  -1
M  CHG  2  11   1  12  -1
M  END
>  <DRUGBANK_ID>
DB14527

>  <SECONDARY_ACCESSION_NUMBERS>
DBSALT002353

>  <COMMON_NAME>
Chromic nitrate

>  <CAS_NUMBER>
13548-38-4

>  <UNII>
C6H0RE016B

$$$$
