
 OpenBabel10282417072D

 40 32  0  0  0  0  0  0  0  0999 V2000
   -2.7696   -1.1121    0.0000 C   0  0  0  0  0  0  0  0  0  0  0  0
   -3.5946    0.3167    0.0000 C   0  0  0  0  0  0  0  0  0  0  0  0
   -1.9446   -1.1121    0.0000 C   0  0  0  0  0  0  0  0  0  0  0  0
   -3.1821    1.0312    0.0000 C   0  0  0  0  0  0  0  0  0  0  0  0
   -3.8966   -0.8101    0.0000 C   0  0  0  0  0  0  0  0  0  0  0  0
   -3.1821   -0.3976    0.0000 C   0  0  0  0  0  0  0  0  0  0  0  0
   -1.5321   -1.8266    0.0000 O   0  0  0  0  0  0  0  0  0  0  0  0
   -1.5321   -0.3976    0.0000 O   0  5  0  0  0  0  0  0  0  0  0  0
   -2.3571    1.0312    0.0000 O   0  0  0  0  0  0  0  0  0  0  0  0
   -3.5946    1.7457    0.0000 O   0  5  0  0  0  0  0  0  0  0  0  0
   -4.6110   -0.3976    0.0000 O   0  0  0  0  0  0  0  0  0  0  0  0
   -3.8966   -1.6351    0.0000 O   0  5  0  0  0  0  0  0  0  0  0  0
   -2.4676    0.0148    0.0000 O   0  5  0  0  0  0  0  0  0  0  0  0
    3.2630   -0.0147    0.0000 C   0  0  0  0  0  0  0  0  0  0  0  0
    2.9610   -1.1417    0.0000 C   0  0  0  0  0  0  0  0  0  0  0  0
    3.2630    0.8102    0.0000 C   0  0  0  0  0  0  0  0  0  0  0  0
    3.7860   -1.1417    0.0000 C   0  0  0  0  0  0  0  0  0  0  0  0
    1.8341   -0.8397    0.0000 C   0  0  0  0  0  0  0  0  0  0  0  0
    2.5485   -0.4272    0.0000 C   0  0  0  0  0  0  0  0  0  0  0  0
    3.9775    1.2227    0.0000 O   0  0  0  0  0  0  0  0  0  0  0  0
    2.5485    1.2227    0.0000 O   0  5  0  0  0  0  0  0  0  0  0  0
    4.1985   -1.8562    0.0000 O   0  0  0  0  0  0  0  0  0  0  0  0
    4.1985   -0.4272    0.0000 O   0  5  0  0  0  0  0  0  0  0  0  0
    1.8341   -1.6647    0.0000 O   0  0  0  0  0  0  0  0  0  0  0  0
    1.1196   -0.4272    0.0000 O   0  5  0  0  0  0  0  0  0  0  0  0
    2.1360    0.2872    0.0000 O   0  5  0  0  0  0  0  0  0  0  0  0
   -1.1196    0.3167    0.0000 Bi  0  1  0  0  0  0  0  0  0  0  0  0
   -4.0071    2.4601    0.0000 K   0  3  0  0  0  0  0  0  0  0  0  0
   -3.8966   -2.4601    0.0000 K   0  3  0  0  0  0  0  0  0  0  0  0
   -1.7532    0.4273    0.0000 K   0  3  0  0  0  0  0  0  0  0  0  0
    1.8341    1.6352    0.0000 K   0  3  0  0  0  0  0  0  0  0  0  0
    4.6110    0.2872    0.0000 K   0  3  0  0  0  0  0  0  0  0  0  0
   -3.3046   -2.0387    0.0000 H   0  0  0  0  0  0  0  0  0  0  0  0
   -3.8396   -1.1121    0.0000 H   0  0  0  0  0  0  0  0  0  0  0  0
   -4.6646    0.3166    0.0000 H   0  0  0  0  0  0  0  0  0  0  0  0
   -4.1295   -0.6100    0.0000 H   0  0  0  0  0  0  0  0  0  0  0  0
    4.1896   -0.5497    0.0000 H   0  0  0  0  0  0  0  0  0  0  0  0
    3.2630   -1.0847    0.0000 H   0  0  0  0  0  0  0  0  0  0  0  0
    2.4260   -2.0683    0.0000 H   0  0  0  0  0  0  0  0  0  0  0  0
    1.8910   -1.1417    0.0000 H   0  0  0  0  0  0  0  0  0  0  0  0
  1 33  1  0  0  0  0
  1 34  1  0  0  0  0
  2 35  1  0  0  0  0
  2 36  1  0  0  0  0
  3  1  1  0  0  0  0
  4  2  1  0  0  0  0
  6  1  1  0  0  0  0
  6  2  1  0  0  0  0
  6  5  1  0  0  0  0
  7  3  2  0  0  0  0
  8  3  1  0  0  0  0
  9  4  2  0  0  0  0
 10  4  1  0  0  0  0
 11  5  2  0  0  0  0
 12  5  1  0  0  0  0
 13  6  1  0  0  0  0
 14 37  1  0  0  0  0
 14 38  1  0  0  0  0
 15 39  1  0  0  0  0
 15 40  1  0  0  0  0
 16 14  1  0  0  0  0
 17 15  1  0  0  0  0
 19 14  1  0  0  0  0
 19 15  1  0  0  0  0
 19 18  1  0  0  0  0
 20 16  2  0  0  0  0
 21 16  1  0  0  0  0
 22 17  2  0  0  0  0
 23 17  1  0  0  0  0
 24 18  2  0  0  0  0
 25 18  1  0  0  0  0
 26 19  1  0  0  0  0
M  CHG  8   8  -1  10  -1  12  -1  13  -1  21  -1  23  -1  25  -1  26  -1
M  CHG  6  27   3  28   1  29   1  30   1  31   1  32   1
M  END
>  <DRUGBANK_ID>
DB09275

>  <SECONDARY_ACCESSION_NUMBERS>
DBSALT001961

>  <COMMON_NAME>
Bismuth subcitrate potassium

>  <CAS_NUMBER>
880149-29-1

>  <UNII>
BQE6KE1T4H

>  <SYNONYMS>
Bismuth subcitrate potassium anhydrous

$$$$
