
 OpenBabel10282417072D

111118  0  0  0  0  0  0  0  0999 V2000
   -2.5901   -2.8058    0.0000 C   0  0  0  0  0  0  0  0  0  0  0  0
   -1.8689   -3.2065    0.0000 N   0  0  0  0  0  0  0  0  0  0  0  0
   -1.1677   -2.7938    0.0000 C   0  0  0  0  0  0  0  0  0  0  0  0
   -1.1878   -1.9805    0.0000 C   0  0  0  0  0  0  0  0  0  0  0  0
   -1.9090   -1.5798    0.0000 N   0  0  0  0  0  0  0  0  0  0  0  0
   -2.6101   -1.9924    0.0000 C   0  0  0  0  0  0  0  0  0  0  0  0
   -1.9090   -0.7304    0.0000 C   0  0  0  0  0  0  0  0  0  0  0  0
   -1.8689   -4.0559    0.0000 C   0  0  0  0  0  0  0  0  0  0  0  0
   -1.1677   -4.4685    0.0000 C   0  0  0  0  0  0  0  0  0  0  0  0
   -0.4465   -4.0679    0.0000 C   0  0  0  0  0  0  0  0  0  0  0  0
    0.2545   -4.4805    0.0000 C   0  0  0  0  0  0  0  0  0  0  0  0
    0.2545   -5.3300    0.0000 C   0  0  0  0  0  0  0  0  0  0  0  0
   -0.4666   -5.7306    0.0000 C   0  0  0  0  0  0  0  0  0  0  0  0
   -1.1878   -5.2819    0.0000 C   0  0  0  0  0  0  0  0  0  0  0  0
   -1.9089   -5.6826    0.0000 C   0  0  0  0  0  0  0  0  0  0  0  0
   -1.9089   -6.5320    0.0000 C   0  0  0  0  0  0  0  0  0  0  0  0
   -2.6302   -6.9327    0.0000 C   0  0  0  0  0  0  0  0  0  0  0  0
   -3.3514   -6.4839    0.0000 C   0  0  0  0  0  0  0  0  0  0  0  0
   -3.3314   -5.6706    0.0000 C   0  0  0  0  0  0  0  0  0  0  0  0
   -2.6101   -5.2699    0.0000 C   0  0  0  0  0  0  0  0  0  0  0  0
   -4.0725   -6.8846    0.0000 Cl  0  0  0  0  0  0  0  0  0  0  0  0
    0.9357   -5.2819    0.0000 C   0  0  0  0  0  0  0  0  0  0  0  0
    0.5230   -5.9831    0.0000 C   0  0  0  0  0  0  0  0  0  0  0  0
   -2.6101   -0.3177    0.0000 C   0  0  0  0  0  0  0  0  0  0  0  0
   -2.6462    0.5116    0.0000 C   0  0  0  0  0  0  0  0  0  0  0  0
   -1.8529    0.9523    0.0000 C   0  0  0  0  0  0  0  0  0  0  0  0
   -1.8328    1.7657    0.0000 C   0  0  0  0  0  0  0  0  0  0  0  0
   -1.1122    2.1433    0.0000 N   0  0  0  0  0  0  0  0  0  0  0  0
   -1.0571    2.9349    0.0000 S   0  0  0  0  0  0  0  0  0  0  0  0
   -0.3365    3.3126    0.0000 C   0  0  0  0  0  0  0  0  0  0  0  0
   -2.4984    2.1795    0.0000 O   0  0  0  0  0  0  0  0  0  0  0  0
    0.3640    2.8768    0.0000 C   0  0  0  0  0  0  0  0  0  0  0  0
    1.1064    3.2895    0.0000 C   0  0  0  0  0  0  0  0  0  0  0  0
    1.1264    4.1029    0.0000 C   0  0  0  0  0  0  0  0  0  0  0  0
    0.4259    4.5387    0.0000 C   0  0  0  0  0  0  0  0  0  0  0  0
   -0.2947    4.1610    0.0000 C   0  0  0  0  0  0  0  0  0  0  0  0
   -1.9055    2.9767    0.0000 O   0  0  0  0  0  0  0  0  0  0  0  0
   -1.4698    3.6773    0.0000 O   0  0  0  0  0  0  0  0  0  0  0  0
    0.4326    5.4088    0.0000 N   0  3  0  0  0  0  0  0  0  0  0  0
    1.8689    4.5156    0.0000 N   0  0  0  0  0  0  0  0  0  0  0  0
   -1.1878    0.5196    0.0000 C   0  0  0  0  0  0  0  0  0  0  0  0
   -1.1878   -0.3297    0.0000 C   0  0  0  0  0  0  0  0  0  0  0  0
   -0.4666    0.9203    0.0000 O   0  0  0  0  0  0  0  0  0  0  0  0
    0.2545    0.4715    0.0000 C   0  0  0  0  0  0  0  0  0  0  0  0
    0.9557    0.9082    0.0000 C   0  0  0  0  0  0  0  0  0  0  0  0
    1.6769    0.4595    0.0000 C   0  0  0  0  0  0  0  0  0  0  0  0
    1.6569   -0.3537    0.0000 C   0  0  0  0  0  0  0  0  0  0  0  0
    0.9357   -0.7544    0.0000 N   0  0  0  0  0  0  0  0  0  0  0  0
    0.2345   -0.3417    0.0000 C   0  0  0  0  0  0  0  0  0  0  0  0
    2.4782    0.7160    0.0000 C   0  0  0  0  0  0  0  0  0  0  0  0
    2.9510    0.0348    0.0000 C   0  0  0  0  0  0  0  0  0  0  0  0
    2.4261   -0.6342    0.0000 N   0  0  0  0  0  0  0  0  0  0  0  0
    1.8889    5.3290    0.0000 C   0  0  0  0  0  0  0  0  0  0  0  0
    2.6313    5.7417    0.0000 C   0  0  0  0  0  0  0  0  0  0  0  0
    3.3319    5.3059    0.0000 C   0  0  0  0  0  0  0  0  0  0  0  0
    4.0525    5.6836    0.0000 C   0  0  0  0  0  0  0  0  0  0  0  0
    4.0725    6.4969    0.0000 O   0  0  0  0  0  0  0  0  0  0  0  0
    3.3719    6.9327    0.0000 C   0  0  0  0  0  0  0  0  0  0  0  0
    2.6514    6.5550    0.0000 C   0  0  0  0  0  0  0  0  0  0  0  0
   -0.2679    5.8444    0.0000 O   0  0  0  0  0  0  0  0  0  0  0  0
    1.1182    5.8082    0.0000 O   0  5  0  0  0  0  0  0  0  0  0  0
   -3.5056   -3.3597    0.0000 H   0  0  0  0  0  0  0  0  0  0  0  0
   -3.5286   -2.2918    0.0000 H   0  0  0  0  0  0  0  0  0  0  0  0
   -0.2323   -3.3134    0.0000 H   0  0  0  0  0  0  0  0  0  0  0  0
   -0.2523   -2.2398    0.0000 H   0  0  0  0  0  0  0  0  0  0  0  0
   -0.2724   -1.4265    0.0000 H   0  0  0  0  0  0  0  0  0  0  0  0
   -1.2076   -0.9107    0.0000 H   0  0  0  0  0  0  0  0  0  0  0  0
   -3.5454   -1.4727    0.0000 H   0  0  0  0  0  0  0  0  0  0  0  0
   -3.5256   -2.5463    0.0000 H   0  0  0  0  0  0  0  0  0  0  0  0
   -2.7977   -4.5871    0.0000 H   0  0  0  0  0  0  0  0  0  0  0  0
   -1.8755   -5.1259    0.0000 H   0  0  0  0  0  0  0  0  0  0  0  0
   -0.4331   -2.9980    0.0000 H   0  0  0  0  0  0  0  0  0  0  0  0
    0.4857   -3.5426    0.0000 H   0  0  0  0  0  0  0  0  0  0  0  0
    1.1834   -3.9494    0.0000 H   0  0  0  0  0  0  0  0  0  0  0  0
    1.1800   -5.0174    0.0000 H   0  0  0  0  0  0  0  0  0  0  0  0
   -0.4931   -6.8003    0.0000 H   0  0  0  0  0  0  0  0  0  0  0  0
   -1.4083   -6.2387    0.0000 H   0  0  0  0  0  0  0  0  0  0  0  0
   -1.0195   -7.0554    0.0000 H   0  0  0  0  0  0  0  0  0  0  0  0
   -2.6558   -7.9644    0.0000 H   0  0  0  0  0  0  0  0  0  0  0  0
   -4.2143   -5.1363    0.0000 H   0  0  0  0  0  0  0  0  0  0  0  0
   -2.5973   -4.2380    0.0000 H   0  0  0  0  0  0  0  0  0  0  0  0
    1.5346   -6.1686    0.0000 H   0  0  0  0  0  0  0  0  0  0  0  0
    1.4041   -4.3199    0.0000 H   0  0  0  0  0  0  0  0  0  0  0  0
    2.0030   -5.2065    0.0000 H   0  0  0  0  0  0  0  0  0  0  0  0
   -0.1306   -6.8303    0.0000 H   0  0  0  0  0  0  0  0  0  0  0  0
    1.5835   -6.1256    0.0000 H   0  0  0  0  0  0  0  0  0  0  0  0
    0.9299   -6.9727    0.0000 H   0  0  0  0  0  0  0  0  0  0  0  0
   -3.4947   -0.8493    0.0000 H   0  0  0  0  0  0  0  0  0  0  0  0
   -3.5468    1.0155    0.0000 H   0  0  0  0  0  0  0  0  0  0  0  0
   -0.2881    1.6048    0.0000 H   0  0  0  0  0  0  0  0  0  0  0  0
    0.3386    1.8451    0.0000 H   0  0  0  0  0  0  0  0  0  0  0  0
    1.9894    2.7554    0.0000 H   0  0  0  0  0  0  0  0  0  0  0  0
   -1.1643    4.7167    0.0000 H   0  0  0  0  0  0  0  0  0  0  0  0
    2.7113    4.0060    0.0000 H   0  0  0  0  0  0  0  0  0  0  0  0
   -0.2983   -0.8530    0.0000 H   0  0  0  0  0  0  0  0  0  0  0  0
    0.9555    1.9402    0.0000 H   0  0  0  0  0  0  0  0  0  0  0  0
   -0.6676   -0.8429    0.0000 H   0  0  0  0  0  0  0  0  0  0  0  0
    2.8098    1.6933    0.0000 H   0  0  0  0  0  0  0  0  0  0  0  0
    3.9826    0.0046    0.0000 H   0  0  0  0  0  0  0  0  0  0  0  0
    2.6962   -1.5809    0.0000 H   0  0  0  0  0  0  0  0  0  0  0  0
    0.9734    5.8828    0.0000 H   0  0  0  0  0  0  0  0  0  0  0  0
    1.9085    6.3988    0.0000 H   0  0  0  0  0  0  0  0  0  0  0  0
    3.5730    6.2498    0.0000 H   0  0  0  0  0  0  0  0  0  0  0  0
    3.2925    4.2366    0.0000 H   0  0  0  0  0  0  0  0  0  0  0  0
    4.2371    4.7353    0.0000 H   0  0  0  0  0  0  0  0  0  0  0  0
    4.9612    5.1186    0.0000 H   0  0  0  0  0  0  0  0  0  0  0  0
    4.9941    6.1918    0.0000 H   0  0  0  0  0  0  0  0  0  0  0  0
    3.4113    8.0020    0.0000 H   0  0  0  0  0  0  0  0  0  0  0  0
    2.4667    7.5032    0.0000 H   0  0  0  0  0  0  0  0  0  0  0  0
    1.7428    7.1200    0.0000 H   0  0  0  0  0  0  0  0  0  0  0  0
    1.7098    6.0468    0.0000 H   0  0  0  0  0  0  0  0  0  0  0  0
  1  2  1  0  0  0  0
  1  6  1  0  0  0  0
  1 62  1  0  0  0  0
  1 63  1  0  0  0  0
  2  3  1  0  0  0  0
  2  8  1  0  0  0  0
  3  4  1  0  0  0  0
  3 64  1  0  0  0  0
  3 65  1  0  0  0  0
  4  5  1  0  0  0  0
  4 66  1  0  0  0  0
  4 67  1  0  0  0  0
  5  6  1  0  0  0  0
  5  7  1  0  0  0  0
  6 68  1  0  0  0  0
  6 69  1  0  0  0  0
  7 24  2  0  0  0  0
  7 42  1  0  0  0  0
  8  9  1  0  0  0  0
  8 70  1  0  0  0  0
  8 71  1  0  0  0  0
  9 10  1  0  0  0  0
  9 14  2  0  0  0  0
 10 11  1  0  0  0  0
 10 72  1  0  0  0  0
 10 73  1  0  0  0  0
 11 12  1  0  0  0  0
 11 74  1  0  0  0  0
 11 75  1  0  0  0  0
 12 13  1  0  0  0  0
 12 22  1  0  0  0  0
 12 23  1  0  0  0  0
 13 14  1  0  0  0  0
 13 76  1  0  0  0  0
 13 77  1  0  0  0  0
 14 15  1  0  0  0  0
 15 16  1  0  0  0  0
 15 20  2  0  0  0  0
 16 17  2  0  0  0  0
 16 78  1  0  0  0  0
 17 18  1  0  0  0  0
 17 79  1  0  0  0  0
 18 19  2  0  0  0  0
 18 21  1  0  0  0  0
 19 20  1  0  0  0  0
 19 80  1  0  0  0  0
 20 81  1  0  0  0  0
 22 82  1  0  0  0  0
 22 83  1  0  0  0  0
 22 84  1  0  0  0  0
 23 85  1  0  0  0  0
 23 86  1  0  0  0  0
 23 87  1  0  0  0  0
 24 25  1  0  0  0  0
 24 88  1  0  0  0  0
 25 26  2  0  0  0  0
 25 89  1  0  0  0  0
 26 27  1  0  0  0  0
 26 41  1  0  0  0  0
 27 28  1  0  0  0  0
 27 31  2  0  0  0  0
 28 29  1  0  0  0  0
 28 90  1  0  0  0  0
 29 30  1  0  0  0  0
 29 37  2  0  0  0  0
 29 38  2  0  0  0  0
 30 32  2  0  0  0  0
 30 36  1  0  0  0  0
 32 33  1  0  0  0  0
 32 91  1  0  0  0  0
 33 34  2  0  0  0  0
 33 92  1  0  0  0  0
 34 35  1  0  0  0  0
 34 40  1  0  0  0  0
 35 36  2  0  0  0  0
 35 39  1  0  0  0  0
 36 93  1  0  0  0  0
 39 60  2  0  0  0  0
 39 61  1  0  0  0  0
 40 53  1  0  0  0  0
 40 94  1  0  0  0  0
 41 42  2  0  0  0  0
 41 43  1  0  0  0  0
 42 95  1  0  0  0  0
 43 44  1  0  0  0  0
 44 45  1  0  0  0  0
 44 49  2  0  0  0  0
 45 46  2  0  0  0  0
 45 96  1  0  0  0  0
 46 47  1  0  0  0  0
 46 50  1  0  0  0  0
 47 48  2  0  0  0  0
 47 52  1  0  0  0  0
 48 49  1  0  0  0  0
 49 97  1  0  0  0  0
 50 51  2  0  0  0  0
 50 98  1  0  0  0  0
 51 52  1  0  0  0  0
 51 99  1  0  0  0  0
 52100  1  0  0  0  0
 53 54  1  0  0  0  0
 53101  1  0  0  0  0
 53102  1  0  0  0  0
 54 55  1  0  0  0  0
 54 59  1  0  0  0  0
 54103  1  0  0  0  0
 55 56  1  0  0  0  0
 55104  1  0  0  0  0
 55105  1  0  0  0  0
 56 57  1  0  0  0  0
 56106  1  0  0  0  0
 56107  1  0  0  0  0
 57 58  1  0  0  0  0
 58 59  1  0  0  0  0
 58108  1  0  0  0  0
 58109  1  0  0  0  0
 59110  1  0  0  0  0
 59111  1  0  0  0  0
M  CHG  2  39   1  61  -1
M  END
>  <DRUGBANK_ID>
DB11581

>  <COMMON_NAME>
Venetoclax

>  <CAS_NUMBER>
1257044-40-8

>  <UNII>
N54AIC43PW

>  <SYNONYMS>
4-(4-((2-(4-chlorophenyl)-4,4-dimethylcyclohex-1-en-1-yl)methyl)piperazin-1-yl)-N-((3-nitro-4-((tetrahydro-2H-pyran-4-ylmethyl)amino)phenyl)sulfonyl)-2-(1H-pyrrolo(2,3-b)pyridin-5-yloxy)benzamide; 4-(4-{[2-(4-chlorophenyl)-4,4-dimethylcyclohex-1-en-1-yl]methyl}piperazin-1-yl)-N-({3-nitro-4-[(tetrahydro-2H-pyran-4-ylmethyl)amino]phenyl}sulfonyl)-2-(1H-pyrrolo[2,3-b]pyridin-5-yloxy)benzamide; 4-{4-[(4'-chloro-5,5-dimethyl[3,4,5,6-tetrahydro[1,1'-biphenyl]]-2-yl)methyl]piperazin-1-yl}-N-(3-nitro-4-{[(oxan-4-yl)methyl]amino}benzene-1-sulfonyl)-2-[(1H-pyrrolo[2,3-b]pyridin-5-yl)oxy]benzamide

$$$$
