843
 OpenBabel10282417072D

 57 60  0  0  1  0  0  0  0  0999 V2000
    4.8305    2.4093    0.0000 O   0  0  0  0  0  0  0  0  0  0  0  0
    1.6500    0.1362    0.0000 O   0  0  0  0  0  0  0  0  0  0  0  0
    1.6500    1.7862    0.0000 O   0  0  0  0  0  0  0  0  0  0  0  0
    7.1182   -1.1823    0.0000 N   0  0  0  0  0  0  0  0  0  0  0  0
    6.2932    0.2467    0.0000 C   0  0  0  0  0  0  0  0  0  0  0  0
    5.8806    0.9612    0.0000 C   0  0  0  0  0  0  0  0  0  0  0  0
    5.0556    0.9612    0.0000 C   0  0  3  0  0  0  0  0  0  0  0  0
    7.1182    0.2467    0.0000 C   0  0  0  0  0  0  0  0  0  0  0  0
    5.8806   -0.4678    0.0000 C   0  0  0  0  0  0  0  0  0  0  0  0
    7.5307   -0.4678    0.0000 C   0  0  0  0  0  0  0  0  0  0  0  0
    6.2932   -1.1823    0.0000 C   0  0  0  0  0  0  0  0  0  0  0  0
    4.5741    0.2973    0.0000 C   0  0  0  0  0  0  0  0  0  0  0  0
    4.5741    1.6251    0.0000 C   0  0  0  0  0  0  0  0  0  0  0  0
    3.7935    0.5487    0.0000 C   0  0  0  0  0  0  0  0  0  0  0  0
    3.7935    1.3737    0.0000 C   0  0  0  0  0  0  0  0  0  0  0  0
    7.5307   -1.8967    0.0000 C   0  0  0  0  0  0  0  0  0  0  0  0
    3.0791    0.1362    0.0000 C   0  0  0  0  0  0  0  0  0  0  0  0
    3.0791    1.7862    0.0000 C   0  0  0  0  0  0  0  0  0  0  0  0
    8.3557   -1.8967    0.0000 C   0  0  0  0  0  0  0  0  0  0  0  0
    2.3645    0.5487    0.0000 C   0  0  0  0  0  0  0  0  0  0  0  0
    2.3645    1.3737    0.0000 C   0  0  0  0  0  0  0  0  0  0  0  0
    8.7682   -1.1823    0.0000 C   0  0  0  0  0  0  0  0  0  0  0  0
    8.7682   -2.6113    0.0000 C   0  0  0  0  0  0  0  0  0  0  0  0
    9.5932   -1.1823    0.0000 C   0  0  0  0  0  0  0  0  0  0  0  0
    9.5932   -2.6113    0.0000 C   0  0  0  0  0  0  0  0  0  0  0  0
   10.0057   -1.8967    0.0000 C   0  0  0  0  0  0  0  0  0  0  0  0
    1.6500   -0.6888    0.0000 C   0  0  0  0  0  0  0  0  0  0  0  0
    1.6500    2.6113    0.0000 C   0  0  0  0  0  0  0  0  0  0  0  0
    6.8282   -0.6800    0.0000 H   0  0  0  0  0  0  0  0  0  0  0  0
    6.4156    1.8879    0.0000 H   0  0  0  0  0  0  0  0  0  0  0  0
    5.3456    1.8878    0.0000 H   0  0  0  0  0  0  0  0  0  0  0  0
    5.5418    0.0080    0.0000 H   0  0  0  0  0  0  0  0  0  0  0  0
    7.6532    1.1733    0.0000 H   0  0  0  0  0  0  0  0  0  0  0  0
    8.1882    0.2467    0.0000 H   0  0  0  0  0  0  0  0  0  0  0  0
    4.8106   -0.4678    0.0000 H   0  0  0  0  0  0  0  0  0  0  0  0
    5.3456   -1.3945    0.0000 H   0  0  0  0  0  0  0  0  0  0  0  0
    8.6007   -0.4678    0.0000 H   0  0  0  0  0  0  0  0  0  0  0  0
    8.0657    0.4588    0.0000 H   0  0  0  0  0  0  0  0  0  0  0  0
    5.7582   -2.1090    0.0000 H   0  0  0  0  0  0  0  0  0  0  0  0
    5.2232   -1.1824    0.0000 H   0  0  0  0  0  0  0  0  0  0  0  0
    4.9065   -0.7198    0.0000 H   0  0  0  0  0  0  0  0  0  0  0  0
    3.8191   -0.4609    0.0000 H   0  0  0  0  0  0  0  0  0  0  0  0
    6.9957   -2.8234    0.0000 H   0  0  0  0  0  0  0  0  0  0  0  0
    8.0657   -2.8233    0.0000 H   0  0  0  0  0  0  0  0  0  0  0  0
    3.0792   -0.8958    0.0000 H   0  0  0  0  0  0  0  0  0  0  0  0
    3.0792    2.8182    0.0000 H   0  0  0  0  0  0  0  0  0  0  0  0
    8.2522   -0.2886    0.0000 H   0  0  0  0  0  0  0  0  0  0  0  0
    8.2522   -3.5050    0.0000 H   0  0  0  0  0  0  0  0  0  0  0  0
   10.1092   -0.2886    0.0000 H   0  0  0  0  0  0  0  0  0  0  0  0
   10.1092   -3.5050    0.0000 H   0  0  0  0  0  0  0  0  0  0  0  0
   11.0377   -1.8966    0.0000 H   0  0  0  0  0  0  0  0  0  0  0  0
    0.7234   -1.2238    0.0000 H   0  0  0  0  0  0  0  0  0  0  0  0
    2.5766   -1.2238    0.0000 H   0  0  0  0  0  0  0  0  0  0  0  0
    1.6500   -1.7588    0.0000 H   0  0  0  0  0  0  0  0  0  0  0  0
    2.5766    3.1463    0.0000 H   0  0  0  0  0  0  0  0  0  0  0  0
    0.7234    3.1463    0.0000 H   0  0  0  0  0  0  0  0  0  0  0  0
    1.6500    3.6813    0.0000 H   0  0  0  0  0  0  0  0  0  0  0  0
  1 13  2  0  0  0  0
  2 20  1  0  0  0  0
  2 27  1  0  0  0  0
  3 21  1  0  0  0  0
  3 28  1  0  0  0  0
  4 10  1  0  0  0  0
  4 11  1  0  0  0  0
  4 16  1  0  0  0  0
  5  6  1  0  0  0  0
  5  8  1  0  0  0  0
  5  9  1  0  0  0  0
  5 29  1  0  0  0  0
  6  7  1  0  0  0  0
  6 30  1  0  0  0  0
  6 31  1  0  0  0  0
  7 12  1  0  0  0  0
  7 13  1  0  0  0  0
  7 32  1  0  0  0  0
  8 10  1  0  0  0  0
  8 33  1  0  0  0  0
  8 34  1  0  0  0  0
  9 11  1  0  0  0  0
  9 35  1  0  0  0  0
  9 36  1  0  0  0  0
 10 37  1  0  0  0  0
 10 38  1  0  0  0  0
 11 39  1  0  0  0  0
 11 40  1  0  0  0  0
 12 14  1  0  0  0  0
 12 41  1  0  0  0  0
 12 42  1  0  0  0  0
 13 15  1  0  0  0  0
 14 15  1  0  0  0  0
 14 17  2  0  0  0  0
 15 18  2  0  0  0  0
 16 19  1  0  0  0  0
 16 43  1  0  0  0  0
 16 44  1  0  0  0  0
 17 20  1  0  0  0  0
 17 45  1  0  0  0  0
 18 21  1  0  0  0  0
 18 46  1  0  0  0  0
 19 22  2  0  0  0  0
 19 23  1  0  0  0  0
 20 21  2  0  0  0  0
 22 24  1  0  0  0  0
 22 47  1  0  0  0  0
 23 25  2  0  0  0  0
 23 48  1  0  0  0  0
 24 26  2  0  0  0  0
 24 49  1  0  0  0  0
 25 26  1  0  0  0  0
 25 50  1  0  0  0  0
 26 51  1  0  0  0  0
 27 52  1  0  0  0  0
 27 53  1  0  0  0  0
 27 54  1  0  0  0  0
 28 55  1  0  0  0  0
 28 56  1  0  0  0  0
 28 57  1  0  0  0  0
M  END
>  <DRUGBANK_ID>
DB00843

>  <SECONDARY_ACCESSION_NUMBERS>
APRD00039

>  <COMMON_NAME>
Donepezil

>  <CAS_NUMBER>
120014-06-4

>  <UNII>
8SSC91326P

>  <SYNONYMS>
Domepezil; Donepezil; Donepezilo; Donepezilum

$$$$
