LII
 OpenBabel10282417072D

 44 46  0  0  0  0  0  0  0  0999 V2000
   -1.2250   -0.7073    0.0000 C   0  0  0  0  0  0  0  0  0  0  0  0
   -1.9394   -1.1198    0.0000 C   0  0  0  0  0  0  0  0  0  0  0  0
   -2.6539    0.1177    0.0000 C   0  0  0  0  0  0  0  0  0  0  0  0
   -1.2250    0.1177    0.0000 C   0  0  0  0  0  0  0  0  0  0  0  0
   -0.5105   -1.1198    0.0000 C   0  0  0  0  0  0  0  0  0  0  0  0
    0.2040   -0.7073    0.0000 C   0  0  0  0  0  0  0  0  0  0  0  0
    0.2040    0.1177    0.0000 C   0  0  0  0  0  0  0  0  0  0  0  0
   -0.5105   -1.9448    0.0000 C   0  0  0  0  0  0  0  0  0  0  0  0
    0.9184   -1.1198    0.0000 C   0  0  0  0  0  0  0  0  0  0  0  0
    1.6329    0.1177    0.0000 C   0  0  0  0  0  0  0  0  0  0  0  0
    2.3474    0.5302    0.0000 C   0  0  0  0  0  0  0  0  0  0  0  0
    2.3474    1.3552    0.0000 C   0  0  0  0  0  0  0  0  0  0  0  0
    1.6329    1.7677    0.0000 C   0  0  0  0  0  0  0  0  0  0  0  0
    0.9184    1.3552    0.0000 C   0  0  0  0  0  0  0  0  0  0  0  0
    0.9184    0.5302    0.0000 C   0  0  0  0  0  0  0  0  0  0  0  0
    1.6329   -0.7073    0.0000 C   0  0  0  0  0  0  0  0  0  0  0  0
    3.7763    0.5302    0.0000 C   0  0  0  0  0  0  0  0  0  0  0  0
   -0.5105    1.3552    0.0000 C   0  0  0  0  0  0  0  0  0  0  0  0
   -2.6539   -0.7073    0.0000 N   0  0  0  0  0  0  0  0  0  0  0  0
   -1.9394    0.5302    0.0000 N   0  0  0  0  0  0  0  0  0  0  0  0
   -0.5105    0.5302    0.0000 N   0  0  0  0  0  0  0  0  0  0  0  0
   -1.9394   -1.9448    0.0000 N   0  0  0  0  0  0  0  0  0  0  0  0
   -3.3684    0.5302    0.0000 N   0  0  0  0  0  0  0  0  0  0  0  0
    3.0618    0.1177    0.0000 O   0  0  0  0  0  0  0  0  0  0  0  0
    0.2040    1.7677    0.0000 O   0  0  0  0  0  0  0  0  0  0  0  0
    1.0977    0.6337    0.0000 H   0  0  0  0  0  0  0  0  0  0  0  0
   -1.4371   -2.4798    0.0000 H   0  0  0  0  0  0  0  0  0  0  0  0
    0.4161   -2.4798    0.0000 H   0  0  0  0  0  0  0  0  0  0  0  0
   -0.5105   -3.0148    0.0000 H   0  0  0  0  0  0  0  0  0  0  0  0
    0.9184   -2.1518    0.0000 H   0  0  0  0  0  0  0  0  0  0  0  0
    3.2411    1.8712    0.0000 H   0  0  0  0  0  0  0  0  0  0  0  0
    1.6329    2.7997    0.0000 H   0  0  0  0  0  0  0  0  0  0  0  0
    0.0247    0.0142    0.0000 H   0  0  0  0  0  0  0  0  0  0  0  0
    2.5266   -1.2233    0.0000 H   0  0  0  0  0  0  0  0  0  0  0  0
    4.7029   -0.0048    0.0000 H   0  0  0  0  0  0  0  0  0  0  0  0
    3.7763    1.6002    0.0000 H   0  0  0  0  0  0  0  0  0  0  0  0
    4.7030    1.0652    0.0000 H   0  0  0  0  0  0  0  0  0  0  0  0
   -1.4371    1.8902    0.0000 H   0  0  0  0  0  0  0  0  0  0  0  0
   -0.5105    0.2852    0.0000 H   0  0  0  0  0  0  0  0  0  0  0  0
   -1.4372    0.8202    0.0000 H   0  0  0  0  0  0  0  0  0  0  0  0
   -2.7920   -2.4371    0.0000 H   0  0  0  0  0  0  0  0  0  0  0  0
   -1.0868   -2.4371    0.0000 H   0  0  0  0  0  0  0  0  0  0  0  0
   -3.3684    1.5147    0.0000 H   0  0  0  0  0  0  0  0  0  0  0  0
   -4.2210    0.0379    0.0000 H   0  0  0  0  0  0  0  0  0  0  0  0
  1  2  2  0  0  0  0
  1  4  1  0  0  0  0
  1  5  1  0  0  0  0
  2 19  1  0  0  0  0
  2 22  1  0  0  0  0
  3 19  2  0  0  0  0
  3 20  1  0  0  0  0
  3 23  1  0  0  0  0
  4 20  2  0  0  0  0
  4 21  1  0  0  0  0
  5  6  2  0  0  0  0
  5  8  1  0  0  0  0
  6  7  1  0  0  0  0
  6  9  1  0  0  0  0
  7 21  2  0  0  0  0
  7 26  1  0  0  0  0
  8 27  1  0  0  0  0
  8 28  1  0  0  0  0
  8 29  1  0  0  0  0
  9 16  2  0  0  0  0
  9 30  1  0  0  0  0
 10 11  2  0  0  0  0
 10 15  1  0  0  0  0
 10 16  1  0  0  0  0
 11 12  1  0  0  0  0
 11 24  1  0  0  0  0
 12 13  2  0  0  0  0
 12 31  1  0  0  0  0
 13 14  1  0  0  0  0
 13 32  1  0  0  0  0
 14 15  2  0  0  0  0
 14 25  1  0  0  0  0
 15 33  1  0  0  0  0
 16 34  1  0  0  0  0
 17 24  1  0  0  0  0
 17 35  1  0  0  0  0
 17 36  1  0  0  0  0
 17 37  1  0  0  0  0
 18 25  1  0  0  0  0
 18 38  1  0  0  0  0
 18 39  1  0  0  0  0
 18 40  1  0  0  0  0
 22 41  1  0  0  0  0
 22 42  1  0  0  0  0
 23 43  1  0  0  0  0
 23 44  1  0  0  0  0
M  END
>  <DRUGBANK_ID>
DB03060

>  <SECONDARY_ACCESSION_NUMBERS>
EXPT02032

>  <COMMON_NAME>
Sri-9662

$$$$
