
 OpenBabel10282417072D

 58 59  0  0  0  0  0  0  0  0999 V2000
   -4.0207    2.7229    0.0000 C   0  0  0  0  0  0  0  0  0  0  0  0
   -3.8492    1.9159    0.0000 C   0  0  0  0  0  0  0  0  0  0  0  0
   -3.0646    1.6610    0.0000 C   0  0  0  0  0  0  0  0  0  0  0  0
   -2.8930    0.8540    0.0000 C   0  0  0  0  0  0  0  0  0  0  0  0
   -3.5061    0.3020    0.0000 C   0  0  0  0  0  0  0  0  0  0  0  0
   -3.3346   -0.5049    0.0000 C   0  0  0  0  0  0  0  0  0  0  0  0
   -2.5500   -0.7599    0.0000 C   0  0  0  0  0  0  0  0  0  0  0  0
   -2.3785   -1.5668    0.0000 C   0  0  1  0  0  0  0  0  0  0  0  0
   -1.6248   -1.9024    0.0000 C   0  0  1  0  0  0  0  0  0  0  0  0
   -1.7110   -2.7229    0.0000 C   0  0  2  0  0  0  0  0  0  0  0  0
   -2.5180   -2.8944    0.0000 C   0  0  0  0  0  0  0  0  0  0  0  0
   -2.9305   -2.1799    0.0000 C   0  0  1  0  0  0  0  0  0  0  0  0
   -3.7510   -2.0937    0.0000 O   0  0  0  0  0  0  0  0  0  0  0  0
   -1.0979   -3.2749    0.0000 O   0  0  0  0  0  0  0  0  0  0  0  0
   -0.9103   -1.4899    0.0000 S   0  0  0  0  0  0  0  0  0  0  0  0
   -0.1959   -1.9024    0.0000 C   0  0  0  0  0  0  0  0  0  0  0  0
    0.5185   -1.4899    0.0000 C   0  0  1  0  0  0  0  0  0  0  0  0
    1.2330   -1.9024    0.0000 C   0  0  0  0  0  0  0  0  0  0  0  0
    1.9475   -1.4899    0.0000 O   0  0  0  0  0  0  0  0  0  0  0  0
    2.6619   -1.9024    0.0000 C   0  0  0  0  0  0  0  0  0  0  0  0
    3.3764   -1.4899    0.0000 C   0  0  0  0  0  0  0  0  0  0  0  0
    4.0909   -1.9024    0.0000 C   0  0  0  0  0  0  0  0  0  0  0  0
    4.0909   -2.7274    0.0000 C   0  0  0  0  0  0  0  0  0  0  0  0
    3.3764   -3.1399    0.0000 C   0  0  0  0  0  0  0  0  0  0  0  0
    2.6619   -2.7274    0.0000 C   0  0  0  0  0  0  0  0  0  0  0  0
    4.8053   -1.4899    0.0000 Cl  0  0  0  0  0  0  0  0  0  0  0  0
    0.5185   -0.6649    0.0000 O   0  0  0  0  0  0  0  0  0  0  0  0
   -4.8053    2.9778    0.0000 O   0  0  0  0  0  0  0  0  0  0  0  0
   -3.4076    3.2749    0.0000 O   0  0  0  0  0  0  0  0  0  0  0  0
   -4.6444    1.1999    0.0000 H   0  0  0  0  0  0  0  0  0  0  0  0
   -3.6267    0.8693    0.0000 H   0  0  0  0  0  0  0  0  0  0  0  0
   -2.2695    2.3770    0.0000 H   0  0  0  0  0  0  0  0  0  0  0  0
   -2.0469    1.3304    0.0000 H   0  0  0  0  0  0  0  0  0  0  0  0
   -1.8754    0.5234    0.0000 H   0  0  0  0  0  0  0  0  0  0  0  0
   -2.6705   -0.1926    0.0000 H   0  0  0  0  0  0  0  0  0  0  0  0
   -4.4876    0.6209    0.0000 H   0  0  0  0  0  0  0  0  0  0  0  0
   -4.1016   -1.1954    0.0000 H   0  0  0  0  0  0  0  0  0  0  0  0
   -1.7548   -0.0440    0.0000 H   0  0  0  0  0  0  0  0  0  0  0  0
   -1.5324   -1.0906    0.0000 H   0  0  0  0  0  0  0  0  0  0  0  0
   -1.5469   -0.8934    0.0000 H   0  0  0  0  0  0  0  0  0  0  0  0
   -1.6808   -0.8339    0.0000 H   0  0  0  0  0  0  0  0  0  0  0  0
   -0.7121   -2.3394    0.0000 H   0  0  0  0  0  0  0  0  0  0  0  0
   -2.9532   -3.8719    0.0000 H   0  0  0  0  0  0  0  0  0  0  0  0
   -3.5865   -2.9504    0.0000 H   0  0  0  0  0  0  0  0  0  0  0  0
   -3.5133   -3.0773    0.0000 H   0  0  0  0  0  0  0  0  0  0  0  0
   -4.1456   -1.2076    0.0000 H   0  0  0  0  0  0  0  0  0  0  0  0
   -1.2995   -4.2237    0.0000 H   0  0  0  0  0  0  0  0  0  0  0  0
   -0.1959   -2.9724    0.0000 H   0  0  0  0  0  0  0  0  0  0  0  0
    0.7308   -2.4374    0.0000 H   0  0  0  0  0  0  0  0  0  0  0  0
   -0.4082   -0.9549    0.0000 H   0  0  0  0  0  0  0  0  0  0  0  0
    1.2330   -2.9724    0.0000 H   0  0  0  0  0  0  0  0  0  0  0  0
    2.1596   -2.4374    0.0000 H   0  0  0  0  0  0  0  0  0  0  0  0
    3.3764   -0.4579    0.0000 H   0  0  0  0  0  0  0  0  0  0  0  0
    4.9846   -3.2434    0.0000 H   0  0  0  0  0  0  0  0  0  0  0  0
    3.3764   -4.1719    0.0000 H   0  0  0  0  0  0  0  0  0  0  0  0
    1.7682   -3.2434    0.0000 H   0  0  0  0  0  0  0  0  0  0  0  0
    1.3585   -0.1799    0.0000 H   0  0  0  0  0  0  0  0  0  0  0  0
   -2.5165    2.9853    0.0000 H   0  0  0  0  0  0  0  0  0  0  0  0
  1  2  1  0  0  0  0
  1 28  2  0  0  0  0
  1 29  1  0  0  0  0
  2  3  1  0  0  0  0
  2 30  1  0  0  0  0
  2 31  1  0  0  0  0
  3  4  1  0  0  0  0
  3 32  1  0  0  0  0
  3 33  1  0  0  0  0
  4  5  1  0  0  0  0
  4 34  1  0  0  0  0
  4 35  1  0  0  0  0
  5  6  2  0  0  0  0
  5 36  1  0  0  0  0
  6  7  1  0  0  0  0
  6 37  1  0  0  0  0
  7 38  1  0  0  0  0
  7 39  1  0  0  0  0
  8  7  1  0  0  0  0
  8  9  1  0  0  0  0
  8 12  1  0  0  0  0
  8 40  1  6  0  0  0
  9 10  1  0  0  0  0
  9 15  1  0  0  0  0
  9 41  1  1  0  0  0
 10 11  1  0  0  0  0
 10 14  1  0  0  0  0
 10 42  1  6  0  0  0
 11 43  1  0  0  0  0
 11 44  1  0  0  0  0
 12 11  1  0  0  0  0
 12 13  1  0  0  0  0
 12 45  1  6  0  0  0
 13 46  1  0  0  0  0
 14 47  1  0  0  0  0
 15 16  1  0  0  0  0
 16 48  1  0  0  0  0
 16 49  1  0  0  0  0
 17 16  1  0  0  0  0
 17 18  1  0  0  0  0
 17 27  1  0  0  0  0
 17 50  1  1  0  0  0
 18 19  1  0  0  0  0
 18 51  1  0  0  0  0
 18 52  1  0  0  0  0
 19 20  1  0  0  0  0
 20 21  2  0  0  0  0
 20 25  1  0  0  0  0
 21 22  1  0  0  0  0
 21 53  1  0  0  0  0
 22 23  2  0  0  0  0
 22 26  1  0  0  0  0
 23 24  1  0  0  0  0
 23 54  1  0  0  0  0
 24 25  2  0  0  0  0
 24 55  1  0  0  0  0
 25 56  1  0  0  0  0
 27 57  1  0  0  0  0
 29 58  1  0  0  0  0
M  END
>  <DRUGBANK_ID>
DB11425

>  <COMMON_NAME>
Luprostiol

>  <CAS_NUMBER>
67110-79-6

>  <UNII>
HWR60H5GZB

>  <SYNONYMS>
Luprostiol; Luprostiolum

$$$$
