
 OpenBabel10282417072D

 53 57  0  0  1  0  0  0  0  0999 V2000
   -2.1884   -0.2062    0.0000 C   0  0  0  0  0  0  0  0  0  0  0  0
   -2.1884   -1.0312    0.0000 C   0  0  2  0  0  0  0  0  0  0  0  0
   -2.9029   -1.4438    0.0000 C   0  0  0  0  0  0  0  0  0  0  0  0
   -2.9029   -2.2688    0.0000 O   0  0  0  0  0  0  0  0  0  0  0  0
   -2.1884   -2.6812    0.0000 C   0  0  0  0  0  0  0  0  0  0  0  0
   -1.4739   -2.2688    0.0000 C   0  0  0  0  0  0  0  0  0  0  0  0
   -1.4739   -1.4438    0.0000 N   0  0  0  0  0  0  0  0  0  0  0  0
   -0.7594   -1.0312    0.0000 C   0  0  0  0  0  0  0  0  0  0  0  0
   -0.7594   -0.2062    0.0000 N   0  0  0  0  0  0  0  0  0  0  0  0
   -0.0449    0.2062    0.0000 C   0  0  0  0  0  0  0  0  0  0  0  0
   -0.0449    1.0312    0.0000 C   0  0  0  0  0  0  0  0  0  0  0  0
   -0.7594    1.4437    0.0000 C   0  0  0  0  0  0  0  0  0  0  0  0
   -0.7594    2.2687    0.0000 N   0  0  0  0  0  0  0  0  0  0  0  0
   -0.0449    2.6812    0.0000 C   0  0  0  0  0  0  0  0  0  0  0  0
    0.6695    2.2687    0.0000 C   0  0  0  0  0  0  0  0  0  0  0  0
    1.4541    2.5236    0.0000 N   0  0  0  0  0  0  0  0  0  0  0  0
    1.9390    1.8562    0.0000 C   0  0  0  0  0  0  0  0  0  0  0  0
    1.4541    1.1887    0.0000 C   0  0  0  0  0  0  0  0  0  0  0  0
    0.6695    1.4437    0.0000 C   0  0  0  0  0  0  0  0  0  0  0  0
    0.6695   -0.2062    0.0000 N   0  0  0  0  0  0  0  0  0  0  0  0
    0.6695   -1.0312    0.0000 C   0  0  0  0  0  0  0  0  0  0  0  0
    1.3839   -1.4437    0.0000 C   0  0  0  0  0  0  0  0  0  0  0  0
    1.9142   -0.8117    0.0000 S   0  0  1  0  0  0  0  0  0  0  0  0
    2.6553   -1.3857    0.0000 O   0  0  0  0  0  0  0  0  0  0  0  0
    1.5223   -0.1068    0.0000 N   0  0  0  0  0  0  0  0  0  0  0  0
    2.9029   -0.1361    0.0000 C   0  0  0  0  0  0  0  0  0  0  0  0
    1.1018   -2.2189    0.0000 C   0  0  0  0  0  0  0  0  0  0  0  0
    1.9142   -2.0757    0.0000 C   0  0  0  0  0  0  0  0  0  0  0  0
   -0.0449   -1.4438    0.0000 C   0  0  0  0  0  0  0  0  0  0  0  0
   -1.2618    0.3288    0.0000 H   0  0  0  0  0  0  0  0  0  0  0  0
   -3.1150    0.3288    0.0000 H   0  0  0  0  0  0  0  0  0  0  0  0
   -2.1884    0.8638    0.0000 H   0  0  0  0  0  0  0  0  0  0  0  0
   -3.1151   -0.4962    0.0000 H   0  0  0  0  0  0  0  0  0  0  0  0
   -3.8296   -0.9088    0.0000 H   0  0  0  0  0  0  0  0  0  0  0  0
   -3.8295   -1.9788    0.0000 H   0  0  0  0  0  0  0  0  0  0  0  0
   -2.1884   -3.7512    0.0000 H   0  0  0  0  0  0  0  0  0  0  0  0
   -1.2618   -3.2163    0.0000 H   0  0  0  0  0  0  0  0  0  0  0  0
   -0.5473   -2.8039    0.0000 H   0  0  0  0  0  0  0  0  0  0  0  0
   -0.5472   -1.7338    0.0000 H   0  0  0  0  0  0  0  0  0  0  0  0
   -1.6531    0.9277    0.0000 H   0  0  0  0  0  0  0  0  0  0  0  0
   -0.0449    3.7132    0.0000 H   0  0  0  0  0  0  0  0  0  0  0  0
    1.7583    3.4599    0.0000 H   0  0  0  0  0  0  0  0  0  0  0  0
    2.9710    1.8562    0.0000 H   0  0  0  0  0  0  0  0  0  0  0  0
    1.7730    0.2072    0.0000 H   0  0  0  0  0  0  0  0  0  0  0  0
    2.0283    0.7377    0.0000 H   0  0  0  0  0  0  0  0  0  0  0  0
    3.8674   -0.5993    0.0000 H   0  0  0  0  0  0  0  0  0  0  0  0
    2.8218    0.9308    0.0000 H   0  0  0  0  0  0  0  0  0  0  0  0
    3.7863    0.4676    0.0000 H   0  0  0  0  0  0  0  0  0  0  0  0
    0.2821   -2.9067    0.0000 H   0  0  0  0  0  0  0  0  0  0  0  0
    1.5540   -3.1887    0.0000 H   0  0  0  0  0  0  0  0  0  0  0  0
    2.9197   -2.4417    0.0000 H   0  0  0  0  0  0  0  0  0  0  0  0
    2.5279   -1.1992    0.0000 H   0  0  0  0  0  0  0  0  0  0  0  0
   -0.0449   -2.4758    0.0000 H   0  0  0  0  0  0  0  0  0  0  0  0
  1 30  1  0  0  0  0
  1 31  1  0  0  0  0
  1 32  1  0  0  0  0
  2  1  1  0  0  0  0
  2  3  1  0  0  0  0
  2  7  1  0  0  0  0
  2 33  1  6  0  0  0
  3  4  1  0  0  0  0
  3 34  1  0  0  0  0
  3 35  1  0  0  0  0
  4  5  1  0  0  0  0
  5  6  1  0  0  0  0
  5 36  1  0  0  0  0
  5 37  1  0  0  0  0
  6  7  1  0  0  0  0
  6 38  1  0  0  0  0
  6 39  1  0  0  0  0
  7  8  1  0  0  0  0
  8  9  2  0  0  0  0
  8 29  1  0  0  0  0
  9 10  1  0  0  0  0
 10 11  1  0  0  0  0
 10 20  2  0  0  0  0
 11 12  2  0  0  0  0
 11 19  1  0  0  0  0
 12 13  1  0  0  0  0
 12 40  1  0  0  0  0
 13 14  2  0  0  0  0
 14 15  1  0  0  0  0
 14 41  1  0  0  0  0
 15 16  1  0  0  0  0
 15 19  2  0  0  0  0
 16 42  1  0  0  0  0
 17 16  1  0  0  0  0
 17 43  1  0  0  0  0
 18 17  2  0  0  0  0
 18 44  1  0  0  0  0
 19 18  1  0  0  0  0
 20 21  1  0  0  0  0
 21 22  1  0  0  0  0
 21 29  2  0  0  0  0
 22 23  1  0  0  0  0
 22 27  1  0  0  0  0
 22 28  1  0  0  0  0
 23 24  2  6  0  0  0
 23 25  2  0  0  0  0
 23 26  1  0  0  0  0
 25 45  1  0  0  0  0
 26 46  1  0  0  0  0
 26 47  1  0  0  0  0
 26 48  1  0  0  0  0
 27 28  1  0  0  0  0
 27 49  1  0  0  0  0
 27 50  1  0  0  0  0
 28 51  1  0  0  0  0
 28 52  1  0  0  0  0
 29 53  1  0  0  0  0
M  END
>  <DRUGBANK_ID>
DB14917

>  <COMMON_NAME>
Ceralasertib

>  <CAS_NUMBER>
1352226-88-0

>  <UNII>
85RE35306Z

>  <SYNONYMS>
Ceralasertib

$$$$
