
 OpenBabel10282417072D

132131  0  0  1  0  0  0  0  0999 V2000
   15.0805   -9.2962    0.0000 C   0  0  0  0  0  0  0  0  0  0  0  0
   14.3753   -9.7033    0.0000 C   0  0  1  0  0  0  0  0  0  0  0  0
   13.6701   -9.2962    0.0000 C   0  0  0  0  0  0  0  0  0  0  0  0
   15.7857   -9.7033    0.0000 O   0  0  0  0  0  0  0  0  0  0  0  0
   12.9650   -9.7033    0.0000 O   0  0  0  0  0  0  0  0  0  0  0  0
   14.3753  -10.5175    0.0000 O   0  0  0  0  0  0  0  0  0  0  0  0
   16.4908   -9.2962    0.0000 P   0  0  3  0  0  0  0  0  0  0  0  0
   16.8980  -10.0013    0.0000 O   0  5  0  0  0  0  0  0  0  0  0  0
   16.0837   -8.5909    0.0000 O   0  0  0  0  0  0  0  0  0  0  0  0
   17.1960   -8.8890    0.0000 O   0  0  0  0  0  0  0  0  0  0  0  0
   17.9012   -9.2962    0.0000 C   0  0  0  0  0  0  0  0  0  0  0  0
   18.6064   -8.8890    0.0000 C   0  0  0  0  0  0  0  0  0  0  0  0
   19.3116   -9.2962    0.0000 N   0  3  0  0  0  0  0  0  0  0  0  0
   18.9044  -10.0013    0.0000 C   0  0  0  0  0  0  0  0  0  0  0  0
   19.9642   -8.4436    0.0000 C   0  0  0  0  0  0  0  0  0  0  0  0
   20.0167   -9.7033    0.0000 C   0  0  0  0  0  0  0  0  0  0  0  0
    1.5335   -9.7033    0.0000 C   0  0  0  0  0  0  0  0  0  0  0  0
    2.2479   -9.2908    0.0000 C   0  0  0  0  0  0  0  0  0  0  0  0
    2.9624   -9.7033    0.0000 C   0  0  0  0  0  0  0  0  0  0  0  0
    3.6769   -9.2908    0.0000 C   0  0  0  0  0  0  0  0  0  0  0  0
    4.3913   -9.7033    0.0000 C   0  0  0  0  0  0  0  0  0  0  0  0
    5.1058   -9.2908    0.0000 C   0  0  0  0  0  0  0  0  0  0  0  0
    5.8203   -9.7033    0.0000 C   0  0  0  0  0  0  0  0  0  0  0  0
    6.5347   -9.2908    0.0000 C   0  0  0  0  0  0  0  0  0  0  0  0
    7.2492   -9.7033    0.0000 C   0  0  0  0  0  0  0  0  0  0  0  0
    7.9637   -9.2908    0.0000 C   0  0  0  0  0  0  0  0  0  0  0  0
    8.6781   -9.7033    0.0000 C   0  0  0  0  0  0  0  0  0  0  0  0
    9.3926   -9.2908    0.0000 C   0  0  0  0  0  0  0  0  0  0  0  0
   10.1071   -9.7033    0.0000 C   0  0  0  0  0  0  0  0  0  0  0  0
   10.8216   -9.2908    0.0000 C   0  0  0  0  0  0  0  0  0  0  0  0
   11.5360   -9.7033    0.0000 C   0  0  0  0  0  0  0  0  0  0  0  0
   12.2505   -9.2908    0.0000 C   0  0  0  0  0  0  0  0  0  0  0  0
   12.2505   -8.4658    0.0000 O   0  0  0  0  0  0  0  0  0  0  0  0
    1.5147  -10.5175    0.0000 C   0  0  0  0  0  0  0  0  0  0  0  0
    2.2292  -10.9300    0.0000 C   0  0  0  0  0  0  0  0  0  0  0  0
    2.9437  -10.5175    0.0000 C   0  0  0  0  0  0  0  0  0  0  0  0
    3.6581  -10.9300    0.0000 C   0  0  0  0  0  0  0  0  0  0  0  0
    4.3726  -10.5175    0.0000 C   0  0  0  0  0  0  0  0  0  0  0  0
    5.0871  -10.9300    0.0000 C   0  0  0  0  0  0  0  0  0  0  0  0
    5.8016  -10.9300    0.0000 C   0  0  0  0  0  0  0  0  0  0  0  0
    6.5161  -10.5175    0.0000 C   0  0  0  0  0  0  0  0  0  0  0  0
    7.2305  -10.9300    0.0000 C   0  0  0  0  0  0  0  0  0  0  0  0
    7.9450  -10.9300    0.0000 C   0  0  0  0  0  0  0  0  0  0  0  0
    8.6595  -10.5175    0.0000 C   0  0  0  0  0  0  0  0  0  0  0  0
    9.3739  -10.9300    0.0000 C   0  0  0  0  0  0  0  0  0  0  0  0
   10.0885  -10.5175    0.0000 C   0  0  0  0  0  0  0  0  0  0  0  0
   10.8029  -10.9300    0.0000 C   0  0  0  0  0  0  0  0  0  0  0  0
   11.5174  -10.5175    0.0000 C   0  0  0  0  0  0  0  0  0  0  0  0
   12.2319  -10.9300    0.0000 C   0  0  0  0  0  0  0  0  0  0  0  0
   12.9464  -10.5175    0.0000 C   0  0  0  0  0  0  0  0  0  0  0  0
   13.6608  -10.9300    0.0000 C   0  0  0  0  0  0  0  0  0  0  0  0
   13.6608  -11.7551    0.0000 O   0  0  0  0  0  0  0  0  0  0  0  0
   15.2528  -10.3421    0.0000 H   0  0  0  0  0  0  0  0  0  0  0  0
   15.0805   -8.2262    0.0000 H   0  0  0  0  0  0  0  0  0  0  0  0
   16.0071   -8.7612    0.0000 H   0  0  0  0  0  0  0  0  0  0  0  0
   13.6701   -8.2262    0.0000 H   0  0  0  0  0  0  0  0  0  0  0  0
   12.7434   -8.7612    0.0000 H   0  0  0  0  0  0  0  0  0  0  0  0
   17.9012  -10.3662    0.0000 H   0  0  0  0  0  0  0  0  0  0  0  0
   18.8279   -9.8312    0.0000 H   0  0  0  0  0  0  0  0  0  0  0  0
   18.6064   -7.8190    0.0000 H   0  0  0  0  0  0  0  0  0  0  0  0
   19.5331   -8.3540    0.0000 H   0  0  0  0  0  0  0  0  0  0  0  0
   17.8344  -10.0012    0.0000 H   0  0  0  0  0  0  0  0  0  0  0  0
   19.4393  -10.9280    0.0000 H   0  0  0  0  0  0  0  0  0  0  0  0
   18.3693  -10.9279    0.0000 H   0  0  0  0  0  0  0  0  0  0  0  0
   21.0252   -8.5820    0.0000 H   0  0  0  0  0  0  0  0  0  0  0  0
   19.5535   -7.4555    0.0000 H   0  0  0  0  0  0  0  0  0  0  0  0
   20.6146   -7.5939    0.0000 H   0  0  0  0  0  0  0  0  0  0  0  0
   20.0167  -10.7733    0.0000 H   0  0  0  0  0  0  0  0  0  0  0  0
   20.9434   -9.1683    0.0000 H   0  0  0  0  0  0  0  0  0  0  0  0
   20.9433  -10.2383    0.0000 H   0  0  0  0  0  0  0  0  0  0  0  0
    0.6068   -9.1683    0.0000 H   0  0  0  0  0  0  0  0  0  0  0  0
    1.5335  -10.7733    0.0000 H   0  0  0  0  0  0  0  0  0  0  0  0
    0.6069  -10.2383    0.0000 H   0  0  0  0  0  0  0  0  0  0  0  0
    2.2479   -8.2208    0.0000 H   0  0  0  0  0  0  0  0  0  0  0  0
    3.1745   -8.7558    0.0000 H   0  0  0  0  0  0  0  0  0  0  0  0
    2.9624  -10.7733    0.0000 H   0  0  0  0  0  0  0  0  0  0  0  0
    3.8890  -10.2383    0.0000 H   0  0  0  0  0  0  0  0  0  0  0  0
    3.6769   -8.2208    0.0000 H   0  0  0  0  0  0  0  0  0  0  0  0
    4.6036   -8.7558    0.0000 H   0  0  0  0  0  0  0  0  0  0  0  0
    4.3913  -10.7733    0.0000 H   0  0  0  0  0  0  0  0  0  0  0  0
    5.3179  -10.2383    0.0000 H   0  0  0  0  0  0  0  0  0  0  0  0
    5.1058   -8.2208    0.0000 H   0  0  0  0  0  0  0  0  0  0  0  0
    6.0324   -8.7558    0.0000 H   0  0  0  0  0  0  0  0  0  0  0  0
    5.8203  -10.7733    0.0000 H   0  0  0  0  0  0  0  0  0  0  0  0
    6.7470  -10.2383    0.0000 H   0  0  0  0  0  0  0  0  0  0  0  0
    6.5347   -8.2208    0.0000 H   0  0  0  0  0  0  0  0  0  0  0  0
    7.4613   -8.7558    0.0000 H   0  0  0  0  0  0  0  0  0  0  0  0
    7.2492  -10.7733    0.0000 H   0  0  0  0  0  0  0  0  0  0  0  0
    8.1758  -10.2383    0.0000 H   0  0  0  0  0  0  0  0  0  0  0  0
    7.9637   -8.2208    0.0000 H   0  0  0  0  0  0  0  0  0  0  0  0
    8.8904   -8.7558    0.0000 H   0  0  0  0  0  0  0  0  0  0  0  0
    8.6781  -10.7733    0.0000 H   0  0  0  0  0  0  0  0  0  0  0  0
    9.6047  -10.2383    0.0000 H   0  0  0  0  0  0  0  0  0  0  0  0
    9.3926   -8.2208    0.0000 H   0  0  0  0  0  0  0  0  0  0  0  0
   10.3192   -8.7558    0.0000 H   0  0  0  0  0  0  0  0  0  0  0  0
   10.1071  -10.7733    0.0000 H   0  0  0  0  0  0  0  0  0  0  0  0
   11.0337  -10.2383    0.0000 H   0  0  0  0  0  0  0  0  0  0  0  0
   10.8216   -8.2208    0.0000 H   0  0  0  0  0  0  0  0  0  0  0  0
   11.7483   -8.7558    0.0000 H   0  0  0  0  0  0  0  0  0  0  0  0
   11.5360  -10.7733    0.0000 H   0  0  0  0  0  0  0  0  0  0  0  0
   12.4626  -10.2383    0.0000 H   0  0  0  0  0  0  0  0  0  0  0  0
    1.5147   -9.4475    0.0000 H   0  0  0  0  0  0  0  0  0  0  0  0
    0.5881  -11.0525    0.0000 H   0  0  0  0  0  0  0  0  0  0  0  0
    0.5880   -9.9825    0.0000 H   0  0  0  0  0  0  0  0  0  0  0  0
    2.2292  -12.0000    0.0000 H   0  0  0  0  0  0  0  0  0  0  0  0
    3.1558  -11.4650    0.0000 H   0  0  0  0  0  0  0  0  0  0  0  0
    2.9437   -9.4475    0.0000 H   0  0  0  0  0  0  0  0  0  0  0  0
    3.8704   -9.9825    0.0000 H   0  0  0  0  0  0  0  0  0  0  0  0
    3.6581  -12.0000    0.0000 H   0  0  0  0  0  0  0  0  0  0  0  0
    4.5847  -11.4650    0.0000 H   0  0  0  0  0  0  0  0  0  0  0  0
    4.3726   -9.4475    0.0000 H   0  0  0  0  0  0  0  0  0  0  0  0
    5.2992   -9.9825    0.0000 H   0  0  0  0  0  0  0  0  0  0  0  0
    4.8200  -11.9268    0.0000 H   0  0  0  0  0  0  0  0  0  0  0  0
    6.0687  -11.9268    0.0000 H   0  0  0  0  0  0  0  0  0  0  0  0
    6.5161   -9.4475    0.0000 H   0  0  0  0  0  0  0  0  0  0  0  0
    7.4428   -9.9825    0.0000 H   0  0  0  0  0  0  0  0  0  0  0  0
    6.9634  -11.9268    0.0000 H   0  0  0  0  0  0  0  0  0  0  0  0
    8.2121  -11.9268    0.0000 H   0  0  0  0  0  0  0  0  0  0  0  0
    8.6595   -9.4475    0.0000 H   0  0  0  0  0  0  0  0  0  0  0  0
    9.5862   -9.9825    0.0000 H   0  0  0  0  0  0  0  0  0  0  0  0
    9.3738  -12.0000    0.0000 H   0  0  0  0  0  0  0  0  0  0  0  0
   10.3005  -11.4651    0.0000 H   0  0  0  0  0  0  0  0  0  0  0  0
   10.0886   -9.4475    0.0000 H   0  0  0  0  0  0  0  0  0  0  0  0
   11.0152   -9.9825    0.0000 H   0  0  0  0  0  0  0  0  0  0  0  0
   10.8029  -12.0000    0.0000 H   0  0  0  0  0  0  0  0  0  0  0  0
   11.7295  -11.4650    0.0000 H   0  0  0  0  0  0  0  0  0  0  0  0
   11.5174   -9.4475    0.0000 H   0  0  0  0  0  0  0  0  0  0  0  0
   12.4440   -9.9825    0.0000 H   0  0  0  0  0  0  0  0  0  0  0  0
   12.2319  -12.0000    0.0000 H   0  0  0  0  0  0  0  0  0  0  0  0
   13.1585  -11.4650    0.0000 H   0  0  0  0  0  0  0  0  0  0  0  0
   12.9464   -9.4475    0.0000 H   0  0  0  0  0  0  0  0  0  0  0  0
   13.8731   -9.9825    0.0000 H   0  0  0  0  0  0  0  0  0  0  0  0
  1  4  1  0  0  0  0
  1 54  1  0  0  0  0
  1 55  1  0  0  0  0
  2  1  1  0  0  0  0
  2  6  1  0  0  0  0
  2 53  1  1  0  0  0
  3  2  1  0  0  0  0
  3  5  1  0  0  0  0
  3 56  1  0  0  0  0
  3 57  1  0  0  0  0
  4  7  1  0  0  0  0
  6 51  1  0  0  0  0
  7  8  1  0  0  0  0
  7  9  2  0  0  0  0
  7 10  1  0  0  0  0
 10 11  1  0  0  0  0
 11 12  1  0  0  0  0
 11 58  1  0  0  0  0
 11 59  1  0  0  0  0
 12 13  1  0  0  0  0
 12 60  1  0  0  0  0
 12 61  1  0  0  0  0
 13 14  1  0  0  0  0
 13 15  1  0  0  0  0
 13 16  1  0  0  0  0
 14 62  1  0  0  0  0
 14 63  1  0  0  0  0
 14 64  1  0  0  0  0
 15 65  1  0  0  0  0
 15 66  1  0  0  0  0
 15 67  1  0  0  0  0
 16 68  1  0  0  0  0
 16 69  1  0  0  0  0
 16 70  1  0  0  0  0
 17 18  1  0  0  0  0
 17 71  1  0  0  0  0
 17 72  1  0  0  0  0
 17 73  1  0  0  0  0
 18 19  1  0  0  0  0
 18 74  1  0  0  0  0
 18 75  1  0  0  0  0
 19 20  1  0  0  0  0
 19 76  1  0  0  0  0
 19 77  1  0  0  0  0
 20 21  1  0  0  0  0
 20 78  1  0  0  0  0
 20 79  1  0  0  0  0
 21 22  1  0  0  0  0
 21 80  1  0  0  0  0
 21 81  1  0  0  0  0
 22 23  1  0  0  0  0
 22 82  1  0  0  0  0
 22 83  1  0  0  0  0
 23 24  1  0  0  0  0
 23 84  1  0  0  0  0
 23 85  1  0  0  0  0
 24 25  1  0  0  0  0
 24 86  1  0  0  0  0
 24 87  1  0  0  0  0
 25 26  1  0  0  0  0
 25 88  1  0  0  0  0
 25 89  1  0  0  0  0
 26 27  1  0  0  0  0
 26 90  1  0  0  0  0
 26 91  1  0  0  0  0
 27 28  1  0  0  0  0
 27 92  1  0  0  0  0
 27 93  1  0  0  0  0
 28 29  1  0  0  0  0
 28 94  1  0  0  0  0
 28 95  1  0  0  0  0
 29 30  1  0  0  0  0
 29 96  1  0  0  0  0
 29 97  1  0  0  0  0
 30 31  1  0  0  0  0
 30 98  1  0  0  0  0
 30 99  1  0  0  0  0
 31 32  1  0  0  0  0
 31100  1  0  0  0  0
 31101  1  0  0  0  0
 32  5  1  0  0  0  0
 32 33  2  0  0  0  0
 34102  1  0  0  0  0
 34103  1  0  0  0  0
 34104  1  0  0  0  0
 35 34  1  0  0  0  0
 35105  1  0  0  0  0
 35106  1  0  0  0  0
 36 35  1  0  0  0  0
 36107  1  0  0  0  0
 36108  1  0  0  0  0
 37 36  1  0  0  0  0
 37109  1  0  0  0  0
 37110  1  0  0  0  0
 38 37  1  0  0  0  0
 38111  1  0  0  0  0
 38112  1  0  0  0  0
 39 38  1  0  0  0  0
 39113  1  0  0  0  0
 40 39  2  0  0  0  0
 40114  1  0  0  0  0
 41 40  1  0  0  0  0
 41115  1  0  0  0  0
 41116  1  0  0  0  0
 42 41  1  0  0  0  0
 42117  1  0  0  0  0
 43 42  2  0  0  0  0
 43118  1  0  0  0  0
 44 43  1  0  0  0  0
 44119  1  0  0  0  0
 44120  1  0  0  0  0
 45 44  1  0  0  0  0
 45121  1  0  0  0  0
 45122  1  0  0  0  0
 46 45  1  0  0  0  0
 46123  1  0  0  0  0
 46124  1  0  0  0  0
 47 46  1  0  0  0  0
 47125  1  0  0  0  0
 47126  1  0  0  0  0
 48 47  1  0  0  0  0
 48127  1  0  0  0  0
 48128  1  0  0  0  0
 49 48  1  0  0  0  0
 49129  1  0  0  0  0
 49130  1  0  0  0  0
 50 49  1  0  0  0  0
 50131  1  0  0  0  0
 50132  1  0  0  0  0
 51 50  1  0  0  0  0
 52 51  2  0  0  0  0
M  CHG  2   8  -1  13   1
M  END
>  <DRUGBANK_ID>
DB02306

>  <SECONDARY_ACCESSION_NUMBERS>
EXPT01000

>  <COMMON_NAME>
Palmitoyl-Linoleoyl Phosphatidylcholine

>  <UNII>
6UCA7I41S8

$$$$
