
 OpenBabel10282417072D

 58 61  0  0  1  0  0  0  0  0999 V2000
    0.7179    2.0361    0.0000 C   0  0  0  0  0  0  0  0  0  0  0  0
    3.2789   -3.7125    0.0000 C   0  0  0  0  0  0  0  0  0  0  0  0
    4.1039   -2.8875    0.0000 C   0  0  0  0  0  0  0  0  0  0  0  0
    1.5249    1.8646    0.0000 C   0  0  0  0  0  0  0  0  0  0  0  0
    1.8500    4.5375    0.0000 C   0  0  0  0  0  0  0  0  0  0  0  0
    1.8500    3.7125    0.0000 C   0  0  0  0  0  0  0  0  0  0  0  0
    3.2789   -1.2375    0.0000 C   0  0  0  0  0  0  0  0  0  0  0  0
    3.2789   -2.0625    0.0000 C   0  0  0  0  0  0  0  0  0  0  0  0
    2.5645    4.9500    0.0000 C   0  0  0  0  0  0  0  0  0  0  0  0
    3.2789    3.7125    0.0000 C   0  0  0  0  0  0  0  0  0  0  0  0
    3.9934    0.8250    0.0000 C   0  0  0  0  0  0  0  0  0  0  0  0
    2.5645    2.4750    0.0000 C   0  0  0  0  0  0  0  0  0  0  0  0
    2.5645    3.3000    0.0000 C   0  0  1  0  0  0  0  0  0  0  0  0
    3.2789   -0.4125    0.0000 C   0  0  0  0  0  0  0  0  0  0  0  0
    3.2789    1.2375    0.0000 C   0  0  0  0  0  0  0  0  0  0  0  0
    2.5645    0.0000    0.0000 C   0  0  0  0  0  0  0  0  0  0  0  0
    0.4699    0.4125    0.0000 C   0  0  0  0  0  0  0  0  0  0  0  0
    2.5645    0.8250    0.0000 C   0  0  0  0  0  0  0  0  0  0  0  0
   -0.0150    1.0799    0.0000 C   0  0  0  0  0  0  0  0  0  0  0  0
    1.2949    0.4125    0.0000 C   0  0  0  0  0  0  0  0  0  0  0  0
    3.2789   -2.8875    0.0000 C   0  0  0  0  0  0  0  0  0  0  0  0
    0.2399    1.8646    0.0000 N   0  0  0  0  0  0  0  0  0  0  0  0
    3.2789    4.5375    0.0000 N   0  0  0  0  0  0  0  0  0  0  0  0
    3.9934    0.0000    0.0000 N   0  0  0  0  0  0  0  0  0  0  0  0
    1.7798   -0.2549    0.0000 N   0  0  0  0  0  0  0  0  0  0  0  0
   -0.0150   -0.2549    0.0000 N   0  0  0  0  0  0  0  0  0  0  0  0
   -0.7996    0.8250    0.0000 N   0  0  0  0  0  0  0  0  0  0  0  0
    1.7798    1.0799    0.0000 N   0  0  0  0  0  0  0  0  0  0  0  0
    2.4539   -2.8875    0.0000 O   0  0  0  0  0  0  0  0  0  0  0  0
    3.2789    2.0625    0.0000 O   0  0  0  0  0  0  0  0  0  0  0  0
   -0.7996    0.0000    0.0000 O   0  0  0  0  0  0  0  0  0  0  0  0
    1.8500    2.8875    0.0000 H   0  0  0  0  0  0  0  0  0  0  0  0
    0.3872    3.0537    0.0000 H   0  0  0  0  0  0  0  0  0  0  0  0
    0.0020    1.2409    0.0000 H   0  0  0  0  0  0  0  0  0  0  0  0
   -0.3287    2.2585    0.0000 H   0  0  0  0  0  0  0  0  0  0  0  0
    2.3523   -4.2475    0.0000 H   0  0  0  0  0  0  0  0  0  0  0  0
    4.2055   -4.2475    0.0000 H   0  0  0  0  0  0  0  0  0  0  0  0
    3.2789   -4.7825    0.0000 H   0  0  0  0  0  0  0  0  0  0  0  0
    4.6389   -3.8141    0.0000 H   0  0  0  0  0  0  0  0  0  0  0  0
    4.6389   -1.9609    0.0000 H   0  0  0  0  0  0  0  0  0  0  0  0
    5.1739   -2.8875    0.0000 H   0  0  0  0  0  0  0  0  0  0  0  0
    2.2409    2.6598    0.0000 H   0  0  0  0  0  0  0  0  0  0  0  0
    2.5715    1.6421    0.0000 H   0  0  0  0  0  0  0  0  0  0  0  0
    0.9234    5.0725    0.0000 H   0  0  0  0  0  0  0  0  0  0  0  0
    1.8500    5.6075    0.0000 H   0  0  0  0  0  0  0  0  0  0  0  0
    0.9234    3.1775    0.0000 H   0  0  0  0  0  0  0  0  0  0  0  0
    1.8500    2.6425    0.0000 H   0  0  0  0  0  0  0  0  0  0  0  0
    2.5645    6.0200    0.0000 H   0  0  0  0  0  0  0  0  0  0  0  0
    3.4912    5.4850    0.0000 H   0  0  0  0  0  0  0  0  0  0  0  0
    4.2056    3.1775    0.0000 H   0  0  0  0  0  0  0  0  0  0  0  0
    4.2055    4.2475    0.0000 H   0  0  0  0  0  0  0  0  0  0  0  0
    4.8871    1.3410    0.0000 H   0  0  0  0  0  0  0  0  0  0  0  0
    1.6378    1.9400    0.0000 H   0  0  0  0  0  0  0  0  0  0  0  0
    2.5645    1.4050    0.0000 H   0  0  0  0  0  0  0  0  0  0  0  0
    1.2029    2.0694    0.0000 H   0  0  0  0  0  0  0  0  0  0  0  0
   -0.4189    2.5962    0.0000 H   0  0  0  0  0  0  0  0  0  0  0  0
    4.1623    5.0475    0.0000 H   0  0  0  0  0  0  0  0  0  0  0  0
    1.9689   -2.0475    0.0000 H   0  0  0  0  0  0  0  0  0  0  0  0
  1 33  1  0  0  0  0
  1 34  1  0  0  0  0
  1 35  1  0  0  0  0
  2 36  1  0  0  0  0
  2 37  1  0  0  0  0
  2 38  1  0  0  0  0
  3 39  1  0  0  0  0
  3 40  1  0  0  0  0
  3 41  1  0  0  0  0
  4  1  1  0  0  0  0
  4 42  1  0  0  0  0
  4 43  1  0  0  0  0
  5 44  1  0  0  0  0
  5 45  1  0  0  0  0
  6  5  1  0  0  0  0
  6 46  1  0  0  0  0
  6 47  1  0  0  0  0
  8  7  3  0  0  0  0
  9  5  1  0  0  0  0
  9 48  1  0  0  0  0
  9 49  1  0  0  0  0
 10 50  1  0  0  0  0
 10 51  1  0  0  0  0
 11 52  1  0  0  0  0
 12 53  1  0  0  0  0
 12 54  1  0  0  0  0
 13  6  1  0  0  0  0
 13 10  1  0  0  0  0
 13 12  1  0  0  0  0
 13 32  1  6  0  0  0
 14  7  1  0  0  0  0
 15 11  1  0  0  0  0
 16 14  2  0  0  0  0
 18 15  2  0  0  0  0
 18 16  1  0  0  0  0
 19 17  1  0  0  0  0
 20 17  1  0  0  0  0
 21  2  1  0  0  0  0
 21  3  1  0  0  0  0
 21  8  1  0  0  0  0
 22 19  1  0  0  0  0
 22 55  1  0  0  0  0
 22 56  1  0  0  0  0
 23  9  1  0  0  0  0
 23 10  1  0  0  0  0
 23 57  1  0  0  0  0
 24 11  2  0  0  0  0
 24 14  1  0  0  0  0
 25 16  1  0  0  0  0
 25 20  2  0  0  0  0
 26 17  2  0  0  0  0
 27 19  2  0  0  0  0
 28  4  1  0  0  0  0
 28 18  1  0  0  0  0
 28 20  1  0  0  0  0
 29 21  1  0  0  0  0
 29 58  1  0  0  0  0
 30 12  1  0  0  0  0
 30 15  1  0  0  0  0
 31 26  1  0  0  0  0
 31 27  1  0  0  0  0
M  END
>  <DRUGBANK_ID>
DB12745

>  <COMMON_NAME>
GSK-690693

>  <CAS_NUMBER>
937174-76-0

>  <UNII>
GWH480321B

$$$$
