
 OpenBabel10282417072D

 34 37  0  0  0  0  0  0  0  0999 V2000
   -1.9320   -0.6670    0.0000 S   0  0  0  0  0  0  0  0  0  0  0  0
    2.2986   -1.4921    0.0000 O   0  0  0  0  0  0  0  0  0  0  0  0
   -0.0581    0.6200    0.0000 O   0  0  0  0  0  0  0  0  0  0  0  0
   -2.6466   -0.2544    0.0000 O   0  0  0  0  0  0  0  0  0  0  0  0
   -1.5195    0.0474    0.0000 O   0  0  0  0  0  0  0  0  0  0  0  0
   -2.3446   -1.3815    0.0000 O   0  0  0  0  0  0  0  0  0  0  0  0
    2.0289    0.2074    0.0000 N   0  0  0  0  0  0  0  0  0  0  0  0
    0.9920   -2.1560    0.0000 N   0  0  0  0  0  0  0  0  0  0  0  0
    0.9920   -0.8281    0.0000 C   0  0  0  0  0  0  0  0  0  0  0  0
    0.2113   -1.0795    0.0000 C   0  0  0  0  0  0  0  0  0  0  0  0
    1.2484   -0.0439    0.0000 C   0  0  0  0  0  0  0  0  0  0  0  0
    0.2113   -1.9045    0.0000 C   0  0  0  0  0  0  0  0  0  0  0  0
    1.4736   -1.4921    0.0000 C   0  0  0  0  0  0  0  0  0  0  0  0
    1.2484    1.2839    0.0000 C   0  0  0  0  0  0  0  0  0  0  0  0
    2.0325    1.0275    0.0000 C   0  0  0  0  0  0  0  0  0  0  0  0
    0.7668    0.6200    0.0000 C   0  0  0  0  0  0  0  0  0  0  0  0
   -0.5031   -0.6670    0.0000 C   0  0  0  0  0  0  0  0  0  0  0  0
   -1.2175   -1.0795    0.0000 C   0  0  0  0  0  0  0  0  0  0  0  0
   -0.5031   -2.3171    0.0000 C   0  0  0  0  0  0  0  0  0  0  0  0
   -1.2175   -1.9045    0.0000 C   0  0  0  0  0  0  0  0  0  0  0  0
    1.0782    2.0912    0.0000 C   0  0  0  0  0  0  0  0  0  0  0  0
    2.6466    1.5786    0.0000 C   0  0  0  0  0  0  0  0  0  0  0  0
    1.6923    2.6422    0.0000 C   0  0  0  0  0  0  0  0  0  0  0  0
    2.4765    2.3859    0.0000 C   0  0  0  0  0  0  0  0  0  0  0  0
    2.4418   -0.0946    0.0000 H   0  0  0  0  0  0  0  0  0  0  0  0
    1.1509   -2.6422    0.0000 H   0  0  0  0  0  0  0  0  0  0  0  0
   -2.6466    0.7156    0.0000 H   0  0  0  0  0  0  0  0  0  0  0  0
   -0.5031    0.3650    0.0000 H   0  0  0  0  0  0  0  0  0  0  0  0
   -0.5031   -3.3491    0.0000 H   0  0  0  0  0  0  0  0  0  0  0  0
   -2.1113   -2.4204    0.0000 H   0  0  0  0  0  0  0  0  0  0  0  0
    0.0973    2.4118    0.0000 H   0  0  0  0  0  0  0  0  0  0  0  0
    3.6275    1.2580    0.0000 H   0  0  0  0  0  0  0  0  0  0  0  0
    1.4795    3.6520    0.0000 H   0  0  0  0  0  0  0  0  0  0  0  0
    3.2446    3.0751    0.0000 H   0  0  0  0  0  0  0  0  0  0  0  0
  1  4  1  0  0  0  0
  1  5  2  0  0  0  0
  1  6  2  0  0  0  0
  1 18  1  0  0  0  0
  2 13  2  0  0  0  0
  3 16  2  0  0  0  0
  4 27  1  0  0  0  0
  7 11  1  0  0  0  0
  7 15  1  0  0  0  0
  7 25  1  0  0  0  0
  8 12  1  0  0  0  0
  8 13  1  0  0  0  0
  8 26  1  0  0  0  0
  9 10  1  0  0  0  0
  9 11  2  0  0  0  0
  9 13  1  0  0  0  0
 10 12  2  0  0  0  0
 10 17  1  0  0  0  0
 11 16  1  0  0  0  0
 12 19  1  0  0  0  0
 14 15  1  0  0  0  0
 14 16  1  0  0  0  0
 14 21  2  0  0  0  0
 15 22  2  0  0  0  0
 17 18  2  0  0  0  0
 17 28  1  0  0  0  0
 18 20  1  0  0  0  0
 19 20  2  0  0  0  0
 19 29  1  0  0  0  0
 20 30  1  0  0  0  0
 21 23  1  0  0  0  0
 21 31  1  0  0  0  0
 22 24  1  0  0  0  0
 22 32  1  0  0  0  0
 23 24  2  0  0  0  0
 23 33  1  0  0  0  0
 24 34  1  0  0  0  0
M  END
>  <DRUGBANK_ID>
DB02519

>  <SECONDARY_ACCESSION_NUMBERS>
EXPT01891

>  <COMMON_NAME>
Indirubin-5-sulphonate

>  <CAS_NUMBER>
244021-67-8

$$$$
