
 OpenBabel10282417072D

 17 18  0  0  0  0  0  0  0  0999 V2000
   -0.3244    0.8370    0.0000 C   0  0  0  0  0  0  0  0  0  0  0  0
   -0.3244    0.0120    0.0000 C   0  0  0  0  0  0  0  0  0  0  0  0
    0.4337    1.1132    0.0000 O   0  0  0  0  0  0  0  0  0  0  0  0
   -1.0567    1.2337    0.0000 C   0  0  0  0  0  0  0  0  0  0  0  0
    0.4727   -0.2178    0.0000 C   0  0  0  0  0  0  0  0  0  0  0  0
   -1.0326   -0.4069    0.0000 C   0  0  3  0  0  0  0  0  0  0  0  0
    0.9380    0.4421    0.0000 C   0  0  0  0  0  0  0  0  0  0  0  0
   -1.7649    0.8166    0.0000 C   0  0  0  0  0  0  0  0  0  0  0  0
   -1.7649   -0.0083    0.0000 O   0  0  0  0  0  0  0  0  0  0  0  0
   -1.0326   -1.2337    0.0000 O   0  0  0  0  0  0  0  0  0  0  0  0
    1.7649    0.4421    0.0000 O   0  0  0  0  0  0  0  0  0  0  0  0
   -1.0752    2.2655    0.0000 H   0  0  0  0  0  0  0  0  0  0  0  0
    0.8149   -1.1914    0.0000 H   0  0  0  0  0  0  0  0  0  0  0  0
   -1.0517    0.6629    0.0000 H   0  0  0  0  0  0  0  0  0  0  0  0
   -2.6939    1.3476    0.0000 H   0  0  0  0  0  0  0  0  0  0  0  0
   -2.6904    0.2796    0.0000 H   0  0  0  0  0  0  0  0  0  0  0  0
   -1.8726   -1.7187    0.0000 H   0  0  0  0  0  0  0  0  0  0  0  0
  1  2  1  0  0  0  0
  1  3  1  0  0  0  0
  1  4  2  0  0  0  0
  2  5  2  0  0  0  0
  2  6  1  0  0  0  0
  3  7  1  0  0  0  0
  4  8  1  0  0  0  0
  4 12  1  0  0  0  0
  5  7  1  0  0  0  0
  5 13  1  0  0  0  0
  6  9  1  0  0  0  0
  6 10  1  0  0  0  0
  6 14  1  0  0  0  0
  7 11  2  0  0  0  0
  8  9  1  0  0  0  0
  8 15  1  0  0  0  0
  8 16  1  0  0  0  0
 10 17  1  0  0  0  0
M  END
>  <DRUGBANK_ID>
DB15586

>  <COMMON_NAME>
Patulin

>  <CAS_NUMBER>
149-29-1

>  <UNII>
95X2BV4W8R

>  <SYNONYMS>
Clavacin; Clavatin; Claviformin; Expansine; Mycoin C3; Patulin; Patuline

$$$$
