
 OpenBabel10282417072D

 69 72  0  0  1  0  0  0  0  0999 V2000
   13.6617  -12.0997    0.0000 C   0  0  2  0  0  0  0  0  0  0  0  0
   12.9426  -11.6994    0.0000 C   0  0  1  0  0  0  0  0  0  0  0  0
   14.4054  -11.6923    0.0000 C   0  0  1  0  0  0  0  0  0  0  0  0
   13.6652  -12.9214    0.0000 C   0  0  0  0  0  0  0  0  0  0  0  0
   12.2377  -12.1103    0.0000 C   0  0  2  0  0  0  0  0  0  0  0  0
   12.9391  -10.8812    0.0000 C   0  0  0  0  0  0  0  0  0  0  0  0
   14.3985  -10.8776    0.0000 C   0  0  2  0  0  0  0  0  0  0  0  0
   15.7975  -11.6923    0.0000 C   0  0  0  0  0  0  0  0  0  0  0  0
   12.9532  -13.3429    0.0000 C   0  0  0  0  0  0  0  0  0  0  0  0
   12.2483  -12.9320    0.0000 C   0  0  0  0  0  0  0  0  0  0  0  0
   11.5292  -11.7065    0.0000 C   0  0  0  0  0  0  0  0  0  0  0  0
   12.2341  -11.2956    0.0000 C   0  0  0  0  0  0  0  0  0  0  0  0
   13.6475  -10.4703    0.0000 C   0  0  0  0  0  0  0  0  0  0  0  0
   15.0714  -10.4562    0.0000 C   0  0  2  0  0  0  0  0  0  0  0  0
   14.3913  -10.0204    0.0000 C   0  0  0  0  0  0  0  0  0  0  0  0
   15.7870  -10.8705    0.0000 C   0  0  0  0  0  0  0  0  0  0  0  0
   11.5364  -13.3500    0.0000 C   0  0  0  0  0  0  0  0  0  0  0  0
   10.8174  -12.1173    0.0000 C   0  0  0  0  0  0  0  0  0  0  0  0
   15.0679   -9.5990    0.0000 O   0  0  0  0  0  0  0  0  0  0  0  0
   10.8210  -12.9391    0.0000 C   0  0  0  0  0  0  0  0  0  0  0  0
   10.0877  -13.3642    0.0000 O   0  0  0  0  0  0  0  0  0  0  0  0
   13.6546  -11.2425    0.0000 H   0  0  0  0  0  0  0  0  0  0  0  0
   12.9355  -12.5531    0.0000 H   0  0  0  0  0  0  0  0  0  0  0  0
   14.4020  -12.5388    0.0000 H   0  0  0  0  0  0  0  0  0  0  0  0
   15.7948   -9.1755    0.0000 C   0  0  0  0  0  0  0  0  0  0  0  0
   16.5304   -9.5962    0.0000 C   0  0  0  0  0  0  0  0  0  0  0  0
   15.7915   -8.3335    0.0000 O   0  0  0  0  0  0  0  0  0  0  0  0
   17.2439   -9.1806    0.0000 C   0  0  0  0  0  0  0  0  0  0  0  0
   17.9748   -9.5990    0.0000 C   0  0  0  0  0  0  0  0  0  0  0  0
   18.6907   -9.1820    0.0000 C   0  0  0  0  0  0  0  0  0  0  0  0
   19.4204   -9.5998    0.0000 C   0  0  0  0  0  0  0  0  0  0  0  0
   20.1369   -9.1825    0.0000 C   0  0  0  0  0  0  0  0  0  0  0  0
   14.5959  -13.4494    0.0000 H   0  0  0  0  0  0  0  0  0  0  0  0
   13.6751  -13.9914    0.0000 H   0  0  0  0  0  0  0  0  0  0  0  0
   12.0108  -10.3491    0.0000 H   0  0  0  0  0  0  0  0  0  0  0  0
   12.9363   -9.8112    0.0000 H   0  0  0  0  0  0  0  0  0  0  0  0
   16.5589  -12.4441    0.0000 H   0  0  0  0  0  0  0  0  0  0  0  0
   16.7821  -11.2734    0.0000 H   0  0  0  0  0  0  0  0  0  0  0  0
   12.9568  -14.4129    0.0000 H   0  0  0  0  0  0  0  0  0  0  0  0
   12.0263  -13.8775    0.0000 H   0  0  0  0  0  0  0  0  0  0  0  0
   11.5263  -10.6365    0.0000 H   0  0  0  0  0  0  0  0  0  0  0  0
   10.6019  -11.1727    0.0000 H   0  0  0  0  0  0  0  0  0  0  0  0
   13.1584  -10.7565    0.0000 H   0  0  0  0  0  0  0  0  0  0  0  0
   11.3051  -10.7647    0.0000 H   0  0  0  0  0  0  0  0  0  0  0  0
   12.2294  -10.2256    0.0000 H   0  0  0  0  0  0  0  0  0  0  0  0
   13.6322   -9.4004    0.0000 H   0  0  0  0  0  0  0  0  0  0  0  0
   14.5630   -9.9164    0.0000 H   0  0  0  0  0  0  0  0  0  0  0  0
   14.1342   -9.9398    0.0000 H   0  0  0  0  0  0  0  0  0  0  0  0
   15.3134   -9.4776    0.0000 H   0  0  0  0  0  0  0  0  0  0  0  0
   13.4602   -9.4932    0.0000 H   0  0  0  0  0  0  0  0  0  0  0  0
   14.3823   -8.9504    0.0000 H   0  0  0  0  0  0  0  0  0  0  0  0
   16.7105  -10.3301    0.0000 H   0  0  0  0  0  0  0  0  0  0  0  0
   15.7845   -9.8005    0.0000 H   0  0  0  0  0  0  0  0  0  0  0  0
   11.5413  -14.3820    0.0000 H   0  0  0  0  0  0  0  0  0  0  0  0
    9.8896  -11.5843    0.0000 H   0  0  0  0  0  0  0  0  0  0  0  0
    9.8925  -12.6553    0.0000 H   0  0  0  0  0  0  0  0  0  0  0  0
   16.5346  -10.6662    0.0000 H   0  0  0  0  0  0  0  0  0  0  0  0
   17.4591  -10.1276    0.0000 H   0  0  0  0  0  0  0  0  0  0  0  0
   17.2399   -8.1106    0.0000 H   0  0  0  0  0  0  0  0  0  0  0  0
   18.1685   -8.6422    0.0000 H   0  0  0  0  0  0  0  0  0  0  0  0
   17.9788  -10.6690    0.0000 H   0  0  0  0  0  0  0  0  0  0  0  0
   18.9035  -10.1305    0.0000 H   0  0  0  0  0  0  0  0  0  0  0  0
   18.6867   -8.1120    0.0000 H   0  0  0  0  0  0  0  0  0  0  0  0
   19.6154   -8.6436    0.0000 H   0  0  0  0  0  0  0  0  0  0  0  0
   19.4244  -10.6698    0.0000 H   0  0  0  0  0  0  0  0  0  0  0  0
   20.3490  -10.1313    0.0000 H   0  0  0  0  0  0  0  0  0  0  0  0
   21.0656   -9.7140    0.0000 H   0  0  0  0  0  0  0  0  0  0  0  0
   20.1328   -8.1125    0.0000 H   0  0  0  0  0  0  0  0  0  0  0  0
   21.0615   -8.6440    0.0000 H   0  0  0  0  0  0  0  0  0  0  0  0
  1  2  1  0  0  0  0
  1  3  1  0  0  0  0
  1  4  1  0  0  0  0
  1 22  1  1  0  0  0
  2  5  1  0  0  0  0
  2  6  1  0  0  0  0
  2 23  1  6  0  0  0
  3  7  1  0  0  0  0
  3  8  1  0  0  0  0
  3 24  1  6  0  0  0
  4  9  1  0  0  0  0
  4 33  1  0  0  0  0
  4 34  1  0  0  0  0
  5 10  1  0  0  0  0
  5 11  1  0  0  0  0
  5 12  1  1  0  0  0
  6 13  1  0  0  0  0
  6 35  1  0  0  0  0
  6 36  1  0  0  0  0
  7 14  1  0  0  0  0
  7 15  1  1  0  0  0
  7 13  1  0  0  0  0
  8 16  1  0  0  0  0
  8 37  1  0  0  0  0
  8 38  1  0  0  0  0
  9 10  1  0  0  0  0
  9 39  1  0  0  0  0
  9 40  1  0  0  0  0
 10 17  2  0  0  0  0
 11 18  1  0  0  0  0
 11 41  1  0  0  0  0
 11 42  1  0  0  0  0
 12 43  1  0  0  0  0
 12 44  1  0  0  0  0
 12 45  1  0  0  0  0
 13 46  1  0  0  0  0
 13 47  1  0  0  0  0
 14 19  1  0  0  0  0
 14 16  1  0  0  0  0
 14 48  1  6  0  0  0
 15 49  1  0  0  0  0
 15 50  1  0  0  0  0
 15 51  1  0  0  0  0
 16 52  1  0  0  0  0
 16 53  1  0  0  0  0
 17 20  1  0  0  0  0
 17 54  1  0  0  0  0
 18 20  1  0  0  0  0
 18 55  1  0  0  0  0
 18 56  1  0  0  0  0
 19 25  1  0  0  0  0
 20 21  2  0  0  0  0
 25 26  1  0  0  0  0
 25 27  2  0  0  0  0
 26 28  1  0  0  0  0
 26 57  1  0  0  0  0
 26 58  1  0  0  0  0
 28 29  1  0  0  0  0
 28 59  1  0  0  0  0
 28 60  1  0  0  0  0
 29 30  1  0  0  0  0
 29 61  1  0  0  0  0
 29 62  1  0  0  0  0
 30 31  1  0  0  0  0
 30 63  1  0  0  0  0
 30 64  1  0  0  0  0
 31 32  1  0  0  0  0
 31 65  1  0  0  0  0
 31 66  1  0  0  0  0
 32 67  1  0  0  0  0
 32 68  1  0  0  0  0
 32 69  1  0  0  0  0
M  END
>  <DRUGBANK_ID>
DB13944

>  <SECONDARY_ACCESSION_NUMBERS>
DBSALT001030; DBSALT001031; DB13945

>  <COMMON_NAME>
Testosterone enanthate

>  <CAS_NUMBER>
315-37-7

>  <UNII>
7Z6522T8N9

>  <SYNONYMS>
Testosterone enanthate; Testosterone heptanoate

$$$$
