
 OpenBabel10282417072D

 66 70  0  0  0  0  0  0  0  0999 V2000
   -1.7574   -1.4191    0.0000 O   0  0  0  0  0  0  0  0  0  0  0  0
    0.8290    1.3875    0.0000 O   0  0  0  0  0  0  0  0  0  0  0  0
   -0.3948   -0.4197    0.0000 N   0  3  3  0  0  0  0  0  0  0  0  0
   -0.6084   -1.2165    0.0000 C   0  0  3  0  0  0  0  0  0  0  0  0
    0.9028   -1.8426    0.0000 C   0  0  0  0  0  0  0  0  0  0  0  0
   -2.0373   -2.0416    0.0000 C   0  0  0  0  0  0  0  0  0  0  0  0
   -1.4150    0.2803    0.0000 C   0  0  0  0  0  0  0  0  0  0  0  0
    1.1164   -1.0457    0.0000 C   0  0  0  0  0  0  0  0  0  0  0  0
   -2.4498   -1.3271    0.0000 C   0  0  0  0  0  0  0  0  0  0  0  0
   -0.7006    0.6929    0.0000 C   0  0  0  0  0  0  0  0  0  0  0  0
   -1.0815   -1.8924    0.0000 C   0  0  0  0  0  0  0  0  0  0  0  0
   -0.1813    0.3771    0.0000 C   0  0  0  0  0  0  0  0  0  0  0  0
   -1.5548   -2.5682    0.0000 C   0  0  0  0  0  0  0  0  0  0  0  0
   -0.4057   -2.3655    0.0000 C   0  0  0  0  0  0  0  0  0  0  0  0
    0.6155    0.5907    0.0000 C   0  0  0  0  0  0  0  0  0  0  0  0
   -1.2061   -3.3158    0.0000 C   0  0  0  0  0  0  0  0  0  0  0  0
    0.3418   -2.0169    0.0000 C   0  0  0  0  0  0  0  0  0  0  0  0
   -2.3765   -2.4962    0.0000 C   0  0  0  0  0  0  0  0  0  0  0  0
   -0.4777   -3.1874    0.0000 C   0  0  0  0  0  0  0  0  0  0  0  0
   -1.6793   -3.9917    0.0000 C   0  0  0  0  0  0  0  0  0  0  0  0
    1.0176   -2.4901    0.0000 C   0  0  0  0  0  0  0  0  0  0  0  0
   -2.8498   -3.1720    0.0000 C   0  0  0  0  0  0  0  0  0  0  0  0
    0.1980   -3.6606    0.0000 C   0  0  0  0  0  0  0  0  0  0  0  0
    1.6259    1.6011    0.0000 C   0  0  0  0  0  0  0  0  0  0  0  0
   -2.5011   -3.9197    0.0000 C   0  0  0  0  0  0  0  0  0  0  0  0
    0.9457   -3.3119    0.0000 C   0  0  0  0  0  0  0  0  0  0  0  0
    1.8394    2.3978    0.0000 C   0  0  0  0  0  0  0  0  0  0  0  0
    1.2560    2.9813    0.0000 C   0  0  0  0  0  0  0  0  0  0  0  0
    2.6363    2.6115    0.0000 C   0  0  0  0  0  0  0  0  0  0  0  0
    1.4695    3.7782    0.0000 C   0  0  0  0  0  0  0  0  0  0  0  0
    2.8498    3.4083    0.0000 C   0  0  0  0  0  0  0  0  0  0  0  0
    2.2664    3.9917    0.0000 C   0  0  0  0  0  0  0  0  0  0  0  0
   -1.6728   -0.4528    0.0000 H   0  0  0  0  0  0  0  0  0  0  0  0
    1.3760   -2.8023    0.0000 H   0  0  0  0  0  0  0  0  0  0  0  0
    1.9677   -1.7378    0.0000 H   0  0  0  0  0  0  0  0  0  0  0  0
   -2.3142   -3.0751    0.0000 H   0  0  0  0  0  0  0  0  0  0  0  0
   -3.0981   -2.1813    0.0000 H   0  0  0  0  0  0  0  0  0  0  0  0
   -2.4444    0.5723    0.0000 H   0  0  0  0  0  0  0  0  0  0  0  0
   -1.5470    1.3421    0.0000 H   0  0  0  0  0  0  0  0  0  0  0  0
    2.0761   -0.5725    0.0000 H   0  0  0  0  0  0  0  0  0  0  0  0
    1.9435   -1.7246    0.0000 H   0  0  0  0  0  0  0  0  0  0  0  0
   -3.4669   -0.9949    0.0000 H   0  0  0  0  0  0  0  0  0  0  0  0
   -3.1238   -2.1581    0.0000 H   0  0  0  0  0  0  0  0  0  0  0  0
   -0.2944    1.6828    0.0000 H   0  0  0  0  0  0  0  0  0  0  0  0
   -1.5063    1.3970    0.0000 H   0  0  0  0  0  0  0  0  0  0  0  0
   -0.9379    1.1337    0.0000 H   0  0  0  0  0  0  0  0  0  0  0  0
    0.0955    1.4107    0.0000 H   0  0  0  0  0  0  0  0  0  0  0  0
    1.3721   -0.1659    0.0000 H   0  0  0  0  0  0  0  0  0  0  0  0
    0.3387   -0.4429    0.0000 H   0  0  0  0  0  0  0  0  0  0  0  0
   -0.1780   -3.4057    0.0000 H   0  0  0  0  0  0  0  0  0  0  0  0
    0.4317   -0.9888    0.0000 H   0  0  0  0  0  0  0  0  0  0  0  0
   -2.8125   -1.5608    0.0000 H   0  0  0  0  0  0  0  0  0  0  0  0
   -1.4130   -3.6235    0.0000 H   0  0  0  0  0  0  0  0  0  0  0  0
   -1.2432   -4.9270    0.0000 H   0  0  0  0  0  0  0  0  0  0  0  0
    1.9529   -2.0540    0.0000 H   0  0  0  0  0  0  0  0  0  0  0  0
   -3.8779   -3.0820    0.0000 H   0  0  0  0  0  0  0  0  0  0  0  0
    0.1080   -4.6887    0.0000 H   0  0  0  0  0  0  0  0  0  0  0  0
    2.3825    0.8445    0.0000 H   0  0  0  0  0  0  0  0  0  0  0  0
    2.6594    1.8780    0.0000 H   0  0  0  0  0  0  0  0  0  0  0  0
   -3.0931   -4.7650    0.0000 H   0  0  0  0  0  0  0  0  0  0  0  0
    1.7911   -3.9038    0.0000 H   0  0  0  0  0  0  0  0  0  0  0  0
    0.2592    2.7142    0.0000 H   0  0  0  0  0  0  0  0  0  0  0  0
    3.3661    1.8818    0.0000 H   0  0  0  0  0  0  0  0  0  0  0  0
    0.7398    4.5079    0.0000 H   0  0  0  0  0  0  0  0  0  0  0  0
    3.8466    3.6754    0.0000 H   0  0  0  0  0  0  0  0  0  0  0  0
    2.5335    4.9885    0.0000 H   0  0  0  0  0  0  0  0  0  0  0  0
  1 11  1  0  0  0  0
  1 33  1  0  0  0  0
  2 15  1  0  0  0  0
  2 24  1  0  0  0  0
  3  8  1  0  0  0  0
  3  9  1  0  0  0  0
  3 10  1  0  0  0  0
  3 12  1  0  0  0  0
  4  5  1  0  0  0  0
  4  6  1  0  0  0  0
  4  7  1  0  0  0  0
  4 11  1  0  0  0  0
  5  8  1  0  0  0  0
  5 34  1  0  0  0  0
  5 35  1  0  0  0  0
  6  9  1  0  0  0  0
  6 36  1  0  0  0  0
  6 37  1  0  0  0  0
  7 10  1  0  0  0  0
  7 38  1  0  0  0  0
  7 39  1  0  0  0  0
  8 40  1  0  0  0  0
  8 41  1  0  0  0  0
  9 42  1  0  0  0  0
  9 43  1  0  0  0  0
 10 44  1  0  0  0  0
 10 45  1  0  0  0  0
 11 13  1  0  0  0  0
 11 14  1  0  0  0  0
 12 15  1  0  0  0  0
 12 46  1  0  0  0  0
 12 47  1  0  0  0  0
 13 16  2  0  0  0  0
 13 18  1  0  0  0  0
 14 17  2  0  0  0  0
 14 19  1  0  0  0  0
 15 48  1  0  0  0  0
 15 49  1  0  0  0  0
 16 20  1  0  0  0  0
 16 50  1  0  0  0  0
 17 21  1  0  0  0  0
 17 51  1  0  0  0  0
 18 22  2  0  0  0  0
 18 52  1  0  0  0  0
 19 23  2  0  0  0  0
 19 53  1  0  0  0  0
 20 25  2  0  0  0  0
 20 54  1  0  0  0  0
 21 26  2  0  0  0  0
 21 55  1  0  0  0  0
 22 25  1  0  0  0  0
 22 56  1  0  0  0  0
 23 26  1  0  0  0  0
 23 57  1  0  0  0  0
 24 27  1  0  0  0  0
 24 58  1  0  0  0  0
 24 59  1  0  0  0  0
 25 60  1  0  0  0  0
 26 61  1  0  0  0  0
 27 28  2  0  0  0  0
 27 29  1  0  0  0  0
 28 30  1  0  0  0  0
 28 62  1  0  0  0  0
 29 31  2  0  0  0  0
 29 63  1  0  0  0  0
 30 32  2  0  0  0  0
 30 64  1  0  0  0  0
 31 32  1  0  0  0  0
 31 65  1  0  0  0  0
 32 66  1  0  0  0  0
M  CHG  1   3   1
M  END
>  <DRUGBANK_ID>
DB09076

>  <COMMON_NAME>
Umeclidinium

>  <CAS_NUMBER>
869185-19-3

>  <UNII>
GE2T1418SV

>  <SYNONYMS>
1-[2-(benzyloxy)ethyl]-4-[hydroxy(diphenyl)methyl]-1-azoniabicyclo[2.2.2]octane; Umeclidinium

$$$$
