
 OpenBabel10282417072D

 37 39  0  0  1  0  0  0  0  0999 V2000
    0.5576   -2.4195    0.0000 C   0  0  0  0  0  0  0  0  0  0  0  0
    0.3027   -1.6349    0.0000 N   0  0  0  0  0  0  0  0  0  0  0  0
    0.7876   -0.9674    0.0000 C   0  0  0  0  0  0  0  0  0  0  0  0
    0.3027   -0.3000    0.0000 N   0  3  0  0  0  0  0  0  0  0  0  0
   -0.4819   -0.5549    0.0000 C   0  0  0  0  0  0  0  0  0  0  0  0
   -0.4819   -1.3799    0.0000 C   0  0  0  0  0  0  0  0  0  0  0  0
   -1.1964   -1.7924    0.0000 C   0  0  0  0  0  0  0  0  0  0  0  0
   -1.1964   -2.6174    0.0000 O   0  0  0  0  0  0  0  0  0  0  0  0
   -1.9109   -1.3799    0.0000 N   0  0  0  0  0  0  0  0  0  0  0  0
   -1.9109   -0.5549    0.0000 C   0  0  0  0  0  0  0  0  0  0  0  0
   -1.1964   -0.1424    0.0000 N   0  0  0  0  0  0  0  0  0  0  0  0
   -2.6253   -0.1424    0.0000 N   0  0  0  0  0  0  0  0  0  0  0  0
    0.5576    0.4846    0.0000 C   0  0  1  0  0  0  0  0  0  0  0  0
    1.3423    0.7396    0.0000 C   0  0  1  0  0  0  0  0  0  0  0  0
    1.3423    1.5646    0.0000 C   0  0  1  0  0  0  0  0  0  0  0  0
    0.5576    1.8195    0.0000 C   0  0  2  0  0  0  0  0  0  0  0  0
    0.0727    1.1521    0.0000 O   0  0  0  0  0  0  0  0  0  0  0  0
    0.3027    2.6041    0.0000 C   0  0  0  0  0  0  0  0  0  0  0  0
    0.8547    3.2172    0.0000 O   0  0  0  0  0  0  0  0  0  0  0  0
    2.0097    2.0495    0.0000 O   0  0  0  0  0  0  0  0  0  0  0  0
    2.0097    0.2547    0.0000 O   0  0  0  0  0  0  0  0  0  0  0  0
   -0.1584   -3.2146    0.0000 H   0  0  0  0  0  0  0  0  0  0  0  0
    1.6042   -2.6420    0.0000 H   0  0  0  0  0  0  0  0  0  0  0  0
    0.8882   -3.4371    0.0000 H   0  0  0  0  0  0  0  0  0  0  0  0
    1.8196   -0.9674    0.0000 H   0  0  0  0  0  0  0  0  0  0  0  0
   -1.1964    0.8421    0.0000 H   0  0  0  0  0  0  0  0  0  0  0  0
   -2.6253    0.8421    0.0000 H   0  0  0  0  0  0  0  0  0  0  0  0
   -3.4779   -0.6346    0.0000 H   0  0  0  0  0  0  0  0  0  0  0  0
   -0.4992    0.3172    0.0000 H   0  0  0  0  0  0  0  0  0  0  0  0
    1.1749   -0.3172    0.0000 H   0  0  0  0  0  0  0  0  0  0  0  0
    2.2957    1.0788    0.0000 H   0  0  0  0  0  0  0  0  0  0  0  0
    1.3142    2.5761    0.0000 H   0  0  0  0  0  0  0  0  0  0  0  0
   -0.7439    2.8266    0.0000 H   0  0  0  0  0  0  0  0  0  0  0  0
   -0.0280    3.6217    0.0000 H   0  0  0  0  0  0  0  0  0  0  0  0
    1.8035    3.0156    0.0000 H   0  0  0  0  0  0  0  0  0  0  0  0
    2.8958    1.6550    0.0000 H   0  0  0  0  0  0  0  0  0  0  0  0
    1.9083   -0.7100    0.0000 H   0  0  0  0  0  0  0  0  0  0  0  0
  1  2  1  0  0  0  0
  1 22  1  0  0  0  0
  1 23  1  0  0  0  0
  1 24  1  0  0  0  0
  2  3  1  0  0  0  0
  2  6  1  0  0  0  0
  3  4  2  0  0  0  0
  3 25  1  0  0  0  0
  4  5  1  0  0  0  0
  4 13  1  0  0  0  0
  5  6  2  0  0  0  0
  5 11  1  0  0  0  0
  6  7  1  0  0  0  0
  7  8  2  0  0  0  0
  7  9  1  0  0  0  0
  9 10  2  0  0  0  0
 10 11  1  0  0  0  0
 10 12  1  0  0  0  0
 11 26  1  0  0  0  0
 12 27  1  0  0  0  0
 12 28  1  0  0  0  0
 13 14  1  0  0  0  0
 13 17  1  0  0  0  0
 13 29  1  1  0  0  0
 14 15  1  0  0  0  0
 14 21  1  0  0  0  0
 14 30  1  6  0  0  0
 15 16  1  0  0  0  0
 15 20  1  0  0  0  0
 15 31  1  6  0  0  0
 16 17  1  0  0  0  0
 16 18  1  0  0  0  0
 16 32  1  1  0  0  0
 18 19  1  0  0  0  0
 18 33  1  0  0  0  0
 18 34  1  0  0  0  0
 19 35  1  0  0  0  0
 20 36  1  0  0  0  0
 21 37  1  0  0  0  0
M  CHG  1   4   1
M  END
>  <DRUGBANK_ID>
DB03493

>  <SECONDARY_ACCESSION_NUMBERS>
EXPT02164

>  <COMMON_NAME>
7-Methylguanosine

>  <UNII>
5290OM2I6G

$$$$
