
 OpenBabel10282417072D

 54 57  0  0  0  0  0  0  0  0999 V2000
    1.3222    2.4134    0.0000 C   0  0  0  0  0  0  0  0  0  0  0  0
    0.6078    2.0009    0.0000 C   0  0  0  0  0  0  0  0  0  0  0  0
    0.6078    1.1759    0.0000 C   0  0  0  0  0  0  0  0  0  0  0  0
   -0.1067    0.7634    0.0000 C   0  0  0  0  0  0  0  0  0  0  0  0
   -0.8212    1.1759    0.0000 C   0  0  0  0  0  0  0  0  0  0  0  0
   -0.8212    2.0009    0.0000 C   0  0  0  0  0  0  0  0  0  0  0  0
   -0.1067    2.4134    0.0000 C   0  0  0  0  0  0  0  0  0  0  0  0
   -0.1067    3.2384    0.0000 C   0  0  0  0  0  0  0  0  0  0  0  0
   -0.1067    4.0634    0.0000 N   0  0  0  0  0  0  0  0  0  0  0  0
    1.3222    0.7634    0.0000 C   0  0  0  0  0  0  0  0  0  0  0  0
    2.0367    1.1759    0.0000 N   0  0  0  0  0  0  0  0  0  0  0  0
    2.7512    0.7634    0.0000 C   0  0  0  0  0  0  0  0  0  0  0  0
    3.4656    1.1759    0.0000 N   0  0  0  0  0  0  0  0  0  0  0  0
    2.7512   -0.0616    0.0000 N   0  0  0  0  0  0  0  0  0  0  0  0
    2.0367   -0.4741    0.0000 C   0  0  0  0  0  0  0  0  0  0  0  0
    1.3222   -0.0616    0.0000 C   0  0  0  0  0  0  0  0  0  0  0  0
    2.0367   -1.2991    0.0000 C   0  0  0  0  0  0  0  0  0  0  0  0
    2.7041   -1.7840    0.0000 C   0  0  0  0  0  0  0  0  0  0  0  0
    2.4492   -2.5687    0.0000 N   0  0  0  0  0  0  0  0  0  0  0  0
    2.9341   -3.2361    0.0000 C   0  0  0  0  0  0  0  0  0  0  0  0
    2.5986   -3.9898    0.0000 C   0  0  0  0  0  0  0  0  0  0  0  0
    3.0835   -4.6572    0.0000 N   0  0  0  0  0  0  0  0  0  0  0  0
    2.7479   -5.4109    0.0000 C   0  0  0  0  0  0  0  0  0  0  0  0
    1.9275   -5.4971    0.0000 C   0  0  0  0  0  0  0  0  0  0  0  0
    1.4425   -4.8297    0.0000 C   0  0  0  0  0  0  0  0  0  0  0  0
    1.7781   -4.0760    0.0000 C   0  0  0  0  0  0  0  0  0  0  0  0
    3.2329   -6.0783    0.0000 C   0  0  0  0  0  0  0  0  0  0  0  0
    3.7178   -6.7458    0.0000 C   0  0  0  0  0  0  0  0  0  0  0  0
    2.5654   -6.5632    0.0000 C   0  0  0  0  0  0  0  0  0  0  0  0
    3.9003   -5.5934    0.0000 O   0  0  0  0  0  0  0  0  0  0  0  0
    1.6242   -2.5687    0.0000 N   0  0  0  0  0  0  0  0  0  0  0  0
    1.3693   -1.7840    0.0000 N   0  0  0  0  0  0  0  0  0  0  0  0
    2.2489    1.8784    0.0000 H   0  0  0  0  0  0  0  0  0  0  0  0
    1.3222    3.4834    0.0000 H   0  0  0  0  0  0  0  0  0  0  0  0
    2.2488    2.9484    0.0000 H   0  0  0  0  0  0  0  0  0  0  0  0
   -0.1067   -0.2686    0.0000 H   0  0  0  0  0  0  0  0  0  0  0  0
   -1.7149    0.6599    0.0000 H   0  0  0  0  0  0  0  0  0  0  0  0
   -1.7149    2.5169    0.0000 H   0  0  0  0  0  0  0  0  0  0  0  0
    4.3182    0.6837    0.0000 H   0  0  0  0  0  0  0  0  0  0  0  0
    3.4656    2.1604    0.0000 H   0  0  0  0  0  0  0  0  0  0  0  0
    0.4285   -0.5776    0.0000 H   0  0  0  0  0  0  0  0  0  0  0  0
    3.6856   -1.4651    0.0000 H   0  0  0  0  0  0  0  0  0  0  0  0
    3.9982   -3.1242    0.0000 H   0  0  0  0  0  0  0  0  0  0  0  0
    3.5631   -4.1017    0.0000 H   0  0  0  0  0  0  0  0  0  0  0  0
    1.5078   -6.4399    0.0000 H   0  0  0  0  0  0  0  0  0  0  0  0
    0.4162   -4.9376    0.0000 H   0  0  0  0  0  0  0  0  0  0  0  0
    1.1715   -3.2411    0.0000 H   0  0  0  0  0  0  0  0  0  0  0  0
    3.2825   -7.7233    0.0000 H   0  0  0  0  0  0  0  0  0  0  0  0
    4.7819   -6.6340    0.0000 H   0  0  0  0  0  0  0  0  0  0  0  0
    4.3467   -7.6115    0.0000 H   0  0  0  0  0  0  0  0  0  0  0  0
    1.5879   -6.1279    0.0000 H   0  0  0  0  0  0  0  0  0  0  0  0
    2.6772   -7.6273    0.0000 H   0  0  0  0  0  0  0  0  0  0  0  0
    1.6997   -7.1921    0.0000 H   0  0  0  0  0  0  0  0  0  0  0  0
    4.7864   -5.9879    0.0000 H   0  0  0  0  0  0  0  0  0  0  0  0
  1  2  1  0  0  0  0
  1 33  1  0  0  0  0
  1 34  1  0  0  0  0
  1 35  1  0  0  0  0
  2  3  2  0  0  0  0
  2  7  1  0  0  0  0
  3  4  1  0  0  0  0
  3 10  1  0  0  0  0
  4  5  2  0  0  0  0
  4 36  1  0  0  0  0
  5  6  1  0  0  0  0
  5 37  1  0  0  0  0
  6  7  2  0  0  0  0
  6 38  1  0  0  0  0
  7  8  1  0  0  0  0
  8  9  3  0  0  0  0
 10 11  2  0  0  0  0
 10 16  1  0  0  0  0
 11 12  1  0  0  0  0
 12 13  1  0  0  0  0
 12 14  2  0  0  0  0
 13 39  1  0  0  0  0
 13 40  1  0  0  0  0
 14 15  1  0  0  0  0
 15 16  2  0  0  0  0
 15 17  1  0  0  0  0
 16 41  1  0  0  0  0
 17 18  2  0  0  0  0
 17 32  1  0  0  0  0
 18 19  1  0  0  0  0
 18 42  1  0  0  0  0
 19 20  1  0  0  0  0
 19 31  1  0  0  0  0
 20 21  1  0  0  0  0
 20 43  1  0  0  0  0
 20 44  1  0  0  0  0
 21 22  2  0  0  0  0
 21 26  1  0  0  0  0
 22 23  1  0  0  0  0
 23 24  2  0  0  0  0
 23 27  1  0  0  0  0
 24 25  1  0  0  0  0
 24 45  1  0  0  0  0
 25 26  2  0  0  0  0
 25 46  1  0  0  0  0
 26 47  1  0  0  0  0
 27 28  1  0  0  0  0
 27 29  1  0  0  0  0
 27 30  1  0  0  0  0
 28 48  1  0  0  0  0
 28 49  1  0  0  0  0
 28 50  1  0  0  0  0
 29 51  1  0  0  0  0
 29 52  1  0  0  0  0
 29 53  1  0  0  0  0
 30 54  1  0  0  0  0
 31 32  2  0  0  0  0
M  END
>  <DRUGBANK_ID>
DB17506

>  <COMMON_NAME>
Etrumadenant

>  <CAS_NUMBER>
2239273-34-6

>  <UNII>
W0ZE0NT8IF

$$$$
