4OX
 OpenBabel10282417072D

 31 30  0  0  0  0  0  0  0  0999 V2000
   -1.0704   -0.1530    0.0000 C   0  0  0  0  0  0  0  0  0  0  0  0
   -1.7848    0.2595    0.0000 C   0  0  0  0  0  0  0  0  0  0  0  0
   -2.4993   -0.1530    0.0000 C   0  0  0  0  0  0  0  0  0  0  0  0
   -3.2138    0.2595    0.0000 C   0  0  0  0  0  0  0  0  0  0  0  0
   -3.9282   -0.1530    0.0000 O   0  0  0  0  0  0  0  0  0  0  0  0
   -3.2138    1.0845    0.0000 O   0  0  0  0  0  0  0  0  0  0  0  0
    3.9309    0.2595    0.0000 O   0  0  0  0  0  0  0  0  0  0  0  0
    3.2165   -0.1530    0.0000 C   0  0  0  0  0  0  0  0  0  0  0  0
    3.2165   -0.9780    0.0000 O   0  0  0  0  0  0  0  0  0  0  0  0
    2.5020    0.2595    0.0000 C   0  0  0  0  0  0  0  0  0  0  0  0
    1.7875   -0.1530    0.0000 C   0  0  0  0  0  0  0  0  0  0  0  0
    1.0731    0.2595    0.0000 C   0  0  0  0  0  0  0  0  0  0  0  0
    0.3586   -0.1530    0.0000 C   0  0  0  0  0  0  0  0  0  0  0  0
   -0.3559    0.2595    0.0000 C   0  0  0  0  0  0  0  0  0  0  0  0
    1.0731    1.0845    0.0000 O   0  0  0  0  0  0  0  0  0  0  0  0
   -1.0704   -1.2230    0.0000 H   0  0  0  0  0  0  0  0  0  0  0  0
   -0.1438   -0.6880    0.0000 H   0  0  0  0  0  0  0  0  0  0  0  0
   -1.7848    1.3295    0.0000 H   0  0  0  0  0  0  0  0  0  0  0  0
   -2.7114    0.7945    0.0000 H   0  0  0  0  0  0  0  0  0  0  0  0
   -2.4993   -1.2230    0.0000 H   0  0  0  0  0  0  0  0  0  0  0  0
   -3.4259   -0.6880    0.0000 H   0  0  0  0  0  0  0  0  0  0  0  0
   -4.7397    0.3155    0.0000 H   0  0  0  0  0  0  0  0  0  0  0  0
    2.4050   -1.4465    0.0000 H   0  0  0  0  0  0  0  0  0  0  0  0
    2.5020    1.3295    0.0000 H   0  0  0  0  0  0  0  0  0  0  0  0
    1.5754    0.7945    0.0000 H   0  0  0  0  0  0  0  0  0  0  0  0
    1.7875   -1.2230    0.0000 H   0  0  0  0  0  0  0  0  0  0  0  0
    0.8608   -0.6880    0.0000 H   0  0  0  0  0  0  0  0  0  0  0  0
    0.3586   -1.2230    0.0000 H   0  0  0  0  0  0  0  0  0  0  0  0
   -0.5680   -0.6880    0.0000 H   0  0  0  0  0  0  0  0  0  0  0  0
   -0.3559    1.3295    0.0000 H   0  0  0  0  0  0  0  0  0  0  0  0
    0.5707    0.7945    0.0000 H   0  0  0  0  0  0  0  0  0  0  0  0
  1  2  1  0  0  0  0
  1 14  1  0  0  0  0
  1 16  1  0  0  0  0
  1 17  1  0  0  0  0
  2  3  1  0  0  0  0
  2 18  1  0  0  0  0
  2 19  1  0  0  0  0
  3  4  1  0  0  0  0
  3 20  1  0  0  0  0
  3 21  1  0  0  0  0
  4  5  1  0  0  0  0
  4  6  2  0  0  0  0
  5 22  1  0  0  0  0
  7  8  2  0  0  0  0
  8  9  1  0  0  0  0
  8 10  1  0  0  0  0
  9 23  1  0  0  0  0
 10 11  1  0  0  0  0
 10 24  1  0  0  0  0
 10 25  1  0  0  0  0
 11 12  1  0  0  0  0
 11 26  1  0  0  0  0
 11 27  1  0  0  0  0
 12 13  1  0  0  0  0
 12 15  2  0  0  0  0
 13 14  1  0  0  0  0
 13 28  1  0  0  0  0
 13 29  1  0  0  0  0
 14 30  1  0  0  0  0
 14 31  1  0  0  0  0
M  END
>  <DRUGBANK_ID>
DB02260

>  <SECONDARY_ACCESSION_NUMBERS>
EXPT00224

>  <COMMON_NAME>
4-Oxosebacic Acid

$$$$
