
 OpenBabel10282417072D

 10 10  0  0  0  0  0  0  0  0999 V2000
    1.0170    0.6206    0.0000 C   0  0  0  0  0  0  0  0  0  0  0  0
    0.7621   -0.1638    0.0000 N   0  0  0  0  0  0  0  0  0  0  0  0
   -0.0629   -0.1639    0.0000 N   0  0  0  0  0  0  0  0  0  0  0  0
   -0.3178    0.6206    0.0000 C   0  0  0  0  0  0  0  0  0  0  0  0
    0.3496    1.1056    0.0000 S   0  0  0  0  0  0  0  0  0  0  0  0
   -1.1024    0.8757    0.0000 S   0  0  0  0  0  0  0  0  0  0  0  0
    1.8017    0.8756    0.0000 N   0  0  0  0  0  0  0  0  0  0  0  0
   -1.3849    2.2060    0.0000 H   0  0  0  0  0  0  0  0  0  0  0  0
    2.5334    0.2169    0.0000 H   0  0  0  0  0  0  0  0  0  0  0  0
    2.0063    1.8386    0.0000 H   0  0  0  0  0  0  0  0  0  0  0  0
  1  2  2  0  0  0  0
  1  5  1  0  0  0  0
  1  7  1  0  0  0  0
  2  3  1  0  0  0  0
  3  4  2  0  0  0  0
  4  5  1  0  0  0  0
  4  6  1  0  0  0  0
  6  8  1  0  0  0  0
  7  9  1  0  0  0  0
  7 10  1  0  0  0  0
M  END
>  <DRUGBANK_ID>
DB12348

>  <COMMON_NAME>
5-amino-1,3,4-thiadiazole-2-thiol

>  <CAS_NUMBER>
2349-67-9

>  <UNII>
B1HEG7V21S

>  <SYNONYMS>
ATT

$$$$
