918
 OpenBabel10282417072D

 48 50  0  0  0  0  0  0  0  0999 V2000
    3.6703   -0.5207    0.0000 S   0  0  0  0  0  0  0  0  0  0  0  0
    4.0828   -1.2351    0.0000 O   0  0  0  0  0  0  0  0  0  0  0  0
    3.2577    0.1938    0.0000 O   0  0  0  0  0  0  0  0  0  0  0  0
    2.9558   -0.9332    0.0000 N   0  0  0  0  0  0  0  0  0  0  0  0
    7.3088   -1.5972    0.0000 N   0  0  0  0  0  0  0  0  0  0  0  0
    8.6288    1.4693    0.0000 N   0  0  0  0  0  0  0  0  0  0  0  0
    2.8695   -1.7537    0.0000 C   0  0  0  0  0  0  0  0  0  0  0  0
    2.2021   -0.5976    0.0000 C   0  0  0  0  0  0  0  0  0  0  0  0
    2.0625   -1.9253    0.0000 C   0  0  0  0  0  0  0  0  0  0  0  0
    1.6500   -1.2107    0.0000 C   0  0  0  0  0  0  0  0  0  0  0  0
    4.3847   -0.1082    0.0000 C   0  0  0  0  0  0  0  0  0  0  0  0
    5.0993   -0.5207    0.0000 C   0  0  0  0  0  0  0  0  0  0  0  0
    6.5282   -0.5207    0.0000 C   0  0  0  0  0  0  0  0  0  0  0  0
    5.8137   -0.1082    0.0000 C   0  0  0  0  0  0  0  0  0  0  0  0
    7.3088   -0.2693    0.0000 C   0  0  0  0  0  0  0  0  0  0  0  0
    6.5282   -1.3457    0.0000 C   0  0  0  0  0  0  0  0  0  0  0  0
    5.0993   -1.3457    0.0000 C   0  0  0  0  0  0  0  0  0  0  0  0
    7.5652    0.5149    0.0000 C   0  0  0  0  0  0  0  0  0  0  0  0
    5.8137   -1.7582    0.0000 C   0  0  0  0  0  0  0  0  0  0  0  0
    7.7903   -0.9332    0.0000 C   0  0  0  0  0  0  0  0  0  0  0  0
    8.3724    0.6851    0.0000 C   0  0  0  0  0  0  0  0  0  0  0  0
    8.0778    2.0833    0.0000 C   0  0  0  0  0  0  0  0  0  0  0  0
    9.4361    1.6394    0.0000 C   0  0  0  0  0  0  0  0  0  0  0  0
    7.6146   -2.5330    0.0000 H   0  0  0  0  0  0  0  0  0  0  0  0
    3.6647   -2.4697    0.0000 H   0  0  0  0  0  0  0  0  0  0  0  0
    2.5926   -2.7873    0.0000 H   0  0  0  0  0  0  0  0  0  0  0  0
    1.9797    0.4490    0.0000 H   0  0  0  0  0  0  0  0  0  0  0  0
    1.1686   -0.3206    0.0000 H   0  0  0  0  0  0  0  0  0  0  0  0
    1.6273   -2.9028    0.0000 H   0  0  0  0  0  0  0  0  0  0  0  0
    0.9940   -1.9813    0.0000 H   0  0  0  0  0  0  0  0  0  0  0  0
    0.5859   -1.0988    0.0000 H   0  0  0  0  0  0  0  0  0  0  0  0
    1.0672   -2.1080    0.0000 H   0  0  0  0  0  0  0  0  0  0  0  0
    4.3846    0.9618    0.0000 H   0  0  0  0  0  0  0  0  0  0  0  0
    5.3113    0.4269    0.0000 H   0  0  0  0  0  0  0  0  0  0  0  0
    5.8137    0.9238    0.0000 H   0  0  0  0  0  0  0  0  0  0  0  0
    4.2056   -1.8617    0.0000 H   0  0  0  0  0  0  0  0  0  0  0  0
    6.8506    1.3113    0.0000 H   0  0  0  0  0  0  0  0  0  0  0  0
    7.8976    1.5320    0.0000 H   0  0  0  0  0  0  0  0  0  0  0  0
    5.8137   -2.7902    0.0000 H   0  0  0  0  0  0  0  0  0  0  0  0
    8.8223   -0.9332    0.0000 H   0  0  0  0  0  0  0  0  0  0  0  0
    9.0870   -0.1113    0.0000 H   0  0  0  0  0  0  0  0  0  0  0  0
    8.0400   -0.3320    0.0000 H   0  0  0  0  0  0  0  0  0  0  0  0
    8.4101    3.1004    0.0000 H   0  0  0  0  0  0  0  0  0  0  0  0
    7.0308    1.8626    0.0000 H   0  0  0  0  0  0  0  0  0  0  0  0
    7.3632    2.8797    0.0000 H   0  0  0  0  0  0  0  0  0  0  0  0
   10.1507    0.8430    0.0000 H   0  0  0  0  0  0  0  0  0  0  0  0
    9.7686    2.6564    0.0000 H   0  0  0  0  0  0  0  0  0  0  0  0
   10.4831    1.8600    0.0000 H   0  0  0  0  0  0  0  0  0  0  0  0
  1  2  2  0  0  0  0
  1  3  2  0  0  0  0
  1  4  1  0  0  0  0
  1 11  1  0  0  0  0
  4  7  1  0  0  0  0
  4  8  1  0  0  0  0
  5 16  1  0  0  0  0
  5 20  1  0  0  0  0
  5 24  1  0  0  0  0
  6 21  1  0  0  0  0
  6 22  1  0  0  0  0
  6 23  1  0  0  0  0
  7  9  1  0  0  0  0
  7 25  1  0  0  0  0
  7 26  1  0  0  0  0
  8 10  1  0  0  0  0
  8 27  1  0  0  0  0
  8 28  1  0  0  0  0
  9 10  1  0  0  0  0
  9 29  1  0  0  0  0
  9 30  1  0  0  0  0
 10 31  1  0  0  0  0
 10 32  1  0  0  0  0
 11 12  1  0  0  0  0
 11 33  1  0  0  0  0
 11 34  1  0  0  0  0
 12 14  2  0  0  0  0
 12 17  1  0  0  0  0
 13 14  1  0  0  0  0
 13 15  1  0  0  0  0
 13 16  2  0  0  0  0
 14 35  1  0  0  0  0
 15 18  1  0  0  0  0
 15 20  2  0  0  0  0
 16 19  1  0  0  0  0
 17 19  2  0  0  0  0
 17 36  1  0  0  0  0
 18 21  1  0  0  0  0
 18 37  1  0  0  0  0
 18 38  1  0  0  0  0
 19 39  1  0  0  0  0
 20 40  1  0  0  0  0
 21 41  1  0  0  0  0
 21 42  1  0  0  0  0
 22 43  1  0  0  0  0
 22 44  1  0  0  0  0
 22 45  1  0  0  0  0
 23 46  1  0  0  0  0
 23 47  1  0  0  0  0
 23 48  1  0  0  0  0
M  END
>  <DRUGBANK_ID>
DB00918

>  <SECONDARY_ACCESSION_NUMBERS>
APRD00169

>  <COMMON_NAME>
Almotriptan

>  <CAS_NUMBER>
154323-57-6

>  <UNII>
1O4XL5SN61

>  <SYNONYMS>
1-(((3-(2-(Dimethylamino)ethyl)indol-5-yl)methyl)sulfonyl)pyrrolidine; Almotriptan

$$$$
