
 OpenBabel10282417072D

 20 20  0  0  1  0  0  0  0  0999 V2000
   -1.1908    1.7138    0.0000 C   0  0  0  0  0  0  0  0  0  0  0  0
   -0.1743    0.1743    0.0000 C   0  0  0  0  0  0  0  0  0  0  0  0
    0.6507    0.1743    0.0000 C   0  0  0  0  0  0  0  0  0  0  0  0
    0.2382    1.7138    0.0000 C   0  0  0  0  0  0  0  0  0  0  0  0
   -0.4763    2.9513    0.0000 C   0  0  0  0  0  0  0  0  0  0  0  0
   -0.4763    2.1263    0.0000 C   0  0  1  0  0  0  0  0  0  0  0  0
    0.2382    0.8888    0.0000 C   0  0  0  0  0  0  0  0  0  0  0  0
   -1.1908    3.3638    0.0000 O   0  0  0  0  0  0  0  0  0  0  0  0
   -0.4763    1.3013    0.0000 H   0  0  0  0  0  0  0  0  0  0  0  0
   -2.1174    2.2488    0.0000 H   0  0  0  0  0  0  0  0  0  0  0  0
   -1.1908    0.6438    0.0000 H   0  0  0  0  0  0  0  0  0  0  0  0
   -2.1175    1.1788    0.0000 H   0  0  0  0  0  0  0  0  0  0  0  0
   -1.1009   -0.3607    0.0000 H   0  0  0  0  0  0  0  0  0  0  0  0
   -0.9309    0.9309    0.0000 H   0  0  0  0  0  0  0  0  0  0  0  0
    1.5773   -0.3607    0.0000 H   0  0  0  0  0  0  0  0  0  0  0  0
    1.4073    0.9309    0.0000 H   0  0  0  0  0  0  0  0  0  0  0  0
    1.1648    2.2488    0.0000 H   0  0  0  0  0  0  0  0  0  0  0  0
    1.1648    1.1788    0.0000 H   0  0  0  0  0  0  0  0  0  0  0  0
    0.4174    3.4673    0.0000 H   0  0  0  0  0  0  0  0  0  0  0  0
    1.2717    1.1657    0.0000 H   0  0  0  0  0  0  0  0  0  0  0  0
  1 10  1  0  0  0  0
  1 11  1  0  0  0  0
  1 12  1  0  0  0  0
  2 13  1  0  0  0  0
  2 14  1  0  0  0  0
  3  2  1  0  0  0  0
  3 15  1  0  0  0  0
  3 16  1  0  0  0  0
  4 17  1  0  0  0  0
  4 18  1  0  0  0  0
  5 19  1  0  0  0  0
  6  1  1  0  0  0  0
  6  4  1  0  0  0  0
  6  5  1  0  0  0  0
  6  9  1  1  0  0  0
  7  2  1  0  0  0  0
  7  3  1  0  0  0  0
  7  4  1  0  0  0  0
  7 20  1  0  0  0  0
  8  5  2  0  0  0  0
M  END
>  <DRUGBANK_ID>
DB03736

>  <SECONDARY_ACCESSION_NUMBERS>
EXPT01002

>  <COMMON_NAME>
2-Cyclopropylmethylenepropanal

$$$$
