
 OpenBabel10282417072D

 13 13  0  0  0  0  0  0  0  0999 V2000
   -0.7145    0.0000    0.0000 C   0  0  0  0  0  0  0  0  0  0  0  0
   -0.7145   -0.8250    0.0000 C   0  0  0  0  0  0  0  0  0  0  0  0
    0.7145   -0.8250    0.0000 C   0  0  0  0  0  0  0  0  0  0  0  0
    0.7145    0.0000    0.0000 C   0  0  0  0  0  0  0  0  0  0  0  0
    0.0000   -1.2375    0.0000 N   0  0  0  0  0  0  0  0  0  0  0  0
    0.0000    0.4125    0.0000 C   0  0  0  0  0  0  0  0  0  0  0  0
    0.0000    1.2375    0.0000 N   0  0  0  0  0  0  0  0  0  0  0  0
   -1.6082    0.5160    0.0000 H   0  0  0  0  0  0  0  0  0  0  0  0
   -1.6082   -1.3410    0.0000 H   0  0  0  0  0  0  0  0  0  0  0  0
    1.6082   -1.3410    0.0000 H   0  0  0  0  0  0  0  0  0  0  0  0
    1.6082    0.5160    0.0000 H   0  0  0  0  0  0  0  0  0  0  0  0
    0.8526    1.7298    0.0000 H   0  0  0  0  0  0  0  0  0  0  0  0
   -0.8526    1.7298    0.0000 H   0  0  0  0  0  0  0  0  0  0  0  0
  1  2  2  0  0  0  0
  1  8  1  0  0  0  0
  2  5  1  0  0  0  0
  2  9  1  0  0  0  0
  3  4  1  0  0  0  0
  3 10  1  0  0  0  0
  4 11  1  0  0  0  0
  5  3  2  0  0  0  0
  6  1  1  0  0  0  0
  6  4  2  0  0  0  0
  6  7  1  0  0  0  0
  7 12  1  0  0  0  0
  7 13  1  0  0  0  0
M  END
>  <DRUGBANK_ID>
DB06637

>  <COMMON_NAME>
Dalfampridine

>  <CAS_NUMBER>
504-24-5

>  <UNII>
BH3B64OKL9

>  <SYNONYMS>
4-Aminopyridine; 4-AP; 4-Pyridinamine; 4-Pyridylamine; Dalfampridine; Fampridina; Fampridine; Fampridinum; p-Aminopyridine; Î³-Aminopyridine

$$$$
