U01
 OpenBabel10282417072D

 40 42  0  0  0  0  0  0  0  0999 V2000
    0.3104   -0.3556    0.0000 C   0  0  0  0  0  0  0  0  0  0  0  0
    0.3104   -1.1806    0.0000 C   0  0  0  0  0  0  0  0  0  0  0  0
    1.7393   -1.1806    0.0000 C   0  0  0  0  0  0  0  0  0  0  0  0
    1.7393   -0.3556    0.0000 C   0  0  0  0  0  0  0  0  0  0  0  0
    1.0248    0.0569    0.0000 C   0  0  0  0  0  0  0  0  0  0  0  0
   -0.4041    0.8819    0.0000 C   0  0  0  0  0  0  0  0  0  0  0  0
   -1.1186    1.2944    0.0000 C   0  0  0  0  0  0  0  0  0  0  0  0
   -1.1186    2.1194    0.0000 C   0  0  0  0  0  0  0  0  0  0  0  0
   -0.4041    2.5319    0.0000 C   0  0  0  0  0  0  0  0  0  0  0  0
    0.3104    2.1194    0.0000 C   0  0  0  0  0  0  0  0  0  0  0  0
    0.3104    1.2944    0.0000 C   0  0  0  0  0  0  0  0  0  0  0  0
   -0.4041    0.0569    0.0000 C   0  0  2  0  0  0  0  0  0  0  0  0
   -1.1186   -0.3556    0.0000 C   0  0  0  0  0  0  0  0  0  0  0  0
   -1.8330    0.0569    0.0000 C   0  0  0  0  0  0  0  0  0  0  0  0
   -1.1186   -1.1806    0.0000 C   0  0  0  0  0  0  0  0  0  0  0  0
    2.4538   -1.5931    0.0000 C   0  0  0  0  0  0  0  0  0  0  0  0
    3.1683   -1.1806    0.0000 C   0  0  0  0  0  0  0  0  0  0  0  0
    3.1683   -0.3556    0.0000 C   0  0  0  0  0  0  0  0  0  0  0  0
    2.4538    0.0569    0.0000 C   0  0  0  0  0  0  0  0  0  0  0  0
   -0.4041   -1.5931    0.0000 O   0  0  0  0  0  0  0  0  0  0  0  0
    1.0248   -1.5931    0.0000 O   0  0  0  0  0  0  0  0  0  0  0  0
    1.0248    0.8819    0.0000 O   0  0  0  0  0  0  0  0  0  0  0  0
   -0.4041    3.3569    0.0000 Br  0  0  0  0  0  0  0  0  0  0  0  0
    0.1016    0.3489    0.0000 H   0  0  0  0  0  0  0  0  0  0  0  0
   -2.0123    0.7784    0.0000 H   0  0  0  0  0  0  0  0  0  0  0  0
   -2.0123    2.6354    0.0000 H   0  0  0  0  0  0  0  0  0  0  0  0
    1.2041    2.6354    0.0000 H   0  0  0  0  0  0  0  0  0  0  0  0
    1.2041    0.7784    0.0000 H   0  0  0  0  0  0  0  0  0  0  0  0
   -2.0453   -0.8906    0.0000 H   0  0  0  0  0  0  0  0  0  0  0  0
   -1.8330    1.1269    0.0000 H   0  0  0  0  0  0  0  0  0  0  0  0
   -2.7597   -0.4781    0.0000 H   0  0  0  0  0  0  0  0  0  0  0  0
   -2.7596    0.5919    0.0000 H   0  0  0  0  0  0  0  0  0  0  0  0
   -2.0452   -1.7156    0.0000 H   0  0  0  0  0  0  0  0  0  0  0  0
   -0.1920   -1.7156    0.0000 H   0  0  0  0  0  0  0  0  0  0  0  0
   -1.1186   -2.2506    0.0000 H   0  0  0  0  0  0  0  0  0  0  0  0
    2.4538   -2.6251    0.0000 H   0  0  0  0  0  0  0  0  0  0  0  0
    4.0620   -1.6966    0.0000 H   0  0  0  0  0  0  0  0  0  0  0  0
    4.0620    0.1604    0.0000 H   0  0  0  0  0  0  0  0  0  0  0  0
    2.4538    1.0889    0.0000 H   0  0  0  0  0  0  0  0  0  0  0  0
    1.8363    1.3504    0.0000 H   0  0  0  0  0  0  0  0  0  0  0  0
  1  2  1  0  0  0  0
  1  5  2  0  0  0  0
  1 12  1  0  0  0  0
  2 20  2  0  0  0  0
  2 21  1  0  0  0  0
  3  4  2  0  0  0  0
  3 16  1  0  0  0  0
  3 21  1  0  0  0  0
  4  5  1  0  0  0  0
  4 19  1  0  0  0  0
  5 22  1  0  0  0  0
  6  7  2  0  0  0  0
  6 11  1  0  0  0  0
  6 12  1  0  0  0  0
  7  8  1  0  0  0  0
  7 25  1  0  0  0  0
  8  9  2  0  0  0  0
  8 26  1  0  0  0  0
  9 10  1  0  0  0  0
  9 23  1  0  0  0  0
 10 11  2  0  0  0  0
 10 27  1  0  0  0  0
 11 28  1  0  0  0  0
 12 13  1  0  0  0  0
 12 24  1  6  0  0  0
 13 14  1  0  0  0  0
 13 15  1  0  0  0  0
 13 29  1  0  0  0  0
 14 30  1  0  0  0  0
 14 31  1  0  0  0  0
 14 32  1  0  0  0  0
 15 33  1  0  0  0  0
 15 34  1  0  0  0  0
 15 35  1  0  0  0  0
 16 17  2  0  0  0  0
 16 36  1  0  0  0  0
 17 18  1  0  0  0  0
 17 37  1  0  0  0  0
 18 19  2  0  0  0  0
 18 38  1  0  0  0  0
 19 39  1  0  0  0  0
 22 40  1  0  0  0  0
M  END
>  <DRUGBANK_ID>
DB08662

>  <COMMON_NAME>
3-[1-(4-BROMO-PHENYL)-2-METHYL-PROPYL]-4-HYDROXY-CHROMEN-2-ONE

$$$$
