
 OpenBabel10282417072D

201202  0  0  1  0  0  0  0  0999 V2000
    5.5449    2.8272    0.0000 C   0  0  0  0  0  0  0  0  0  0  0  0
    5.1324    3.5416    0.0000 C   0  0  0  0  0  0  0  0  0  0  0  0
    5.8469    3.9541    0.0000 C   0  0  0  0  0  0  0  0  0  0  0  0
    4.4179    3.1291    0.0000 C   0  0  0  0  0  0  0  0  0  0  0  0
    4.7199    4.2561    0.0000 Si  0  0  0  0  0  0  0  0  0  0  0  0
    5.4344    4.6686    0.0000 F   0  0  0  0  0  0  0  0  0  0  0  0
    4.0054    3.8436    0.0000 C   0  0  0  0  0  0  0  0  0  0  0  0
    4.0054    3.0186    0.0000 C   0  0  0  0  0  0  0  0  0  0  0  0
    3.2910    2.6061    0.0000 C   0  0  0  0  0  0  0  0  0  0  0  0
    2.5765    3.0186    0.0000 C   0  0  0  0  0  0  0  0  0  0  0  0
    2.5765    3.8436    0.0000 C   0  0  0  0  0  0  0  0  0  0  0  0
    3.2910    4.2561    0.0000 C   0  0  0  0  0  0  0  0  0  0  0  0
    1.8620    2.6061    0.0000 C   0  0  0  0  0  0  0  0  0  0  0  0
    1.1475    3.0186    0.0000 O   0  0  0  0  0  0  0  0  0  0  0  0
    1.8620    1.7811    0.0000 N   0  0  0  0  0  0  0  0  0  0  0  0
    2.5765    1.3686    0.0000 C   0  0  0  0  0  0  0  0  0  0  0  0
    2.5765    0.5436    0.0000 C   0  0  1  0  0  0  0  0  0  0  0  0
    1.8620    0.1311    0.0000 N   0  0  0  0  0  0  0  0  0  0  0  0
    1.1475    0.5436    0.0000 C   0  0  0  0  0  0  0  0  0  0  0  0
    1.1475    1.3686    0.0000 O   0  0  0  0  0  0  0  0  0  0  0  0
    0.4331    0.1311    0.0000 C   0  0  0  0  0  0  0  0  0  0  0  0
   -0.2814    0.5436    0.0000 C   0  0  0  0  0  0  0  0  0  0  0  0
   -0.9959    0.1311    0.0000 C   0  0  2  0  0  0  0  0  0  0  0  0
   -1.7103    0.5436    0.0000 N   0  0  0  0  0  0  0  0  0  0  0  0
   -1.1270    1.1270    0.0000 C   0  0  0  0  0  0  0  0  0  0  0  0
   -1.3405    1.9239    0.0000 C   0  0  0  0  0  0  0  0  0  0  0  0
   -2.1374    2.1374    0.0000 N   0  0  0  0  0  0  0  0  0  0  0  0
   -1.7249    2.8519    0.0000 C   0  0  0  0  0  0  0  0  0  0  0  0
   -2.1374    3.5663    0.0000 C   0  0  0  0  0  0  0  0  0  0  0  0
   -2.9624    3.5663    0.0000 O   0  0  0  0  0  0  0  0  0  0  0  0
   -1.7249    4.2808    0.0000 O   0  0  0  0  0  0  0  0  0  0  0  0
   -2.7207    2.7207    0.0000 C   0  0  0  0  0  0  0  0  0  0  0  0
   -3.5176    2.5072    0.0000 C   0  0  0  0  0  0  0  0  0  0  0  0
   -3.7312    1.7103    0.0000 N   0  0  0  0  0  0  0  0  0  0  0  0
   -4.4456    2.1228    0.0000 C   0  0  0  0  0  0  0  0  0  0  0  0
   -5.1601    1.7103    0.0000 C   0  0  0  0  0  0  0  0  0  0  0  0
   -5.8746    2.1228    0.0000 O   0  0  0  0  0  0  0  0  0  0  0  0
   -5.1601    0.8853    0.0000 O   0  0  0  0  0  0  0  0  0  0  0  0
   -4.3145    1.1270    0.0000 C   0  0  0  0  0  0  0  0  0  0  0  0
   -4.1010    0.3301    0.0000 C   0  0  0  0  0  0  0  0  0  0  0  0
   -3.3041    0.1166    0.0000 N   0  0  0  0  0  0  0  0  0  0  0  0
   -3.7166   -0.5979    0.0000 C   0  0  0  0  0  0  0  0  0  0  0  0
   -3.3041   -1.3124    0.0000 C   0  0  0  0  0  0  0  0  0  0  0  0
   -2.4791   -1.3124    0.0000 O   0  0  0  0  0  0  0  0  0  0  0  0
   -3.7166   -2.0269    0.0000 O   0  0  0  0  0  0  0  0  0  0  0  0
   -2.7207   -0.4668    0.0000 C   0  0  0  0  0  0  0  0  0  0  0  0
   -1.9239   -0.2533    0.0000 C   0  0  0  0  0  0  0  0  0  0  0  0
   -0.9959   -0.6939    0.0000 C   0  0  0  0  0  0  0  0  0  0  0  0
   -0.2814   -1.1064    0.0000 O   0  0  0  0  0  0  0  0  0  0  0  0
   -1.7103   -1.1064    0.0000 O   0  0  0  0  0  0  0  0  0  0  0  0
    3.2910    0.1311    0.0000 C   0  0  0  0  0  0  0  0  0  0  0  0
    3.2910   -0.6939    0.0000 O   0  0  0  0  0  0  0  0  0  0  0  0
    4.0054    0.5436    0.0000 N   0  0  0  0  0  0  0  0  0  0  0  0
    4.7199    0.1311    0.0000 C   0  0  2  0  0  0  0  0  0  0  0  0
    5.4344    0.5436    0.0000 C   0  0  0  0  0  0  0  0  0  0  0  0
    6.1488    0.1311    0.0000 C   0  0  0  0  0  0  0  0  0  0  0  0
    6.8633    0.5436    0.0000 C   0  0  0  0  0  0  0  0  0  0  0  0
    7.5778    0.1311    0.0000 C   0  0  0  0  0  0  0  0  0  0  0  0
    8.2923    0.5436    0.0000 N   0  0  0  0  0  0  0  0  0  0  0  0
    9.0067    0.1311    0.0000 C   0  0  0  0  0  0  0  0  0  0  0  0
    9.0067   -0.6939    0.0000 O   0  0  0  0  0  0  0  0  0  0  0  0
    9.7212    0.5436    0.0000 C   0  0  0  0  0  0  0  0  0  0  0  0
   10.4357    0.1311    0.0000 C   0  0  0  0  0  0  0  0  0  0  0  0
   11.1501    0.5436    0.0000 C   0  0  0  0  0  0  0  0  0  0  0  0
   11.1501    1.3686    0.0000 O   0  0  0  0  0  0  0  0  0  0  0  0
   11.8646    0.1311    0.0000 N   0  0  0  0  0  0  0  0  0  0  0  0
   12.5791    0.5436    0.0000 C   0  0  0  0  0  0  0  0  0  0  0  0
   13.2936    0.1311    0.0000 C   0  0  0  0  0  0  0  0  0  0  0  0
   14.0080    0.5436    0.0000 C   0  0  0  0  0  0  0  0  0  0  0  0
   14.7225    0.1311    0.0000 C   0  0  1  0  0  0  0  0  0  0  0  0
   15.4370    0.5436    0.0000 N   0  0  0  0  0  0  0  0  0  0  0  0
   16.1514    0.1311    0.0000 C   0  0  0  0  0  0  0  0  0  0  0  0
   16.1514   -0.6939    0.0000 O   0  0  0  0  0  0  0  0  0  0  0  0
   16.8659    0.5436    0.0000 C   0  0  0  0  0  0  0  0  0  0  0  0
   17.5804    0.1311    0.0000 C   0  0  0  0  0  0  0  0  0  0  0  0
   18.2949    0.5436    0.0000 C   0  0  2  0  0  0  0  0  0  0  0  0
   19.0093    0.1311    0.0000 N   0  0  0  0  0  0  0  0  0  0  0  0
   19.7238    0.5436    0.0000 C   0  0  0  0  0  0  0  0  0  0  0  0
   19.7238    1.3686    0.0000 O   0  0  0  0  0  0  0  0  0  0  0  0
   20.4383    0.1311    0.0000 N   0  0  0  0  0  0  0  0  0  0  0  0
   21.1527    0.5436    0.0000 C   0  0  1  0  0  0  0  0  0  0  0  0
   21.8672    0.1311    0.0000 C   0  0  0  0  0  0  0  0  0  0  0  0
   22.5817    0.5436    0.0000 C   0  0  0  0  0  0  0  0  0  0  0  0
   23.2961    0.1311    0.0000 C   0  0  0  0  0  0  0  0  0  0  0  0
   24.0106    0.5436    0.0000 O   0  0  0  0  0  0  0  0  0  0  0  0
   23.2961   -0.6939    0.0000 O   0  0  0  0  0  0  0  0  0  0  0  0
   21.1527    1.3686    0.0000 C   0  0  0  0  0  0  0  0  0  0  0  0
   21.8672    1.7811    0.0000 O   0  0  0  0  0  0  0  0  0  0  0  0
   20.4383    1.7811    0.0000 O   0  0  0  0  0  0  0  0  0  0  0  0
   18.2949    1.3686    0.0000 C   0  0  0  0  0  0  0  0  0  0  0  0
   19.0093    1.7811    0.0000 O   0  0  0  0  0  0  0  0  0  0  0  0
   17.5804    1.7811    0.0000 O   0  0  0  0  0  0  0  0  0  0  0  0
   14.7225   -0.6939    0.0000 C   0  0  0  0  0  0  0  0  0  0  0  0
   15.4370   -1.1064    0.0000 O   0  0  0  0  0  0  0  0  0  0  0  0
   14.0080   -1.1064    0.0000 O   0  0  0  0  0  0  0  0  0  0  0  0
    4.7199   -0.6939    0.0000 C   0  0  0  0  0  0  0  0  0  0  0  0
    5.4344   -1.1064    0.0000 O   0  0  0  0  0  0  0  0  0  0  0  0
    4.0054   -1.1064    0.0000 O   0  0  0  0  0  0  0  0  0  0  0  0
    4.3074    4.9706    0.0000 C   0  0  0  0  0  0  0  0  0  0  0  0
    3.8949    5.6850    0.0000 C   0  0  0  0  0  0  0  0  0  0  0  0
    5.0219    5.3831    0.0000 C   0  0  0  0  0  0  0  0  0  0  0  0
    3.5929    4.5581    0.0000 C   0  0  0  0  0  0  0  0  0  0  0  0
    5.0099    1.9005    0.0000 H   0  0  0  0  0  0  0  0  0  0  0  0
    6.6149    2.8272    0.0000 H   0  0  0  0  0  0  0  0  0  0  0  0
    6.0799    1.9006    0.0000 H   0  0  0  0  0  0  0  0  0  0  0  0
    6.7735    3.4191    0.0000 H   0  0  0  0  0  0  0  0  0  0  0  0
    5.8469    5.0241    0.0000 H   0  0  0  0  0  0  0  0  0  0  0  0
    6.7736    4.4891    0.0000 H   0  0  0  0  0  0  0  0  0  0  0  0
    3.4913    3.6641    0.0000 H   0  0  0  0  0  0  0  0  0  0  0  0
    4.4179    2.0591    0.0000 H   0  0  0  0  0  0  0  0  0  0  0  0
    3.4912    2.5941    0.0000 H   0  0  0  0  0  0  0  0  0  0  0  0
    4.8991    2.5026    0.0000 H   0  0  0  0  0  0  0  0  0  0  0  0
    3.2910    1.5741    0.0000 H   0  0  0  0  0  0  0  0  0  0  0  0
    1.6828    4.3596    0.0000 H   0  0  0  0  0  0  0  0  0  0  0  0
    3.2910    5.2881    0.0000 H   0  0  0  0  0  0  0  0  0  0  0  0
    1.0094    1.2888    0.0000 H   0  0  0  0  0  0  0  0  0  0  0  0
    3.5031    1.9036    0.0000 H   0  0  0  0  0  0  0  0  0  0  0  0
    3.5031    0.8336    0.0000 H   0  0  0  0  0  0  0  0  0  0  0  0
    1.6499    1.0786    0.0000 H   0  0  0  0  0  0  0  0  0  0  0  0
    1.8620   -0.8534    0.0000 H   0  0  0  0  0  0  0  0  0  0  0  0
    0.4331   -0.9389    0.0000 H   0  0  0  0  0  0  0  0  0  0  0  0
   -0.4935   -0.4039    0.0000 H   0  0  0  0  0  0  0  0  0  0  0  0
   -0.2814    1.6136    0.0000 H   0  0  0  0  0  0  0  0  0  0  0  0
   -1.2080    1.0786    0.0000 H   0  0  0  0  0  0  0  0  0  0  0  0
   -0.9959    1.2011    0.0000 H   0  0  0  0  0  0  0  0  0  0  0  0
   -0.0935    0.8501    0.0000 H   0  0  0  0  0  0  0  0  0  0  0  0
   -0.3704    1.8836    0.0000 H   0  0  0  0  0  0  0  0  0  0  0  0
   -0.5839    2.6805    0.0000 H   0  0  0  0  0  0  0  0  0  0  0  0
   -1.6175    2.9574    0.0000 H   0  0  0  0  0  0  0  0  0  0  0  0
   -0.6549    2.8519    0.0000 H   0  0  0  0  0  0  0  0  0  0  0  0
   -1.1899    3.7786    0.0000 H   0  0  0  0  0  0  0  0  0  0  0  0
   -3.4309    4.3778    0.0000 H   0  0  0  0  0  0  0  0  0  0  0  0
   -2.4437    3.7542    0.0000 H   0  0  0  0  0  0  0  0  0  0  0  0
   -3.4773    3.4773    0.0000 H   0  0  0  0  0  0  0  0  0  0  0  0
   -4.2742    3.2638    0.0000 H   0  0  0  0  0  0  0  0  0  0  0  0
   -4.5512    2.2303    0.0000 H   0  0  0  0  0  0  0  0  0  0  0  0
   -4.4456    3.1928    0.0000 H   0  0  0  0  0  0  0  0  0  0  0  0
   -5.3722    2.6578    0.0000 H   0  0  0  0  0  0  0  0  0  0  0  0
   -5.8746    3.0598    0.0000 H   0  0  0  0  0  0  0  0  0  0  0  0
   -5.3480    1.4040    0.0000 H   0  0  0  0  0  0  0  0  0  0  0  0
   -5.0711    0.3704    0.0000 H   0  0  0  0  0  0  0  0  0  0  0  0
   -4.8576   -0.4265    0.0000 H   0  0  0  0  0  0  0  0  0  0  0  0
   -3.8240   -0.7034    0.0000 H   0  0  0  0  0  0  0  0  0  0  0  0
   -4.7866   -0.5979    0.0000 H   0  0  0  0  0  0  0  0  0  0  0  0
   -4.2516   -1.5245    0.0000 H   0  0  0  0  0  0  0  0  0  0  0  0
   -2.0106   -2.1239    0.0000 H   0  0  0  0  0  0  0  0  0  0  0  0
   -2.9976   -1.5003    0.0000 H   0  0  0  0  0  0  0  0  0  0  0  0
   -1.9641   -1.2234    0.0000 H   0  0  0  0  0  0  0  0  0  0  0  0
   -1.1673   -1.0099    0.0000 H   0  0  0  0  0  0  0  0  0  0  0  0
   -0.8903    0.0236    0.0000 H   0  0  0  0  0  0  0  0  0  0  0  0
   -0.2814   -2.0434    0.0000 H   0  0  0  0  0  0  0  0  0  0  0  0
    4.0054    1.5281    0.0000 H   0  0  0  0  0  0  0  0  0  0  0  0
    4.7199    1.2011    0.0000 H   0  0  0  0  0  0  0  0  0  0  0  0
    5.4344    1.6136    0.0000 H   0  0  0  0  0  0  0  0  0  0  0  0
    6.3611    1.0786    0.0000 H   0  0  0  0  0  0  0  0  0  0  0  0
    6.1488   -0.9389    0.0000 H   0  0  0  0  0  0  0  0  0  0  0  0
    7.0754   -0.4039    0.0000 H   0  0  0  0  0  0  0  0  0  0  0  0
    6.8633    1.6136    0.0000 H   0  0  0  0  0  0  0  0  0  0  0  0
    7.7899    1.0786    0.0000 H   0  0  0  0  0  0  0  0  0  0  0  0
    7.5778   -0.9389    0.0000 H   0  0  0  0  0  0  0  0  0  0  0  0
    8.5044   -0.4039    0.0000 H   0  0  0  0  0  0  0  0  0  0  0  0
    8.2923    1.5281    0.0000 H   0  0  0  0  0  0  0  0  0  0  0  0
    9.7212    1.6136    0.0000 H   0  0  0  0  0  0  0  0  0  0  0  0
   10.6478    1.0786    0.0000 H   0  0  0  0  0  0  0  0  0  0  0  0
   10.4357   -0.9389    0.0000 H   0  0  0  0  0  0  0  0  0  0  0  0
   11.3624   -0.4039    0.0000 H   0  0  0  0  0  0  0  0  0  0  0  0
   11.8646   -0.8534    0.0000 H   0  0  0  0  0  0  0  0  0  0  0  0
   12.5791    1.6136    0.0000 H   0  0  0  0  0  0  0  0  0  0  0  0
   13.5057    1.0786    0.0000 H   0  0  0  0  0  0  0  0  0  0  0  0
   13.2936   -0.9389    0.0000 H   0  0  0  0  0  0  0  0  0  0  0  0
   14.2203   -0.4039    0.0000 H   0  0  0  0  0  0  0  0  0  0  0  0
   14.0080    1.6136    0.0000 H   0  0  0  0  0  0  0  0  0  0  0  0
   14.9346    1.0786    0.0000 H   0  0  0  0  0  0  0  0  0  0  0  0
   14.7225    1.2011    0.0000 H   0  0  0  0  0  0  0  0  0  0  0  0
   15.4370    1.5281    0.0000 H   0  0  0  0  0  0  0  0  0  0  0  0
   16.8659    1.6136    0.0000 H   0  0  0  0  0  0  0  0  0  0  0  0
   17.7925    1.0786    0.0000 H   0  0  0  0  0  0  0  0  0  0  0  0
   17.5804   -0.9389    0.0000 H   0  0  0  0  0  0  0  0  0  0  0  0
   18.5070   -0.4039    0.0000 H   0  0  0  0  0  0  0  0  0  0  0  0
   18.2949   -0.5264    0.0000 H   0  0  0  0  0  0  0  0  0  0  0  0
   19.0093   -0.8534    0.0000 H   0  0  0  0  0  0  0  0  0  0  0  0
   20.4383   -0.8534    0.0000 H   0  0  0  0  0  0  0  0  0  0  0  0
   21.1527   -0.5264    0.0000 H   0  0  0  0  0  0  0  0  0  0  0  0
   21.8672   -0.9389    0.0000 H   0  0  0  0  0  0  0  0  0  0  0  0
   22.7938   -0.4039    0.0000 H   0  0  0  0  0  0  0  0  0  0  0  0
   22.5817    1.6136    0.0000 H   0  0  0  0  0  0  0  0  0  0  0  0
   23.5084    1.0786    0.0000 H   0  0  0  0  0  0  0  0  0  0  0  0
   24.8221    0.0751    0.0000 H   0  0  0  0  0  0  0  0  0  0  0  0
   22.6787    1.3126    0.0000 H   0  0  0  0  0  0  0  0  0  0  0  0
   19.8208    1.3126    0.0000 H   0  0  0  0  0  0  0  0  0  0  0  0
   15.4370   -2.0434    0.0000 H   0  0  0  0  0  0  0  0  0  0  0  0
    5.4344   -2.0434    0.0000 H   0  0  0  0  0  0  0  0  0  0  0  0
    4.4299    6.6117    0.0000 H   0  0  0  0  0  0  0  0  0  0  0  0
    2.8249    5.6850    0.0000 H   0  0  0  0  0  0  0  0  0  0  0  0
    3.3599    6.6116    0.0000 H   0  0  0  0  0  0  0  0  0  0  0  0
    5.9485    4.8481    0.0000 H   0  0  0  0  0  0  0  0  0  0  0  0
    5.0219    6.4531    0.0000 H   0  0  0  0  0  0  0  0  0  0  0  0
    5.9486    5.9181    0.0000 H   0  0  0  0  0  0  0  0  0  0  0  0
    2.6663    5.0931    0.0000 H   0  0  0  0  0  0  0  0  0  0  0  0
    3.5929    3.4881    0.0000 H   0  0  0  0  0  0  0  0  0  0  0  0
    2.6662    4.0231    0.0000 H   0  0  0  0  0  0  0  0  0  0  0  0
  1  2  1  0  0  0  0
  1103  1  0  0  0  0
  1104  1  0  0  0  0
  1105  1  0  0  0  0
  2  3  1  0  0  0  0
  2  4  1  0  0  0  0
  2  5  1  0  0  0  0
  3106  1  0  0  0  0
  3107  1  0  0  0  0
  3108  1  0  0  0  0
  4109  1  0  0  0  0
  4110  1  0  0  0  0
  4111  1  0  0  0  0
  5  6  1  0  0  0  0
  5  7  1  0  0  0  0
  5 99  1  0  0  0  0
  7  8  2  0  0  0  0
  7 12  1  0  0  0  0
  8  9  1  0  0  0  0
  8112  1  0  0  0  0
  9 10  2  0  0  0  0
  9113  1  0  0  0  0
 10 11  1  0  0  0  0
 10 13  1  0  0  0  0
 11 12  2  0  0  0  0
 11114  1  0  0  0  0
 12115  1  0  0  0  0
 13 14  2  0  0  0  0
 13 15  1  0  0  0  0
 15 16  1  0  0  0  0
 15116  1  0  0  0  0
 16117  1  0  0  0  0
 16118  1  0  0  0  0
 17 16  1  0  0  0  0
 17 18  1  0  0  0  0
 17 51  1  0  0  0  0
 17119  1  1  0  0  0
 18 19  1  0  0  0  0
 18120  1  0  0  0  0
 19 20  2  0  0  0  0
 19 21  1  0  0  0  0
 21 22  1  0  0  0  0
 21121  1  0  0  0  0
 21122  1  0  0  0  0
 22123  1  0  0  0  0
 22124  1  0  0  0  0
 23 22  1  0  0  0  0
 23 24  1  0  0  0  0
 23 48  1  0  0  0  0
 23125  1  6  0  0  0
 24 25  1  0  0  0  0
 24 47  1  0  0  0  0
 25 26  1  0  0  0  0
 25126  1  0  0  0  0
 25127  1  0  0  0  0
 26 27  1  0  0  0  0
 26128  1  0  0  0  0
 26129  1  0  0  0  0
 27 28  1  0  0  0  0
 27 32  1  0  0  0  0
 28 29  1  0  0  0  0
 28130  1  0  0  0  0
 28131  1  0  0  0  0
 29 30  1  0  0  0  0
 29 31  2  0  0  0  0
 30132  1  0  0  0  0
 32 33  1  0  0  0  0
 32133  1  0  0  0  0
 32134  1  0  0  0  0
 33 34  1  0  0  0  0
 33135  1  0  0  0  0
 33136  1  0  0  0  0
 34 35  1  0  0  0  0
 34 39  1  0  0  0  0
 35 36  1  0  0  0  0
 35137  1  0  0  0  0
 35138  1  0  0  0  0
 36 37  1  0  0  0  0
 36 38  2  0  0  0  0
 37139  1  0  0  0  0
 39 40  1  0  0  0  0
 39140  1  0  0  0  0
 39141  1  0  0  0  0
 40 41  1  0  0  0  0
 40142  1  0  0  0  0
 40143  1  0  0  0  0
 41 42  1  0  0  0  0
 41 46  1  0  0  0  0
 42 43  1  0  0  0  0
 42144  1  0  0  0  0
 42145  1  0  0  0  0
 43 44  1  0  0  0  0
 43 45  2  0  0  0  0
 44146  1  0  0  0  0
 46 47  1  0  0  0  0
 46147  1  0  0  0  0
 46148  1  0  0  0  0
 47149  1  0  0  0  0
 47150  1  0  0  0  0
 48 49  1  0  0  0  0
 48 50  2  0  0  0  0
 49151  1  0  0  0  0
 51 52  2  0  0  0  0
 51 53  1  0  0  0  0
 53152  1  0  0  0  0
 54 53  1  0  0  0  0
 54 55  1  0  0  0  0
 54 96  1  0  0  0  0
 54153  1  1  0  0  0
 55 56  1  0  0  0  0
 55154  1  0  0  0  0
 55155  1  0  0  0  0
 56 57  1  0  0  0  0
 56156  1  0  0  0  0
 56157  1  0  0  0  0
 57 58  1  0  0  0  0
 57158  1  0  0  0  0
 57159  1  0  0  0  0
 58 59  1  0  0  0  0
 58160  1  0  0  0  0
 58161  1  0  0  0  0
 59 60  1  0  0  0  0
 59162  1  0  0  0  0
 60 61  2  0  0  0  0
 60 62  1  0  0  0  0
 62 63  1  0  0  0  0
 62163  1  0  0  0  0
 62164  1  0  0  0  0
 63 64  1  0  0  0  0
 63165  1  0  0  0  0
 63166  1  0  0  0  0
 64 65  2  0  0  0  0
 64 66  1  0  0  0  0
 66 67  1  0  0  0  0
 66167  1  0  0  0  0
 67 68  1  0  0  0  0
 67168  1  0  0  0  0
 67169  1  0  0  0  0
 68 69  1  0  0  0  0
 68170  1  0  0  0  0
 68171  1  0  0  0  0
 69172  1  0  0  0  0
 69173  1  0  0  0  0
 70 69  1  0  0  0  0
 70 71  1  0  0  0  0
 70 93  1  0  0  0  0
 70174  1  6  0  0  0
 71 72  1  0  0  0  0
 71175  1  0  0  0  0
 72 73  2  0  0  0  0
 72 74  1  0  0  0  0
 74 75  1  0  0  0  0
 74176  1  0  0  0  0
 74177  1  0  0  0  0
 75178  1  0  0  0  0
 75179  1  0  0  0  0
 76 75  1  0  0  0  0
 76 77  1  0  0  0  0
 76 90  1  0  0  0  0
 76180  1  6  0  0  0
 77 78  1  0  0  0  0
 77181  1  0  0  0  0
 78 79  2  0  0  0  0
 78 80  1  0  0  0  0
 80182  1  0  0  0  0
 81 80  1  0  0  0  0
 81 82  1  0  0  0  0
 81 87  1  0  0  0  0
 81183  1  1  0  0  0
 82 83  1  0  0  0  0
 82184  1  0  0  0  0
 82185  1  0  0  0  0
 83 84  1  0  0  0  0
 83186  1  0  0  0  0
 83187  1  0  0  0  0
 84 85  1  0  0  0  0
 84 86  2  0  0  0  0
 85188  1  0  0  0  0
 87 88  1  0  0  0  0
 87 89  2  0  0  0  0
 88189  1  0  0  0  0
 90 91  1  0  0  0  0
 90 92  2  0  0  0  0
 91190  1  0  0  0  0
 93 94  1  0  0  0  0
 93 95  2  0  0  0  0
 94191  1  0  0  0  0
 96 97  1  0  0  0  0
 96 98  2  0  0  0  0
 97192  1  0  0  0  0
 99100  1  0  0  0  0
 99101  1  0  0  0  0
 99102  1  0  0  0  0
100193  1  0  0  0  0
100194  1  0  0  0  0
100195  1  0  0  0  0
101196  1  0  0  0  0
101197  1  0  0  0  0
101198  1  0  0  0  0
102199  1  0  0  0  0
102200  1  0  0  0  0
102201  1  0  0  0  0
M  ISO  1   6  18
M  END
>  <DRUGBANK_ID>
DB17851

>  <COMMON_NAME>
Flotufolastat F-18

>  <CAS_NUMBER>
2639294-14-5

>  <UNII>
811W19E3OL

>  <SYNONYMS>
18F-rhPSMA-7.3; Flotufolastat (18F); Flotufolastat F 18; rhPSMA-7.3C

$$$$
