
 OpenBabel10282417072D

 37 36  0  0  0  0  0  0  0  0999 V2000
   -0.7150    0.2058    0.0000 C   0  0  0  0  0  0  0  0  0  0  0  0
   -1.4299   -0.2058    0.0000 O   0  0  0  0  0  0  0  0  0  0  0  0
   -2.1451    0.2058    0.0000 C   0  0  0  0  0  0  0  0  0  0  0  0
   -2.8602   -0.2058    0.0000 C   0  0  3  0  0  0  0  0  0  0  0  0
   -3.5751    0.2058    0.0000 C   0  0  0  0  0  0  0  0  0  0  0  0
   -4.2901   -0.2058    0.0000 O   0  0  0  0  0  0  0  0  0  0  0  0
   -2.8602   -1.0316    0.0000 O   0  0  0  0  0  0  0  0  0  0  0  0
    0.0000   -0.2058    0.0000 C   0  0  0  0  0  0  0  0  0  0  0  0
    0.7150    0.2058    0.0000 C   0  0  0  0  0  0  0  0  0  0  0  0
    1.4299   -0.2058    0.0000 C   0  0  0  0  0  0  0  0  0  0  0  0
    2.1451    0.2058    0.0000 C   0  0  0  0  0  0  0  0  0  0  0  0
    2.8602   -0.2058    0.0000 C   0  0  0  0  0  0  0  0  0  0  0  0
    3.5751    0.2058    0.0000 C   0  0  0  0  0  0  0  0  0  0  0  0
    4.2901   -0.2058    0.0000 C   0  0  0  0  0  0  0  0  0  0  0  0
   -0.7150    1.0316    0.0000 O   0  0  0  0  0  0  0  0  0  0  0  0
   -2.1451    1.2758    0.0000 H   0  0  0  0  0  0  0  0  0  0  0  0
   -3.0714    0.7414    0.0000 H   0  0  0  0  0  0  0  0  0  0  0  0
   -2.8601    0.8642    0.0000 H   0  0  0  0  0  0  0  0  0  0  0  0
   -3.5751    1.2758    0.0000 H   0  0  0  0  0  0  0  0  0  0  0  0
   -4.5014    0.7414    0.0000 H   0  0  0  0  0  0  0  0  0  0  0  0
   -5.1295    0.2803    0.0000 H   0  0  0  0  0  0  0  0  0  0  0  0
   -3.7002   -1.5166    0.0000 H   0  0  0  0  0  0  0  0  0  0  0  0
    0.0000   -1.2758    0.0000 H   0  0  0  0  0  0  0  0  0  0  0  0
    0.9263   -0.7414    0.0000 H   0  0  0  0  0  0  0  0  0  0  0  0
    0.7150    1.2758    0.0000 H   0  0  0  0  0  0  0  0  0  0  0  0
    1.6413    0.7413    0.0000 H   0  0  0  0  0  0  0  0  0  0  0  0
    1.4298   -1.2758    0.0000 H   0  0  0  0  0  0  0  0  0  0  0  0
    2.3562   -0.7415    0.0000 H   0  0  0  0  0  0  0  0  0  0  0  0
    2.1451    1.2758    0.0000 H   0  0  0  0  0  0  0  0  0  0  0  0
    3.0714    0.7414    0.0000 H   0  0  0  0  0  0  0  0  0  0  0  0
    2.8603   -1.2758    0.0000 H   0  0  0  0  0  0  0  0  0  0  0  0
    3.7865   -0.7413    0.0000 H   0  0  0  0  0  0  0  0  0  0  0  0
    3.5751    1.2758    0.0000 H   0  0  0  0  0  0  0  0  0  0  0  0
    4.5014    0.7414    0.0000 H   0  0  0  0  0  0  0  0  0  0  0  0
    4.2915   -1.2758    0.0000 H   0  0  0  0  0  0  0  0  0  0  0  0
    5.2161    0.3304    0.0000 H   0  0  0  0  0  0  0  0  0  0  0  0
    5.2174   -0.7396    0.0000 H   0  0  0  0  0  0  0  0  0  0  0  0
  1  2  1  0  0  0  0
  1  8  1  0  0  0  0
  1 15  2  0  0  0  0
  2  3  1  0  0  0  0
  3  4  1  0  0  0  0
  3 16  1  0  0  0  0
  3 17  1  0  0  0  0
  4  5  1  0  0  0  0
  4  7  1  0  0  0  0
  4 18  1  0  0  0  0
  5  6  1  0  0  0  0
  5 19  1  0  0  0  0
  5 20  1  0  0  0  0
  6 21  1  0  0  0  0
  7 22  1  0  0  0  0
  8  9  1  0  0  0  0
  8 23  1  0  0  0  0
  8 24  1  0  0  0  0
  9 10  1  0  0  0  0
  9 25  1  0  0  0  0
  9 26  1  0  0  0  0
 10 11  1  0  0  0  0
 10 27  1  0  0  0  0
 10 28  1  0  0  0  0
 11 12  1  0  0  0  0
 11 29  1  0  0  0  0
 11 30  1  0  0  0  0
 12 13  1  0  0  0  0
 12 31  1  0  0  0  0
 12 32  1  0  0  0  0
 13 14  1  0  0  0  0
 13 33  1  0  0  0  0
 13 34  1  0  0  0  0
 14 35  1  0  0  0  0
 14 36  1  0  0  0  0
 14 37  1  0  0  0  0
M  END
>  <DRUGBANK_ID>
DB06801

>  <COMMON_NAME>
Monoctanoin

>  <CAS_NUMBER>
502-54-5

>  <UNII>
MCF579Z59B

>  <SYNONYMS>
1-Monocaprylin; 2,3-Dihydroxypropyl octanoate; Caprylic acid Î±-monoglyceride; Monooctanoin; Octanoic acid 1-monoglyceride

$$$$
