311
 OpenBabel10282417072D

 26 27  0  0  0  0  0  0  0  0999 V2000
    7.3097    0.0000    0.0000 S   0  0  0  0  0  0  0  0  0  0  0  0
    6.0031    0.6639    0.0000 S   0  0  0  0  0  0  0  0  0  0  0  0
    3.0791    0.8250    0.0000 O   0  0  0  0  0  0  0  0  0  0  0  0
    7.3097    0.8250    0.0000 O   0  0  0  0  0  0  0  0  0  0  0  0
    7.3097   -0.8250    0.0000 O   0  0  0  0  0  0  0  0  0  0  0  0
    6.0031   -0.6639    0.0000 N   0  0  0  0  0  0  0  0  0  0  0  0
    8.1347    0.0000    0.0000 N   0  0  0  0  0  0  0  0  0  0  0  0
    5.2224    0.4125    0.0000 C   0  0  0  0  0  0  0  0  0  0  0  0
    5.2224   -0.4125    0.0000 C   0  0  0  0  0  0  0  0  0  0  0  0
    6.4846    0.0000    0.0000 C   0  0  0  0  0  0  0  0  0  0  0  0
    4.5080    0.8250    0.0000 C   0  0  0  0  0  0  0  0  0  0  0  0
    3.7935    0.4125    0.0000 C   0  0  0  0  0  0  0  0  0  0  0  0
    4.5080   -0.8250    0.0000 C   0  0  0  0  0  0  0  0  0  0  0  0
    3.7935   -0.4125    0.0000 C   0  0  0  0  0  0  0  0  0  0  0  0
    2.3645    0.4125    0.0000 C   0  0  0  0  0  0  0  0  0  0  0  0
    1.6500    0.8250    0.0000 C   0  0  0  0  0  0  0  0  0  0  0  0
    8.6447   -0.8833    0.0000 H   0  0  0  0  0  0  0  0  0  0  0  0
    8.6447    0.8833    0.0000 H   0  0  0  0  0  0  0  0  0  0  0  0
    4.5080    1.8570    0.0000 H   0  0  0  0  0  0  0  0  0  0  0  0
    4.5080   -1.8570    0.0000 H   0  0  0  0  0  0  0  0  0  0  0  0
    2.8998   -0.9285    0.0000 H   0  0  0  0  0  0  0  0  0  0  0  0
    2.3645   -0.6575    0.0000 H   0  0  0  0  0  0  0  0  0  0  0  0
    1.4378   -0.1225    0.0000 H   0  0  0  0  0  0  0  0  0  0  0  0
    1.6500    1.8950    0.0000 H   0  0  0  0  0  0  0  0  0  0  0  0
    0.7234    0.2900    0.0000 H   0  0  0  0  0  0  0  0  0  0  0  0
    0.7233    1.3600    0.0000 H   0  0  0  0  0  0  0  0  0  0  0  0
  1  4  2  0  0  0  0
  1  5  2  0  0  0  0
  1  7  1  0  0  0  0
  1 10  1  0  0  0  0
  2  8  1  0  0  0  0
  2 10  1  0  0  0  0
  3 12  1  0  0  0  0
  3 15  1  0  0  0  0
  6  9  1  0  0  0  0
  6 10  2  0  0  0  0
  7 17  1  0  0  0  0
  7 18  1  0  0  0  0
  8  9  2  0  0  0  0
  8 11  1  0  0  0  0
  9 13  1  0  0  0  0
 11 12  2  0  0  0  0
 11 19  1  0  0  0  0
 12 14  1  0  0  0  0
 13 14  2  0  0  0  0
 13 20  1  0  0  0  0
 14 21  1  0  0  0  0
 15 16  1  0  0  0  0
 15 22  1  0  0  0  0
 15 23  1  0  0  0  0
 16 24  1  0  0  0  0
 16 25  1  0  0  0  0
 16 26  1  0  0  0  0
M  END
>  <DRUGBANK_ID>
DB00311

>  <SECONDARY_ACCESSION_NUMBERS>
APRD00732; DB07727

>  <COMMON_NAME>
Ethoxzolamide

>  <CAS_NUMBER>
452-35-7

>  <UNII>
Z52H4811WX

>  <SYNONYMS>
6-Ethoxy-1,3-benzothiazole-2-sulfonamide; Ethoxazolamide; Ethoxyzolamide

$$$$
