U49
 OpenBabel10282417072D

 54 59  0  0  0  0  0  0  0  0999 V2000
   -1.6602   -0.0680    0.0000 C   0  0  0  0  0  0  0  0  0  0  0  0
   -1.5195    0.7449    0.0000 C   0  0  0  0  0  0  0  0  0  0  0  0
   -2.4345   -0.3527    0.0000 C   0  0  0  0  0  0  0  0  0  0  0  0
   -1.0265   -0.5963    0.0000 C   0  0  0  0  0  0  0  0  0  0  0  0
   -1.0649    1.5792    0.0000 N   0  0  0  0  0  0  0  0  0  0  0  0
   -2.1532    1.2732    0.0000 C   0  0  0  0  0  0  0  0  0  0  0  0
   -2.5752   -1.1656    0.0000 C   0  0  0  0  0  0  0  0  0  0  0  0
   -3.0682    0.1756    0.0000 C   0  0  0  0  0  0  0  0  0  0  0  0
   -1.1672   -1.4092    0.0000 C   0  0  0  0  0  0  0  0  0  0  0  0
   -1.1014    2.4034    0.0000 C   0  0  0  0  0  0  0  0  0  0  0  0
   -0.2697    1.3593    0.0000 C   0  0  0  0  0  0  0  0  0  0  0  0
   -2.9275    0.9885    0.0000 C   0  0  0  0  0  0  0  0  0  0  0  0
   -1.9415   -1.6939    0.0000 C   0  0  0  0  0  0  0  0  0  0  0  0
   -0.4973   -1.8908    0.0000 O   0  0  0  0  0  0  0  0  0  0  0  0
   -0.3289    2.6929    0.0000 C   0  0  0  0  0  0  0  0  0  0  0  0
    0.1851    2.0476    0.0000 C   0  0  1  0  0  0  0  0  0  0  0  0
    0.4832   -2.0129    0.0000 C   0  0  0  0  0  0  0  0  0  0  0  0
    0.7726   -2.7854    0.0000 C   0  0  0  0  0  0  0  0  0  0  0  0
    1.0075   -1.3759    0.0000 C   0  0  0  0  0  0  0  0  0  0  0  0
    1.9236    1.4769    0.0000 C   0  0  0  0  0  0  0  0  0  0  0  0
    1.5864   -2.9210    0.0000 C   0  0  0  0  0  0  0  0  0  0  0  0
    0.2483   -3.4224    0.0000 C   0  0  0  0  0  0  0  0  0  0  0  0
    1.8213   -1.5115    0.0000 C   0  0  0  0  0  0  0  0  0  0  0  0
    2.3582    0.7757    0.0000 C   0  0  0  0  0  0  0  0  0  0  0  0
    2.1107   -2.2841    0.0000 C   0  0  0  0  0  0  0  0  0  0  0  0
   -0.2760   -4.0593    0.0000 N   0  0  0  0  0  0  0  0  0  0  0  0
    2.3028   -0.8417    0.0000 C   0  0  0  0  0  0  0  0  0  0  0  0
    2.4914   -0.0385    0.0000 N   0  0  0  0  0  0  0  0  0  0  0  0
    3.0914    1.1539    0.0000 C   0  0  0  0  0  0  0  0  0  0  0  0
    3.3068   -0.1634    0.0000 C   0  0  0  0  0  0  0  0  0  0  0  0
    3.6777    0.5735    0.0000 N   0  0  0  0  0  0  0  0  0  0  0  0
    0.0197    0.5868    0.0000 O   0  0  0  0  0  0  0  0  0  0  0  0
    1.2537    1.9585    0.0000 N   0  0  0  0  0  0  0  0  0  0  0  0
    0.4603    2.5626    0.0000 H   0  0  0  0  0  0  0  0  0  0  0  0
   -0.0579   -0.2403    0.0000 H   0  0  0  0  0  0  0  0  0  0  0  0
   -1.9773    2.2901    0.0000 H   0  0  0  0  0  0  0  0  0  0  0  0
   -3.5438   -1.5216    0.0000 H   0  0  0  0  0  0  0  0  0  0  0  0
   -4.0368   -0.1804    0.0000 H   0  0  0  0  0  0  0  0  0  0  0  0
   -1.9941    2.9934    0.0000 H   0  0  0  0  0  0  0  0  0  0  0  0
   -0.9810    3.4666    0.0000 H   0  0  0  0  0  0  0  0  0  0  0  0
   -3.7202    1.6493    0.0000 H   0  0  0  0  0  0  0  0  0  0  0  0
   -2.1174   -2.7108    0.0000 H   0  0  0  0  0  0  0  0  0  0  0  0
   -0.0437    3.7242    0.0000 H   0  0  0  0  0  0  0  0  0  0  0  0
    0.7195    2.9070    0.0000 H   0  0  0  0  0  0  0  0  0  0  0  0
    0.6454   -0.4095    0.0000 H   0  0  0  0  0  0  0  0  0  0  0  0
    2.7057    2.2072    0.0000 H   0  0  0  0  0  0  0  0  0  0  0  0
    1.8552    2.5447    0.0000 H   0  0  0  0  0  0  0  0  0  0  0  0
    1.9485   -3.8874    0.0000 H   0  0  0  0  0  0  0  0  0  0  0  0
    3.1287   -2.4538    0.0000 H   0  0  0  0  0  0  0  0  0  0  0  0
    3.2767   -1.2848    0.0000 H   0  0  0  0  0  0  0  0  0  0  0  0
    3.2632   -0.3699    0.0000 H   0  0  0  0  0  0  0  0  0  0  0  0
    3.2477    2.1740    0.0000 H   0  0  0  0  0  0  0  0  0  0  0  0
    3.7799   -1.0806    0.0000 H   0  0  0  0  0  0  0  0  0  0  0  0
    1.6066    2.9155    0.0000 H   0  0  0  0  0  0  0  0  0  0  0  0
  1  2  2  0  0  0  0
  1  3  1  0  0  0  0
  1  4  1  0  0  0  0
  2  5  1  0  0  0  0
  2  6  1  0  0  0  0
  3  7  1  0  0  0  0
  3  8  2  0  0  0  0
  4  9  2  0  0  0  0
  4 35  1  0  0  0  0
  5 10  1  0  0  0  0
  5 11  1  0  0  0  0
  6 12  2  0  0  0  0
  6 36  1  0  0  0  0
  7 13  2  0  0  0  0
  7 37  1  0  0  0  0
  8 12  1  0  0  0  0
  8 38  1  0  0  0  0
  9 13  1  0  0  0  0
  9 14  1  0  0  0  0
 10 15  1  0  0  0  0
 10 39  1  0  0  0  0
 10 40  1  0  0  0  0
 11 16  1  0  0  0  0
 11 32  2  0  0  0  0
 12 41  1  0  0  0  0
 13 42  1  0  0  0  0
 14 17  1  0  0  0  0
 15 16  1  0  0  0  0
 15 43  1  0  0  0  0
 15 44  1  0  0  0  0
 16 33  1  0  0  0  0
 16 34  1  6  0  0  0
 17 18  2  0  0  0  0
 17 19  1  0  0  0  0
 18 21  1  0  0  0  0
 18 22  1  0  0  0  0
 19 23  2  0  0  0  0
 19 45  1  0  0  0  0
 20 24  1  0  0  0  0
 20 33  1  0  0  0  0
 20 46  1  0  0  0  0
 20 47  1  0  0  0  0
 21 25  2  0  0  0  0
 21 48  1  0  0  0  0
 22 26  3  0  0  0  0
 23 25  1  0  0  0  0
 23 27  1  0  0  0  0
 24 28  1  0  0  0  0
 24 29  2  0  0  0  0
 25 49  1  0  0  0  0
 27 28  1  0  0  0  0
 27 50  1  0  0  0  0
 27 51  1  0  0  0  0
 28 30  1  0  0  0  0
 29 31  1  0  0  0  0
 29 52  1  0  0  0  0
 30 31  2  0  0  0  0
 30 53  1  0  0  0  0
 33 54  1  0  0  0  0
M  END
>  <DRUGBANK_ID>
DB08674

>  <COMMON_NAME>
(20S)-19,20,21,22-TETRAHYDRO-19-OXO-5H-18,20-ETHANO-12,14-ETHENO-6,10-METHENO-18H-BENZ[D]IMIDAZO[4,3-K][1,6,9,12]OXATRIAZA-CYCLOOCTADECOSINE-9-CARBONITRILE

$$$$
