302
 OpenBabel10282417072D

 39 40  0  0  0  0  0  0  0  0999 V2000
    3.6744    2.8922    0.0000 C   0  0  0  0  0  0  0  0  0  0  0  0
    5.1034    2.8922    0.0000 C   0  0  0  0  0  0  0  0  0  0  0  0
    4.3889    4.1297    0.0000 C   0  0  0  0  0  0  0  0  0  0  0  0
    3.6744    3.7172    0.0000 C   0  0  0  0  0  0  0  0  0  0  0  0
    4.3889    2.4797    0.0000 N   0  0  0  0  0  0  0  0  0  0  0  0
    5.1034    3.7172    0.0000 N   0  0  0  0  0  0  0  0  0  0  0  0
   -4.1847   -0.8203    0.0000 O   0  0  0  0  0  0  0  0  0  0  0  0
   -4.1847    0.0047    0.0000 C   0  0  0  0  0  0  0  0  0  0  0  0
   -4.8992    0.4172    0.0000 O   0  0  0  0  0  0  0  0  0  0  0  0
   -3.4703    0.4172    0.0000 C   0  0  0  0  0  0  0  0  0  0  0  0
   -3.4703    1.2422    0.0000 C   0  0  0  0  0  0  0  0  0  0  0  0
   -2.7558    1.6547    0.0000 C   0  0  0  0  0  0  0  0  0  0  0  0
   -2.7558    0.0047    0.0000 C   0  0  0  0  0  0  0  0  0  0  0  0
   -2.0413    0.4172    0.0000 C   0  0  0  0  0  0  0  0  0  0  0  0
   -2.0413    1.2422    0.0000 C   0  0  0  0  0  0  0  0  0  0  0  0
   -1.3269    1.6547    0.0000 C   0  0  0  0  0  0  0  0  0  0  0  0
   -0.6124    1.2422    0.0000 N   0  0  0  0  0  0  0  0  0  0  0  0
    0.1021    1.6547    0.0000 O   0  0  0  0  0  0  0  0  0  0  0  0
    0.8166    1.2422    0.0000 C   0  0  0  0  0  0  0  0  0  0  0  0
    1.5310    1.6547    0.0000 C   0  0  0  0  0  0  0  0  0  0  0  0
    2.2455    1.2422    0.0000 O   0  0  0  0  0  0  0  0  0  0  0  0
    2.9600    1.6547    0.0000 N   0  0  0  0  0  0  0  0  0  0  0  0
    2.9600    2.4797    0.0000 C   0  0  0  0  0  0  0  0  0  0  0  0
    4.3889    4.9547    0.0000 O   0  0  0  0  0  0  0  0  0  0  0  0
    5.8179    2.4797    0.0000 O   0  0  0  0  0  0  0  0  0  0  0  0
    2.7807    4.2332    0.0000 H   0  0  0  0  0  0  0  0  0  0  0  0
    4.3889    1.4952    0.0000 H   0  0  0  0  0  0  0  0  0  0  0  0
    5.9560    4.2095    0.0000 H   0  0  0  0  0  0  0  0  0  0  0  0
   -4.9962   -1.2888    0.0000 H   0  0  0  0  0  0  0  0  0  0  0  0
   -4.3640    1.7582    0.0000 H   0  0  0  0  0  0  0  0  0  0  0  0
   -2.7558    2.6867    0.0000 H   0  0  0  0  0  0  0  0  0  0  0  0
   -2.7558   -1.0273    0.0000 H   0  0  0  0  0  0  0  0  0  0  0  0
   -1.1476   -0.0988    0.0000 H   0  0  0  0  0  0  0  0  0  0  0  0
   -1.3269    2.6867    0.0000 H   0  0  0  0  0  0  0  0  0  0  0  0
    0.8166    0.1722    0.0000 H   0  0  0  0  0  0  0  0  0  0  0  0
    1.7433    0.7072    0.0000 H   0  0  0  0  0  0  0  0  0  0  0  0
    1.5310    2.7247    0.0000 H   0  0  0  0  0  0  0  0  0  0  0  0
    2.4576    2.1897    0.0000 H   0  0  0  0  0  0  0  0  0  0  0  0
    2.0663    2.9957    0.0000 H   0  0  0  0  0  0  0  0  0  0  0  0
  1  4  2  0  0  0  0
  1  5  1  0  0  0  0
  1 23  1  0  0  0  0
  2  6  1  0  0  0  0
  2 25  2  0  0  0  0
  2  5  1  0  0  0  0
  3 24  2  0  0  0  0
  3  6  1  0  0  0  0
  3  4  1  0  0  0  0
  4 26  1  0  0  0  0
  5 27  1  0  0  0  0
  6 28  1  0  0  0  0
  7  8  1  0  0  0  0
  7 29  1  0  0  0  0
  8  9  2  0  0  0  0
  8 10  1  0  0  0  0
 10 11  1  0  0  0  0
 10 13  2  0  0  0  0
 11 12  2  0  0  0  0
 11 30  1  0  0  0  0
 12 15  1  0  0  0  0
 12 31  1  0  0  0  0
 13 14  1  0  0  0  0
 13 32  1  0  0  0  0
 14 15  2  0  0  0  0
 14 33  1  0  0  0  0
 15 16  1  0  0  0  0
 16 17  2  0  0  0  0
 16 34  1  0  0  0  0
 17 18  1  0  0  0  0
 18 19  1  0  0  0  0
 19 20  1  0  0  0  0
 19 35  1  0  0  0  0
 19 36  1  0  0  0  0
 20 21  1  0  0  0  0
 20 37  1  0  0  0  0
 20 38  1  0  0  0  0
 21 22  1  0  0  0  0
 22 23  2  0  0  0  0
 23 39  1  0  0  0  0
M  END
>  <DRUGBANK_ID>
DB06990

>  <COMMON_NAME>
4-[(1E,7E)-8-(2,6-DIOXO-1,2,3,6-TETRAHYDROPYRIMIDIN-4-YL)-3,6-DIOXA-2,7-DIAZAOCTA-1,7-DIEN-1-YL]BENZOIC ACID

$$$$
