BB1
 OpenBabel10282417072D

 54 53  0  0  0  0  0  0  0  0999 V2000
    1.0695   -1.2399    0.0000 C   0  0  0  0  0  0  0  0  0  0  0  0
    1.0695   -0.4149    0.0000 C   0  0  2  0  0  0  0  0  0  0  0  0
    0.3551   -0.0024    0.0000 C   0  0  0  0  0  0  0  0  0  0  0  0
    0.3551    0.8226    0.0000 O   0  0  0  0  0  0  0  0  0  0  0  0
   -0.3594   -0.4149    0.0000 N   0  0  0  0  0  0  0  0  0  0  0  0
   -1.0739   -0.0024    0.0000 C   0  0  2  0  0  0  0  0  0  0  0  0
    1.7840   -0.0024    0.0000 C   0  0  0  0  0  0  0  0  0  0  0  0
    2.4985   -0.4149    0.0000 C   0  0  0  0  0  0  0  0  0  0  0  0
    3.2130   -0.0024    0.0000 C   0  0  0  0  0  0  0  0  0  0  0  0
    3.9274   -0.4149    0.0000 C   0  0  0  0  0  0  0  0  0  0  0  0
    1.7840   -1.6524    0.0000 N   0  0  0  0  0  0  0  0  0  0  0  0
    2.4985   -1.2399    0.0000 C   0  0  0  0  0  0  0  0  0  0  0  0
    3.2130   -1.6524    0.0000 O   0  0  0  0  0  0  0  0  0  0  0  0
    1.7840   -2.4774    0.0000 O   0  0  0  0  0  0  0  0  0  0  0  0
   -1.7883   -0.4149    0.0000 C   0  0  0  0  0  0  0  0  0  0  0  0
   -2.5028   -0.0024    0.0000 N   0  0  0  0  0  0  0  0  0  0  0  0
   -3.2173   -0.4149    0.0000 C   0  0  0  0  0  0  0  0  0  0  0  0
   -2.5028    0.8226    0.0000 C   0  0  0  0  0  0  0  0  0  0  0  0
   -1.7883   -1.2399    0.0000 O   0  0  0  0  0  0  0  0  0  0  0  0
   -1.0739    0.8226    0.0000 C   0  0  0  0  0  0  0  0  0  0  0  0
   -1.0739    1.6476    0.0000 C   0  0  0  0  0  0  0  0  0  0  0  0
   -1.8989    0.8226    0.0000 C   0  0  0  0  0  0  0  0  0  0  0  0
   -0.2489    0.8226    0.0000 C   0  0  0  0  0  0  0  0  0  0  0  0
    0.5639   -0.7069    0.0000 H   0  0  0  0  0  0  0  0  0  0  0  0
   -1.0739   -0.5864    0.0000 H   0  0  0  0  0  0  0  0  0  0  0  0
    0.1429   -1.7749    0.0000 H   0  0  0  0  0  0  0  0  0  0  0  0
    1.0695   -2.3099    0.0000 H   0  0  0  0  0  0  0  0  0  0  0  0
   -0.3594   -1.3994    0.0000 H   0  0  0  0  0  0  0  0  0  0  0  0
    1.7840    1.0676    0.0000 H   0  0  0  0  0  0  0  0  0  0  0  0
    2.7106    0.5326    0.0000 H   0  0  0  0  0  0  0  0  0  0  0  0
    2.4985   -1.4849    0.0000 H   0  0  0  0  0  0  0  0  0  0  0  0
    3.4251   -0.9499    0.0000 H   0  0  0  0  0  0  0  0  0  0  0  0
    3.2130    1.0676    0.0000 H   0  0  0  0  0  0  0  0  0  0  0  0
    4.1397    0.5326    0.0000 H   0  0  0  0  0  0  0  0  0  0  0  0
    3.9274   -1.4849    0.0000 H   0  0  0  0  0  0  0  0  0  0  0  0
    4.8541    0.1201    0.0000 H   0  0  0  0  0  0  0  0  0  0  0  0
    4.8540   -0.9499    0.0000 H   0  0  0  0  0  0  0  0  0  0  0  0
    2.4985   -0.2079    0.0000 H   0  0  0  0  0  0  0  0  0  0  0  0
    0.9440   -2.9624    0.0000 H   0  0  0  0  0  0  0  0  0  0  0  0
   -4.1439    0.1201    0.0000 H   0  0  0  0  0  0  0  0  0  0  0  0
   -3.2173   -1.4849    0.0000 H   0  0  0  0  0  0  0  0  0  0  0  0
   -4.1440   -0.9499    0.0000 H   0  0  0  0  0  0  0  0  0  0  0  0
   -1.5762    1.3576    0.0000 H   0  0  0  0  0  0  0  0  0  0  0  0
   -3.4294    1.3576    0.0000 H   0  0  0  0  0  0  0  0  0  0  0  0
   -2.5028    1.8926    0.0000 H   0  0  0  0  0  0  0  0  0  0  0  0
   -0.1473    2.1826    0.0000 H   0  0  0  0  0  0  0  0  0  0  0  0
   -2.0005    2.1826    0.0000 H   0  0  0  0  0  0  0  0  0  0  0  0
   -1.0739    2.7176    0.0000 H   0  0  0  0  0  0  0  0  0  0  0  0
   -2.4339    1.7492    0.0000 H   0  0  0  0  0  0  0  0  0  0  0  0
   -2.4339   -0.1040    0.0000 H   0  0  0  0  0  0  0  0  0  0  0  0
   -2.9689    0.8226    0.0000 H   0  0  0  0  0  0  0  0  0  0  0  0
    0.2861   -0.1040    0.0000 H   0  0  0  0  0  0  0  0  0  0  0  0
    0.2861    1.7492    0.0000 H   0  0  0  0  0  0  0  0  0  0  0  0
    0.8211    0.8226    0.0000 H   0  0  0  0  0  0  0  0  0  0  0  0
  1  2  1  0  0  0  0
  1 11  1  0  0  0  0
  1 26  1  0  0  0  0
  1 27  1  0  0  0  0
  2  3  1  0  0  0  0
  2  7  1  0  0  0  0
  2 24  1  1  0  0  0
  3  4  2  0  0  0  0
  3  5  1  0  0  0  0
  5 28  1  0  0  0  0
  6  5  1  0  0  0  0
  6 15  1  0  0  0  0
  6 20  1  0  0  0  0
  6 25  1  1  0  0  0
  7  8  1  0  0  0  0
  7 29  1  0  0  0  0
  7 30  1  0  0  0  0
  8  9  1  0  0  0  0
  8 31  1  0  0  0  0
  8 32  1  0  0  0  0
  9 10  1  0  0  0  0
  9 33  1  0  0  0  0
  9 34  1  0  0  0  0
 10 35  1  0  0  0  0
 10 36  1  0  0  0  0
 10 37  1  0  0  0  0
 11 12  1  0  0  0  0
 11 14  1  0  0  0  0
 12 13  2  0  0  0  0
 12 38  1  0  0  0  0
 14 39  1  0  0  0  0
 15 16  1  0  0  0  0
 15 19  2  0  0  0  0
 16 17  1  0  0  0  0
 16 18  1  0  0  0  0
 17 40  1  0  0  0  0
 17 41  1  0  0  0  0
 17 42  1  0  0  0  0
 18 43  1  0  0  0  0
 18 44  1  0  0  0  0
 18 45  1  0  0  0  0
 20 21  1  0  0  0  0
 20 22  1  0  0  0  0
 20 23  1  0  0  0  0
 21 46  1  0  0  0  0
 21 47  1  0  0  0  0
 21 48  1  0  0  0  0
 22 49  1  0  0  0  0
 22 50  1  0  0  0  0
 22 51  1  0  0  0  0
 23 52  1  0  0  0  0
 23 53  1  0  0  0  0
 23 54  1  0  0  0  0
M  END
>  <DRUGBANK_ID>
DB04368

>  <SECONDARY_ACCESSION_NUMBERS>
EXPT00629

>  <COMMON_NAME>
Bb-3497

>  <CAS_NUMBER>
235784-88-0

$$$$
