
 OpenBabel10282417072D

 25 25  0  0  0  0  0  0  0  0999 V2000
    1.4341    0.4733    0.0000 O   0  0  0  0  0  0  0  0  0  0  0  0
   -1.4341    0.4675    0.0000 O   0  0  0  0  0  0  0  0  0  0  0  0
    0.7084   -0.7686    0.0000 N   0  0  0  0  0  0  0  0  0  0  0  0
   -0.0057    0.4675    0.0000 C   0  0  0  0  0  0  0  0  0  0  0  0
    0.7084    0.0544    0.0000 C   0  0  0  0  0  0  0  0  0  0  0  0
   -0.7200    0.0544    0.0000 C   0  0  0  0  0  0  0  0  0  0  0  0
   -0.5879    1.1760    0.0000 C   0  0  0  0  0  0  0  0  0  0  0  0
    0.4904    1.1157    0.0000 C   0  0  0  0  0  0  0  0  0  0  0  0
   -0.7200   -0.7686    0.0000 C   0  0  0  0  0  0  0  0  0  0  0  0
   -0.0057   -1.1818    0.0000 C   0  0  0  0  0  0  0  0  0  0  0  0
    1.3165    1.1157    0.0000 C   0  0  0  0  0  0  0  0  0  0  0  0
   -1.3854    1.1818    0.0000 C   0  0  0  0  0  0  0  0  0  0  0  0
    1.5612   -1.2604    0.0000 H   0  0  0  0  0  0  0  0  0  0  0  0
   -0.1272    2.1417    0.0000 H   0  0  0  0  0  0  0  0  0  0  0  0
   -1.1556    2.0830    0.0000 H   0  0  0  0  0  0  0  0  0  0  0  0
    0.0166    2.0751    0.0000 H   0  0  0  0  0  0  0  0  0  0  0  0
    1.0551    2.0245    0.0000 H   0  0  0  0  0  0  0  0  0  0  0  0
   -1.6140   -1.2842    0.0000 H   0  0  0  0  0  0  0  0  0  0  0  0
   -0.0056   -2.2138    0.0000 H   0  0  0  0  0  0  0  0  0  0  0  0
    1.8515    0.1891    0.0000 H   0  0  0  0  0  0  0  0  0  0  0  0
    1.8515    2.0423    0.0000 H   0  0  0  0  0  0  0  0  0  0  0  0
    2.3865    1.1157    0.0000 H   0  0  0  0  0  0  0  0  0  0  0  0
   -1.9136    2.1123    0.0000 H   0  0  0  0  0  0  0  0  0  0  0  0
   -1.9271    0.2591    0.0000 H   0  0  0  0  0  0  0  0  0  0  0  0
   -2.4554    1.1896    0.0000 H   0  0  0  0  0  0  0  0  0  0  0  0
  1  5  2  0  0  0  0
  2  6  2  0  0  0  0
  3  5  1  0  0  0  0
  3 10  1  0  0  0  0
  3 13  1  0  0  0  0
  4  5  1  0  0  0  0
  4  6  1  0  0  0  0
  4  7  1  0  0  0  0
  4  8  1  0  0  0  0
  6  9  1  0  0  0  0
  7 12  1  0  0  0  0
  7 14  1  0  0  0  0
  7 15  1  0  0  0  0
  8 11  1  0  0  0  0
  8 16  1  0  0  0  0
  8 17  1  0  0  0  0
  9 10  2  0  0  0  0
  9 18  1  0  0  0  0
 10 19  1  0  0  0  0
 11 20  1  0  0  0  0
 11 21  1  0  0  0  0
 11 22  1  0  0  0  0
 12 23  1  0  0  0  0
 12 24  1  0  0  0  0
 12 25  1  0  0  0  0
M  END
>  <DRUGBANK_ID>
DB13331

>  <COMMON_NAME>
Pyrithyldione

>  <CAS_NUMBER>
77-04-3

>  <UNII>
8AB20823CK

>  <SYNONYMS>
Pyrithyldiona; Pyrithyldione; Pyrithyldionum

$$$$
