
 OpenBabel10282417072D

 58 59  0  0  0  0  0  0  0  0999 V2000
   -4.9788   -0.6173    0.0000 C   0  0  0  0  0  0  0  0  0  0  0  0
   -4.2718   -0.2091    0.0000 C   0  0  0  0  0  0  0  0  0  0  0  0
   -3.5549   -0.6173    0.0000 C   0  0  0  0  0  0  0  0  0  0  0  0
   -2.8479   -0.2091    0.0000 C   0  0  0  0  0  0  0  0  0  0  0  0
   -2.1309   -0.6173    0.0000 C   0  0  3  0  0  0  0  0  0  0  0  0
   -2.1309   -1.4439    0.0000 C   0  0  0  0  0  0  0  0  0  0  0  0
   -2.8479   -1.8521    0.0000 C   0  0  0  0  0  0  0  0  0  0  0  0
   -1.4239   -0.2091    0.0000 C   0  0  0  0  0  0  0  0  0  0  0  0
   -0.7069   -0.6173    0.0000 O   0  0  0  0  0  0  0  0  0  0  0  0
    0.0000   -0.2091    0.0000 C   0  0  0  0  0  0  0  0  0  0  0  0
    0.0000    0.6174    0.0000 O   0  0  0  0  0  0  0  0  0  0  0  0
    0.7069   -0.6173    0.0000 C   0  0  0  0  0  0  0  0  0  0  0  0
    1.4239   -0.2091    0.0000 C   0  0  0  0  0  0  0  0  0  0  0  0
    1.4239    0.6174    0.0000 C   0  0  0  0  0  0  0  0  0  0  0  0
    0.7069    1.0256    0.0000 C   0  0  0  0  0  0  0  0  0  0  0  0
    0.7069    1.8422    0.0000 C   0  0  0  0  0  0  0  0  0  0  0  0
    1.4239    2.2604    0.0000 C   0  0  0  0  0  0  0  0  0  0  0  0
    2.1309    1.8422    0.0000 C   0  0  0  0  0  0  0  0  0  0  0  0
    2.1309    1.0256    0.0000 C   0  0  0  0  0  0  0  0  0  0  0  0
    2.1309   -0.6173    0.0000 C   0  0  0  0  0  0  0  0  0  0  0  0
    2.8479   -0.2091    0.0000 C   0  0  0  0  0  0  0  0  0  0  0  0
    3.5548   -0.6173    0.0000 C   0  0  0  0  0  0  0  0  0  0  0  0
    3.5548   -1.4439    0.0000 C   0  0  0  0  0  0  0  0  0  0  0  0
    2.8479   -1.8521    0.0000 C   0  0  0  0  0  0  0  0  0  0  0  0
    2.1309   -1.4439    0.0000 C   0  0  0  0  0  0  0  0  0  0  0  0
    4.2718   -1.8521    0.0000 O   0  0  0  0  0  0  0  0  0  0  0  0
    4.9788   -1.4439    0.0000 C   0  0  0  0  0  0  0  0  0  0  0  0
    0.7069   -1.4439    0.0000 C   0  0  0  0  0  0  0  0  0  0  0  0
    0.7069   -2.2604    0.0000 N   0  0  0  0  0  0  0  0  0  0  0  0
   -5.9055   -0.0823    0.0000 H   0  0  0  0  0  0  0  0  0  0  0  0
   -4.9788   -1.6873    0.0000 H   0  0  0  0  0  0  0  0  0  0  0  0
   -5.9054   -1.1523    0.0000 H   0  0  0  0  0  0  0  0  0  0  0  0
   -4.2750    0.8609    0.0000 H   0  0  0  0  0  0  0  0  0  0  0  0
   -3.3476    0.3301    0.0000 H   0  0  0  0  0  0  0  0  0  0  0  0
   -3.5517   -1.6873    0.0000 H   0  0  0  0  0  0  0  0  0  0  0  0
   -2.6274   -1.1509    0.0000 H   0  0  0  0  0  0  0  0  0  0  0  0
   -2.8511    0.8609    0.0000 H   0  0  0  0  0  0  0  0  0  0  0  0
   -1.9237    0.3301    0.0000 H   0  0  0  0  0  0  0  0  0  0  0  0
   -3.0559   -1.1551    0.0000 H   0  0  0  0  0  0  0  0  0  0  0  0
   -1.2059   -1.9817    0.0000 H   0  0  0  0  0  0  0  0  0  0  0  0
   -2.1358   -2.5139    0.0000 H   0  0  0  0  0  0  0  0  0  0  0  0
   -3.7713   -1.3115    0.0000 H   0  0  0  0  0  0  0  0  0  0  0  0
   -2.8544   -2.9221    0.0000 H   0  0  0  0  0  0  0  0  0  0  0  0
   -3.7778   -2.3815    0.0000 H   0  0  0  0  0  0  0  0  0  0  0  0
   -1.4271    0.8609    0.0000 H   0  0  0  0  0  0  0  0  0  0  0  0
   -0.4997    0.3301    0.0000 H   0  0  0  0  0  0  0  0  0  0  0  0
   -0.1853    0.5069    0.0000 H   0  0  0  0  0  0  0  0  0  0  0  0
   -0.1880    2.3562    0.0000 H   0  0  0  0  0  0  0  0  0  0  0  0
    1.4271    3.2924    0.0000 H   0  0  0  0  0  0  0  0  0  0  0  0
    3.0273    2.3535    0.0000 H   0  0  0  0  0  0  0  0  0  0  0  0
    3.0246    0.5096    0.0000 H   0  0  0  0  0  0  0  0  0  0  0  0
    2.8511    0.8229    0.0000 H   0  0  0  0  0  0  0  0  0  0  0  0
    4.4486   -0.1013    0.0000 H   0  0  0  0  0  0  0  0  0  0  0  0
    2.8511   -2.8841    0.0000 H   0  0  0  0  0  0  0  0  0  0  0  0
    1.2387   -1.9626    0.0000 H   0  0  0  0  0  0  0  0  0  0  0  0
    5.9055   -1.9789    0.0000 H   0  0  0  0  0  0  0  0  0  0  0  0
    4.9788   -0.3739    0.0000 H   0  0  0  0  0  0  0  0  0  0  0  0
    5.9054   -0.9089    0.0000 H   0  0  0  0  0  0  0  0  0  0  0  0
  1  2  1  0  0  0  0
  1 30  1  0  0  0  0
  1 31  1  0  0  0  0
  1 32  1  0  0  0  0
  2  3  1  0  0  0  0
  2 33  1  0  0  0  0
  2 34  1  0  0  0  0
  3  4  1  0  0  0  0
  3 35  1  0  0  0  0
  3 36  1  0  0  0  0
  4  5  1  0  0  0  0
  4 37  1  0  0  0  0
  4 38  1  0  0  0  0
  5  6  1  0  0  0  0
  5  8  1  0  0  0  0
  5 39  1  0  0  0  0
  6  7  1  0  0  0  0
  6 40  1  0  0  0  0
  6 41  1  0  0  0  0
  7 42  1  0  0  0  0
  7 43  1  0  0  0  0
  7 44  1  0  0  0  0
  8  9  1  0  0  0  0
  8 45  1  0  0  0  0
  8 46  1  0  0  0  0
  9 10  1  0  0  0  0
 10 11  2  0  0  0  0
 10 12  1  0  0  0  0
 12 13  2  3  0  0  0
 12 28  1  0  0  0  0
 13 14  1  0  0  0  0
 13 20  1  0  0  0  0
 14 15  2  0  0  0  0
 14 19  1  0  0  0  0
 15 16  1  0  0  0  0
 15 47  1  0  0  0  0
 16 17  2  0  0  0  0
 16 48  1  0  0  0  0
 17 18  1  0  0  0  0
 17 49  1  0  0  0  0
 18 19  2  0  0  0  0
 18 50  1  0  0  0  0
 19 51  1  0  0  0  0
 20 21  2  0  0  0  0
 20 25  1  0  0  0  0
 21 22  1  0  0  0  0
 21 52  1  0  0  0  0
 22 23  2  0  0  0  0
 22 53  1  0  0  0  0
 23 24  1  0  0  0  0
 23 26  1  0  0  0  0
 24 25  2  0  0  0  0
 24 54  1  0  0  0  0
 25 55  1  0  0  0  0
 26 27  1  0  0  0  0
 27 56  1  0  0  0  0
 27 57  1  0  0  0  0
 27 58  1  0  0  0  0
 28 29  3  0  0  0  0
M  END
>  <DRUGBANK_ID>
DB11226

>  <COMMON_NAME>
Ethylhexyl methoxycrylene

>  <CAS_NUMBER>
947753-66-4

>  <UNII>
S3KFG6Q5X8

$$$$
