
 OpenBabel10282417072D

 52 56  0  0  0  0  0  0  0  0999 V2000
    7.4321   -1.6486    0.0000 O   0  0  0  0  0  0  0  0  0  0  0  0
    8.7386   -2.3125    0.0000 O   0  0  0  0  0  0  0  0  0  0  0  0
    5.9370    0.9875    0.0000 N   0  0  0  0  0  0  0  0  0  0  0  0
    5.9370   -0.6625    0.0000 N   0  0  0  0  0  0  0  0  0  0  0  0
    7.4321   -2.9764    0.0000 N   0  0  0  0  0  0  0  0  0  0  0  0
    6.6515    0.5750    0.0000 C   0  0  0  0  0  0  0  0  0  0  0  0
    5.2224    0.5750    0.0000 C   0  0  0  0  0  0  0  0  0  0  0  0
    6.6515   -0.2500    0.0000 C   0  0  0  0  0  0  0  0  0  0  0  0
    5.2224   -0.2500    0.0000 C   0  0  0  0  0  0  0  0  0  0  0  0
    5.9370    1.8126    0.0000 C   0  0  0  0  0  0  0  0  0  0  0  0
    5.9370   -1.4875    0.0000 C   0  0  0  0  0  0  0  0  0  0  0  0
    5.2224    2.2251    0.0000 C   0  0  0  0  0  0  0  0  0  0  0  0
    6.6515   -1.9000    0.0000 C   0  0  0  0  0  0  0  0  0  0  0  0
    5.2224   -1.9000    0.0000 C   0  0  0  0  0  0  0  0  0  0  0  0
    6.6515   -2.7250    0.0000 C   0  0  0  0  0  0  0  0  0  0  0  0
    4.5080    1.8126    0.0000 C   0  0  0  0  0  0  0  0  0  0  0  0
    5.2224    3.0501    0.0000 C   0  0  0  0  0  0  0  0  0  0  0  0
    5.2224   -2.7250    0.0000 C   0  0  0  0  0  0  0  0  0  0  0  0
    5.9370   -3.1375    0.0000 C   0  0  0  0  0  0  0  0  0  0  0  0
    3.7935    2.2251    0.0000 C   0  0  0  0  0  0  0  0  0  0  0  0
    4.5080    3.4626    0.0000 C   0  0  0  0  0  0  0  0  0  0  0  0
    7.9136   -2.3125    0.0000 C   0  0  0  0  0  0  0  0  0  0  0  0
    3.7935    3.0501    0.0000 C   0  0  0  0  0  0  0  0  0  0  0  0
    3.0791    1.8126    0.0000 C   0  0  0  0  0  0  0  0  0  0  0  0
    3.0791    0.9875    0.0000 C   0  0  0  0  0  0  0  0  0  0  0  0
    2.3645    2.2251    0.0000 C   0  0  0  0  0  0  0  0  0  0  0  0
    2.3645    0.5750    0.0000 C   0  0  0  0  0  0  0  0  0  0  0  0
    1.6500    1.8126    0.0000 C   0  0  0  0  0  0  0  0  0  0  0  0
    1.6500    0.9875    0.0000 C   0  0  0  0  0  0  0  0  0  0  0  0
    7.7379   -3.9122    0.0000 H   0  0  0  0  0  0  0  0  0  0  0  0
    7.5781    1.1100    0.0000 H   0  0  0  0  0  0  0  0  0  0  0  0
    7.5781    0.0400    0.0000 H   0  0  0  0  0  0  0  0  0  0  0  0
    4.2958    1.1100    0.0000 H   0  0  0  0  0  0  0  0  0  0  0  0
    4.2957    0.0400    0.0000 H   0  0  0  0  0  0  0  0  0  0  0  0
    7.5781   -0.7850    0.0000 H   0  0  0  0  0  0  0  0  0  0  0  0
    7.5781    0.2850    0.0000 H   0  0  0  0  0  0  0  0  0  0  0  0
    4.2958   -0.7850    0.0000 H   0  0  0  0  0  0  0  0  0  0  0  0
    4.2957    0.2850    0.0000 H   0  0  0  0  0  0  0  0  0  0  0  0
    6.8636    2.3476    0.0000 H   0  0  0  0  0  0  0  0  0  0  0  0
    5.9369    2.8826    0.0000 H   0  0  0  0  0  0  0  0  0  0  0  0
    4.3287   -1.3840    0.0000 H   0  0  0  0  0  0  0  0  0  0  0  0
    4.5080    0.7806    0.0000 H   0  0  0  0  0  0  0  0  0  0  0  0
    6.1161    3.5661    0.0000 H   0  0  0  0  0  0  0  0  0  0  0  0
    4.3287   -3.2410    0.0000 H   0  0  0  0  0  0  0  0  0  0  0  0
    5.9370   -4.1695    0.0000 H   0  0  0  0  0  0  0  0  0  0  0  0
    4.5080    4.4946    0.0000 H   0  0  0  0  0  0  0  0  0  0  0  0
    2.8998    3.5661    0.0000 H   0  0  0  0  0  0  0  0  0  0  0  0
    3.9728    0.4715    0.0000 H   0  0  0  0  0  0  0  0  0  0  0  0
    2.3645    3.2571    0.0000 H   0  0  0  0  0  0  0  0  0  0  0  0
    2.3645   -0.4570    0.0000 H   0  0  0  0  0  0  0  0  0  0  0  0
    0.7563    2.3286    0.0000 H   0  0  0  0  0  0  0  0  0  0  0  0
    0.7563    0.4715    0.0000 H   0  0  0  0  0  0  0  0  0  0  0  0
  1 13  1  0  0  0  0
  1 22  1  0  0  0  0
  2 22  2  0  0  0  0
  3  6  1  0  0  0  0
  3  7  1  0  0  0  0
  3 10  1  0  0  0  0
  4  8  1  0  0  0  0
  4  9  1  0  0  0  0
  4 11  1  0  0  0  0
  5 15  1  0  0  0  0
  5 22  1  0  0  0  0
  5 30  1  0  0  0  0
  6  8  1  0  0  0  0
  6 31  1  0  0  0  0
  6 32  1  0  0  0  0
  7  9  1  0  0  0  0
  7 33  1  0  0  0  0
  7 34  1  0  0  0  0
  8 35  1  0  0  0  0
  8 36  1  0  0  0  0
  9 37  1  0  0  0  0
  9 38  1  0  0  0  0
 10 12  1  0  0  0  0
 10 39  1  0  0  0  0
 10 40  1  0  0  0  0
 11 13  1  0  0  0  0
 11 14  2  0  0  0  0
 12 16  2  0  0  0  0
 12 17  1  0  0  0  0
 13 15  2  0  0  0  0
 14 18  1  0  0  0  0
 14 41  1  0  0  0  0
 15 19  1  0  0  0  0
 16 20  1  0  0  0  0
 16 42  1  0  0  0  0
 17 21  2  0  0  0  0
 17 43  1  0  0  0  0
 18 19  2  0  0  0  0
 18 44  1  0  0  0  0
 19 45  1  0  0  0  0
 20 23  2  0  0  0  0
 20 24  1  0  0  0  0
 21 23  1  0  0  0  0
 21 46  1  0  0  0  0
 23 47  1  0  0  0  0
 24 25  2  0  0  0  0
 24 26  1  0  0  0  0
 25 27  1  0  0  0  0
 25 48  1  0  0  0  0
 26 28  2  0  0  0  0
 26 49  1  0  0  0  0
 27 29  2  0  0  0  0
 27 50  1  0  0  0  0
 28 29  1  0  0  0  0
 28 51  1  0  0  0  0
 29 52  1  0  0  0  0
M  END
>  <DRUGBANK_ID>
DB04888

>  <COMMON_NAME>
Bifeprunox

>  <CAS_NUMBER>
350992-10-8

>  <UNII>
AP69E83Z79

>  <SYNONYMS>
Bifeprunox; Bifeprunoxum

$$$$
