54841
 OpenBabel10282417072D

 40 41  0  0  1  0  0  0  0  0999 V2000
    3.0790   -0.2063    0.0000 O   0  0  0  0  0  0  0  0  0  0  0  0
    5.9370   -0.2063    0.0000 N   0  0  0  0  0  0  0  0  0  0  0  0
    3.7935    0.2063    0.0000 C   0  0  2  0  0  0  0  0  0  0  0  0
    4.5080   -0.2063    0.0000 C   0  0  0  0  0  0  0  0  0  0  0  0
    3.7935    1.0313    0.0000 C   0  0  0  0  0  0  0  0  0  0  0  0
    5.2224    0.2063    0.0000 C   0  0  0  0  0  0  0  0  0  0  0  0
    3.0790   -1.0313    0.0000 C   0  0  0  0  0  0  0  0  0  0  0  0
    4.5080    1.4438    0.0000 C   0  0  0  0  0  0  0  0  0  0  0  0
    3.0790    1.4438    0.0000 C   0  0  0  0  0  0  0  0  0  0  0  0
    2.3645   -1.4438    0.0000 C   0  0  0  0  0  0  0  0  0  0  0  0
    4.5080    2.2688    0.0000 C   0  0  0  0  0  0  0  0  0  0  0  0
    3.0790    2.2688    0.0000 C   0  0  0  0  0  0  0  0  0  0  0  0
    3.7935   -1.4438    0.0000 C   0  0  0  0  0  0  0  0  0  0  0  0
    3.7935    2.6813    0.0000 C   0  0  0  0  0  0  0  0  0  0  0  0
    6.6515    0.2063    0.0000 C   0  0  0  0  0  0  0  0  0  0  0  0
    2.3645   -2.2688    0.0000 C   0  0  0  0  0  0  0  0  0  0  0  0
    1.6500   -1.0313    0.0000 C   0  0  0  0  0  0  0  0  0  0  0  0
    3.7935   -2.2688    0.0000 C   0  0  0  0  0  0  0  0  0  0  0  0
    3.0790   -2.6813    0.0000 C   0  0  0  0  0  0  0  0  0  0  0  0
    5.9370   -1.2263    0.0000 H   0  0  0  0  0  0  0  0  0  0  0  0
    3.7935   -0.8637    0.0000 H   0  0  0  0  0  0  0  0  0  0  0  0
    4.5080   -1.2763    0.0000 H   0  0  0  0  0  0  0  0  0  0  0  0
    5.4347   -0.7412    0.0000 H   0  0  0  0  0  0  0  0  0  0  0  0
    5.2223    1.2763    0.0000 H   0  0  0  0  0  0  0  0  0  0  0  0
    4.2957    0.7412    0.0000 H   0  0  0  0  0  0  0  0  0  0  0  0
    5.4017    0.9278    0.0000 H   0  0  0  0  0  0  0  0  0  0  0  0
    2.1853    0.9278    0.0000 H   0  0  0  0  0  0  0  0  0  0  0  0
    5.4017    2.7848    0.0000 H   0  0  0  0  0  0  0  0  0  0  0  0
    2.1853    2.7848    0.0000 H   0  0  0  0  0  0  0  0  0  0  0  0
    4.6872   -0.9278    0.0000 H   0  0  0  0  0  0  0  0  0  0  0  0
    3.7935    3.7133    0.0000 H   0  0  0  0  0  0  0  0  0  0  0  0
    7.5782   -0.3286    0.0000 H   0  0  0  0  0  0  0  0  0  0  0  0
    6.6514    1.2763    0.0000 H   0  0  0  0  0  0  0  0  0  0  0  0
    7.5781    0.7414    0.0000 H   0  0  0  0  0  0  0  0  0  0  0  0
    1.4708   -2.7848    0.0000 H   0  0  0  0  0  0  0  0  0  0  0  0
    1.6500    0.0387    0.0000 H   0  0  0  0  0  0  0  0  0  0  0  0
    0.7234   -1.5663    0.0000 H   0  0  0  0  0  0  0  0  0  0  0  0
    0.7233   -0.4963    0.0000 H   0  0  0  0  0  0  0  0  0  0  0  0
    4.6872   -2.7848    0.0000 H   0  0  0  0  0  0  0  0  0  0  0  0
    3.0790   -3.7133    0.0000 H   0  0  0  0  0  0  0  0  0  0  0  0
  1  7  1  0  0  0  0
  2  6  1  0  0  0  0
  2 15  1  0  0  0  0
  2 20  1  0  0  0  0
  3  1  1  0  0  0  0
  3  4  1  0  0  0  0
  3  5  1  0  0  0  0
  3 21  1  6  0  0  0
  4  6  1  0  0  0  0
  4 22  1  0  0  0  0
  4 23  1  0  0  0  0
  5  8  2  0  0  0  0
  5  9  1  0  0  0  0
  6 24  1  0  0  0  0
  6 25  1  0  0  0  0
  7 10  1  0  0  0  0
  7 13  2  0  0  0  0
  8 11  1  0  0  0  0
  8 26  1  0  0  0  0
  9 12  2  0  0  0  0
  9 27  1  0  0  0  0
 10 16  2  0  0  0  0
 10 17  1  0  0  0  0
 11 14  2  0  0  0  0
 11 28  1  0  0  0  0
 12 14  1  0  0  0  0
 12 29  1  0  0  0  0
 13 18  1  0  0  0  0
 13 30  1  0  0  0  0
 14 31  1  0  0  0  0
 15 32  1  0  0  0  0
 15 33  1  0  0  0  0
 15 34  1  0  0  0  0
 16 19  1  0  0  0  0
 16 35  1  0  0  0  0
 17 36  1  0  0  0  0
 17 37  1  0  0  0  0
 17 38  1  0  0  0  0
 18 19  2  0  0  0  0
 18 39  1  0  0  0  0
 19 40  1  0  0  0  0
M  END
>  <DRUGBANK_ID>
DB00289

>  <SECONDARY_ACCESSION_NUMBERS>
APRD00614

>  <COMMON_NAME>
Atomoxetine

>  <CAS_NUMBER>
83015-26-3

>  <UNII>
ASW034S0B8

>  <SYNONYMS>
(-)-Tomoxetine; Atomoxetina; Atomoxetine; Tomoxetina; Tomoxetine; Tomoxetinum

$$$$
