
 OpenBabel10282417072D

 80 83  0  0  1  0  0  0  0  0999 V2000
   14.8883   -8.3120    0.0000 C   0  0  0  0  0  0  0  0  0  0  0  0
   14.8883   -9.1437    0.0000 C   0  0  0  0  0  0  0  0  0  0  0  0
   14.1700   -7.8998    0.0000 C   0  0  0  0  0  0  0  0  0  0  0  0
   15.6105   -7.8885    0.0000 O   0  0  0  0  0  0  0  0  0  0  0  0
   15.6143   -9.5596    0.0000 C   0  0  0  0  0  0  0  0  0  0  0  0
   14.1700   -9.5634    0.0000 C   0  0  0  0  0  0  0  0  0  0  0  0
   13.4554   -8.3120    0.0000 C   0  0  0  0  0  0  0  0  0  0  0  0
   14.1662   -7.0794    0.0000 C   0  0  0  0  0  0  0  0  0  0  0  0
   16.3782   -8.3044    0.0000 C   0  0  0  0  0  0  0  0  0  0  0  0
   16.3440   -9.1475    0.0000 C   0  0  0  0  0  0  0  0  0  0  0  0
   15.6143  -10.3839    0.0000 O   0  0  0  0  0  0  0  0  0  0  0  0
   13.4554   -9.1437    0.0000 C   0  0  0  0  0  0  0  0  0  0  0  0
   12.7445   -7.9037    0.0000 O   0  0  0  0  0  0  0  0  0  0  0  0
   17.0472   -7.8923    0.0000 O   0  0  0  0  0  0  0  0  0  0  0  0
   17.3044   -9.5067    0.0000 N   0  0  0  0  0  0  0  0  0  0  0  0
   12.0339   -8.3157    0.0000 C   0  0  1  0  0  0  0  0  0  0  0  0
   18.0189   -9.0947    0.0000 C   0  0  0  0  0  0  0  0  0  0  0  0
   12.0339   -9.1475    0.0000 C   0  0  1  0  0  0  0  0  0  0  0  0
   11.3116   -7.9037    0.0000 O   0  0  0  0  0  0  0  0  0  0  0  0
   18.7297   -9.5067    0.0000 C   0  0  0  0  0  0  0  0  0  0  0  0
   18.0189   -8.2742    0.0000 O   0  0  0  0  0  0  0  0  0  0  0  0
   11.3116   -9.5672    0.0000 C   0  0  1  0  0  0  0  0  0  0  0  0
   12.7484   -9.5559    0.0000 O   0  0  0  0  0  0  0  0  0  0  0  0
   10.6009   -8.3157    0.0000 C   0  0  0  0  0  0  0  0  0  0  0  0
   18.7335  -10.3308    0.0000 C   0  0  0  0  0  0  0  0  0  0  0  0
   19.4367   -9.0984    0.0000 C   0  0  0  0  0  0  0  0  0  0  0  0
   10.6009   -9.1475    0.0000 C   0  0  2  0  0  0  0  0  0  0  0  0
   11.3116  -10.3914    0.0000 O   0  0  0  0  0  0  0  0  0  0  0  0
   10.1094   -7.4612    0.0000 C   0  0  0  0  0  0  0  0  0  0  0  0
    9.7502   -8.4821    0.0000 C   0  0  0  0  0  0  0  0  0  0  0  0
   19.4405  -10.7430    0.0000 C   0  0  0  0  0  0  0  0  0  0  0  0
   20.1513   -9.5029    0.0000 C   0  0  0  0  0  0  0  0  0  0  0  0
    9.8863   -9.5559    0.0000 O   0  0  0  0  0  0  0  0  0  0  0  0
   10.5971  -10.7997    0.0000 C   0  0  0  0  0  0  0  0  0  0  0  0
   20.1551  -10.3271    0.0000 C   0  0  0  0  0  0  0  0  0  0  0  0
   19.4405  -11.5672    0.0000 C   0  0  0  0  0  0  0  0  0  0  0  0
    9.0469   -9.5596    0.0000 C   0  0  0  0  0  0  0  0  0  0  0  0
   10.5934  -11.6202    0.0000 N   0  0  0  0  0  0  0  0  0  0  0  0
    9.8863  -10.3877    0.0000 O   0  0  0  0  0  0  0  0  0  0  0  0
   20.8658  -10.7355    0.0000 O   0  0  0  0  0  0  0  0  0  0  0  0
   20.1551  -11.9794    0.0000 C   0  0  0  0  0  0  0  0  0  0  0  0
   20.1551  -12.7998    0.0000 C   0  0  0  0  0  0  0  0  0  0  0  0
   20.8658  -13.2119    0.0000 C   0  0  0  0  0  0  0  0  0  0  0  0
   19.4405  -13.2119    0.0000 C   0  0  0  0  0  0  0  0  0  0  0  0
   14.1688  -10.5954    0.0000 H   0  0  0  0  0  0  0  0  0  0  0  0
   15.0904   -6.5401    0.0000 H   0  0  0  0  0  0  0  0  0  0  0  0
   13.2371   -6.5487    0.0000 H   0  0  0  0  0  0  0  0  0  0  0  0
   14.1612   -6.0094    0.0000 H   0  0  0  0  0  0  0  0  0  0  0  0
   14.8028  -10.8524    0.0000 H   0  0  0  0  0  0  0  0  0  0  0  0
   12.5597   -9.6564    0.0000 H   0  0  0  0  0  0  0  0  0  0  0  0
   17.3856  -10.4878    0.0000 H   0  0  0  0  0  0  0  0  0  0  0  0
   12.9610   -8.8499    0.0000 H   0  0  0  0  0  0  0  0  0  0  0  0
   12.9594   -8.6105    0.0000 H   0  0  0  0  0  0  0  0  0  0  0  0
   12.2390  -10.1009    0.0000 H   0  0  0  0  0  0  0  0  0  0  0  0
   12.7526  -10.5259    0.0000 H   0  0  0  0  0  0  0  0  0  0  0  0
   17.8399  -10.8470    0.0000 H   0  0  0  0  0  0  0  0  0  0  0  0
   19.4322   -8.0664    0.0000 H   0  0  0  0  0  0  0  0  0  0  0  0
   10.5933  -10.2175    0.0000 H   0  0  0  0  0  0  0  0  0  0  0  0
   10.6459   -6.5354    0.0000 H   0  0  0  0  0  0  0  0  0  0  0  0
    9.0394   -7.4595    0.0000 H   0  0  0  0  0  0  0  0  0  0  0  0
    9.5759   -6.5337    0.0000 H   0  0  0  0  0  0  0  0  0  0  0  0
    9.0473   -7.6754    0.0000 H   0  0  0  0  0  0  0  0  0  0  0  0
    9.4030   -9.4942    0.0000 H   0  0  0  0  0  0  0  0  0  0  0  0
    8.7001   -8.6875    0.0000 H   0  0  0  0  0  0  0  0  0  0  0  0
   21.0416   -8.9810    0.0000 H   0  0  0  0  0  0  0  0  0  0  0  0
   18.5140  -12.1024    0.0000 H   0  0  0  0  0  0  0  0  0  0  0  0
   19.4408  -12.6372    0.0000 H   0  0  0  0  0  0  0  0  0  0  0  0
    8.5078   -8.6353    0.0000 H   0  0  0  0  0  0  0  0  0  0  0  0
    8.5160  -10.4886    0.0000 H   0  0  0  0  0  0  0  0  0  0  0  0
    7.9769   -9.5643    0.0000 H   0  0  0  0  0  0  0  0  0  0  0  0
    9.7386  -12.1086    0.0000 H   0  0  0  0  0  0  0  0  0  0  0  0
   11.4438  -12.1163    0.0000 H   0  0  0  0  0  0  0  0  0  0  0  0
   20.8677  -11.6725    0.0000 H   0  0  0  0  0  0  0  0  0  0  0  0
   21.0487  -11.4632    0.0000 H   0  0  0  0  0  0  0  0  0  0  0  0
   20.8638  -14.2819    0.0000 H   0  0  0  0  0  0  0  0  0  0  0  0
   21.7934  -12.6786    0.0000 H   0  0  0  0  0  0  0  0  0  0  0  0
   21.7914  -13.7486    0.0000 H   0  0  0  0  0  0  0  0  0  0  0  0
   18.5141  -12.6764    0.0000 H   0  0  0  0  0  0  0  0  0  0  0  0
   19.4400  -14.2819    0.0000 H   0  0  0  0  0  0  0  0  0  0  0  0
   18.5136  -13.7464    0.0000 H   0  0  0  0  0  0  0  0  0  0  0  0
  1  2  2  0  0  0  0
  1  3  1  0  0  0  0
  1  4  1  0  0  0  0
  2  5  1  0  0  0  0
  2  6  1  0  0  0  0
  3  7  2  0  0  0  0
  3  8  1  0  0  0  0
  4  9  1  0  0  0  0
  5 10  2  0  0  0  0
  5 11  1  0  0  0  0
  6 12  2  0  0  0  0
  6 45  1  0  0  0  0
  7 13  1  0  0  0  0
  7 12  1  0  0  0  0
  8 46  1  0  0  0  0
  8 47  1  0  0  0  0
  8 48  1  0  0  0  0
  9 14  2  0  0  0  0
  9 10  1  0  0  0  0
 10 15  1  0  0  0  0
 11 49  1  0  0  0  0
 12 50  1  0  0  0  0
 15 17  1  0  0  0  0
 15 51  1  0  0  0  0
 16 13  1  0  0  0  0
 16 18  1  0  0  0  0
 16 19  1  0  0  0  0
 16 52  1  6  0  0  0
 17 20  1  0  0  0  0
 17 21  2  0  0  0  0
 18 22  1  0  0  0  0
 18 23  1  0  0  0  0
 18 53  1  1  0  0  0
 19 24  1  0  0  0  0
 20 25  1  0  0  0  0
 20 26  2  0  0  0  0
 22 27  1  0  0  0  0
 22 28  1  0  0  0  0
 22 54  1  1  0  0  0
 23 55  1  0  0  0  0
 24 29  1  0  0  0  0
 24 30  1  0  0  0  0
 24 27  1  0  0  0  0
 25 31  2  0  0  0  0
 25 56  1  0  0  0  0
 26 32  1  0  0  0  0
 26 57  1  0  0  0  0
 27 33  1  0  0  0  0
 27 58  1  6  0  0  0
 28 34  1  0  0  0  0
 29 59  1  0  0  0  0
 29 60  1  0  0  0  0
 29 61  1  0  0  0  0
 30 62  1  0  0  0  0
 30 63  1  0  0  0  0
 30 64  1  0  0  0  0
 31 35  1  0  0  0  0
 31 36  1  0  0  0  0
 32 35  2  0  0  0  0
 32 65  1  0  0  0  0
 33 37  1  0  0  0  0
 34 38  1  0  0  0  0
 34 39  2  0  0  0  0
 35 40  1  0  0  0  0
 36 41  1  0  0  0  0
 36 66  1  0  0  0  0
 36 67  1  0  0  0  0
 37 68  1  0  0  0  0
 37 69  1  0  0  0  0
 37 70  1  0  0  0  0
 38 71  1  0  0  0  0
 38 72  1  0  0  0  0
 40 73  1  0  0  0  0
 41 42  2  0  0  0  0
 41 74  1  0  0  0  0
 42 43  1  0  0  0  0
 42 44  1  0  0  0  0
 43 75  1  0  0  0  0
 43 76  1  0  0  0  0
 43 77  1  0  0  0  0
 44 78  1  0  0  0  0
 44 79  1  0  0  0  0
 44 80  1  0  0  0  0
M  END
>  <DRUGBANK_ID>
DB01051

>  <SECONDARY_ACCESSION_NUMBERS>
APRD00694

>  <COMMON_NAME>
Novobiocin

>  <CAS_NUMBER>
303-81-1

>  <UNII>
17EC19951N

>  <SYNONYMS>
Albamycin; N-{7-[(3-O-carbamoyl-6-deoxy-5-methyl-4-O-methyl-Î²-D-gulopyranosyl)oxy]-4-hydroxy-8-methyl-2-oxo-2H-chromen-3-yl}-4-hydroxy-3-(3-methylbut-2-en-1-yl)benzamide; Novobiocin; Novobiocina; Novobiocine; Novobiocinum

$$$$
