709
 OpenBabel10282417072D

 26 27  0  0  1  0  0  0  0  0999 V2000
    2.6665   -1.4952    0.0000 S   0  0  0  0  0  0  0  0  0  0  0  0
    3.7465   -0.7106    0.0000 O   0  0  0  0  0  0  0  0  0  0  0  0
    3.6409   -2.9164    0.0000 O   0  0  0  0  0  0  0  0  0  0  0  0
    1.6500    0.5994    0.0000 O   0  0  0  0  0  0  0  0  0  0  0  0
    3.0791    0.5994    0.0000 N   0  0  0  0  0  0  0  0  0  0  0  0
    2.3645    1.8369    0.0000 N   0  0  0  0  0  0  0  0  0  0  0  0
    3.0791    3.0744    0.0000 N   0  0  0  0  0  0  0  0  0  0  0  0
    3.0791   -0.2256    0.0000 C   0  0  2  0  0  0  0  0  0  0  0  0
    2.4115   -0.7106    0.0000 C   0  0  0  0  0  0  0  0  0  0  0  0
    3.4916   -1.4952    0.0000 C   0  0  1  0  0  0  0  0  0  0  0  0
    3.9764   -2.1627    0.0000 C   0  0  0  0  0  0  0  0  0  0  0  0
    3.7935    1.0119    0.0000 C   0  0  0  0  0  0  0  0  0  0  0  0
    2.3645    1.0119    0.0000 C   0  0  0  0  0  0  0  0  0  0  0  0
    3.7935    1.8369    0.0000 C   0  0  0  0  0  0  0  0  0  0  0  0
    3.0791    2.2494    0.0000 C   0  0  0  0  0  0  0  0  0  0  0  0
    2.6762   -3.0179    0.0000 H   0  0  0  0  0  0  0  0  0  0  0  0
    3.9317    3.5667    0.0000 H   0  0  0  0  0  0  0  0  0  0  0  0
    2.2265    3.5666    0.0000 H   0  0  0  0  0  0  0  0  0  0  0  0
    4.0325    0.2601    0.0000 H   0  0  0  0  0  0  0  0  0  0  0  0
    1.3939   -0.3800    0.0000 H   0  0  0  0  0  0  0  0  0  0  0  0
    2.2441    0.3462    0.0000 H   0  0  0  0  0  0  0  0  0  0  0  0
    3.0058   -2.4485    0.0000 H   0  0  0  0  0  0  0  0  0  0  0  0
    5.0405   -2.0509    0.0000 H   0  0  0  0  0  0  0  0  0  0  0  0
    4.4117   -1.1853    0.0000 H   0  0  0  0  0  0  0  0  0  0  0  0
    4.6872    0.4959    0.0000 H   0  0  0  0  0  0  0  0  0  0  0  0
    4.6872    2.3529    0.0000 H   0  0  0  0  0  0  0  0  0  0  0  0
  1  9  1  0  0  0  0
  1 10  1  0  0  0  0
  2  8  1  0  0  0  0
  2 10  1  0  0  0  0
  3 11  1  0  0  0  0
  3 16  1  0  0  0  0
  4 13  2  0  0  0  0
  5 12  1  0  0  0  0
  5 13  1  0  0  0  0
  6 13  1  0  0  0  0
  6 15  2  0  0  0  0
  7 15  1  0  0  0  0
  7 17  1  0  0  0  0
  7 18  1  0  0  0  0
  8  5  1  0  0  0  0
  8  9  1  0  0  0  0
  8 19  1  6  0  0  0
  9 20  1  0  0  0  0
  9 21  1  0  0  0  0
 10 11  1  0  0  0  0
 10 22  1  6  0  0  0
 11 23  1  0  0  0  0
 11 24  1  0  0  0  0
 12 14  2  0  0  0  0
 12 25  1  0  0  0  0
 14 15  1  0  0  0  0
 14 26  1  0  0  0  0
M  END
>  <DRUGBANK_ID>
DB00709

>  <SECONDARY_ACCESSION_NUMBERS>
APRD00681

>  <COMMON_NAME>
Lamivudine

>  <CAS_NUMBER>
134678-17-4

>  <UNII>
2T8Q726O95

>  <SYNONYMS>
(-)-1-((2R,5S)-2-(Hydroxymethyl)-1,3-oxathiolan-5-yl)cytosine; (-)-2'-Deoxy-3'-thiacytidine; 2',3'-Dideoxy-3'-thiacytidine; 3'-Thia-2',3'-dideoxycytidine; 3TC; beta-L-2',3'-Dideoxy-3'-thiacytidine; beta-L-3'-Thia-2',3'-dideoxycytidine; Lamivudin; Lamivudina; Lamivudine; Lamivudinum

$$$$
