
 OpenBabel10282417072D

 64 66  0  0  0  0  0  0  0  0999 V2000
    1.9305    0.8245    0.0000 N   0  0  0  0  0  0  0  0  0  0  0  0
    1.9305    1.6249    0.0000 C   0  0  0  0  0  0  0  0  0  0  0  0
    2.6194    0.3880    0.0000 C   0  0  1  0  0  0  0  0  0  0  0  0
    1.2224    0.4025    0.0000 C   0  0  0  0  0  0  0  0  0  0  0  0
    1.2224   -0.4511    0.0000 C   0  0  0  0  0  0  0  0  0  0  0  0
    1.9305   -0.8586    0.0000 C   0  0  0  0  0  0  0  0  0  0  0  0
    2.6194   -0.4511    0.0000 C   0  0  0  0  0  0  0  0  0  0  0  0
    0.3493    1.6249    0.0000 N   0  0  0  0  0  0  0  0  0  0  0  0
    3.3324    0.8004    0.0000 C   0  0  0  0  0  0  0  0  0  0  0  0
    1.1301    2.0615    0.0000 C   0  0  1  0  0  0  0  0  0  0  0  0
   -0.3784    2.8618    0.0000 C   0  0  0  0  0  0  0  0  0  0  0  0
    1.9305   -1.6638    0.0000 C   0  0  0  0  0  0  0  0  0  0  0  0
    0.5239   -0.8586    0.0000 C   0  0  0  0  0  0  0  0  0  0  0  0
    1.2224   -2.0713    0.0000 C   0  0  0  0  0  0  0  0  0  0  0  0
    0.5239   -1.6638    0.0000 C   0  0  0  0  0  0  0  0  0  0  0  0
   -0.3784    2.0324    0.0000 C   0  0  2  0  0  0  0  0  0  0  0  0
    2.6048    2.0324    0.0000 O   0  0  0  0  0  0  0  0  0  0  0  0
    3.3324    1.6249    0.0000 O   0  0  0  0  0  0  0  0  0  0  0  0
    0.3443    3.2888    0.0000 O   0  0  0  0  0  0  0  0  0  0  0  0
   -1.0963    1.6249    0.0000 C   0  0  0  0  0  0  0  0  0  0  0  0
    4.0455    0.4025    0.0000 O   0  0  0  0  0  0  0  0  0  0  0  0
   -1.0672    3.2888    0.0000 O   0  0  0  0  0  0  0  0  0  0  0  0
   -1.8481    2.0324    0.0000 C   0  0  0  0  0  0  0  0  0  0  0  0
    1.2224   -2.8862    0.0000 O   0  0  0  0  0  0  0  0  0  0  0  0
   -0.1892   -2.0567    0.0000 O   0  0  0  0  0  0  0  0  0  0  0  0
   -2.5757    1.6589    0.0000 C   0  0  0  0  0  0  0  0  0  0  0  0
    1.1301    2.8327    0.0000 C   0  0  0  0  0  0  0  0  0  0  0  0
    1.9305   -3.2888    0.0000 C   0  0  0  0  0  0  0  0  0  0  0  0
   -0.8731   -1.6492    0.0000 C   0  0  0  0  0  0  0  0  0  0  0  0
   -2.5757    0.8004    0.0000 C   0  0  0  0  0  0  0  0  0  0  0  0
   -3.3033    2.0955    0.0000 C   0  0  0  0  0  0  0  0  0  0  0  0
   -3.3033    0.3880    0.0000 C   0  0  0  0  0  0  0  0  0  0  0  0
   -4.0455    1.6589    0.0000 C   0  0  0  0  0  0  0  0  0  0  0  0
   -4.0455    0.8004    0.0000 C   0  0  0  0  0  0  0  0  0  0  0  0
    2.6410    1.4578    0.0000 H   0  0  0  0  0  0  0  0  0  0  0  0
    0.2921    0.9311    0.0000 H   0  0  0  0  0  0  0  0  0  0  0  0
    0.2976   -0.1357    0.0000 H   0  0  0  0  0  0  0  0  0  0  0  0
    3.5489   -0.9812    0.0000 H   0  0  0  0  0  0  0  0  0  0  0  0
    2.6279   -1.5211    0.0000 H   0  0  0  0  0  0  0  0  0  0  0  0
    0.3490    0.6049    0.0000 H   0  0  0  0  0  0  0  0  0  0  0  0
    0.2072    2.6029    0.0000 H   0  0  0  0  0  0  0  0  0  0  0  0
    2.8239   -2.1804    0.0000 H   0  0  0  0  0  0  0  0  0  0  0  0
   -0.3710   -0.3446    0.0000 H   0  0  0  0  0  0  0  0  0  0  0  0
    0.5447    2.5735    0.0000 H   0  0  0  0  0  0  0  0  0  0  0  0
   -1.0858    0.5550    0.0000 H   0  0  0  0  0  0  0  0  0  0  0  0
   -2.0130    1.0730    0.0000 H   0  0  0  0  0  0  0  0  0  0  0  0
    4.0592   -0.5344    0.0000 H   0  0  0  0  0  0  0  0  0  0  0  0
   -1.0378    4.2253    0.0000 H   0  0  0  0  0  0  0  0  0  0  0  0
   -1.8361    3.1023    0.0000 H   0  0  0  0  0  0  0  0  0  0  0  0
   -2.7581    2.5952    0.0000 H   0  0  0  0  0  0  0  0  0  0  0  0
    2.0567    3.3677    0.0000 H   0  0  0  0  0  0  0  0  0  0  0  0
    0.2035    3.3677    0.0000 H   0  0  0  0  0  0  0  0  0  0  0  0
    1.1301    3.9027    0.0000 H   0  0  0  0  0  0  0  0  0  0  0  0
    1.9376   -4.3588    0.0000 H   0  0  0  0  0  0  0  0  0  0  0  0
    2.8536   -2.7477    0.0000 H   0  0  0  0  0  0  0  0  0  0  0  0
    2.8607   -3.8177    0.0000 H   0  0  0  0  0  0  0  0  0  0  0  0
   -0.8584   -0.5793    0.0000 H   0  0  0  0  0  0  0  0  0  0  0  0
   -1.8070   -2.1714    0.0000 H   0  0  0  0  0  0  0  0  0  0  0  0
   -1.7923   -1.1015    0.0000 H   0  0  0  0  0  0  0  0  0  0  0  0
   -1.6840    0.2809    0.0000 H   0  0  0  0  0  0  0  0  0  0  0  0
   -3.2988    3.1275    0.0000 H   0  0  0  0  0  0  0  0  0  0  0  0
   -3.2989   -0.6440    0.0000 H   0  0  0  0  0  0  0  0  0  0  0  0
   -4.9413    2.1713    0.0000 H   0  0  0  0  0  0  0  0  0  0  0  0
   -4.9350    0.2771    0.0000 H   0  0  0  0  0  0  0  0  0  0  0  0
  2  1  1  0  0  0  0
  3  1  1  0  0  0  0
  3  9  1  0  0  0  0
  3 35  1  1  0  0  0
  4  1  1  0  0  0  0
  4 36  1  0  0  0  0
  4 37  1  0  0  0  0
  5  4  1  0  0  0  0
  6  5  1  0  0  0  0
  6  7  1  0  0  0  0
  7  3  1  0  0  0  0
  7 38  1  0  0  0  0
  7 39  1  0  0  0  0
  8 10  1  0  0  0  0
  8 40  1  0  0  0  0
 10  2  1  0  0  0  0
 10 27  1  0  0  0  0
 10 41  1  6  0  0  0
 12  6  2  0  0  0  0
 12 14  1  0  0  0  0
 12 42  1  0  0  0  0
 13  5  2  0  0  0  0
 13 43  1  0  0  0  0
 14 15  2  0  0  0  0
 15 13  1  0  0  0  0
 16 11  1  0  0  0  0
 16  8  1  0  0  0  0
 16 44  1  6  0  0  0
 17  2  2  0  0  0  0
 18  9  2  0  0  0  0
 19 11  2  0  0  0  0
 20 16  1  0  0  0  0
 20 45  1  0  0  0  0
 20 46  1  0  0  0  0
 21  9  1  0  0  0  0
 21 47  1  0  0  0  0
 22 11  1  0  0  0  0
 22 48  1  0  0  0  0
 23 20  1  0  0  0  0
 23 49  1  0  0  0  0
 23 50  1  0  0  0  0
 24 14  1  0  0  0  0
 25 15  1  0  0  0  0
 26 23  1  0  0  0  0
 27 51  1  0  0  0  0
 27 52  1  0  0  0  0
 27 53  1  0  0  0  0
 28 24  1  0  0  0  0
 28 54  1  0  0  0  0
 28 55  1  0  0  0  0
 28 56  1  0  0  0  0
 29 25  1  0  0  0  0
 29 57  1  0  0  0  0
 29 58  1  0  0  0  0
 29 59  1  0  0  0  0
 30 26  1  0  0  0  0
 30 60  1  0  0  0  0
 31 26  2  0  0  0  0
 31 61  1  0  0  0  0
 32 30  2  0  0  0  0
 32 62  1  0  0  0  0
 33 31  1  0  0  0  0
 33 63  1  0  0  0  0
 34 33  2  0  0  0  0
 34 32  1  0  0  0  0
 34 64  1  0  0  0  0
M  END
>  <DRUGBANK_ID>
DB14210

>  <COMMON_NAME>
Moexiprilat

>  <CAS_NUMBER>
103775-14-0

>  <UNII>
H3753190JS

>  <SYNONYMS>
Moexiprilat

$$$$
