1556
 OpenBabel10282417072D

 26 26  0  0  0  0  0  0  0  0999 V2000
    2.3645   -2.3183    0.0000 Cl  0  0  0  0  0  0  0  0  0  0  0  0
    3.7935    1.8068    0.0000 N   0  0  0  0  0  0  0  0  0  0  0  0
    3.0791    1.3943    0.0000 C   0  0  0  0  0  0  0  0  0  0  0  0
    2.3645    0.9818    0.0000 C   0  0  0  0  0  0  0  0  0  0  0  0
    2.6665    2.1087    0.0000 C   0  0  0  0  0  0  0  0  0  0  0  0
    3.4916    0.6798    0.0000 C   0  0  0  0  0  0  0  0  0  0  0  0
    2.3645    0.1568    0.0000 C   0  0  0  0  0  0  0  0  0  0  0  0
    3.0791   -0.2558    0.0000 C   0  0  0  0  0  0  0  0  0  0  0  0
    1.6500   -0.2558    0.0000 C   0  0  0  0  0  0  0  0  0  0  0  0
    3.0791   -1.0808    0.0000 C   0  0  0  0  0  0  0  0  0  0  0  0
    1.6500   -1.0808    0.0000 C   0  0  0  0  0  0  0  0  0  0  0  0
    2.3645   -1.4933    0.0000 C   0  0  0  0  0  0  0  0  0  0  0  0
    4.6769    1.2968    0.0000 H   0  0  0  0  0  0  0  0  0  0  0  0
    3.7935    2.8268    0.0000 H   0  0  0  0  0  0  0  0  0  0  0  0
    1.4379    1.5168    0.0000 H   0  0  0  0  0  0  0  0  0  0  0  0
    1.4378    0.4468    0.0000 H   0  0  0  0  0  0  0  0  0  0  0  0
    3.2014    3.0354    0.0000 H   0  0  0  0  0  0  0  0  0  0  0  0
    1.5965    2.1085    0.0000 H   0  0  0  0  0  0  0  0  0  0  0  0
    2.1314    3.0353    0.0000 H   0  0  0  0  0  0  0  0  0  0  0  0
    2.9566   -0.2468    0.0000 H   0  0  0  0  0  0  0  0  0  0  0  0
    4.5616    0.6798    0.0000 H   0  0  0  0  0  0  0  0  0  0  0  0
    4.0266   -0.2469    0.0000 H   0  0  0  0  0  0  0  0  0  0  0  0
    3.9728    0.2602    0.0000 H   0  0  0  0  0  0  0  0  0  0  0  0
    0.7562    0.2602    0.0000 H   0  0  0  0  0  0  0  0  0  0  0  0
    3.9728   -1.5968    0.0000 H   0  0  0  0  0  0  0  0  0  0  0  0
    0.7563   -1.5968    0.0000 H   0  0  0  0  0  0  0  0  0  0  0  0
  1 12  1  0  0  0  0
  2  3  1  0  0  0  0
  2 13  1  0  0  0  0
  2 14  1  0  0  0  0
  3  4  1  0  0  0  0
  3  5  1  0  0  0  0
  3  6  1  0  0  0  0
  4  7  1  0  0  0  0
  4 15  1  0  0  0  0
  4 16  1  0  0  0  0
  5 17  1  0  0  0  0
  5 18  1  0  0  0  0
  5 19  1  0  0  0  0
  6 20  1  0  0  0  0
  6 21  1  0  0  0  0
  6 22  1  0  0  0  0
  7  8  2  0  0  0  0
  7  9  1  0  0  0  0
  8 10  1  0  0  0  0
  8 23  1  0  0  0  0
  9 11  2  0  0  0  0
  9 24  1  0  0  0  0
 10 12  2  0  0  0  0
 10 25  1  0  0  0  0
 11 12  1  0  0  0  0
 11 26  1  0  0  0  0
M  END
>  <DRUGBANK_ID>
DB01556

>  <COMMON_NAME>
Chlorphentermine

>  <CAS_NUMBER>
461-78-9

>  <UNII>
NHW07912O7

>  <SYNONYMS>
4-Chloro-a,a-dimethylbenzeneethanamine; 4-Chloro-a,a-dimethylphenethylamine; a,a-Dimethyl-p-chlorophenethylamine; Chlorphentermine; Chlorphenterminum; Clorfentermina

$$$$
