
 OpenBabel10282417072D

 57 58  0  0  0  0  0  0  0  0999 V2000
   -5.0197   -0.5169    0.0000 C   0  0  0  0  0  0  0  0  0  0  0  0
   -5.0197    0.2908    0.0000 C   0  0  0  0  0  0  0  0  0  0  0  0
   -5.7345   -0.9287    0.0000 C   0  0  0  0  0  0  0  0  0  0  0  0
   -4.3090   -0.9530    0.0000 N   0  0  0  0  0  0  0  0  0  0  0  0
   -5.7345    0.7269    0.0000 C   0  0  0  0  0  0  0  0  0  0  0  0
   -4.3090    0.7269    0.0000 I   0  0  0  0  0  0  0  0  0  0  0  0
   -6.4573   -0.4966    0.0000 C   0  0  0  0  0  0  0  0  0  0  0  0
   -5.7345   -1.7566    0.0000 I   0  0  0  0  0  0  0  0  0  0  0  0
   -3.5902   -0.5493    0.0000 C   0  0  0  0  0  0  0  0  0  0  0  0
   -6.4573    0.3270    0.0000 C   0  0  0  0  0  0  0  0  0  0  0  0
   -5.7345    1.5507    0.0000 C   0  0  0  0  0  0  0  0  0  0  0  0
   -2.8713   -0.9812    0.0000 C   0  0  0  0  0  0  0  0  0  0  0  0
   -3.5902    0.2624    0.0000 O   0  0  0  0  0  0  0  0  0  0  0  0
   -7.1883    0.7835    0.0000 I   0  0  0  0  0  0  0  0  0  0  0  0
   -5.0197    1.9546    0.0000 O   0  0  0  0  0  0  0  0  0  0  0  0
   -6.4573    1.9546    0.0000 O   0  0  0  0  0  0  0  0  0  0  0  0
   -2.1525   -0.5775    0.0000 O   0  0  0  0  0  0  0  0  0  0  0  0
   -1.4336   -1.0096    0.0000 C   0  0  0  0  0  0  0  0  0  0  0  0
   -0.7228   -0.6138    0.0000 C   0  0  0  0  0  0  0  0  0  0  0  0
    0.0000   -1.0378    0.0000 O   0  0  0  0  0  0  0  0  0  0  0  0
    0.7147   -0.6461    0.0000 C   0  0  0  0  0  0  0  0  0  0  0  0
    1.4376   -1.0741    0.0000 C   0  0  0  0  0  0  0  0  0  0  0  0
    2.1525   -0.6622    0.0000 O   0  0  0  0  0  0  0  0  0  0  0  0
    2.8672   -1.0903    0.0000 C   0  0  0  0  0  0  0  0  0  0  0  0
    3.5860   -0.6946    0.0000 C   0  0  0  0  0  0  0  0  0  0  0  0
    4.3049   -1.1267    0.0000 N   0  0  0  0  0  0  0  0  0  0  0  0
    3.5860    0.1171    0.0000 O   0  0  0  0  0  0  0  0  0  0  0  0
    5.0360   -0.7228    0.0000 C   0  0  0  0  0  0  0  0  0  0  0  0
    5.0360    0.0888    0.0000 C   0  0  0  0  0  0  0  0  0  0  0  0
    5.7546   -1.1267    0.0000 C   0  0  0  0  0  0  0  0  0  0  0  0
    5.7546    0.5209    0.0000 C   0  0  0  0  0  0  0  0  0  0  0  0
    4.3049    0.5209    0.0000 I   0  0  0  0  0  0  0  0  0  0  0  0
    6.4735   -0.7228    0.0000 C   0  0  0  0  0  0  0  0  0  0  0  0
    5.7546   -1.9546    0.0000 I   0  0  0  0  0  0  0  0  0  0  0  0
    6.4735    0.0888    0.0000 C   0  0  0  0  0  0  0  0  0  0  0  0
    5.7546    1.3609    0.0000 C   0  0  0  0  0  0  0  0  0  0  0  0
    7.1883    0.5209    0.0000 I   0  0  0  0  0  0  0  0  0  0  0  0
    6.4735    1.7566    0.0000 O   0  0  0  0  0  0  0  0  0  0  0  0
    5.0360    1.7566    0.0000 O   0  0  0  0  0  0  0  0  0  0  0  0
   -4.3280   -1.9373    0.0000 H   0  0  0  0  0  0  0  0  0  0  0  0
   -7.3549   -1.0058    0.0000 H   0  0  0  0  0  0  0  0  0  0  0  0
   -2.8870   -2.0511    0.0000 H   0  0  0  0  0  0  0  0  0  0  0  0
   -1.9518   -1.5284    0.0000 H   0  0  0  0  0  0  0  0  0  0  0  0
   -4.2126    1.4786    0.0000 H   0  0  0  0  0  0  0  0  0  0  0  0
   -1.4513   -2.0795    0.0000 H   0  0  0  0  0  0  0  0  0  0  0  0
   -0.5157   -1.5594    0.0000 H   0  0  0  0  0  0  0  0  0  0  0  0
   -0.7108    0.4561    0.0000 H   0  0  0  0  0  0  0  0  0  0  0  0
    0.2087   -0.0872    0.0000 H   0  0  0  0  0  0  0  0  0  0  0  0
    0.7325    0.4238    0.0000 H   0  0  0  0  0  0  0  0  0  0  0  0
    1.6486   -0.1239    0.0000 H   0  0  0  0  0  0  0  0  0  0  0  0
    1.4313   -2.1441    0.0000 H   0  0  0  0  0  0  0  0  0  0  0  0
    2.3624   -1.6123    0.0000 H   0  0  0  0  0  0  0  0  0  0  0  0
    2.8477   -2.1601    0.0000 H   0  0  0  0  0  0  0  0  0  0  0  0
    3.7834   -1.6431    0.0000 H   0  0  0  0  0  0  0  0  0  0  0  0
    4.2869   -2.1110    0.0000 H   0  0  0  0  0  0  0  0  0  0  0  0
    7.3642   -1.2440    0.0000 H   0  0  0  0  0  0  0  0  0  0  0  0
    7.2752    1.2716    0.0000 H   0  0  0  0  0  0  0  0  0  0  0  0
  1  2  1  0  0  0  0
  1  3  2  0  0  0  0
  1  4  1  0  0  0  0
  2  5  2  0  0  0  0
  2  6  1  0  0  0  0
  3  7  1  0  0  0  0
  3  8  1  0  0  0  0
  4  9  1  0  0  0  0
  4 40  1  0  0  0  0
  5 10  1  0  0  0  0
  5 11  1  0  0  0  0
  7 10  2  0  0  0  0
  7 41  1  0  0  0  0
  9 12  1  0  0  0  0
  9 13  2  0  0  0  0
 10 14  1  0  0  0  0
 11 15  1  0  0  0  0
 11 16  2  0  0  0  0
 12 17  1  0  0  0  0
 12 42  1  0  0  0  0
 12 43  1  0  0  0  0
 15 44  1  0  0  0  0
 17 18  1  0  0  0  0
 18 19  1  0  0  0  0
 18 45  1  0  0  0  0
 18 46  1  0  0  0  0
 19 20  1  0  0  0  0
 19 47  1  0  0  0  0
 19 48  1  0  0  0  0
 20 21  1  0  0  0  0
 21 22  1  0  0  0  0
 21 49  1  0  0  0  0
 21 50  1  0  0  0  0
 22 23  1  0  0  0  0
 22 51  1  0  0  0  0
 22 52  1  0  0  0  0
 23 24  1  0  0  0  0
 24 25  1  0  0  0  0
 24 53  1  0  0  0  0
 24 54  1  0  0  0  0
 25 26  1  0  0  0  0
 25 27  2  0  0  0  0
 26 28  1  0  0  0  0
 26 55  1  0  0  0  0
 28 29  2  0  0  0  0
 28 30  1  0  0  0  0
 29 31  1  0  0  0  0
 29 32  1  0  0  0  0
 30 33  2  0  0  0  0
 30 34  1  0  0  0  0
 31 35  2  0  0  0  0
 31 36  1  0  0  0  0
 33 35  1  0  0  0  0
 33 56  1  0  0  0  0
 35 37  1  0  0  0  0
 36 38  1  0  0  0  0
 36 39  2  0  0  0  0
 38 57  1  0  0  0  0
M  END
>  <DRUGBANK_ID>
DB08945

>  <COMMON_NAME>
Iotroxic acid

>  <CAS_NUMBER>
51022-74-3

>  <UNII>
84C5PTP9X6

>  <SYNONYMS>
Acide iotroxique; Acido iotroxico; Acidum iotroxicum; Iotroxic acid; Iotroxinsaeure

$$$$
