
 OpenBabel10282417072D

 43 44  0  0  0  0  0  0  0  0999 V2000
   -3.6829    1.4289    0.0000 C   0  0  0  0  0  0  0  0  0  0  0  0
   -3.6829    0.0000    0.0000 C   0  0  0  0  0  0  0  0  0  0  0  0
    3.5893   -2.4209    0.0000 C   0  0  0  0  0  0  0  0  0  0  0  0
    2.8748   -3.6584    0.0000 C   0  0  0  0  0  0  0  0  0  0  0  0
   -2.8579    1.4289    0.0000 C   0  0  0  0  0  0  0  0  0  0  0  0
   -2.8579    0.0000    0.0000 C   0  0  0  0  0  0  0  0  0  0  0  0
   -0.3829   -1.4289    0.0000 C   0  0  0  0  0  0  0  0  0  0  0  0
    0.0296   -2.1434    0.0000 C   0  0  0  0  0  0  0  0  0  0  0  0
   -1.6204    0.7145    0.0000 C   0  0  0  0  0  0  0  0  0  0  0  0
   -1.2079    0.0000    0.0000 C   0  0  0  0  0  0  0  0  0  0  0  0
    0.8546   -0.7145    0.0000 C   0  0  0  0  0  0  0  0  0  0  0  0
    0.0296   -0.7145    0.0000 C   0  0  0  0  0  0  0  0  0  0  0  0
    0.8546   -2.1434    0.0000 C   0  0  0  0  0  0  0  0  0  0  0  0
    1.2671   -1.4289    0.0000 C   0  0  0  0  0  0  0  0  0  0  0  0
    2.1603   -2.4209    0.0000 C   0  0  0  0  0  0  0  0  0  0  0  0
    1.4066   -2.7565    0.0000 N   0  0  0  0  0  0  0  0  0  0  0  0
    2.8748   -2.8334    0.0000 N   0  0  0  0  0  0  0  0  0  0  0  0
   -2.4454    0.7145    0.0000 N   0  0  0  0  0  0  0  0  0  0  0  0
   -0.3829    0.0000    0.0000 O   0  0  0  0  0  0  0  0  0  0  0  0
    2.0741   -1.6005    0.0000 S   0  0  0  0  0  0  0  0  0  0  0  0
   -4.2179    2.3555    0.0000 H   0  0  0  0  0  0  0  0  0  0  0  0
   -4.2179    0.5023    0.0000 H   0  0  0  0  0  0  0  0  0  0  0  0
   -4.7529    1.4289    0.0000 H   0  0  0  0  0  0  0  0  0  0  0  0
   -4.2179    0.9266    0.0000 H   0  0  0  0  0  0  0  0  0  0  0  0
   -4.2179   -0.9266    0.0000 H   0  0  0  0  0  0  0  0  0  0  0  0
   -4.7529    0.0000    0.0000 H   0  0  0  0  0  0  0  0  0  0  0  0
    4.5159   -2.9559    0.0000 H   0  0  0  0  0  0  0  0  0  0  0  0
    3.5893   -1.3509    0.0000 H   0  0  0  0  0  0  0  0  0  0  0  0
    4.5160   -1.8859    0.0000 H   0  0  0  0  0  0  0  0  0  0  0  0
    1.9482   -4.1934    0.0000 H   0  0  0  0  0  0  0  0  0  0  0  0
    3.8014   -4.1934    0.0000 H   0  0  0  0  0  0  0  0  0  0  0  0
    2.8748   -4.7284    0.0000 H   0  0  0  0  0  0  0  0  0  0  0  0
   -2.3229    2.3556    0.0000 H   0  0  0  0  0  0  0  0  0  0  0  0
   -1.7879    1.4289    0.0000 H   0  0  0  0  0  0  0  0  0  0  0  0
   -2.3229   -0.9266    0.0000 H   0  0  0  0  0  0  0  0  0  0  0  0
   -1.7879    0.0000    0.0000 H   0  0  0  0  0  0  0  0  0  0  0  0
   -1.4149   -1.4289    0.0000 H   0  0  0  0  0  0  0  0  0  0  0  0
   -0.4864   -3.0371    0.0000 H   0  0  0  0  0  0  0  0  0  0  0  0
   -1.0854    1.6411    0.0000 H   0  0  0  0  0  0  0  0  0  0  0  0
   -2.1554    1.6411    0.0000 H   0  0  0  0  0  0  0  0  0  0  0  0
   -1.7429   -0.9266    0.0000 H   0  0  0  0  0  0  0  0  0  0  0  0
   -0.6729   -0.9266    0.0000 H   0  0  0  0  0  0  0  0  0  0  0  0
    1.3706    0.1792    0.0000 H   0  0  0  0  0  0  0  0  0  0  0  0
  1 21  1  0  0  0  0
  1 22  1  0  0  0  0
  1 23  1  0  0  0  0
  2 24  1  0  0  0  0
  2 25  1  0  0  0  0
  2 26  1  0  0  0  0
  3 27  1  0  0  0  0
  3 28  1  0  0  0  0
  3 29  1  0  0  0  0
  4 30  1  0  0  0  0
  4 31  1  0  0  0  0
  4 32  1  0  0  0  0
  5  1  1  0  0  0  0
  5 33  1  0  0  0  0
  5 34  1  0  0  0  0
  6  2  1  0  0  0  0
  6 35  1  0  0  0  0
  6 36  1  0  0  0  0
  7 37  1  0  0  0  0
  8  7  2  0  0  0  0
  8 38  1  0  0  0  0
  9 39  1  0  0  0  0
  9 40  1  0  0  0  0
 10  9  1  0  0  0  0
 10 41  1  0  0  0  0
 10 42  1  0  0  0  0
 11 43  1  0  0  0  0
 12  7  1  0  0  0  0
 12 11  2  0  0  0  0
 13  8  1  0  0  0  0
 14 11  1  0  0  0  0
 14 13  2  0  0  0  0
 16 13  1  0  0  0  0
 16 15  2  0  0  0  0
 17  3  1  0  0  0  0
 17  4  1  0  0  0  0
 17 15  1  0  0  0  0
 18  5  1  0  0  0  0
 18  6  1  0  0  0  0
 18  9  1  0  0  0  0
 19 10  1  0  0  0  0
 19 12  1  0  0  0  0
 20 14  1  0  0  0  0
 20 15  1  0  0  0  0
M  END
>  <DRUGBANK_ID>
DB13858

>  <COMMON_NAME>
Dimazole

>  <CAS_NUMBER>
95-27-2

>  <UNII>
2KL01R8ZV1

>  <SYNONYMS>
Diamthazole; Dimazole

$$$$
