
 OpenBabel10282417072D

 36 37  0  0  0  0  0  0  0  0999 V2000
    1.2486   -0.2235    0.0000 C   0  0  0  0  0  0  0  0  0  0  0  0
   -0.1797   -0.2332    0.0000 S   0  0  0  0  0  0  0  0  0  0  0  0
    0.5344    0.1845    0.0000 N   0  0  0  0  0  0  0  0  0  0  0  0
    1.5013   -1.0105    0.0000 C   0  0  0  0  0  0  0  0  0  0  0  0
    1.9141    0.2623    0.0000 O   0  0  0  0  0  0  0  0  0  0  0  0
    2.5846   -0.2235    0.0000 N   0  0  0  0  0  0  0  0  0  0  0  0
    2.3271   -1.0105    0.0000 C   0  0  0  0  0  0  0  0  0  0  0  0
    0.5295    1.0105    0.0000 C   0  0  0  0  0  0  0  0  0  0  0  0
   -0.8988    0.1797    0.0000 C   0  0  0  0  0  0  0  0  0  0  0  0
   -0.5975   -0.9474    0.0000 O   0  0  0  0  0  0  0  0  0  0  0  0
    0.2283   -0.9474    0.0000 O   0  0  0  0  0  0  0  0  0  0  0  0
    1.2437    1.4234    0.0000 O   0  0  0  0  0  0  0  0  0  0  0  0
   -1.6130   -0.2332    0.0000 C   0  0  0  0  0  0  0  0  0  0  0  0
   -0.8988    1.0105    0.0000 C   0  0  0  0  0  0  0  0  0  0  0  0
    0.7821   -1.4138    0.0000 C   0  0  0  0  0  0  0  0  0  0  0  0
   -2.3271    1.0105    0.0000 C   0  0  0  0  0  0  0  0  0  0  0  0
   -3.0413    1.4234    0.0000 N   0  0  0  0  0  0  0  0  0  0  0  0
   -2.3271    0.1797    0.0000 C   0  0  0  0  0  0  0  0  0  0  0  0
   -1.6130    1.4234    0.0000 C   0  0  0  0  0  0  0  0  0  0  0  0
   -0.1845    1.4186    0.0000 C   0  0  0  0  0  0  0  0  0  0  0  0
    3.0413   -1.4234    0.0000 C   0  0  0  0  0  0  0  0  0  0  0  0
   -1.6130   -1.2652    0.0000 H   0  0  0  0  0  0  0  0  0  0  0  0
   -0.0049    1.5262    0.0000 H   0  0  0  0  0  0  0  0  0  0  0  0
   -0.1378   -0.8672    0.0000 H   0  0  0  0  0  0  0  0  0  0  0  0
    0.7687   -2.4837    0.0000 H   0  0  0  0  0  0  0  0  0  0  0  0
   -0.1512   -1.9371    0.0000 H   0  0  0  0  0  0  0  0  0  0  0  0
   -3.0407    2.4079    0.0000 H   0  0  0  0  0  0  0  0  0  0  0  0
   -3.8942    0.9316    0.0000 H   0  0  0  0  0  0  0  0  0  0  0  0
   -3.2210   -0.3360    0.0000 H   0  0  0  0  0  0  0  0  0  0  0  0
   -1.6130    2.4554    0.0000 H   0  0  0  0  0  0  0  0  0  0  0  0
   -0.1892    2.4886    0.0000 H   0  0  0  0  0  0  0  0  0  0  0  0
   -1.1088    0.8796    0.0000 H   0  0  0  0  0  0  0  0  0  0  0  0
   -1.1135    1.9496    0.0000 H   0  0  0  0  0  0  0  0  0  0  0  0
    3.0407   -2.4934    0.0000 H   0  0  0  0  0  0  0  0  0  0  0  0
    3.9683   -0.8889    0.0000 H   0  0  0  0  0  0  0  0  0  0  0  0
    3.9676   -1.9589    0.0000 H   0  0  0  0  0  0  0  0  0  0  0  0
  2  3  1  0  0  0  0
  3  1  1  0  0  0  0
  4  1  2  0  0  0  0
  5  1  1  0  0  0  0
  6  5  1  0  0  0  0
  6  7  2  0  0  0  0
  7  4  1  0  0  0  0
  8  3  1  0  0  0  0
  9  2  1  0  0  0  0
 10  2  2  0  0  0  0
 11  2  2  0  0  0  0
 12  8  2  0  0  0  0
 13  9  2  0  0  0  0
 13 22  1  0  0  0  0
 14  9  1  0  0  0  0
 14 23  1  0  0  0  0
 15  4  1  0  0  0  0
 15 24  1  0  0  0  0
 15 25  1  0  0  0  0
 15 26  1  0  0  0  0
 16 19  1  0  0  0  0
 17 16  1  0  0  0  0
 17 27  1  0  0  0  0
 17 28  1  0  0  0  0
 18 13  1  0  0  0  0
 18 16  2  0  0  0  0
 18 29  1  0  0  0  0
 19 14  2  0  0  0  0
 19 30  1  0  0  0  0
 20  8  1  0  0  0  0
 20 31  1  0  0  0  0
 20 32  1  0  0  0  0
 20 33  1  0  0  0  0
 21  7  1  0  0  0  0
 21 34  1  0  0  0  0
 21 35  1  0  0  0  0
 21 36  1  0  0  0  0
M  END
>  <DRUGBANK_ID>
DB14033

>  <SECONDARY_ACCESSION_NUMBERS>
DBSALT000856

>  <COMMON_NAME>
Acetyl sulfisoxazole

>  <CAS_NUMBER>
80-74-0

>  <UNII>
WBT5QH3KED

>  <SYNONYMS>
Sulfisoxazole acetyl

$$$$
