L5G
 OpenBabel10282417072D

 46 50  0  0  0  0  0  0  0  0999 V2000
    0.5699   -1.4563    0.0000 N   0  0  0  0  0  0  0  0  0  0  0  0
   -0.9292   -2.9487    0.0000 N   0  0  0  0  0  0  0  0  0  0  0  0
    1.9989   -1.4563    0.0000 C   0  0  0  0  0  0  0  0  0  0  0  0
    1.9989   -0.6313    0.0000 C   0  0  0  0  0  0  0  0  0  0  0  0
    2.7134   -0.2188    0.0000 C   0  0  0  0  0  0  0  0  0  0  0  0
    1.2844   -1.8688    0.0000 C   0  0  0  0  0  0  0  0  0  0  0  0
    1.2844   -2.6938    0.0000 C   0  0  0  0  0  0  0  0  0  0  0  0
   -0.1445   -2.6938    0.0000 C   0  0  0  0  0  0  0  0  0  0  0  0
   -2.2460    0.1269    0.0000 C   0  0  0  0  0  0  0  0  0  0  0  0
   -3.3079    1.0831    0.0000 C   0  0  0  0  0  0  0  0  0  0  0  0
   -1.9489    1.5247    0.0000 C   0  0  0  0  0  0  0  0  0  0  0  0
   -0.3350    1.1816    0.0000 C   0  0  0  0  0  0  0  0  0  0  0  0
   -0.8870    0.5685    0.0000 C   0  0  0  0  0  0  0  0  0  0  0  0
   -0.2928    3.3639    0.0000 C   0  0  0  0  0  0  0  0  0  0  0  0
   -0.0379    2.5793    0.0000 O   0  0  0  0  0  0  0  0  0  0  0  0
   -0.5899    1.9662    0.0000 C   0  0  0  0  0  0  0  0  0  0  0  0
   -1.3969    2.1377    0.0000 C   0  0  0  0  0  0  0  0  0  0  0  0
   -1.6940    0.7400    0.0000 C   0  0  0  0  0  0  0  0  0  0  0  0
   -2.7559    1.6962    0.0000 N   0  0  0  0  0  0  0  0  0  0  0  0
   -3.0530    0.2985    0.0000 C   0  0  0  0  0  0  0  0  0  0  0  0
   -1.9911   -0.6577    0.0000 O   0  0  0  0  0  0  0  0  0  0  0  0
   -1.1841   -0.8292    0.0000 C   0  0  0  0  0  0  0  0  0  0  0  0
   -0.9292   -1.6138    0.0000 C   0  0  0  0  0  0  0  0  0  0  0  0
   -0.1445   -1.8688    0.0000 N   0  0  0  0  0  0  0  0  0  0  0  0
   -1.4141   -2.2813    0.0000 N   0  0  0  0  0  0  0  0  0  0  0  0
    0.5699   -3.1063    0.0000 C   0  0  0  0  0  0  0  0  0  0  0  0
    2.7134   -1.8688    0.0000 C   0  0  0  0  0  0  0  0  0  0  0  0
    3.4278   -1.4563    0.0000 C   0  0  0  0  0  0  0  0  0  0  0  0
    3.4278   -0.6313    0.0000 C   0  0  0  0  0  0  0  0  0  0  0  0
    1.1052   -0.1153    0.0000 H   0  0  0  0  0  0  0  0  0  0  0  0
    2.7134    0.8132    0.0000 H   0  0  0  0  0  0  0  0  0  0  0  0
    2.1781   -3.2098    0.0000 H   0  0  0  0  0  0  0  0  0  0  0  0
   -4.3173    1.2977    0.0000 H   0  0  0  0  0  0  0  0  0  0  0  0
    0.6744    0.9670    0.0000 H   0  0  0  0  0  0  0  0  0  0  0  0
   -0.5681   -0.4130    0.0000 H   0  0  0  0  0  0  0  0  0  0  0  0
    0.4232    4.1590    0.0000 H   0  0  0  0  0  0  0  0  0  0  0  0
   -1.3394    3.5864    0.0000 H   0  0  0  0  0  0  0  0  0  0  0  0
   -0.6234    4.3815    0.0000 H   0  0  0  0  0  0  0  0  0  0  0  0
   -1.7158    3.1192    0.0000 H   0  0  0  0  0  0  0  0  0  0  0  0
   -3.7436   -0.4684    0.0000 H   0  0  0  0  0  0  0  0  0  0  0  0
   -0.4681   -0.0340    0.0000 H   0  0  0  0  0  0  0  0  0  0  0  0
   -0.1375   -1.0517    0.0000 H   0  0  0  0  0  0  0  0  0  0  0  0
    0.5699   -4.1383    0.0000 H   0  0  0  0  0  0  0  0  0  0  0  0
    2.7134   -2.9008    0.0000 H   0  0  0  0  0  0  0  0  0  0  0  0
    4.3215   -1.9723    0.0000 H   0  0  0  0  0  0  0  0  0  0  0  0
    4.3215   -0.1153    0.0000 H   0  0  0  0  0  0  0  0  0  0  0  0
  1  6  2  0  0  0  0
  1 24  1  0  0  0  0
  2  8  2  0  0  0  0
  2 25  1  0  0  0  0
  3  4  2  0  0  0  0
  3  6  1  0  0  0  0
  3 27  1  0  0  0  0
  4  5  1  0  0  0  0
  4 30  1  0  0  0  0
  5 29  2  0  0  0  0
  5 31  1  0  0  0  0
  6  7  1  0  0  0  0
  7 26  2  0  0  0  0
  7 32  1  0  0  0  0
  8 24  1  0  0  0  0
  8 26  1  0  0  0  0
  9 18  2  0  0  0  0
  9 20  1  0  0  0  0
  9 21  1  0  0  0  0
 10 19  1  0  0  0  0
 10 20  2  0  0  0  0
 10 33  1  0  0  0  0
 11 17  1  0  0  0  0
 11 18  1  0  0  0  0
 11 19  2  0  0  0  0
 12 13  2  0  0  0  0
 12 16  1  0  0  0  0
 12 34  1  0  0  0  0
 13 18  1  0  0  0  0
 13 35  1  0  0  0  0
 14 15  1  0  0  0  0
 14 36  1  0  0  0  0
 14 37  1  0  0  0  0
 14 38  1  0  0  0  0
 15 16  1  0  0  0  0
 16 17  2  0  0  0  0
 17 39  1  0  0  0  0
 20 40  1  0  0  0  0
 21 22  1  0  0  0  0
 22 23  1  0  0  0  0
 22 41  1  0  0  0  0
 22 42  1  0  0  0  0
 23 24  1  0  0  0  0
 23 25  2  0  0  0  0
 26 43  1  0  0  0  0
 27 28  2  0  0  0  0
 27 44  1  0  0  0  0
 28 29  1  0  0  0  0
 28 45  1  0  0  0  0
 29 46  1  0  0  0  0
M  END
>  <DRUGBANK_ID>
DB08079

>  <SECONDARY_ACCESSION_NUMBERS>
DB12603

>  <COMMON_NAME>
AMG-208

>  <CAS_NUMBER>
1002304-34-8

>  <UNII>
Y2SR66P7VM

>  <SYNONYMS>
7-methoxy-4-[(6-phenyl[1,2,4]triazolo[4,3-b]pyridazin-3-yl)methoxy]quinoline

$$$$
