
 OpenBabel10282417072D

 79 81  0  0  1  0  0  0  0  0999 V2000
    1.8799   -1.8094    0.0000 C   0  0  0  0  0  0  0  0  0  0  0  0
    1.0549   -1.8094    0.0000 C   0  0  0  0  0  0  0  0  0  0  0  0
    0.6424   -1.0950    0.0000 C   0  0  2  0  0  0  0  0  0  0  0  0
   -0.1826   -1.0950    0.0000 C   0  0  0  0  0  0  0  0  0  0  0  0
   -0.5951   -0.3805    0.0000 C   0  0  0  0  0  0  0  0  0  0  0  0
   -1.4201   -0.3805    0.0000 C   0  0  1  0  0  0  0  0  0  0  0  0
   -1.8326   -1.0950    0.0000 C   0  0  0  0  0  0  0  0  0  0  0  0
   -1.8326    0.3340    0.0000 C   0  0  1  0  0  0  0  0  0  0  0  0
   -1.4970    1.0876    0.0000 C   0  0  0  0  0  0  0  0  0  0  0  0
   -2.1101    1.6397    0.0000 C   0  0  0  0  0  0  0  0  0  0  0  0
   -2.8246    1.2272    0.0000 C   0  0  2  0  0  0  0  0  0  0  0  0
   -2.6530    0.4202    0.0000 C   0  0  2  0  0  0  0  0  0  0  0  0
   -3.2661   -0.1318    0.0000 C   0  0  0  0  0  0  0  0  0  0  0  0
   -4.0508    0.1231    0.0000 C   0  0  0  0  0  0  0  0  0  0  0  0
   -4.2223    0.9301    0.0000 C   0  0  0  0  0  0  0  0  0  0  0  0
   -3.6092    1.4821    0.0000 C   0  0  0  0  0  0  0  0  0  0  0  0
   -3.7807    2.2891    0.0000 C   0  0  0  0  0  0  0  0  0  0  0  0
   -4.5653    2.5440    0.0000 C   0  0  0  0  0  0  0  0  0  0  0  0
   -4.7369    3.3510    0.0000 C   0  0  0  0  0  0  0  0  0  0  0  0
   -5.5215    3.6059    0.0000 C   0  0  0  0  0  0  0  0  0  0  0  0
   -5.6930    4.4129    0.0000 C   0  0  2  0  0  0  0  0  0  0  0  0
   -5.0799    4.9649    0.0000 C   0  0  0  0  0  0  0  0  0  0  0  0
   -4.2953    4.7100    0.0000 C   0  0  1  0  0  0  0  0  0  0  0  0
   -4.1238    3.9030    0.0000 C   0  0  0  0  0  0  0  0  0  0  0  0
   -3.3392    3.6481    0.0000 C   0  0  0  0  0  0  0  0  0  0  0  0
   -3.6822    5.2620    0.0000 O   0  0  0  0  0  0  0  0  0  0  0  0
   -6.4776    4.6678    0.0000 O   0  0  0  0  0  0  0  0  0  0  0  0
   -2.3981   -0.3644    0.0000 C   0  0  0  0  0  0  0  0  0  0  0  0
    1.0549   -0.3805    0.0000 C   0  0  0  0  0  0  0  0  0  0  0  0
    0.6424    0.3340    0.0000 C   0  0  0  0  0  0  0  0  0  0  0  0
    1.8799   -0.3805    0.0000 C   0  0  0  0  0  0  0  0  0  0  0  0
    2.4149   -2.7360    0.0000 H   0  0  0  0  0  0  0  0  0  0  0  0
    2.4149   -0.8828    0.0000 H   0  0  0  0  0  0  0  0  0  0  0  0
    2.9499   -1.8094    0.0000 H   0  0  0  0  0  0  0  0  0  0  0  0
    0.5199   -2.7361    0.0000 H   0  0  0  0  0  0  0  0  0  0  0  0
   -0.0151   -1.8094    0.0000 H   0  0  0  0  0  0  0  0  0  0  0  0
    0.1074   -2.0217    0.0000 H   0  0  0  0  0  0  0  0  0  0  0  0
   -0.7176   -2.0216    0.0000 H   0  0  0  0  0  0  0  0  0  0  0  0
   -1.2526   -1.0950    0.0000 H   0  0  0  0  0  0  0  0  0  0  0  0
   -0.0601    0.5461    0.0000 H   0  0  0  0  0  0  0  0  0  0  0  0
   -1.1301    0.5461    0.0000 H   0  0  0  0  0  0  0  0  0  0  0  0
   -0.8851    0.5461    0.0000 H   0  0  0  0  0  0  0  0  0  0  0  0
   -2.9026   -1.0950    0.0000 H   0  0  0  0  0  0  0  0  0  0  0  0
   -1.2976   -2.0216    0.0000 H   0  0  0  0  0  0  0  0  0  0  0  0
   -2.3676   -2.0217    0.0000 H   0  0  0  0  0  0  0  0  0  0  0  0
   -0.7641    0.3899    0.0000 H   0  0  0  0  0  0  0  0  0  0  0  0
   -0.4504    1.3100    0.0000 H   0  0  0  0  0  0  0  0  0  0  0  0
   -1.2200    2.1211    0.0000 H   0  0  0  0  0  0  0  0  0  0  0  0
   -1.9982    2.7038    0.0000 H   0  0  0  0  0  0  0  0  0  0  0  0
   -3.0075    2.2225    0.0000 H   0  0  0  0  0  0  0  0  0  0  0  0
   -1.8471    0.7920    0.0000 H   0  0  0  0  0  0  0  0  0  0  0  0
   -3.0436   -1.1784    0.0000 H   0  0  0  0  0  0  0  0  0  0  0  0
   -4.0612   -0.8478    0.0000 H   0  0  0  0  0  0  0  0  0  0  0  0
   -4.8460   -0.5929    0.0000 H   0  0  0  0  0  0  0  0  0  0  0  0
   -5.0684    0.4538    0.0000 H   0  0  0  0  0  0  0  0  0  0  0  0
   -5.2399    1.2608    0.0000 H   0  0  0  0  0  0  0  0  0  0  0  0
   -4.4447    1.9767    0.0000 H   0  0  0  0  0  0  0  0  0  0  0  0
   -3.0138    2.9796    0.0000 H   0  0  0  0  0  0  0  0  0  0  0  0
   -5.3322    1.8534    0.0000 H   0  0  0  0  0  0  0  0  0  0  0  0
   -6.3167    2.8899    0.0000 H   0  0  0  0  0  0  0  0  0  0  0  0
   -6.5391    3.9366    0.0000 H   0  0  0  0  0  0  0  0  0  0  0  0
   -6.4882    3.6969    0.0000 H   0  0  0  0  0  0  0  0  0  0  0  0
   -5.3024    6.0115    0.0000 H   0  0  0  0  0  0  0  0  0  0  0  0
   -4.2847    5.6809    0.0000 H   0  0  0  0  0  0  0  0  0  0  0  0
   -4.5178    5.7566    0.0000 H   0  0  0  0  0  0  0  0  0  0  0  0
   -3.1246    2.6387    0.0000 H   0  0  0  0  0  0  0  0  0  0  0  0
   -2.5723    4.3387    0.0000 H   0  0  0  0  0  0  0  0  0  0  0  0
   -2.7597    4.9622    0.0000 H   0  0  0  0  0  0  0  0  0  0  0  0
   -6.6793    5.6166    0.0000 H   0  0  0  0  0  0  0  0  0  0  0  0
   -3.1141   -1.1595    0.0000 H   0  0  0  0  0  0  0  0  0  0  0  0
   -1.3515   -0.5869    0.0000 H   0  0  0  0  0  0  0  0  0  0  0  0
   -2.0675   -1.3820    0.0000 H   0  0  0  0  0  0  0  0  0  0  0  0
    1.5899    0.5461    0.0000 H   0  0  0  0  0  0  0  0  0  0  0  0
    1.1774    1.2606    0.0000 H   0  0  0  0  0  0  0  0  0  0  0  0
   -0.4276    0.3340    0.0000 H   0  0  0  0  0  0  0  0  0  0  0  0
    0.1074    1.2607    0.0000 H   0  0  0  0  0  0  0  0  0  0  0  0
    2.4149   -1.3071    0.0000 H   0  0  0  0  0  0  0  0  0  0  0  0
    2.4149    0.5461    0.0000 H   0  0  0  0  0  0  0  0  0  0  0  0
    2.9499   -0.3805    0.0000 H   0  0  0  0  0  0  0  0  0  0  0  0
  1  2  1  0  0  0  0
  1 32  1  0  0  0  0
  1 33  1  0  0  0  0
  1 34  1  0  0  0  0
  2 35  1  0  0  0  0
  2 36  1  0  0  0  0
  3  2  1  0  0  0  0
  3  4  1  0  0  0  0
  3 29  1  0  0  0  0
  3 37  1  1  0  0  0
  4  5  1  0  0  0  0
  4 38  1  0  0  0  0
  4 39  1  0  0  0  0
  5  6  1  0  0  0  0
  5 40  1  0  0  0  0
  5 41  1  0  0  0  0
  6  7  1  0  0  0  0
  6 42  1  6  0  0  0
  7 43  1  0  0  0  0
  7 44  1  0  0  0  0
  7 45  1  0  0  0  0
  8  6  1  0  0  0  0
  8  9  1  0  0  0  0
  8 12  1  0  0  0  0
  8 46  1  1  0  0  0
  9 10  1  0  0  0  0
  9 47  1  0  0  0  0
  9 48  1  0  0  0  0
 10 49  1  0  0  0  0
 10 50  1  0  0  0  0
 11 10  1  0  0  0  0
 11 12  1  0  0  0  0
 11 16  1  0  0  0  0
 11 51  1  1  0  0  0
 12 13  1  0  0  0  0
 12 28  1  6  0  0  0
 13 14  1  0  0  0  0
 13 52  1  0  0  0  0
 13 53  1  0  0  0  0
 14 15  1  0  0  0  0
 14 54  1  0  0  0  0
 14 55  1  0  0  0  0
 15 16  1  0  0  0  0
 15 56  1  0  0  0  0
 15 57  1  0  0  0  0
 16 17  2  0  0  0  0
 17 18  1  0  0  0  0
 17 58  1  0  0  0  0
 18 19  2  0  0  0  0
 18 59  1  0  0  0  0
 19 20  1  0  0  0  0
 19 24  1  0  0  0  0
 20 21  1  0  0  0  0
 20 60  1  0  0  0  0
 20 61  1  0  0  0  0
 21 22  1  0  0  0  0
 21 27  1  0  0  0  0
 21 62  1  6  0  0  0
 22 23  1  0  0  0  0
 22 63  1  0  0  0  0
 22 64  1  0  0  0  0
 23 24  1  0  0  0  0
 23 26  1  0  0  0  0
 23 65  1  1  0  0  0
 24 25  2  0  0  0  0
 25 66  1  0  0  0  0
 25 67  1  0  0  0  0
 26 68  1  0  0  0  0
 27 69  1  0  0  0  0
 28 70  1  0  0  0  0
 28 71  1  0  0  0  0
 28 72  1  0  0  0  0
 29 30  1  0  0  0  0
 29 31  1  0  0  0  0
 29 73  1  0  0  0  0
 30 74  1  0  0  0  0
 30 75  1  0  0  0  0
 30 76  1  0  0  0  0
 31 77  1  0  0  0  0
 31 78  1  0  0  0  0
 31 79  1  0  0  0  0
M  END
>  <DRUGBANK_ID>
DB13097

>  <COMMON_NAME>
1alpha-Hydroxyvitamin D5

>  <CAS_NUMBER>
187935-17-7

>  <UNII>
XY02042OD4

>  <SYNONYMS>
1-Hydroxyvitamin D5; 1alpha-Hydroxy-24-ethylcholecalciferol

$$$$
