6IA
 OpenBabel10282417072D

 52 54  0  0  0  0  0  0  0  0999 V2000
   -6.3926    0.8573    0.0000 O   0  0  0  0  0  0  0  0  0  0  0  0
   -5.6389    0.5217    0.0000 P   0  0  0  0  0  0  0  0  0  0  0  0
   -5.9745   -0.2319    0.0000 O   0  0  0  0  0  0  0  0  0  0  0  0
   -5.3034    1.2754    0.0000 O   0  0  0  0  0  0  0  0  0  0  0  0
   -4.8852    0.1862    0.0000 O   0  0  0  0  0  0  0  0  0  0  0  0
   -4.2178    0.6711    0.0000 C   0  0  0  0  0  0  0  0  0  0  0  0
   -3.4641    0.3355    0.0000 C   0  0  1  0  0  0  0  0  0  0  0  0
   -2.7497    0.7480    0.0000 O   0  0  0  0  0  0  0  0  0  0  0  0
   -3.2926   -0.4714    0.0000 C   0  0  1  0  0  0  0  0  0  0  0  0
   -3.8446   -1.0845    0.0000 O   0  0  0  0  0  0  0  0  0  0  0  0
   -2.4721   -0.5577    0.0000 C   0  0  1  0  0  0  0  0  0  0  0  0
   -2.0596   -1.2721    0.0000 O   0  0  0  0  0  0  0  0  0  0  0  0
   -2.1366    0.1960    0.0000 C   0  0  2  0  0  0  0  0  0  0  0  0
   -1.3296    0.3675    0.0000 N   0  0  0  0  0  0  0  0  0  0  0  0
   -0.9940    1.1212    0.0000 C   0  0  0  0  0  0  0  0  0  0  0  0
   -0.1736    1.0350    0.0000 N   0  0  0  0  0  0  0  0  0  0  0  0
   -0.0020    0.2280    0.0000 C   0  0  0  0  0  0  0  0  0  0  0  0
    0.7124   -0.1845    0.0000 C   0  0  0  0  0  0  0  0  0  0  0  0
    1.4269    0.2280    0.0000 N   0  0  0  0  0  0  0  0  0  0  0  0
    0.7124   -1.0095    0.0000 N   0  0  0  0  0  0  0  0  0  0  0  0
   -0.0020   -1.4220    0.0000 C   0  0  0  0  0  0  0  0  0  0  0  0
   -0.7165   -1.0095    0.0000 N   0  0  0  0  0  0  0  0  0  0  0  0
   -0.7165   -0.1845    0.0000 C   0  0  0  0  0  0  0  0  0  0  0  0
    2.1414   -0.1845    0.0000 C   0  0  0  0  0  0  0  0  0  0  0  0
    2.8559    0.2280    0.0000 C   0  0  0  0  0  0  0  0  0  0  0  0
    3.5703   -0.1845    0.0000 C   0  0  0  0  0  0  0  0  0  0  0  0
    4.2848    0.2280    0.0000 C   0  0  0  0  0  0  0  0  0  0  0  0
    3.5703   -1.0095    0.0000 C   0  0  0  0  0  0  0  0  0  0  0  0
   -3.4947    0.9187    0.0000 H   0  0  0  0  0  0  0  0  0  0  0  0
   -3.8566   -0.3203    0.0000 H   0  0  0  0  0  0  0  0  0  0  0  0
   -2.7902   -1.0474    0.0000 H   0  0  0  0  0  0  0  0  0  0  0  0
   -1.9854    0.7600    0.0000 H   0  0  0  0  0  0  0  0  0  0  0  0
   -6.4940    1.8220    0.0000 H   0  0  0  0  0  0  0  0  0  0  0  0
   -4.3387    1.3769    0.0000 H   0  0  0  0  0  0  0  0  0  0  0  0
   -4.3296    1.7352    0.0000 H   0  0  0  0  0  0  0  0  0  0  0  0
   -3.3521    1.3000    0.0000 H   0  0  0  0  0  0  0  0  0  0  0  0
   -4.7934   -0.8829    0.0000 H   0  0  0  0  0  0  0  0  0  0  0  0
   -2.5446   -2.1122    0.0000 H   0  0  0  0  0  0  0  0  0  0  0  0
   -1.5100    2.0149    0.0000 H   0  0  0  0  0  0  0  0  0  0  0  0
    1.4269    1.2125    0.0000 H   0  0  0  0  0  0  0  0  0  0  0  0
   -0.0020   -2.4540    0.0000 H   0  0  0  0  0  0  0  0  0  0  0  0
    2.1414   -1.2545    0.0000 H   0  0  0  0  0  0  0  0  0  0  0  0
    3.0680   -0.7195    0.0000 H   0  0  0  0  0  0  0  0  0  0  0  0
    2.8559    1.2980    0.0000 H   0  0  0  0  0  0  0  0  0  0  0  0
    3.7826    0.7630    0.0000 H   0  0  0  0  0  0  0  0  0  0  0  0
    4.4969   -0.7195    0.0000 H   0  0  0  0  0  0  0  0  0  0  0  0
    5.2114   -0.3070    0.0000 H   0  0  0  0  0  0  0  0  0  0  0  0
    4.2848    1.2980    0.0000 H   0  0  0  0  0  0  0  0  0  0  0  0
    5.2115    0.7630    0.0000 H   0  0  0  0  0  0  0  0  0  0  0  0
    2.6437   -1.5445    0.0000 H   0  0  0  0  0  0  0  0  0  0  0  0
    4.4969   -1.5445    0.0000 H   0  0  0  0  0  0  0  0  0  0  0  0
    3.5703   -2.0795    0.0000 H   0  0  0  0  0  0  0  0  0  0  0  0
  1  2  1  0  0  0  0
  1 33  1  0  0  0  0
  2  3  2  0  0  0  0
  2  4  1  0  0  0  0
  2  5  1  0  0  0  0
  4 34  1  0  0  0  0
  5  6  1  0  0  0  0
  6 35  1  0  0  0  0
  6 36  1  0  0  0  0
  7  6  1  0  0  0  0
  7  8  1  0  0  0  0
  7  9  1  0  0  0  0
  7 29  1  6  0  0  0
  8 13  1  0  0  0  0
  9 10  1  0  0  0  0
  9 11  1  0  0  0  0
  9 30  1  1  0  0  0
 10 37  1  0  0  0  0
 11 12  1  0  0  0  0
 11 13  1  0  0  0  0
 11 31  1  1  0  0  0
 12 38  1  0  0  0  0
 13 14  1  0  0  0  0
 13 32  1  6  0  0  0
 14 15  1  0  0  0  0
 14 23  1  0  0  0  0
 15 16  2  0  0  0  0
 15 39  1  0  0  0  0
 16 17  1  0  0  0  0
 17 18  1  0  0  0  0
 17 23  2  0  0  0  0
 18 19  1  0  0  0  0
 18 20  2  0  0  0  0
 19 24  1  0  0  0  0
 19 40  1  0  0  0  0
 20 21  1  0  0  0  0
 21 22  2  0  0  0  0
 21 41  1  0  0  0  0
 22 23  1  0  0  0  0
 24 25  1  0  0  0  0
 24 42  1  0  0  0  0
 24 43  1  0  0  0  0
 25 26  1  0  0  0  0
 25 44  1  0  0  0  0
 25 45  1  0  0  0  0
 26 27  1  0  0  0  0
 26 28  1  0  0  0  0
 26 46  1  0  0  0  0
 27 47  1  0  0  0  0
 27 48  1  0  0  0  0
 27 49  1  0  0  0  0
 28 50  1  0  0  0  0
 28 51  1  0  0  0  0
 28 52  1  0  0  0  0
M  END
>  <DRUGBANK_ID>
DB07205

>  <COMMON_NAME>
N6-ISOPENTENYL-ADENOSINE-5'-MONOPHOSPHATE

$$$$
