
 OpenBabel10282417072D

 38 37  0  0  0  0  0  0  0  0999 V2000
    3.1086   -2.1434    0.0000 C   0  0  0  0  0  0  0  0  0  0  0  0
   12.3967   -1.7309    0.0000 C   0  0  0  0  0  0  0  0  0  0  0  0
    3.8230   -1.7309    0.0000 C   0  0  0  0  0  0  0  0  0  0  0  0
   11.6822   -2.1434    0.0000 C   0  0  0  0  0  0  0  0  0  0  0  0
    4.5375   -2.1434    0.0000 C   0  0  0  0  0  0  0  0  0  0  0  0
   10.9677   -1.7309    0.0000 C   0  0  0  0  0  0  0  0  0  0  0  0
    7.3954   -2.1434    0.0000 C   0  0  0  0  0  0  0  0  0  0  0  0
    8.1099   -1.7309    0.0000 C   0  0  0  0  0  0  0  0  0  0  0  0
    5.2520   -1.7309    0.0000 C   0  0  0  0  0  0  0  0  0  0  0  0
   10.2533   -2.1434    0.0000 C   0  0  0  0  0  0  0  0  0  0  0  0
    6.6809   -1.7309    0.0000 C   0  0  0  0  0  0  0  0  0  0  0  0
    8.8243   -2.1434    0.0000 C   0  0  0  0  0  0  0  0  0  0  0  0
    6.6809   -0.9059    0.0000 O   0  0  0  0  0  0  0  0  0  0  0  0
    8.8243   -2.9684    0.0000 O   0  0  0  0  0  0  0  0  0  0  0  0
    5.9664   -2.1434    0.0000 O   0  0  0  0  0  0  0  0  0  0  0  0
    9.5388   -1.7309    0.0000 O   0  0  0  0  0  0  0  0  0  0  0  0
    2.1819   -1.6084    0.0000 H   0  0  0  0  0  0  0  0  0  0  0  0
    3.1086   -3.2134    0.0000 H   0  0  0  0  0  0  0  0  0  0  0  0
    2.1820   -2.6784    0.0000 H   0  0  0  0  0  0  0  0  0  0  0  0
   13.3233   -2.2659    0.0000 H   0  0  0  0  0  0  0  0  0  0  0  0
   12.3967   -0.6609    0.0000 H   0  0  0  0  0  0  0  0  0  0  0  0
   13.3234   -1.1959    0.0000 H   0  0  0  0  0  0  0  0  0  0  0  0
    3.8230   -0.6609    0.0000 H   0  0  0  0  0  0  0  0  0  0  0  0
    4.7496   -1.1959    0.0000 H   0  0  0  0  0  0  0  0  0  0  0  0
   11.6822   -3.2134    0.0000 H   0  0  0  0  0  0  0  0  0  0  0  0
   10.7556   -2.6784    0.0000 H   0  0  0  0  0  0  0  0  0  0  0  0
    4.5375   -3.2134    0.0000 H   0  0  0  0  0  0  0  0  0  0  0  0
    5.4641   -2.6784    0.0000 H   0  0  0  0  0  0  0  0  0  0  0  0
   10.9677   -0.6609    0.0000 H   0  0  0  0  0  0  0  0  0  0  0  0
   10.0410   -1.1959    0.0000 H   0  0  0  0  0  0  0  0  0  0  0  0
    7.3954   -3.2134    0.0000 H   0  0  0  0  0  0  0  0  0  0  0  0
    6.4688   -2.6784    0.0000 H   0  0  0  0  0  0  0  0  0  0  0  0
    8.1099   -0.6609    0.0000 H   0  0  0  0  0  0  0  0  0  0  0  0
    9.0366   -1.1959    0.0000 H   0  0  0  0  0  0  0  0  0  0  0  0
    5.2520   -0.6609    0.0000 H   0  0  0  0  0  0  0  0  0  0  0  0
    6.1787   -1.1959    0.0000 H   0  0  0  0  0  0  0  0  0  0  0  0
   10.2533   -3.2134    0.0000 H   0  0  0  0  0  0  0  0  0  0  0  0
    9.3267   -2.6784    0.0000 H   0  0  0  0  0  0  0  0  0  0  0  0
  1 17  1  0  0  0  0
  1 18  1  0  0  0  0
  1 19  1  0  0  0  0
  2 20  1  0  0  0  0
  2 21  1  0  0  0  0
  2 22  1  0  0  0  0
  3  1  1  0  0  0  0
  3 23  1  0  0  0  0
  3 24  1  0  0  0  0
  4  2  1  0  0  0  0
  4 25  1  0  0  0  0
  4 26  1  0  0  0  0
  5  3  1  0  0  0  0
  5 27  1  0  0  0  0
  5 28  1  0  0  0  0
  6  4  1  0  0  0  0
  6 29  1  0  0  0  0
  6 30  1  0  0  0  0
  7 31  1  0  0  0  0
  7 32  1  0  0  0  0
  8  7  1  0  0  0  0
  8 33  1  0  0  0  0
  8 34  1  0  0  0  0
  9  5  1  0  0  0  0
  9 35  1  0  0  0  0
  9 36  1  0  0  0  0
 10  6  1  0  0  0  0
 10 37  1  0  0  0  0
 10 38  1  0  0  0  0
 11  7  1  0  0  0  0
 12  8  1  0  0  0  0
 13 11  2  0  0  0  0
 14 12  2  0  0  0  0
 15  9  1  0  0  0  0
 15 11  1  0  0  0  0
 16 10  1  0  0  0  0
 16 12  1  0  0  0  0
M  END
>  <DRUGBANK_ID>
DB13332

>  <COMMON_NAME>
Dibutylsuccinate

>  <CAS_NUMBER>
141-03-7

>  <UNII>
Q050512U41

>  <SYNONYMS>
Dibutyl succinate

$$$$
