
 OpenBabel10282417072D

 95 97  0  0  1  0  0  0  0  0999 V2000
   25.1021   -1.7452    0.0000 C   0  0  2  0  0  0  0  0  0  0  0  0
   24.4347   -1.2603    0.0000 O   0  0  0  0  0  0  0  0  0  0  0  0
   24.8472   -2.5298    0.0000 C   0  0  1  0  0  0  0  0  0  0  0  0
   23.7672   -1.7452    0.0000 C   0  0  1  0  0  0  0  0  0  0  0  0
   24.0222   -2.5298    0.0000 C   0  0  1  0  0  0  0  0  0  0  0  0
   25.3321   -3.1973    0.0000 O   0  0  0  0  0  0  0  0  0  0  0  0
   18.3564   -5.7862    0.0000 C   0  0  0  0  0  0  0  0  0  0  0  0
   19.0992   -6.1987    0.0000 C   0  0  0  0  0  0  0  0  0  0  0  0
   17.6419   -6.1987    0.0000 N   0  0  0  0  0  0  0  0  0  0  0  0
   16.9275   -5.7862    0.0000 C   0  0  0  0  0  0  0  0  0  0  0  0
   16.2130   -6.1987    0.0000 O   0  0  0  0  0  0  0  0  0  0  0  0
   17.6703   -4.5487    0.0000 C   0  0  0  0  0  0  0  0  0  0  0  0
   16.9275   -4.9612    0.0000 C   0  0  0  0  0  0  0  0  0  0  0  0
   17.6703   -3.7237    0.0000 N   0  0  0  0  0  0  0  0  0  0  0  0
   16.2414   -3.7237    0.0000 O   0  0  0  0  0  0  0  0  0  0  0  0
   16.9558   -3.3111    0.0000 C   0  0  0  0  0  0  0  0  0  0  0  0
   18.3848   -2.4861    0.0000 C   0  0  0  0  0  0  0  0  0  0  0  0
   17.2578   -1.3592    0.0000 C   0  0  0  0  0  0  0  0  0  0  0  0
   17.6703   -2.0736    0.0000 C   0  0  0  0  0  0  0  0  0  0  0  0
   18.0828   -1.3592    0.0000 C   0  0  0  0  0  0  0  0  0  0  0  0
   16.9558   -2.4861    0.0000 C   0  0  1  0  0  0  0  0  0  0  0  0
   16.2413   -2.0736    0.0000 O   0  0  0  0  0  0  0  0  0  0  0  0
   19.0992   -2.0736    0.0000 O   0  0  0  0  0  0  0  0  0  0  0  0
   20.7492   -2.0736    0.0000 O   0  0  0  0  0  0  0  0  0  0  0  0
   22.3992   -2.0736    0.0000 O   0  0  0  0  0  0  0  0  0  0  0  0
   19.9242   -1.2486    0.0000 O   0  0  0  0  0  0  0  0  0  0  0  0
   19.9242   -2.8986    0.0000 O   0  0  0  0  0  0  0  0  0  0  0  0
   21.5742   -1.2486    0.0000 O   0  0  0  0  0  0  0  0  0  0  0  0
   21.5742   -2.8986    0.0000 O   0  0  0  0  0  0  0  0  0  0  0  0
   19.9242   -2.0736    0.0000 P   0  0  3  0  0  0  0  0  0  0  0  0
   21.5742   -2.0736    0.0000 P   0  0  3  0  0  0  0  0  0  0  0  0
   22.9826   -1.4903    0.0000 C   0  0  0  0  0  0  0  0  0  0  0  0
   23.5372   -3.1973    0.0000 O   0  0  0  0  0  0  0  0  0  0  0  0
   22.7122   -4.0223    0.0000 O   0  0  0  0  0  0  0  0  0  0  0  0
   24.3622   -4.0223    0.0000 O   0  0  0  0  0  0  0  0  0  0  0  0
   23.5372   -4.0223    0.0000 P   0  0  0  0  0  0  0  0  0  0  0  0
   23.5372   -4.8473    0.0000 O   0  0  0  0  0  0  0  0  0  0  0  0
   25.8867   -1.4903    0.0000 N   0  0  0  0  0  0  0  0  0  0  0  0
   26.4999   -2.0423    0.0000 C   0  0  0  0  0  0  0  0  0  0  0  0
   26.2223   -0.7366    0.0000 C   0  0  0  0  0  0  0  0  0  0  0  0
   27.2143   -1.6298    0.0000 C   0  0  0  0  0  0  0  0  0  0  0  0
   26.4999   -2.8673    0.0000 N   0  0  0  0  0  0  0  0  0  0  0  0
   27.0428   -0.8228    0.0000 N   0  0  0  0  0  0  0  0  0  0  0  0
   27.9288   -2.0422    0.0000 C   0  0  0  0  0  0  0  0  0  0  0  0
   27.2144   -3.2797    0.0000 C   0  0  0  0  0  0  0  0  0  0  0  0
   27.9288   -2.8672    0.0000 N   0  0  0  0  0  0  0  0  0  0  0  0
   28.6432   -1.6297    0.0000 N   0  0  0  0  0  0  0  0  0  0  0  0
   19.8137   -5.7862    0.0000 S   0  0  0  0  0  0  0  0  0  0  0  0
   20.5282   -7.0237    0.0000 O   0  0  0  0  0  0  0  0  0  0  0  0
   20.5282   -6.1987    0.0000 C   0  0  0  0  0  0  0  0  0  0  0  0
   21.2426   -5.7862    0.0000 C   0  0  0  0  0  0  0  0  0  0  0  0
   21.9571   -6.1987    0.0000 C   0  0  0  0  0  0  0  0  0  0  0  0
   23.3861   -6.1987    0.0000 O   0  0  0  0  0  0  0  0  0  0  0  0
   22.6716   -5.7862    0.0000 C   0  0  0  0  0  0  0  0  0  0  0  0
   22.6716   -4.9612    0.0000 O   0  0  0  0  0  0  0  0  0  0  0  0
   25.2695   -0.6884    0.0000 H   0  0  0  0  0  0  0  0  0  0  0  0
   25.9040   -2.3624    0.0000 H   0  0  0  0  0  0  0  0  0  0  0  0
   23.5998   -0.6884    0.0000 H   0  0  0  0  0  0  0  0  0  0  0  0
   24.5080   -3.4832    0.0000 H   0  0  0  0  0  0  0  0  0  0  0  0
   24.9375   -4.0834    0.0000 H   0  0  0  0  0  0  0  0  0  0  0  0
   18.3475   -4.7162    0.0000 H   0  0  0  0  0  0  0  0  0  0  0  0
   19.2763   -5.2397    0.0000 H   0  0  0  0  0  0  0  0  0  0  0  0
   19.1081   -7.2687    0.0000 H   0  0  0  0  0  0  0  0  0  0  0  0
   20.0281   -6.7298    0.0000 H   0  0  0  0  0  0  0  0  0  0  0  0
   17.6419   -7.1832    0.0000 H   0  0  0  0  0  0  0  0  0  0  0  0
   18.5925   -5.0914    0.0000 H   0  0  0  0  0  0  0  0  0  0  0  0
   17.6569   -5.6186    0.0000 H   0  0  0  0  0  0  0  0  0  0  0  0
   16.0053   -4.4185    0.0000 H   0  0  0  0  0  0  0  0  0  0  0  0
   16.9409   -3.8913    0.0000 H   0  0  0  0  0  0  0  0  0  0  0  0
   18.5229   -3.2315    0.0000 H   0  0  0  0  0  0  0  0  0  0  0  0
   18.3848   -3.5561    0.0000 H   0  0  0  0  0  0  0  0  0  0  0  0
   19.3115   -3.0211    0.0000 H   0  0  0  0  0  0  0  0  0  0  0  0
   17.7928   -0.4325    0.0000 H   0  0  0  0  0  0  0  0  0  0  0  0
   16.1878   -1.3592    0.0000 H   0  0  0  0  0  0  0  0  0  0  0  0
   16.7228   -0.4326    0.0000 H   0  0  0  0  0  0  0  0  0  0  0  0
   19.1528   -1.3592    0.0000 H   0  0  0  0  0  0  0  0  0  0  0  0
   17.5478   -0.4325    0.0000 H   0  0  0  0  0  0  0  0  0  0  0  0
   18.6178   -0.4326    0.0000 H   0  0  0  0  0  0  0  0  0  0  0  0
   16.0292   -3.0211    0.0000 H   0  0  0  0  0  0  0  0  0  0  0  0
   16.2413   -1.1036    0.0000 H   0  0  0  0  0  0  0  0  0  0  0  0
   19.0842   -3.3836    0.0000 H   0  0  0  0  0  0  0  0  0  0  0  0
   20.7342   -3.3836    0.0000 H   0  0  0  0  0  0  0  0  0  0  0  0
   22.7328   -0.4499    0.0000 H   0  0  0  0  0  0  0  0  0  0  0  0
   21.9528   -1.1998    0.0000 H   0  0  0  0  0  0  0  0  0  0  0  0
   22.2272   -3.1823    0.0000 H   0  0  0  0  0  0  0  0  0  0  0  0
   24.8472   -4.8623    0.0000 H   0  0  0  0  0  0  0  0  0  0  0  0
   25.7063    0.1571    0.0000 H   0  0  0  0  0  0  0  0  0  0  0  0
   27.2145   -4.3117    0.0000 H   0  0  0  0  0  0  0  0  0  0  0  0
   29.4958   -2.1219    0.0000 H   0  0  0  0  0  0  0  0  0  0  0  0
   28.6432   -0.6452    0.0000 H   0  0  0  0  0  0  0  0  0  0  0  0
   21.2426   -4.7162    0.0000 H   0  0  0  0  0  0  0  0  0  0  0  0
   22.1692   -5.2512    0.0000 H   0  0  0  0  0  0  0  0  0  0  0  0
   21.9571   -7.2687    0.0000 H   0  0  0  0  0  0  0  0  0  0  0  0
   22.8837   -6.7337    0.0000 H   0  0  0  0  0  0  0  0  0  0  0  0
   23.4831   -4.4927    0.0000 H   0  0  0  0  0  0  0  0  0  0  0  0
  1 38  1  0  0  0  0
  1 56  1  6  0  0  0
  2  1  1  0  0  0  0
  3  1  1  0  0  0  0
  3  6  1  0  0  0  0
  3 57  1  1  0  0  0
  4  2  1  0  0  0  0
  4 32  1  0  0  0  0
  4 58  1  6  0  0  0
  5  3  1  0  0  0  0
  5  4  1  0  0  0  0
  5 33  1  0  0  0  0
  5 59  1  1  0  0  0
  6 60  1  0  0  0  0
  7  8  1  0  0  0  0
  7 61  1  0  0  0  0
  7 62  1  0  0  0  0
  8 48  1  0  0  0  0
  8 63  1  0  0  0  0
  8 64  1  0  0  0  0
  9  7  1  0  0  0  0
  9 65  1  0  0  0  0
 10  9  1  0  0  0  0
 10 11  2  0  0  0  0
 12 14  1  0  0  0  0
 12 66  1  0  0  0  0
 12 67  1  0  0  0  0
 13 10  1  0  0  0  0
 13 12  1  0  0  0  0
 13 68  1  0  0  0  0
 13 69  1  0  0  0  0
 14 70  1  0  0  0  0
 16 14  1  0  0  0  0
 16 15  2  0  0  0  0
 16 21  1  0  0  0  0
 17 23  1  0  0  0  0
 17 71  1  0  0  0  0
 17 72  1  0  0  0  0
 18 73  1  0  0  0  0
 18 74  1  0  0  0  0
 18 75  1  0  0  0  0
 19 17  1  0  0  0  0
 19 18  1  0  0  0  0
 19 20  1  0  0  0  0
 20 76  1  0  0  0  0
 20 77  1  0  0  0  0
 20 78  1  0  0  0  0
 21 19  1  0  0  0  0
 21 22  1  0  0  0  0
 21 79  1  1  0  0  0
 22 80  1  0  0  0  0
 23 30  1  0  0  0  0
 24 31  1  0  0  0  0
 27 81  1  0  0  0  0
 29 82  1  0  0  0  0
 30 24  1  0  0  0  0
 30 26  2  0  0  0  0
 30 27  1  0  0  0  0
 31 25  1  0  0  0  0
 31 28  2  0  0  0  0
 31 29  1  0  0  0  0
 32 25  1  0  0  0  0
 32 83  1  0  0  0  0
 32 84  1  0  0  0  0
 33 36  1  0  0  0  0
 34 85  1  0  0  0  0
 35 86  1  0  0  0  0
 36 34  1  0  0  0  0
 36 35  1  0  0  0  0
 36 37  2  0  0  0  0
 39 38  1  0  0  0  0
 40 38  1  0  0  0  0
 40 87  1  0  0  0  0
 41 39  2  0  0  0  0
 42 39  1  0  0  0  0
 43 40  2  0  0  0  0
 43 41  1  0  0  0  0
 44 41  1  0  0  0  0
 45 42  2  0  0  0  0
 45 88  1  0  0  0  0
 46 44  2  0  0  0  0
 46 45  1  0  0  0  0
 47 44  1  0  0  0  0
 47 89  1  0  0  0  0
 47 90  1  0  0  0  0
 48 50  1  0  0  0  0
 50 49  2  0  0  0  0
 50 51  1  0  0  0  0
 51 52  1  0  0  0  0
 51 91  1  0  0  0  0
 51 92  1  0  0  0  0
 52 54  1  0  0  0  0
 52 93  1  0  0  0  0
 52 94  1  0  0  0  0
 54 53  2  0  0  0  0
 54 55  1  0  0  0  0
 55 95  1  0  0  0  0
M  END
>  <DRUGBANK_ID>
DB03699

>  <SECONDARY_ACCESSION_NUMBERS>
EXPT02863

>  <COMMON_NAME>
Succinyl-Coenzyme A

>  <CAS_NUMBER>
604-98-8

>  <UNII>
BSI27HW5EQ

$$$$
