
 OpenBabel10282417072D

 73 42  0  0  0  0  0  0  0  0999 V2000
    0.0000    0.0000    0.0000 Mo  0  0  0  0  0  0  0  0  0  0  0  0
    2.1214    0.0000    0.0000 Mo  0  0  0  0  0  0  0  0  0  0  0  0
    4.2429    0.0000    0.0000 Mo  0  0  0  0  0  0  0  0  0  0  0  0
    6.3643    0.0000    0.0000 Mo  0  0  0  0  0  0  0  0  0  0  0  0
    8.4857    0.0000    0.0000 Mo  0  0  0  0  0  0  0  0  0  0  0  0
   10.6071    0.0000    0.0000 Mo  0  0  0  0  0  0  0  0  0  0  0  0
    0.0000   -1.6500    0.0000 Mo  0  0  0  0  0  0  0  0  0  0  0  0
    2.2393   -1.6500    0.0000 O   0  0  0  0  0  0  0  0  0  0  0  0
    4.4786   -1.6500    0.0000 O   0  0  0  0  0  0  0  0  0  0  0  0
    6.7179   -1.6500    0.0000 O   0  0  0  0  0  0  0  0  0  0  0  0
    8.9571   -1.6500    0.0000 O   0  0  0  0  0  0  0  0  0  0  0  0
   11.1964   -1.6500    0.0000 O   0  0  0  0  0  0  0  0  0  0  0  0
    0.0000   -3.3000    0.0000 O   0  0  0  0  0  0  0  0  0  0  0  0
    2.2393   -3.3000    0.0000 O   0  0  0  0  0  0  0  0  0  0  0  0
    4.4786   -3.3000    0.0000 O   0  0  0  0  0  0  0  0  0  0  0  0
    6.7179   -3.3000    0.0000 O   0  0  0  0  0  0  0  0  0  0  0  0
    8.9571   -3.3000    0.0000 O   0  0  0  0  0  0  0  0  0  0  0  0
   11.1964   -3.3000    0.0000 O   0  0  0  0  0  0  0  0  0  0  0  0
    0.0000   -4.9500    0.0000 O   0  0  0  0  0  0  0  0  0  0  0  0
    2.2393   -4.9500    0.0000 O   0  0  0  0  0  0  0  0  0  0  0  0
    4.4786   -4.9500    0.0000 O   0  0  0  0  0  0  0  0  0  0  0  0
    6.7179   -4.9500    0.0000 O   0  0  0  0  0  0  0  0  0  0  0  0
    8.9571   -4.9500    0.0000 O   0  0  0  0  0  0  0  0  0  0  0  0
   11.1964   -4.9500    0.0000 O   0  0  0  0  0  0  0  0  0  0  0  0
    0.0000   -6.6000    0.0000 O   0  0  0  0  0  0  0  0  0  0  0  0
    2.2393   -6.6000    0.0000 O   0  5  0  0  0  0  0  0  0  0  0  0
    3.2411   -6.6000    0.0000 O   0  5  0  0  0  0  0  0  0  0  0  0
    4.2429   -6.6000    0.0000 O   0  5  0  0  0  0  0  0  0  0  0  0
    5.2446   -6.6000    0.0000 O   0  5  0  0  0  0  0  0  0  0  0  0
    6.2464   -6.6000    0.0000 O   0  5  0  0  0  0  0  0  0  0  0  0
    0.0000   -8.2500    0.0000 O   0  5  0  0  0  0  0  0  0  0  0  0
    3.2093   -1.6500    0.0000 H   0  0  0  0  0  0  0  0  0  0  0  0
    1.7543   -0.8100    0.0000 H   0  0  0  0  0  0  0  0  0  0  0  0
    5.4486   -1.6500    0.0000 H   0  0  0  0  0  0  0  0  0  0  0  0
    3.9936   -0.8100    0.0000 H   0  0  0  0  0  0  0  0  0  0  0  0
    7.6879   -1.6500    0.0000 H   0  0  0  0  0  0  0  0  0  0  0  0
    6.2329   -0.8100    0.0000 H   0  0  0  0  0  0  0  0  0  0  0  0
    9.9271   -1.6500    0.0000 H   0  0  0  0  0  0  0  0  0  0  0  0
    8.4721   -0.8100    0.0000 H   0  0  0  0  0  0  0  0  0  0  0  0
   12.1664   -1.6500    0.0000 H   0  0  0  0  0  0  0  0  0  0  0  0
   10.7114   -0.8100    0.0000 H   0  0  0  0  0  0  0  0  0  0  0  0
    0.9700   -3.3000    0.0000 H   0  0  0  0  0  0  0  0  0  0  0  0
   -0.4850   -2.4600    0.0000 H   0  0  0  0  0  0  0  0  0  0  0  0
    3.2093   -3.3000    0.0000 H   0  0  0  0  0  0  0  0  0  0  0  0
    1.7543   -2.4600    0.0000 H   0  0  0  0  0  0  0  0  0  0  0  0
    5.4486   -3.3000    0.0000 H   0  0  0  0  0  0  0  0  0  0  0  0
    3.9936   -2.4600    0.0000 H   0  0  0  0  0  0  0  0  0  0  0  0
    7.6879   -3.3000    0.0000 H   0  0  0  0  0  0  0  0  0  0  0  0
    6.2329   -2.4600    0.0000 H   0  0  0  0  0  0  0  0  0  0  0  0
    9.9271   -3.3000    0.0000 H   0  0  0  0  0  0  0  0  0  0  0  0
    8.4721   -2.4600    0.0000 H   0  0  0  0  0  0  0  0  0  0  0  0
   12.1664   -3.3000    0.0000 H   0  0  0  0  0  0  0  0  0  0  0  0
   10.7114   -2.4600    0.0000 H   0  0  0  0  0  0  0  0  0  0  0  0
    0.9700   -4.9500    0.0000 H   0  0  0  0  0  0  0  0  0  0  0  0
   -0.4850   -4.1100    0.0000 H   0  0  0  0  0  0  0  0  0  0  0  0
    3.2093   -4.9500    0.0000 H   0  0  0  0  0  0  0  0  0  0  0  0
    1.7543   -4.1100    0.0000 H   0  0  0  0  0  0  0  0  0  0  0  0
    5.4486   -4.9500    0.0000 H   0  0  0  0  0  0  0  0  0  0  0  0
    3.9936   -4.1100    0.0000 H   0  0  0  0  0  0  0  0  0  0  0  0
    7.6879   -4.9500    0.0000 H   0  0  0  0  0  0  0  0  0  0  0  0
    6.2329   -4.1100    0.0000 H   0  0  0  0  0  0  0  0  0  0  0  0
    9.9271   -4.9500    0.0000 H   0  0  0  0  0  0  0  0  0  0  0  0
    8.4721   -4.1100    0.0000 H   0  0  0  0  0  0  0  0  0  0  0  0
   12.1664   -4.9500    0.0000 H   0  0  0  0  0  0  0  0  0  0  0  0
   10.7114   -4.1100    0.0000 H   0  0  0  0  0  0  0  0  0  0  0  0
    0.9700   -6.6000    0.0000 H   0  0  0  0  0  0  0  0  0  0  0  0
   -0.4850   -5.7600    0.0000 H   0  0  0  0  0  0  0  0  0  0  0  0
    3.2093   -6.6000    0.0000 H   0  0  0  0  0  0  0  0  0  0  0  0
    4.2111   -6.6000    0.0000 H   0  0  0  0  0  0  0  0  0  0  0  0
    5.2129   -6.6000    0.0000 H   0  0  0  0  0  0  0  0  0  0  0  0
    6.2146   -6.6000    0.0000 H   0  0  0  0  0  0  0  0  0  0  0  0
    7.2164   -6.6000    0.0000 H   0  0  0  0  0  0  0  0  0  0  0  0
    0.9700   -8.2500    0.0000 H   0  0  0  0  0  0  0  0  0  0  0  0
  8 32  1  0  0  0  0
  8 33  1  0  0  0  0
  9 34  1  0  0  0  0
  9 35  1  0  0  0  0
 10 36  1  0  0  0  0
 10 37  1  0  0  0  0
 11 38  1  0  0  0  0
 11 39  1  0  0  0  0
 12 40  1  0  0  0  0
 12 41  1  0  0  0  0
 13 42  1  0  0  0  0
 13 43  1  0  0  0  0
 14 44  1  0  0  0  0
 14 45  1  0  0  0  0
 15 46  1  0  0  0  0
 15 47  1  0  0  0  0
 16 48  1  0  0  0  0
 16 49  1  0  0  0  0
 17 50  1  0  0  0  0
 17 51  1  0  0  0  0
 18 52  1  0  0  0  0
 18 53  1  0  0  0  0
 19 54  1  0  0  0  0
 19 55  1  0  0  0  0
 20 56  1  0  0  0  0
 20 57  1  0  0  0  0
 21 58  1  0  0  0  0
 21 59  1  0  0  0  0
 22 60  1  0  0  0  0
 22 61  1  0  0  0  0
 23 62  1  0  0  0  0
 23 63  1  0  0  0  0
 24 64  1  0  0  0  0
 24 65  1  0  0  0  0
 25 66  1  0  0  0  0
 25 67  1  0  0  0  0
 26 68  1  0  0  0  0
 27 69  1  0  0  0  0
 28 70  1  0  0  0  0
 29 71  1  0  0  0  0
 30 72  1  0  0  0  0
 31 73  1  0  0  0  0
M  CHG  6  26  -1  27  -1  28  -1  29  -1  30  -1  31  -1
M  END
>  <DRUGBANK_ID>
DB04414

>  <SECONDARY_ACCESSION_NUMBERS>
EXPT02207

>  <COMMON_NAME>
Heptamolybdate

$$$$
