738
 OpenBabel10282417072D

 49 50  0  0  0  0  0  0  0  0999 V2000
    5.6655   -2.6029    0.0000 O   0  0  0  0  0  0  0  0  0  0  0  0
    7.8089    1.1096    0.0000 O   0  0  0  0  0  0  0  0  0  0  0  0
    2.8075   -5.0780    0.0000 N   0  0  0  0  0  0  0  0  0  0  0  0
    8.5234    4.8222    0.0000 N   0  0  0  0  0  0  0  0  0  0  0  0
    2.0930   -3.8405    0.0000 N   0  0  0  0  0  0  0  0  0  0  0  0
    7.0944    4.8222    0.0000 N   0  0  0  0  0  0  0  0  0  0  0  0
    6.3799   -0.5404    0.0000 C   0  0  0  0  0  0  0  0  0  0  0  0
    6.3799   -1.3654    0.0000 C   0  0  0  0  0  0  0  0  0  0  0  0
    7.0944   -0.1279    0.0000 C   0  0  0  0  0  0  0  0  0  0  0  0
    5.6655   -1.7779    0.0000 C   0  0  0  0  0  0  0  0  0  0  0  0
    7.0944    0.6971    0.0000 C   0  0  0  0  0  0  0  0  0  0  0  0
    4.9509   -3.0154    0.0000 C   0  0  0  0  0  0  0  0  0  0  0  0
    7.8089    1.9347    0.0000 C   0  0  0  0  0  0  0  0  0  0  0  0
    4.2365   -2.6029    0.0000 C   0  0  0  0  0  0  0  0  0  0  0  0
    8.5234    2.3472    0.0000 C   0  0  0  0  0  0  0  0  0  0  0  0
    4.9509   -3.8405    0.0000 C   0  0  0  0  0  0  0  0  0  0  0  0
    7.0944    2.3472    0.0000 C   0  0  0  0  0  0  0  0  0  0  0  0
    3.5220   -3.8405    0.0000 C   0  0  0  0  0  0  0  0  0  0  0  0
    7.8089    3.5847    0.0000 C   0  0  0  0  0  0  0  0  0  0  0  0
    3.5220   -3.0154    0.0000 C   0  0  0  0  0  0  0  0  0  0  0  0
    8.5234    3.1722    0.0000 C   0  0  0  0  0  0  0  0  0  0  0  0
    4.2365   -4.2530    0.0000 C   0  0  0  0  0  0  0  0  0  0  0  0
    7.0944    3.1722    0.0000 C   0  0  0  0  0  0  0  0  0  0  0  0
    2.8075   -4.2530    0.0000 C   0  0  0  0  0  0  0  0  0  0  0  0
    7.8089    4.4097    0.0000 C   0  0  0  0  0  0  0  0  0  0  0  0
    1.9549   -5.5703    0.0000 H   0  0  0  0  0  0  0  0  0  0  0  0
    3.6601   -5.5702    0.0000 H   0  0  0  0  0  0  0  0  0  0  0  0
    9.3760    4.3299    0.0000 H   0  0  0  0  0  0  0  0  0  0  0  0
    8.5234    5.8067    0.0000 H   0  0  0  0  0  0  0  0  0  0  0  0
    2.0930   -2.8560    0.0000 H   0  0  0  0  0  0  0  0  0  0  0  0
    7.0944    5.8067    0.0000 H   0  0  0  0  0  0  0  0  0  0  0  0
    5.4533   -0.0054    0.0000 H   0  0  0  0  0  0  0  0  0  0  0  0
    6.3799    0.5296    0.0000 H   0  0  0  0  0  0  0  0  0  0  0  0
    7.3066   -1.9004    0.0000 H   0  0  0  0  0  0  0  0  0  0  0  0
    6.3799   -2.4354    0.0000 H   0  0  0  0  0  0  0  0  0  0  0  0
    8.0210   -0.6629    0.0000 H   0  0  0  0  0  0  0  0  0  0  0  0
    8.0210    0.4071    0.0000 H   0  0  0  0  0  0  0  0  0  0  0  0
    4.7388   -1.2429    0.0000 H   0  0  0  0  0  0  0  0  0  0  0  0
    5.6655   -0.7079    0.0000 H   0  0  0  0  0  0  0  0  0  0  0  0
    6.1678    1.2321    0.0000 H   0  0  0  0  0  0  0  0  0  0  0  0
    6.1678    0.1621    0.0000 H   0  0  0  0  0  0  0  0  0  0  0  0
    4.2365   -1.5709    0.0000 H   0  0  0  0  0  0  0  0  0  0  0  0
    9.4171    1.8312    0.0000 H   0  0  0  0  0  0  0  0  0  0  0  0
    5.8446   -4.3565    0.0000 H   0  0  0  0  0  0  0  0  0  0  0  0
    6.2007    1.8312    0.0000 H   0  0  0  0  0  0  0  0  0  0  0  0
    2.6283   -2.4994    0.0000 H   0  0  0  0  0  0  0  0  0  0  0  0
    9.4171    3.6882    0.0000 H   0  0  0  0  0  0  0  0  0  0  0  0
    4.2365   -5.2850    0.0000 H   0  0  0  0  0  0  0  0  0  0  0  0
    6.2007    3.6882    0.0000 H   0  0  0  0  0  0  0  0  0  0  0  0
  1 10  1  0  0  0  0
  1 12  1  0  0  0  0
  2 11  1  0  0  0  0
  2 13  1  0  0  0  0
  3 24  1  0  0  0  0
  3 26  1  0  0  0  0
  3 27  1  0  0  0  0
  4 25  1  0  0  0  0
  4 28  1  0  0  0  0
  4 29  1  0  0  0  0
  5 24  2  0  0  0  0
  5 30  1  0  0  0  0
  6 25  2  0  0  0  0
  6 31  1  0  0  0  0
  7  8  1  0  0  0  0
  7  9  1  0  0  0  0
  7 32  1  0  0  0  0
  7 33  1  0  0  0  0
  8 10  1  0  0  0  0
  8 34  1  0  0  0  0
  8 35  1  0  0  0  0
  9 11  1  0  0  0  0
  9 36  1  0  0  0  0
  9 37  1  0  0  0  0
 10 38  1  0  0  0  0
 10 39  1  0  0  0  0
 11 40  1  0  0  0  0
 11 41  1  0  0  0  0
 12 14  2  0  0  0  0
 12 16  1  0  0  0  0
 13 15  2  0  0  0  0
 13 17  1  0  0  0  0
 14 20  1  0  0  0  0
 14 42  1  0  0  0  0
 15 21  1  0  0  0  0
 15 43  1  0  0  0  0
 16 22  2  0  0  0  0
 16 44  1  0  0  0  0
 17 23  2  0  0  0  0
 17 45  1  0  0  0  0
 18 20  2  0  0  0  0
 18 22  1  0  0  0  0
 18 24  1  0  0  0  0
 19 21  2  0  0  0  0
 19 23  1  0  0  0  0
 19 25  1  0  0  0  0
 20 46  1  0  0  0  0
 21 47  1  0  0  0  0
 22 48  1  0  0  0  0
 23 49  1  0  0  0  0
M  END
>  <DRUGBANK_ID>
DB00738

>  <SECONDARY_ACCESSION_NUMBERS>
APRD00303; EXPT02625

>  <COMMON_NAME>
Pentamidine

>  <CAS_NUMBER>
100-33-4

>  <UNII>
673LC5J4LQ

>  <SYNONYMS>
1,5-bis(4-amidinophenoxy)pentane; 4,4'-(1,5-pentanediylbis(oxy))bis-benzenecarboximidamide; 4,4'-(pentamethylenedioxy)dibenzamidine; 4,4'-Diamidinodiphenoxypentane; p,p'-(pentamethylenedioxy)dibenzamidine; Pentamidin; Pentamidina; Pentamidine; Pentamidinum

$$$$
