
 OpenBabel10282417072D

 48 50  0  0  0  0  0  0  0  0999 V2000
    2.5047   -0.4236    0.0000 C   0  0  0  0  0  0  0  0  0  0  0  0
    2.5047   -1.2486    0.0000 C   0  0  0  0  0  0  0  0  0  0  0  0
    1.7837   -0.0074    0.0000 C   0  0  0  0  0  0  0  0  0  0  0  0
    1.7837   -1.6573    0.0000 C   0  0  0  0  0  0  0  0  0  0  0  0
    1.0702   -0.4236    0.0000 C   0  0  0  0  0  0  0  0  0  0  0  0
    1.0702   -1.2486    0.0000 C   0  0  0  0  0  0  0  0  0  0  0  0
    0.3567   -1.6573    0.0000 N   0  0  0  0  0  0  0  0  0  0  0  0
    0.3567   -2.4823    0.0000 C   0  0  0  0  0  0  0  0  0  0  0  0
   -0.3642   -1.2411    0.0000 C   0  0  0  0  0  0  0  0  0  0  0  0
   -0.3642   -2.8911    0.0000 C   0  0  0  0  0  0  0  0  0  0  0  0
   -1.0777   -1.6573    0.0000 C   0  0  0  0  0  0  0  0  0  0  0  0
   -1.0777   -2.4823    0.0000 C   0  0  0  0  0  0  0  0  0  0  0  0
   -1.7837   -2.8911    0.0000 C   0  0  0  0  0  0  0  0  0  0  0  0
   -2.5047   -2.4823    0.0000 O   0  0  0  0  0  0  0  0  0  0  0  0
   -1.7837   -3.7161    0.0000 O   0  0  0  0  0  0  0  0  0  0  0  0
    0.3567   -0.0074    0.0000 N   0  0  0  0  0  0  0  0  0  0  0  0
    0.3567    0.8175    0.0000 C   0  0  0  0  0  0  0  0  0  0  0  0
   -0.3642    1.2263    0.0000 N   0  0  0  0  0  0  0  0  0  0  0  0
    1.0702    1.2263    0.0000 O   0  0  0  0  0  0  0  0  0  0  0  0
   -0.3642    2.0513    0.0000 C   0  0  0  0  0  0  0  0  0  0  0  0
   -1.0777    2.4750    0.0000 C   0  0  0  0  0  0  0  0  0  0  0  0
    0.3567    2.4750    0.0000 O   0  0  0  0  0  0  0  0  0  0  0  0
   -1.0777    3.3000    0.0000 C   0  0  0  0  0  0  0  0  0  0  0  0
   -1.7837    3.7161    0.0000 C   0  0  0  0  0  0  0  0  0  0  0  0
   -1.7837    2.0661    0.0000 C   0  0  0  0  0  0  0  0  0  0  0  0
   -2.5047    3.3000    0.0000 C   0  0  0  0  0  0  0  0  0  0  0  0
   -2.5047    2.4750    0.0000 C   0  0  0  0  0  0  0  0  0  0  0  0
   -3.2182    2.0661    0.0000 F   0  0  0  0  0  0  0  0  0  0  0  0
   -3.2182    3.7087    0.0000 F   0  0  0  0  0  0  0  0  0  0  0  0
   -0.3642    3.7161    0.0000 Cl  0  0  0  0  0  0  0  0  0  0  0  0
    3.2182   -0.0074    0.0000 F   0  0  0  0  0  0  0  0  0  0  0  0
    3.3964   -1.7681    0.0000 H   0  0  0  0  0  0  0  0  0  0  0  0
    1.7814    1.0246    0.0000 H   0  0  0  0  0  0  0  0  0  0  0  0
    1.7814   -2.6893    0.0000 H   0  0  0  0  0  0  0  0  0  0  0  0
    1.2813   -3.0209    0.0000 H   0  0  0  0  0  0  0  0  0  0  0  0
    0.3505   -3.5523    0.0000 H   0  0  0  0  0  0  0  0  0  0  0  0
   -0.3666   -0.1711    0.0000 H   0  0  0  0  0  0  0  0  0  0  0  0
   -1.2926   -0.7092    0.0000 H   0  0  0  0  0  0  0  0  0  0  0  0
   -0.3666   -3.9611    0.0000 H   0  0  0  0  0  0  0  0  0  0  0  0
   -1.2906   -3.4266    0.0000 H   0  0  0  0  0  0  0  0  0  0  0  0
   -2.0055   -1.1244    0.0000 H   0  0  0  0  0  0  0  0  0  0  0  0
   -2.0037   -2.1933    0.0000 H   0  0  0  0  0  0  0  0  0  0  0  0
   -2.0047   -1.9479    0.0000 H   0  0  0  0  0  0  0  0  0  0  0  0
   -2.5120   -1.5453    0.0000 H   0  0  0  0  0  0  0  0  0  0  0  0
   -0.4970   -0.4977    0.0000 H   0  0  0  0  0  0  0  0  0  0  0  0
   -1.2149    0.7308    0.0000 H   0  0  0  0  0  0  0  0  0  0  0  0
   -1.7790    4.7481    0.0000 H   0  0  0  0  0  0  0  0  0  0  0  0
   -1.7790    1.0341    0.0000 H   0  0  0  0  0  0  0  0  0  0  0  0
  1  2  1  0  0  0  0
  1  3  2  0  0  0  0
  1 31  1  0  0  0  0
  2  4  2  0  0  0  0
  2 32  1  0  0  0  0
  3  5  1  0  0  0  0
  3 33  1  0  0  0  0
  4  6  1  0  0  0  0
  4 34  1  0  0  0  0
  5  6  2  0  0  0  0
  5 16  1  0  0  0  0
  6  7  1  0  0  0  0
  7  8  1  0  0  0  0
  7  9  1  0  0  0  0
  8 10  1  0  0  0  0
  8 35  1  0  0  0  0
  8 36  1  0  0  0  0
  9 11  1  0  0  0  0
  9 37  1  0  0  0  0
  9 38  1  0  0  0  0
 10 12  1  0  0  0  0
 10 39  1  0  0  0  0
 10 40  1  0  0  0  0
 11 12  1  0  0  0  0
 11 41  1  0  0  0  0
 11 42  1  0  0  0  0
 12 13  1  0  0  0  0
 12 43  1  0  0  0  0
 13 14  1  0  0  0  0
 13 15  2  0  0  0  0
 14 44  1  0  0  0  0
 16 17  1  0  0  0  0
 16 45  1  0  0  0  0
 17 18  1  0  0  0  0
 17 19  2  0  0  0  0
 18 20  1  0  0  0  0
 18 46  1  0  0  0  0
 20 21  1  0  0  0  0
 20 22  2  0  0  0  0
 21 23  1  0  0  0  0
 21 25  2  0  0  0  0
 23 24  2  0  0  0  0
 23 30  1  0  0  0  0
 24 26  1  0  0  0  0
 24 47  1  0  0  0  0
 25 27  1  0  0  0  0
 25 48  1  0  0  0  0
 26 27  2  0  0  0  0
 26 29  1  0  0  0  0
 27 28  1  0  0  0  0
M  END
>  <DRUGBANK_ID>
DB07396

>  <COMMON_NAME>
AVE-2865

>  <CAS_NUMBER>
648917-13-9

>  <UNII>
6O70DED99N

$$$$
