
 OpenBabel10282417072D

 50 53  0  0  1  0  0  0  0  0999 V2000
   -2.9440    0.6592    0.0000 C   0  0  0  0  0  0  0  0  0  0  0  0
   -2.2295    1.0716    0.0000 C   0  0  0  0  0  0  0  0  0  0  0  0
   -1.5149    0.6592    0.0000 C   0  0  0  0  0  0  0  0  0  0  0  0
   -1.5149   -0.1657    0.0000 C   0  0  0  0  0  0  0  0  0  0  0  0
   -2.2295   -0.5783    0.0000 C   0  0  0  0  0  0  0  0  0  0  0  0
   -2.9440   -0.1657    0.0000 N   0  0  0  0  0  0  0  0  0  0  0  0
   -3.6584    1.0716    0.0000 C   0  0  0  0  0  0  0  0  0  0  0  0
   -3.6584    1.8967    0.0000 O   0  0  0  0  0  0  0  0  0  0  0  0
   -4.3729    0.6592    0.0000 N   0  0  0  0  0  0  0  0  0  0  0  0
   -5.0874    1.0716    0.0000 C   0  0  0  0  0  0  0  0  0  0  0  0
   -0.8006    1.0716    0.0000 O   0  0  0  0  0  0  0  0  0  0  0  0
    2.1274    0.9141    0.0000 S   0  0  0  0  0  0  0  0  0  0  0  0
    2.6124    0.2467    0.0000 C   0  0  0  0  0  0  0  0  0  0  0  0
    2.1274   -0.4206    0.0000 N   0  0  0  0  0  0  0  0  0  0  0  0
    1.3427   -0.1657    0.0000 C   0  0  0  0  0  0  0  0  0  0  0  0
    1.3427    0.6592    0.0000 C   0  0  0  0  0  0  0  0  0  0  0  0
    0.6284   -0.5783    0.0000 C   0  0  0  0  0  0  0  0  0  0  0  0
   -0.0861   -0.1657    0.0000 C   0  0  0  0  0  0  0  0  0  0  0  0
   -0.0861    0.6592    0.0000 C   0  0  0  0  0  0  0  0  0  0  0  0
    0.6284    1.0716    0.0000 C   0  0  0  0  0  0  0  0  0  0  0  0
    3.4374    0.2467    0.0000 N   0  0  0  0  0  0  0  0  0  0  0  0
    3.8498   -0.4677    0.0000 C   0  0  1  0  0  0  0  0  0  0  0  0
    3.4374   -1.1822    0.0000 C   0  0  1  0  0  0  0  0  0  0  0  0
    3.8498   -1.8966    0.0000 C   0  0  0  0  0  0  0  0  0  0  0  0
    4.6748   -1.8966    0.0000 C   0  0  0  0  0  0  0  0  0  0  0  0
    5.0874   -1.1822    0.0000 C   0  0  0  0  0  0  0  0  0  0  0  0
    4.6748   -0.4677    0.0000 C   0  0  0  0  0  0  0  0  0  0  0  0
    2.6124   -1.1822    0.0000 O   0  0  0  0  0  0  0  0  0  0  0  0
   -2.2295    2.1036    0.0000 H   0  0  0  0  0  0  0  0  0  0  0  0
   -0.6212   -0.6817    0.0000 H   0  0  0  0  0  0  0  0  0  0  0  0
   -2.2295   -1.6103    0.0000 H   0  0  0  0  0  0  0  0  0  0  0  0
   -4.3729   -0.3253    0.0000 H   0  0  0  0  0  0  0  0  0  0  0  0
   -5.0875    2.1416    0.0000 H   0  0  0  0  0  0  0  0  0  0  0  0
   -6.0140    0.5365    0.0000 H   0  0  0  0  0  0  0  0  0  0  0  0
   -6.0141    1.6065    0.0000 H   0  0  0  0  0  0  0  0  0  0  0  0
    0.6285   -1.6103    0.0000 H   0  0  0  0  0  0  0  0  0  0  0  0
   -0.9799   -0.6817    0.0000 H   0  0  0  0  0  0  0  0  0  0  0  0
    0.6285    2.1036    0.0000 H   0  0  0  0  0  0  0  0  0  0  0  0
    3.9297    1.0993    0.0000 H   0  0  0  0  0  0  0  0  0  0  0  0
    2.7798   -0.4677    0.0000 H   0  0  0  0  0  0  0  0  0  0  0  0
    2.9023   -0.2556    0.0000 H   0  0  0  0  0  0  0  0  0  0  0  0
    3.3148   -2.8232    0.0000 H   0  0  0  0  0  0  0  0  0  0  0  0
    4.3848   -2.8233    0.0000 H   0  0  0  0  0  0  0  0  0  0  0  0
    5.2097   -2.8233    0.0000 H   0  0  0  0  0  0  0  0  0  0  0  0
    5.7448   -1.8967    0.0000 H   0  0  0  0  0  0  0  0  0  0  0  0
    6.1574   -1.1822    0.0000 H   0  0  0  0  0  0  0  0  0  0  0  0
    5.6224   -0.2555    0.0000 H   0  0  0  0  0  0  0  0  0  0  0  0
    5.2098    0.4590    0.0000 H   0  0  0  0  0  0  0  0  0  0  0  0
    4.1398    0.4589    0.0000 H   0  0  0  0  0  0  0  0  0  0  0  0
    2.1274   -0.3422    0.0000 H   0  0  0  0  0  0  0  0  0  0  0  0
  1  2  1  0  0  0  0
  1  6  2  0  0  0  0
  1  7  1  0  0  0  0
  2  3  2  0  0  0  0
  2 29  1  0  0  0  0
  3  4  1  0  0  0  0
  3 11  1  0  0  0  0
  4  5  2  0  0  0  0
  4 30  1  0  0  0  0
  5  6  1  0  0  0  0
  5 31  1  0  0  0  0
  7  8  2  0  0  0  0
  7  9  1  0  0  0  0
  9 10  1  0  0  0  0
  9 32  1  0  0  0  0
 10 33  1  0  0  0  0
 10 34  1  0  0  0  0
 10 35  1  0  0  0  0
 11 19  1  0  0  0  0
 12 13  1  0  0  0  0
 12 16  1  0  0  0  0
 13 14  2  0  0  0  0
 13 21  1  0  0  0  0
 14 15  1  0  0  0  0
 15 16  1  0  0  0  0
 17 18  1  0  0  0  0
 17 15  2  0  0  0  0
 17 36  1  0  0  0  0
 18 19  2  0  0  0  0
 18 37  1  0  0  0  0
 19 20  1  0  0  0  0
 20 16  2  0  0  0  0
 20 38  1  0  0  0  0
 21 39  1  0  0  0  0
 22 23  1  0  0  0  0
 22 27  1  0  0  0  0
 22 21  1  0  0  0  0
 22 40  1  1  0  0  0
 23 24  1  0  0  0  0
 23 28  1  0  0  0  0
 23 41  1  6  0  0  0
 24 25  1  0  0  0  0
 24 42  1  0  0  0  0
 24 43  1  0  0  0  0
 25 26  1  0  0  0  0
 25 44  1  0  0  0  0
 25 45  1  0  0  0  0
 26 27  1  0  0  0  0
 26 46  1  0  0  0  0
 26 47  1  0  0  0  0
 27 48  1  0  0  0  0
 27 49  1  0  0  0  0
 28 50  1  0  0  0  0
M  END
>  <DRUGBANK_ID>
DB16838

>  <COMMON_NAME>
BLZ-945

>  <CAS_NUMBER>
953769-46-5

>  <UNII>
7W3V82OQ0P

>  <SYNONYMS>
Sotuletinib

$$$$
