147
 OpenBabel10282417072D

 21 21  0  0  0  0  0  0  0  0999 V2000
    2.0930    0.2063    0.0000 O   0  0  0  0  0  0  0  0  0  0  0  0
    5.6655   -0.2063    0.0000 O   0  0  0  0  0  0  0  0  0  0  0  0
    2.8075    1.4438    0.0000 O   0  0  0  0  0  0  0  0  0  0  0  0
    3.5220   -1.4438    0.0000 N   0  0  0  0  0  0  0  0  0  0  0  0
    4.2365   -0.2063    0.0000 C   0  0  0  0  0  0  0  0  0  0  0  0
    3.5220    0.2063    0.0000 C   0  0  0  0  0  0  0  0  0  0  0  0
    2.8075   -0.2063    0.0000 C   0  0  0  0  0  0  0  0  0  0  0  0
    2.8075   -1.0313    0.0000 C   0  0  0  0  0  0  0  0  0  0  0  0
    4.9509    0.2063    0.0000 C   0  0  0  0  0  0  0  0  0  0  0  0
    4.2365   -1.0313    0.0000 C   0  0  0  0  0  0  0  0  0  0  0  0
    2.0930   -1.4438    0.0000 C   0  0  0  0  0  0  0  0  0  0  0  0
    3.5220    1.0313    0.0000 C   0  0  0  0  0  0  0  0  0  0  0  0
    2.0931    1.1433    0.0000 H   0  0  0  0  0  0  0  0  0  0  0  0
    5.6655   -1.1763    0.0000 H   0  0  0  0  0  0  0  0  0  0  0  0
    4.9508    1.2763    0.0000 H   0  0  0  0  0  0  0  0  0  0  0  0
    4.0242    0.7412    0.0000 H   0  0  0  0  0  0  0  0  0  0  0  0
    5.1302   -1.5473    0.0000 H   0  0  0  0  0  0  0  0  0  0  0  0
    1.1664   -0.9088    0.0000 H   0  0  0  0  0  0  0  0  0  0  0  0
    2.0930   -2.5138    0.0000 H   0  0  0  0  0  0  0  0  0  0  0  0
    1.1663   -1.9788    0.0000 H   0  0  0  0  0  0  0  0  0  0  0  0
    4.4157    1.5473    0.0000 H   0  0  0  0  0  0  0  0  0  0  0  0
  1  7  1  0  0  0  0
  1 13  1  0  0  0  0
  2  9  1  0  0  0  0
  2 14  1  0  0  0  0
  3 12  2  0  0  0  0
  4  8  2  0  0  0  0
  4 10  1  0  0  0  0
  5  6  1  0  0  0  0
  5  9  1  0  0  0  0
  5 10  2  0  0  0  0
  6  7  2  0  0  0  0
  6 12  1  0  0  0  0
  7  8  1  0  0  0  0
  8 11  1  0  0  0  0
  9 15  1  0  0  0  0
  9 16  1  0  0  0  0
 10 17  1  0  0  0  0
 11 18  1  0  0  0  0
 11 19  1  0  0  0  0
 11 20  1  0  0  0  0
 12 21  1  0  0  0  0
M  END
>  <DRUGBANK_ID>
DB00147

>  <SECONDARY_ACCESSION_NUMBERS>
NUTR00049

>  <COMMON_NAME>
Pyridoxal

>  <CAS_NUMBER>
66-72-8

>  <UNII>
3THM379K8A

>  <SYNONYMS>
2-methyl-3-hydroxy-4-formyl-5-hydroxymethylpyridine; 3-hydroxy-5-(hydroxymethyl)-2-methyl-4-pyridinecarboxaldehyde; 3-hydroxy-5-(hydroxymethyl)-2-methylisonicotinaldehyde; 3-hydroxy-5-(hydroxymethyl)-2-methylpyridine-4-carboxaldehyde; Piridoxal; Pyridoxaldehyde

$$$$
