
 OpenBabel10282417072D

 66 70  0  0  1  0  0  0  0  0999 V2000
   -0.5344    1.8738    0.0000 C   0  0  0  0  0  0  0  0  0  0  0  0
   -0.4482    1.0534    0.0000 C   0  0  0  0  0  0  0  0  0  0  0  0
    7.1363   -4.6474    0.0000 C   0  0  0  0  0  0  0  0  0  0  0  0
    4.2678   -1.4617    0.0000 C   0  0  0  0  0  0  0  0  0  0  0  0
    0.7713    0.1674    0.0000 C   0  0  0  0  0  0  0  0  0  0  0  0
    2.9020    1.8738    0.0000 C   0  0  0  0  0  0  0  0  0  0  0  0
    7.9209   -4.9024    0.0000 C   0  0  2  0  0  0  0  0  0  0  0  0
    4.0963   -0.6547    0.0000 C   0  0  2  0  0  0  0  0  0  0  0  0
    1.5963    1.5963    0.0000 C   0  0  0  0  0  0  0  0  0  0  0  0
    8.1758   -5.6870    0.0000 C   0  0  2  0  0  0  0  0  0  0  0  0
    4.6483   -0.0416    0.0000 C   0  0  2  0  0  0  0  0  0  0  0  0
    9.0008   -5.6870    0.0000 C   0  0  2  0  0  0  0  0  0  0  0  0
    4.2358    0.6728    0.0000 C   0  0  2  0  0  0  0  0  0  0  0  0
    0.7713    1.5963    0.0000 C   0  0  0  0  0  0  0  0  0  0  0  0
    2.0088    0.8818    0.0000 C   0  0  0  0  0  0  0  0  0  0  0  0
    3.4289    0.5013    0.0000 C   0  0  2  0  0  0  0  0  0  0  0  0
    9.2558   -4.9024    0.0000 C   0  0  2  0  0  0  0  0  0  0  0  0
    0.2193    2.2094    0.0000 N   0  0  0  0  0  0  0  0  0  0  0  0
    2.1483    2.2094    0.0000 N   0  0  0  0  0  0  0  0  0  0  0  0
    1.5963    0.1674    0.0000 N   0  0  0  0  0  0  0  0  0  0  0  0
    0.3588    0.8818    0.0000 N   0  0  0  0  0  0  0  0  0  0  0  0
    2.8158    1.0534    0.0000 N   0  0  0  0  0  0  0  0  0  0  0  0
    7.6909   -6.3544    0.0000 O   0  0  0  0  0  0  0  0  0  0  0  0
    5.4688   -0.1279    0.0000 O   0  0  0  0  0  0  0  0  0  0  0  0
    9.4858   -6.3544    0.0000 O   0  0  0  0  0  0  0  0  0  0  0  0
   10.0404   -4.6474    0.0000 O   0  0  0  0  0  0  0  0  0  0  0  0
    5.4781    0.6923    0.0000 O   0  0  0  0  0  0  0  0  0  0  0  0
    5.3056    2.3332    0.0000 O   0  0  0  0  0  0  0  0  0  0  0  0
    6.2124    1.5990    0.0000 O   0  0  0  0  0  0  0  0  0  0  0  0
    5.9252   -4.3701    0.0000 O   0  0  0  0  0  0  0  0  0  0  0  0
    6.4351   -2.8009    0.0000 O   0  0  0  0  0  0  0  0  0  0  0  0
    4.4170   -2.6951    0.0000 O   0  0  0  0  0  0  0  0  0  0  0  0
    6.0310   -2.3521    0.0000 O   0  0  0  0  0  0  0  0  0  0  0  0
    6.9648   -3.8404    0.0000 O   0  0  0  0  0  0  0  0  0  0  0  0
    5.0525   -1.7166    0.0000 O   0  0  0  0  0  0  0  0  0  0  0  0
    3.3426   -0.3192    0.0000 O   0  0  0  0  0  0  0  0  0  0  0  0
    8.5883   -4.4174    0.0000 O   0  0  0  0  0  0  0  0  0  0  0  0
    4.5714    1.4265    0.0000 O   0  0  0  0  0  0  0  0  0  0  0  0
    5.3955   -3.3306    0.0000 O   0  0  0  0  0  0  0  0  0  0  0  0
    5.3919    1.5128    0.0000 P   0  0  0  0  0  0  0  0  0  0  0  0
    6.1801   -3.5855    0.0000 P   0  0  3  0  0  0  0  0  0  0  0  0
    5.2240   -2.5236    0.0000 P   0  0  3  0  0  0  0  0  0  0  0  0
    7.5722   -5.6501    0.0000 H   0  0  0  0  0  0  0  0  0  0  0  0
    4.9182   -0.5828    0.0000 H   0  0  0  0  0  0  0  0  0  0  0  0
    7.3660   -5.8444    0.0000 H   0  0  0  0  0  0  0  0  0  0  0  0
    5.1896   -0.6643    0.0000 H   0  0  0  0  0  0  0  0  0  0  0  0
    8.6263   -6.4221    0.0000 H   0  0  0  0  0  0  0  0  0  0  0  0
    5.0597    0.7160    0.0000 H   0  0  0  0  0  0  0  0  0  0  0  0
    3.6424    1.2982    0.0000 H   0  0  0  0  0  0  0  0  0  0  0  0
    9.8391   -5.4857    0.0000 H   0  0  0  0  0  0  0  0  0  0  0  0
   -1.4281    2.3898    0.0000 H   0  0  0  0  0  0  0  0  0  0  0  0
   -1.2152    0.3629    0.0000 H   0  0  0  0  0  0  0  0  0  0  0  0
    6.3411   -5.3633    0.0000 H   0  0  0  0  0  0  0  0  0  0  0  0
    6.1187   -4.3167    0.0000 H   0  0  0  0  0  0  0  0  0  0  0  0
    3.4726   -2.1777    0.0000 H   0  0  0  0  0  0  0  0  0  0  0  0
    4.4903   -2.5083    0.0000 H   0  0  0  0  0  0  0  0  0  0  0  0
    0.2553   -0.7263    0.0000 H   0  0  0  0  0  0  0  0  0  0  0  0
    3.7957    2.3898    0.0000 H   0  0  0  0  0  0  0  0  0  0  0  0
    6.7262   -6.2530    0.0000 H   0  0  0  0  0  0  0  0  0  0  0  0
    5.8633   -1.0141    0.0000 H   0  0  0  0  0  0  0  0  0  0  0  0
    9.0914   -7.2406    0.0000 H   0  0  0  0  0  0  0  0  0  0  0  0
   10.7613   -5.2964    0.0000 H   0  0  0  0  0  0  0  0  0  0  0  0
    4.6933    0.1222    0.0000 H   0  0  0  0  0  0  0  0  0  0  0  0
    6.0903    2.9034    0.0000 H   0  0  0  0  0  0  0  0  0  0  0  0
    4.9764   -4.5718    0.0000 H   0  0  0  0  0  0  0  0  0  0  0  0
    3.7680   -1.9742    0.0000 H   0  0  0  0  0  0  0  0  0  0  0  0
  1 51  1  0  0  0  0
  2  1  2  0  0  0  0
  2 52  1  0  0  0  0
  3 53  1  0  0  0  0
  3 54  1  0  0  0  0
  4 55  1  0  0  0  0
  4 56  1  0  0  0  0
  5 57  1  0  0  0  0
  6 58  1  0  0  0  0
  7  3  1  0  0  0  0
  7 43  1  6  0  0  0
  8  4  1  0  0  0  0
  8 44  1  6  0  0  0
 10  7  1  0  0  0  0
 10 23  1  0  0  0  0
 10 45  1  1  0  0  0
 11  8  1  0  0  0  0
 11 24  1  0  0  0  0
 11 46  1  1  0  0  0
 12 10  1  0  0  0  0
 12 25  1  0  0  0  0
 12 47  1  1  0  0  0
 13 11  1  0  0  0  0
 13 38  1  0  0  0  0
 13 48  1  1  0  0  0
 14  9  1  0  0  0  0
 15  9  2  0  0  0  0
 16 13  1  0  0  0  0
 16 22  1  0  0  0  0
 16 49  1  6  0  0  0
 17 12  1  0  0  0  0
 17 26  1  0  0  0  0
 17 50  1  6  0  0  0
 18  1  1  0  0  0  0
 18 14  2  0  0  0  0
 19  6  2  0  0  0  0
 19  9  1  0  0  0  0
 20  5  2  0  0  0  0
 20 15  1  0  0  0  0
 21  2  1  0  0  0  0
 21  5  1  0  0  0  0
 21 14  1  0  0  0  0
 22  6  1  0  0  0  0
 22 15  1  0  0  0  0
 23 59  1  0  0  0  0
 24 60  1  0  0  0  0
 25 61  1  0  0  0  0
 26 62  1  0  0  0  0
 27 63  1  0  0  0  0
 28 64  1  0  0  0  0
 30 65  1  0  0  0  0
 32 66  1  0  0  0  0
 34  3  1  0  0  0  0
 35  4  1  0  0  0  0
 36  8  1  0  0  0  0
 36 16  1  0  0  0  0
 37  7  1  0  0  0  0
 37 17  1  0  0  0  0
 40 27  1  0  0  0  0
 40 28  1  0  0  0  0
 40 29  2  0  0  0  0
 40 38  1  0  0  0  0
 41 30  1  0  0  0  0
 41 31  2  0  0  0  0
 41 34  1  0  0  0  0
 41 39  1  0  0  0  0
 42 32  1  0  0  0  0
 42 33  2  0  0  0  0
 42 35  1  0  0  0  0
 42 39  1  0  0  0  0
M  END
>  <DRUGBANK_ID>
DB03732

>  <SECONDARY_ACCESSION_NUMBERS>
EXPT01346

>  <COMMON_NAME>
Etheno-Nadp

$$$$
