I59
 OpenBabel10282417072D

 27 28  0  0  0  0  0  0  0  0999 V2000
   -1.5223   -1.0386    0.0000 C   0  0  0  0  0  0  0  0  0  0  0  0
   -0.8079   -1.4511    0.0000 C   0  0  0  0  0  0  0  0  0  0  0  0
   -0.0934   -1.0386    0.0000 C   0  0  0  0  0  0  0  0  0  0  0  0
   -0.0934   -0.2136    0.0000 C   0  0  0  0  0  0  0  0  0  0  0  0
   -0.8079    0.1989    0.0000 C   0  0  0  0  0  0  0  0  0  0  0  0
   -1.5223   -0.2136    0.0000 C   0  0  0  0  0  0  0  0  0  0  0  0
    0.6211   -1.4511    0.0000 C   0  0  0  0  0  0  0  0  0  0  0  0
    1.3355   -1.0386    0.0000 C   0  0  0  0  0  0  0  0  0  0  0  0
    1.3355   -0.2136    0.0000 C   0  0  0  0  0  0  0  0  0  0  0  0
    0.6211    0.1989    0.0000 C   0  0  0  0  0  0  0  0  0  0  0  0
    0.6211    1.0239    0.0000 C   0  0  1  0  0  0  0  0  0  0  0  0
    1.3355    1.4364    0.0000 O   0  0  0  0  0  0  0  0  0  0  0  0
   -0.0934    1.4364    0.0000 P   0  0  0  0  0  0  0  0  0  0  0  0
   -0.8079    1.8489    0.0000 O   0  0  0  0  0  0  0  0  0  0  0  0
    0.3191    2.1509    0.0000 O   0  0  0  0  0  0  0  0  0  0  0  0
   -0.5059    0.7220    0.0000 O   0  0  0  0  0  0  0  0  0  0  0  0
    1.1268    0.7320    0.0000 H   0  0  0  0  0  0  0  0  0  0  0  0
   -2.4160   -1.5546    0.0000 H   0  0  0  0  0  0  0  0  0  0  0  0
   -0.8079   -2.4831    0.0000 H   0  0  0  0  0  0  0  0  0  0  0  0
   -0.8079    1.2309    0.0000 H   0  0  0  0  0  0  0  0  0  0  0  0
   -2.4160    0.3024    0.0000 H   0  0  0  0  0  0  0  0  0  0  0  0
    0.6211   -2.4831    0.0000 H   0  0  0  0  0  0  0  0  0  0  0  0
    2.2292   -1.5546    0.0000 H   0  0  0  0  0  0  0  0  0  0  0  0
    2.2292    0.3024    0.0000 H   0  0  0  0  0  0  0  0  0  0  0  0
    2.1756    0.9514    0.0000 H   0  0  0  0  0  0  0  0  0  0  0  0
    1.2891    2.1509    0.0000 H   0  0  0  0  0  0  0  0  0  0  0  0
   -1.4759    0.7220    0.0000 H   0  0  0  0  0  0  0  0  0  0  0  0
  1  2  1  0  0  0  0
  1  6  2  0  0  0  0
  1 18  1  0  0  0  0
  2  3  2  0  0  0  0
  2 19  1  0  0  0  0
  3  4  1  0  0  0  0
  3  7  1  0  0  0  0
  4  5  2  0  0  0  0
  4 10  1  0  0  0  0
  5  6  1  0  0  0  0
  5 20  1  0  0  0  0
  6 21  1  0  0  0  0
  7  8  2  0  0  0  0
  7 22  1  0  0  0  0
  8  9  1  0  0  0  0
  8 23  1  0  0  0  0
  9 10  2  0  0  0  0
  9 24  1  0  0  0  0
 10 11  1  0  0  0  0
 11 12  1  0  0  0  0
 11 13  1  0  0  0  0
 11 17  1  1  0  0  0
 12 25  1  0  0  0  0
 13 14  2  0  0  0  0
 13 15  1  0  0  0  0
 13 16  1  0  0  0  0
 15 26  1  0  0  0  0
 16 27  1  0  0  0  0
M  END
>  <DRUGBANK_ID>
DB03217

>  <SECONDARY_ACCESSION_NUMBERS>
EXPT01817

>  <COMMON_NAME>
DPI59

$$$$
