
 OpenBabel10282417072D

  1  0  0  0  0  0  0  0  0  0999 V2000
    0.0000    0.0000    0.0000 Al  0  1  0  0  0  0  0  0  0  0  0  0
M  CHG  1   1   3
M  END
>  <DRUGBANK_ID>
DB14519

>  <COMMON_NAME>
Aluminum cation

>  <CAS_NUMBER>
22537-23-1

>  <UNII>
3XHB1D032B

>  <SYNONYMS>
Aluminium, ion (Al3+); Aluminum(3+); Aluminum(III); Aluminum(III) ion; Alumunum ion

$$$$
