
 OpenBabel10282417072D

 37 38  0  0  0  0  0  0  0  0999 V2000
    0.0000    0.4125    0.0000 O   0  0  0  0  0  0  0  0  0  0  0  0
    0.7144    0.8250    0.0000 C   0  0  0  0  0  0  0  0  0  0  0  0
   -0.7144    0.8250    0.0000 C   0  0  0  0  0  0  0  0  0  0  0  0
    2.1434    0.8250    0.0000 C   0  0  0  0  0  0  0  0  0  0  0  0
    2.8579    0.4125    0.0000 C   0  0  0  0  0  0  0  0  0  0  0  0
    2.8579   -0.4125    0.0000 C   0  0  0  0  0  0  0  0  0  0  0  0
    2.1434   -0.8250    0.0000 C   0  0  0  0  0  0  0  0  0  0  0  0
    1.4289   -0.4125    0.0000 C   0  0  0  0  0  0  0  0  0  0  0  0
    1.4289    0.4125    0.0000 N   0  3  0  0  0  0  0  0  0  0  0  0
    3.5724   -0.8250    0.0000 C   0  0  0  0  0  0  0  0  0  0  0  0
    4.2869   -0.4125    0.0000 N   0  0  0  0  0  0  0  0  0  0  0  0
    5.0013   -0.8250    0.0000 O   0  0  0  0  0  0  0  0  0  0  0  0
   -1.4289   -0.4125    0.0000 C   0  0  0  0  0  0  0  0  0  0  0  0
   -2.1434   -0.8250    0.0000 C   0  0  0  0  0  0  0  0  0  0  0  0
   -2.8579   -0.4125    0.0000 C   0  0  0  0  0  0  0  0  0  0  0  0
   -2.8579    0.4125    0.0000 C   0  0  0  0  0  0  0  0  0  0  0  0
   -2.1434    0.8250    0.0000 C   0  0  0  0  0  0  0  0  0  0  0  0
   -1.4289    0.4125    0.0000 N   0  3  0  0  0  0  0  0  0  0  0  0
   -3.5724   -0.8250    0.0000 C   0  0  0  0  0  0  0  0  0  0  0  0
   -4.2869   -0.4125    0.0000 N   0  0  0  0  0  0  0  0  0  0  0  0
   -5.0013   -0.8250    0.0000 O   0  0  0  0  0  0  0  0  0  0  0  0
    0.7144    1.8950    0.0000 H   0  0  0  0  0  0  0  0  0  0  0  0
    1.6410    1.3600    0.0000 H   0  0  0  0  0  0  0  0  0  0  0  0
   -0.7144    1.8950    0.0000 H   0  0  0  0  0  0  0  0  0  0  0  0
   -1.6410    1.3600    0.0000 H   0  0  0  0  0  0  0  0  0  0  0  0
    2.1434    1.8570    0.0000 H   0  0  0  0  0  0  0  0  0  0  0  0
    3.7516    0.9285    0.0000 H   0  0  0  0  0  0  0  0  0  0  0  0
    2.1434   -1.8570    0.0000 H   0  0  0  0  0  0  0  0  0  0  0  0
    0.5352   -0.9285    0.0000 H   0  0  0  0  0  0  0  0  0  0  0  0
    3.5724   -1.8570    0.0000 H   0  0  0  0  0  0  0  0  0  0  0  0
    5.0013   -1.7620    0.0000 H   0  0  0  0  0  0  0  0  0  0  0  0
   -0.5352   -0.9285    0.0000 H   0  0  0  0  0  0  0  0  0  0  0  0
   -2.1434   -1.8570    0.0000 H   0  0  0  0  0  0  0  0  0  0  0  0
   -3.7516    0.9285    0.0000 H   0  0  0  0  0  0  0  0  0  0  0  0
   -2.1434    1.8570    0.0000 H   0  0  0  0  0  0  0  0  0  0  0  0
   -3.5724   -1.8570    0.0000 H   0  0  0  0  0  0  0  0  0  0  0  0
   -5.8128   -0.3565    0.0000 H   0  0  0  0  0  0  0  0  0  0  0  0
  1  2  1  0  0  0  0
  1  3  1  0  0  0  0
  2  9  1  0  0  0  0
  2 22  1  0  0  0  0
  2 23  1  0  0  0  0
  3 18  1  0  0  0  0
  3 24  1  0  0  0  0
  3 25  1  0  0  0  0
  4  5  2  0  0  0  0
  4  9  1  0  0  0  0
  4 26  1  0  0  0  0
  5  6  1  0  0  0  0
  5 27  1  0  0  0  0
  6  7  2  0  0  0  0
  6 10  1  0  0  0  0
  7  8  1  0  0  0  0
  7 28  1  0  0  0  0
  8  9  2  0  0  0  0
  8 29  1  0  0  0  0
 10 11  2  0  0  0  0
 10 30  1  0  0  0  0
 11 12  1  0  0  0  0
 12 31  1  0  0  0  0
 13 14  2  0  0  0  0
 13 18  1  0  0  0  0
 13 32  1  0  0  0  0
 14 15  1  0  0  0  0
 14 33  1  0  0  0  0
 15 16  2  0  0  0  0
 15 19  1  0  0  0  0
 16 17  1  0  0  0  0
 16 34  1  0  0  0  0
 17 18  2  0  0  0  0
 17 35  1  0  0  0  0
 19 20  2  0  0  0  0
 19 36  1  0  0  0  0
 20 21  1  0  0  0  0
 21 37  1  0  0  0  0
M  CHG  2   9   1  18   1
M  END
>  <DRUGBANK_ID>
DB13750

>  <COMMON_NAME>
Obidoxime

>  <CAS_NUMBER>
7683-36-5

>  <UNII>
N6KNE1QA9O

$$$$
