805
 OpenBabel10282417072D

 44 46  0  0  0  0  0  0  0  0999 V2000
    2.3645   -3.3001    0.0000 O   0  0  0  0  0  0  0  0  0  0  0  0
    2.3645   -1.6500    0.0000 N   0  0  0  0  0  0  0  0  0  0  0  0
    3.0791    0.4125    0.0000 N   0  0  0  0  0  0  0  0  0  0  0  0
    4.5080    0.4125    0.0000 N   0  0  0  0  0  0  0  0  0  0  0  0
    5.2224    0.8250    0.0000 N   0  0  0  0  0  0  0  0  0  0  0  0
    1.6500   -2.0625    0.0000 C   0  0  0  0  0  0  0  0  0  0  0  0
    3.0791   -2.0625    0.0000 C   0  0  0  0  0  0  0  0  0  0  0  0
    2.3645   -0.8250    0.0000 C   0  0  0  0  0  0  0  0  0  0  0  0
    1.6500   -2.8876    0.0000 C   0  0  0  0  0  0  0  0  0  0  0  0
    3.0791   -2.8876    0.0000 C   0  0  0  0  0  0  0  0  0  0  0  0
    3.0791   -0.4125    0.0000 C   0  0  0  0  0  0  0  0  0  0  0  0
    3.7935    0.8250    0.0000 C   0  0  0  0  0  0  0  0  0  0  0  0
    3.7935    1.6500    0.0000 C   0  0  0  0  0  0  0  0  0  0  0  0
    4.5080    2.0625    0.0000 C   0  0  0  0  0  0  0  0  0  0  0  0
    5.2224    1.6500    0.0000 C   0  0  0  0  0  0  0  0  0  0  0  0
    3.0791    2.0625    0.0000 C   0  0  0  0  0  0  0  0  0  0  0  0
    5.9370    2.0625    0.0000 C   0  0  0  0  0  0  0  0  0  0  0  0
    5.9370    2.8876    0.0000 C   0  0  0  0  0  0  0  0  0  0  0  0
    6.6515    1.6500    0.0000 C   0  0  0  0  0  0  0  0  0  0  0  0
    6.6515    3.3001    0.0000 C   0  0  0  0  0  0  0  0  0  0  0  0
    7.3659    2.0625    0.0000 C   0  0  0  0  0  0  0  0  0  0  0  0
    7.3659    2.8876    0.0000 C   0  0  0  0  0  0  0  0  0  0  0  0
    2.2265    0.9047    0.0000 H   0  0  0  0  0  0  0  0  0  0  0  0
    0.7234   -1.5275    0.0000 H   0  0  0  0  0  0  0  0  0  0  0  0
    0.7234   -2.5975    0.0000 H   0  0  0  0  0  0  0  0  0  0  0  0
    4.0057   -1.5275    0.0000 H   0  0  0  0  0  0  0  0  0  0  0  0
    4.0058   -2.5975    0.0000 H   0  0  0  0  0  0  0  0  0  0  0  0
    1.4379   -0.2900    0.0000 H   0  0  0  0  0  0  0  0  0  0  0  0
    2.3646    0.2450    0.0000 H   0  0  0  0  0  0  0  0  0  0  0  0
    0.7234   -3.4226    0.0000 H   0  0  0  0  0  0  0  0  0  0  0  0
    0.7234   -2.3526    0.0000 H   0  0  0  0  0  0  0  0  0  0  0  0
    4.0057   -3.4226    0.0000 H   0  0  0  0  0  0  0  0  0  0  0  0
    4.0058   -2.3526    0.0000 H   0  0  0  0  0  0  0  0  0  0  0  0
    4.0057   -0.9475    0.0000 H   0  0  0  0  0  0  0  0  0  0  0  0
    3.0790   -1.4825    0.0000 H   0  0  0  0  0  0  0  0  0  0  0  0
    4.5080    3.0945    0.0000 H   0  0  0  0  0  0  0  0  0  0  0  0
    3.0791    3.1325    0.0000 H   0  0  0  0  0  0  0  0  0  0  0  0
    2.1524    1.5275    0.0000 H   0  0  0  0  0  0  0  0  0  0  0  0
    2.1525    2.5975    0.0000 H   0  0  0  0  0  0  0  0  0  0  0  0
    5.0433    3.4036    0.0000 H   0  0  0  0  0  0  0  0  0  0  0  0
    6.6515    0.6180    0.0000 H   0  0  0  0  0  0  0  0  0  0  0  0
    6.6515    4.3321    0.0000 H   0  0  0  0  0  0  0  0  0  0  0  0
    8.2596    1.5465    0.0000 H   0  0  0  0  0  0  0  0  0  0  0  0
    8.2596    3.4036    0.0000 H   0  0  0  0  0  0  0  0  0  0  0  0
  1  9  1  0  0  0  0
  1 10  1  0  0  0  0
  2  6  1  0  0  0  0
  2  7  1  0  0  0  0
  2  8  1  0  0  0  0
  3 11  1  0  0  0  0
  3 12  1  0  0  0  0
  3 23  1  0  0  0  0
  4  5  1  0  0  0  0
  4 12  2  0  0  0  0
  5 15  2  0  0  0  0
  6  9  1  0  0  0  0
  6 24  1  0  0  0  0
  6 25  1  0  0  0  0
  7 10  1  0  0  0  0
  7 26  1  0  0  0  0
  7 27  1  0  0  0  0
  8 11  1  0  0  0  0
  8 28  1  0  0  0  0
  8 29  1  0  0  0  0
  9 30  1  0  0  0  0
  9 31  1  0  0  0  0
 10 32  1  0  0  0  0
 10 33  1  0  0  0  0
 11 34  1  0  0  0  0
 11 35  1  0  0  0  0
 12 13  1  0  0  0  0
 13 14  2  0  0  0  0
 13 16  1  0  0  0  0
 14 15  1  0  0  0  0
 14 36  1  0  0  0  0
 15 17  1  0  0  0  0
 16 37  1  0  0  0  0
 16 38  1  0  0  0  0
 16 39  1  0  0  0  0
 17 18  2  0  0  0  0
 17 19  1  0  0  0  0
 18 20  1  0  0  0  0
 18 40  1  0  0  0  0
 19 21  2  0  0  0  0
 19 41  1  0  0  0  0
 20 22  2  0  0  0  0
 20 42  1  0  0  0  0
 21 22  1  0  0  0  0
 21 43  1  0  0  0  0
 22 44  1  0  0  0  0
M  END
>  <DRUGBANK_ID>
DB00805

>  <SECONDARY_ACCESSION_NUMBERS>
APRD00735

>  <COMMON_NAME>
Minaprine

>  <CAS_NUMBER>
25905-77-5

>  <UNII>
00U7GX0NLM

>  <SYNONYMS>
4-(2-((4-Methyl-6-phenyl-3-pyridazinyl)amino)ethyl)morpholine; 4-Methyl-3-(2-morpholinoethylamino)-6-phenylpyridazin; Minaprina; Minaprine; Minaprinum; N-(4-Methyl-6-phenyl-3-pyridazinyl)-4-morpholineethanamine

$$$$
