
 OpenBabel10282417072D

 16 17  0  0  0  0  0  0  0  0999 V2000
    0.6411   -0.2854    0.0000 C   0  0  0  0  0  0  0  0  0  0  0  0
    0.6411   -1.1104    0.0000 C   0  0  0  0  0  0  0  0  0  0  0  0
    1.3556    0.1271    0.0000 C   0  0  0  0  0  0  0  0  0  0  0  0
   -0.6284   -0.6979    0.0000 C   0  0  0  0  0  0  0  0  0  0  0  0
    2.0701   -1.1104    0.0000 C   0  0  0  0  0  0  0  0  0  0  0  0
   -0.1435   -0.0305    0.0000 N   0  0  0  0  0  0  0  0  0  0  0  0
   -0.1435   -1.3653    0.0000 N   0  0  0  0  0  0  0  0  0  0  0  0
    1.3556   -1.5229    0.0000 N   0  0  0  0  0  0  0  0  0  0  0  0
    2.0701   -0.2854    0.0000 N   0  0  0  0  0  0  0  0  0  0  0  0
    1.3556    0.9521    0.0000 O   0  0  0  0  0  0  0  0  0  0  0  0
   -1.4534   -0.6979    0.0000 O   0  0  0  0  0  0  0  0  0  0  0  0
    2.7845   -1.5229    0.0000 O   0  0  0  0  0  0  0  0  0  0  0  0
   -0.4477    0.9058    0.0000 H   0  0  0  0  0  0  0  0  0  0  0  0
   -0.4477   -2.3016    0.0000 H   0  0  0  0  0  0  0  0  0  0  0  0
    1.3556   -2.5074    0.0000 H   0  0  0  0  0  0  0  0  0  0  0  0
    2.9227    0.2069    0.0000 H   0  0  0  0  0  0  0  0  0  0  0  0
  2  1  2  0  0  0  0
  3  1  1  0  0  0  0
  6  1  1  0  0  0  0
  6  4  1  0  0  0  0
  6 13  1  0  0  0  0
  7  2  1  0  0  0  0
  7  4  1  0  0  0  0
  7 14  1  0  0  0  0
  8  2  1  0  0  0  0
  8  5  1  0  0  0  0
  8 15  1  0  0  0  0
  9  3  1  0  0  0  0
  9  5  1  0  0  0  0
  9 16  1  0  0  0  0
 10  3  2  0  0  0  0
 11  4  2  0  0  0  0
 12  5  2  0  0  0  0
M  END
>  <DRUGBANK_ID>
DB08844

>  <SECONDARY_ACCESSION_NUMBERS>
DB01696; EXPT03202

>  <COMMON_NAME>
Uric acid

>  <CAS_NUMBER>
69-93-2

>  <UNII>
268B43MJ25

>  <SYNONYMS>
2,6,8-trihydroxypurine; 2,6,8-trioxopurine; 2,6,8-trioxypurine; 7,9-dihydro-1H-purine-2,6,8(3H)-trione; Lithic acid; Purine-2,6,8(1H,3H,9H)-trione; Urate; Uricum acidum

$$$$
