
 OpenBabel10282417072D

 96101  0  0  0  0  0  0  0  0999 V2000
    2.0726   -0.2081    0.0000 C   0  0  0  0  0  0  0  0  0  0  0  0
    1.9422   -1.0206    0.0000 C   0  0  0  0  0  0  0  0  0  0  0  0
    2.5797   -1.5377    0.0000 C   0  0  0  0  0  0  0  0  0  0  0  0
    3.3479   -1.2437    0.0000 C   0  0  0  0  0  0  0  0  0  0  0  0
    3.4750   -0.4275    0.0000 C   0  0  0  0  0  0  0  0  0  0  0  0
    2.8361    0.0860    0.0000 C   0  0  0  0  0  0  0  0  0  0  0  0
    3.6190    2.3876    0.0000 C   0  0  1  0  0  0  0  0  0  0  0  0
    3.6190    1.5618    0.0000 C   0  0  3  0  0  0  0  0  0  0  0  0
    4.3277    2.8047    0.0000 C   0  0  0  0  0  0  0  0  0  0  0  0
   -2.1830   -0.9200    0.0000 N   0  0  0  0  0  0  0  0  0  0  0  0
   -1.4697   -1.3330    0.0000 C   0  0  0  0  0  0  0  0  0  0  0  0
   -0.7594   -0.9239    0.0000 C   0  0  2  0  0  0  0  0  0  0  0  0
   -0.7561   -0.1004    0.0000 N   0  0  0  0  0  0  0  0  0  0  0  0
   -1.4694    0.3124    0.0000 C   0  0  0  0  0  0  0  0  0  0  0  0
   -2.1860   -0.0981    0.0000 C   0  0  0  0  0  0  0  0  0  0  0  0
   -3.6060   -0.9262    0.0000 C   0  0  0  0  0  0  0  0  0  0  0  0
   -3.6035   -0.1004    0.0000 C   0  0  0  0  0  0  0  0  0  0  0  0
   -5.0292   -0.0962    0.0000 C   0  0  0  0  0  0  0  0  0  0  0  0
   -5.0315   -0.9220    0.0000 C   0  0  0  0  0  0  0  0  0  0  0  0
   -4.3159   -1.3413    0.0000 O   0  0  0  0  0  0  0  0  0  0  0  0
   -6.4685   -0.9081    0.0000 C   0  0  0  0  0  0  0  0  0  0  0  0
   -5.7559   -1.3305    0.0000 C   0  0  0  0  0  0  0  0  0  0  0  0
   -5.7448    0.3237    0.0000 C   0  0  0  0  0  0  0  0  0  0  0  0
   -6.4618   -0.0845    0.0000 C   0  0  0  0  0  0  0  0  0  0  0  0
   -2.8963   -1.3371    0.0000 C   0  0  0  0  0  0  0  0  0  0  0  0
   -0.4506   -1.6837    0.0000 C   0  0  0  0  0  0  0  0  0  0  0  0
   -0.0431    0.3187    0.0000 C   0  0  0  0  0  0  0  0  0  0  0  0
    0.3685   -1.7918    0.0000 N   0  0  0  0  0  0  0  0  0  0  0  0
   -0.9605   -2.3334    0.0000 O   0  0  0  0  0  0  0  0  0  0  0  0
    0.0069    1.1362    0.0000 C   0  0  1  0  0  0  0  0  0  0  0  0
   -0.7106    1.5493    0.0000 O   0  0  0  0  0  0  0  0  0  0  0  0
    0.7200    1.5534    0.0000 C   0  0  0  0  0  0  0  0  0  0  0  0
    1.4333    1.1405    0.0000 C   0  0  2  0  0  0  0  0  0  0  0  0
    2.1466    1.5575    0.0000 C   0  0  0  0  0  0  0  0  0  0  0  0
    2.8599    1.1446    0.0000 N   0  0  0  0  0  0  0  0  0  0  0  0
    2.1424    2.3835    0.0000 O   0  0  0  0  0  0  0  0  0  0  0  0
    5.0446    2.3876    0.0000 C   0  0  0  0  0  0  0  0  0  0  0  0
    5.0430    1.5636    0.0000 C   0  0  0  0  0  0  0  0  0  0  0  0
    5.7548    1.1519    0.0000 C   0  0  0  0  0  0  0  0  0  0  0  0
    6.4685    1.5633    0.0000 C   0  0  0  0  0  0  0  0  0  0  0  0
    6.4662    2.3904    0.0000 C   0  0  0  0  0  0  0  0  0  0  0  0
    5.7539    2.7984    0.0000 C   0  0  0  0  0  0  0  0  0  0  0  0
    3.2019    3.1051    0.0000 O   0  0  0  0  0  0  0  0  0  0  0  0
    1.4292    0.3146    0.0000 C   0  0  0  0  0  0  0  0  0  0  0  0
    0.8673   -2.4485    0.0000 C   0  0  0  0  0  0  0  0  0  0  0  0
    1.6302   -2.1326    0.0000 C   0  0  0  0  0  0  0  0  0  0  0  0
    0.2073   -2.9446    0.0000 C   0  0  0  0  0  0  0  0  0  0  0  0
    1.3660   -3.1051    0.0000 C   0  0  0  0  0  0  0  0  0  0  0  0
    0.9782   -1.3891    0.0000 H   0  0  0  0  0  0  0  0  0  0  0  0
    2.4173   -2.5568    0.0000 H   0  0  0  0  0  0  0  0  0  0  0  0
    4.1504   -1.8925    0.0000 H   0  0  0  0  0  0  0  0  0  0  0  0
    4.4373   -0.0546    0.0000 H   0  0  0  0  0  0  0  0  0  0  0  0
    2.9951    1.1057    0.0000 H   0  0  0  0  0  0  0  0  0  0  0  0
    2.5859    2.1091    0.0000 H   0  0  0  0  0  0  0  0  0  0  0  0
    2.6980    2.1065    0.0000 H   0  0  0  0  0  0  0  0  0  0  0  0
    4.3250    3.8747    0.0000 H   0  0  0  0  0  0  0  0  0  0  0  0
    3.3982    3.3347    0.0000 H   0  0  0  0  0  0  0  0  0  0  0  0
   -1.4709   -2.4030    0.0000 H   0  0  0  0  0  0  0  0  0  0  0  0
   -2.3970   -1.8669    0.0000 H   0  0  0  0  0  0  0  0  0  0  0  0
   -1.1072   -1.9358    0.0000 H   0  0  0  0  0  0  0  0  0  0  0  0
   -1.4670    1.3824    0.0000 H   0  0  0  0  0  0  0  0  0  0  0  0
   -2.3945    0.8500    0.0000 H   0  0  0  0  0  0  0  0  0  0  0  0
   -3.1127    0.4368    0.0000 H   0  0  0  0  0  0  0  0  0  0  0  0
   -2.1843    0.9719    0.0000 H   0  0  0  0  0  0  0  0  0  0  0  0
   -2.8716    0.6272    0.0000 H   0  0  0  0  0  0  0  0  0  0  0  0
   -7.3673   -1.4153    0.0000 H   0  0  0  0  0  0  0  0  0  0  0  0
   -5.7671   -2.3624    0.0000 H   0  0  0  0  0  0  0  0  0  0  0  0
   -5.7380    1.3557    0.0000 H   0  0  0  0  0  0  0  0  0  0  0  0
   -7.3519    0.4378    0.0000 H   0  0  0  0  0  0  0  0  0  0  0  0
   -2.8940   -2.4071    0.0000 H   0  0  0  0  0  0  0  0  0  0  0  0
   -1.9676   -1.8685    0.0000 H   0  0  0  0  0  0  0  0  0  0  0  0
    0.8690   -0.2408    0.0000 H   0  0  0  0  0  0  0  0  0  0  0  0
    0.9061    0.8126    0.0000 H   0  0  0  0  0  0  0  0  0  0  0  0
    0.8630   -0.9405    0.0000 H   0  0  0  0  0  0  0  0  0  0  0  0
   -0.9353    0.6292    0.0000 H   0  0  0  0  0  0  0  0  0  0  0  0
   -0.7118    2.5193    0.0000 H   0  0  0  0  0  0  0  0  0  0  0  0
    0.7175    2.6234    0.0000 H   0  0  0  0  0  0  0  0  0  0  0  0
    1.6463    2.0889    0.0000 H   0  0  0  0  0  0  0  0  0  0  0  0
    0.5050    0.6083    0.0000 H   0  0  0  0  0  0  0  0  0  0  0  0
    2.8490    0.1602    0.0000 H   0  0  0  0  0  0  0  0  0  0  0  0
    5.7540    0.1199    0.0000 H   0  0  0  0  0  0  0  0  0  0  0  0
    7.3628    1.0482    0.0000 H   0  0  0  0  0  0  0  0  0  0  0  0
    7.3583    2.9092    0.0000 H   0  0  0  0  0  0  0  0  0  0  0  0
    5.7514    3.8304    0.0000 H   0  0  0  0  0  0  0  0  0  0  0  0
    3.6844    3.9466    0.0000 H   0  0  0  0  0  0  0  0  0  0  0  0
    0.4619   -0.1429    0.0000 H   0  0  0  0  0  0  0  0  0  0  0  0
    1.3009   -0.7477    0.0000 H   0  0  0  0  0  0  0  0  0  0  0  0
    2.4790   -2.7841    0.0000 H   0  0  0  0  0  0  0  0  0  0  0  0
    1.7700   -1.0718    0.0000 H   0  0  0  0  0  0  0  0  0  0  0  0
    2.6188   -1.7232    0.0000 H   0  0  0  0  0  0  0  0  0  0  0  0
   -0.7771   -2.5253    0.0000 H   0  0  0  0  0  0  0  0  0  0  0  0
    0.3364   -4.0068    0.0000 H   0  0  0  0  0  0  0  0  0  0  0  0
   -0.6480   -3.5875    0.0000 H   0  0  0  0  0  0  0  0  0  0  0  0
    0.9517   -4.0916    0.0000 H   0  0  0  0  0  0  0  0  0  0  0  0
    2.4275   -2.9707    0.0000 H   0  0  0  0  0  0  0  0  0  0  0  0
    2.0132   -3.9572    0.0000 H   0  0  0  0  0  0  0  0  0  0  0  0
  1  2  2  0  0  0  0
  2  3  1  0  0  0  0
  2 49  1  0  0  0  0
  3  4  2  0  0  0  0
  3 50  1  0  0  0  0
  4  5  1  0  0  0  0
  4 51  1  0  0  0  0
  5  6  2  0  0  0  0
  5 52  1  0  0  0  0
  6  1  1  0  0  0  0
  6 53  1  0  0  0  0
  7  8  1  0  0  0  0
  7 43  1  0  0  0  0
  7 54  1  1  0  0  0
  8 38  1  0  0  0  0
  8 55  1  0  0  0  0
  9  7  1  0  0  0  0
  9 56  1  0  0  0  0
  9 57  1  0  0  0  0
 10 15  1  0  0  0  0
 10 11  1  0  0  0  0
 11 12  1  0  0  0  0
 11 58  1  0  0  0  0
 11 59  1  0  0  0  0
 12 26  1  0  0  0  0
 12 13  1  0  0  0  0
 12 60  1  1  0  0  0
 13 27  1  0  0  0  0
 13 14  1  0  0  0  0
 14 15  1  0  0  0  0
 14 61  1  0  0  0  0
 14 62  1  0  0  0  0
 15 63  1  0  0  0  0
 15 64  1  0  0  0  0
 16 25  1  0  0  0  0
 16 17  2  0  0  0  0
 17 18  1  0  0  0  0
 17 65  1  0  0  0  0
 18 19  2  0  0  0  0
 18 23  1  0  0  0  0
 19 20  1  0  0  0  0
 20 16  1  0  0  0  0
 21 22  2  0  0  0  0
 21 66  1  0  0  0  0
 22 19  1  0  0  0  0
 22 67  1  0  0  0  0
 23 24  2  0  0  0  0
 23 68  1  0  0  0  0
 24 21  1  0  0  0  0
 24 69  1  0  0  0  0
 25 10  1  0  0  0  0
 25 70  1  0  0  0  0
 25 71  1  0  0  0  0
 26 28  1  0  0  0  0
 26 29  2  0  0  0  0
 27 72  1  0  0  0  0
 27 73  1  0  0  0  0
 28 45  1  0  0  0  0
 28 74  1  0  0  0  0
 30 27  1  0  0  0  0
 30 31  1  0  0  0  0
 30 32  1  0  0  0  0
 30 75  1  6  0  0  0
 31 76  1  0  0  0  0
 32 33  1  0  0  0  0
 32 77  1  0  0  0  0
 32 78  1  0  0  0  0
 33 34  1  0  0  0  0
 33 44  1  0  0  0  0
 33 79  1  1  0  0  0
 34 35  1  0  0  0  0
 34 36  2  0  0  0  0
 35  8  1  0  0  0  0
 35 80  1  0  0  0  0
 37  9  1  0  0  0  0
 37 38  2  0  0  0  0
 38 39  1  0  0  0  0
 39 40  2  0  0  0  0
 39 81  1  0  0  0  0
 40 41  1  0  0  0  0
 40 82  1  0  0  0  0
 41 42  2  0  0  0  0
 41 83  1  0  0  0  0
 42 37  1  0  0  0  0
 42 84  1  0  0  0  0
 43 85  1  0  0  0  0
 44  1  1  0  0  0  0
 44 86  1  0  0  0  0
 44 87  1  0  0  0  0
 45 46  1  0  0  0  0
 45 47  1  0  0  0  0
 45 48  1  0  0  0  0
 46 88  1  0  0  0  0
 46 89  1  0  0  0  0
 46 90  1  0  0  0  0
 47 91  1  0  0  0  0
 47 92  1  0  0  0  0
 47 93  1  0  0  0  0
 48 94  1  0  0  0  0
 48 95  1  0  0  0  0
 48 96  1  0  0  0  0
M  END
>  <DRUGBANK_ID>
DB02009

>  <SECONDARY_ACCESSION_NUMBERS>
EXPT01995

>  <COMMON_NAME>
L-756423

>  <CAS_NUMBER>
216863-66-0

>  <UNII>
862SGU1BRL

$$$$
