
 OpenBabel10282417072D

 37 40  0  0  0  0  0  0  0  0999 V2000
    2.5465    0.1470    0.0000 C   0  0  0  0  0  0  0  0  0  0  0  0
    2.2913   -0.6352    0.0000 C   0  0  0  0  0  0  0  0  0  0  0  0
    2.7740   -1.3009    0.0000 N   0  0  0  0  0  0  0  0  0  0  0  0
    2.2913   -1.9667    0.0000 N   0  0  0  0  0  0  0  0  0  0  0  0
    1.5035   -1.7116    0.0000 C   0  0  0  0  0  0  0  0  0  0  0  0
    1.5035   -0.8904    0.0000 N   0  0  0  0  0  0  0  0  0  0  0  0
    0.8599   -0.3744    0.0000 C   0  0  0  0  0  0  0  0  0  0  0  0
    1.1040    0.4133    0.0000 C   0  0  0  0  0  0  0  0  0  0  0  0
    0.5437    1.0181    0.0000 C   0  0  0  0  0  0  0  0  0  0  0  0
   -0.2607    0.8349    0.0000 C   0  0  0  0  0  0  0  0  0  0  0  0
   -0.5048    0.0472    0.0000 C   0  0  0  0  0  0  0  0  0  0  0  0
    0.0555   -0.5576    0.0000 C   0  0  0  0  0  0  0  0  0  0  0  0
   -0.2995   -1.3009    0.0000 C   0  0  0  0  0  0  0  0  0  0  0  0
    0.0555   -2.0444    0.0000 N   0  0  0  0  0  0  0  0  0  0  0  0
    0.8599   -2.2275    0.0000 C   0  0  0  0  0  0  0  0  0  0  0  0
   -1.1262   -1.3009    0.0000 C   0  0  0  0  0  0  0  0  0  0  0  0
   -1.5368   -0.5853    0.0000 C   0  0  0  0  0  0  0  0  0  0  0  0
   -2.3634   -0.5853    0.0000 C   0  0  0  0  0  0  0  0  0  0  0  0
   -2.7740   -1.3009    0.0000 C   0  0  0  0  0  0  0  0  0  0  0  0
   -2.3634   -2.0167    0.0000 C   0  0  0  0  0  0  0  0  0  0  0  0
   -1.5368   -2.0167    0.0000 C   0  0  0  0  0  0  0  0  0  0  0  0
   -0.8211    1.4397    0.0000 N   0  3  0  0  0  0  0  0  0  0  0  0
   -0.5769    2.2275    0.0000 O   0  0  0  0  0  0  0  0  0  0  0  0
   -1.6255    1.2566    0.0000 O   0  5  0  0  0  0  0  0  0  0  0  0
    3.5934    0.3682    0.0000 H   0  0  0  0  0  0  0  0  0  0  0  0
    1.8315    0.9430    0.0000 H   0  0  0  0  0  0  0  0  0  0  0  0
    2.8784    1.1642    0.0000 H   0  0  0  0  0  0  0  0  0  0  0  0
    2.1104    0.6419    0.0000 H   0  0  0  0  0  0  0  0  0  0  0  0
    0.8485    2.0041    0.0000 H   0  0  0  0  0  0  0  0  0  0  0  0
   -1.5112   -0.1814    0.0000 H   0  0  0  0  0  0  0  0  0  0  0  0
    1.0996   -3.2703    0.0000 H   0  0  0  0  0  0  0  0  0  0  0  0
    0.1041   -2.9849    0.0000 H   0  0  0  0  0  0  0  0  0  0  0  0
   -1.0196    0.3077    0.0000 H   0  0  0  0  0  0  0  0  0  0  0  0
   -2.8806    0.3077    0.0000 H   0  0  0  0  0  0  0  0  0  0  0  0
   -3.8060   -1.3008    0.0000 H   0  0  0  0  0  0  0  0  0  0  0  0
   -2.8807   -2.9097    0.0000 H   0  0  0  0  0  0  0  0  0  0  0  0
   -1.0195   -2.9097    0.0000 H   0  0  0  0  0  0  0  0  0  0  0  0
  1  2  1  0  0  0  0
  1 25  1  0  0  0  0
  1 26  1  0  0  0  0
  1 27  1  0  0  0  0
  2  3  2  0  0  0  0
  2  6  1  0  0  0  0
  3  4  1  0  0  0  0
  4  5  2  0  0  0  0
  5  6  1  0  0  0  0
  5 15  1  0  0  0  0
  6  7  1  0  0  0  0
  7  8  1  0  0  0  0
  7 12  2  0  0  0  0
  8  9  2  0  0  0  0
  8 28  1  0  0  0  0
  9 10  1  0  0  0  0
  9 29  1  0  0  0  0
 10 11  2  0  0  0  0
 10 22  1  0  0  0  0
 11 12  1  0  0  0  0
 11 30  1  0  0  0  0
 12 13  1  0  0  0  0
 13 14  2  0  0  0  0
 13 16  1  0  0  0  0
 14 15  1  0  0  0  0
 15 31  1  0  0  0  0
 15 32  1  0  0  0  0
 16 17  1  0  0  0  0
 16 21  2  0  0  0  0
 17 18  2  0  0  0  0
 17 33  1  0  0  0  0
 18 19  1  0  0  0  0
 18 34  1  0  0  0  0
 19 20  2  0  0  0  0
 19 35  1  0  0  0  0
 20 21  1  0  0  0  0
 20 36  1  0  0  0  0
 21 37  1  0  0  0  0
 22 23  2  0  0  0  0
 22 24  1  0  0  0  0
M  CHG  2  22   1  24  -1
M  END
>  <DRUGBANK_ID>
DB14717

>  <COMMON_NAME>
Nitrazolam

>  <CAS_NUMBER>
28910-99-8

>  <UNII>
K499DBB308

$$$$
