1059
 OpenBabel10282417072D

 41 43  0  0  0  0  0  0  0  0999 V2000
    7.1488    1.0625    0.0000 F   0  0  0  0  0  0  0  0  0  0  0  0
    4.2364    1.8676    0.0000 O   0  0  0  0  0  0  0  0  0  0  0  0
    2.0930    0.6301    0.0000 O   0  0  0  0  0  0  0  0  0  0  0  0
    2.8075    1.8676    0.0000 O   0  0  0  0  0  0  0  0  0  0  0  0
    7.1488   -0.6273    0.0000 N   0  0  0  0  0  0  0  0  0  0  0  0
    8.5746   -1.4579    0.0000 N   0  0  0  0  0  0  0  0  0  0  0  0
    4.2364   -0.6075    0.0000 N   0  0  0  0  0  0  0  0  0  0  0  0
    7.1456   -1.4523    0.0000 C   0  0  0  0  0  0  0  0  0  0  0  0
    7.8649   -0.2176    0.0000 C   0  0  0  0  0  0  0  0  0  0  0  0
    7.8585   -1.8676    0.0000 C   0  0  0  0  0  0  0  0  0  0  0  0
    8.5778   -0.6329    0.0000 C   0  0  0  0  0  0  0  0  0  0  0  0
    6.4359   -0.2121    0.0000 C   0  0  0  0  0  0  0  0  0  0  0  0
    4.9509   -0.1949    0.0000 C   0  0  0  0  0  0  0  0  0  0  0  0
    5.6884   -0.6360    0.0000 C   0  0  0  0  0  0  0  0  0  0  0  0
    4.9509    0.6301    0.0000 C   0  0  0  0  0  0  0  0  0  0  0  0
    6.4359    0.6473    0.0000 C   0  0  0  0  0  0  0  0  0  0  0  0
    5.6884    1.0712    0.0000 C   0  0  0  0  0  0  0  0  0  0  0  0
    4.2364   -1.4325    0.0000 C   0  0  0  0  0  0  0  0  0  0  0  0
    4.2364    1.0426    0.0000 C   0  0  0  0  0  0  0  0  0  0  0  0
    3.5220   -0.1949    0.0000 C   0  0  0  0  0  0  0  0  0  0  0  0
    3.5220    0.6301    0.0000 C   0  0  0  0  0  0  0  0  0  0  0  0
    3.5220   -1.8450    0.0000 C   0  0  0  0  0  0  0  0  0  0  0  0
    2.8075    1.0426    0.0000 C   0  0  0  0  0  0  0  0  0  0  0  0
    1.2815    1.0986    0.0000 H   0  0  0  0  0  0  0  0  0  0  0  0
    9.4559   -1.9713    0.0000 H   0  0  0  0  0  0  0  0  0  0  0  0
    6.2169   -1.9837    0.0000 H   0  0  0  0  0  0  0  0  0  0  0  0
    7.1414   -2.5223    0.0000 H   0  0  0  0  0  0  0  0  0  0  0  0
    7.8691    0.8524    0.0000 H   0  0  0  0  0  0  0  0  0  0  0  0
    8.7936    0.3138    0.0000 H   0  0  0  0  0  0  0  0  0  0  0  0
    7.8543   -2.9376    0.0000 H   0  0  0  0  0  0  0  0  0  0  0  0
    6.9298   -2.3990    0.0000 H   0  0  0  0  0  0  0  0  0  0  0  0
    9.5065   -0.1015    0.0000 H   0  0  0  0  0  0  0  0  0  0  0  0
    8.5820    0.4371    0.0000 H   0  0  0  0  0  0  0  0  0  0  0  0
    5.6765   -1.6679    0.0000 H   0  0  0  0  0  0  0  0  0  0  0  0
    5.6765    2.1031    0.0000 H   0  0  0  0  0  0  0  0  0  0  0  0
    5.1631   -1.9675    0.0000 H   0  0  0  0  0  0  0  0  0  0  0  0
    4.2364   -2.5025    0.0000 H   0  0  0  0  0  0  0  0  0  0  0  0
    2.6282   -0.7108    0.0000 H   0  0  0  0  0  0  0  0  0  0  0  0
    2.5953   -1.3100    0.0000 H   0  0  0  0  0  0  0  0  0  0  0  0
    3.5220   -2.9150    0.0000 H   0  0  0  0  0  0  0  0  0  0  0  0
    2.5954   -2.3800    0.0000 H   0  0  0  0  0  0  0  0  0  0  0  0
  1 16  1  0  0  0  0
  2 19  2  0  0  0  0
  3 23  1  0  0  0  0
  3 24  1  0  0  0  0
  4 23  2  0  0  0  0
  5  8  1  0  0  0  0
  5  9  1  0  0  0  0
  5 12  1  0  0  0  0
  6 10  1  0  0  0  0
  6 11  1  0  0  0  0
  6 25  1  0  0  0  0
  7 13  1  0  0  0  0
  7 18  1  0  0  0  0
  7 20  1  0  0  0  0
  8 10  1  0  0  0  0
  8 26  1  0  0  0  0
  8 27  1  0  0  0  0
  9 11  1  0  0  0  0
  9 28  1  0  0  0  0
  9 29  1  0  0  0  0
 10 30  1  0  0  0  0
 10 31  1  0  0  0  0
 11 32  1  0  0  0  0
 11 33  1  0  0  0  0
 12 14  1  0  0  0  0
 12 16  2  0  0  0  0
 13 14  2  0  0  0  0
 13 15  1  0  0  0  0
 14 34  1  0  0  0  0
 15 17  2  0  0  0  0
 15 19  1  0  0  0  0
 16 17  1  0  0  0  0
 17 35  1  0  0  0  0
 18 22  1  0  0  0  0
 18 36  1  0  0  0  0
 18 37  1  0  0  0  0
 19 21  1  0  0  0  0
 20 21  2  0  0  0  0
 20 38  1  0  0  0  0
 21 23  1  0  0  0  0
 22 39  1  0  0  0  0
 22 40  1  0  0  0  0
 22 41  1  0  0  0  0
M  END
>  <DRUGBANK_ID>
DB01059

>  <SECONDARY_ACCESSION_NUMBERS>
APRD00469

>  <COMMON_NAME>
Norfloxacin

>  <CAS_NUMBER>
70458-96-7

>  <UNII>
N0F8P22L1P

>  <SYNONYMS>
1-Ethyl-6-fluor-1,4-dihydro-4-oxo-7-(1-piperazinyl)-3-chinolincarbons√§ure; 1-Ethyl-6-fluoro-1,4-dihydro-4-oxo-7-(1-piperazinyl)-3-quinolinecarboxylic acid; 1,4-Dihydro-1-ethyl-6-fluoro-4-oxo-7-(1-piperazinyl)-3-quinolinecarboxylic acid; NFLX; Norfloxacin; Norfloxacine; Norfloxacino; Norfloxacinum

$$$$
