234
 OpenBabel10282417072D

 46 48  0  0  1  0  0  0  0  0999 V2000
    5.2224   -1.4438    0.0000 O   0  0  0  0  0  0  0  0  0  0  0  0
    3.7935    0.2063    0.0000 O   0  0  0  0  0  0  0  0  0  0  0  0
    2.3645    1.0313    0.0000 O   0  0  0  0  0  0  0  0  0  0  0  0
    3.7935   -2.2688    0.0000 N   0  0  0  0  0  0  0  0  0  0  0  0
    4.5080   -1.0313    0.0000 C   0  0  2  0  0  0  0  0  0  0  0  0
    4.5080   -0.2063    0.0000 C   0  0  2  0  0  0  0  0  0  0  0  0
    3.7935   -1.4438    0.0000 C   0  0  0  0  0  0  0  0  0  0  0  0
    4.5080   -2.6813    0.0000 C   0  0  0  0  0  0  0  0  0  0  0  0
    5.2224   -2.2688    0.0000 C   0  0  0  0  0  0  0  0  0  0  0  0
    5.2224    0.2063    0.0000 C   0  0  0  0  0  0  0  0  0  0  0  0
    5.2224    1.0313    0.0000 C   0  0  0  0  0  0  0  0  0  0  0  0
    5.9370   -0.2063    0.0000 C   0  0  0  0  0  0  0  0  0  0  0  0
    3.7935    1.0313    0.0000 C   0  0  0  0  0  0  0  0  0  0  0  0
    5.9370    1.4438    0.0000 C   0  0  0  0  0  0  0  0  0  0  0  0
    6.6515    0.2063    0.0000 C   0  0  0  0  0  0  0  0  0  0  0  0
    3.0791    1.4438    0.0000 C   0  0  0  0  0  0  0  0  0  0  0  0
    6.6515    1.0313    0.0000 C   0  0  0  0  0  0  0  0  0  0  0  0
    4.5080    1.4438    0.0000 C   0  0  0  0  0  0  0  0  0  0  0  0
    3.0791    2.2688    0.0000 C   0  0  0  0  0  0  0  0  0  0  0  0
    4.5080    2.2688    0.0000 C   0  0  0  0  0  0  0  0  0  0  0  0
    3.7935    2.6813    0.0000 C   0  0  0  0  0  0  0  0  0  0  0  0
    1.6500    1.4438    0.0000 C   0  0  0  0  0  0  0  0  0  0  0  0
    1.6500    2.2688    0.0000 C   0  0  0  0  0  0  0  0  0  0  0  0
    5.0796   -0.7013    0.0000 H   0  0  0  0  0  0  0  0  0  0  0  0
    2.9102   -2.7788    0.0000 H   0  0  0  0  0  0  0  0  0  0  0  0
    3.5813   -0.7413    0.0000 H   0  0  0  0  0  0  0  0  0  0  0  0
    2.8669   -0.9088    0.0000 H   0  0  0  0  0  0  0  0  0  0  0  0
    3.7935   -0.3738    0.0000 H   0  0  0  0  0  0  0  0  0  0  0  0
    4.5080   -3.7513    0.0000 H   0  0  0  0  0  0  0  0  0  0  0  0
    5.4347   -3.2163    0.0000 H   0  0  0  0  0  0  0  0  0  0  0  0
    6.1491   -2.8038    0.0000 H   0  0  0  0  0  0  0  0  0  0  0  0
    5.2224   -3.3388    0.0000 H   0  0  0  0  0  0  0  0  0  0  0  0
    4.3287    1.5473    0.0000 H   0  0  0  0  0  0  0  0  0  0  0  0
    5.9370   -1.2383    0.0000 H   0  0  0  0  0  0  0  0  0  0  0  0
    5.9370    2.4758    0.0000 H   0  0  0  0  0  0  0  0  0  0  0  0
    7.5453   -0.3097    0.0000 H   0  0  0  0  0  0  0  0  0  0  0  0
    7.5452    1.5473    0.0000 H   0  0  0  0  0  0  0  0  0  0  0  0
    5.4017    0.9278    0.0000 H   0  0  0  0  0  0  0  0  0  0  0  0
    2.1854    2.7848    0.0000 H   0  0  0  0  0  0  0  0  0  0  0  0
    5.4017    2.7848    0.0000 H   0  0  0  0  0  0  0  0  0  0  0  0
    3.7935    3.7133    0.0000 H   0  0  0  0  0  0  0  0  0  0  0  0
    0.7234    0.9088    0.0000 H   0  0  0  0  0  0  0  0  0  0  0  0
    0.7234    1.9788    0.0000 H   0  0  0  0  0  0  0  0  0  0  0  0
    2.5766    2.8038    0.0000 H   0  0  0  0  0  0  0  0  0  0  0  0
    0.7234    2.8038    0.0000 H   0  0  0  0  0  0  0  0  0  0  0  0
    1.6500    3.3388    0.0000 H   0  0  0  0  0  0  0  0  0  0  0  0
  1  5  1  0  0  0  0
  1  9  1  0  0  0  0
  2 13  1  0  0  0  0
  3 16  1  0  0  0  0
  3 22  1  0  0  0  0
  4  7  1  0  0  0  0
  4  8  1  0  0  0  0
  4 25  1  0  0  0  0
  5  6  1  0  0  0  0
  5  7  1  0  0  0  0
  5 24  1  6  0  0  0
  6  2  1  0  0  0  0
  6 10  1  0  0  0  0
  6 26  1  6  0  0  0
  7 27  1  0  0  0  0
  7 28  1  0  0  0  0
  8  9  1  0  0  0  0
  8 29  1  0  0  0  0
  8 30  1  0  0  0  0
  9 31  1  0  0  0  0
  9 32  1  0  0  0  0
 10 11  2  0  0  0  0
 10 12  1  0  0  0  0
 11 14  1  0  0  0  0
 11 33  1  0  0  0  0
 12 15  2  0  0  0  0
 12 34  1  0  0  0  0
 13 16  1  0  0  0  0
 13 18  2  0  0  0  0
 14 17  2  0  0  0  0
 14 35  1  0  0  0  0
 15 17  1  0  0  0  0
 15 36  1  0  0  0  0
 16 19  2  0  0  0  0
 17 37  1  0  0  0  0
 18 20  1  0  0  0  0
 18 38  1  0  0  0  0
 19 21  1  0  0  0  0
 19 39  1  0  0  0  0
 20 21  2  0  0  0  0
 20 40  1  0  0  0  0
 21 41  1  0  0  0  0
 22 23  1  0  0  0  0
 22 42  1  0  0  0  0
 22 43  1  0  0  0  0
 23 44  1  0  0  0  0
 23 45  1  0  0  0  0
 23 46  1  0  0  0  0
M  END
>  <DRUGBANK_ID>
DB12395

>  <COMMON_NAME>
Esreboxetine

>  <CAS_NUMBER>
98819-76-2

>  <UNII>
L8S50ZY490

>  <SYNONYMS>
Esreboxetine

$$$$
