
 OpenBabel10282417072D

 45 49  0  0  0  0  0  0  0  0999 V2000
    4.2135    2.2896    0.0000 C   0  0  0  0  0  0  0  0  0  0  0  0
    3.4289    2.5446    0.0000 C   0  0  0  0  0  0  0  0  0  0  0  0
    2.8158    1.9925    0.0000 C   0  0  0  0  0  0  0  0  0  0  0  0
    2.0088    2.1641    0.0000 C   0  0  0  0  0  0  0  0  0  0  0  0
    1.5963    1.4496    0.0000 C   0  0  0  0  0  0  0  0  0  0  0  0
    2.1483    0.8365    0.0000 N   0  0  0  0  0  0  0  0  0  0  0  0
    2.9020    1.1720    0.0000 N   0  0  0  0  0  0  0  0  0  0  0  0
    1.9768    0.0295    0.0000 C   0  0  0  0  0  0  0  0  0  0  0  0
    2.5288   -0.5836    0.0000 C   0  0  0  0  0  0  0  0  0  0  0  0
    2.1163   -1.2980    0.0000 C   0  0  0  0  0  0  0  0  0  0  0  0
    1.3094   -1.1265    0.0000 C   0  0  0  0  0  0  0  0  0  0  0  0
    1.2231   -0.3060    0.0000 C   0  0  0  0  0  0  0  0  0  0  0  0
    0.7713    1.4496    0.0000 C   0  0  0  0  0  0  0  0  0  0  0  0
    0.2193    0.8365    0.0000 N   0  0  0  0  0  0  0  0  0  0  0  0
   -0.5344    1.1720    0.0000 N   0  0  0  0  0  0  0  0  0  0  0  0
   -0.4482    1.9925    0.0000 C   0  0  0  0  0  0  0  0  0  0  0  0
    0.3588    2.1641    0.0000 N   0  0  0  0  0  0  0  0  0  0  0  0
    0.7713    2.8785    0.0000 C   0  0  0  0  0  0  0  0  0  0  0  0
    1.5963    2.8785    0.0000 C   0  0  0  0  0  0  0  0  0  0  0  0
   -1.0613    2.5446    0.0000 C   0  0  0  0  0  0  0  0  0  0  0  0
   -1.8682    2.3730    0.0000 C   0  0  0  0  0  0  0  0  0  0  0  0
   -2.2807    3.0875    0.0000 C   0  0  0  0  0  0  0  0  0  0  0  0
   -1.7287    3.7006    0.0000 C   0  0  0  0  0  0  0  0  0  0  0  0
   -0.9750    3.3650    0.0000 S   0  0  0  0  0  0  0  0  0  0  0  0
    4.4359    1.2430    0.0000 H   0  0  0  0  0  0  0  0  0  0  0  0
    5.0087    3.0055    0.0000 H   0  0  0  0  0  0  0  0  0  0  0  0
    5.2311    1.9589    0.0000 H   0  0  0  0  0  0  0  0  0  0  0  0
    3.2064    3.5912    0.0000 H   0  0  0  0  0  0  0  0  0  0  0  0
    2.4113    2.8752    0.0000 H   0  0  0  0  0  0  0  0  0  0  0  0
    1.7543   -1.0171    0.0000 H   0  0  0  0  0  0  0  0  0  0  0  0
    3.5929   -0.4718    0.0000 H   0  0  0  0  0  0  0  0  0  0  0  0
    3.1115   -1.4810    0.0000 H   0  0  0  0  0  0  0  0  0  0  0  0
    2.5515   -2.2755    0.0000 H   0  0  0  0  0  0  0  0  0  0  0  0
    1.4429   -2.1295    0.0000 H   0  0  0  0  0  0  0  0  0  0  0  0
    0.5143   -1.8425    0.0000 H   0  0  0  0  0  0  0  0  0  0  0  0
    0.3104   -0.7431    0.0000 H   0  0  0  0  0  0  0  0  0  0  0  0
    0.2965    0.2290    0.0000 H   0  0  0  0  0  0  0  0  0  0  0  0
    1.2791    0.7625    0.0000 H   0  0  0  0  0  0  0  0  0  0  0  0
    0.2363    3.8052    0.0000 H   0  0  0  0  0  0  0  0  0  0  0  0
    1.3063    3.8051    0.0000 H   0  0  0  0  0  0  0  0  0  0  0  0
    2.1313    3.8052    0.0000 H   0  0  0  0  0  0  0  0  0  0  0  0
    2.6663    2.8785    0.0000 H   0  0  0  0  0  0  0  0  0  0  0  0
   -2.2879    1.4302    0.0000 H   0  0  0  0  0  0  0  0  0  0  0  0
   -3.3070    3.1954    0.0000 H   0  0  0  0  0  0  0  0  0  0  0  0
   -1.9433    4.7100    0.0000 H   0  0  0  0  0  0  0  0  0  0  0  0
  1  2  1  0  0  0  0
  1 25  1  0  0  0  0
  1 26  1  0  0  0  0
  1 27  1  0  0  0  0
  2  3  1  0  0  0  0
  2 28  1  0  0  0  0
  2 29  1  0  0  0  0
  3  4  1  0  0  0  0
  3  7  2  0  0  0  0
  4  5  2  0  0  0  0
  4 19  1  0  0  0  0
  5  6  1  0  0  0  0
  5 13  1  0  0  0  0
  6  7  1  0  0  0  0
  6  8  1  0  0  0  0
  8  9  1  0  0  0  0
  8 12  1  0  0  0  0
  8 30  1  0  0  0  0
  9 10  1  0  0  0  0
  9 31  1  0  0  0  0
  9 32  1  0  0  0  0
 10 11  1  0  0  0  0
 10 33  1  0  0  0  0
 10 34  1  0  0  0  0
 11 12  1  0  0  0  0
 11 35  1  0  0  0  0
 11 36  1  0  0  0  0
 12 37  1  0  0  0  0
 12 38  1  0  0  0  0
 13 14  2  0  0  0  0
 13 17  1  0  0  0  0
 14 15  1  0  0  0  0
 15 16  2  0  0  0  0
 16 17  1  0  0  0  0
 16 20  1  0  0  0  0
 17 18  1  0  0  0  0
 18 19  1  0  0  0  0
 18 39  1  0  0  0  0
 18 40  1  0  0  0  0
 19 41  1  0  0  0  0
 19 42  1  0  0  0  0
 20 21  2  0  0  0  0
 20 24  1  0  0  0  0
 21 22  1  0  0  0  0
 21 43  1  0  0  0  0
 22 23  2  0  0  0  0
 22 44  1  0  0  0  0
 23 24  1  0  0  0  0
 23 45  1  0  0  0  0
M  END
>  <DRUGBANK_ID>
DB11681

>  <COMMON_NAME>
Tofimilast

>  <CAS_NUMBER>
185954-27-2

>  <UNII>
5D7022962A

>  <SYNONYMS>
Tofimilast

$$$$
