
 OpenBabel10282417072D

 34 34  0  0  0  0  0  0  0  0999 V2000
   -1.0165   -1.8563    0.0000 S   0  0  0  0  0  0  0  0  0  0  0  0
    1.1270   -0.6187    0.0000 O   0  0  0  0  0  0  0  0  0  0  0  0
   -1.0165   -1.0313    0.0000 O   0  0  0  0  0  0  0  0  0  0  0  0
   -1.0165    0.6187    0.0000 O   0  0  0  0  0  0  0  0  0  0  0  0
    1.8415    0.6187    0.0000 O   0  0  0  0  0  0  0  0  0  0  0  0
    1.1270   -2.2689    0.0000 O   0  0  0  0  0  0  0  0  0  0  0  0
   -1.0165   -2.6814    0.0000 O   0  0  0  0  0  0  0  0  0  0  0  0
    1.8415    1.4438    0.0000 O   0  0  0  0  0  0  0  0  0  0  0  0
   -1.8415   -1.8563    0.0000 O   0  0  0  0  0  0  0  0  0  0  0  0
   -0.1914   -1.8563    0.0000 O   0  0  0  0  0  0  0  0  0  0  0  0
    0.4125    1.4438    0.0000 N   0  0  0  0  0  0  0  0  0  0  0  0
   -0.3019    0.2062    0.0000 C   0  0  1  0  0  0  0  0  0  0  0  0
   -0.3019   -0.6187    0.0000 C   0  0  2  0  0  0  0  0  0  0  0  0
    0.4125    0.6187    0.0000 C   0  0  2  0  0  0  0  0  0  0  0  0
    0.4125   -1.0313    0.0000 C   0  0  1  0  0  0  0  0  0  0  0  0
    1.1270    0.2062    0.0000 C   0  0  2  0  0  0  0  0  0  0  0  0
    0.4125   -1.8563    0.0000 C   0  0  0  0  0  0  0  0  0  0  0  0
    1.1270    1.8563    0.0000 C   0  0  0  0  0  0  0  0  0  0  0  0
    1.1270    2.6814    0.0000 C   0  0  0  0  0  0  0  0  0  0  0  0
   -0.0304    1.6996    0.0000 H   0  0  0  0  0  0  0  0  0  0  0  0
   -1.0166    1.5887    0.0000 H   0  0  0  0  0  0  0  0  0  0  0  0
    2.6815    0.1337    0.0000 H   0  0  0  0  0  0  0  0  0  0  0  0
    1.1269   -3.2389    0.0000 H   0  0  0  0  0  0  0  0  0  0  0  0
   -1.8565   -3.1664    0.0000 H   0  0  0  0  0  0  0  0  0  0  0  0
   -1.2285   -0.3288    0.0000 H   0  0  0  0  0  0  0  0  0  0  0  0
   -1.2286   -0.0837    0.0000 H   0  0  0  0  0  0  0  0  0  0  0  0
   -0.5142    1.1537    0.0000 H   0  0  0  0  0  0  0  0  0  0  0  0
    1.3392   -1.5663    0.0000 H   0  0  0  0  0  0  0  0  0  0  0  0
    2.0536   -0.3288    0.0000 H   0  0  0  0  0  0  0  0  0  0  0  0
   -0.5142   -2.3913    0.0000 H   0  0  0  0  0  0  0  0  0  0  0  0
   -0.5141   -1.3213    0.0000 H   0  0  0  0  0  0  0  0  0  0  0  0
    2.0536    3.2164    0.0000 H   0  0  0  0  0  0  0  0  0  0  0  0
    0.2004    3.2164    0.0000 H   0  0  0  0  0  0  0  0  0  0  0  0
    1.1270    3.7514    0.0000 H   0  0  0  0  0  0  0  0  0  0  0  0
  1  3  1  0  0  0  0
  1  7  1  0  0  0  0
  1  9  2  0  0  0  0
  1 10  2  0  0  0  0
  2 15  1  0  0  0  0
  2 16  1  0  0  0  0
  4 21  1  0  0  0  0
  5 22  1  0  0  0  0
  6 17  1  0  0  0  0
  6 23  1  0  0  0  0
  7 24  1  0  0  0  0
  8 18  2  0  0  0  0
 11 18  1  0  0  0  0
 11 20  1  0  0  0  0
 12  4  1  0  0  0  0
 12 13  1  0  0  0  0
 12 14  1  0  0  0  0
 12 25  1  1  0  0  0
 13  3  1  0  0  0  0
 13 15  1  0  0  0  0
 13 26  1  1  0  0  0
 14 11  1  0  0  0  0
 14 16  1  0  0  0  0
 14 27  1  6  0  0  0
 15 17  1  0  0  0  0
 15 28  1  1  0  0  0
 16  5  1  0  0  0  0
 16 29  1  6  0  0  0
 17 30  1  0  0  0  0
 17 31  1  0  0  0  0
 18 19  1  0  0  0  0
 19 32  1  0  0  0  0
 19 33  1  0  0  0  0
 19 34  1  0  0  0  0
M  END
>  <DRUGBANK_ID>
DB04492

>  <SECONDARY_ACCESSION_NUMBERS>
EXPT02336

>  <COMMON_NAME>
2-(acetylamino)-2-deoxy-4-O-sulfo-alpha-D-galactopyranose

$$$$
