
 OpenBabel10282417072D

 42 42  0  0  0  0  0  0  0  0999 V2000
   -1.4011    0.4549    0.0000 C   0  0  0  0  0  0  0  0  0  0  0  0
   -0.6901    0.0367    0.0000 N   0  0  0  0  0  0  0  0  0  0  0  0
   -2.1540    0.0367    0.0000 C   0  0  0  0  0  0  0  0  0  0  0  0
   -1.4011    1.2915    0.0000 O   0  0  0  0  0  0  0  0  0  0  0  0
    0.0208    0.4549    0.0000 C   0  0  0  0  0  0  0  0  0  0  0  0
    0.7318    0.0367    0.0000 C   0  0  0  0  0  0  0  0  0  0  0  0
    1.4847    0.4549    0.0000 N   0  0  0  0  0  0  0  0  0  0  0  0
    0.7318   -0.7998    0.0000 O   0  0  0  0  0  0  0  0  0  0  0  0
    2.1958    0.0367    0.0000 C   0  0  1  0  0  0  0  0  0  0  0  0
    2.9069    0.4549    0.0000 C   0  0  0  0  0  0  0  0  0  0  0  0
    2.1958   -0.7998    0.0000 B   0  0  0  0  0  0  0  0  0  0  0  0
    3.6179    0.0367    0.0000 C   0  0  0  0  0  0  0  0  0  0  0  0
    4.3289    0.4549    0.0000 C   0  0  0  0  0  0  0  0  0  0  0  0
    3.6179   -0.7998    0.0000 C   0  0  0  0  0  0  0  0  0  0  0  0
   -2.8651    0.4549    0.0000 C   0  0  0  0  0  0  0  0  0  0  0  0
   -3.5761    0.0367    0.0000 C   0  0  0  0  0  0  0  0  0  0  0  0
   -3.5761   -0.7998    0.0000 C   0  0  0  0  0  0  0  0  0  0  0  0
   -2.8651   -1.2181    0.0000 C   0  0  0  0  0  0  0  0  0  0  0  0
   -2.1540   -0.7998    0.0000 C   0  0  0  0  0  0  0  0  0  0  0  0
   -1.4011   -1.2599    0.0000 Cl  0  0  0  0  0  0  0  0  0  0  0  0
   -4.3289    0.4549    0.0000 Cl  0  0  0  0  0  0  0  0  0  0  0  0
    1.5191   -1.2915    0.0000 O   0  0  0  0  0  0  0  0  0  0  0  0
    2.8726   -1.2915    0.0000 O   0  0  0  0  0  0  0  0  0  0  0  0
   -0.6901   -0.9478    0.0000 H   0  0  0  0  0  0  0  0  0  0  0  0
    0.0208    1.5249    0.0000 H   0  0  0  0  0  0  0  0  0  0  0  0
    0.9496    0.9862    0.0000 H   0  0  0  0  0  0  0  0  0  0  0  0
    1.4968    1.4393    0.0000 H   0  0  0  0  0  0  0  0  0  0  0  0
    1.2670   -0.4946    0.0000 H   0  0  0  0  0  0  0  0  0  0  0  0
    2.9069    1.5249    0.0000 H   0  0  0  0  0  0  0  0  0  0  0  0
    3.8357    0.9861    0.0000 H   0  0  0  0  0  0  0  0  0  0  0  0
    4.5467   -0.4945    0.0000 H   0  0  0  0  0  0  0  0  0  0  0  0
    5.2598   -0.0726    0.0000 H   0  0  0  0  0  0  0  0  0  0  0  0
    4.3202    1.5249    0.0000 H   0  0  0  0  0  0  0  0  0  0  0  0
    5.2512    0.9974    0.0000 H   0  0  0  0  0  0  0  0  0  0  0  0
    2.6913   -1.3348    0.0000 H   0  0  0  0  0  0  0  0  0  0  0  0
    4.5445   -1.3348    0.0000 H   0  0  0  0  0  0  0  0  0  0  0  0
    3.6179   -1.8698    0.0000 H   0  0  0  0  0  0  0  0  0  0  0  0
   -2.8651    1.4869    0.0000 H   0  0  0  0  0  0  0  0  0  0  0  0
   -4.4719   -1.3121    0.0000 H   0  0  0  0  0  0  0  0  0  0  0  0
   -2.8651   -2.2501    0.0000 H   0  0  0  0  0  0  0  0  0  0  0  0
    0.6329   -0.8970    0.0000 H   0  0  0  0  0  0  0  0  0  0  0  0
    2.7712   -2.2562    0.0000 H   0  0  0  0  0  0  0  0  0  0  0  0
  1  2  1  0  0  0  0
  1  3  1  0  0  0  0
  1  4  2  0  0  0  0
  2  5  1  0  0  0  0
  2 24  1  0  0  0  0
  3 15  2  0  0  0  0
  3 19  1  0  0  0  0
  5  6  1  0  0  0  0
  5 25  1  0  0  0  0
  5 26  1  0  0  0  0
  6  7  1  0  0  0  0
  6  8  2  0  0  0  0
  7  9  1  0  0  0  0
  7 27  1  0  0  0  0
  9 10  1  0  0  0  0
  9 11  1  0  0  0  0
  9 28  1  6  0  0  0
 10 12  1  0  0  0  0
 10 29  1  0  0  0  0
 10 30  1  0  0  0  0
 11 22  1  0  0  0  0
 11 23  1  0  0  0  0
 12 13  1  0  0  0  0
 12 14  1  0  0  0  0
 12 31  1  0  0  0  0
 13 32  1  0  0  0  0
 13 33  1  0  0  0  0
 13 34  1  0  0  0  0
 14 35  1  0  0  0  0
 14 36  1  0  0  0  0
 14 37  1  0  0  0  0
 15 16  1  0  0  0  0
 15 38  1  0  0  0  0
 16 17  2  0  0  0  0
 16 21  1  0  0  0  0
 17 18  1  0  0  0  0
 17 39  1  0  0  0  0
 18 19  2  0  0  0  0
 18 40  1  0  0  0  0
 19 20  1  0  0  0  0
 22 41  1  0  0  0  0
 23 42  1  0  0  0  0
M  END
>  <DRUGBANK_ID>
DB09570

>  <COMMON_NAME>
Ixazomib

>  <CAS_NUMBER>
1072833-77-2

>  <UNII>
71050168A2

>  <SYNONYMS>
Ixazomib

$$$$
