
 OpenBabel10282417072D

 64 64  0  0  1  0  0  0  0  0999 V2000
    0.0411   -1.9866    0.0000 C   0  0  0  0  0  0  0  0  0  0  0  0
   -0.6600   -2.4215    0.0000 C   0  0  0  0  0  0  0  0  0  0  0  0
   -1.5178   -2.0027    0.0000 C   0  0  0  0  0  0  0  0  0  0  0  0
   -0.7763   -0.8362    0.0000 N   0  0  0  0  0  0  0  0  0  0  0  0
    0.6430   -0.6721    0.0000 C   0  0  0  0  0  0  0  0  0  0  0  0
    0.5485    0.1474    0.0000 N   0  0  0  0  0  0  0  0  0  0  0  0
    1.0941    0.7662    0.0000 C   0  0  2  0  0  0  0  0  0  0  0  0
    0.8310    1.5481    0.0000 C   0  0  2  0  0  0  0  0  0  0  0  0
    1.3767    2.1669    0.0000 C   0  0  0  0  0  0  0  0  0  0  0  0
    2.1854    2.0038    0.0000 C   0  0  0  0  0  0  0  0  0  0  0  0
    2.4485    1.2219    0.0000 C   0  0  0  0  0  0  0  0  0  0  0  0
    1.9028    0.6031    0.0000 C   0  0  0  0  0  0  0  0  0  0  0  0
    0.0221    1.7113    0.0000 N   0  0  0  0  0  0  0  0  0  0  0  0
   -0.3976    2.4215    0.0000 C   0  0  0  0  0  0  0  0  0  0  0  0
   -1.2225    2.4129    0.0000 C   0  0  0  0  0  0  0  0  0  0  0  0
   -1.6274    1.6942    0.0000 N   0  0  0  0  0  0  0  0  0  0  0  0
   -2.4328    1.5143    0.0000 C   0  0  2  0  0  0  0  0  0  0  0  0
   -2.6796    0.7271    0.0000 C   0  0  2  0  0  0  0  0  0  0  0  0
   -3.4846    0.5472    0.0000 C   0  0  0  0  0  0  0  0  0  0  0  0
   -4.0430    1.1545    0.0000 C   0  0  0  0  0  0  0  0  0  0  0  0
   -3.7963    1.9417    0.0000 C   0  0  0  0  0  0  0  0  0  0  0  0
   -2.9910    2.1215    0.0000 C   0  0  0  0  0  0  0  0  0  0  0  0
   -2.1210    0.1198    0.0000 N   0  0  0  0  0  0  0  0  0  0  0  0
   -2.1988   -0.7015    0.0000 C   0  0  0  0  0  0  0  0  0  0  0  0
   -1.5265   -1.1794    0.0000 C   0  0  0  0  0  0  0  0  0  0  0  0
   -0.0191   -1.1637    0.0000 C   0  0  0  0  0  0  0  0  0  0  0  0
    4.0430   -0.4199    0.0000 Cl  0  5  0  0  0  0  0  0  0  0  0  0
   -0.9247    0.6450    0.0000 Mn  0  2  0  0  0  0  0  0  0  0  0  0
    4.0430   -0.4199    0.0000 Cl  0  5  0  0  0  0  0  0  0  0  0  0
    0.9606   -2.4552    0.0000 H   0  0  0  0  0  0  0  0  0  0  0  0
   -0.6079   -3.4522    0.0000 H   0  0  0  0  0  0  0  0  0  0  0  0
   -2.3902   -2.5540    0.0000 H   0  0  0  0  0  0  0  0  0  0  0  0
    1.6249   -1.0973    0.0000 H   0  0  0  0  0  0  0  0  0  0  0  0
    0.7658   -1.7350    0.0000 H   0  0  0  0  0  0  0  0  0  0  0  0
   -0.4248    0.4526    0.0000 H   0  0  0  0  0  0  0  0  0  0  0  0
    0.0452    0.9777    0.0000 H   0  0  0  0  0  0  0  0  0  0  0  0
    0.4898    2.5623    0.0000 H   0  0  0  0  0  0  0  0  0  0  0  0
    1.0355    3.1810    0.0000 H   0  0  0  0  0  0  0  0  0  0  0  0
    2.0844    2.9695    0.0000 H   0  0  0  0  0  0  0  0  0  0  0  0
    2.8930    2.8064    0.0000 H   0  0  0  0  0  0  0  0  0  0  0  0
    3.2343    1.7923    0.0000 H   0  0  0  0  0  0  0  0  0  0  0  0
    3.4974    1.0103    0.0000 H   0  0  0  0  0  0  0  0  0  0  0  0
    2.7897    0.2077    0.0000 H   0  0  0  0  0  0  0  0  0  0  0  0
    2.2440   -0.4110    0.0000 H   0  0  0  0  0  0  0  0  0  0  0  0
    1.1951   -0.1995    0.0000 H   0  0  0  0  0  0  0  0  0  0  0  0
   -0.5689    0.8800    0.0000 H   0  0  0  0  0  0  0  0  0  0  0  0
    0.1278    3.3536    0.0000 H   0  0  0  0  0  0  0  0  0  0  0  0
   -0.9422    3.3426    0.0000 H   0  0  0  0  0  0  0  0  0  0  0  0
   -1.7672    3.3339    0.0000 H   0  0  0  0  0  0  0  0  0  0  0  0
   -2.2924    2.4017    0.0000 H   0  0  0  0  0  0  0  0  0  0  0  0
   -1.0193    0.8753    0.0000 H   0  0  0  0  0  0  0  0  0  0  0  0
   -1.7087    0.7266    0.0000 H   0  0  0  0  0  0  0  0  0  0  0  0
   -2.9995   -0.2940    0.0000 H   0  0  0  0  0  0  0  0  0  0  0  0
   -3.8046   -0.4738    0.0000 H   0  0  0  0  0  0  0  0  0  0  0  0
   -4.5288    0.3138    0.0000 H   0  0  0  0  0  0  0  0  0  0  0  0
   -5.0872    0.9211    0.0000 H   0  0  0  0  0  0  0  0  0  0  0  0
   -4.7672    1.9421    0.0000 H   0  0  0  0  0  0  0  0  0  0  0  0
   -4.5205    2.7294    0.0000 H   0  0  0  0  0  0  0  0  0  0  0  0
   -3.4761    2.9627    0.0000 H   0  0  0  0  0  0  0  0  0  0  0  0
   -2.6708    3.1425    0.0000 H   0  0  0  0  0  0  0  0  0  0  0  0
   -1.9467    2.3547    0.0000 H   0  0  0  0  0  0  0  0  0  0  0  0
   -1.1543    0.4451    0.0000 H   0  0  0  0  0  0  0  0  0  0  0  0
   -3.1718   -1.1468    0.0000 H   0  0  0  0  0  0  0  0  0  0  0  0
   -2.2996   -1.7667    0.0000 H   0  0  0  0  0  0  0  0  0  0  0  0
  1 26  1  0  0  0  0
  1 30  1  0  0  0  0
  2  1  2  0  0  0  0
  2 31  1  0  0  0  0
  3  2  1  0  0  0  0
  3 25  2  0  0  0  0
  3 32  1  0  0  0  0
  4 25  1  0  0  0  0
  5  6  1  0  0  0  0
  5 26  1  0  0  0  0
  5 33  1  0  0  0  0
  5 34  1  0  0  0  0
  6 35  1  0  0  0  0
  7  6  1  0  0  0  0
  7 12  1  0  0  0  0
  7 36  1  1  0  0  0
  8  7  1  0  0  0  0
  8 13  1  0  0  0  0
  8 37  1  6  0  0  0
  9  8  1  0  0  0  0
  9 38  1  0  0  0  0
  9 39  1  0  0  0  0
 10  9  1  0  0  0  0
 10 40  1  0  0  0  0
 10 41  1  0  0  0  0
 11 10  1  0  0  0  0
 11 42  1  0  0  0  0
 11 43  1  0  0  0  0
 12 11  1  0  0  0  0
 12 44  1  0  0  0  0
 12 45  1  0  0  0  0
 13 14  1  0  0  0  0
 13 46  1  0  0  0  0
 14 15  1  0  0  0  0
 14 47  1  0  0  0  0
 14 48  1  0  0  0  0
 15 16  1  0  0  0  0
 15 49  1  0  0  0  0
 15 50  1  0  0  0  0
 16 51  1  0  0  0  0
 17 16  1  0  0  0  0
 17 22  1  0  0  0  0
 17 52  1  1  0  0  0
 18 17  1  0  0  0  0
 18 23  1  0  0  0  0
 18 53  1  6  0  0  0
 19 18  1  0  0  0  0
 19 54  1  0  0  0  0
 19 55  1  0  0  0  0
 20 19  1  0  0  0  0
 20 56  1  0  0  0  0
 20 57  1  0  0  0  0
 21 20  1  0  0  0  0
 21 58  1  0  0  0  0
 21 59  1  0  0  0  0
 22 21  1  0  0  0  0
 22 60  1  0  0  0  0
 22 61  1  0  0  0  0
 23 24  1  0  0  0  0
 23 62  1  0  0  0  0
 24 25  1  0  0  0  0
 24 63  1  0  0  0  0
 24 64  1  0  0  0  0
 26  4  2  0  0  0  0
M  CHG  3  27  -1  28   2  29  -1
M  END
>  <DRUGBANK_ID>
DB16354

>  <COMMON_NAME>
Avasopasem manganese

>  <CAS_NUMBER>
435327-40-5

>  <UNII>
EY1WA413UL

>  <SYNONYMS>
Avasopasem manganese

$$$$
