
 OpenBabel10282417072D

 28 27  0  0  0  0  0  0  0  0999 V2000
   -0.3306   -0.1759    0.0000 C   0  0  0  0  0  0  0  0  0  0  0  0
   -1.0594   -0.5794    0.0000 C   0  0  0  0  0  0  0  0  0  0  0  0
    0.3377   -0.5972    0.0000 C   0  0  0  0  0  0  0  0  0  0  0  0
   -1.7687   -0.1581    0.0000 C   0  0  0  0  0  0  0  0  0  0  0  0
    1.0648   -0.2009    0.0000 C   0  0  0  0  0  0  0  0  0  0  0  0
   -2.4834   -0.5563    0.0000 N   0  0  0  0  0  0  0  0  0  0  0  0
   -1.7687    0.6612    0.0000 O   0  0  0  0  0  0  0  0  0  0  0  0
    1.7260   -0.6311    0.0000 C   0  0  0  0  0  0  0  0  0  0  0  0
   -3.1642   -0.1226    0.0000 O   0  0  0  0  0  0  0  0  0  0  0  0
    2.4834   -0.2453    0.0000 C   0  0  0  0  0  0  0  0  0  0  0  0
    3.1642   -0.6612    0.0000 C   0  0  0  0  0  0  0  0  0  0  0  0
   -0.3002    0.8937    0.0000 H   0  0  0  0  0  0  0  0  0  0  0  0
    0.6135    0.3276    0.0000 H   0  0  0  0  0  0  0  0  0  0  0  0
   -1.0756   -1.6493    0.0000 H   0  0  0  0  0  0  0  0  0  0  0  0
   -1.9933   -1.1016    0.0000 H   0  0  0  0  0  0  0  0  0  0  0  0
    0.3038   -1.6667    0.0000 H   0  0  0  0  0  0  0  0  0  0  0  0
    1.2489   -1.1581    0.0000 H   0  0  0  0  0  0  0  0  0  0  0  0
    1.1064    0.8683    0.0000 H   0  0  0  0  0  0  0  0  0  0  0  0
    2.0151    0.2909    0.0000 H   0  0  0  0  0  0  0  0  0  0  0  0
   -2.5124   -1.5404    0.0000 H   0  0  0  0  0  0  0  0  0  0  0  0
    1.6695   -1.6996    0.0000 H   0  0  0  0  0  0  0  0  0  0  0  0
    2.6232   -1.2141    0.0000 H   0  0  0  0  0  0  0  0  0  0  0  0
   -3.1219    0.8465    0.0000 H   0  0  0  0  0  0  0  0  0  0  0  0
    2.5247    0.8239    0.0000 H   0  0  0  0  0  0  0  0  0  0  0  0
    3.4265    0.2600    0.0000 H   0  0  0  0  0  0  0  0  0  0  0  0
    3.1377   -1.7309    0.0000 H   0  0  0  0  0  0  0  0  0  0  0  0
    4.1038   -0.1493    0.0000 H   0  0  0  0  0  0  0  0  0  0  0  0
    4.0773   -1.2190    0.0000 H   0  0  0  0  0  0  0  0  0  0  0  0
  1  2  1  0  0  0  0
  1  3  1  0  0  0  0
  1 12  1  0  0  0  0
  1 13  1  0  0  0  0
  2  4  1  0  0  0  0
  2 14  1  0  0  0  0
  2 15  1  0  0  0  0
  3  5  1  0  0  0  0
  3 16  1  0  0  0  0
  3 17  1  0  0  0  0
  4  6  1  0  0  0  0
  4  7  2  0  0  0  0
  5  8  1  0  0  0  0
  5 18  1  0  0  0  0
  5 19  1  0  0  0  0
  6  9  1  0  0  0  0
  6 20  1  0  0  0  0
  8 10  1  0  0  0  0
  8 21  1  0  0  0  0
  8 22  1  0  0  0  0
  9 23  1  0  0  0  0
 10 11  1  0  0  0  0
 10 24  1  0  0  0  0
 10 25  1  0  0  0  0
 11 26  1  0  0  0  0
 11 27  1  0  0  0  0
 11 28  1  0  0  0  0
M  END
>  <DRUGBANK_ID>
DB16634

>  <COMMON_NAME>
Caprylhydroxamic acid

>  <CAS_NUMBER>
7377-03-9

>  <UNII>
UPY805K99W

>  <SYNONYMS>
Caprylohydroxamic acid; N-Hydroxyoctanamide; Octanohydroxamic acid; Octanoylhydroxamic acid; Taselin

$$$$
