
 OpenBabel10282417072D

 55 56  0  0  0  0  0  0  0  0999 V2000
   -2.1431    0.2044    0.0000 C   0  0  3  0  0  0  0  0  0  0  0  0
   -2.8512   -0.2079    0.0000 C   0  0  0  0  0  0  0  0  0  0  0  0
   -1.4282   -0.2044    0.0000 C   0  0  0  0  0  0  0  0  0  0  0  0
   -2.1466    1.0294    0.0000 C   0  0  0  0  0  0  0  0  0  0  0  0
   -1.9231   -0.5928    0.0000 C   0  0  0  0  0  0  0  0  0  0  0  0
   -3.5661    0.2044    0.0000 C   0  0  0  0  0  0  0  0  0  0  0  0
   -2.8512   -1.0329    0.0000 C   0  0  0  0  0  0  0  0  0  0  0  0
   -0.7131    0.2079    0.0000 C   0  0  0  0  0  0  0  0  0  0  0  0
   -1.4316    1.4487    0.0000 C   0  0  0  0  0  0  0  0  0  0  0  0
   -2.8580    1.4419    0.0000 C   0  0  0  0  0  0  0  0  0  0  0  0
   -1.9334   -1.4212    0.0000 N   0  0  0  0  0  0  0  0  0  0  0  0
   -4.2811   -0.2079    0.0000 C   0  0  0  0  0  0  0  0  0  0  0  0
   -3.5661   -1.4487    0.0000 C   0  0  0  0  0  0  0  0  0  0  0  0
   -0.0017   -0.1976    0.0000 C   0  0  0  0  0  0  0  0  0  0  0  0
   -4.2811   -1.0329    0.0000 C   0  0  0  0  0  0  0  0  0  0  0  0
    0.7131    0.2113    0.0000 N   0  0  0  0  0  0  0  0  0  0  0  0
    1.4281   -0.1942    0.0000 C   0  0  0  0  0  0  0  0  0  0  0  0
    0.7131    1.0397    0.0000 C   0  0  0  0  0  0  0  0  0  0  0  0
    2.1431    0.2149    0.0000 C   0  0  0  0  0  0  0  0  0  0  0  0
    2.8511   -0.1907    0.0000 C   0  0  0  0  0  0  0  0  0  0  0  0
    3.5660    0.2216    0.0000 C   0  0  0  0  0  0  0  0  0  0  0  0
    2.8547   -1.0123    0.0000 C   0  0  0  0  0  0  0  0  0  0  0  0
    4.2776   -0.1873    0.0000 C   0  0  0  0  0  0  0  0  0  0  0  0
    3.5695   -1.4247    0.0000 C   0  0  0  0  0  0  0  0  0  0  0  0
    4.2811   -1.0088    0.0000 C   0  0  0  0  0  0  0  0  0  0  0  0
   -1.4263   -1.2744    0.0000 H   0  0  0  0  0  0  0  0  0  0  0  0
   -0.5012   -0.7388    0.0000 H   0  0  0  0  0  0  0  0  0  0  0  0
   -2.1492    2.0994    0.0000 H   0  0  0  0  0  0  0  0  0  0  0  0
   -3.5661    1.2364    0.0000 H   0  0  0  0  0  0  0  0  0  0  0  0
   -1.9566   -1.5475    0.0000 H   0  0  0  0  0  0  0  0  0  0  0  0
   -0.7157    1.2779    0.0000 H   0  0  0  0  0  0  0  0  0  0  0  0
    0.2114    0.7466    0.0000 H   0  0  0  0  0  0  0  0  0  0  0  0
   -0.5013    0.9200    0.0000 H   0  0  0  0  0  0  0  0  0  0  0  0
   -1.4389    2.5187    0.0000 H   0  0  0  0  0  0  0  0  0  0  0  0
   -0.5086    1.9900    0.0000 H   0  0  0  0  0  0  0  0  0  0  0  0
   -2.8560    2.5119    0.0000 H   0  0  0  0  0  0  0  0  0  0  0  0
   -3.7856    0.9086    0.0000 H   0  0  0  0  0  0  0  0  0  0  0  0
   -3.7836    1.9786    0.0000 H   0  0  0  0  0  0  0  0  0  0  0  0
   -5.1747    0.3083    0.0000 H   0  0  0  0  0  0  0  0  0  0  0  0
   -3.5661   -2.4807    0.0000 H   0  0  0  0  0  0  0  0  0  0  0  0
   -0.0009   -1.2676    0.0000 H   0  0  0  0  0  0  0  0  0  0  0  0
    0.9241   -0.7341    0.0000 H   0  0  0  0  0  0  0  0  0  0  0  0
   -5.1756   -1.5475    0.0000 H   0  0  0  0  0  0  0  0  0  0  0  0
    1.4301   -1.2642    0.0000 H   0  0  0  0  0  0  0  0  0  0  0  0
    2.3542   -0.7301    0.0000 H   0  0  0  0  0  0  0  0  0  0  0  0
    1.6397    1.5747    0.0000 H   0  0  0  0  0  0  0  0  0  0  0  0
   -0.2135    1.5747    0.0000 H   0  0  0  0  0  0  0  0  0  0  0  0
    0.7131    2.1097    0.0000 H   0  0  0  0  0  0  0  0  0  0  0  0
    2.1434    1.2849    0.0000 H   0  0  0  0  0  0  0  0  0  0  0  0
    3.0689    0.7513    0.0000 H   0  0  0  0  0  0  0  0  0  0  0  0
    3.5652    1.2536    0.0000 H   0  0  0  0  0  0  0  0  0  0  0  0
    1.9622   -1.5304    0.0000 H   0  0  0  0  0  0  0  0  0  0  0  0
    5.1697    0.3315    0.0000 H   0  0  0  0  0  0  0  0  0  0  0  0
    3.5724   -2.4567    0.0000 H   0  0  0  0  0  0  0  0  0  0  0  0
    5.1773   -1.5205    0.0000 H   0  0  0  0  0  0  0  0  0  0  0  0
  1  2  1  0  0  0  0
  1  3  1  0  0  0  0
  1  4  1  0  0  0  0
  1  5  1  0  0  0  0
  2  6  2  0  0  0  0
  2  7  1  0  0  0  0
  3  8  1  0  0  0  0
  3 26  1  0  0  0  0
  3 27  1  0  0  0  0
  4  9  1  0  0  0  0
  4 10  1  0  0  0  0
  4 28  1  0  0  0  0
  5 11  3  0  0  0  0
  6 12  1  0  0  0  0
  6 29  1  0  0  0  0
  7 13  2  0  0  0  0
  7 30  1  0  0  0  0
  8 14  1  0  0  0  0
  8 31  1  0  0  0  0
  8 32  1  0  0  0  0
  9 33  1  0  0  0  0
  9 34  1  0  0  0  0
  9 35  1  0  0  0  0
 10 36  1  0  0  0  0
 10 37  1  0  0  0  0
 10 38  1  0  0  0  0
 12 15  2  0  0  0  0
 12 39  1  0  0  0  0
 13 15  1  0  0  0  0
 13 40  1  0  0  0  0
 14 16  1  0  0  0  0
 14 41  1  0  0  0  0
 14 42  1  0  0  0  0
 15 43  1  0  0  0  0
 16 17  1  0  0  0  0
 16 18  1  0  0  0  0
 17 19  1  0  0  0  0
 17 44  1  0  0  0  0
 17 45  1  0  0  0  0
 18 46  1  0  0  0  0
 18 47  1  0  0  0  0
 18 48  1  0  0  0  0
 19 20  1  0  0  0  0
 19 49  1  0  0  0  0
 19 50  1  0  0  0  0
 20 21  1  0  0  0  0
 20 22  2  0  0  0  0
 21 23  2  0  0  0  0
 21 51  1  0  0  0  0
 22 24  1  0  0  0  0
 22 52  1  0  0  0  0
 23 25  1  0  0  0  0
 23 53  1  0  0  0  0
 24 25  2  0  0  0  0
 24 54  1  0  0  0  0
 25 55  1  0  0  0  0
M  END
>  <DRUGBANK_ID>
DB14064

>  <COMMON_NAME>
Emopamil

>  <CAS_NUMBER>
78370-13-5

>  <UNII>
M514041RF7

>  <SYNONYMS>
Emopamil; Emopamilo; Emopamilum

$$$$
