FBR
 OpenBabel10282417072D

 39 41  0  0  0  0  0  0  0  0999 V2000
    3.1412   -0.9430    0.0000 C   0  0  2  0  0  0  0  0  0  0  0  0
    3.9482   -0.7714    0.0000 C   0  0  0  0  0  0  0  0  0  0  0  0
    4.5002   -1.3845    0.0000 C   0  0  0  0  0  0  0  0  0  0  0  0
    4.2453   -2.1691    0.0000 C   0  0  0  0  0  0  0  0  0  0  0  0
    4.7973   -2.7822    0.0000 O   0  0  0  0  0  0  0  0  0  0  0  0
    3.4383   -2.3407    0.0000 C   0  0  0  0  0  0  0  0  0  0  0  0
    3.1834   -3.1253    0.0000 Br  0  0  0  0  0  0  0  0  0  0  0  0
    2.8863   -1.7276    0.0000 C   0  0  0  0  0  0  0  0  0  0  0  0
    2.0613   -1.7276    0.0000 C   0  0  0  0  0  0  0  0  0  0  0  0
    1.5093   -2.3407    0.0000 C   0  0  0  0  0  0  0  0  0  0  0  0
    0.7023   -2.1691    0.0000 C   0  0  0  0  0  0  0  0  0  0  0  0
    0.4473   -1.3845    0.0000 C   0  0  0  0  0  0  0  0  0  0  0  0
   -0.3596   -1.2130    0.0000 O   0  0  0  0  0  0  0  0  0  0  0  0
    0.9994   -0.7714    0.0000 C   0  0  0  0  0  0  0  0  0  0  0  0
    1.8063   -0.9430    0.0000 C   0  0  0  0  0  0  0  0  0  0  0  0
    2.4738   -0.4580    0.0000 C   0  0  0  0  0  0  0  0  0  0  0  0
    3.3128   -0.1360    0.0000 C   0  0  0  0  0  0  0  0  0  0  0  0
    2.6997    0.4161    0.0000 C   0  0  0  0  0  0  0  0  0  0  0  0
    2.8712    1.2230    0.0000 C   0  0  0  0  0  0  0  0  0  0  0  0
    2.2581    1.7751    0.0000 C   0  0  0  0  0  0  0  0  0  0  0  0
    4.2788    0.2462    0.0000 H   0  0  0  0  0  0  0  0  0  0  0  0
    4.9948   -0.5489    0.0000 H   0  0  0  0  0  0  0  0  0  0  0  0
    5.5468   -1.1620    0.0000 H   0  0  0  0  0  0  0  0  0  0  0  0
    5.2162   -2.1797    0.0000 H   0  0  0  0  0  0  0  0  0  0  0  0
    1.8282   -3.3222    0.0000 H   0  0  0  0  0  0  0  0  0  0  0  0
    0.0118   -2.9360    0.0000 H   0  0  0  0  0  0  0  0  0  0  0  0
   -0.6492   -0.3219    0.0000 H   0  0  0  0  0  0  0  0  0  0  0  0
    0.6806    0.2101    0.0000 H   0  0  0  0  0  0  0  0  0  0  0  0
    2.4738    0.6120    0.0000 H   0  0  0  0  0  0  0  0  0  0  0  0
    1.5204    0.0278    0.0000 H   0  0  0  0  0  0  0  0  0  0  0  0
    4.3305    0.1946    0.0000 H   0  0  0  0  0  0  0  0  0  0  0  0
    3.5353    0.9106    0.0000 H   0  0  0  0  0  0  0  0  0  0  0  0
    1.6821    0.0855    0.0000 H   0  0  0  0  0  0  0  0  0  0  0  0
    1.9045    1.1321    0.0000 H   0  0  0  0  0  0  0  0  0  0  0  0
    3.8888    1.5536    0.0000 H   0  0  0  0  0  0  0  0  0  0  0  0
    3.0937    2.2696    0.0000 H   0  0  0  0  0  0  0  0  0  0  0  0
    2.4806    2.8217    0.0000 H   0  0  0  0  0  0  0  0  0  0  0  0
    1.2405    1.4445    0.0000 H   0  0  0  0  0  0  0  0  0  0  0  0
    1.4630    2.4911    0.0000 H   0  0  0  0  0  0  0  0  0  0  0  0
  1  2  1  0  0  0  0
  1  8  1  0  0  0  0
  1 16  1  0  0  0  0
  1 17  1  1  0  0  0
  2  3  1  0  0  0  0
  2 21  1  0  0  0  0
  2 22  1  0  0  0  0
  3  4  1  0  0  0  0
  3 23  1  0  0  0  0
  3 24  1  0  0  0  0
  4  5  2  0  0  0  0
  4  6  1  0  0  0  0
  6  7  1  0  0  0  0
  6  8  2  0  0  0  0
  8  9  1  0  0  0  0
  9 10  2  0  0  0  0
  9 15  1  0  0  0  0
 10 11  1  0  0  0  0
 10 25  1  0  0  0  0
 11 12  2  0  0  0  0
 11 26  1  0  0  0  0
 12 13  1  0  0  0  0
 12 14  1  0  0  0  0
 13 27  1  0  0  0  0
 14 15  2  0  0  0  0
 14 28  1  0  0  0  0
 15 16  1  0  0  0  0
 16 29  1  0  0  0  0
 16 30  1  0  0  0  0
 17 18  1  0  0  0  0
 17 31  1  0  0  0  0
 17 32  1  0  0  0  0
 18 19  1  0  0  0  0
 18 33  1  0  0  0  0
 18 34  1  0  0  0  0
 19 20  1  0  0  0  0
 19 35  1  0  0  0  0
 19 36  1  0  0  0  0
 20 37  1  0  0  0  0
 20 38  1  0  0  0  0
 20 39  1  0  0  0  0
M  END
>  <DRUGBANK_ID>
DB07757

>  <COMMON_NAME>
(9aS)-4-bromo-9a-butyl-7-hydroxy-1,2,9,9a-tetrahydro-3H-fluoren-3-one

$$$$
