RF2
 OpenBabel10282417072D

 28 30  0  0  0  0  0  0  0  0999 V2000
   -0.1531    1.6474    0.0000 C   0  0  0  0  0  0  0  0  0  0  0  0
   -0.1531    2.4724    0.0000 C   0  0  0  0  0  0  0  0  0  0  0  0
   -0.8676    2.8849    0.0000 C   0  0  0  0  0  0  0  0  0  0  0  0
   -0.8676    3.7099    0.0000 F   0  0  0  0  0  0  0  0  0  0  0  0
   -1.5821    2.4724    0.0000 C   0  0  0  0  0  0  0  0  0  0  0  0
   -1.5821    1.6474    0.0000 C   0  0  0  0  0  0  0  0  0  0  0  0
   -0.8676    1.2349    0.0000 C   0  0  0  0  0  0  0  0  0  0  0  0
   -0.8676    0.4099    0.0000 C   0  0  0  0  0  0  0  0  0  0  0  0
   -0.2002   -0.0750    0.0000 N   0  0  0  0  0  0  0  0  0  0  0  0
   -1.5350   -0.0750    0.0000 N   0  0  0  0  0  0  0  0  0  0  0  0
   -1.2801   -0.8597    0.0000 N   0  0  0  0  0  0  0  0  0  0  0  0
   -0.4551   -0.8597    0.0000 C   0  0  0  0  0  0  0  0  0  0  0  0
    0.0298   -1.5271    0.0000 C   0  0  0  0  0  0  0  0  0  0  0  0
   -0.3057   -2.2808    0.0000 C   0  0  0  0  0  0  0  0  0  0  0  0
    0.1792   -2.9482    0.0000 C   0  0  0  0  0  0  0  0  0  0  0  0
    0.9997   -2.8620    0.0000 C   0  0  0  0  0  0  0  0  0  0  0  0
    1.3352   -2.1083    0.0000 C   0  0  0  0  0  0  0  0  0  0  0  0
    0.8503   -1.4409    0.0000 C   0  0  0  0  0  0  0  0  0  0  0  0
    0.7406    1.1314    0.0000 H   0  0  0  0  0  0  0  0  0  0  0  0
    0.7406    2.9884    0.0000 H   0  0  0  0  0  0  0  0  0  0  0  0
   -2.4758    2.9884    0.0000 H   0  0  0  0  0  0  0  0  0  0  0  0
   -2.4758    1.1314    0.0000 H   0  0  0  0  0  0  0  0  0  0  0  0
    0.7361    0.2293    0.0000 H   0  0  0  0  0  0  0  0  0  0  0  0
   -1.3320   -2.3887    0.0000 H   0  0  0  0  0  0  0  0  0  0  0  0
   -0.2406   -3.8910    0.0000 H   0  0  0  0  0  0  0  0  0  0  0  0
    1.6063   -3.6969    0.0000 H   0  0  0  0  0  0  0  0  0  0  0  0
    2.3615   -2.0004    0.0000 H   0  0  0  0  0  0  0  0  0  0  0  0
    1.2701   -0.4981    0.0000 H   0  0  0  0  0  0  0  0  0  0  0  0
  1  7  2  0  0  0  0
  1  2  1  0  0  0  0
  1 19  1  0  0  0  0
  2  3  2  0  0  0  0
  2 20  1  0  0  0  0
  3  5  1  0  0  0  0
  3  4  1  0  0  0  0
  5 21  1  0  0  0  0
  6  5  2  0  0  0  0
  6 22  1  0  0  0  0
  7  6  1  0  0  0  0
  8  7  1  0  0  0  0
  8  9  1  0  0  0  0
  9 23  1  0  0  0  0
 10  8  2  0  0  0  0
 11 10  1  0  0  0  0
 11 12  2  0  0  0  0
 12  9  1  0  0  0  0
 13 12  1  0  0  0  0
 13 18  1  0  0  0  0
 14 13  2  0  0  0  0
 14 24  1  0  0  0  0
 15 14  1  0  0  0  0
 15 16  2  0  0  0  0
 15 25  1  0  0  0  0
 16 17  1  0  0  0  0
 16 26  1  0  0  0  0
 17 18  2  0  0  0  0
 17 27  1  0  0  0  0
 18 28  1  0  0  0  0
M  END
>  <DRUGBANK_ID>
DB08470

>  <COMMON_NAME>
3-(4-fluorophenyl)-5-phenyl-4H-1,2,4-triazole

$$$$
