
 OpenBabel10282417072D

217218  0  0  0  0  0  0  0  0999 V2000
  -16.1903    1.0279    0.0000 N   0  0  0  0  0  0  0  0  0  0  0  0
  -16.1903    0.2203    0.0000 C   0  0  1  0  0  0  0  0  0  0  0  0
  -16.9245   -0.2202    0.0000 C   0  0  0  0  0  0  0  0  0  0  0  0
  -17.6221    0.2203    0.0000 C   0  0  0  0  0  0  0  0  0  0  0  0
  -18.3562   -0.2202    0.0000 N   0  0  0  0  0  0  0  0  0  0  0  0
  -17.6221    1.0279    0.0000 O   0  0  0  0  0  0  0  0  0  0  0  0
  -15.4927   -0.2202    0.0000 C   0  0  0  0  0  0  0  0  0  0  0  0
  -15.4927   -1.0279    0.0000 O   0  0  0  0  0  0  0  0  0  0  0  0
  -14.7585    0.2203    0.0000 N   0  0  0  0  0  0  0  0  0  0  0  0
  -14.0242   -0.2202    0.0000 C   0  0  1  0  0  0  0  0  0  0  0  0
  -14.0242   -1.0279    0.0000 C   0  0  0  0  0  0  0  0  0  0  0  0
  -13.3267   -1.4317    0.0000 C   0  0  0  0  0  0  0  0  0  0  0  0
  -12.5923   -1.0279    0.0000 O   0  0  0  0  0  0  0  0  0  0  0  0
  -13.3267   -2.2762    0.0000 O   0  0  0  0  0  0  0  0  0  0  0  0
  -13.3267    0.2203    0.0000 C   0  0  0  0  0  0  0  0  0  0  0  0
  -13.3267    1.0279    0.0000 O   0  0  0  0  0  0  0  0  0  0  0  0
  -12.5923   -0.2202    0.0000 N   0  0  0  0  0  0  0  0  0  0  0  0
  -11.8948    0.2203    0.0000 C   0  0  1  0  0  0  0  0  0  0  0  0
  -11.8948    1.0279    0.0000 C   0  0  0  0  0  0  0  0  0  0  0  0
  -11.1606    1.4684    0.0000 C   0  0  0  0  0  0  0  0  0  0  0  0
  -11.1606    2.2762    0.0000 C   0  0  0  0  0  0  0  0  0  0  0  0
  -11.8948    2.7167    0.0000 O   0  0  0  0  0  0  0  0  0  0  0  0
  -10.4264    2.7167    0.0000 O   0  0  0  0  0  0  0  0  0  0  0  0
  -11.1606   -0.2202    0.0000 C   0  0  0  0  0  0  0  0  0  0  0  0
  -11.1606   -1.0279    0.0000 O   0  0  0  0  0  0  0  0  0  0  0  0
  -10.4264    0.2203    0.0000 N   0  0  0  0  0  0  0  0  0  0  0  0
   -9.7288   -0.2202    0.0000 C   0  0  1  0  0  0  0  0  0  0  0  0
   -9.7288   -1.0279    0.0000 C   0  0  0  0  0  0  0  0  0  0  0  0
   -7.9299   -2.7167    0.0000 S   0  0  0  0  0  0  0  0  0  0  0  0
   -8.9946    0.2203    0.0000 C   0  0  0  0  0  0  0  0  0  0  0  0
   -8.9946    1.0279    0.0000 O   0  0  0  0  0  0  0  0  0  0  0  0
   -8.2603   -0.2202    0.0000 N   0  0  0  0  0  0  0  0  0  0  0  0
   -7.5628    0.2203    0.0000 C   0  0  1  0  0  0  0  0  0  0  0  0
   -7.5628    1.0279    0.0000 C   0  0  0  0  0  0  0  0  0  0  0  0
   -6.8286    1.4684    0.0000 C   0  0  0  0  0  0  0  0  0  0  0  0
   -6.8286    2.2762    0.0000 C   0  0  0  0  0  0  0  0  0  0  0  0
   -7.5628    2.7167    0.0000 O   0  0  0  0  0  0  0  0  0  0  0  0
   -6.1310    2.7167    0.0000 O   0  0  0  0  0  0  0  0  0  0  0  0
   -6.8286   -0.2202    0.0000 C   0  0  0  0  0  0  0  0  0  0  0  0
   -6.8286   -1.0279    0.0000 O   0  0  0  0  0  0  0  0  0  0  0  0
   -6.1310    0.2203    0.0000 N   0  0  0  0  0  0  0  0  0  0  0  0
   -5.3967   -0.2202    0.0000 C   0  0  1  0  0  0  0  0  0  0  0  0
   -5.3967   -1.0279    0.0000 C   0  0  0  0  0  0  0  0  0  0  0  0
   -4.6624   -1.4317    0.0000 C   0  0  0  0  0  0  0  0  0  0  0  0
   -3.9649   -1.0279    0.0000 C   0  0  0  0  0  0  0  0  0  0  0  0
   -4.6624   -2.2762    0.0000 C   0  0  0  0  0  0  0  0  0  0  0  0
   -4.6624    0.2203    0.0000 C   0  0  0  0  0  0  0  0  0  0  0  0
   -4.6624    1.0279    0.0000 O   0  0  0  0  0  0  0  0  0  0  0  0
   -3.9649   -0.2202    0.0000 N   0  0  0  0  0  0  0  0  0  0  0  0
   -3.2307    0.2203    0.0000 C   0  0  1  0  0  0  0  0  0  0  0  0
   -3.1572    1.7622    0.0000 C   0  0  0  0  0  0  0  0  0  0  0  0
   -1.6520    2.6800    0.0000 S   0  0  0  0  0  0  0  0  0  0  0  0
   -2.5331   -0.2202    0.0000 C   0  0  0  0  0  0  0  0  0  0  0  0
   -2.5331   -1.0279    0.0000 O   0  0  0  0  0  0  0  0  0  0  0  0
   -1.7989    0.2203    0.0000 N   0  0  0  0  0  0  0  0  0  0  0  0
   -1.0646   -0.2202    0.0000 C   0  0  1  0  0  0  0  0  0  0  0  0
   -1.0646   -1.0279    0.0000 C   0  0  0  0  0  0  0  0  0  0  0  0
   -0.3672   -1.4317    0.0000 C   0  0  0  0  0  0  0  0  0  0  0  0
   -1.7989   -1.4317    0.0000 C   0  0  0  0  0  0  0  0  0  0  0  0
   -0.3672    0.2203    0.0000 C   0  0  0  0  0  0  0  0  0  0  0  0
   -0.3672    1.0279    0.0000 O   0  0  0  0  0  0  0  0  0  0  0  0
    0.3671   -0.2202    0.0000 N   0  0  0  0  0  0  0  0  0  0  0  0
    1.0646    0.2203    0.0000 C   0  0  1  0  0  0  0  0  0  0  0  0
    1.0646    1.0279    0.0000 C   0  0  0  0  0  0  0  0  0  0  0  0
    1.7988    1.4684    0.0000 C   0  0  0  0  0  0  0  0  0  0  0  0
    1.7988    2.2762    0.0000 N   0  0  0  0  0  0  0  0  0  0  0  0
    2.5330    1.0279    0.0000 O   0  0  0  0  0  0  0  0  0  0  0  0
    1.7988   -0.2202    0.0000 C   0  0  0  0  0  0  0  0  0  0  0  0
    1.7988   -1.0279    0.0000 O   0  0  0  0  0  0  0  0  0  0  0  0
    2.5330    0.2203    0.0000 N   0  0  0  0  0  0  0  0  0  0  0  0
    3.2307   -0.2202    0.0000 C   0  0  1  0  0  0  0  0  0  0  0  0
    3.2307   -1.0279    0.0000 C   0  0  0  0  0  0  0  0  0  0  0  0
    3.9649   -1.4317    0.0000 C   0  0  0  0  0  0  0  0  0  0  0  0
    2.5330   -1.4317    0.0000 C   0  0  0  0  0  0  0  0  0  0  0  0
    3.9649    0.2203    0.0000 C   0  0  0  0  0  0  0  0  0  0  0  0
    3.9649    1.0279    0.0000 O   0  0  0  0  0  0  0  0  0  0  0  0
    4.6624   -0.2202    0.0000 N   0  0  0  0  0  0  0  0  0  0  0  0
    5.3967    0.2203    0.0000 C   0  0  1  0  0  0  0  0  0  0  0  0
    5.3967    1.0279    0.0000 C   0  0  0  0  0  0  0  0  0  0  0  0
    6.1310   -0.2202    0.0000 C   0  0  0  0  0  0  0  0  0  0  0  0
    6.1310   -1.0279    0.0000 O   0  0  0  0  0  0  0  0  0  0  0  0
    6.8285    0.2203    0.0000 N   0  0  0  0  0  0  0  0  0  0  0  0
    7.5628   -0.2202    0.0000 C   0  0  1  0  0  0  0  0  0  0  0  0
    7.5628   -1.0279    0.0000 C   0  0  0  0  0  0  0  0  0  0  0  0
    9.0679   -2.5331    0.0000 S   0  0  0  0  0  0  0  0  0  0  0  0
    8.2602    0.2203    0.0000 C   0  0  0  0  0  0  0  0  0  0  0  0
    8.2602    1.0279    0.0000 O   0  0  0  0  0  0  0  0  0  0  0  0
    8.9945   -0.2202    0.0000 N   0  0  0  0  0  0  0  0  0  0  0  0
    9.7288    0.2203    0.0000 C   0  0  1  0  0  0  0  0  0  0  0  0
    9.7288    1.0279    0.0000 C   0  0  2  0  0  0  0  0  0  0  0  0
   10.4263    1.4684    0.0000 O   0  0  0  0  0  0  0  0  0  0  0  0
    8.9945    1.4684    0.0000 C   0  0  0  0  0  0  0  0  0  0  0  0
   10.4263   -0.2202    0.0000 C   0  0  0  0  0  0  0  0  0  0  0  0
   10.4263   -1.0279    0.0000 O   0  0  0  0  0  0  0  0  0  0  0  0
   11.1605    0.2203    0.0000 N   0  0  0  0  0  0  0  0  0  0  0  0
   11.8948   -0.2202    0.0000 C   0  0  0  0  0  0  0  0  0  0  0  0
   12.5923    0.2203    0.0000 C   0  0  0  0  0  0  0  0  0  0  0  0
   12.5923    1.0279    0.0000 O   0  0  0  0  0  0  0  0  0  0  0  0
   13.3267   -0.2202    0.0000 N   0  0  0  0  0  0  0  0  0  0  0  0
   14.0242    0.2203    0.0000 C   0  0  1  0  0  0  0  0  0  0  0  0
   13.9874    1.5419    0.0000 C   0  0  0  0  0  0  0  0  0  0  0  0
   15.3458    2.6433    0.0000 S   0  0  0  0  0  0  0  0  0  0  0  0
   14.7585   -0.2202    0.0000 C   0  0  0  0  0  0  0  0  0  0  0  0
   14.7585   -1.0279    0.0000 O   0  0  0  0  0  0  0  0  0  0  0  0
   15.4926    0.2203    0.0000 N   0  0  0  0  0  0  0  0  0  0  0  0
   16.1903   -0.2202    0.0000 C   0  0  1  0  0  0  0  0  0  0  0  0
   16.9245    0.2203    0.0000 C   0  0  0  0  0  0  0  0  0  0  0  0
   17.6220   -0.2202    0.0000 C   0  0  0  0  0  0  0  0  0  0  0  0
   18.3562    0.2203    0.0000 C   0  0  0  0  0  0  0  0  0  0  0  0
   17.6220   -1.0279    0.0000 C   0  0  0  0  0  0  0  0  0  0  0  0
   16.1903   -1.0279    0.0000 C   0  0  0  0  0  0  0  0  0  0  0  0
   16.9245   -1.4317    0.0000 O   0  0  0  0  0  0  0  0  0  0  0  0
   15.4926   -1.4317    0.0000 O   0  0  0  0  0  0  0  0  0  0  0  0
    8.8477    0.7342    0.0000 H   0  0  0  0  0  0  0  0  0  0  0  0
    6.6816   -0.6975    0.0000 H   0  0  0  0  0  0  0  0  0  0  0  0
   -3.2307   -0.8076    0.0000 H   0  0  0  0  0  0  0  0  0  0  0  0
  -15.3070    1.5379    0.0000 H   0  0  0  0  0  0  0  0  0  0  0  0
  -17.0736    1.5379    0.0000 H   0  0  0  0  0  0  0  0  0  0  0  0
  -17.1214    0.7475    0.0000 H   0  0  0  0  0  0  0  0  0  0  0  0
  -16.9367   -1.2901    0.0000 H   0  0  0  0  0  0  0  0  0  0  0  0
  -17.8645   -0.7314    0.0000 H   0  0  0  0  0  0  0  0  0  0  0  0
  -19.2170    0.2576    0.0000 H   0  0  0  0  0  0  0  0  0  0  0  0
  -18.3396   -1.2046    0.0000 H   0  0  0  0  0  0  0  0  0  0  0  0
  -14.7585    1.2048    0.0000 H   0  0  0  0  0  0  0  0  0  0  0  0
  -14.9553   -0.7474    0.0000 H   0  0  0  0  0  0  0  0  0  0  0  0
  -14.9512   -1.5624    0.0000 H   0  0  0  0  0  0  0  0  0  0  0  0
  -14.0251   -2.0979    0.0000 H   0  0  0  0  0  0  0  0  0  0  0  0
  -11.7908   -1.5132    0.0000 H   0  0  0  0  0  0  0  0  0  0  0  0
  -12.5810   -1.2046    0.0000 H   0  0  0  0  0  0  0  0  0  0  0  0
  -12.8319    0.7368    0.0000 H   0  0  0  0  0  0  0  0  0  0  0  0
  -12.8259    1.5551    0.0000 H   0  0  0  0  0  0  0  0  0  0  0  0
  -11.9083    2.0978    0.0000 H   0  0  0  0  0  0  0  0  0  0  0  0
  -10.2295    0.9412    0.0000 H   0  0  0  0  0  0  0  0  0  0  0  0
  -10.2362    2.0073    0.0000 H   0  0  0  0  0  0  0  0  0  0  0  0
  -11.8791    3.6536    0.0000 H   0  0  0  0  0  0  0  0  0  0  0  0
  -10.4152    1.2047    0.0000 H   0  0  0  0  0  0  0  0  0  0  0  0
  -10.6659   -0.7367    0.0000 H   0  0  0  0  0  0  0  0  0  0  0  0
  -10.7108   -1.4529    0.0000 H   0  0  0  0  0  0  0  0  0  0  0  0
   -9.9127   -2.0820    0.0000 H   0  0  0  0  0  0  0  0  0  0  0  0
   -8.2490   -1.2046    0.0000 H   0  0  0  0  0  0  0  0  0  0  0  0
   -8.4999    0.7368    0.0000 H   0  0  0  0  0  0  0  0  0  0  0  0
   -8.4939    1.5551    0.0000 H   0  0  0  0  0  0  0  0  0  0  0  0
   -7.5763    2.0978    0.0000 H   0  0  0  0  0  0  0  0  0  0  0  0
   -5.8975    0.9412    0.0000 H   0  0  0  0  0  0  0  0  0  0  0  0
   -5.9042    2.0073    0.0000 H   0  0  0  0  0  0  0  0  0  0  0  0
   -7.5471    3.6536    0.0000 H   0  0  0  0  0  0  0  0  0  0  0  0
   -6.1423    1.2047    0.0000 H   0  0  0  0  0  0  0  0  0  0  0  0
   -6.3278   -0.7474    0.0000 H   0  0  0  0  0  0  0  0  0  0  0  0
   -6.3177   -1.5725    0.0000 H   0  0  0  0  0  0  0  0  0  0  0  0
   -5.3800   -2.0978    0.0000 H   0  0  0  0  0  0  0  0  0  0  0  0
   -3.7354   -1.9662    0.0000 H   0  0  0  0  0  0  0  0  0  0  0  0
   -3.0376   -1.5618    0.0000 H   0  0  0  0  0  0  0  0  0  0  0  0
   -3.9662    0.0421    0.0000 H   0  0  0  0  0  0  0  0  0  0  0  0
   -3.0389   -0.4918    0.0000 H   0  0  0  0  0  0  0  0  0  0  0  0
   -5.5890   -2.8112    0.0000 H   0  0  0  0  0  0  0  0  0  0  0  0
   -3.7358   -2.8112    0.0000 H   0  0  0  0  0  0  0  0  0  0  0  0
   -4.6624   -3.3462    0.0000 H   0  0  0  0  0  0  0  0  0  0  0  0
   -3.9762   -1.2046    0.0000 H   0  0  0  0  0  0  0  0  0  0  0  0
   -4.0775    2.3081    0.0000 H   0  0  0  0  0  0  0  0  0  0  0  0
   -3.1637    2.8322    0.0000 H   0  0  0  0  0  0  0  0  0  0  0  0
   -1.7989    1.2048    0.0000 H   0  0  0  0  0  0  0  0  0  0  0  0
   -1.9957   -0.7474    0.0000 H   0  0  0  0  0  0  0  0  0  0  0  0
   -1.0764   -2.0978    0.0000 H   0  0  0  0  0  0  0  0  0  0  0  0
   -0.3685   -2.5017    0.0000 H   0  0  0  0  0  0  0  0  0  0  0  0
    0.5601   -0.8979    0.0000 H   0  0  0  0  0  0  0  0  0  0  0  0
    0.5588   -1.9679    0.0000 H   0  0  0  0  0  0  0  0  0  0  0  0
   -2.7142   -0.8775    0.0000 H   0  0  0  0  0  0  0  0  0  0  0  0
   -1.8212   -2.5015    0.0000 H   0  0  0  0  0  0  0  0  0  0  0  0
   -2.7365   -1.9473    0.0000 H   0  0  0  0  0  0  0  0  0  0  0  0
    0.3784   -1.2046    0.0000 H   0  0  0  0  0  0  0  0  0  0  0  0
    0.1275    0.7368    0.0000 H   0  0  0  0  0  0  0  0  0  0  0  0
    0.1335    1.5551    0.0000 H   0  0  0  0  0  0  0  0  0  0  0  0
    1.0511    2.0978    0.0000 H   0  0  0  0  0  0  0  0  0  0  0  0
    2.6514    2.7685    0.0000 H   0  0  0  0  0  0  0  0  0  0  0  0
    0.9462    2.7684    0.0000 H   0  0  0  0  0  0  0  0  0  0  0  0
    2.5442    1.2047    0.0000 H   0  0  0  0  0  0  0  0  0  0  0  0
    2.2937   -0.7368    0.0000 H   0  0  0  0  0  0  0  0  0  0  0  0
    3.2424   -2.0978    0.0000 H   0  0  0  0  0  0  0  0  0  0  0  0
    3.9871   -2.5015    0.0000 H   0  0  0  0  0  0  0  0  0  0  0  0
    4.8802   -0.8776    0.0000 H   0  0  0  0  0  0  0  0  0  0  0  0
    4.9025   -1.9473    0.0000 H   0  0  0  0  0  0  0  0  0  0  0  0
    1.6058   -0.8977    0.0000 H   0  0  0  0  0  0  0  0  0  0  0  0
    2.5341   -2.5017    0.0000 H   0  0  0  0  0  0  0  0  0  0  0  0
    1.6069   -1.9677    0.0000 H   0  0  0  0  0  0  0  0  0  0  0  0
    4.6511   -1.2046    0.0000 H   0  0  0  0  0  0  0  0  0  0  0  0
    4.4656    0.7475    0.0000 H   0  0  0  0  0  0  0  0  0  0  0  0
    6.3233    1.5629    0.0000 H   0  0  0  0  0  0  0  0  0  0  0  0
    4.4701    1.5629    0.0000 H   0  0  0  0  0  0  0  0  0  0  0  0
    5.3967    2.0979    0.0000 H   0  0  0  0  0  0  0  0  0  0  0  0
    6.8172    1.2047    0.0000 H   0  0  0  0  0  0  0  0  0  0  0  0
    6.5742   -1.4374    0.0000 H   0  0  0  0  0  0  0  0  0  0  0  0
    7.3540   -2.0773    0.0000 H   0  0  0  0  0  0  0  0  0  0  0  0
    8.9945   -1.2047    0.0000 H   0  0  0  0  0  0  0  0  0  0  0  0
   10.6659    0.5114    0.0000 H   0  0  0  0  0  0  0  0  0  0  0  0
   11.2849    1.0171    0.0000 H   0  0  0  0  0  0  0  0  0  0  0  0
    9.0124    2.5383    0.0000 H   0  0  0  0  0  0  0  0  0  0  0  0
    8.0590    0.9490    0.0000 H   0  0  0  0  0  0  0  0  0  0  0  0
    8.0769    2.0188    0.0000 H   0  0  0  0  0  0  0  0  0  0  0  0
   11.1605    1.2048    0.0000 H   0  0  0  0  0  0  0  0  0  0  0  0
   11.9071   -1.2901    0.0000 H   0  0  0  0  0  0  0  0  0  0  0  0
   12.8348   -0.7313    0.0000 H   0  0  0  0  0  0  0  0  0  0  0  0
   13.3380   -1.2046    0.0000 H   0  0  0  0  0  0  0  0  0  0  0  0
   14.0365   -0.8496    0.0000 H   0  0  0  0  0  0  0  0  0  0  0  0
   13.0152    1.9888    0.0000 H   0  0  0  0  0  0  0  0  0  0  0  0
   13.8538    2.6035    0.0000 H   0  0  0  0  0  0  0  0  0  0  0  0
   15.5038    1.2047    0.0000 H   0  0  0  0  0  0  0  0  0  0  0  0
   16.2025    0.8497    0.0000 H   0  0  0  0  0  0  0  0  0  0  0  0
   16.9367    1.2902    0.0000 H   0  0  0  0  0  0  0  0  0  0  0  0
   17.8645    0.7314    0.0000 H   0  0  0  0  0  0  0  0  0  0  0  0
   18.5531   -0.7474    0.0000 H   0  0  0  0  0  0  0  0  0  0  0  0
   19.2917   -0.2991    0.0000 H   0  0  0  0  0  0  0  0  0  0  0  0
   18.3382    1.2901    0.0000 H   0  0  0  0  0  0  0  0  0  0  0  0
   19.2737    0.7708    0.0000 H   0  0  0  0  0  0  0  0  0  0  0  0
   16.6954   -1.5629    0.0000 H   0  0  0  0  0  0  0  0  0  0  0  0
   18.5486   -1.5629    0.0000 H   0  0  0  0  0  0  0  0  0  0  0  0
   17.6220   -2.0979    0.0000 H   0  0  0  0  0  0  0  0  0  0  0  0
   14.6806   -0.9641    0.0000 H   0  0  0  0  0  0  0  0  0  0  0  0
  1117  1  0  0  0  0
  1118  1  0  0  0  0
  2  1  1  0  0  0  0
  2  3  1  0  0  0  0
  2  7  1  0  0  0  0
  2119  1  1  0  0  0
  3  4  1  0  0  0  0
  3120  1  0  0  0  0
  3121  1  0  0  0  0
  4  5  1  0  0  0  0
  4  6  2  0  0  0  0
  5122  1  0  0  0  0
  5123  1  0  0  0  0
  7  8  2  0  0  0  0
  7  9  1  0  0  0  0
  9124  1  0  0  0  0
 10  9  1  0  0  0  0
 10 11  1  0  0  0  0
 10 15  1  0  0  0  0
 10125  1  1  0  0  0
 11 12  1  0  0  0  0
 11126  1  0  0  0  0
 11127  1  0  0  0  0
 12 13  1  0  0  0  0
 12 14  2  0  0  0  0
 13128  1  0  0  0  0
 15 16  2  0  0  0  0
 15 17  1  0  0  0  0
 17129  1  0  0  0  0
 18 17  1  0  0  0  0
 18 19  1  0  0  0  0
 18 24  1  0  0  0  0
 18130  1  6  0  0  0
 19 20  1  0  0  0  0
 19131  1  0  0  0  0
 19132  1  0  0  0  0
 20 21  1  0  0  0  0
 20133  1  0  0  0  0
 20134  1  0  0  0  0
 21 22  1  0  0  0  0
 21 23  2  0  0  0  0
 22135  1  0  0  0  0
 24 25  2  0  0  0  0
 24 26  1  0  0  0  0
 26136  1  0  0  0  0
 27 26  1  0  0  0  0
 27 28  1  0  0  0  0
 27 30  1  0  0  0  0
 27137  1  1  0  0  0
 28 29  1  0  0  0  0
 28138  1  0  0  0  0
 28139  1  0  0  0  0
 29 85  1  0  0  0  0
 30 31  2  0  0  0  0
 30 32  1  0  0  0  0
 32 33  1  0  0  0  0
 32140  1  0  0  0  0
 33 34  1  0  0  0  0
 33 39  1  0  0  0  0
 33141  1  6  0  0  0
 34 35  1  0  0  0  0
 34142  1  0  0  0  0
 34143  1  0  0  0  0
 35 36  1  0  0  0  0
 35144  1  0  0  0  0
 35145  1  0  0  0  0
 36 37  1  0  0  0  0
 36 38  2  0  0  0  0
 37146  1  0  0  0  0
 39 40  2  0  0  0  0
 39 41  1  0  0  0  0
 41 42  1  0  0  0  0
 41147  1  0  0  0  0
 42 43  1  0  0  0  0
 42 47  1  0  0  0  0
 42148  1  1  0  0  0
 43 44  1  0  0  0  0
 43149  1  0  0  0  0
 43150  1  0  0  0  0
 44 45  1  0  0  0  0
 44 46  1  0  0  0  0
 44151  1  0  0  0  0
 45152  1  0  0  0  0
 45153  1  0  0  0  0
 45154  1  0  0  0  0
 46155  1  0  0  0  0
 46156  1  0  0  0  0
 46157  1  0  0  0  0
 47 48  2  0  0  0  0
 47 49  1  0  0  0  0
 49 50  1  0  0  0  0
 49158  1  0  0  0  0
 50 51  1  0  0  0  0
 50 53  1  0  0  0  0
 50116  1  6  0  0  0
 51 52  1  0  0  0  0
 51159  1  0  0  0  0
 51160  1  0  0  0  0
 52102  1  0  0  0  0
 53 54  2  0  0  0  0
 53 55  1  0  0  0  0
 55 56  1  0  0  0  0
 55161  1  0  0  0  0
 56 57  1  0  0  0  0
 56 60  1  0  0  0  0
 56162  1  1  0  0  0
 57 58  1  0  0  0  0
 57 59  1  0  0  0  0
 57163  1  0  0  0  0
 58164  1  0  0  0  0
 58165  1  0  0  0  0
 58166  1  0  0  0  0
 59167  1  0  0  0  0
 59168  1  0  0  0  0
 59169  1  0  0  0  0
 60 61  2  0  0  0  0
 60 62  1  0  0  0  0
 62 63  1  0  0  0  0
 62170  1  0  0  0  0
 63 64  1  0  0  0  0
 63 68  1  0  0  0  0
 63171  1  6  0  0  0
 64 65  1  0  0  0  0
 64172  1  0  0  0  0
 64173  1  0  0  0  0
 65 66  1  0  0  0  0
 65 67  2  0  0  0  0
 66174  1  0  0  0  0
 66175  1  0  0  0  0
 68 69  2  0  0  0  0
 68 70  1  0  0  0  0
 70 71  1  0  0  0  0
 70176  1  0  0  0  0
 71 72  1  0  0  0  0
 71 75  1  0  0  0  0
 71177  1  1  0  0  0
 72 73  1  0  0  0  0
 72 74  1  0  0  0  0
 72178  1  0  0  0  0
 73179  1  0  0  0  0
 73180  1  0  0  0  0
 73181  1  0  0  0  0
 74182  1  0  0  0  0
 74183  1  0  0  0  0
 74184  1  0  0  0  0
 75 76  2  0  0  0  0
 75 77  1  0  0  0  0
 77 78  1  0  0  0  0
 77185  1  0  0  0  0
 78 79  1  0  0  0  0
 78 80  1  0  0  0  0
 78186  1  6  0  0  0
 79187  1  0  0  0  0
 79188  1  0  0  0  0
 79189  1  0  0  0  0
 80 81  2  0  0  0  0
 80 82  1  0  0  0  0
 82 83  1  0  0  0  0
 82190  1  0  0  0  0
 83 84  1  0  0  0  0
 83 86  1  0  0  0  0
 83115  1  1  0  0  0
 84 85  1  0  0  0  0
 84191  1  0  0  0  0
 84192  1  0  0  0  0
 86 87  2  0  0  0  0
 86 88  1  0  0  0  0
 88 89  1  0  0  0  0
 88193  1  0  0  0  0
 89 90  1  0  0  0  0
 89 93  1  0  0  0  0
 89114  1  6  0  0  0
 90 91  1  0  0  0  0
 90 92  1  0  0  0  0
 90194  1  6  0  0  0
 91195  1  0  0  0  0
 92196  1  0  0  0  0
 92197  1  0  0  0  0
 92198  1  0  0  0  0
 93 94  2  0  0  0  0
 93 95  1  0  0  0  0
 95 96  1  0  0  0  0
 95199  1  0  0  0  0
 96 97  1  0  0  0  0
 96200  1  0  0  0  0
 96201  1  0  0  0  0
 97 98  2  0  0  0  0
 97 99  1  0  0  0  0
 99100  1  0  0  0  0
 99202  1  0  0  0  0
100101  1  0  0  0  0
100103  1  0  0  0  0
100203  1  6  0  0  0
101102  1  0  0  0  0
101204  1  0  0  0  0
101205  1  0  0  0  0
103104  2  0  0  0  0
103105  1  0  0  0  0
105206  1  0  0  0  0
106105  1  0  0  0  0
106107  1  0  0  0  0
106111  1  0  0  0  0
106207  1  6  0  0  0
107108  1  0  0  0  0
107208  1  0  0  0  0
107209  1  0  0  0  0
108109  1  0  0  0  0
108110  1  0  0  0  0
108210  1  0  0  0  0
109211  1  0  0  0  0
109212  1  0  0  0  0
109213  1  0  0  0  0
110214  1  0  0  0  0
110215  1  0  0  0  0
110216  1  0  0  0  0
111112  2  0  0  0  0
111113  1  0  0  0  0
113217  1  0  0  0  0
M  END
>  <DRUGBANK_ID>
DB13170

>  <SECONDARY_ACCESSION_NUMBERS>
DB06377

>  <COMMON_NAME>
Plecanatide

>  <CAS_NUMBER>
467426-54-6

>  <UNII>
7IK8Z952OK

>  <SYNONYMS>
Guanilib; Plecanatide

$$$$
