
 OpenBabel10282417072D

 19 18  0  0  1  0  0  0  0  0999 V2000
    0.5230    0.5230    0.0000 C   0  0  0  0  0  0  0  0  0  0  0  0
    1.2375    0.1105    0.0000 C   0  0  0  0  0  0  0  0  0  0  0  0
    1.9520    0.5230    0.0000 O   0  0  0  0  0  0  0  0  0  0  0  0
    1.2375   -0.7145    0.0000 N   0  0  0  0  0  0  0  0  0  0  0  0
    1.9520   -1.1270    0.0000 C   0  0  1  0  0  0  0  0  0  0  0  0
    1.9520   -1.9520    0.0000 C   0  0  0  0  0  0  0  0  0  0  0  0
    2.6664   -2.3645    0.0000 O   0  0  0  0  0  0  0  0  0  0  0  0
    2.6664   -0.7145    0.0000 C   0  0  0  0  0  0  0  0  0  0  0  0
    2.6664    0.1105    0.0000 O   0  0  0  0  0  0  0  0  0  0  0  0
    3.3809   -1.1270    0.0000 O   0  0  0  0  0  0  0  0  0  0  0  0
    0.5230    1.5930    0.0000 H   0  0  0  0  0  0  0  0  0  0  0  0
   -0.4036   -0.0120    0.0000 H   0  0  0  0  0  0  0  0  0  0  0  0
   -0.4037    1.0580    0.0000 H   0  0  0  0  0  0  0  0  0  0  0  0
    0.3849   -1.2068    0.0000 H   0  0  0  0  0  0  0  0  0  0  0  0
    1.0254   -1.6620    0.0000 H   0  0  0  0  0  0  0  0  0  0  0  0
    1.0253   -2.4870    0.0000 H   0  0  0  0  0  0  0  0  0  0  0  0
    1.9520   -3.0220    0.0000 H   0  0  0  0  0  0  0  0  0  0  0  0
    2.6664   -3.3345    0.0000 H   0  0  0  0  0  0  0  0  0  0  0  0
    3.4779    0.5790    0.0000 H   0  0  0  0  0  0  0  0  0  0  0  0
  1  2  1  0  0  0  0
  1 11  1  0  0  0  0
  1 12  1  0  0  0  0
  1 13  1  0  0  0  0
  2  3  2  0  0  0  0
  2  4  1  0  0  0  0
  4 14  1  0  0  0  0
  5  4  1  0  0  0  0
  5  6  1  0  0  0  0
  5  8  1  0  0  0  0
  5 15  1  1  0  0  0
  6  7  1  0  0  0  0
  6 16  1  0  0  0  0
  6 17  1  0  0  0  0
  7 18  1  0  0  0  0
  8  9  1  0  0  0  0
  8 10  2  0  0  0  0
  9 19  1  0  0  0  0
M  END
>  <DRUGBANK_ID>
DB02340

>  <SECONDARY_ACCESSION_NUMBERS>
EXPT02839

>  <COMMON_NAME>
N-Acetyl-Serine

>  <CAS_NUMBER>
16354-58-8

>  <UNII>
W98518XGZ3

$$$$
