
 OpenBabel10282417072D

 55 57  0  0  0  0  0  0  0  0999 V2000
   -4.2315    1.6096    0.0000 C   0  0  0  0  0  0  0  0  0  0  0  0
   -5.0565    1.6096    0.0000 C   0  0  0  0  0  0  0  0  0  0  0  0
   -5.3115    0.8250    0.0000 C   0  0  0  0  0  0  0  0  0  0  0  0
   -4.6440    0.3401    0.0000 O   0  0  0  0  0  0  0  0  0  0  0  0
   -3.9766    0.8250    0.0000 C   0  0  3  0  0  0  0  0  0  0  0  0
   -3.2622    0.4125    0.0000 C   0  0  0  0  0  0  0  0  0  0  0  0
   -2.5477    0.8250    0.0000 N   0  0  0  0  0  0  0  0  0  0  0  0
   -1.8332    0.4125    0.0000 C   0  0  0  0  0  0  0  0  0  0  0  0
   -1.1187    0.8250    0.0000 C   0  0  0  0  0  0  0  0  0  0  0  0
   -0.4043    0.4125    0.0000 C   0  0  0  0  0  0  0  0  0  0  0  0
    0.3101    0.8250    0.0000 N   0  0  0  0  0  0  0  0  0  0  0  0
    1.0246    0.4125    0.0000 C   0  0  0  0  0  0  0  0  0  0  0  0
    2.4536    0.4125    0.0000 C   0  0  0  0  0  0  0  0  0  0  0  0
    1.7391    0.8250    0.0000 N   0  0  0  0  0  0  0  0  0  0  0  0
    1.0246   -0.4125    0.0000 N   0  0  0  0  0  0  0  0  0  0  0  0
    1.7391   -0.8250    0.0000 C   0  0  0  0  0  0  0  0  0  0  0  0
    2.4536   -0.4125    0.0000 C   0  0  0  0  0  0  0  0  0  0  0  0
    3.1680   -0.8250    0.0000 C   0  0  0  0  0  0  0  0  0  0  0  0
    3.8825   -0.4125    0.0000 C   0  0  0  0  0  0  0  0  0  0  0  0
    3.8825    0.4125    0.0000 C   0  0  0  0  0  0  0  0  0  0  0  0
    3.1680    0.8250    0.0000 C   0  0  0  0  0  0  0  0  0  0  0  0
    4.5970    0.8250    0.0000 O   0  0  0  0  0  0  0  0  0  0  0  0
    4.5970   -0.8250    0.0000 O   0  0  0  0  0  0  0  0  0  0  0  0
   -3.2622   -0.4125    0.0000 O   0  0  0  0  0  0  0  0  0  0  0  0
    1.7391   -1.6500    0.0000 N   0  0  0  0  0  0  0  0  0  0  0  0
    5.3115    0.4125    0.0000 C   0  0  0  0  0  0  0  0  0  0  0  0
    5.3115   -0.4125    0.0000 C   0  0  0  0  0  0  0  0  0  0  0  0
    0.3101    1.6500    0.0000 C   0  0  0  0  0  0  0  0  0  0  0  0
   -3.6026    2.4752    0.0000 H   0  0  0  0  0  0  0  0  0  0  0  0
   -3.1747    1.4422    0.0000 H   0  0  0  0  0  0  0  0  0  0  0  0
   -5.6854    2.4753    0.0000 H   0  0  0  0  0  0  0  0  0  0  0  0
   -6.1133    1.4423    0.0000 H   0  0  0  0  0  0  0  0  0  0  0  0
   -6.3291    0.4944    0.0000 H   0  0  0  0  0  0  0  0  0  0  0  0
   -5.4789   -0.2318    0.0000 H   0  0  0  0  0  0  0  0  0  0  0  0
   -4.9942    1.1557    0.0000 H   0  0  0  0  0  0  0  0  0  0  0  0
   -2.5477    1.8095    0.0000 H   0  0  0  0  0  0  0  0  0  0  0  0
   -1.8332   -0.6575    0.0000 H   0  0  0  0  0  0  0  0  0  0  0  0
   -0.9066   -0.1225    0.0000 H   0  0  0  0  0  0  0  0  0  0  0  0
   -1.1187    1.8950    0.0000 H   0  0  0  0  0  0  0  0  0  0  0  0
   -0.1920    1.3600    0.0000 H   0  0  0  0  0  0  0  0  0  0  0  0
   -0.4043   -0.6575    0.0000 H   0  0  0  0  0  0  0  0  0  0  0  0
    0.5224   -0.1225    0.0000 H   0  0  0  0  0  0  0  0  0  0  0  0
    3.1680   -1.8570    0.0000 H   0  0  0  0  0  0  0  0  0  0  0  0
    3.1680    1.8570    0.0000 H   0  0  0  0  0  0  0  0  0  0  0  0
    0.8865   -2.1423    0.0000 H   0  0  0  0  0  0  0  0  0  0  0  0
    2.5917   -2.1422    0.0000 H   0  0  0  0  0  0  0  0  0  0  0  0
    5.3115   -0.6575    0.0000 H   0  0  0  0  0  0  0  0  0  0  0  0
    6.2381    0.9475    0.0000 H   0  0  0  0  0  0  0  0  0  0  0  0
    6.2382   -0.1225    0.0000 H   0  0  0  0  0  0  0  0  0  0  0  0
    6.2381   -0.9475    0.0000 H   0  0  0  0  0  0  0  0  0  0  0  0
    5.3115    0.6575    0.0000 H   0  0  0  0  0  0  0  0  0  0  0  0
    6.2382    0.1225    0.0000 H   0  0  0  0  0  0  0  0  0  0  0  0
    1.2367    2.1850    0.0000 H   0  0  0  0  0  0  0  0  0  0  0  0
   -0.6165    2.1850    0.0000 H   0  0  0  0  0  0  0  0  0  0  0  0
    0.3101    2.7200    0.0000 H   0  0  0  0  0  0  0  0  0  0  0  0
  1  2  1  0  0  0  0
  1  5  1  0  0  0  0
  1 29  1  0  0  0  0
  1 30  1  0  0  0  0
  2  3  1  0  0  0  0
  2 31  1  0  0  0  0
  2 32  1  0  0  0  0
  3  4  1  0  0  0  0
  3 33  1  0  0  0  0
  3 34  1  0  0  0  0
  4  5  1  0  0  0  0
  5  6  1  0  0  0  0
  5 35  1  0  0  0  0
  6  7  1  0  0  0  0
  6 24  2  0  0  0  0
  7  8  1  0  0  0  0
  7 36  1  0  0  0  0
  8  9  1  0  0  0  0
  8 37  1  0  0  0  0
  8 38  1  0  0  0  0
  9 10  1  0  0  0  0
  9 39  1  0  0  0  0
  9 40  1  0  0  0  0
 10 11  1  0  0  0  0
 10 41  1  0  0  0  0
 10 42  1  0  0  0  0
 11 12  1  0  0  0  0
 11 28  1  0  0  0  0
 12 15  1  0  0  0  0
 13 14  1  0  0  0  0
 13 17  2  0  0  0  0
 13 21  1  0  0  0  0
 14 12  2  0  0  0  0
 15 16  2  0  0  0  0
 16 17  1  0  0  0  0
 16 25  1  0  0  0  0
 17 18  1  0  0  0  0
 18 19  2  0  0  0  0
 18 43  1  0  0  0  0
 19 20  1  0  0  0  0
 19 23  1  0  0  0  0
 20 21  2  0  0  0  0
 20 22  1  0  0  0  0
 21 44  1  0  0  0  0
 22 26  1  0  0  0  0
 23 27  1  0  0  0  0
 25 45  1  0  0  0  0
 25 46  1  0  0  0  0
 26 47  1  0  0  0  0
 26 48  1  0  0  0  0
 26 49  1  0  0  0  0
 27 50  1  0  0  0  0
 27 51  1  0  0  0  0
 27 52  1  0  0  0  0
 28 53  1  0  0  0  0
 28 54  1  0  0  0  0
 28 55  1  0  0  0  0
M  END
>  <DRUGBANK_ID>
DB00346

>  <SECONDARY_ACCESSION_NUMBERS>
APRD00490

>  <COMMON_NAME>
Alfuzosin

>  <CAS_NUMBER>
81403-80-7

>  <UNII>
90347YTW5F

>  <SYNONYMS>
(Â±)-N-[3-[(4-amino-6,7-dimethoxy-2-quinazolinyl)methylamino]propyl]tetrahydro-2-furamide; Alfuzosin; Alfuzosina; Alfuzosine; Alfuzosinum; N-[3-[(4-amino-6,7-dimethoxy-quinazolin-2-yl)- methyl-amino]propyl] tetrahydrofuran- 2-carboxamide

$$$$
