
 OpenBabel10282417072D

 48 49  0  0  0  0  0  0  0  0999 V2000
    0.8212    5.1777    0.0000 C   0  0  0  0  0  0  0  0  0  0  0  0
    0.1067    4.7652    0.0000 C   0  0  0  0  0  0  0  0  0  0  0  0
   -0.3058    5.4797    0.0000 C   0  0  0  0  0  0  0  0  0  0  0  0
    0.5192    4.0507    0.0000 C   0  0  0  0  0  0  0  0  0  0  0  0
   -0.6078    4.3527    0.0000 C   0  0  0  0  0  0  0  0  0  0  0  0
   -0.6078    3.5277    0.0000 C   0  0  0  0  0  0  0  0  0  0  0  0
   -1.3222    3.1152    0.0000 C   0  0  0  0  0  0  0  0  0  0  0  0
   -2.0367    3.5277    0.0000 C   0  0  0  0  0  0  0  0  0  0  0  0
   -2.0367    4.3527    0.0000 C   0  0  0  0  0  0  0  0  0  0  0  0
   -1.3222    4.7652    0.0000 C   0  0  0  0  0  0  0  0  0  0  0  0
   -1.3222    5.5902    0.0000 O   0  0  0  0  0  0  0  0  0  0  0  0
   -2.7512    4.7652    0.0000 C   0  0  0  0  0  0  0  0  0  0  0  0
   -3.4656    5.1777    0.0000 C   0  0  0  0  0  0  0  0  0  0  0  0
   -2.3387    5.4797    0.0000 C   0  0  0  0  0  0  0  0  0  0  0  0
   -3.1637    4.0507    0.0000 C   0  0  0  0  0  0  0  0  0  0  0  0
   -1.3222    2.2902    0.0000 C   0  0  0  0  0  0  0  0  0  0  0  0
   -0.6548    1.8053    0.0000 C   0  0  0  0  0  0  0  0  0  0  0  0
   -0.9097    1.0206    0.0000 S   0  0  0  0  0  0  0  0  0  0  0  0
   -1.7347    1.0206    0.0000 C   0  0  0  0  0  0  0  0  0  0  0  0
   -2.2197    0.3532    0.0000 C   0  0  0  0  0  0  0  0  0  0  0  0
   -1.8841   -0.4005    0.0000 N   0  0  0  0  0  0  0  0  0  0  0  0
   -1.9897    1.8053    0.0000 N   0  0  0  0  0  0  0  0  0  0  0  0
    1.7478    4.6427    0.0000 H   0  0  0  0  0  0  0  0  0  0  0  0
    0.8212    6.2477    0.0000 H   0  0  0  0  0  0  0  0  0  0  0  0
    1.7479    5.7127    0.0000 H   0  0  0  0  0  0  0  0  0  0  0  0
    0.2292    6.4063    0.0000 H   0  0  0  0  0  0  0  0  0  0  0  0
   -1.3758    5.4797    0.0000 H   0  0  0  0  0  0  0  0  0  0  0  0
   -0.8408    6.4064    0.0000 H   0  0  0  0  0  0  0  0  0  0  0  0
   -0.0158    3.1241    0.0000 H   0  0  0  0  0  0  0  0  0  0  0  0
    1.5892    4.0507    0.0000 H   0  0  0  0  0  0  0  0  0  0  0  0
    1.0542    3.1240    0.0000 H   0  0  0  0  0  0  0  0  0  0  0  0
    0.2859    3.0117    0.0000 H   0  0  0  0  0  0  0  0  0  0  0  0
   -2.9304    3.0117    0.0000 H   0  0  0  0  0  0  0  0  0  0  0  0
   -0.5107    6.0587    0.0000 H   0  0  0  0  0  0  0  0  0  0  0  0
   -3.4656    6.2477    0.0000 H   0  0  0  0  0  0  0  0  0  0  0  0
   -4.3923    4.6427    0.0000 H   0  0  0  0  0  0  0  0  0  0  0  0
   -4.3922    5.7127    0.0000 H   0  0  0  0  0  0  0  0  0  0  0  0
   -1.2687    5.4797    0.0000 H   0  0  0  0  0  0  0  0  0  0  0  0
   -2.8737    6.4063    0.0000 H   0  0  0  0  0  0  0  0  0  0  0  0
   -1.8037    6.4064    0.0000 H   0  0  0  0  0  0  0  0  0  0  0  0
   -4.2337    4.0507    0.0000 H   0  0  0  0  0  0  0  0  0  0  0  0
   -2.6287    3.1241    0.0000 H   0  0  0  0  0  0  0  0  0  0  0  0
   -3.6987    3.1240    0.0000 H   0  0  0  0  0  0  0  0  0  0  0  0
    0.3267    2.1242    0.0000 H   0  0  0  0  0  0  0  0  0  0  0  0
   -3.2838    0.4651    0.0000 H   0  0  0  0  0  0  0  0  0  0  0  0
   -2.8486   -0.5124    0.0000 H   0  0  0  0  0  0  0  0  0  0  0  0
   -2.4836   -1.2257    0.0000 H   0  0  0  0  0  0  0  0  0  0  0  0
   -0.8697   -0.5071    0.0000 H   0  0  0  0  0  0  0  0  0  0  0  0
  1  2  1  0  0  0  0
  1 23  1  0  0  0  0
  1 24  1  0  0  0  0
  1 25  1  0  0  0  0
  2  3  1  0  0  0  0
  2  4  1  0  0  0  0
  2  5  1  0  0  0  0
  3 26  1  0  0  0  0
  3 27  1  0  0  0  0
  3 28  1  0  0  0  0
  4 29  1  0  0  0  0
  4 30  1  0  0  0  0
  4 31  1  0  0  0  0
  5  6  2  0  0  0  0
  5 10  1  0  0  0  0
  6  7  1  0  0  0  0
  6 32  1  0  0  0  0
  7  8  2  0  0  0  0
  7 16  1  0  0  0  0
  8  9  1  0  0  0  0
  8 33  1  0  0  0  0
  9 10  2  0  0  0  0
  9 12  1  0  0  0  0
 10 11  1  0  0  0  0
 11 34  1  0  0  0  0
 12 13  1  0  0  0  0
 12 14  1  0  0  0  0
 12 15  1  0  0  0  0
 13 35  1  0  0  0  0
 13 36  1  0  0  0  0
 13 37  1  0  0  0  0
 14 38  1  0  0  0  0
 14 39  1  0  0  0  0
 14 40  1  0  0  0  0
 15 41  1  0  0  0  0
 15 42  1  0  0  0  0
 15 43  1  0  0  0  0
 16 17  2  0  0  0  0
 16 22  1  0  0  0  0
 17 18  1  0  0  0  0
 17 44  1  0  0  0  0
 18 19  1  0  0  0  0
 19 20  1  0  0  0  0
 19 22  2  0  0  0  0
 20 21  1  0  0  0  0
 20 45  1  0  0  0  0
 20 46  1  0  0  0  0
 21 47  1  0  0  0  0
 21 48  1  0  0  0  0
M  END
>  <DRUGBANK_ID>
DB16950

>  <COMMON_NAME>
BN-82451

>  <CAS_NUMBER>
335242-75-6

>  <UNII>
531B661QBY

>  <SYNONYMS>
4-(2-(aminomethyl)-1,3-thiazol-4-yl)-2,6-di(tert-butyl)phenol; Phenol, 4-(2-(aminomethyl)-4-thiazolyl)-2,6-bis(1,1-dimethylethyl)-

$$$$
