NDD
 OpenBabel10282417072D

 24 25  0  0  0  0  0  0  0  0999 V2000
   -0.7145   -0.8252    0.0000 C   0  0  0  0  0  0  0  0  0  0  0  0
   -1.4289   -0.4127    0.0000 C   0  0  0  0  0  0  0  0  0  0  0  0
   -1.4289    0.4123    0.0000 C   0  0  0  0  0  0  0  0  0  0  0  0
   -0.7145    0.8248    0.0000 C   0  0  0  0  0  0  0  0  0  0  0  0
    0.0000    0.4123    0.0000 C   0  0  0  0  0  0  0  0  0  0  0  0
    0.7145    0.8248    0.0000 C   0  0  0  0  0  0  0  0  0  0  0  0
    1.4289    0.4123    0.0000 C   0  0  0  0  0  0  0  0  0  0  0  0
    1.4289   -0.4127    0.0000 C   0  0  0  0  0  0  0  0  0  0  0  0
    0.7145   -0.8252    0.0000 C   0  0  0  0  0  0  0  0  0  0  0  0
    0.0000   -0.4127    0.0000 C   0  0  0  0  0  0  0  0  0  0  0  0
   -2.1434   -0.8252    0.0000 C   0  0  0  0  0  0  0  0  0  0  0  0
   -2.1434   -1.6502    0.0000 O   0  0  0  0  0  0  0  0  0  0  0  0
   -2.8579   -0.4127    0.0000 O   0  0  0  0  0  0  0  0  0  0  0  0
    2.1434    0.8248    0.0000 C   0  0  0  0  0  0  0  0  0  0  0  0
    2.1434    1.6498    0.0000 O   0  0  0  0  0  0  0  0  0  0  0  0
    2.8579    0.4123    0.0000 O   0  0  0  0  0  0  0  0  0  0  0  0
   -0.7145   -1.8572    0.0000 H   0  0  0  0  0  0  0  0  0  0  0  0
   -2.3226    0.9283    0.0000 H   0  0  0  0  0  0  0  0  0  0  0  0
   -0.7145    1.8568    0.0000 H   0  0  0  0  0  0  0  0  0  0  0  0
    0.7145    1.8568    0.0000 H   0  0  0  0  0  0  0  0  0  0  0  0
    2.3226   -0.9287    0.0000 H   0  0  0  0  0  0  0  0  0  0  0  0
    0.7145   -1.8572    0.0000 H   0  0  0  0  0  0  0  0  0  0  0  0
   -2.8579    0.5243    0.0000 H   0  0  0  0  0  0  0  0  0  0  0  0
    2.8579   -0.5247    0.0000 H   0  0  0  0  0  0  0  0  0  0  0  0
  1  2  2  0  0  0  0
  1 10  1  0  0  0  0
  1 17  1  0  0  0  0
  2  3  1  0  0  0  0
  2 11  1  0  0  0  0
  3  4  2  0  0  0  0
  3 18  1  0  0  0  0
  4  5  1  0  0  0  0
  4 19  1  0  0  0  0
  5  6  2  0  0  0  0
  5 10  1  0  0  0  0
  6  7  1  0  0  0  0
  6 20  1  0  0  0  0
  7  8  2  0  0  0  0
  7 14  1  0  0  0  0
  8  9  1  0  0  0  0
  8 21  1  0  0  0  0
  9 10  2  0  0  0  0
  9 22  1  0  0  0  0
 11 12  2  0  0  0  0
 11 13  1  0  0  0  0
 13 23  1  0  0  0  0
 14 15  2  0  0  0  0
 14 16  1  0  0  0  0
 16 24  1  0  0  0  0
M  END
>  <DRUGBANK_ID>
DB08262

>  <COMMON_NAME>
2,6-dicarboxynaphthalene

>  <CAS_NUMBER>
1141-38-4

>  <UNII>
K3C4DYZ29O

$$$$
