
 OpenBabel10282417072D

 21 20  0  0  1  0  0  0  0  0999 V2000
    2.1434   -0.1768    0.0000 O   0  0  0  0  0  0  0  0  0  0  0  0
    1.4289    0.2357    0.0000 C   0  0  0  0  0  0  0  0  0  0  0  0
    0.7145   -0.1768    0.0000 C   0  0  2  0  0  0  0  0  0  0  0  0
   -1.4289    0.2357    0.0000 S   0  0  1  0  0  0  0  0  0  0  0  0
    0.0000    0.2357    0.0000 C   0  0  0  0  0  0  0  0  0  0  0  0
   -0.7145   -0.1768    0.0000 C   0  0  0  0  0  0  0  0  0  0  0  0
   -2.1434   -0.1768    0.0000 C   0  0  0  0  0  0  0  0  0  0  0  0
    1.4289    1.0607    0.0000 O   0  0  0  0  0  0  0  0  0  0  0  0
    0.7145   -1.0018    0.0000 N   0  0  0  0  0  0  0  0  0  0  0  0
   -1.4289    1.0607    0.0000 O   0  0  0  0  0  0  0  0  0  0  0  0
    2.1434   -1.1138    0.0000 H   0  0  0  0  0  0  0  0  0  0  0  0
    1.6412   -0.7118    0.0000 H   0  0  0  0  0  0  0  0  0  0  0  0
    0.0000    1.3057    0.0000 H   0  0  0  0  0  0  0  0  0  0  0  0
   -0.9266    0.7707    0.0000 H   0  0  0  0  0  0  0  0  0  0  0  0
   -0.7145   -1.2468    0.0000 H   0  0  0  0  0  0  0  0  0  0  0  0
   -1.6412   -0.7118    0.0000 H   0  0  0  0  0  0  0  0  0  0  0  0
   -3.0700    0.3582    0.0000 H   0  0  0  0  0  0  0  0  0  0  0  0
   -2.1434   -1.2468    0.0000 H   0  0  0  0  0  0  0  0  0  0  0  0
   -3.0701   -0.7118    0.0000 H   0  0  0  0  0  0  0  0  0  0  0  0
   -0.1688   -1.5118    0.0000 H   0  0  0  0  0  0  0  0  0  0  0  0
    1.5978   -1.5118    0.0000 H   0  0  0  0  0  0  0  0  0  0  0  0
  1  2  1  0  0  0  0
  1 11  1  0  0  0  0
  2  8  2  0  0  0  0
  2  3  1  0  0  0  0
  3  9  1  0  0  0  0
  3  5  1  0  0  0  0
  3 12  1  6  0  0  0
  4 10  2  1  0  0  0
  4  6  1  0  0  0  0
  4  7  1  0  0  0  0
  5  6  1  0  0  0  0
  5 13  1  0  0  0  0
  5 14  1  0  0  0  0
  6 15  1  0  0  0  0
  6 16  1  0  0  0  0
  7 17  1  0  0  0  0
  7 18  1  0  0  0  0
  7 19  1  0  0  0  0
  9 20  1  0  0  0  0
  9 21  1  0  0  0  0
M  END
>  <DRUGBANK_ID>
DB02235

>  <SECONDARY_ACCESSION_NUMBERS>
EXPT02921

>  <COMMON_NAME>
L-methionine (R)-S-oxide

>  <CAS_NUMBER>
62697-73-8

>  <UNII>
O74B4F6OYL

>  <SYNONYMS>
Methionine Sulfoxide

$$$$
