
 OpenBabel10282417072D

 17 16  0  0  1  0  0  0  0  0999 V2000
   -1.4289    0.2062    0.0000 P   0  0  0  0  0  0  0  0  0  0  0  0
   -0.7145   -0.2062    0.0000 O   0  0  0  0  0  0  0  0  0  0  0  0
    0.7145   -0.2062    0.0000 C   0  0  2  0  0  0  0  0  0  0  0  0
    0.0000    0.2062    0.0000 C   0  0  0  0  0  0  0  0  0  0  0  0
   -2.1434   -0.2062    0.0000 O   0  0  0  0  0  0  0  0  0  0  0  0
    1.4289    0.2062    0.0000 C   0  0  0  0  0  0  0  0  0  0  0  0
    2.1434   -0.2062    0.0000 H   0  0  0  0  0  0  0  0  0  0  0  0
    0.7145   -1.0312    0.0000 O   0  0  0  0  0  0  0  0  0  0  0  0
   -1.4289    1.0312    0.0000 O   0  0  0  0  0  0  0  0  0  0  0  0
    1.4289    1.0312    0.0000 O   0  0  0  0  0  0  0  0  0  0  0  0
   -1.4289   -0.6187    0.0000 O   0  0  0  0  0  0  0  0  0  0  0  0
   -0.2121   -0.7413    0.0000 H   0  0  0  0  0  0  0  0  0  0  0  0
    0.0000    1.2762    0.0000 H   0  0  0  0  0  0  0  0  0  0  0  0
    0.9266    0.7413    0.0000 H   0  0  0  0  0  0  0  0  0  0  0  0
   -2.9834    0.2789    0.0000 H   0  0  0  0  0  0  0  0  0  0  0  0
   -0.1255   -1.5162    0.0000 H   0  0  0  0  0  0  0  0  0  0  0  0
   -2.2689   -1.1037    0.0000 H   0  0  0  0  0  0  0  0  0  0  0  0
  1 11  1  0  0  0  0
  2  1  1  0  0  0  0
  2  4  1  0  0  0  0
  3  8  1  0  0  0  0
  3  4  1  0  0  0  0
  3  6  1  0  0  0  0
  3 12  1  1  0  0  0
  4 13  1  0  0  0  0
  4 14  1  0  0  0  0
  5  1  1  0  0  0  0
  5 15  1  0  0  0  0
  6 10  2  0  0  0  0
  6  7  1  0  0  0  0
  8 16  1  0  0  0  0
  9  1  2  0  0  0  0
 11 17  1  0  0  0  0
M  END
>  <DRUGBANK_ID>
DB02263

>  <SECONDARY_ACCESSION_NUMBERS>
EXPT01530

>  <COMMON_NAME>
D-glyceraldehyde 3-phosphate

>  <CAS_NUMBER>
591-57-1

>  <UNII>
TD9ZNF8JPW

>  <SYNONYMS>
(2R)-2-Hydroxy-3-(phosphonooxy)-propanal; D-Glyceraldehyde 3-phosphate; Glyceraldehyde-3-phosphate

$$$$
