
 OpenBabel10282417072D

 54 58  0  0  0  0  0  0  0  0999 V2000
    2.7948   -3.2047    0.0000 C   0  0  0  0  0  0  0  0  0  0  0  0
    2.2428   -2.5916    0.0000 O   0  0  0  0  0  0  0  0  0  0  0  0
    1.4358   -2.7631    0.0000 C   0  0  0  0  0  0  0  0  0  0  0  0
    1.1809   -3.5477    0.0000 C   0  0  0  0  0  0  0  0  0  0  0  0
    0.3739   -3.7192    0.0000 C   0  0  0  0  0  0  0  0  0  0  0  0
    0.1190   -4.5039    0.0000 F   0  0  0  0  0  0  0  0  0  0  0  0
   -0.1781   -3.1062    0.0000 C   0  0  0  0  0  0  0  0  0  0  0  0
    0.0768   -2.3215    0.0000 C   0  0  0  0  0  0  0  0  0  0  0  0
    0.8838   -2.1500    0.0000 C   0  0  0  0  0  0  0  0  0  0  0  0
    1.1387   -1.3654    0.0000 C   0  0  0  0  0  0  0  0  0  0  0  0
    0.6538   -0.6979    0.0000 C   0  0  0  0  0  0  0  0  0  0  0  0
   -0.1712   -0.6979    0.0000 C   0  0  0  0  0  0  0  0  0  0  0  0
    1.1387   -0.0305    0.0000 S   0  0  0  0  0  0  0  0  0  0  0  0
    1.9233   -0.2854    0.0000 C   0  0  0  0  0  0  0  0  0  0  0  0
    2.6378    0.1271    0.0000 C   0  0  0  0  0  0  0  0  0  0  0  0
    3.3523   -0.2854    0.0000 N   0  0  0  0  0  0  0  0  0  0  0  0
    3.3523   -1.1104    0.0000 C   0  0  0  0  0  0  0  0  0  0  0  0
    4.0668   -1.5229    0.0000 N   0  0  0  0  0  0  0  0  0  0  0  0
    4.0668   -2.3479    0.0000 C   0  0  0  0  0  0  0  0  0  0  0  0
    4.7342   -2.8329    0.0000 C   0  0  0  0  0  0  0  0  0  0  0  0
    4.4793   -3.6175    0.0000 N   0  0  0  0  0  0  0  0  0  0  0  0
    3.6543   -3.6175    0.0000 N   0  0  0  0  0  0  0  0  0  0  0  0
    3.3993   -2.8329    0.0000 C   0  0  0  0  0  0  0  0  0  0  0  0
    4.9642   -4.2849    0.0000 C   0  0  0  0  0  0  0  0  0  0  0  0
    5.7847   -4.1987    0.0000 C   0  0  0  0  0  0  0  0  0  0  0  0
    6.2696   -4.8661    0.0000 C   0  0  0  0  0  0  0  0  0  0  0  0
    5.9340   -5.6198    0.0000 N   0  0  0  0  0  0  0  0  0  0  0  0
    5.1135   -5.7060    0.0000 C   0  0  0  0  0  0  0  0  0  0  0  0
    4.6286   -5.0386    0.0000 C   0  0  0  0  0  0  0  0  0  0  0  0
    2.6378   -1.5229    0.0000 N   0  0  0  0  0  0  0  0  0  0  0  0
    1.9233   -1.1104    0.0000 C   0  0  0  0  0  0  0  0  0  0  0  0
    2.4641   -4.2223    0.0000 H   0  0  0  0  0  0  0  0  0  0  0  0
    3.8414   -2.9823    0.0000 H   0  0  0  0  0  0  0  0  0  0  0  0
    3.5107   -3.9999    0.0000 H   0  0  0  0  0  0  0  0  0  0  0  0
    1.8714   -4.3146    0.0000 H   0  0  0  0  0  0  0  0  0  0  0  0
   -1.1875   -3.3208    0.0000 H   0  0  0  0  0  0  0  0  0  0  0  0
   -0.6138   -1.5546    0.0000 H   0  0  0  0  0  0  0  0  0  0  0  0
   -0.7062    0.2287    0.0000 H   0  0  0  0  0  0  0  0  0  0  0  0
   -0.7062   -1.6245    0.0000 H   0  0  0  0  0  0  0  0  0  0  0  0
   -1.2412   -0.6979    0.0000 H   0  0  0  0  0  0  0  0  0  0  0  0
    2.6378    1.1591    0.0000 H   0  0  0  0  0  0  0  0  0  0  0  0
    4.9194   -1.0306    0.0000 H   0  0  0  0  0  0  0  0  0  0  0  0
    5.7157   -2.5140    0.0000 H   0  0  0  0  0  0  0  0  0  0  0  0
    2.4178   -2.5140    0.0000 H   0  0  0  0  0  0  0  0  0  0  0  0
    5.5931   -5.1506    0.0000 H   0  0  0  0  0  0  0  0  0  0  0  0
    6.2199   -3.2212    0.0000 H   0  0  0  0  0  0  0  0  0  0  0  0
    6.8488   -4.0869    0.0000 H   0  0  0  0  0  0  0  0  0  0  0  0
    7.3337   -4.7543    0.0000 H   0  0  0  0  0  0  0  0  0  0  0  0
    6.8985   -5.7318    0.0000 H   0  0  0  0  0  0  0  0  0  0  0  0
    6.5335   -6.4450    0.0000 H   0  0  0  0  0  0  0  0  0  0  0  0
    4.6783   -6.6835    0.0000 H   0  0  0  0  0  0  0  0  0  0  0  0
    4.0494   -5.8178    0.0000 H   0  0  0  0  0  0  0  0  0  0  0  0
    3.5645   -5.1504    0.0000 H   0  0  0  0  0  0  0  0  0  0  0  0
    3.9997   -4.1729    0.0000 H   0  0  0  0  0  0  0  0  0  0  0  0
  1  2  1  0  0  0  0
  1 32  1  0  0  0  0
  1 33  1  0  0  0  0
  1 34  1  0  0  0  0
  2  3  1  0  0  0  0
  3  4  2  0  0  0  0
  3  9  1  0  0  0  0
  4  5  1  0  0  0  0
  4 35  1  0  0  0  0
  5  6  1  0  0  0  0
  5  7  2  0  0  0  0
  7  8  1  0  0  0  0
  7 36  1  0  0  0  0
  8  9  2  0  0  0  0
  8 37  1  0  0  0  0
  9 10  1  0  0  0  0
 10 11  2  0  0  0  0
 10 31  1  0  0  0  0
 11 12  1  0  0  0  0
 11 13  1  0  0  0  0
 12 38  1  0  0  0  0
 12 39  1  0  0  0  0
 12 40  1  0  0  0  0
 13 14  1  0  0  0  0
 14 15  2  0  0  0  0
 14 31  1  0  0  0  0
 15 16  1  0  0  0  0
 15 41  1  0  0  0  0
 16 17  2  0  0  0  0
 17 18  1  0  0  0  0
 17 30  1  0  0  0  0
 18 19  1  0  0  0  0
 18 42  1  0  0  0  0
 19 20  2  0  0  0  0
 19 23  1  0  0  0  0
 20 21  1  0  0  0  0
 20 43  1  0  0  0  0
 21 22  1  0  0  0  0
 21 24  1  0  0  0  0
 22 23  2  0  0  0  0
 23 44  1  0  0  0  0
 24 25  1  0  0  0  0
 24 29  1  0  0  0  0
 24 45  1  0  0  0  0
 25 26  1  0  0  0  0
 25 46  1  0  0  0  0
 25 47  1  0  0  0  0
 26 27  1  0  0  0  0
 26 48  1  0  0  0  0
 26 49  1  0  0  0  0
 27 28  1  0  0  0  0
 27 50  1  0  0  0  0
 28 29  1  0  0  0  0
 28 51  1  0  0  0  0
 28 52  1  0  0  0  0
 29 53  1  0  0  0  0
 29 54  1  0  0  0  0
 30 31  2  0  0  0  0
M  END
>  <DRUGBANK_ID>
DB15191

>  <COMMON_NAME>
MAX-40279

>  <CAS_NUMBER>
2070931-57-4

>  <UNII>
DL772G3NN7

>  <SYNONYMS>
7-(4-Fluoro-2-methoxyphenyl)-6-methyl-N-(1-(piperidin-4-yl)-1H-pyrazol-4-yl) thieno (3,2-d)pyrimidin-2-amine

$$$$
