960
 OpenBabel10282417072D

 38 39  0  0  1  0  0  0  0  0999 V2000
    4.5080   -0.4562    0.0000 O   0  0  0  0  0  0  0  0  0  0  0  0
    4.5080    1.1938    0.0000 O   0  0  0  0  0  0  0  0  0  0  0  0
    3.0791    2.0188    0.0000 N   0  0  0  0  0  0  0  0  0  0  0  0
    6.0031   -2.7702    0.0000 N   0  0  0  0  0  0  0  0  0  0  0  0
    3.7935    0.7813    0.0000 C   0  0  3  0  0  0  0  0  0  0  0  0
    3.0791    1.1938    0.0000 C   0  0  0  0  0  0  0  0  0  0  0  0
    2.3645    2.4313    0.0000 C   0  0  0  0  0  0  0  0  0  0  0  0
    3.7935   -0.0437    0.0000 C   0  0  0  0  0  0  0  0  0  0  0  0
    5.2224   -1.6938    0.0000 C   0  0  0  0  0  0  0  0  0  0  0  0
    4.5080   -1.2813    0.0000 C   0  0  0  0  0  0  0  0  0  0  0  0
    2.3645    3.2563    0.0000 C   0  0  0  0  0  0  0  0  0  0  0  0
    1.6500    2.0188    0.0000 C   0  0  0  0  0  0  0  0  0  0  0  0
    5.2224   -2.5188    0.0000 C   0  0  0  0  0  0  0  0  0  0  0  0
    6.0031   -1.4423    0.0000 C   0  0  0  0  0  0  0  0  0  0  0  0
    3.7935   -1.6938    0.0000 C   0  0  0  0  0  0  0  0  0  0  0  0
    4.5080   -2.9313    0.0000 C   0  0  0  0  0  0  0  0  0  0  0  0
    6.4846   -2.1063    0.0000 C   0  0  0  0  0  0  0  0  0  0  0  0
    3.7935   -2.5188    0.0000 C   0  0  0  0  0  0  0  0  0  0  0  0
    5.3480    0.7088    0.0000 H   0  0  0  0  0  0  0  0  0  0  0  0
    3.9624    2.5288    0.0000 H   0  0  0  0  0  0  0  0  0  0  0  0
    6.3089   -3.7060    0.0000 H   0  0  0  0  0  0  0  0  0  0  0  0
    3.7935    1.8513    0.0000 H   0  0  0  0  0  0  0  0  0  0  0  0
    2.1524    0.6588    0.0000 H   0  0  0  0  0  0  0  0  0  0  0  0
    3.0791    0.1238    0.0000 H   0  0  0  0  0  0  0  0  0  0  0  0
    1.4379    2.9663    0.0000 H   0  0  0  0  0  0  0  0  0  0  0  0
    2.8669   -0.5787    0.0000 H   0  0  0  0  0  0  0  0  0  0  0  0
    2.8669    0.4913    0.0000 H   0  0  0  0  0  0  0  0  0  0  0  0
    3.2911    3.7913    0.0000 H   0  0  0  0  0  0  0  0  0  0  0  0
    1.4379    3.7913    0.0000 H   0  0  0  0  0  0  0  0  0  0  0  0
    2.3645    4.3263    0.0000 H   0  0  0  0  0  0  0  0  0  0  0  0
    0.7234    2.5538    0.0000 H   0  0  0  0  0  0  0  0  0  0  0  0
    1.6500    0.9488    0.0000 H   0  0  0  0  0  0  0  0  0  0  0  0
    0.7233    1.4838    0.0000 H   0  0  0  0  0  0  0  0  0  0  0  0
    6.3237   -0.4614    0.0000 H   0  0  0  0  0  0  0  0  0  0  0  0
    2.8998   -1.1778    0.0000 H   0  0  0  0  0  0  0  0  0  0  0  0
    4.5080   -3.9633    0.0000 H   0  0  0  0  0  0  0  0  0  0  0  0
    7.5166   -2.1063    0.0000 H   0  0  0  0  0  0  0  0  0  0  0  0
    2.8998   -3.0348    0.0000 H   0  0  0  0  0  0  0  0  0  0  0  0
  1  8  1  0  0  0  0
  1 10  1  0  0  0  0
  2  5  1  0  0  0  0
  2 19  1  0  0  0  0
  3  6  1  0  0  0  0
  3  7  1  0  0  0  0
  3 20  1  0  0  0  0
  4 13  1  0  0  0  0
  4 17  1  0  0  0  0
  4 21  1  0  0  0  0
  5  6  1  0  0  0  0
  5  8  1  0  0  0  0
  5 22  1  0  0  0  0
  6 23  1  0  0  0  0
  6 24  1  0  0  0  0
  7 11  1  0  0  0  0
  7 12  1  0  0  0  0
  7 25  1  0  0  0  0
  8 26  1  0  0  0  0
  8 27  1  0  0  0  0
  9 10  1  0  0  0  0
  9 13  2  0  0  0  0
  9 14  1  0  0  0  0
 10 15  2  0  0  0  0
 11 28  1  0  0  0  0
 11 29  1  0  0  0  0
 11 30  1  0  0  0  0
 12 31  1  0  0  0  0
 12 32  1  0  0  0  0
 12 33  1  0  0  0  0
 13 16  1  0  0  0  0
 14 17  2  0  0  0  0
 14 34  1  0  0  0  0
 15 18  1  0  0  0  0
 15 35  1  0  0  0  0
 16 18  2  0  0  0  0
 16 36  1  0  0  0  0
 17 37  1  0  0  0  0
 18 38  1  0  0  0  0
M  END
>  <DRUGBANK_ID>
DB00960

>  <SECONDARY_ACCESSION_NUMBERS>
APRD00678

>  <COMMON_NAME>
Pindolol

>  <CAS_NUMBER>
13523-86-9

>  <UNII>
BJ4HF6IU1D

>  <SYNONYMS>
1-(1H-indol-4-yloxy)-3-(isopropylamino)propan-2-ol; 1-(1H-indol-4-yloxy)-3-(propan-2-ylamino)-propan-2-ol; 1-(1H-indol-4-yloxy)-3-[(1-methylethyl)amino]propan-2-ol; 4-(2-hydroxy-3-isopropylaminopropoxy)-indole; Pindolol; Pindololum

$$$$
