
 OpenBabel10282417072D

 36 38  0  0  0  0  0  0  0  0999 V2000
   -0.0173    1.0802    0.0000 S   0  0  0  0  0  0  0  0  0  0  0  0
   -1.4460    1.0789    0.0000 C   0  0  0  0  0  0  0  0  0  0  0  0
   -0.7315    0.6670    0.0000 N   0  0  0  0  0  0  0  0  0  0  0  0
   -2.1145    0.6001    0.0000 N   0  0  0  0  0  0  0  0  0  0  0  0
   -1.6946    1.8681    0.0000 C   0  0  0  0  0  0  0  0  0  0  0  0
   -2.7762    1.0854    0.0000 N   0  0  0  0  0  0  0  0  0  0  0  0
    0.6920    0.6712    0.0000 C   0  0  0  0  0  0  0  0  0  0  0  0
   -2.5170    1.8683    0.0000 C   0  0  0  0  0  0  0  0  0  0  0  0
   -2.1145   -0.2219    0.0000 C   0  0  0  0  0  0  0  0  0  0  0  0
    0.6922   -0.1538    0.0000 C   0  0  0  0  0  0  0  0  0  0  0  0
    1.4062    1.0844    0.0000 C   0  0  0  0  0  0  0  0  0  0  0  0
    2.1208   -0.1525    0.0000 C   0  0  0  0  0  0  0  0  0  0  0  0
    2.8353   -0.5645    0.0000 N   0  0  0  0  0  0  0  0  0  0  0  0
    1.4066   -0.5657    0.0000 C   0  0  0  0  0  0  0  0  0  0  0  0
    2.1206    0.6725    0.0000 C   0  0  0  0  0  0  0  0  0  0  0  0
   -1.4062   -0.6361    0.0000 C   0  0  0  0  0  0  0  0  0  0  0  0
   -2.8334   -0.6267    0.0000 C   0  0  0  0  0  0  0  0  0  0  0  0
   -2.8353   -1.4543    0.0000 C   0  0  0  0  0  0  0  0  0  0  0  0
   -1.4080   -1.4635    0.0000 C   0  0  0  0  0  0  0  0  0  0  0  0
   -2.1269   -1.8683    0.0000 C   0  0  0  0  0  0  0  0  0  0  0  0
   -0.4304    1.7944    0.0000 O   0  0  0  0  0  0  0  0  0  0  0  0
    0.3946    1.7950    0.0000 O   0  0  0  0  0  0  0  0  0  0  0  0
   -0.7307   -0.3175    0.0000 H   0  0  0  0  0  0  0  0  0  0  0  0
   -1.0842    2.7002    0.0000 H   0  0  0  0  0  0  0  0  0  0  0  0
   -3.1212    2.7050    0.0000 H   0  0  0  0  0  0  0  0  0  0  0  0
   -0.2013   -0.6702    0.0000 H   0  0  0  0  0  0  0  0  0  0  0  0
    1.4054    2.1164    0.0000 H   0  0  0  0  0  0  0  0  0  0  0  0
    2.8358   -1.5490    0.0000 H   0  0  0  0  0  0  0  0  0  0  0  0
    3.6876   -0.0718    0.0000 H   0  0  0  0  0  0  0  0  0  0  0  0
    1.4074   -1.5977    0.0000 H   0  0  0  0  0  0  0  0  0  0  0  0
    3.0141    1.1889    0.0000 H   0  0  0  0  0  0  0  0  0  0  0  0
   -0.5105   -0.1236    0.0000 H   0  0  0  0  0  0  0  0  0  0  0  0
   -3.7237   -0.1049    0.0000 H   0  0  0  0  0  0  0  0  0  0  0  0
   -3.7310   -1.9669    0.0000 H   0  0  0  0  0  0  0  0  0  0  0  0
   -0.5176   -1.9853    0.0000 H   0  0  0  0  0  0  0  0  0  0  0  0
   -2.1352   -2.9003    0.0000 H   0  0  0  0  0  0  0  0  0  0  0  0
  3  1  1  0  0  0  0
  3  2  1  0  0  0  0
  3 23  1  0  0  0  0
  4  2  1  0  0  0  0
  5  2  2  0  0  0  0
  5 24  1  0  0  0  0
  6  4  1  0  0  0  0
  7  1  1  0  0  0  0
  8  5  1  0  0  0  0
  8  6  2  0  0  0  0
  8 25  1  0  0  0  0
  9  4  1  0  0  0  0
 10  7  2  0  0  0  0
 10 26  1  0  0  0  0
 11  7  1  0  0  0  0
 11 27  1  0  0  0  0
 13 12  1  0  0  0  0
 13 28  1  0  0  0  0
 13 29  1  0  0  0  0
 14 10  1  0  0  0  0
 14 12  2  0  0  0  0
 14 30  1  0  0  0  0
 15 11  2  0  0  0  0
 15 12  1  0  0  0  0
 15 31  1  0  0  0  0
 16  9  1  0  0  0  0
 16 32  1  0  0  0  0
 17  9  2  0  0  0  0
 17 33  1  0  0  0  0
 18 17  1  0  0  0  0
 18 34  1  0  0  0  0
 19 16  2  0  0  0  0
 19 35  1  0  0  0  0
 20 18  2  0  0  0  0
 20 19  1  0  0  0  0
 20 36  1  0  0  0  0
 21  1  2  0  0  0  0
 22  1  2  0  0  0  0
M  END
>  <DRUGBANK_ID>
DB06729

>  <COMMON_NAME>
Sulfaphenazole

>  <CAS_NUMBER>
526-08-9

>  <UNII>
0J8L4V3F81

>  <SYNONYMS>
1-phenyl-5-sulfanilamidopyrazole; 3-(p-aminobenzenesulfonamido)-2-phenylpyrazole; 5-sulfanilamido-1-phenylpyrazole; N'-(1-phenylpyrazol-5-yl)sulfanilamide; N(1)-(1-phenylpyrazol-5-yl)sulfanilamide; Sulfafenazol; Sulfafenazolo; Sulfaph√©nazol; Sulfaphenazole; Sulfaphenazolum; Sulphaphenazole

$$$$
