
 OpenBabel10282417072D

 45 47  0  0  0  0  0  0  0  0999 V2000
   -3.6575   -2.1199    0.0000 O   0  0  0  0  0  0  0  0  0  0  0  0
   -4.4422   -1.8650    0.0000 N   0  0  0  0  0  0  0  0  0  0  0  0
   -4.4422   -1.0400    0.0000 C   0  0  0  0  0  0  0  0  0  0  0  0
   -3.6575   -0.7851    0.0000 C   0  0  0  0  0  0  0  0  0  0  0  0
   -3.1725   -1.4525    0.0000 C   0  0  0  0  0  0  0  0  0  0  0  0
   -5.1096   -0.5550    0.0000 C   0  0  0  0  0  0  0  0  0  0  0  0
   -2.3476   -1.4525    0.0000 C   0  0  0  0  0  0  0  0  0  0  0  0
   -1.9350   -0.7380    0.0000 C   0  0  0  0  0  0  0  0  0  0  0  0
   -1.1100   -0.7380    0.0000 C   0  0  0  0  0  0  0  0  0  0  0  0
   -0.6975   -0.0235    0.0000 C   0  0  0  0  0  0  0  0  0  0  0  0
    0.1274   -0.0235    0.0000 C   0  0  0  0  0  0  0  0  0  0  0  0
    0.5399    0.6909    0.0000 O   0  0  0  0  0  0  0  0  0  0  0  0
    1.3650    0.6909    0.0000 C   0  0  0  0  0  0  0  0  0  0  0  0
    1.7775    1.4054    0.0000 C   0  0  0  0  0  0  0  0  0  0  0  0
    2.6025    1.4054    0.0000 C   0  0  0  0  0  0  0  0  0  0  0  0
    3.0150    0.6909    0.0000 C   0  0  0  0  0  0  0  0  0  0  0  0
    2.6025   -0.0235    0.0000 C   0  0  0  0  0  0  0  0  0  0  0  0
    1.7775   -0.0235    0.0000 C   0  0  0  0  0  0  0  0  0  0  0  0
    4.3249    0.0235    0.0000 O   0  0  0  0  0  0  0  0  0  0  0  0
    3.8401    0.6909    0.0000 C   0  0  0  0  0  0  0  0  0  0  0  0
    4.3249    1.3584    0.0000 N   0  0  0  0  0  0  0  0  0  0  0  0
    5.1096    1.1034    0.0000 C   0  0  0  0  0  0  0  0  0  0  0  0
    5.1096    0.2784    0.0000 C   0  0  0  0  0  0  0  0  0  0  0  0
    1.3650   -0.7380    0.0000 Cl  0  0  0  0  0  0  0  0  0  0  0  0
    1.3650    2.1199    0.0000 Cl  0  0  0  0  0  0  0  0  0  0  0  0
   -3.3386    0.1964    0.0000 H   0  0  0  0  0  0  0  0  0  0  0  0
   -4.9976    0.5091    0.0000 H   0  0  0  0  0  0  0  0  0  0  0  0
   -6.0871   -0.9901    0.0000 H   0  0  0  0  0  0  0  0  0  0  0  0
   -5.9752    0.0740    0.0000 H   0  0  0  0  0  0  0  0  0  0  0  0
   -1.8126   -2.3792    0.0000 H   0  0  0  0  0  0  0  0  0  0  0  0
   -2.8826   -2.3791    0.0000 H   0  0  0  0  0  0  0  0  0  0  0  0
   -2.4700    0.1887    0.0000 H   0  0  0  0  0  0  0  0  0  0  0  0
   -1.4000    0.1886    0.0000 H   0  0  0  0  0  0  0  0  0  0  0  0
   -0.5750   -1.6646    0.0000 H   0  0  0  0  0  0  0  0  0  0  0  0
   -0.0400   -0.7380    0.0000 H   0  0  0  0  0  0  0  0  0  0  0  0
   -1.2325    0.9031    0.0000 H   0  0  0  0  0  0  0  0  0  0  0  0
   -0.1625    0.9031    0.0000 H   0  0  0  0  0  0  0  0  0  0  0  0
    0.6624   -0.9502    0.0000 H   0  0  0  0  0  0  0  0  0  0  0  0
    1.1974   -0.0235    0.0000 H   0  0  0  0  0  0  0  0  0  0  0  0
    3.1185    2.2991    0.0000 H   0  0  0  0  0  0  0  0  0  0  0  0
    3.1185   -0.9172    0.0000 H   0  0  0  0  0  0  0  0  0  0  0  0
    5.9753    1.7323    0.0000 H   0  0  0  0  0  0  0  0  0  0  0  0
    6.0630    0.6176    0.0000 H   0  0  0  0  0  0  0  0  0  0  0  0
    5.9752   -0.3506    0.0000 H   0  0  0  0  0  0  0  0  0  0  0  0
    4.9422   -0.7784    0.0000 H   0  0  0  0  0  0  0  0  0  0  0  0
  1  2  1  0  0  0  0
  1  5  1  0  0  0  0
  2  3  2  0  0  0  0
  3  4  1  0  0  0  0
  3  6  1  0  0  0  0
  4  5  2  0  0  0  0
  4 26  1  0  0  0  0
  5  7  1  0  0  0  0
  6 27  1  0  0  0  0
  6 28  1  0  0  0  0
  6 29  1  0  0  0  0
  7  8  1  0  0  0  0
  7 30  1  0  0  0  0
  7 31  1  0  0  0  0
  8  9  1  0  0  0  0
  8 32  1  0  0  0  0
  8 33  1  0  0  0  0
  9 10  1  0  0  0  0
  9 34  1  0  0  0  0
  9 35  1  0  0  0  0
 10 11  1  0  0  0  0
 10 36  1  0  0  0  0
 10 37  1  0  0  0  0
 11 12  1  0  0  0  0
 11 38  1  0  0  0  0
 11 39  1  0  0  0  0
 12 13  1  0  0  0  0
 13 14  1  0  0  0  0
 13 18  2  0  0  0  0
 14 15  2  0  0  0  0
 14 25  1  0  0  0  0
 15 16  1  0  0  0  0
 15 40  1  0  0  0  0
 16 17  2  0  0  0  0
 16 20  1  0  0  0  0
 17 18  1  0  0  0  0
 17 41  1  0  0  0  0
 18 24  1  0  0  0  0
 19 20  1  0  0  0  0
 19 23  1  0  0  0  0
 20 21  2  0  0  0  0
 21 22  1  0  0  0  0
 22 23  1  0  0  0  0
 22 42  1  0  0  0  0
 22 43  1  0  0  0  0
 23 44  1  0  0  0  0
 23 45  1  0  0  0  0
M  END
>  <DRUGBANK_ID>
DB08723

>  <COMMON_NAME>
WIN-54954

>  <CAS_NUMBER>
107355-45-3

>  <UNII>
IY9RJD7JGI

$$$$
