
 OpenBabel10282417072D

 19 18  0  0  1  0  0  0  0  0999 V2000
    1.2375    2.1434    0.0000 C   0  0  0  0  0  0  0  0  0  0  0  0
    1.6500    1.4289    0.0000 C   0  0  0  0  0  0  0  0  0  0  0  0
    1.2375    0.7145    0.0000 C   0  0  1  0  0  0  0  0  0  0  0  0
    0.5230    1.1270    0.0000 C   0  0  0  0  0  0  0  0  0  0  0  0
    1.9520    0.3020    0.0000 N   0  0  0  0  0  0  0  0  0  0  0  0
    0.8250    0.0000    0.0000 C   0  0  0  0  0  0  0  0  0  0  0  0
    1.2375   -0.7145    0.0000 O   0  0  0  0  0  0  0  0  0  0  0  0
    0.0000    0.0000    0.0000 O   0  0  0  0  0  0  0  0  0  0  0  0
    1.7725    3.0700    0.0000 H   0  0  0  0  0  0  0  0  0  0  0  0
    0.1675    2.1434    0.0000 H   0  0  0  0  0  0  0  0  0  0  0  0
    0.7025    3.0701    0.0000 H   0  0  0  0  0  0  0  0  0  0  0  0
    2.7200    1.4289    0.0000 H   0  0  0  0  0  0  0  0  0  0  0  0
    2.1850    0.5022    0.0000 H   0  0  0  0  0  0  0  0  0  0  0  0
    0.5230    2.1970    0.0000 H   0  0  0  0  0  0  0  0  0  0  0  0
   -0.4036    0.5920    0.0000 H   0  0  0  0  0  0  0  0  0  0  0  0
   -0.4037    1.6620    0.0000 H   0  0  0  0  0  0  0  0  0  0  0  0
    1.9520   -0.7180    0.0000 H   0  0  0  0  0  0  0  0  0  0  0  0
    2.8353    0.8120    0.0000 H   0  0  0  0  0  0  0  0  0  0  0  0
    0.7690   -1.5260    0.0000 H   0  0  0  0  0  0  0  0  0  0  0  0
  1  2  1  0  0  0  0
  1  9  1  0  0  0  0
  1 10  1  0  0  0  0
  1 11  1  0  0  0  0
  2  3  1  0  0  0  0
  2 12  1  0  0  0  0
  2 13  1  0  0  0  0
  3  4  1  0  0  0  0
  3  5  1  0  0  0  0
  3  6  1  1  0  0  0
  4 14  1  0  0  0  0
  4 15  1  0  0  0  0
  4 16  1  0  0  0  0
  5 17  1  0  0  0  0
  5 18  1  0  0  0  0
  6  7  1  0  0  0  0
  6  8  2  0  0  0  0
  7 19  1  0  0  0  0
M  END
>  <DRUGBANK_ID>
DB04171

>  <SECONDARY_ACCESSION_NUMBERS>
EXPT01211

>  <COMMON_NAME>
D-Isovaline

>  <UNII>
IF7U5GXQ28

$$$$
