
 OpenBabel10282417072D

 31 32  0  0  0  0  0  0  0  0999 V2000
    0.9933   -0.5374    0.0000 N   0  3  0  0  0  0  0  0  0  0  0  0
    1.4781   -1.2048    0.0000 N   0  0  0  0  0  0  0  0  0  0  0  0
    0.1682   -0.5374    0.0000 C   0  0  0  0  0  0  0  0  0  0  0  0
    1.2482    0.2472    0.0000 N   0  0  0  0  0  0  0  0  0  0  0  0
    2.2987   -1.1185    0.0000 C   0  0  0  0  0  0  0  0  0  0  0  0
    1.1426   -1.9585    0.0000 C   0  0  0  0  0  0  0  0  0  0  0  0
   -0.0866    0.2472    0.0000 C   0  0  0  0  0  0  0  0  0  0  0  0
    0.5808    0.7321    0.0000 O   0  0  0  0  0  0  0  0  0  0  0  0
    2.7836   -1.7860    0.0000 C   0  0  0  0  0  0  0  0  0  0  0  0
    1.6276   -2.6259    0.0000 C   0  0  0  0  0  0  0  0  0  0  0  0
   -0.8712    0.5021    0.0000 N   0  5  0  0  0  0  0  0  0  0  0  0
    2.4481   -2.5396    0.0000 O   0  0  0  0  0  0  0  0  0  0  0  0
   -1.0427    1.3091    0.0000 C   0  0  0  0  0  0  0  0  0  0  0  0
   -1.8275    1.5640    0.0000 O   0  0  0  0  0  0  0  0  0  0  0  0
   -0.4296    1.8611    0.0000 O   0  0  0  0  0  0  0  0  0  0  0  0
   -1.9990    2.3710    0.0000 C   0  0  0  0  0  0  0  0  0  0  0  0
   -2.7836    2.6259    0.0000 C   0  0  0  0  0  0  0  0  0  0  0  0
   -0.4385   -1.3723    0.0000 H   0  0  0  0  0  0  0  0  0  0  0  0
    2.7339   -0.1410    0.0000 H   0  0  0  0  0  0  0  0  0  0  0  0
    3.3628   -1.0067    0.0000 H   0  0  0  0  0  0  0  0  0  0  0  0
    0.0785   -2.0704    0.0000 H   0  0  0  0  0  0  0  0  0  0  0  0
    0.7075   -2.9360    0.0000 H   0  0  0  0  0  0  0  0  0  0  0  0
    3.8477   -1.6742    0.0000 H   0  0  0  0  0  0  0  0  0  0  0  0
    3.4125   -2.6516    0.0000 H   0  0  0  0  0  0  0  0  0  0  0  0
    1.1925   -3.6034    0.0000 H   0  0  0  0  0  0  0  0  0  0  0  0
    2.2566   -3.4915    0.0000 H   0  0  0  0  0  0  0  0  0  0  0  0
   -1.2038    3.0870    0.0000 H   0  0  0  0  0  0  0  0  0  0  0  0
   -2.2215    3.4176    0.0000 H   0  0  0  0  0  0  0  0  0  0  0  0
   -3.0061    3.6725    0.0000 H   0  0  0  0  0  0  0  0  0  0  0  0
   -3.5787    1.9099    0.0000 H   0  0  0  0  0  0  0  0  0  0  0  0
   -3.8012    2.9565    0.0000 H   0  0  0  0  0  0  0  0  0  0  0  0
  1  2  1  0  0  0  0
  1  3  1  0  0  0  0
  1  4  2  0  0  0  0
  2  5  1  0  0  0  0
  2  6  1  0  0  0  0
  3  7  2  0  0  0  0
  3 18  1  0  0  0  0
  4  8  1  0  0  0  0
  5  9  1  0  0  0  0
  5 19  1  0  0  0  0
  5 20  1  0  0  0  0
  6 10  1  0  0  0  0
  6 21  1  0  0  0  0
  6 22  1  0  0  0  0
  7 11  1  0  0  0  0
  7  8  1  0  0  0  0
  9 12  1  0  0  0  0
  9 23  1  0  0  0  0
  9 24  1  0  0  0  0
 10 12  1  0  0  0  0
 10 25  1  0  0  0  0
 10 26  1  0  0  0  0
 11 13  1  0  0  0  0
 13 14  1  0  0  0  0
 13 15  2  0  0  0  0
 14 16  1  0  0  0  0
 16 17  1  0  0  0  0
 16 27  1  0  0  0  0
 16 28  1  0  0  0  0
 17 29  1  0  0  0  0
 17 30  1  0  0  0  0
 17 31  1  0  0  0  0
M  CHG  2   1   1  11  -1
M  END
>  <DRUGBANK_ID>
DB09282

>  <COMMON_NAME>
Molsidomine

>  <CAS_NUMBER>
25717-80-0

>  <UNII>
D46583G77X

>  <SYNONYMS>
Molsidomina; Molsidomine; Molsidominum

$$$$
