RC8
 OpenBabel10282417072D

 61 64  0  0  0  0  0  0  0  0999 V2000
    1.2566    1.4204    0.0000 C   0  0  0  0  0  0  0  0  0  0  0  0
   -0.1723    1.4204    0.0000 C   0  0  0  0  0  0  0  0  0  0  0  0
   -0.1723    0.5954    0.0000 C   0  0  0  0  0  0  0  0  0  0  0  0
    0.5422    0.1829    0.0000 C   0  0  0  0  0  0  0  0  0  0  0  0
   -1.4418    1.0079    0.0000 C   0  0  0  0  0  0  0  0  0  0  0  0
   -1.2119    2.4600    0.0000 C   0  0  0  0  0  0  0  0  0  0  0  0
   -0.6598    3.0730    0.0000 C   0  0  0  0  0  0  0  0  0  0  0  0
    1.9711    2.6579    0.0000 C   0  0  1  0  0  0  0  0  0  0  0  0
    2.6856    3.8954    0.0000 C   0  0  0  0  0  0  0  0  0  0  0  0
    1.2566    3.8954    0.0000 O   0  0  0  0  0  0  0  0  0  0  0  0
    1.2566    3.0704    0.0000 C   0  0  0  0  0  0  0  0  0  0  0  0
    2.6856    3.0704    0.0000 C   0  0  0  0  0  0  0  0  0  0  0  0
    1.9711    1.8329    0.0000 N   0  0  0  0  0  0  0  0  0  0  0  0
    1.2566    0.5954    0.0000 N   0  0  0  0  0  0  0  0  0  0  0  0
   -0.9569    1.6753    0.0000 N   0  0  0  0  0  0  0  0  0  0  0  0
   -2.0188    2.6315    0.0000 C   0  0  0  0  0  0  0  0  0  0  0  0
   -0.9569    0.3405    0.0000 N   0  0  0  0  0  0  0  0  0  0  0  0
    0.5422    1.8329    0.0000 N   0  0  0  0  0  0  0  0  0  0  0  0
    0.5422   -0.6421    0.0000 N   0  0  0  0  0  0  0  0  0  0  0  0
   -0.1723   -1.0546    0.0000 C   0  0  0  0  0  0  0  0  0  0  0  0
   -0.1723   -1.8796    0.0000 C   0  0  0  0  0  0  0  0  0  0  0  0
   -0.8868   -2.2921    0.0000 C   0  0  0  0  0  0  0  0  0  0  0  0
   -0.8868   -3.1171    0.0000 C   0  0  0  0  0  0  0  0  0  0  0  0
   -0.1723   -3.5296    0.0000 C   0  0  0  0  0  0  0  0  0  0  0  0
    0.5422   -3.1171    0.0000 C   0  0  0  0  0  0  0  0  0  0  0  0
    0.5422   -2.2921    0.0000 C   0  0  0  0  0  0  0  0  0  0  0  0
   -0.1723   -4.3546    0.0000 C   0  0  0  0  0  0  0  0  0  0  0  0
    0.5422   -4.7671    0.0000 N   0  0  0  0  0  0  0  0  0  0  0  0
    0.5422   -5.5921    0.0000 C   0  0  0  0  0  0  0  0  0  0  0  0
   -0.1723   -6.0046    0.0000 C   0  0  0  0  0  0  0  0  0  0  0  0
   -0.8868   -5.5921    0.0000 C   0  0  0  0  0  0  0  0  0  0  0  0
   -0.8868   -4.7671    0.0000 C   0  0  0  0  0  0  0  0  0  0  0  0
    1.4654    2.3659    0.0000 H   0  0  0  0  0  0  0  0  0  0  0  0
   -2.4738    1.0079    0.0000 H   0  0  0  0  0  0  0  0  0  0  0  0
   -1.5425    3.4777    0.0000 H   0  0  0  0  0  0  0  0  0  0  0  0
    0.3868    2.8504    0.0000 H   0  0  0  0  0  0  0  0  0  0  0  0
   -0.9903    4.0907    0.0000 H   0  0  0  0  0  0  0  0  0  0  0  0
    0.0563    3.8681    0.0000 H   0  0  0  0  0  0  0  0  0  0  0  0
    3.6122    4.4304    0.0000 H   0  0  0  0  0  0  0  0  0  0  0  0
    1.7590    4.4304    0.0000 H   0  0  0  0  0  0  0  0  0  0  0  0
    2.6856    4.9654    0.0000 H   0  0  0  0  0  0  0  0  0  0  0  0
    2.0966    4.3804    0.0000 H   0  0  0  0  0  0  0  0  0  0  0  0
    0.3300    2.5354    0.0000 H   0  0  0  0  0  0  0  0  0  0  0  0
    0.3300    3.6054    0.0000 H   0  0  0  0  0  0  0  0  0  0  0  0
    3.6122    2.5354    0.0000 H   0  0  0  0  0  0  0  0  0  0  0  0
    2.6856    2.0004    0.0000 H   0  0  0  0  0  0  0  0  0  0  0  0
    2.8237    1.3406    0.0000 H   0  0  0  0  0  0  0  0  0  0  0  0
   -2.3495    3.6491    0.0000 H   0  0  0  0  0  0  0  0  0  0  0  0
   -2.7348    1.8363    0.0000 H   0  0  0  0  0  0  0  0  0  0  0  0
   -3.0654    2.8540    0.0000 H   0  0  0  0  0  0  0  0  0  0  0  0
    1.3948   -1.1344    0.0000 H   0  0  0  0  0  0  0  0  0  0  0  0
   -1.0989   -0.5196    0.0000 H   0  0  0  0  0  0  0  0  0  0  0  0
   -1.0989   -1.5896    0.0000 H   0  0  0  0  0  0  0  0  0  0  0  0
   -1.7805   -1.7761    0.0000 H   0  0  0  0  0  0  0  0  0  0  0  0
   -1.7805   -3.6331    0.0000 H   0  0  0  0  0  0  0  0  0  0  0  0
    1.4359   -3.6331    0.0000 H   0  0  0  0  0  0  0  0  0  0  0  0
    1.4359   -1.7761    0.0000 H   0  0  0  0  0  0  0  0  0  0  0  0
    1.4359   -6.1081    0.0000 H   0  0  0  0  0  0  0  0  0  0  0  0
   -0.1723   -7.0366    0.0000 H   0  0  0  0  0  0  0  0  0  0  0  0
   -1.7805   -6.1081    0.0000 H   0  0  0  0  0  0  0  0  0  0  0  0
   -1.7805   -4.2511    0.0000 H   0  0  0  0  0  0  0  0  0  0  0  0
  1 14  1  0  0  0  0
  2  3  2  0  0  0  0
  3  4  1  0  0  0  0
  3 17  1  0  0  0  0
  4 19  1  0  0  0  0
  5 17  2  0  0  0  0
  5 34  1  0  0  0  0
  6 15  1  0  0  0  0
  6 16  1  0  0  0  0
  6 35  1  0  0  0  0
  7  6  1  0  0  0  0
  7 36  1  0  0  0  0
  7 37  1  0  0  0  0
  7 38  1  0  0  0  0
  8 11  1  0  0  0  0
  8 13  1  0  0  0  0
  8 33  1  6  0  0  0
  9 12  1  0  0  0  0
  9 39  1  0  0  0  0
  9 40  1  0  0  0  0
  9 41  1  0  0  0  0
 10 42  1  0  0  0  0
 11 10  1  0  0  0  0
 11 43  1  0  0  0  0
 11 44  1  0  0  0  0
 12  8  1  0  0  0  0
 12 45  1  0  0  0  0
 12 46  1  0  0  0  0
 13  1  1  0  0  0  0
 13 47  1  0  0  0  0
 14  4  2  0  0  0  0
 15  2  1  0  0  0  0
 15  5  1  0  0  0  0
 16 48  1  0  0  0  0
 16 49  1  0  0  0  0
 16 50  1  0  0  0  0
 18  1  2  0  0  0  0
 18  2  1  0  0  0  0
 19 51  1  0  0  0  0
 20 19  1  0  0  0  0
 20 21  1  0  0  0  0
 20 52  1  0  0  0  0
 20 53  1  0  0  0  0
 21 26  1  0  0  0  0
 22 21  2  0  0  0  0
 22 23  1  0  0  0  0
 22 54  1  0  0  0  0
 23 24  2  0  0  0  0
 23 55  1  0  0  0  0
 24 25  1  0  0  0  0
 24 27  1  0  0  0  0
 25 56  1  0  0  0  0
 26 25  2  0  0  0  0
 26 57  1  0  0  0  0
 27 28  1  0  0  0  0
 28 29  2  0  0  0  0
 29 58  1  0  0  0  0
 30 29  1  0  0  0  0
 30 59  1  0  0  0  0
 31 30  2  0  0  0  0
 31 60  1  0  0  0  0
 32 27  2  0  0  0  0
 32 31  1  0  0  0  0
 32 61  1  0  0  0  0
M  END
>  <DRUGBANK_ID>
DB08463

>  <COMMON_NAME>
(2R)-2-({9-(1-methylethyl)-6-[(4-pyridin-2-ylbenzyl)amino]-9H-purin-2-yl}amino)butan-1-ol

$$$$
