
 OpenBabel10282417072D

 86 90  0  0  0  0  0  0  0  0999 V2000
    0.0000   -1.0312    0.0000 N   0  0  0  0  0  0  0  0  0  0  0  0
   -0.7145   -1.4437    0.0000 C   0  0  0  0  0  0  0  0  0  0  0  0
   -1.4289   -1.0312    0.0000 C   0  0  0  0  0  0  0  0  0  0  0  0
   -2.1434   -1.4437    0.0000 C   0  0  0  0  0  0  0  0  0  0  0  0
   -2.1434   -2.2687    0.0000 O   0  0  0  0  0  0  0  0  0  0  0  0
   -1.4289   -2.6812    0.0000 C   0  0  0  0  0  0  0  0  0  0  0  0
   -0.7145   -2.2687    0.0000 C   0  0  0  0  0  0  0  0  0  0  0  0
    0.0000   -0.2062    0.0000 C   0  0  0  0  0  0  0  0  0  0  0  0
    0.7144    0.2062    0.0000 C   0  0  0  0  0  0  0  0  0  0  0  0
    0.7144    1.0312    0.0000 C   0  0  0  0  0  0  0  0  0  0  0  0
    1.4288    1.4436    0.0000 C   0  0  0  0  0  0  0  0  0  0  0  0
    2.1433    1.0312    0.0000 C   0  0  0  0  0  0  0  0  0  0  0  0
    2.8579    1.4436    0.0000 C   0  0  0  0  0  0  0  0  0  0  0  0
    2.8579    2.2686    0.0000 C   0  0  0  0  0  0  0  0  0  0  0  0
    3.5722    2.6811    0.0000 C   0  0  0  0  0  0  0  0  0  0  0  0
    4.2867    2.2686    0.0000 N   0  0  0  0  0  0  0  0  0  0  0  0
    5.0013    2.6811    0.0000 C   0  0  0  0  0  0  0  0  0  0  0  0
    5.7157    2.2686    0.0000 C   0  0  0  0  0  0  0  0  0  0  0  0
    5.7157    1.4436    0.0000 O   0  0  0  0  0  0  0  0  0  0  0  0
    5.0013    1.0312    0.0000 C   0  0  0  0  0  0  0  0  0  0  0  0
    4.2867    1.4436    0.0000 C   0  0  0  0  0  0  0  0  0  0  0  0
    2.1433    2.6811    0.0000 C   0  0  0  0  0  0  0  0  0  0  0  0
    1.4288    2.2686    0.0000 C   0  0  0  0  0  0  0  0  0  0  0  0
    0.0000    1.4437    0.0000 C   0  0  0  0  0  0  0  0  0  0  0  0
   -0.7144    1.0312    0.0000 C   0  0  0  0  0  0  0  0  0  0  0  0
   -1.4289    1.4437    0.0000 C   0  0  0  0  0  0  0  0  0  0  0  0
   -1.4289    2.2686    0.0000 O   0  0  0  0  0  0  0  0  0  0  0  0
   -2.1434    1.0312    0.0000 N   0  0  0  0  0  0  0  0  0  0  0  0
   -2.8579    1.4437    0.0000 C   0  0  0  0  0  0  0  0  0  0  0  0
   -3.5723    1.0312    0.0000 C   0  0  0  0  0  0  0  0  0  0  0  0
   -4.2868    1.4437    0.0000 C   0  0  0  0  0  0  0  0  0  0  0  0
   -4.2868    2.2686    0.0000 O   0  0  0  0  0  0  0  0  0  0  0  0
   -5.0013    1.0312    0.0000 N   0  0  0  0  0  0  0  0  0  0  0  0
   -5.0013    0.2062    0.0000 C   0  0  0  0  0  0  0  0  0  0  0  0
   -5.7157   -0.2062    0.0000 C   0  0  0  0  0  0  0  0  0  0  0  0
   -4.2868   -0.2062    0.0000 C   0  0  0  0  0  0  0  0  0  0  0  0
   -3.5723    0.2062    0.0000 C   0  0  0  0  0  0  0  0  0  0  0  0
   -2.8579   -0.2062    0.0000 C   0  0  0  0  0  0  0  0  0  0  0  0
   -0.7144    0.2062    0.0000 C   0  0  0  0  0  0  0  0  0  0  0  0
   -1.4289   -0.2062    0.0000 C   0  0  0  0  0  0  0  0  0  0  0  0
    0.7144   -1.4437    0.0000 C   0  0  0  0  0  0  0  0  0  0  0  0
    1.4288   -1.0312    0.0000 C   0  0  0  0  0  0  0  0  0  0  0  0
   -1.6412   -1.9787    0.0000 H   0  0  0  0  0  0  0  0  0  0  0  0
   -1.4289    0.0388    0.0000 H   0  0  0  0  0  0  0  0  0  0  0  0
   -2.3555   -0.4962    0.0000 H   0  0  0  0  0  0  0  0  0  0  0  0
   -3.0700   -0.9087    0.0000 H   0  0  0  0  0  0  0  0  0  0  0  0
   -3.0700   -1.9787    0.0000 H   0  0  0  0  0  0  0  0  0  0  0  0
   -1.4289   -3.7512    0.0000 H   0  0  0  0  0  0  0  0  0  0  0  0
   -0.5022   -3.2162    0.0000 H   0  0  0  0  0  0  0  0  0  0  0  0
    0.2122   -2.8037    0.0000 H   0  0  0  0  0  0  0  0  0  0  0  0
    0.2121   -1.7337    0.0000 H   0  0  0  0  0  0  0  0  0  0  0  0
    1.6081   -0.3098    0.0000 H   0  0  0  0  0  0  0  0  0  0  0  0
    2.1433   -0.0008    0.0000 H   0  0  0  0  0  0  0  0  0  0  0  0
    3.7516    0.9275    0.0000 H   0  0  0  0  0  0  0  0  0  0  0  0
    3.5721    3.7511    0.0000 H   0  0  0  0  0  0  0  0  0  0  0  0
    4.4988    3.2161    0.0000 H   0  0  0  0  0  0  0  0  0  0  0  0
    5.0014    3.7511    0.0000 H   0  0  0  0  0  0  0  0  0  0  0  0
    5.9280    3.2161    0.0000 H   0  0  0  0  0  0  0  0  0  0  0  0
    6.6424    2.8036    0.0000 H   0  0  0  0  0  0  0  0  0  0  0  0
    6.6423    1.7336    0.0000 H   0  0  0  0  0  0  0  0  0  0  0  0
    5.0014   -0.0388    0.0000 H   0  0  0  0  0  0  0  0  0  0  0  0
    4.0747    0.4961    0.0000 H   0  0  0  0  0  0  0  0  0  0  0  0
    3.3601    0.9085    0.0000 H   0  0  0  0  0  0  0  0  0  0  0  0
    3.3600    1.9786    0.0000 H   0  0  0  0  0  0  0  0  0  0  0  0
    2.1433    3.7131    0.0000 H   0  0  0  0  0  0  0  0  0  0  0  0
    0.5351    2.7846    0.0000 H   0  0  0  0  0  0  0  0  0  0  0  0
    0.0000    2.4757    0.0000 H   0  0  0  0  0  0  0  0  0  0  0  0
   -2.1434    0.0467    0.0000 H   0  0  0  0  0  0  0  0  0  0  0  0
   -2.8579    2.5137    0.0000 H   0  0  0  0  0  0  0  0  0  0  0  0
   -3.7846    1.9787    0.0000 H   0  0  0  0  0  0  0  0  0  0  0  0
   -5.8539    1.5235    0.0000 H   0  0  0  0  0  0  0  0  0  0  0  0
   -6.6423    0.3289    0.0000 H   0  0  0  0  0  0  0  0  0  0  0  0
   -5.7158   -1.2762    0.0000 H   0  0  0  0  0  0  0  0  0  0  0  0
   -6.6424   -0.7411    0.0000 H   0  0  0  0  0  0  0  0  0  0  0  0
   -4.2868   -1.2382    0.0000 H   0  0  0  0  0  0  0  0  0  0  0  0
   -2.8578   -1.2762    0.0000 H   0  0  0  0  0  0  0  0  0  0  0  0
   -1.9313    0.3289    0.0000 H   0  0  0  0  0  0  0  0  0  0  0  0
   -1.9312   -0.7411    0.0000 H   0  0  0  0  0  0  0  0  0  0  0  0
   -2.3555    0.3289    0.0000 H   0  0  0  0  0  0  0  0  0  0  0  0
   -1.4290   -1.2762    0.0000 H   0  0  0  0  0  0  0  0  0  0  0  0
   -2.3556   -0.7411    0.0000 H   0  0  0  0  0  0  0  0  0  0  0  0
    0.7144   -2.5137    0.0000 H   0  0  0  0  0  0  0  0  0  0  0  0
    1.6411   -1.9787    0.0000 H   0  0  0  0  0  0  0  0  0  0  0  0
    2.3555   -1.5662    0.0000 H   0  0  0  0  0  0  0  0  0  0  0  0
    1.4288    0.0388    0.0000 H   0  0  0  0  0  0  0  0  0  0  0  0
    2.3554   -0.4962    0.0000 H   0  0  0  0  0  0  0  0  0  0  0  0
  1  2  1  0  0  0  0
  1  8  1  0  0  0  0
  1 41  1  0  0  0  0
  2  3  1  0  0  0  0
  2  7  1  0  0  0  0
  2 43  1  0  0  0  0
  3  4  1  0  0  0  0
  3 44  1  0  0  0  0
  3 45  1  0  0  0  0
  4  5  1  0  0  0  0
  4 46  1  0  0  0  0
  4 47  1  0  0  0  0
  6  5  1  0  0  0  0
  6 48  1  0  0  0  0
  6 49  1  0  0  0  0
  7  6  1  0  0  0  0
  7 50  1  0  0  0  0
  7 51  1  0  0  0  0
  8  9  1  0  0  0  0
  8 39  2  0  0  0  0
  9 10  2  0  0  0  0
  9 52  1  0  0  0  0
 10 11  1  0  0  0  0
 10 24  1  0  0  0  0
 11 12  1  0  0  0  0
 11 23  2  0  0  0  0
 12 13  2  0  0  0  0
 12 53  1  0  0  0  0
 13 14  1  0  0  0  0
 13 54  1  0  0  0  0
 14 15  1  0  0  0  0
 15 16  1  0  0  0  0
 15 55  1  0  0  0  0
 15 56  1  0  0  0  0
 16 17  1  0  0  0  0
 16 21  1  0  0  0  0
 17 18  1  0  0  0  0
 17 57  1  0  0  0  0
 17 58  1  0  0  0  0
 18 19  1  0  0  0  0
 18 59  1  0  0  0  0
 18 60  1  0  0  0  0
 20 19  1  0  0  0  0
 20 61  1  0  0  0  0
 20 62  1  0  0  0  0
 21 20  1  0  0  0  0
 21 63  1  0  0  0  0
 21 64  1  0  0  0  0
 22 14  2  0  0  0  0
 22 65  1  0  0  0  0
 23 22  1  0  0  0  0
 23 66  1  0  0  0  0
 24 67  1  0  0  0  0
 25 24  2  0  0  0  0
 25 26  1  0  0  0  0
 26 27  2  0  0  0  0
 26 28  1  0  0  0  0
 28 29  1  0  0  0  0
 28 68  1  0  0  0  0
 29 30  1  0  0  0  0
 29 69  1  0  0  0  0
 29 70  1  0  0  0  0
 30 31  1  0  0  0  0
 30 37  2  0  0  0  0
 31 32  2  0  0  0  0
 31 33  1  0  0  0  0
 33 34  1  0  0  0  0
 33 71  1  0  0  0  0
 34 35  1  0  0  0  0
 35 72  1  0  0  0  0
 35 73  1  0  0  0  0
 35 74  1  0  0  0  0
 36 34  2  0  0  0  0
 36 75  1  0  0  0  0
 37 36  1  0  0  0  0
 37 38  1  0  0  0  0
 38 76  1  0  0  0  0
 38 77  1  0  0  0  0
 38 78  1  0  0  0  0
 39 25  1  0  0  0  0
 39 40  1  0  0  0  0
 40 79  1  0  0  0  0
 40 80  1  0  0  0  0
 40 81  1  0  0  0  0
 41 42  1  0  0  0  0
 41 82  1  0  0  0  0
 41 83  1  0  0  0  0
 42 84  1  0  0  0  0
 42 85  1  0  0  0  0
 42 86  1  0  0  0  0
M  END
>  <DRUGBANK_ID>
DB12887

>  <COMMON_NAME>
Tazemetostat

>  <CAS_NUMBER>
1403254-99-8

>  <UNII>
Q40W93WPE1

>  <SYNONYMS>
Tazemetostat; Tazémétostat; Tazemetostatum

$$$$
