
 OpenBabel10282417072D

 75 78  0  0  1  0  0  0  0  0999 V2000
    9.5685  -11.9973    0.0000 C   0  0  0  0  0  0  0  0  0  0  0  0
    8.8540  -12.4098    0.0000 C   0  0  0  0  0  0  0  0  0  0  0  0
    8.8540  -13.2348    0.0000 C   0  0  0  0  0  0  0  0  0  0  0  0
    9.5685  -13.6473    0.0000 C   0  0  0  0  0  0  0  0  0  0  0  0
   10.2830  -13.2348    0.0000 C   0  0  0  0  0  0  0  0  0  0  0  0
   10.2830  -12.4098    0.0000 C   0  0  1  0  0  0  0  0  0  0  0  0
   10.9974  -11.9973    0.0000 C   0  0  2  0  0  0  0  0  0  0  0  0
   10.9974  -13.6473    0.0000 C   0  0  0  0  0  0  0  0  0  0  0  0
   11.7119  -13.2348    0.0000 C   0  0  0  0  0  0  0  0  0  0  0  0
   11.7119  -12.4098    0.0000 C   0  0  1  0  0  0  0  0  0  0  0  0
   11.7119  -10.7598    0.0000 C   0  0  0  0  0  0  0  0  0  0  0  0
   10.9974  -11.1723    0.0000 C   0  0  2  0  0  0  0  0  0  0  0  0
   12.4264  -11.9973    0.0000 C   0  0  1  0  0  0  0  0  0  0  0  0
   12.4264  -11.1723    0.0000 C   0  0  1  0  0  0  0  0  0  0  0  0
   13.2110  -10.9174    0.0000 C   0  0  2  0  0  0  0  0  0  0  0  0
   13.2110  -12.2523    0.0000 C   0  0  0  0  0  0  0  0  0  0  0  0
   13.6959  -11.5848    0.0000 C   0  0  0  0  0  0  0  0  0  0  0  0
    8.1396  -13.6473    0.0000 O   0  0  0  0  0  0  0  0  0  0  0  0
   10.2830  -11.5848    0.0000 C   0  0  0  0  0  0  0  0  0  0  0  0
   12.4264  -10.3473    0.0000 C   0  0  0  0  0  0  0  0  0  0  0  0
   10.2830  -10.7598    0.0000 O   0  0  0  0  0  0  0  0  0  0  0  0
   11.7119  -11.5848    0.0000 H   0  0  0  0  0  0  0  0  0  0  0  0
   12.4264  -12.8223    0.0000 H   0  0  0  0  0  0  0  0  0  0  0  0
   10.9974  -12.8223    0.0000 H   0  0  0  0  0  0  0  0  0  0  0  0
   13.2110  -10.0924    0.0000 C   0  0  0  0  0  0  0  0  0  0  0  0
   12.4965   -9.6799    0.0000 O   0  0  0  0  0  0  0  0  0  0  0  0
   13.9254   -9.6799    0.0000 C   0  0  0  0  0  0  0  0  0  0  0  0
   14.6399  -10.0924    0.0000 O   0  0  0  0  0  0  0  0  0  0  0  0
   15.3544   -9.6799    0.0000 C   0  0  0  0  0  0  0  0  0  0  0  0
   15.3544   -8.8549    0.0000 O   0  0  0  0  0  0  0  0  0  0  0  0
   16.0689  -10.0924    0.0000 C   0  0  0  0  0  0  0  0  0  0  0  0
   16.7833   -9.6799    0.0000 N   0  0  0  0  0  0  0  0  0  0  0  0
   16.7833   -8.8549    0.0000 C   0  0  0  0  0  0  0  0  0  0  0  0
   17.4978   -8.4424    0.0000 C   0  0  0  0  0  0  0  0  0  0  0  0
   17.4978  -10.0924    0.0000 C   0  0  0  0  0  0  0  0  0  0  0  0
   18.2123   -9.6799    0.0000 C   0  0  0  0  0  0  0  0  0  0  0  0
   13.9254  -10.5049    0.0000 O   0  0  0  0  0  0  0  0  0  0  0  0
    9.5685  -10.9273    0.0000 H   0  0  0  0  0  0  0  0  0  0  0  0
   10.4951  -11.4623    0.0000 H   0  0  0  0  0  0  0  0  0  0  0  0
    7.9274  -11.8748    0.0000 H   0  0  0  0  0  0  0  0  0  0  0  0
    7.9274  -12.9448    0.0000 H   0  0  0  0  0  0  0  0  0  0  0  0
    9.5685  -14.6793    0.0000 H   0  0  0  0  0  0  0  0  0  0  0  0
   10.9974  -14.7173    0.0000 H   0  0  0  0  0  0  0  0  0  0  0  0
   11.9240  -14.1823    0.0000 H   0  0  0  0  0  0  0  0  0  0  0  0
   12.6385  -13.7698    0.0000 H   0  0  0  0  0  0  0  0  0  0  0  0
   12.6385  -12.6998    0.0000 H   0  0  0  0  0  0  0  0  0  0  0  0
   11.7119   -9.6898    0.0000 H   0  0  0  0  0  0  0  0  0  0  0  0
   12.6385  -10.2248    0.0000 H   0  0  0  0  0  0  0  0  0  0  0  0
   10.0707  -11.7073    0.0000 H   0  0  0  0  0  0  0  0  0  0  0  0
   13.5416  -13.2699    0.0000 H   0  0  0  0  0  0  0  0  0  0  0  0
   14.2678  -12.4197    0.0000 H   0  0  0  0  0  0  0  0  0  0  0  0
   14.7659  -11.5848    0.0000 H   0  0  0  0  0  0  0  0  0  0  0  0
   14.1817  -10.6314    0.0000 H   0  0  0  0  0  0  0  0  0  0  0  0
   11.2096  -11.0498    0.0000 H   0  0  0  0  0  0  0  0  0  0  0  0
    9.3564  -11.0498    0.0000 H   0  0  0  0  0  0  0  0  0  0  0  0
   10.2830  -10.5148    0.0000 H   0  0  0  0  0  0  0  0  0  0  0  0
   13.3530   -9.8123    0.0000 H   0  0  0  0  0  0  0  0  0  0  0  0
   11.4998   -9.8123    0.0000 H   0  0  0  0  0  0  0  0  0  0  0  0
   12.4264   -9.2773    0.0000 H   0  0  0  0  0  0  0  0  0  0  0  0
   10.2830   -9.7898    0.0000 H   0  0  0  0  0  0  0  0  0  0  0  0
   13.9254   -8.6099    0.0000 H   0  0  0  0  0  0  0  0  0  0  0  0
   14.8520   -9.1449    0.0000 H   0  0  0  0  0  0  0  0  0  0  0  0
   16.0689  -11.1624    0.0000 H   0  0  0  0  0  0  0  0  0  0  0  0
   16.9956  -10.6274    0.0000 H   0  0  0  0  0  0  0  0  0  0  0  0
   15.8567   -8.3199    0.0000 H   0  0  0  0  0  0  0  0  0  0  0  0
   16.7833   -7.7849    0.0000 H   0  0  0  0  0  0  0  0  0  0  0  0
   18.4244   -8.9774    0.0000 H   0  0  0  0  0  0  0  0  0  0  0  0
   17.4978   -7.3724    0.0000 H   0  0  0  0  0  0  0  0  0  0  0  0
   18.4245   -7.9074    0.0000 H   0  0  0  0  0  0  0  0  0  0  0  0
   17.4978  -11.1624    0.0000 H   0  0  0  0  0  0  0  0  0  0  0  0
   18.4244  -10.6274    0.0000 H   0  0  0  0  0  0  0  0  0  0  0  0
   19.1389  -10.2149    0.0000 H   0  0  0  0  0  0  0  0  0  0  0  0
   18.2123   -8.6099    0.0000 H   0  0  0  0  0  0  0  0  0  0  0  0
   19.1390   -9.1449    0.0000 H   0  0  0  0  0  0  0  0  0  0  0  0
   14.7655  -10.9899    0.0000 H   0  0  0  0  0  0  0  0  0  0  0  0
  1  2  1  0  0  0  0
  1  6  1  0  0  0  0
  1 38  1  0  0  0  0
  1 39  1  0  0  0  0
  2  3  1  0  0  0  0
  2 40  1  0  0  0  0
  2 41  1  0  0  0  0
  3  4  1  0  0  0  0
  3 18  2  0  0  0  0
  4  5  2  0  0  0  0
  4 42  1  0  0  0  0
  5  8  1  0  0  0  0
  6  5  1  0  0  0  0
  6 19  1  1  0  0  0
  7  6  1  0  0  0  0
  7 10  1  0  0  0  0
  7 24  1  6  0  0  0
  8  9  1  0  0  0  0
  8 43  1  0  0  0  0
  8 44  1  0  0  0  0
  9 10  1  0  0  0  0
  9 45  1  0  0  0  0
  9 46  1  0  0  0  0
 10 13  1  0  0  0  0
 10 22  1  1  0  0  0
 11 12  1  0  0  0  0
 11 14  1  0  0  0  0
 11 47  1  0  0  0  0
 11 48  1  0  0  0  0
 12  7  1  0  0  0  0
 12 21  1  0  0  0  0
 12 49  1  6  0  0  0
 13 16  1  0  0  0  0
 13 23  1  6  0  0  0
 14 13  1  0  0  0  0
 14 20  1  1  0  0  0
 15 14  1  0  0  0  0
 15 17  1  0  0  0  0
 15 25  1  1  0  0  0
 15 37  1  0  0  0  0
 16 17  1  0  0  0  0
 16 50  1  0  0  0  0
 16 51  1  0  0  0  0
 17 52  1  0  0  0  0
 17 53  1  0  0  0  0
 19 54  1  0  0  0  0
 19 55  1  0  0  0  0
 19 56  1  0  0  0  0
 20 57  1  0  0  0  0
 20 58  1  0  0  0  0
 20 59  1  0  0  0  0
 21 60  1  0  0  0  0
 25 26  2  0  0  0  0
 25 27  1  0  0  0  0
 27 28  1  0  0  0  0
 27 61  1  0  0  0  0
 27 62  1  0  0  0  0
 28 29  1  0  0  0  0
 29 30  2  0  0  0  0
 29 31  1  0  0  0  0
 31 32  1  0  0  0  0
 31 63  1  0  0  0  0
 31 64  1  0  0  0  0
 32 33  1  0  0  0  0
 32 35  1  0  0  0  0
 33 34  1  0  0  0  0
 33 65  1  0  0  0  0
 33 66  1  0  0  0  0
 34 67  1  0  0  0  0
 34 68  1  0  0  0  0
 34 69  1  0  0  0  0
 35 36  1  0  0  0  0
 35 70  1  0  0  0  0
 35 71  1  0  0  0  0
 36 72  1  0  0  0  0
 36 73  1  0  0  0  0
 36 74  1  0  0  0  0
 37 75  1  0  0  0  0
M  END
>  <DRUGBANK_ID>
DB00769

>  <SECONDARY_ACCESSION_NUMBERS>
APRD01018

>  <COMMON_NAME>
Hydrocortamate

>  <CAS_NUMBER>
76-47-1

>  <UNII>
Y3N00BK5WK

>  <SYNONYMS>
17-Hydroxycorticosterone, 21-(diethylamino)acetate; Hidrocortamato; Hydrocortamate; Hydrocortamatum

$$$$
