TI1
 OpenBabel10282417072D

 54 54  0  0  0  0  0  0  0  0999 V2000
   -1.8422    1.1000    0.0000 S   0  0  0  0  0  0  0  0  0  0  0  0
   -1.5144    0.3429    0.0000 C   0  0  1  0  0  0  0  0  0  0  0  0
   -2.0061   -0.3195    0.0000 C   0  0  0  0  0  0  0  0  0  0  0  0
   -2.8257   -0.2249    0.0000 C   0  0  0  0  0  0  0  0  0  0  0  0
   -3.3174   -0.8874    0.0000 C   0  0  0  0  0  0  0  0  0  0  0  0
   -4.1370   -0.7927    0.0000 C   0  0  0  0  0  0  0  0  0  0  0  0
   -4.6287   -1.4552    0.0000 C   0  0  0  0  0  0  0  0  0  0  0  0
   -0.6948    0.2483    0.0000 C   0  0  0  0  0  0  0  0  0  0  0  0
   -0.3670   -0.5088    0.0000 O   0  0  0  0  0  0  0  0  0  0  0  0
   -0.2031    0.9107    0.0000 N   0  0  0  0  0  0  0  0  0  0  0  0
    0.6165    0.8161    0.0000 C   0  0  1  0  0  0  0  0  0  0  0  0
    1.1082    1.4785    0.0000 C   0  0  0  0  0  0  0  0  0  0  0  0
    1.9277    1.3839    0.0000 C   0  0  0  0  0  0  0  0  0  0  0  0
    2.4195    2.0463    0.0000 C   0  0  0  0  0  0  0  0  0  0  0  0
    2.2556    0.6268    0.0000 C   0  0  0  0  0  0  0  0  0  0  0  0
    3.2390    1.9517    0.0000 C   0  0  0  0  0  0  0  0  0  0  0  0
    3.0751    0.5322    0.0000 C   0  0  0  0  0  0  0  0  0  0  0  0
    3.5669    1.1946    0.0000 C   0  0  0  0  0  0  0  0  0  0  0  0
    0.9443    0.0590    0.0000 C   0  0  0  0  0  0  0  0  0  0  0  0
    0.4525   -0.6035    0.0000 O   0  0  0  0  0  0  0  0  0  0  0  0
    1.7638   -0.0356    0.0000 N   0  0  0  0  0  0  0  0  0  0  0  0
    2.0917   -0.7927    0.0000 C   0  0  1  0  0  0  0  0  0  0  0  0
    1.5999   -1.4552    0.0000 C   0  0  0  0  0  0  0  0  0  0  0  0
    2.9112   -0.8874    0.0000 C   0  0  0  0  0  0  0  0  0  0  0  0
    3.4029   -0.2249    0.0000 O   0  0  0  0  0  0  0  0  0  0  0  0
    3.2390   -1.6444    0.0000 O   0  0  0  0  0  0  0  0  0  0  0  0
   -2.0945    0.4099    0.0000 H   0  0  0  0  0  0  0  0  0  0  0  0
    0.3844    1.3519    0.0000 H   0  0  0  0  0  0  0  0  0  0  0  0
    1.5116   -0.7257    0.0000 H   0  0  0  0  0  0  0  0  0  0  0  0
   -1.0315    2.1920    0.0000 H   0  0  0  0  0  0  0  0  0  0  0  0
   -1.5809   -1.3014    0.0000 H   0  0  0  0  0  0  0  0  0  0  0  0
   -2.6438   -1.1787    0.0000 H   0  0  0  0  0  0  0  0  0  0  0  0
   -3.2509    0.7570    0.0000 H   0  0  0  0  0  0  0  0  0  0  0  0
   -3.8886   -0.1022    0.0000 H   0  0  0  0  0  0  0  0  0  0  0  0
   -2.8922   -1.8693    0.0000 H   0  0  0  0  0  0  0  0  0  0  0  0
   -3.9552   -1.7465    0.0000 H   0  0  0  0  0  0  0  0  0  0  0  0
   -4.5622    0.1892    0.0000 H   0  0  0  0  0  0  0  0  0  0  0  0
   -5.1999   -0.6700    0.0000 H   0  0  0  0  0  0  0  0  0  0  0  0
   -5.6916   -1.3325    0.0000 H   0  0  0  0  0  0  0  0  0  0  0  0
   -4.2034   -2.4371    0.0000 H   0  0  0  0  0  0  0  0  0  0  0  0
   -5.2664   -2.3144    0.0000 H   0  0  0  0  0  0  0  0  0  0  0  0
   -0.5943    1.8141    0.0000 H   0  0  0  0  0  0  0  0  0  0  0  0
    0.6830    2.4604    0.0000 H   0  0  0  0  0  0  0  0  0  0  0  0
    1.7459    2.3377    0.0000 H   0  0  0  0  0  0  0  0  0  0  0  0
    2.0095    2.9933    0.0000 H   0  0  0  0  0  0  0  0  0  0  0  0
    1.6405   -0.2019    0.0000 H   0  0  0  0  0  0  0  0  0  0  0  0
    3.8541    2.7804    0.0000 H   0  0  0  0  0  0  0  0  0  0  0  0
    3.4851   -0.4148    0.0000 H   0  0  0  0  0  0  0  0  0  0  0  0
    4.5921    1.0762    0.0000 H   0  0  0  0  0  0  0  0  0  0  0  0
    2.3506    0.7549    0.0000 H   0  0  0  0  0  0  0  0  0  0  0  0
    0.5370   -1.3324    0.0000 H   0  0  0  0  0  0  0  0  0  0  0  0
    2.0251   -2.4371    0.0000 H   0  0  0  0  0  0  0  0  0  0  0  0
    0.9621   -2.3143    0.0000 H   0  0  0  0  0  0  0  0  0  0  0  0
    2.6805   -2.3968    0.0000 H   0  0  0  0  0  0  0  0  0  0  0  0
  1 30  1  0  0  0  0
  2  1  1  0  0  0  0
  2  3  1  0  0  0  0
  2  8  1  0  0  0  0
  2 27  1  1  0  0  0
  3  4  1  0  0  0  0
  3 31  1  0  0  0  0
  3 32  1  0  0  0  0
  4  5  1  0  0  0  0
  4 33  1  0  0  0  0
  4 34  1  0  0  0  0
  5  6  1  0  0  0  0
  5 35  1  0  0  0  0
  5 36  1  0  0  0  0
  6  7  1  0  0  0  0
  6 37  1  0  0  0  0
  6 38  1  0  0  0  0
  7 39  1  0  0  0  0
  7 40  1  0  0  0  0
  7 41  1  0  0  0  0
  8  9  2  0  0  0  0
  8 10  1  0  0  0  0
 10 42  1  0  0  0  0
 11 10  1  0  0  0  0
 11 12  1  0  0  0  0
 11 19  1  0  0  0  0
 11 28  1  6  0  0  0
 12 13  1  0  0  0  0
 12 43  1  0  0  0  0
 12 44  1  0  0  0  0
 13 14  2  0  0  0  0
 13 15  1  0  0  0  0
 14 16  1  0  0  0  0
 14 45  1  0  0  0  0
 15 17  2  0  0  0  0
 15 46  1  0  0  0  0
 16 18  2  0  0  0  0
 16 47  1  0  0  0  0
 17 18  1  0  0  0  0
 17 48  1  0  0  0  0
 18 49  1  0  0  0  0
 19 20  2  0  0  0  0
 19 21  1  0  0  0  0
 21 22  1  0  0  0  0
 21 50  1  0  0  0  0
 22 23  1  0  0  0  0
 22 24  1  0  0  0  0
 22 29  1  1  0  0  0
 23 51  1  0  0  0  0
 23 52  1  0  0  0  0
 23 53  1  0  0  0  0
 24 25  2  0  0  0  0
 24 26  1  0  0  0  0
 26 54  1  0  0  0  0
M  END
>  <DRUGBANK_ID>
DB02597

>  <SECONDARY_ACCESSION_NUMBERS>
EXPT03060

>  <COMMON_NAME>
[2(R,S)-2-Sulfanylheptanoyl]-Phe-Ala

$$$$
