
 OpenBabel10282417072D

 54 57  0  0  1  0  0  0  0  0999 V2000
    0.2954   -5.3894    0.0000 N   0  0  0  0  0  0  0  0  0  0  0  0
    0.7079   -4.6749    0.0000 C   0  0  0  0  0  0  0  0  0  0  0  0
    1.5329   -4.6749    0.0000 N   0  0  0  0  0  0  0  0  0  0  0  0
    1.9454   -3.9604    0.0000 C   0  0  0  0  0  0  0  0  0  0  0  0
    2.7704   -3.9604    0.0000 O   0  0  0  0  0  0  0  0  0  0  0  0
    1.5329   -3.2459    0.0000 C   0  0  0  0  0  0  0  0  0  0  0  0
    0.7079   -3.2459    0.0000 C   0  0  0  0  0  0  0  0  0  0  0  0
    0.2954   -3.9604    0.0000 N   0  0  0  0  0  0  0  0  0  0  0  0
    0.2954   -2.5315    0.0000 N   0  0  0  0  0  0  0  0  0  0  0  0
    0.7079   -1.8170    0.0000 C   0  0  0  0  0  0  0  0  0  0  0  0
    1.5329   -1.8170    0.0000 C   0  0  2  0  0  0  0  0  0  0  0  0
    2.0850   -1.2039    0.0000 C   0  0  0  0  0  0  0  0  0  0  0  0
    2.8386   -1.5395    0.0000 N   0  0  0  0  0  0  0  0  0  0  0  0
    2.7524   -2.3600    0.0000 C   0  0  0  0  0  0  0  0  0  0  0  0
    1.9454   -2.5315    0.0000 N   0  0  0  0  0  0  0  0  0  0  0  0
    3.5531   -1.1270    0.0000 C   0  0  0  0  0  0  0  0  0  0  0  0
    3.5531   -0.3020    0.0000 C   0  0  0  0  0  0  0  0  0  0  0  0
    4.2676    0.1105    0.0000 C   0  0  0  0  0  0  0  0  0  0  0  0
    4.9820   -0.3020    0.0000 C   0  0  0  0  0  0  0  0  0  0  0  0
    4.9820   -1.1270    0.0000 C   0  0  0  0  0  0  0  0  0  0  0  0
    4.2676   -1.5395    0.0000 C   0  0  0  0  0  0  0  0  0  0  0  0
    5.6965    0.1105    0.0000 C   0  0  0  0  0  0  0  0  0  0  0  0
    5.6965    0.9355    0.0000 O   0  0  0  0  0  0  0  0  0  0  0  0
    6.4110   -0.3020    0.0000 N   0  0  0  0  0  0  0  0  0  0  0  0
    7.1255    0.1105    0.0000 C   0  0  2  0  0  0  0  0  0  0  0  0
    7.8399   -0.3020    0.0000 C   0  0  0  0  0  0  0  0  0  0  0  0
    8.5544    0.1105    0.0000 C   0  0  0  0  0  0  0  0  0  0  0  0
    9.2689   -0.3020    0.0000 C   0  0  0  0  0  0  0  0  0  0  0  0
    9.9833    0.1105    0.0000 O   0  0  0  0  0  0  0  0  0  0  0  0
    9.2689   -1.1270    0.0000 O   0  0  0  0  0  0  0  0  0  0  0  0
    7.1255    0.9355    0.0000 C   0  0  0  0  0  0  0  0  0  0  0  0
    7.8399    1.3480    0.0000 O   0  0  0  0  0  0  0  0  0  0  0  0
    6.4110    1.3480    0.0000 O   0  0  0  0  0  0  0  0  0  0  0  0
   -0.6891   -5.3894    0.0000 H   0  0  0  0  0  0  0  0  0  0  0  0
    0.7877   -6.2420    0.0000 H   0  0  0  0  0  0  0  0  0  0  0  0
   -0.6891   -3.9604    0.0000 H   0  0  0  0  0  0  0  0  0  0  0  0
    0.1919   -0.9233    0.0000 H   0  0  0  0  0  0  0  0  0  0  0  0
    1.0977   -0.8395    0.0000 H   0  0  0  0  0  0  0  0  0  0  0  0
    1.8626   -0.1573    0.0000 H   0  0  0  0  0  0  0  0  0  0  0  0
    2.9166   -0.5306    0.0000 H   0  0  0  0  0  0  0  0  0  0  0  0
    3.5476   -3.0760    0.0000 H   0  0  0  0  0  0  0  0  0  0  0  0
    2.4754   -3.3935    0.0000 H   0  0  0  0  0  0  0  0  0  0  0  0
    2.6594    0.2140    0.0000 H   0  0  0  0  0  0  0  0  0  0  0  0
    4.2676    1.1425    0.0000 H   0  0  0  0  0  0  0  0  0  0  0  0
    5.8757   -1.6430    0.0000 H   0  0  0  0  0  0  0  0  0  0  0  0
    4.2676   -2.5715    0.0000 H   0  0  0  0  0  0  0  0  0  0  0  0
    6.4110   -1.2865    0.0000 H   0  0  0  0  0  0  0  0  0  0  0  0
    7.1255   -0.9595    0.0000 H   0  0  0  0  0  0  0  0  0  0  0  0
    7.8399   -1.3720    0.0000 H   0  0  0  0  0  0  0  0  0  0  0  0
    8.7665   -0.8370    0.0000 H   0  0  0  0  0  0  0  0  0  0  0  0
    8.5544    1.1805    0.0000 H   0  0  0  0  0  0  0  0  0  0  0  0
    9.4810    0.6455    0.0000 H   0  0  0  0  0  0  0  0  0  0  0  0
   10.7948   -0.3580    0.0000 H   0  0  0  0  0  0  0  0  0  0  0  0
    8.6514    0.8795    0.0000 H   0  0  0  0  0  0  0  0  0  0  0  0
  1  2  1  0  0  0  0
  1 34  1  0  0  0  0
  1 35  1  0  0  0  0
  2  3  2  0  0  0  0
  2  8  1  0  0  0  0
  3  4  1  0  0  0  0
  4  5  2  0  0  0  0
  4  6  1  0  0  0  0
  6  7  2  0  0  0  0
  6 15  1  0  0  0  0
  7  8  1  0  0  0  0
  7  9  1  0  0  0  0
  8 36  1  0  0  0  0
  9 10  2  0  0  0  0
 10 11  1  0  0  0  0
 10 37  1  0  0  0  0
 11 12  1  0  0  0  0
 11 15  1  0  0  0  0
 11 38  1  1  0  0  0
 12 13  1  0  0  0  0
 12 39  1  0  0  0  0
 12 40  1  0  0  0  0
 13 14  1  0  0  0  0
 13 16  1  0  0  0  0
 14 41  1  0  0  0  0
 14 42  1  0  0  0  0
 15 14  1  0  0  0  0
 16 17  2  0  0  0  0
 16 21  1  0  0  0  0
 17 18  1  0  0  0  0
 17 43  1  0  0  0  0
 18 19  2  0  0  0  0
 18 44  1  0  0  0  0
 19 20  1  0  0  0  0
 19 22  1  0  0  0  0
 20 21  2  0  0  0  0
 20 45  1  0  0  0  0
 21 46  1  0  0  0  0
 22 23  2  0  0  0  0
 22 24  1  0  0  0  0
 24 47  1  0  0  0  0
 25 24  1  0  0  0  0
 25 26  1  0  0  0  0
 25 31  1  0  0  0  0
 25 48  1  6  0  0  0
 26 27  1  0  0  0  0
 26 49  1  0  0  0  0
 26 50  1  0  0  0  0
 27 28  1  0  0  0  0
 27 51  1  0  0  0  0
 27 52  1  0  0  0  0
 28 29  1  0  0  0  0
 28 30  2  0  0  0  0
 29 53  1  0  0  0  0
 31 32  1  0  0  0  0
 31 33  2  0  0  0  0
 32 54  1  0  0  0  0
M  END
>  <DRUGBANK_ID>
DB02301

>  <SECONDARY_ACCESSION_NUMBERS>
EXPT03070

>  <COMMON_NAME>
5,10-Methylene-6-Hydrofolic Acid

$$$$
