
 OpenBabel10282417072D

 67 70  0  0  1  0  0  0  0  0999 V2000
    2.1434   -0.4125    0.0000 C   0  0  0  0  0  0  0  0  0  0  0  0
    2.1434   -1.2375    0.0000 O   0  0  0  0  0  0  0  0  0  0  0  0
    1.4289   -1.6500    0.0000 C   0  0  0  0  0  0  0  0  0  0  0  0
    1.4289   -2.4750    0.0000 C   0  0  0  0  0  0  0  0  0  0  0  0
    0.7145   -2.8875    0.0000 C   0  0  0  0  0  0  0  0  0  0  0  0
    0.7145   -3.7125    0.0000 C   0  0  0  0  0  0  0  0  0  0  0  0
    1.4289   -4.1250    0.0000 C   0  0  0  0  0  0  0  0  0  0  0  0
    1.4289   -4.9500    0.0000 C   0  0  0  0  0  0  0  0  0  0  0  0
    2.0964   -5.4349    0.0000 C   0  0  0  0  0  0  0  0  0  0  0  0
    1.8414   -6.2195    0.0000 C   0  0  0  0  0  0  0  0  0  0  0  0
    2.3264   -6.8870    0.0000 N   0  0  0  0  0  0  0  0  0  0  0  0
    3.1468   -6.8007    0.0000 C   0  0  0  0  0  0  0  0  0  0  0  0
    3.4824   -6.0471    0.0000 O   0  0  0  0  0  0  0  0  0  0  0  0
    3.6318   -7.4682    0.0000 C   0  0  0  0  0  0  0  0  0  0  0  0
    4.4522   -7.3820    0.0000 C   0  0  0  0  0  0  0  0  0  0  0  0
    4.9372   -8.0494    0.0000 C   0  0  0  0  0  0  0  0  0  0  0  0
    4.6016   -8.8031    0.0000 C   0  0  0  0  0  0  0  0  0  0  0  0
    3.7811   -8.8893    0.0000 C   0  0  0  0  0  0  0  0  0  0  0  0
    3.2962   -8.2219    0.0000 C   0  0  0  0  0  0  0  0  0  0  0  0
    5.0865   -9.4705    0.0000 N   0  0  0  0  0  0  0  0  0  0  0  0
    5.9070   -9.3843    0.0000 C   0  0  0  0  0  0  0  0  0  0  0  0
    6.3919  -10.0517    0.0000 C   0  0  2  0  0  0  0  0  0  0  0  0
    7.2124   -9.9655    0.0000 C   0  0  0  0  0  0  0  0  0  0  0  0
    6.0564  -10.8054    0.0000 N   0  0  0  0  0  0  0  0  0  0  0  0
    5.2359  -10.8916    0.0000 C   0  0  2  0  0  0  0  0  0  0  0  0
    4.9003  -11.6453    0.0000 C   0  0  0  0  0  0  0  0  0  0  0  0
    4.7510  -10.2242    0.0000 C   0  0  0  0  0  0  0  0  0  0  0  0
    1.0164   -6.2195    0.0000 N   0  0  0  0  0  0  0  0  0  0  0  0
    0.7615   -5.4349    0.0000 N   0  0  0  0  0  0  0  0  0  0  0  0
    0.0000   -2.4750    0.0000 C   0  0  0  0  0  0  0  0  0  0  0  0
    0.0000   -1.6500    0.0000 C   0  0  0  0  0  0  0  0  0  0  0  0
   -0.7145   -1.2375    0.0000 O   0  0  0  0  0  0  0  0  0  0  0  0
   -0.7145   -0.4125    0.0000 C   0  0  0  0  0  0  0  0  0  0  0  0
    0.7145   -1.2375    0.0000 C   0  0  0  0  0  0  0  0  0  0  0  0
    3.0700    0.1225    0.0000 H   0  0  0  0  0  0  0  0  0  0  0  0
    1.2168    0.1225    0.0000 H   0  0  0  0  0  0  0  0  0  0  0  0
    2.1434    0.6575    0.0000 H   0  0  0  0  0  0  0  0  0  0  0  0
    2.3226   -2.9910    0.0000 H   0  0  0  0  0  0  0  0  0  0  0  0
   -0.2122   -4.2475    0.0000 H   0  0  0  0  0  0  0  0  0  0  0  0
    0.7145   -4.7825    0.0000 H   0  0  0  0  0  0  0  0  0  0  0  0
    2.3556   -3.5900    0.0000 H   0  0  0  0  0  0  0  0  0  0  0  0
    2.3555   -4.6600    0.0000 H   0  0  0  0  0  0  0  0  0  0  0  0
    3.0779   -5.1160    0.0000 H   0  0  0  0  0  0  0  0  0  0  0  0
    1.9260   -7.7864    0.0000 H   0  0  0  0  0  0  0  0  0  0  0  0
    4.8719   -6.4392    0.0000 H   0  0  0  0  0  0  0  0  0  0  0  0
    5.9635   -7.9415    0.0000 H   0  0  0  0  0  0  0  0  0  0  0  0
    3.3613   -9.8321    0.0000 H   0  0  0  0  0  0  0  0  0  0  0  0
    2.2699   -8.3298    0.0000 H   0  0  0  0  0  0  0  0  0  0  0  0
    6.3422   -8.4068    0.0000 H   0  0  0  0  0  0  0  0  0  0  0  0
    6.9711   -9.2725    0.0000 H   0  0  0  0  0  0  0  0  0  0  0  0
    6.8271   -9.0742    0.0000 H   0  0  0  0  0  0  0  0  0  0  0  0
    7.8413  -10.8312    0.0000 H   0  0  0  0  0  0  0  0  0  0  0  0
    7.6477   -8.9880    0.0000 H   0  0  0  0  0  0  0  0  0  0  0  0
    8.2765   -9.8537    0.0000 H   0  0  0  0  0  0  0  0  0  0  0  0
    6.6560  -11.6306    0.0000 H   0  0  0  0  0  0  0  0  0  0  0  0
    5.8648  -11.7573    0.0000 H   0  0  0  0  0  0  0  0  0  0  0  0
    3.8362  -11.7571    0.0000 H   0  0  0  0  0  0  0  0  0  0  0  0
    5.5292  -12.5110    0.0000 H   0  0  0  0  0  0  0  0  0  0  0  0
    4.4651  -12.6228    0.0000 H   0  0  0  0  0  0  0  0  0  0  0  0
    3.6869  -10.3361    0.0000 H   0  0  0  0  0  0  0  0  0  0  0  0
    4.1220   -9.3586    0.0000 H   0  0  0  0  0  0  0  0  0  0  0  0
   -0.1748   -5.1307    0.0000 H   0  0  0  0  0  0  0  0  0  0  0  0
   -0.8937   -2.9910    0.0000 H   0  0  0  0  0  0  0  0  0  0  0  0
    0.2121    0.1225    0.0000 H   0  0  0  0  0  0  0  0  0  0  0  0
   -1.6411    0.1225    0.0000 H   0  0  0  0  0  0  0  0  0  0  0  0
   -0.7145    0.6575    0.0000 H   0  0  0  0  0  0  0  0  0  0  0  0
    0.7145   -0.2055    0.0000 H   0  0  0  0  0  0  0  0  0  0  0  0
  1  2  1  0  0  0  0
  1 35  1  0  0  0  0
  1 36  1  0  0  0  0
  1 37  1  0  0  0  0
  2  3  1  0  0  0  0
  3  4  2  0  0  0  0
  3 34  1  0  0  0  0
  4  5  1  0  0  0  0
  4 38  1  0  0  0  0
  5  6  1  0  0  0  0
  5 30  2  0  0  0  0
  6  7  1  0  0  0  0
  6 39  1  0  0  0  0
  6 40  1  0  0  0  0
  7  8  1  0  0  0  0
  7 41  1  0  0  0  0
  7 42  1  0  0  0  0
  8  9  2  0  0  0  0
  8 29  1  0  0  0  0
  9 10  1  0  0  0  0
  9 43  1  0  0  0  0
 10 11  1  0  0  0  0
 10 28  2  0  0  0  0
 11 12  1  0  0  0  0
 11 44  1  0  0  0  0
 12 13  2  0  0  0  0
 12 14  1  0  0  0  0
 14 15  2  0  0  0  0
 14 19  1  0  0  0  0
 15 16  1  0  0  0  0
 15 45  1  0  0  0  0
 16 17  2  0  0  0  0
 16 46  1  0  0  0  0
 17 18  1  0  0  0  0
 17 20  1  0  0  0  0
 18 19  2  0  0  0  0
 18 47  1  0  0  0  0
 19 48  1  0  0  0  0
 20 21  1  0  0  0  0
 20 27  1  0  0  0  0
 21 49  1  0  0  0  0
 21 50  1  0  0  0  0
 22 21  1  0  0  0  0
 22 23  1  0  0  0  0
 22 24  1  0  0  0  0
 22 51  1  1  0  0  0
 23 52  1  0  0  0  0
 23 53  1  0  0  0  0
 23 54  1  0  0  0  0
 24 55  1  0  0  0  0
 25 24  1  0  0  0  0
 25 26  1  0  0  0  0
 25 27  1  0  0  0  0
 25 56  1  1  0  0  0
 26 57  1  0  0  0  0
 26 58  1  0  0  0  0
 26 59  1  0  0  0  0
 27 60  1  0  0  0  0
 27 61  1  0  0  0  0
 28 29  1  0  0  0  0
 29 62  1  0  0  0  0
 30 31  1  0  0  0  0
 30 63  1  0  0  0  0
 31 32  1  0  0  0  0
 31 34  2  0  0  0  0
 32 33  1  0  0  0  0
 33 64  1  0  0  0  0
 33 65  1  0  0  0  0
 33 66  1  0  0  0  0
 34 67  1  0  0  0  0
M  END
>  <DRUGBANK_ID>
DB18442

>  <COMMON_NAME>
ABSK-091

>  <CAS_NUMBER>
1035270-39-3

>  <SYNONYMS>
Benzamide, n-(5-(2-(3,5-dimethoxyphenyl)ethyl)-1h-pyrazol-3-yl)-4-((3r,5s)-3,5-dimethyl-1-piperazinyl)-, rel-

$$$$
