
 OpenBabel10282417072D

 45 46  0  0  0  0  0  0  0  0999 V2000
   -1.4289    6.6000    0.0000 C   0  0  0  0  0  0  0  0  0  0  0  0
   -2.2539    5.7750    0.0000 C   0  0  0  0  0  0  0  0  0  0  0  0
   -0.6039    5.7750    0.0000 C   0  0  0  0  0  0  0  0  0  0  0  0
    2.8578    0.0000    0.0000 C   0  0  0  0  0  0  0  0  0  0  0  0
   -0.7144    3.7125    0.0000 C   0  0  0  0  0  0  0  0  0  0  0  0
   -2.1434    3.7125    0.0000 C   0  0  0  0  0  0  0  0  0  0  0  0
    0.0000    0.0000    0.0000 C   0  0  0  0  0  0  0  0  0  0  0  0
    0.7144    1.2375    0.0000 C   0  0  0  0  0  0  0  0  0  0  0  0
   -0.7144    4.5375    0.0000 C   0  0  0  0  0  0  0  0  0  0  0  0
   -2.1434    4.5375    0.0000 C   0  0  0  0  0  0  0  0  0  0  0  0
    0.7144   -0.4125    0.0000 C   0  0  0  0  0  0  0  0  0  0  0  0
    1.4289    0.8250    0.0000 C   0  0  0  0  0  0  0  0  0  0  0  0
   -0.7144    2.0625    0.0000 C   0  0  0  0  0  0  0  0  0  0  0  0
   -1.4289    3.3000    0.0000 C   0  0  0  0  0  0  0  0  0  0  0  0
    0.0000    0.8250    0.0000 C   0  0  0  0  0  0  0  0  0  0  0  0
   -1.4289    4.9500    0.0000 C   0  0  0  0  0  0  0  0  0  0  0  0
    1.4289    0.0000    0.0000 C   0  0  0  0  0  0  0  0  0  0  0  0
   -1.4289    2.4750    0.0000 C   0  0  0  0  0  0  0  0  0  0  0  0
   -0.7144    1.2375    0.0000 C   0  0  0  0  0  0  0  0  0  0  0  0
   -1.4289    5.7750    0.0000 C   0  0  0  0  0  0  0  0  0  0  0  0
   -2.1434    2.0625    0.0000 O   0  0  0  0  0  0  0  0  0  0  0  0
   -1.4289    0.8250    0.0000 O   0  0  0  0  0  0  0  0  0  0  0  0
    2.1434   -0.4125    0.0000 O   0  0  0  0  0  0  0  0  0  0  0  0
   -0.5023    7.1350    0.0000 H   0  0  0  0  0  0  0  0  0  0  0  0
   -2.3555    7.1350    0.0000 H   0  0  0  0  0  0  0  0  0  0  0  0
   -1.4289    7.6700    0.0000 H   0  0  0  0  0  0  0  0  0  0  0  0
   -2.7889    6.7016    0.0000 H   0  0  0  0  0  0  0  0  0  0  0  0
   -2.7889    4.8484    0.0000 H   0  0  0  0  0  0  0  0  0  0  0  0
   -3.3239    5.7750    0.0000 H   0  0  0  0  0  0  0  0  0  0  0  0
   -0.0689    4.8484    0.0000 H   0  0  0  0  0  0  0  0  0  0  0  0
   -0.0689    6.7016    0.0000 H   0  0  0  0  0  0  0  0  0  0  0  0
    0.4661    5.7750    0.0000 H   0  0  0  0  0  0  0  0  0  0  0  0
    3.7845   -0.5350    0.0000 H   0  0  0  0  0  0  0  0  0  0  0  0
    2.8578    1.0700    0.0000 H   0  0  0  0  0  0  0  0  0  0  0  0
    3.7844    0.5350    0.0000 H   0  0  0  0  0  0  0  0  0  0  0  0
    0.1793    3.1965    0.0000 H   0  0  0  0  0  0  0  0  0  0  0  0
   -3.0371    3.1965    0.0000 H   0  0  0  0  0  0  0  0  0  0  0  0
   -0.8937   -0.5160    0.0000 H   0  0  0  0  0  0  0  0  0  0  0  0
    0.7144    2.2695    0.0000 H   0  0  0  0  0  0  0  0  0  0  0  0
    0.1793    5.0535    0.0000 H   0  0  0  0  0  0  0  0  0  0  0  0
   -3.0371    5.0535    0.0000 H   0  0  0  0  0  0  0  0  0  0  0  0
    0.7144   -1.4445    0.0000 H   0  0  0  0  0  0  0  0  0  0  0  0
    2.3226    1.3410    0.0000 H   0  0  0  0  0  0  0  0  0  0  0  0
    0.2122    2.5975    0.0000 H   0  0  0  0  0  0  0  0  0  0  0  0
    0.2122    1.5275    0.0000 H   0  0  0  0  0  0  0  0  0  0  0  0
  1 24  1  0  0  0  0
  1 25  1  0  0  0  0
  1 26  1  0  0  0  0
  2 27  1  0  0  0  0
  2 28  1  0  0  0  0
  2 29  1  0  0  0  0
  3 30  1  0  0  0  0
  3 31  1  0  0  0  0
  3 32  1  0  0  0  0
  4 33  1  0  0  0  0
  4 34  1  0  0  0  0
  4 35  1  0  0  0  0
  5 36  1  0  0  0  0
  6 37  1  0  0  0  0
  7 38  1  0  0  0  0
  8 39  1  0  0  0  0
  9  5  1  0  0  0  0
  9 40  1  0  0  0  0
 10  6  2  0  0  0  0
 10 41  1  0  0  0  0
 11  7  1  0  0  0  0
 11 42  1  0  0  0  0
 12  8  2  0  0  0  0
 12 43  1  0  0  0  0
 13 44  1  0  0  0  0
 13 45  1  0  0  0  0
 14  5  2  0  0  0  0
 14  6  1  0  0  0  0
 15  7  2  0  0  0  0
 15  8  1  0  0  0  0
 16  9  2  0  0  0  0
 16 10  1  0  0  0  0
 17 11  2  0  0  0  0
 17 12  1  0  0  0  0
 18 13  1  0  0  0  0
 18 14  1  0  0  0  0
 19 13  1  0  0  0  0
 19 15  1  0  0  0  0
 20  1  1  0  0  0  0
 20  2  1  0  0  0  0
 20  3  1  0  0  0  0
 20 16  1  0  0  0  0
 21 18  2  0  0  0  0
 22 19  2  0  0  0  0
 23  4  1  0  0  0  0
 23 17  1  0  0  0  0
M  END
>  <DRUGBANK_ID>
DB09495

>  <COMMON_NAME>
Avobenzone

>  <CAS_NUMBER>
70356-09-1

>  <UNII>
G63QQF2NOX

>  <SYNONYMS>
Avobenzone; Butyl Methoxydibenzoylmethane; Parsol 1789

$$$$
