
 OpenBabel10282417072D

 30 32  0  0  0  0  0  0  0  0999 V2000
    2.7845    0.6979    0.0000 C   0  0  0  0  0  0  0  0  0  0  0  0
    2.0701    1.1104    0.0000 C   0  0  0  0  0  0  0  0  0  0  0  0
    1.3556    0.6979    0.0000 C   0  0  0  0  0  0  0  0  0  0  0  0
    0.6411    1.1104    0.0000 C   0  0  0  0  0  0  0  0  0  0  0  0
    0.6411    1.9354    0.0000 C   0  0  0  0  0  0  0  0  0  0  0  0
    1.3556    2.3479    0.0000 C   0  0  0  0  0  0  0  0  0  0  0  0
    2.0701    1.9354    0.0000 N   0  0  0  0  0  0  0  0  0  0  0  0
   -0.1435    2.1904    0.0000 C   0  0  3  0  0  0  0  0  0  0  0  0
   -0.6284    1.5229    0.0000 O   0  0  0  0  0  0  0  0  0  0  0  0
   -0.1435    0.8555    0.0000 C   0  0  0  0  0  0  0  0  0  0  0  0
   -0.3984    2.9750    0.0000 C   0  0  0  0  0  0  0  0  0  0  0  0
   -1.2054    3.1465    0.0000 C   0  0  0  0  0  0  0  0  0  0  0  0
   -1.4604    3.9312    0.0000 C   0  0  0  0  0  0  0  0  0  0  0  0
   -0.9083    4.5442    0.0000 C   0  0  0  0  0  0  0  0  0  0  0  0
   -0.1014    4.3727    0.0000 C   0  0  0  0  0  0  0  0  0  0  0  0
    0.1536    3.5881    0.0000 C   0  0  0  0  0  0  0  0  0  0  0  0
   -1.1633    5.3289    0.0000 Cl  0  0  0  0  0  0  0  0  0  0  0  0
    1.3556   -0.1271    0.0000 O   0  0  0  0  0  0  0  0  0  0  0  0
    2.7845   -0.3721    0.0000 H   0  0  0  0  0  0  0  0  0  0  0  0
    3.7112    1.2329    0.0000 H   0  0  0  0  0  0  0  0  0  0  0  0
    3.7111    0.1629    0.0000 H   0  0  0  0  0  0  0  0  0  0  0  0
    1.3556    3.3799    0.0000 H   0  0  0  0  0  0  0  0  0  0  0  0
    0.1871    1.1728    0.0000 H   0  0  0  0  0  0  0  0  0  0  0  0
   -0.4742   -0.1621    0.0000 H   0  0  0  0  0  0  0  0  0  0  0  0
    0.6131    0.0989    0.0000 H   0  0  0  0  0  0  0  0  0  0  0  0
   -1.8959    2.3795    0.0000 H   0  0  0  0  0  0  0  0  0  0  0  0
   -2.4698    4.1458    0.0000 H   0  0  0  0  0  0  0  0  0  0  0  0
    0.5891    5.1397    0.0000 H   0  0  0  0  0  0  0  0  0  0  0  0
    1.1631    3.3736    0.0000 H   0  0  0  0  0  0  0  0  0  0  0  0
    0.5441   -0.5956    0.0000 H   0  0  0  0  0  0  0  0  0  0  0  0
  1  2  1  0  0  0  0
  1 19  1  0  0  0  0
  1 20  1  0  0  0  0
  1 21  1  0  0  0  0
  2  3  2  0  0  0  0
  2  7  1  0  0  0  0
  3  4  1  0  0  0  0
  3 18  1  0  0  0  0
  4  5  2  0  0  0  0
  4 10  1  0  0  0  0
  5  6  1  0  0  0  0
  5  8  1  0  0  0  0
  6  7  2  0  0  0  0
  6 22  1  0  0  0  0
  8  9  1  0  0  0  0
  8 11  1  0  0  0  0
  8 23  1  0  0  0  0
  9 10  1  0  0  0  0
 10 24  1  0  0  0  0
 10 25  1  0  0  0  0
 11 12  2  0  0  0  0
 11 16  1  0  0  0  0
 12 13  1  0  0  0  0
 12 26  1  0  0  0  0
 13 14  2  0  0  0  0
 13 27  1  0  0  0  0
 14 15  1  0  0  0  0
 14 17  1  0  0  0  0
 15 16  2  0  0  0  0
 15 28  1  0  0  0  0
 16 29  1  0  0  0  0
 18 30  1  0  0  0  0
M  END
>  <DRUGBANK_ID>
DB12766

>  <COMMON_NAME>
Cicletanine

>  <CAS_NUMBER>
89943-82-8

>  <UNII>
CHG7QC509W

>  <SYNONYMS>
Cicletanine

$$$$
