
 OpenBabel10282417072D

 53 56  0  0  1  0  0  0  0  0999 V2000
    7.7832    1.5550    0.0000 O   0  0  0  0  0  0  0  0  0  0  0  0
    2.0939   -1.5843    0.0000 O   0  0  0  0  0  0  0  0  0  0  0  0
    2.8068   -1.9996    0.0000 N   0  0  0  0  0  0  0  0  0  0  0  0
    7.2561    0.5186    0.0000 C   0  0  1  0  0  0  0  0  0  0  0  0
    7.2561   -0.3064    0.0000 C   0  0  2  0  0  0  0  0  0  0  0  0
    6.5417   -0.7189    0.0000 C   0  0  1  0  0  0  0  0  0  0  0  0
    5.8272   -0.3064    0.0000 C   0  0  2  0  0  0  0  0  0  0  0  0
    8.0367    0.7700    0.0000 C   0  0  2  0  0  0  0  0  0  0  0  0
    6.5417    0.9311    0.0000 C   0  0  0  0  0  0  0  0  0  0  0  0
    8.0367   -0.5579    0.0000 C   0  0  0  0  0  0  0  0  0  0  0  0
    5.8272    0.5186    0.0000 C   0  0  0  0  0  0  0  0  0  0  0  0
    5.0765   -0.7246    0.0000 C   0  0  2  0  0  0  0  0  0  0  0  0
    8.5182    0.1061    0.0000 C   0  0  0  0  0  0  0  0  0  0  0  0
    6.5549   -1.5782    0.0000 C   0  0  0  0  0  0  0  0  0  0  0  0
    7.2561    1.3436    0.0000 C   0  0  0  0  0  0  0  0  0  0  0  0
    5.8140   -2.0136    0.0000 C   0  0  0  0  0  0  0  0  0  0  0  0
    5.0698   -1.5839    0.0000 C   0  0  0  0  0  0  0  0  0  0  0  0
    4.3118   -0.2592    0.0000 C   0  0  0  0  0  0  0  0  0  0  0  0
    6.5417    1.7561    0.0000 C   0  0  0  0  0  0  0  0  0  0  0  0
    8.7051    1.2538    0.0000 C   0  0  0  0  0  0  0  0  0  0  0  0
    3.5298   -0.6948    0.0000 C   0  0  0  0  0  0  0  0  0  0  0  0
    4.2981   -2.0374    0.0000 C   0  0  0  0  0  0  0  0  0  0  0  0
    3.5229   -1.5899    0.0000 C   0  0  0  0  0  0  0  0  0  0  0  0
    9.3733    1.7375    0.0000 C   0  0  0  0  0  0  0  0  0  0  0  0
    7.3260   -0.9628    0.0000 H   0  0  0  0  0  0  0  0  0  0  0  0
    7.1158   -1.0445    0.0000 H   0  0  0  0  0  0  0  0  0  0  0  0
    6.3988    0.0236    0.0000 H   0  0  0  0  0  0  0  0  0  0  0  0
    5.0892   -0.0647    0.0000 H   0  0  0  0  0  0  0  0  0  0  0  0
    8.4336    2.2747    0.0000 H   0  0  0  0  0  0  0  0  0  0  0  0
    2.0975   -0.6473    0.0000 H   0  0  0  0  0  0  0  0  0  0  0  0
    6.5417    2.0011    0.0000 H   0  0  0  0  0  0  0  0  0  0  0  0
    5.6151    1.4661    0.0000 H   0  0  0  0  0  0  0  0  0  0  0  0
    8.3691   -1.5750    0.0000 H   0  0  0  0  0  0  0  0  0  0  0  0
    9.0937   -0.7239    0.0000 H   0  0  0  0  0  0  0  0  0  0  0  0
    4.9006    1.0536    0.0000 H   0  0  0  0  0  0  0  0  0  0  0  0
    5.8272    1.5886    0.0000 H   0  0  0  0  0  0  0  0  0  0  0  0
    9.5882    0.1061    0.0000 H   0  0  0  0  0  0  0  0  0  0  0  0
    9.0044   -0.8470    0.0000 H   0  0  0  0  0  0  0  0  0  0  0  0
    7.4877   -2.1025    0.0000 H   0  0  0  0  0  0  0  0  0  0  0  0
    6.5652   -2.6482    0.0000 H   0  0  0  0  0  0  0  0  0  0  0  0
    8.1828    1.8786    0.0000 H   0  0  0  0  0  0  0  0  0  0  0  0
    7.2561    2.4136    0.0000 H   0  0  0  0  0  0  0  0  0  0  0  0
    5.8181   -3.0836    0.0000 H   0  0  0  0  0  0  0  0  0  0  0  0
    4.8884   -2.5504    0.0000 H   0  0  0  0  0  0  0  0  0  0  0  0
    4.3324    0.8106    0.0000 H   0  0  0  0  0  0  0  0  0  0  0  0
    3.3946    0.2918    0.0000 H   0  0  0  0  0  0  0  0  0  0  0  0
    6.5417    2.8261    0.0000 H   0  0  0  0  0  0  0  0  0  0  0  0
    5.6150    1.2211    0.0000 H   0  0  0  0  0  0  0  0  0  0  0  0
    5.6151    2.2911    0.0000 H   0  0  0  0  0  0  0  0  0  0  0  0
    2.6094   -0.1491    0.0000 H   0  0  0  0  0  0  0  0  0  0  0  0
    2.5980   -1.2209    0.0000 H   0  0  0  0  0  0  0  0  0  0  0  0
    4.3021   -3.0694    0.0000 H   0  0  0  0  0  0  0  0  0  0  0  0
   10.1785    2.3204    0.0000 H   0  0  0  0  0  0  0  0  0  0  0  0
  1 29  1  0  0  0  0
  2  3  1  0  0  0  0
  2 30  1  0  0  0  0
  3 23  2  3  0  0  0
  4  5  1  0  0  0  0
  4  8  1  0  0  0  0
  4  9  1  0  0  0  0
  4 15  1  1  0  0  0
  5  6  1  0  0  0  0
  5 10  1  0  0  0  0
  5 25  1  6  0  0  0
  6  7  1  0  0  0  0
  6 14  1  0  0  0  0
  6 26  1  1  0  0  0
  7 11  1  0  0  0  0
  7 12  1  0  0  0  0
  7 27  1  6  0  0  0
  8  1  1  0  0  0  0
  8 13  1  0  0  0  0
  8 20  1  6  0  0  0
  9 11  1  0  0  0  0
  9 31  1  0  0  0  0
  9 32  1  0  0  0  0
 10 13  1  0  0  0  0
 10 33  1  0  0  0  0
 10 34  1  0  0  0  0
 11 35  1  0  0  0  0
 11 36  1  0  0  0  0
 12 17  1  0  0  0  0
 12 18  1  0  0  0  0
 12 28  1  1  0  0  0
 13 37  1  0  0  0  0
 13 38  1  0  0  0  0
 14 16  1  0  0  0  0
 14 39  1  0  0  0  0
 14 40  1  0  0  0  0
 15 19  1  0  0  0  0
 15 41  1  0  0  0  0
 15 42  1  0  0  0  0
 16 17  1  0  0  0  0
 16 43  1  0  0  0  0
 16 44  1  0  0  0  0
 17 22  2  0  0  0  0
 18 21  1  0  0  0  0
 18 45  1  0  0  0  0
 18 46  1  0  0  0  0
 19 47  1  0  0  0  0
 19 48  1  0  0  0  0
 19 49  1  0  0  0  0
 20 24  3  0  0  0  0
 21 23  1  0  0  0  0
 21 50  1  0  0  0  0
 21 51  1  0  0  0  0
 22 23  1  0  0  0  0
 22 52  1  0  0  0  0
 24 53  1  0  0  0  0
M  END
>  <DRUGBANK_ID>
DB06713

>  <COMMON_NAME>
Norelgestromin

>  <CAS_NUMBER>
53016-31-2

>  <UNII>
R0TAY3X631

>  <SYNONYMS>
17-Deacetylnorgestimate; 17-Deacylnorgestimate; 18-Methylnorethindrone oxime; D-Norgestrel 3-oxime; Deacetylnorgestimate; Levonorgestrel 3-oxime; Levonorgestrel oxime; Norelgestromin; Norelgestromina; Norplant 3-oxime

$$$$
