452
 OpenBabel10282417072D

 39 40  0  0  0  0  0  0  0  0999 V2000
   -1.5507   -2.2956    0.0000 C   0  0  0  0  0  0  0  0  0  0  0  0
   -2.2651   -1.8831    0.0000 C   0  0  0  0  0  0  0  0  0  0  0  0
   -2.9796   -2.2956    0.0000 O   0  0  0  0  0  0  0  0  0  0  0  0
   -2.2651   -1.0581    0.0000 C   0  0  0  0  0  0  0  0  0  0  0  0
   -2.9796   -0.6456    0.0000 C   0  0  0  0  0  0  0  0  0  0  0  0
   -2.9796    0.1794    0.0000 C   0  0  0  0  0  0  0  0  0  0  0  0
   -2.2651    0.5919    0.0000 C   0  0  0  0  0  0  0  0  0  0  0  0
   -1.5507    0.1794    0.0000 C   0  0  0  0  0  0  0  0  0  0  0  0
   -1.5507   -0.6456    0.0000 C   0  0  0  0  0  0  0  0  0  0  0  0
   -0.8362   -1.0581    0.0000 N   0  0  0  0  0  0  0  0  0  0  0  0
   -0.1217   -0.6456    0.0000 C   0  0  0  0  0  0  0  0  0  0  0  0
    0.5927   -1.0581    0.0000 C   0  0  0  0  0  0  0  0  0  0  0  0
    0.5927   -1.8831    0.0000 O   0  0  0  0  0  0  0  0  0  0  0  0
    1.3072   -0.6456    0.0000 N   0  0  0  0  0  0  0  0  0  0  0  0
    1.3072    0.1794    0.0000 C   0  0  0  0  0  0  0  0  0  0  0  0
    0.5927    0.5919    0.0000 C   0  0  0  0  0  0  0  0  0  0  0  0
    0.5927    1.4169    0.0000 C   0  0  0  0  0  0  0  0  0  0  0  0
    1.3072    1.8294    0.0000 C   0  0  0  0  0  0  0  0  0  0  0  0
    2.0217    1.4169    0.0000 C   0  0  0  0  0  0  0  0  0  0  0  0
    2.0217    0.5919    0.0000 C   0  0  0  0  0  0  0  0  0  0  0  0
    2.7362    0.1794    0.0000 C   0  0  0  0  0  0  0  0  0  0  0  0
    2.7362   -0.6456    0.0000 O   0  0  0  0  0  0  0  0  0  0  0  0
    3.4506    0.5919    0.0000 O   0  0  0  0  0  0  0  0  0  0  0  0
   -2.2651    1.4169    0.0000 Cl  0  0  0  0  0  0  0  0  0  0  0  0
   -3.6941    0.5919    0.0000 F   0  0  0  0  0  0  0  0  0  0  0  0
   -1.5507   -3.3656    0.0000 H   0  0  0  0  0  0  0  0  0  0  0  0
   -0.6240   -1.7606    0.0000 H   0  0  0  0  0  0  0  0  0  0  0  0
   -0.6241   -2.8306    0.0000 H   0  0  0  0  0  0  0  0  0  0  0  0
   -3.8733   -1.1616    0.0000 H   0  0  0  0  0  0  0  0  0  0  0  0
   -0.6570    0.6954    0.0000 H   0  0  0  0  0  0  0  0  0  0  0  0
   -0.8362   -2.0426    0.0000 H   0  0  0  0  0  0  0  0  0  0  0  0
   -0.1217    0.4244    0.0000 H   0  0  0  0  0  0  0  0  0  0  0  0
    0.8050   -0.1106    0.0000 H   0  0  0  0  0  0  0  0  0  0  0  0
    2.1598   -1.1379    0.0000 H   0  0  0  0  0  0  0  0  0  0  0  0
   -0.3010    0.0759    0.0000 H   0  0  0  0  0  0  0  0  0  0  0  0
   -0.3010    1.9329    0.0000 H   0  0  0  0  0  0  0  0  0  0  0  0
    1.3072    2.8614    0.0000 H   0  0  0  0  0  0  0  0  0  0  0  0
    2.9154    1.9329    0.0000 H   0  0  0  0  0  0  0  0  0  0  0  0
    1.9247   -1.1141    0.0000 H   0  0  0  0  0  0  0  0  0  0  0  0
  1  2  1  0  0  0  0
  1 26  1  0  0  0  0
  1 27  1  0  0  0  0
  1 28  1  0  0  0  0
  2  4  1  0  0  0  0
  2  3  2  0  0  0  0
  4  5  2  0  0  0  0
  4  9  1  0  0  0  0
  5  6  1  0  0  0  0
  5 29  1  0  0  0  0
  6 25  1  0  0  0  0
  6  7  2  0  0  0  0
  7 24  1  0  0  0  0
  7  8  1  0  0  0  0
  8  9  2  0  0  0  0
  8 30  1  0  0  0  0
  9 10  1  0  0  0  0
 10 11  1  0  0  0  0
 10 31  1  0  0  0  0
 11 12  1  0  0  0  0
 11 32  1  0  0  0  0
 11 33  1  0  0  0  0
 12 13  2  0  0  0  0
 12 14  1  0  0  0  0
 14 15  1  0  0  0  0
 14 34  1  0  0  0  0
 15 16  2  0  0  0  0
 15 20  1  0  0  0  0
 16 17  1  0  0  0  0
 16 35  1  0  0  0  0
 17 18  2  0  0  0  0
 17 36  1  0  0  0  0
 18 19  1  0  0  0  0
 18 37  1  0  0  0  0
 19 20  2  0  0  0  0
 19 38  1  0  0  0  0
 20 21  1  0  0  0  0
 21 23  2  0  0  0  0
 21 22  1  0  0  0  0
 22 39  1  0  0  0  0
M  END
>  <DRUGBANK_ID>
DB07085

>  <COMMON_NAME>
2-{[N-(2-ACETYL-5-CHLORO-4-FLUOROPHENYL)GLYCYL]AMINO}BENZOIC ACID

$$$$
