ChEBI
 OpenBabel10282417072D

 33 33  0  0  1  0  0  0  0  0999 V2000
    7.3235   -9.0935    0.0000 C   0  0  1  0  0  0  0  0  0  0  0  0
    7.9914   -8.6091    0.0000 O   0  0  0  0  0  0  0  0  0  0  0  0
    7.5779   -9.8784    0.0000 C   0  0  2  0  0  0  0  0  0  0  0  0
    8.6585   -9.0947    0.0000 C   0  0  3  0  0  0  0  0  0  0  0  0
    8.4029   -9.8791    0.0000 C   0  0  2  0  0  0  0  0  0  0  0  0
    9.4433   -8.8404    0.0000 N   0  0  0  0  0  0  0  0  0  0  0  0
    8.8873  -10.5469    0.0000 O   0  0  0  0  0  0  0  0  0  0  0  0
    7.0923  -10.5454    0.0000 O   0  0  0  0  0  0  0  0  0  0  0  0
    6.5392   -8.8380    0.0000 C   0  0  0  0  0  0  0  0  0  0  0  0
    5.5838   -7.7752    0.0000 P   0  0  0  0  0  0  0  0  0  0  0  0
    6.3683   -8.0308    0.0000 O   0  0  0  0  0  0  0  0  0  0  0  0
    4.7994   -7.5196    0.0000 O   0  0  0  0  0  0  0  0  0  0  0  0
    5.8394   -6.9908    0.0000 O   0  0  0  0  0  0  0  0  0  0  0  0
    5.3282   -8.5596    0.0000 O   0  0  0  0  0  0  0  0  0  0  0  0
    9.6016   -8.0537    0.0000 C   0  0  0  0  0  0  0  0  0  0  0  0
    9.0595   -7.5666    0.0000 O   0  0  0  0  0  0  0  0  0  0  0  0
   10.4109   -7.9358    0.0000 C   0  0  0  0  0  0  0  0  0  0  0  0
   10.5131   -7.1737    0.0000 N   0  0  0  0  0  0  0  0  0  0  0  0
    7.1570   -8.0365    0.0000 H   0  0  0  0  0  0  0  0  0  0  0  0
    6.5212   -9.7101    0.0000 H   0  0  0  0  0  0  0  0  0  0  0  0
    7.6406   -9.4245    0.0000 H   0  0  0  0  0  0  0  0  0  0  0  0
    7.9164  -10.8321    0.0000 H   0  0  0  0  0  0  0  0  0  0  0  0
   10.1782   -9.4955    0.0000 H   0  0  0  0  0  0  0  0  0  0  0  0
    8.4921  -11.4327    0.0000 H   0  0  0  0  0  0  0  0  0  0  0  0
    6.1277  -10.4431    0.0000 H   0  0  0  0  0  0  0  0  0  0  0  0
    5.7435   -9.5533    0.0000 H   0  0  0  0  0  0  0  0  0  0  0  0
    5.5218   -8.5065    0.0000 H   0  0  0  0  0  0  0  0  0  0  0  0
    6.7884   -6.7899    0.0000 H   0  0  0  0  0  0  0  0  0  0  0  0
    4.3792   -8.7605    0.0000 H   0  0  0  0  0  0  0  0  0  0  0  0
   11.1718   -8.6881    0.0000 H   0  0  0  0  0  0  0  0  0  0  0  0
   11.4236   -7.5902    0.0000 H   0  0  0  0  0  0  0  0  0  0  0  0
   11.4564   -6.7856    0.0000 H   0  0  0  0  0  0  0  0  0  0  0  0
    9.7054   -6.5508    0.0000 H   0  0  0  0  0  0  0  0  0  0  0  0
  1  2  1  0  0  0  0
  1  3  1  0  0  0  0
  1  9  1  0  0  0  0
  1 19  1  6  0  0  0
  2  4  1  0  0  0  0
  3  5  1  0  0  0  0
  3  8  1  0  0  0  0
  3 20  1  1  0  0  0
  4  5  1  0  0  0  0
  4  6  1  0  0  0  0
  4 21  1  0  0  0  0
  5  7  1  0  0  0  0
  5 22  1  1  0  0  0
  6 23  1  0  0  0  0
  7 24  1  0  0  0  0
  8 25  1  0  0  0  0
  9 11  1  0  0  0  0
  9 26  1  0  0  0  0
  9 27  1  0  0  0  0
 11 10  1  0  0  0  0
 12 10  2  0  0  0  0
 13 10  1  0  0  0  0
 13 28  1  0  0  0  0
 14 10  1  0  0  0  0
 14 29  1  0  0  0  0
 15  6  1  0  0  0  0
 16 15  2  0  0  0  0
 17 15  1  0  0  0  0
 17 30  1  0  0  0  0
 17 31  1  0  0  0  0
 18 17  1  0  0  0  0
 18 32  1  0  0  0  0
 18 33  1  0  0  0  0
M  END
>  <DRUGBANK_ID>
DB02236

>  <SECONDARY_ACCESSION_NUMBERS>
EXPT01547

>  <COMMON_NAME>
Glycinamide Ribonucleotide

$$$$
