
 OpenBabel10282417072D

 52 51  0  0  0  0  0  0  0  0999 V2000
    8.6625    5.0013    0.0000 C   0  0  0  0  0  0  0  0  0  0  0  0
    8.2500    4.2868    0.0000 C   0  0  0  0  0  0  0  0  0  0  0  0
    8.6625    3.5724    0.0000 C   0  0  0  0  0  0  0  0  0  0  0  0
    7.4250    4.2868    0.0000 C   0  0  0  0  0  0  0  0  0  0  0  0
    7.0125    3.5724    0.0000 C   0  0  0  0  0  0  0  0  0  0  0  0
    6.1875    3.5724    0.0000 C   0  0  0  0  0  0  0  0  0  0  0  0
    5.7750    2.8579    0.0000 C   0  0  0  0  0  0  0  0  0  0  0  0
    6.1875    2.1434    0.0000 C   0  0  0  0  0  0  0  0  0  0  0  0
    4.9500    2.8579    0.0000 C   0  0  0  0  0  0  0  0  0  0  0  0
    4.5375    2.1434    0.0000 C   0  0  0  0  0  0  0  0  0  0  0  0
    3.7125    2.1434    0.0000 C   0  0  0  0  0  0  0  0  0  0  0  0
    3.3000    1.4289    0.0000 C   0  0  0  0  0  0  0  0  0  0  0  0
    3.7125    0.7145    0.0000 C   0  0  0  0  0  0  0  0  0  0  0  0
    2.4750    1.4289    0.0000 C   0  0  0  0  0  0  0  0  0  0  0  0
    2.0625    0.7145    0.0000 C   0  0  0  0  0  0  0  0  0  0  0  0
    1.2375    0.7145    0.0000 C   0  0  0  0  0  0  0  0  0  0  0  0
    0.8250    0.0000    0.0000 C   0  0  0  0  0  0  0  0  0  0  0  0
    1.2375   -0.7145    0.0000 C   0  0  0  0  0  0  0  0  0  0  0  0
    0.0000    0.0000    0.0000 C   0  0  0  0  0  0  0  0  0  0  0  0
   -0.4125   -0.7145    0.0000 C   0  0  0  0  0  0  0  0  0  0  0  0
    0.0000   -1.4289    0.0000 O   0  0  0  0  0  0  0  0  0  0  0  0
   -1.2375   -0.7145    0.0000 O   0  0  0  0  0  0  0  0  0  0  0  0
    9.7325    5.0013    0.0000 H   0  0  0  0  0  0  0  0  0  0  0  0
    8.1275    5.9279    0.0000 H   0  0  0  0  0  0  0  0  0  0  0  0
    9.1975    5.9280    0.0000 H   0  0  0  0  0  0  0  0  0  0  0  0
    8.1275    2.6457    0.0000 H   0  0  0  0  0  0  0  0  0  0  0  0
    9.7325    3.5724    0.0000 H   0  0  0  0  0  0  0  0  0  0  0  0
    9.1975    2.6458    0.0000 H   0  0  0  0  0  0  0  0  0  0  0  0
    6.9090    5.1805    0.0000 H   0  0  0  0  0  0  0  0  0  0  0  0
    7.5475    2.6457    0.0000 H   0  0  0  0  0  0  0  0  0  0  0  0
    6.4775    2.6458    0.0000 H   0  0  0  0  0  0  0  0  0  0  0  0
    5.6525    4.4990    0.0000 H   0  0  0  0  0  0  0  0  0  0  0  0
    5.1175    3.5724    0.0000 H   0  0  0  0  0  0  0  0  0  0  0  0
    5.6525    1.2168    0.0000 H   0  0  0  0  0  0  0  0  0  0  0  0
    7.2575    2.1434    0.0000 H   0  0  0  0  0  0  0  0  0  0  0  0
    6.7225    1.2167    0.0000 H   0  0  0  0  0  0  0  0  0  0  0  0
    4.4340    3.7516    0.0000 H   0  0  0  0  0  0  0  0  0  0  0  0
    5.0725    1.2168    0.0000 H   0  0  0  0  0  0  0  0  0  0  0  0
    4.0025    1.2168    0.0000 H   0  0  0  0  0  0  0  0  0  0  0  0
    3.1775    3.0700    0.0000 H   0  0  0  0  0  0  0  0  0  0  0  0
    2.6425    2.1434    0.0000 H   0  0  0  0  0  0  0  0  0  0  0  0
    3.1775   -0.2122    0.0000 H   0  0  0  0  0  0  0  0  0  0  0  0
    4.7825    0.7145    0.0000 H   0  0  0  0  0  0  0  0  0  0  0  0
    4.2475   -0.2121    0.0000 H   0  0  0  0  0  0  0  0  0  0  0  0
    1.9590    2.3226    0.0000 H   0  0  0  0  0  0  0  0  0  0  0  0
    2.5785   -0.1792    0.0000 H   0  0  0  0  0  0  0  0  0  0  0  0
    0.7215    1.6082    0.0000 H   0  0  0  0  0  0  0  0  0  0  0  0
    0.7025   -1.6411    0.0000 H   0  0  0  0  0  0  0  0  0  0  0  0
    2.3075   -0.7145    0.0000 H   0  0  0  0  0  0  0  0  0  0  0  0
    1.7725   -1.6412    0.0000 H   0  0  0  0  0  0  0  0  0  0  0  0
   -0.5160    0.8937    0.0000 H   0  0  0  0  0  0  0  0  0  0  0  0
   -0.4685   -2.2404    0.0000 H   0  0  0  0  0  0  0  0  0  0  0  0
  1  2  1  0  0  0  0
  1 23  1  0  0  0  0
  1 24  1  0  0  0  0
  1 25  1  0  0  0  0
  2  3  1  0  0  0  0
  2  4  2  0  0  0  0
  3 26  1  0  0  0  0
  3 27  1  0  0  0  0
  3 28  1  0  0  0  0
  4  5  1  0  0  0  0
  4 29  1  0  0  0  0
  5  6  1  0  0  0  0
  5 30  1  0  0  0  0
  5 31  1  0  0  0  0
  6  7  1  0  0  0  0
  6 32  1  0  0  0  0
  6 33  1  0  0  0  0
  7  8  1  0  0  0  0
  7  9  2  0  0  0  0
  8 34  1  0  0  0  0
  8 35  1  0  0  0  0
  8 36  1  0  0  0  0
  9 10  1  0  0  0  0
  9 37  1  0  0  0  0
 10 11  1  0  0  0  0
 10 38  1  0  0  0  0
 10 39  1  0  0  0  0
 11 12  1  0  0  0  0
 11 40  1  0  0  0  0
 11 41  1  0  0  0  0
 12 13  1  0  0  0  0
 12 14  2  0  0  0  0
 13 42  1  0  0  0  0
 13 43  1  0  0  0  0
 13 44  1  0  0  0  0
 14 15  1  0  0  0  0
 14 45  1  0  0  0  0
 15 16  2  0  0  0  0
 15 46  1  0  0  0  0
 16 17  1  0  0  0  0
 16 47  1  0  0  0  0
 17 18  1  0  0  0  0
 17 19  2  0  0  0  0
 18 48  1  0  0  0  0
 18 49  1  0  0  0  0
 18 50  1  0  0  0  0
 19 20  1  0  0  0  0
 19 51  1  0  0  0  0
 20 21  1  0  0  0  0
 20 22  2  0  0  0  0
 21 52  1  0  0  0  0
M  END
>  <DRUGBANK_ID>
DB16291

>  <COMMON_NAME>
Peretinoin

>  <CAS_NUMBER>
81485-25-8

>  <UNII>
11ALM7A4RV

>  <SYNONYMS>
Peretinoin

$$$$
