
 OpenBabel10282417072D

 34 35  0  0  0  0  0  0  0  0999 V2000
    1.0716    1.0312    0.0000 O   0  0  0  0  0  0  0  0  0  0  0  0
    0.3572   -0.2062    0.0000 N   0  0  0  0  0  0  0  0  0  0  0  0
   -0.3572    0.2062    0.0000 N   0  0  0  0  0  0  0  0  0  0  0  0
    1.7861   -0.2062    0.0000 C   0  0  0  0  0  0  0  0  0  0  0  0
    1.0716    0.2062    0.0000 C   0  0  0  0  0  0  0  0  0  0  0  0
   -1.7861    0.2062    0.0000 C   0  0  0  0  0  0  0  0  0  0  0  0
   -1.0717   -0.2062    0.0000 C   0  0  3  0  0  0  0  0  0  0  0  0
    2.5006    0.2062    0.0000 C   0  0  0  0  0  0  0  0  0  0  0  0
    1.7861   -1.0312    0.0000 C   0  0  0  0  0  0  0  0  0  0  0  0
   -2.5006   -0.2062    0.0000 C   0  0  0  0  0  0  0  0  0  0  0  0
   -1.7861    1.0312    0.0000 C   0  0  0  0  0  0  0  0  0  0  0  0
    3.2151   -0.2062    0.0000 C   0  0  0  0  0  0  0  0  0  0  0  0
    2.5006   -1.4437    0.0000 C   0  0  0  0  0  0  0  0  0  0  0  0
   -3.2151    0.2062    0.0000 C   0  0  0  0  0  0  0  0  0  0  0  0
   -2.5006    1.4437    0.0000 C   0  0  0  0  0  0  0  0  0  0  0  0
    3.2151   -1.0312    0.0000 C   0  0  0  0  0  0  0  0  0  0  0  0
   -1.0717   -1.0312    0.0000 C   0  0  0  0  0  0  0  0  0  0  0  0
   -3.2151    1.0312    0.0000 C   0  0  0  0  0  0  0  0  0  0  0  0
    0.3572   -1.1907    0.0000 H   0  0  0  0  0  0  0  0  0  0  0  0
   -0.3572    1.2262    0.0000 H   0  0  0  0  0  0  0  0  0  0  0  0
   -1.0717    0.8638    0.0000 H   0  0  0  0  0  0  0  0  0  0  0  0
    2.5006    1.2382    0.0000 H   0  0  0  0  0  0  0  0  0  0  0  0
    0.8924   -1.5472    0.0000 H   0  0  0  0  0  0  0  0  0  0  0  0
   -2.5006   -1.2382    0.0000 H   0  0  0  0  0  0  0  0  0  0  0  0
   -0.8924    1.5472    0.0000 H   0  0  0  0  0  0  0  0  0  0  0  0
    4.1088    0.3099    0.0000 H   0  0  0  0  0  0  0  0  0  0  0  0
    2.5006   -2.4757    0.0000 H   0  0  0  0  0  0  0  0  0  0  0  0
   -4.1088   -0.3099    0.0000 H   0  0  0  0  0  0  0  0  0  0  0  0
   -2.5006    2.4757    0.0000 H   0  0  0  0  0  0  0  0  0  0  0  0
    4.1088   -1.5472    0.0000 H   0  0  0  0  0  0  0  0  0  0  0  0
   -1.9983   -1.5662    0.0000 H   0  0  0  0  0  0  0  0  0  0  0  0
   -0.1451   -1.5662    0.0000 H   0  0  0  0  0  0  0  0  0  0  0  0
   -1.0717   -2.1012    0.0000 H   0  0  0  0  0  0  0  0  0  0  0  0
   -4.1088    1.5472    0.0000 H   0  0  0  0  0  0  0  0  0  0  0  0
  1  5  2  0  0  0  0
  2  3  1  0  0  0  0
  2  5  1  0  0  0  0
  2 19  1  0  0  0  0
  3  7  1  0  0  0  0
  3 20  1  0  0  0  0
  4  5  1  0  0  0  0
  4  8  2  0  0  0  0
  4  9  1  0  0  0  0
  6  7  1  0  0  0  0
  6 10  2  0  0  0  0
  6 11  1  0  0  0  0
  7 17  1  0  0  0  0
  7 21  1  0  0  0  0
  8 12  1  0  0  0  0
  8 22  1  0  0  0  0
  9 13  2  0  0  0  0
  9 23  1  0  0  0  0
 10 14  1  0  0  0  0
 10 24  1  0  0  0  0
 11 15  2  0  0  0  0
 11 25  1  0  0  0  0
 12 16  2  0  0  0  0
 12 26  1  0  0  0  0
 13 16  1  0  0  0  0
 13 27  1  0  0  0  0
 14 18  2  0  0  0  0
 14 28  1  0  0  0  0
 15 18  1  0  0  0  0
 15 29  1  0  0  0  0
 16 30  1  0  0  0  0
 17 31  1  0  0  0  0
 17 32  1  0  0  0  0
 17 33  1  0  0  0  0
 18 34  1  0  0  0  0
M  END
>  <DRUGBANK_ID>
DB09246

>  <COMMON_NAME>
Benmoxin

>  <CAS_NUMBER>
7654-03-7

>  <UNII>
XC9FY2SGBG

>  <SYNONYMS>
Benmoxin; Mebamoxine

$$$$
