
 OpenBabel10282417072D

 10  9  0  0  0  0  0  0  0  0999 V2000
    0.2062   -0.3572    0.0000 C   0  0  0  0  0  0  0  0  0  0  0  0
   -0.2062    0.3572    0.0000 C   0  0  0  0  0  0  0  0  0  0  0  0
    1.0313   -0.3572    0.0000 N   0  0  0  0  0  0  0  0  0  0  0  0
   -1.0313    0.3572    0.0000 N   0  0  0  0  0  0  0  0  0  0  0  0
   -0.3098   -1.2509    0.0000 H   0  0  0  0  0  0  0  0  0  0  0  0
    0.3288    1.2838    0.0000 H   0  0  0  0  0  0  0  0  0  0  0  0
   -0.7412    1.2839    0.0000 H   0  0  0  0  0  0  0  0  0  0  0  0
    1.5236   -1.2098    0.0000 H   0  0  0  0  0  0  0  0  0  0  0  0
   -1.5413    1.2405    0.0000 H   0  0  0  0  0  0  0  0  0  0  0  0
   -1.5413   -0.5261    0.0000 H   0  0  0  0  0  0  0  0  0  0  0  0
  1  2  1  0  0  0  0
  1  3  2  0  0  0  0
  1  5  1  0  0  0  0
  2  4  1  0  0  0  0
  2  6  1  0  0  0  0
  2  7  1  0  0  0  0
  3  8  1  0  0  0  0
  4  9  1  0  0  0  0
  4 10  1  0  0  0  0
M  END
>  <DRUGBANK_ID>
DB02108

>  <SECONDARY_ACCESSION_NUMBERS>
EXPT00447

>  <COMMON_NAME>
2-Aminoethanimidic Acid

>  <SYNONYMS>
2-aminoethylimine

$$$$
