MSQ
 OpenBabel10282417072D

 40 42  0  0  0  0  0  0  0  0999 V2000
   -1.0567   -0.7320    0.0000 N   0  0  0  0  0  0  0  0  0  0  0  0
   -1.0567   -1.5570    0.0000 C   0  0  0  0  0  0  0  0  0  0  0  0
   -0.3423   -1.9695    0.0000 N   0  0  0  0  0  0  0  0  0  0  0  0
    0.3722   -1.5570    0.0000 C   0  0  0  0  0  0  0  0  0  0  0  0
    0.3722   -0.7320    0.0000 C   0  0  0  0  0  0  0  0  0  0  0  0
   -0.3423   -0.3195    0.0000 C   0  0  0  0  0  0  0  0  0  0  0  0
    1.0867   -1.9695    0.0000 C   0  0  0  0  0  0  0  0  0  0  0  0
    1.8012   -1.5570    0.0000 C   0  0  0  0  0  0  0  0  0  0  0  0
    1.8012   -0.7320    0.0000 C   0  0  0  0  0  0  0  0  0  0  0  0
    1.0867   -0.3195    0.0000 C   0  0  0  0  0  0  0  0  0  0  0  0
   -0.3423    0.5055    0.0000 N   0  0  0  0  0  0  0  0  0  0  0  0
   -1.0567    0.9180    0.0000 C   0  0  0  0  0  0  0  0  0  0  0  0
   -1.7712    0.5055    0.0000 C   0  0  0  0  0  0  0  0  0  0  0  0
   -2.4857    0.9180    0.0000 C   0  0  0  0  0  0  0  0  0  0  0  0
   -2.4857    1.7430    0.0000 C   0  0  0  0  0  0  0  0  0  0  0  0
   -1.7712    2.1555    0.0000 C   0  0  0  0  0  0  0  0  0  0  0  0
   -1.0567    1.7430    0.0000 C   0  0  0  0  0  0  0  0  0  0  0  0
   -3.2001    0.5055    0.0000 S   0  0  0  0  0  0  0  0  0  0  0  0
   -3.9146    0.9180    0.0000 C   0  0  0  0  0  0  0  0  0  0  0  0
    2.5156   -1.9695    0.0000 O   0  0  0  0  0  0  0  0  0  0  0  0
    3.2301   -1.5570    0.0000 C   0  0  0  0  0  0  0  0  0  0  0  0
    2.5156   -0.3195    0.0000 O   0  0  0  0  0  0  0  0  0  0  0  0
    2.5156    0.5055    0.0000 C   0  0  0  0  0  0  0  0  0  0  0  0
   -1.9504   -2.0730    0.0000 H   0  0  0  0  0  0  0  0  0  0  0  0
    1.0867   -3.0015    0.0000 H   0  0  0  0  0  0  0  0  0  0  0  0
    1.0867    0.7125    0.0000 H   0  0  0  0  0  0  0  0  0  0  0  0
    0.5103    0.9977    0.0000 H   0  0  0  0  0  0  0  0  0  0  0  0
   -1.7712   -0.5265    0.0000 H   0  0  0  0  0  0  0  0  0  0  0  0
   -3.3794    2.2590    0.0000 H   0  0  0  0  0  0  0  0  0  0  0  0
   -1.7712    3.1875    0.0000 H   0  0  0  0  0  0  0  0  0  0  0  0
   -0.1630    2.2590    0.0000 H   0  0  0  0  0  0  0  0  0  0  0  0
   -3.9146    1.9880    0.0000 H   0  0  0  0  0  0  0  0  0  0  0  0
   -4.8412    0.3830    0.0000 H   0  0  0  0  0  0  0  0  0  0  0  0
   -4.8413    1.4530    0.0000 H   0  0  0  0  0  0  0  0  0  0  0  0
    4.1567   -2.0920    0.0000 H   0  0  0  0  0  0  0  0  0  0  0  0
    3.2301   -0.4870    0.0000 H   0  0  0  0  0  0  0  0  0  0  0  0
    4.1568   -1.0220    0.0000 H   0  0  0  0  0  0  0  0  0  0  0  0
    3.4422    1.0405    0.0000 H   0  0  0  0  0  0  0  0  0  0  0  0
    1.5890    1.0405    0.0000 H   0  0  0  0  0  0  0  0  0  0  0  0
    2.5156    1.5755    0.0000 H   0  0  0  0  0  0  0  0  0  0  0  0
  1  2  2  0  0  0  0
  1  6  1  0  0  0  0
  2  3  1  0  0  0  0
  2 24  1  0  0  0  0
  3  4  2  0  0  0  0
  4  5  1  0  0  0  0
  4  7  1  0  0  0  0
  5  6  2  0  0  0  0
  5 10  1  0  0  0  0
  6 11  1  0  0  0  0
  7  8  2  0  0  0  0
  7 25  1  0  0  0  0
  8  9  1  0  0  0  0
  8 20  1  0  0  0  0
  9 10  2  0  0  0  0
  9 22  1  0  0  0  0
 10 26  1  0  0  0  0
 11 12  1  0  0  0  0
 11 27  1  0  0  0  0
 12 13  2  0  0  0  0
 12 17  1  0  0  0  0
 13 14  1  0  0  0  0
 13 28  1  0  0  0  0
 14 15  2  0  0  0  0
 14 18  1  0  0  0  0
 15 16  1  0  0  0  0
 15 29  1  0  0  0  0
 16 17  2  0  0  0  0
 16 30  1  0  0  0  0
 17 31  1  0  0  0  0
 18 19  1  0  0  0  0
 19 32  1  0  0  0  0
 19 33  1  0  0  0  0
 19 34  1  0  0  0  0
 20 21  1  0  0  0  0
 21 35  1  0  0  0  0
 21 36  1  0  0  0  0
 21 37  1  0  0  0  0
 22 23  1  0  0  0  0
 23 38  1  0  0  0  0
 23 39  1  0  0  0  0
 23 40  1  0  0  0  0
M  END
>  <DRUGBANK_ID>
DB02984

>  <SECONDARY_ACCESSION_NUMBERS>
EXPT02240

>  <COMMON_NAME>
4-[3-Methylsulfanylanilino]-6,7-Dimethoxyquinazoline

$$$$
