
 OpenBabel10282417072D

 54 57  0  0  0  0  0  0  0  0999 V2000
    0.6794   -1.5712    0.0000 C   0  0  0  0  0  0  0  0  0  0  0  0
   -0.0351   -1.9836    0.0000 C   0  0  0  0  0  0  0  0  0  0  0  0
   -0.7495   -1.5712    0.0000 C   0  0  0  0  0  0  0  0  0  0  0  0
   -1.4640   -1.9836    0.0000 C   0  0  0  0  0  0  0  0  0  0  0  0
   -2.1785   -0.7462    0.0000 C   0  0  0  0  0  0  0  0  0  0  0  0
   -1.4640   -0.3337    0.0000 C   0  0  0  0  0  0  0  0  0  0  0  0
   -0.7495   -0.7462    0.0000 C   0  0  2  0  0  0  0  0  0  0  0  0
    0.6794    0.9037    0.0000 C   0  0  0  0  0  0  0  0  0  0  0  0
    2.6634    0.0787    0.0000 C   0  0  0  0  0  0  0  0  0  0  0  0
    2.1785   -0.5886    0.0000 C   0  0  0  0  0  0  0  0  0  0  0  0
   -0.0351   -0.3337    0.0000 C   0  0  2  0  0  0  0  0  0  0  0  0
   -0.0351   -1.1587    0.0000 H   0  0  0  0  0  0  0  0  0  0  0  0
    1.3938   -0.3337    0.0000 C   0  0  1  0  0  0  0  0  0  0  0  0
    1.3938   -1.1587    0.0000 H   0  0  0  0  0  0  0  0  0  0  0  0
    0.6794   -0.7462    0.0000 C   0  0  2  0  0  0  0  0  0  0  0  0
    0.6794    0.0787    0.0000 H   0  0  0  0  0  0  0  0  0  0  0  0
    1.3938    0.4912    0.0000 C   0  0  1  0  0  0  0  0  0  0  0  0
    2.1785    0.7462    0.0000 C   0  0  1  0  0  0  0  0  0  0  0  0
   -2.1785   -1.5712    0.0000 C   0  0  0  0  0  0  0  0  0  0  0  0
   -2.8930   -1.9837    0.0000 O   0  0  0  0  0  0  0  0  0  0  0  0
   -0.0351    0.4912    0.0000 C   0  0  0  0  0  0  0  0  0  0  0  0
    2.1785    1.5712    0.0000 C   0  0  0  0  0  0  0  0  0  0  0  0
    1.4640    1.9837    0.0000 O   0  0  0  0  0  0  0  0  0  0  0  0
    2.8930    1.1587    0.0000 O   0  0  0  0  0  0  0  0  0  0  0  0
   -0.7495    0.0787    0.0000 C   0  0  0  0  0  0  0  0  0  0  0  0
    1.3938    1.3162    0.0000 C   0  0  0  0  0  0  0  0  0  0  0  0
    2.8930    1.9837    0.0000 C   0  0  0  0  0  0  0  0  0  0  0  0
    1.6060   -2.1063    0.0000 H   0  0  0  0  0  0  0  0  0  0  0  0
    0.6793   -2.6412    0.0000 H   0  0  0  0  0  0  0  0  0  0  0  0
   -0.0351   -3.0536    0.0000 H   0  0  0  0  0  0  0  0  0  0  0  0
   -0.9617   -2.5186    0.0000 H   0  0  0  0  0  0  0  0  0  0  0  0
   -1.4640   -3.0156    0.0000 H   0  0  0  0  0  0  0  0  0  0  0  0
   -3.1051   -0.2112    0.0000 H   0  0  0  0  0  0  0  0  0  0  0  0
   -2.1785    0.3238    0.0000 H   0  0  0  0  0  0  0  0  0  0  0  0
   -1.4640    0.7363    0.0000 H   0  0  0  0  0  0  0  0  0  0  0  0
   -0.5374    0.2013    0.0000 H   0  0  0  0  0  0  0  0  0  0  0  0
    0.6794    1.9737    0.0000 H   0  0  0  0  0  0  0  0  0  0  0  0
    1.6061    1.4387    0.0000 H   0  0  0  0  0  0  0  0  0  0  0  0
    3.7334    0.0786    0.0000 H   0  0  0  0  0  0  0  0  0  0  0  0
    3.1491   -0.8747    0.0000 H   0  0  0  0  0  0  0  0  0  0  0  0
    2.5091   -1.6062    0.0000 H   0  0  0  0  0  0  0  0  0  0  0  0
    1.4219   -1.3452    0.0000 H   0  0  0  0  0  0  0  0  0  0  0  0
   -0.9617    1.0262    0.0000 H   0  0  0  0  0  0  0  0  0  0  0  0
   -0.0351    1.5612    0.0000 H   0  0  0  0  0  0  0  0  0  0  0  0
    3.7330    0.6737    0.0000 H   0  0  0  0  0  0  0  0  0  0  0  0
    0.1771    0.6137    0.0000 H   0  0  0  0  0  0  0  0  0  0  0  0
   -1.6761    0.6137    0.0000 H   0  0  0  0  0  0  0  0  0  0  0  0
   -0.7495    1.1487    0.0000 H   0  0  0  0  0  0  0  0  0  0  0  0
    2.3204    1.8512    0.0000 H   0  0  0  0  0  0  0  0  0  0  0  0
    0.4672    1.8512    0.0000 H   0  0  0  0  0  0  0  0  0  0  0  0
    1.3938    2.3862    0.0000 H   0  0  0  0  0  0  0  0  0  0  0  0
    3.8196    1.4487    0.0000 H   0  0  0  0  0  0  0  0  0  0  0  0
    2.8930    3.0537    0.0000 H   0  0  0  0  0  0  0  0  0  0  0  0
    3.8197    2.5187    0.0000 H   0  0  0  0  0  0  0  0  0  0  0  0
  1  2  1  0  0  0  0
  1 28  1  0  0  0  0
  1 29  1  0  0  0  0
  2  3  1  0  0  0  0
  2 30  1  0  0  0  0
  2 31  1  0  0  0  0
  3  4  2  0  0  0  0
  3  7  1  0  0  0  0
  4 19  1  0  0  0  0
  4 32  1  0  0  0  0
  5  6  1  0  0  0  0
  5 33  1  0  0  0  0
  5 34  1  0  0  0  0
  6  7  1  0  0  0  0
  6 35  1  0  0  0  0
  6 36  1  0  0  0  0
  7 11  1  0  0  0  0
  7 25  1  1  0  0  0
  8 17  1  0  0  0  0
  8 37  1  0  0  0  0
  8 38  1  0  0  0  0
  9 10  1  0  0  0  0
  9 39  1  0  0  0  0
  9 40  1  0  0  0  0
 10 13  1  0  0  0  0
 10 41  1  0  0  0  0
 10 42  1  0  0  0  0
 11 21  1  0  0  0  0
 11 12  1  6  0  0  0
 13 14  1  6  0  0  0
 15  1  1  0  0  0  0
 15 11  1  0  0  0  0
 15 13  1  0  0  0  0
 15 16  1  1  0  0  0
 17 18  1  0  0  0  0
 17 13  1  0  0  0  0
 17 26  1  1  0  0  0
 18  9  1  0  0  0  0
 18 24  1  6  0  0  0
 18 22  1  0  0  0  0
 19  5  1  0  0  0  0
 19 20  2  0  0  0  0
 21  8  1  0  0  0  0
 21 43  1  0  0  0  0
 21 44  1  0  0  0  0
 22 23  2  0  0  0  0
 22 27  1  0  0  0  0
 24 45  1  0  0  0  0
 25 46  1  0  0  0  0
 25 47  1  0  0  0  0
 25 48  1  0  0  0  0
 26 49  1  0  0  0  0
 26 50  1  0  0  0  0
 26 51  1  0  0  0  0
 27 52  1  0  0  0  0
 27 53  1  0  0  0  0
 27 54  1  0  0  0  0
M  END
>  <DRUGBANK_ID>
DB14570

>  <COMMON_NAME>
Hydroxyprogesterone

>  <CAS_NUMBER>
68-96-2

>  <UNII>
21807M87J2

>  <SYNONYMS>
17-Hydroxypregn-4-en-3,20-dione; 17-hydroxyprogesterone; 17alpha-hydroxyprogesterone; 17Î±-hydroxyprogesterone; delta(4)-Pregnene-17alpha-ol-3,20-dione; Hidroxiprogesterona; Hydroxyprogesterone; Hydroxyprogesteronum; Pregn-4-ene-3,20-dione-17-ol

$$$$
