
 OpenBabel10282417072D

 85 89  0  0  1  0  0  0  0  0999 V2000
    7.3145   -1.0164    0.0000 C   0  0  0  0  0  0  0  0  0  0  0  0
    7.7270   -0.3020    0.0000 C   0  0  0  0  0  0  0  0  0  0  0  0
    8.5520   -0.3020    0.0000 O   0  0  0  0  0  0  0  0  0  0  0  0
    7.3145    0.4125    0.0000 O   0  0  0  0  0  0  0  0  0  0  0  0
    6.4895    0.4125    0.0000 C   0  0  1  0  0  0  0  0  0  0  0  0
    6.0770   -0.3020    0.0000 C   0  0  0  0  0  0  0  0  0  0  0  0
    5.2520   -0.3020    0.0000 C   0  0  0  0  0  0  0  0  0  0  0  0
    4.8395    0.4125    0.0000 C   0  0  1  0  0  0  0  0  0  0  0  0
    5.2520    1.1270    0.0000 C   0  0  2  0  0  0  0  0  0  0  0  0
    6.0770    1.1270    0.0000 C   0  0  0  0  0  0  0  0  0  0  0  0
    6.1058    1.9515    0.0000 C   0  0  0  0  0  0  0  0  0  0  0  0
    6.7766    1.5642    0.0000 C   0  0  0  0  0  0  0  0  0  0  0  0
    4.8395    1.8414    0.0000 C   0  0  0  0  0  0  0  0  0  0  0  0
    4.0145    1.8414    0.0000 C   0  0  0  0  0  0  0  0  0  0  0  0
    3.6020    1.1270    0.0000 C   0  0  2  0  0  0  0  0  0  0  0  0
    4.0145    0.4125    0.0000 C   0  0  2  0  0  0  0  0  0  0  0  0
    3.6020   -0.3020    0.0000 C   0  0  0  0  0  0  0  0  0  0  0  0
    4.0145   -1.0164    0.0000 O   0  0  0  0  0  0  0  0  0  0  0  0
    2.7770   -0.3020    0.0000 C   0  0  0  0  0  0  0  0  0  0  0  0
    2.3645    0.4125    0.0000 C   0  0  0  0  0  0  0  0  0  0  0  0
    2.7770    1.1270    0.0000 C   0  0  1  0  0  0  0  0  0  0  0  0
    2.3645    1.8414    0.0000 C   0  0  0  0  0  0  0  0  0  0  0  0
    1.5395    1.8414    0.0000 C   0  0  0  0  0  0  0  0  0  0  0  0
    1.1270    1.1270    0.0000 C   0  0  2  0  0  0  0  0  0  0  0  0
    1.5395    0.4125    0.0000 C   0  0  1  0  0  0  0  0  0  0  0  0
    1.1270   -0.3020    0.0000 C   0  0  0  0  0  0  0  0  0  0  0  0
    0.3020   -0.3020    0.0000 C   0  0  1  0  0  0  0  0  0  0  0  0
   -0.1105    0.4125    0.0000 C   0  0  0  0  0  0  0  0  0  0  0  0
    0.3020    1.1270    0.0000 C   0  0  0  0  0  0  0  0  0  0  0  0
    0.2732   -1.1265    0.0000 C   0  0  0  0  0  0  0  0  0  0  0  0
   -0.3977   -0.7392    0.0000 C   0  0  0  0  0  0  0  0  0  0  0  0
   -0.3689   -1.5637    0.0000 O   0  0  0  0  0  0  0  0  0  0  0  0
   -1.1261   -0.3518    0.0000 O   0  0  0  0  0  0  0  0  0  0  0  0
    0.7145    1.8414    0.0000 C   0  0  0  0  0  0  0  0  0  0  0  0
    3.1895    1.8414    0.0000 C   0  0  0  0  0  0  0  0  0  0  0  0
    3.6882    1.9475    0.0000 C   0  0  0  0  0  0  0  0  0  0  0  0
    4.4270   -0.3020    0.0000 C   0  0  0  0  0  0  0  0  0  0  0  0
    6.2445   -1.0164    0.0000 H   0  0  0  0  0  0  0  0  0  0  0  0
    7.8495   -1.9431    0.0000 H   0  0  0  0  0  0  0  0  0  0  0  0
    6.7795   -1.9430    0.0000 H   0  0  0  0  0  0  0  0  0  0  0  0
    7.0245   -0.5141    0.0000 H   0  0  0  0  0  0  0  0  0  0  0  0
    6.6120   -1.2286    0.0000 H   0  0  0  0  0  0  0  0  0  0  0  0
    5.5420   -1.2286    0.0000 H   0  0  0  0  0  0  0  0  0  0  0  0
    4.7170   -1.2286    0.0000 H   0  0  0  0  0  0  0  0  0  0  0  0
    4.1820   -0.3020    0.0000 H   0  0  0  0  0  0  0  0  0  0  0  0
    4.1820    1.1270    0.0000 H   0  0  0  0  0  0  0  0  0  0  0  0
    7.0506    2.4538    0.0000 H   0  0  0  0  0  0  0  0  0  0  0  0
    5.1984    2.5185    0.0000 H   0  0  0  0  0  0  0  0  0  0  0  0
    6.1432    3.0208    0.0000 H   0  0  0  0  0  0  0  0  0  0  0  0
    7.7214    1.0619    0.0000 H   0  0  0  0  0  0  0  0  0  0  0  0
    6.7392    2.6335    0.0000 H   0  0  0  0  0  0  0  0  0  0  0  0
    7.6840    2.1313    0.0000 H   0  0  0  0  0  0  0  0  0  0  0  0
    5.3745    2.7681    0.0000 H   0  0  0  0  0  0  0  0  0  0  0  0
    4.3045    2.7680    0.0000 H   0  0  0  0  0  0  0  0  0  0  0  0
    3.4795    2.7681    0.0000 H   0  0  0  0  0  0  0  0  0  0  0  0
    2.9445    1.8414    0.0000 H   0  0  0  0  0  0  0  0  0  0  0  0
    2.9445    0.4125    0.0000 H   0  0  0  0  0  0  0  0  0  0  0  0
    2.2610   -1.1957    0.0000 H   0  0  0  0  0  0  0  0  0  0  0  0
    2.8995    2.7681    0.0000 H   0  0  0  0  0  0  0  0  0  0  0  0
    1.8295    2.7680    0.0000 H   0  0  0  0  0  0  0  0  0  0  0  0
    1.0045    2.7681    0.0000 H   0  0  0  0  0  0  0  0  0  0  0  0
    0.4695    1.8414    0.0000 H   0  0  0  0  0  0  0  0  0  0  0  0
    2.0745    1.3391    0.0000 H   0  0  0  0  0  0  0  0  0  0  0  0
    1.6620   -1.2286    0.0000 H   0  0  0  0  0  0  0  0  0  0  0  0
    0.5920   -1.2286    0.0000 H   0  0  0  0  0  0  0  0  0  0  0  0
   -1.1805    0.4125    0.0000 H   0  0  0  0  0  0  0  0  0  0  0  0
   -0.6455    1.3391    0.0000 H   0  0  0  0  0  0  0  0  0  0  0  0
   -0.2330    2.0536    0.0000 H   0  0  0  0  0  0  0  0  0  0  0  0
    0.8370    2.0536    0.0000 H   0  0  0  0  0  0  0  0  0  0  0  0
   -0.6716   -1.6288    0.0000 H   0  0  0  0  0  0  0  0  0  0  0  0
    1.1806   -1.6935    0.0000 H   0  0  0  0  0  0  0  0  0  0  0  0
    0.2358   -2.1958    0.0000 H   0  0  0  0  0  0  0  0  0  0  0  0
   -1.1587    0.5846    0.0000 H   0  0  0  0  0  0  0  0  0  0  0  0
    1.2495    2.7681    0.0000 H   0  0  0  0  0  0  0  0  0  0  0  0
   -0.3555    1.8414    0.0000 H   0  0  0  0  0  0  0  0  0  0  0  0
    0.1795    2.7680    0.0000 H   0  0  0  0  0  0  0  0  0  0  0  0
    4.2595    1.8414    0.0000 H   0  0  0  0  0  0  0  0  0  0  0  0
    2.6545    2.7681    0.0000 H   0  0  0  0  0  0  0  0  0  0  0  0
    3.7245    2.7680    0.0000 H   0  0  0  0  0  0  0  0  0  0  0  0
    4.6657    2.3828    0.0000 H   0  0  0  0  0  0  0  0  0  0  0  0
    2.8225    2.5764    0.0000 H   0  0  0  0  0  0  0  0  0  0  0  0
    3.8000    3.0116    0.0000 H   0  0  0  0  0  0  0  0  0  0  0  0
    3.3570   -0.3020    0.0000 H   0  0  0  0  0  0  0  0  0  0  0  0
    4.9620   -1.2286    0.0000 H   0  0  0  0  0  0  0  0  0  0  0  0
    3.8920   -1.2287    0.0000 H   0  0  0  0  0  0  0  0  0  0  0  0
  1  2  1  0  0  0  0
  1 38  1  0  0  0  0
  1 39  1  0  0  0  0
  1 40  1  0  0  0  0
  2  3  2  0  0  0  0
  2  4  1  0  0  0  0
  5  4  1  0  0  0  0
  5  6  1  0  0  0  0
  5 10  1  0  0  0  0
  5 41  1  6  0  0  0
  6  7  1  0  0  0  0
  6 42  1  0  0  0  0
  6 43  1  0  0  0  0
  7  8  1  0  0  0  0
  7 44  1  0  0  0  0
  7 45  1  0  0  0  0
  8  9  1  0  0  0  0
  8 16  1  0  0  0  0
  8 37  1  1  0  0  0
  9 10  1  0  0  0  0
  9 13  1  0  0  0  0
  9 46  1  6  0  0  0
 10 11  1  0  0  0  0
 10 12  1  0  0  0  0
 11 47  1  0  0  0  0
 11 48  1  0  0  0  0
 11 49  1  0  0  0  0
 12 50  1  0  0  0  0
 12 51  1  0  0  0  0
 12 52  1  0  0  0  0
 13 14  1  0  0  0  0
 13 53  1  0  0  0  0
 13 54  1  0  0  0  0
 14 15  1  0  0  0  0
 14 55  1  0  0  0  0
 14 56  1  0  0  0  0
 15 16  1  0  0  0  0
 15 21  1  0  0  0  0
 15 36  1  1  0  0  0
 16 17  1  0  0  0  0
 16 57  1  6  0  0  0
 17 18  2  0  0  0  0
 17 19  1  0  0  0  0
 19 20  2  0  0  0  0
 19 58  1  0  0  0  0
 20 21  1  0  0  0  0
 21 22  1  0  0  0  0
 21 35  1  6  0  0  0
 22 23  1  0  0  0  0
 22 59  1  0  0  0  0
 22 60  1  0  0  0  0
 23 24  1  0  0  0  0
 23 61  1  0  0  0  0
 23 62  1  0  0  0  0
 24 25  1  0  0  0  0
 24 29  1  0  0  0  0
 24 34  1  1  0  0  0
 25 20  1  0  0  0  0
 25 26  1  0  0  0  0
 25 63  1  1  0  0  0
 26 27  1  0  0  0  0
 26 64  1  0  0  0  0
 26 65  1  0  0  0  0
 27 28  1  0  0  0  0
 27 30  1  0  0  0  0
 27 31  1  1  0  0  0
 28 29  1  0  0  0  0
 28 66  1  0  0  0  0
 28 67  1  0  0  0  0
 29 68  1  0  0  0  0
 29 69  1  0  0  0  0
 30 70  1  0  0  0  0
 30 71  1  0  0  0  0
 30 72  1  0  0  0  0
 31 32  2  0  0  0  0
 31 33  1  0  0  0  0
 33 73  1  0  0  0  0
 34 74  1  0  0  0  0
 34 75  1  0  0  0  0
 34 76  1  0  0  0  0
 35 77  1  0  0  0  0
 35 78  1  0  0  0  0
 35 79  1  0  0  0  0
 36 80  1  0  0  0  0
 36 81  1  0  0  0  0
 36 82  1  0  0  0  0
 37 83  1  0  0  0  0
 37 84  1  0  0  0  0
 37 85  1  0  0  0  0
M  END
>  <DRUGBANK_ID>
DB13640

>  <COMMON_NAME>
Acetoxolone

>  <CAS_NUMBER>
6277-14-1

>  <UNII>
CWW961Q19K

$$$$
