
 OpenBabel10282417072D

 57 60  0  0  0  0  0  0  0  0999 V2000
   -0.9074    0.1443    0.0000 C   0  0  2  0  0  0  0  0  0  0  0  0
   -0.9074   -0.6806    0.0000 N   0  0  0  0  0  0  0  0  0  0  0  0
   -0.2062   -1.0931    0.0000 C   0  0  0  0  0  0  0  0  0  0  0  0
    0.4950   -0.6806    0.0000 C   0  0  0  0  0  0  0  0  0  0  0  0
    0.4950    0.1443    0.0000 C   0  0  0  0  0  0  0  0  0  0  0  0
   -0.2062    0.5568    0.0000 S   0  0  0  0  0  0  0  0  0  0  0  0
   -1.7324    0.1443    0.0000 C   0  0  1  0  0  0  0  0  0  0  0  0
   -1.7324   -0.6806    0.0000 C   0  0  0  0  0  0  0  0  0  0  0  0
   -2.4749    0.5568    0.0000 N   0  0  0  0  0  0  0  0  0  0  0  0
   -3.1762    0.1443    0.0000 C   0  0  0  0  0  0  0  0  0  0  0  0
   -3.1762   -0.6806    0.0000 O   0  0  0  0  0  0  0  0  0  0  0  0
   -2.4749   -1.0931    0.0000 O   0  0  0  0  0  0  0  0  0  0  0  0
   -3.8362    0.5568    0.0000 C   0  0  0  0  0  0  0  0  0  0  0  0
    1.2375   -1.0931    0.0000 C   0  0  0  0  0  0  0  0  0  0  0  0
   -4.5787    0.1443    0.0000 C   0  0  0  0  0  0  0  0  0  0  0  0
   -0.9074    0.9693    0.0000 H   0  0  0  0  0  0  0  0  0  0  0  0
    1.9387   -0.6806    0.0000 S   0  0  0  0  0  0  0  0  0  0  0  0
    2.6400   -1.0931    0.0000 C   0  0  0  0  0  0  0  0  0  0  0  0
   -5.1974    0.6393    0.0000 C   0  0  0  0  0  0  0  0  0  0  0  0
   -5.8987    0.1856    0.0000 S   0  0  0  0  0  0  0  0  0  0  0  0
   -5.6512   -0.6393    0.0000 C   0  0  0  0  0  0  0  0  0  0  0  0
   -4.8262   -0.6393    0.0000 N   0  0  0  0  0  0  0  0  0  0  0  0
   -3.8362    1.3818    0.0000 N   0  0  0  0  0  0  0  0  0  0  0  0
    2.8875   -1.8768    0.0000 N   0  0  0  0  0  0  0  0  0  0  0  0
    3.7125   -1.8768    0.0000 C   0  0  0  0  0  0  0  0  0  0  0  0
    4.0012   -1.0931    0.0000 C   0  0  0  0  0  0  0  0  0  0  0  0
    3.3000   -0.5981    0.0000 S   0  0  0  0  0  0  0  0  0  0  0  0
   -0.2062   -1.9181    0.0000 C   0  0  0  0  0  0  0  0  0  0  0  0
    0.4950   -2.3306    0.0000 O   0  0  0  0  0  0  0  0  0  0  0  0
   -0.9487   -2.3306    0.0000 O   0  0  0  0  0  0  0  0  0  0  0  0
   -6.1462   -1.2993    0.0000 N   0  0  0  0  0  0  0  0  0  0  0  0
    5.4450   -1.0931    0.0000 C   0  0  0  0  0  0  0  0  0  0  0  0
    4.7025   -0.6806    0.0000 C   0  0  0  0  0  0  0  0  0  0  0  0
    6.1462   -0.6806    0.0000 O   0  0  0  0  0  0  0  0  0  0  0  0
    5.4450   -1.9181    0.0000 O   0  0  0  0  0  0  0  0  0  0  0  0
    4.2075   -2.5781    0.0000 C   0  0  0  0  0  0  0  0  0  0  0  0
   -3.1349    1.7531    0.0000 O   0  0  0  0  0  0  0  0  0  0  0  0
   -3.1349    2.5781    0.0000 C   0  0  0  0  0  0  0  0  0  0  0  0
    1.4238    0.6755    0.0000 H   0  0  0  0  0  0  0  0  0  0  0  0
    0.5015    1.2143    0.0000 H   0  0  0  0  0  0  0  0  0  0  0  0
   -1.4640    1.1801    0.0000 H   0  0  0  0  0  0  0  0  0  0  0  0
   -2.4870    1.5412    0.0000 H   0  0  0  0  0  0  0  0  0  0  0  0
    1.2507   -2.1630    0.0000 H   0  0  0  0  0  0  0  0  0  0  0  0
    2.1696   -1.6186    0.0000 H   0  0  0  0  0  0  0  0  0  0  0  0
   -5.1455    1.6700    0.0000 H   0  0  0  0  0  0  0  0  0  0  0  0
    0.4874   -3.2676    0.0000 H   0  0  0  0  0  0  0  0  0  0  0  0
   -7.1236   -1.1815    0.0000 H   0  0  0  0  0  0  0  0  0  0  0  0
   -5.7595   -2.2047    0.0000 H   0  0  0  0  0  0  0  0  0  0  0  0
    4.6893    0.3893    0.0000 H   0  0  0  0  0  0  0  0  0  0  0  0
    3.7704   -0.1551    0.0000 H   0  0  0  0  0  0  0  0  0  0  0  0
    6.9615   -1.1425    0.0000 H   0  0  0  0  0  0  0  0  0  0  0  0
    3.7590   -3.5495    0.0000 H   0  0  0  0  0  0  0  0  0  0  0  0
    5.2731   -2.4808    0.0000 H   0  0  0  0  0  0  0  0  0  0  0  0
    4.8245   -3.4523    0.0000 H   0  0  0  0  0  0  0  0  0  0  0  0
   -2.2083    3.1131    0.0000 H   0  0  0  0  0  0  0  0  0  0  0  0
   -4.0615    3.1131    0.0000 H   0  0  0  0  0  0  0  0  0  0  0  0
   -3.1349    3.6481    0.0000 H   0  0  0  0  0  0  0  0  0  0  0  0
  1  2  1  0  0  0  0
  1  6  1  0  0  0  0
  1  7  1  0  0  0  0
  1 16  1  6  0  0  0
  2  3  1  0  0  0  0
  2  8  1  0  0  0  0
  3  4  2  0  0  0  0
  3 28  1  0  0  0  0
  4  5  1  0  0  0  0
  4 14  1  0  0  0  0
  5  6  1  0  0  0  0
  5 39  1  0  0  0  0
  5 40  1  0  0  0  0
  7  8  1  0  0  0  0
  7  9  1  0  0  0  0
  7 41  1  6  0  0  0
  8 12  2  0  0  0  0
  9 10  1  0  0  0  0
  9 42  1  0  0  0  0
 10 11  2  0  0  0  0
 10 13  1  0  0  0  0
 13 15  1  0  0  0  0
 13 23  2  0  0  0  0
 14 17  1  0  0  0  0
 14 43  1  0  0  0  0
 14 44  1  0  0  0  0
 15 19  2  0  0  0  0
 15 22  1  0  0  0  0
 17 18  1  0  0  0  0
 18 24  2  0  0  0  0
 18 27  1  0  0  0  0
 19 20  1  0  0  0  0
 19 45  1  0  0  0  0
 20 21  1  0  0  0  0
 21 22  2  0  0  0  0
 21 31  1  0  0  0  0
 23 37  1  0  0  0  0
 24 25  1  0  0  0  0
 25 26  2  0  0  0  0
 25 36  1  0  0  0  0
 26 27  1  0  0  0  0
 26 33  1  0  0  0  0
 28 29  1  0  0  0  0
 28 30  2  0  0  0  0
 29 46  1  0  0  0  0
 31 47  1  0  0  0  0
 31 48  1  0  0  0  0
 32 33  1  0  0  0  0
 32 34  1  0  0  0  0
 32 35  2  0  0  0  0
 33 49  1  0  0  0  0
 33 50  1  0  0  0  0
 34 51  1  0  0  0  0
 36 52  1  0  0  0  0
 36 53  1  0  0  0  0
 36 54  1  0  0  0  0
 37 38  1  0  0  0  0
 38 55  1  0  0  0  0
 38 56  1  0  0  0  0
 38 57  1  0  0  0  0
M  END
>  <DRUGBANK_ID>
DB13470

>  <COMMON_NAME>
Cefodizime

>  <CAS_NUMBER>
69739-16-8

>  <UNII>
Z31298J4HQ

>  <SYNONYMS>
CDZM; Cefodizima; Cefodizime; Cefodizimum

$$$$
