
 OpenBabel10282417072D

 51 53  0  0  0  0  0  0  0  0999 V2000
    0.9549    0.6952    0.0000 S   0  0  0  0  0  0  0  0  0  0  0  0
    0.2444    1.1305    0.0000 N   0  0  0  0  0  0  0  0  0  0  0  0
   -0.4736    0.7180    0.0000 C   0  0  0  0  0  0  0  0  0  0  0  0
   -1.1153    1.0694    0.0000 N   0  0  0  0  0  0  0  0  0  0  0  0
    1.6729    0.2520    0.0000 C   0  0  0  0  0  0  0  0  0  0  0  0
    1.3826    1.4056    0.0000 O   0  0  0  0  0  0  0  0  0  0  0  0
    0.5347   -0.0381    0.0000 O   0  0  0  0  0  0  0  0  0  0  0  0
   -0.4736   -0.1069    0.0000 O   0  0  0  0  0  0  0  0  0  0  0  0
    1.6729   -0.5575    0.0000 C   0  0  0  0  0  0  0  0  0  0  0  0
    2.3758    0.6646    0.0000 C   0  0  0  0  0  0  0  0  0  0  0  0
    3.0939    0.2520    0.0000 C   0  0  0  0  0  0  0  0  0  0  0  0
    2.3758   -0.9777    0.0000 C   0  0  0  0  0  0  0  0  0  0  0  0
    3.0939   -0.5575    0.0000 C   0  0  0  0  0  0  0  0  0  0  0  0
    3.8196   -0.9777    0.0000 C   0  0  0  0  0  0  0  0  0  0  0  0
   -1.8105    0.6569    0.0000 C   0  0  1  0  0  0  0  0  0  0  0  0
   -2.5209    1.0542    0.0000 C   0  0  1  0  0  0  0  0  0  0  0  0
   -1.8105   -0.1681    0.0000 C   0  0  1  0  0  0  0  0  0  0  0  0
   -3.2237    0.6417    0.0000 C   0  0  0  0  0  0  0  0  0  0  0  0
   -2.5133   -0.5806    0.0000 C   0  0  2  0  0  0  0  0  0  0  0  0
   -3.2237   -0.1832    0.0000 C   0  0  0  0  0  0  0  0  0  0  0  0
   -2.9563    0.3132    0.0000 C   0  0  0  0  0  0  0  0  0  0  0  0
   -2.7271   -1.4056    0.0000 C   0  0  0  0  0  0  0  0  0  0  0  0
   -1.0542   -0.5958    0.0000 O   0  0  0  0  0  0  0  0  0  0  0  0
   -3.8196    0.3132    0.0000 C   0  0  0  0  0  0  0  0  0  0  0  0
   -1.3215    0.3132    0.0000 C   0  0  0  0  0  0  0  0  0  0  0  0
    0.2583    2.1149    0.0000 H   0  0  0  0  0  0  0  0  0  0  0  0
   -1.1323    2.0538    0.0000 H   0  0  0  0  0  0  0  0  0  0  0  0
    0.7753   -1.0667    0.0000 H   0  0  0  0  0  0  0  0  0  0  0  0
    2.3710    1.6966    0.0000 H   0  0  0  0  0  0  0  0  0  0  0  0
    3.9871    0.7689    0.0000 H   0  0  0  0  0  0  0  0  0  0  0  0
    2.3710   -2.0097    0.0000 H   0  0  0  0  0  0  0  0  0  0  0  0
    3.8183   -2.0477    0.0000 H   0  0  0  0  0  0  0  0  0  0  0  0
    4.7469   -0.4439    0.0000 H   0  0  0  0  0  0  0  0  0  0  0  0
    4.7456   -1.5139    0.0000 H   0  0  0  0  0  0  0  0  0  0  0  0
   -1.8242    1.7268    0.0000 H   0  0  0  0  0  0  0  0  0  0  0  0
   -2.2408    0.0215    0.0000 H   0  0  0  0  0  0  0  0  0  0  0  0
   -0.8862    0.3710    0.0000 H   0  0  0  0  0  0  0  0  0  0  0  0
   -4.1523    1.1734    0.0000 H   0  0  0  0  0  0  0  0  0  0  0  0
   -4.1494    0.1050    0.0000 H   0  0  0  0  0  0  0  0  0  0  0  0
   -4.1467   -0.7245    0.0000 H   0  0  0  0  0  0  0  0  0  0  0  0
   -3.2128   -1.2531    0.0000 H   0  0  0  0  0  0  0  0  0  0  0  0
   -3.7583   -1.6910    0.0000 H   0  0  0  0  0  0  0  0  0  0  0  0
   -1.9643   -2.1560    0.0000 H   0  0  0  0  0  0  0  0  0  0  0  0
   -2.9955   -2.4414    0.0000 H   0  0  0  0  0  0  0  0  0  0  0  0
   -1.0455   -1.5658    0.0000 H   0  0  0  0  0  0  0  0  0  0  0  0
   -4.3546    1.2398    0.0000 H   0  0  0  0  0  0  0  0  0  0  0  0
   -4.3546   -0.6134    0.0000 H   0  0  0  0  0  0  0  0  0  0  0  0
   -4.8896    0.3132    0.0000 H   0  0  0  0  0  0  0  0  0  0  0  0
   -0.7865   -0.6134    0.0000 H   0  0  0  0  0  0  0  0  0  0  0  0
   -0.7865    1.2398    0.0000 H   0  0  0  0  0  0  0  0  0  0  0  0
   -0.2515    0.3132    0.0000 H   0  0  0  0  0  0  0  0  0  0  0  0
  1  2  1  0  0  0  0
  1  5  1  0  0  0  0
  1  6  2  0  0  0  0
  1  7  2  0  0  0  0
  2  3  1  0  0  0  0
  2 26  1  0  0  0  0
  3  4  1  0  0  0  0
  3  8  2  0  0  0  0
  4 27  1  0  0  0  0
  5  9  2  0  0  0  0
  5 10  1  0  0  0  0
  9 12  1  0  0  0  0
  9 28  1  0  0  0  0
 10 11  2  0  0  0  0
 10 29  1  0  0  0  0
 11 13  1  0  0  0  0
 11 30  1  0  0  0  0
 12 13  2  0  0  0  0
 12 31  1  0  0  0  0
 13 14  1  0  0  0  0
 14 32  1  0  0  0  0
 14 33  1  0  0  0  0
 14 34  1  0  0  0  0
 15  4  1  0  0  0  0
 15 16  1  0  0  0  0
 15 17  1  0  0  0  0
 15 35  1  1  0  0  0
 16 18  1  0  0  0  0
 16 21  1  0  0  0  0
 16 36  1  1  0  0  0
 17 19  1  0  0  0  0
 17 23  1  0  0  0  0
 17 37  1  1  0  0  0
 18 20  1  0  0  0  0
 18 38  1  0  0  0  0
 18 39  1  0  0  0  0
 19 20  1  0  0  0  0
 19 21  1  0  0  0  0
 19 22  1  1  0  0  0
 20 40  1  0  0  0  0
 20 41  1  0  0  0  0
 21 24  1  0  0  0  0
 21 25  1  0  0  0  0
 22 42  1  0  0  0  0
 22 43  1  0  0  0  0
 22 44  1  0  0  0  0
 23 45  1  0  0  0  0
 24 46  1  0  0  0  0
 24 47  1  0  0  0  0
 24 48  1  0  0  0  0
 25 49  1  0  0  0  0
 25 50  1  0  0  0  0
 25 51  1  0  0  0  0
M  END
>  <DRUGBANK_ID>
DB08962

>  <COMMON_NAME>
Glibornuride

>  <CAS_NUMBER>
26944-48-9

>  <UNII>
VP83E7434R

>  <SYNONYMS>
Glibornurid; Glibornurida; Glibornuride; Glibornuridum

$$$$
