
 OpenBabel10282417072D

 35 37  0  0  0  0  0  0  0  0999 V2000
    1.4934    1.1502    0.0000 C   0  0  0  0  0  0  0  0  0  0  0  0
    1.4934    0.3252    0.0000 N   0  0  0  0  0  0  0  0  0  0  0  0
    2.2222    1.6079    0.0000 C   0  0  0  0  0  0  0  0  0  0  0  0
    0.7768    1.5657    0.0000 N   0  0  0  0  0  0  0  0  0  0  0  0
    0.0481    0.3252    0.0000 C   0  0  0  0  0  0  0  0  0  0  0  0
   -2.1138   -0.9394    0.0000 C   0  0  0  0  0  0  0  0  0  0  0  0
    3.5230    1.6079    0.0000 N   0  0  0  0  0  0  0  0  0  0  0  0
    0.0481    1.1502    0.0000 C   0  0  0  0  0  0  0  0  0  0  0  0
   -0.6684   -0.0783    0.0000 C   0  0  0  0  0  0  0  0  0  0  0  0
   -2.1138   -0.0783    0.0000 N   0  0  0  0  0  0  0  0  0  0  0  0
    2.8665    2.7461    0.0000 S   0  0  0  0  0  0  0  0  0  0  0  0
    3.5230    2.3245    0.0000 C   0  0  0  0  0  0  0  0  0  0  0  0
    2.2222    2.3245    0.0000 C   0  0  0  0  0  0  0  0  0  0  0  0
   -1.3791    0.3252    0.0000 C   0  0  0  0  0  0  0  0  0  0  0  0
   -1.3730   -1.3791    0.0000 O   0  0  0  0  0  0  0  0  0  0  0  0
   -2.8364   -1.4092    0.0000 O   0  0  0  0  0  0  0  0  0  0  0  0
   -0.6684    1.5657    0.0000 C   0  0  0  0  0  0  0  0  0  0  0  0
   -1.3791    1.1502    0.0000 C   0  0  0  0  0  0  0  0  0  0  0  0
   -2.8364   -2.2644    0.0000 C   0  0  0  0  0  0  0  0  0  0  0  0
   -3.5230   -2.7461    0.0000 C   0  0  0  0  0  0  0  0  0  0  0  0
   -2.0776   -2.6558    0.0000 C   0  0  0  0  0  0  0  0  0  0  0  0
    0.7804    2.5502    0.0000 H   0  0  0  0  0  0  0  0  0  0  0  0
   -0.6702   -1.1103    0.0000 H   0  0  0  0  0  0  0  0  0  0  0  0
   -2.9611    0.4230    0.0000 H   0  0  0  0  0  0  0  0  0  0  0  0
    4.4287    2.8192    0.0000 H   0  0  0  0  0  0  0  0  0  0  0  0
    1.3144    2.8154    0.0000 H   0  0  0  0  0  0  0  0  0  0  0  0
   -0.6702    2.5977    0.0000 H   0  0  0  0  0  0  0  0  0  0  0  0
   -2.2742    1.6638    0.0000 H   0  0  0  0  0  0  0  0  0  0  0  0
   -2.7639   -3.3319    0.0000 H   0  0  0  0  0  0  0  0  0  0  0  0
   -4.4932   -2.2948    0.0000 H   0  0  0  0  0  0  0  0  0  0  0  0
   -3.4288   -3.8119    0.0000 H   0  0  0  0  0  0  0  0  0  0  0  0
   -4.3989   -3.3606    0.0000 H   0  0  0  0  0  0  0  0  0  0  0  0
   -2.0269   -3.7246    0.0000 H   0  0  0  0  0  0  0  0  0  0  0  0
   -1.1773   -2.0775    0.0000 H   0  0  0  0  0  0  0  0  0  0  0  0
   -1.1267   -3.1463    0.0000 H   0  0  0  0  0  0  0  0  0  0  0  0
  2  1  2  0  0  0  0
  3  1  1  0  0  0  0
  4  1  1  0  0  0  0
  4 22  1  0  0  0  0
  5  2  1  0  0  0  0
  5  8  2  0  0  0  0
  6 10  1  0  0  0  0
  7  3  1  0  0  0  0
  8  4  1  0  0  0  0
  9  5  1  0  0  0  0
  9 23  1  0  0  0  0
 10 14  1  0  0  0  0
 10 24  1  0  0  0  0
 11 13  1  0  0  0  0
 11 12  1  0  0  0  0
 12  7  2  0  0  0  0
 12 25  1  0  0  0  0
 13  3  2  0  0  0  0
 13 26  1  0  0  0  0
 14  9  2  0  0  0  0
 14 18  1  0  0  0  0
 15  6  2  0  0  0  0
 16  6  1  0  0  0  0
 17  8  1  0  0  0  0
 17 27  1  0  0  0  0
 18 17  2  0  0  0  0
 18 28  1  0  0  0  0
 19 16  1  0  0  0  0
 19 29  1  0  0  0  0
 20 19  1  0  0  0  0
 20 30  1  0  0  0  0
 20 31  1  0  0  0  0
 20 32  1  0  0  0  0
 21 19  1  0  0  0  0
 21 33  1  0  0  0  0
 21 34  1  0  0  0  0
 21 35  1  0  0  0  0
M  END
>  <DRUGBANK_ID>
DB11380

>  <COMMON_NAME>
Cambendazole

>  <CAS_NUMBER>
26097-80-3

>  <UNII>
079X63S3DU

>  <SYNONYMS>
Cambendazol; Cambendazole; Cambendazolum

$$$$
