
 OpenBabel10282417072D

 13 12  0  0  0  0  0  0  0  0999 V2000
    0.3572    0.2062    0.0000 C   0  0  0  0  0  0  0  0  0  0  0  0
   -0.3572   -0.2062    0.0000 C   0  0  1  0  0  0  0  0  0  0  0  0
    1.0716   -0.2062    0.0000 O   0  0  0  0  0  0  0  0  0  0  0  0
    0.3572    1.0312    0.0000 O   0  0  0  0  0  0  0  0  0  0  0  0
   -0.3572   -1.0312    0.0000 N   0  0  0  0  0  0  0  0  0  0  0  0
   -1.0717    0.2062    0.0000 C   0  0  0  0  0  0  0  0  0  0  0  0
    0.5694   -0.7412    0.0000 H   0  0  0  0  0  0  0  0  0  0  0  0
    1.0717   -1.1432    0.0000 H   0  0  0  0  0  0  0  0  0  0  0  0
   -1.2405   -1.5412    0.0000 H   0  0  0  0  0  0  0  0  0  0  0  0
    0.5261   -1.5412    0.0000 H   0  0  0  0  0  0  0  0  0  0  0  0
   -1.0718    1.2762    0.0000 H   0  0  0  0  0  0  0  0  0  0  0  0
   -1.9983   -0.3289    0.0000 H   0  0  0  0  0  0  0  0  0  0  0  0
   -1.9984    0.7411    0.0000 H   0  0  0  0  0  0  0  0  0  0  0  0
  2  1  1  0  0  0  0
  2  6  1  0  0  0  0
  2  5  1  0  0  0  0
  2  7  1  6  0  0  0
  3  1  1  0  0  0  0
  3  8  1  0  0  0  0
  4  1  2  0  0  0  0
  5  9  1  0  0  0  0
  5 10  1  0  0  0  0
  6 11  1  0  0  0  0
  6 12  1  0  0  0  0
  6 13  1  0  0  0  0
M  END
>  <DRUGBANK_ID>
DB00160

>  <SECONDARY_ACCESSION_NUMBERS>
NUTR00013

>  <COMMON_NAME>
Alanine

>  <CAS_NUMBER>
56-41-7

>  <UNII>
OF5P57N2ZX

>  <SYNONYMS>
(2S)-2-aminopropanoic acid; (S)-2-aminopropanoic acid; (S)-alanine; Alanina; Alanine; Alaninum; L-2-Aminopropionic acid; L-Alanin; L-alanine; L-alpha-Alanine; L-Î±-alanine

$$$$
