
 OpenBabel10282417072D

 69 74  0  0  0  0  0  0  0  0999 V2000
    1.4289    0.2062    0.0000 C   0  0  0  0  0  0  0  0  0  0  0  0
   -0.7144   -4.3312    0.0000 C   0  0  0  0  0  0  0  0  0  0  0  0
    0.0000    4.3312    0.0000 C   0  0  0  0  0  0  0  0  0  0  0  0
   -0.7144   -3.5062    0.0000 C   0  0  0  0  0  0  0  0  0  0  0  0
    0.7144    3.9187    0.0000 C   0  0  0  0  0  0  0  0  0  0  0  0
   -2.1434   -1.8562    0.0000 C   0  0  0  0  0  0  0  0  0  0  0  0
    2.8578    4.3312    0.0000 C   0  0  0  0  0  0  0  0  0  0  0  0
   -2.8578   -2.2687    0.0000 C   0  0  0  0  0  0  0  0  0  0  0  0
    2.8578    5.1562    0.0000 C   0  0  0  0  0  0  0  0  0  0  0  0
    1.4289   -0.6187    0.0000 C   0  0  0  0  0  0  0  0  0  0  0  0
    2.1434    0.6187    0.0000 C   0  0  0  0  0  0  0  0  0  0  0  0
    0.0000   -0.6187    0.0000 C   0  0  0  0  0  0  0  0  0  0  0  0
    0.7144   -1.8562    0.0000 C   0  0  0  0  0  0  0  0  0  0  0  0
    2.8578    1.8562    0.0000 C   0  0  0  0  0  0  0  0  0  0  0  0
    1.4289    1.8562    0.0000 C   0  0  0  0  0  0  0  0  0  0  0  0
   -0.7144   -1.0312    0.0000 C   0  0  0  0  0  0  0  0  0  0  0  0
    0.0000   -2.2687    0.0000 C   0  0  0  0  0  0  0  0  0  0  0  0
    2.8578    2.6812    0.0000 C   0  0  0  0  0  0  0  0  0  0  0  0
    1.4289    2.6812    0.0000 C   0  0  0  0  0  0  0  0  0  0  0  0
   -2.1434   -4.3312    0.0000 C   0  0  0  0  0  0  0  0  0  0  0  0
    0.7144    5.5687    0.0000 C   0  0  0  0  0  0  0  0  0  0  0  0
   -1.4289   -4.7437    0.0000 C   0  0  0  0  0  0  0  0  0  0  0  0
    0.0000    5.1562    0.0000 C   0  0  0  0  0  0  0  0  0  0  0  0
   -1.4289   -3.0937    0.0000 C   0  0  0  0  0  0  0  0  0  0  0  0
    1.4289    4.3312    0.0000 C   0  0  0  0  0  0  0  0  0  0  0  0
   -2.1434   -3.5062    0.0000 C   0  0  0  0  0  0  0  0  0  0  0  0
    1.4289    5.1562    0.0000 C   0  0  0  0  0  0  0  0  0  0  0  0
   -1.4289   -2.2687    0.0000 C   0  0  0  0  0  0  0  0  0  0  0  0
    2.1434    3.9187    0.0000 C   0  0  0  0  0  0  0  0  0  0  0  0
   -1.4289   -5.5687    0.0000 Cl  0  0  0  0  0  0  0  0  0  0  0  0
   -0.7144    5.5687    0.0000 Cl  0  0  0  0  0  0  0  0  0  0  0  0
   -2.8578   -3.0937    0.0000 N   0  0  0  0  0  0  0  0  0  0  0  0
    2.1434    5.5687    0.0000 N   0  0  0  0  0  0  0  0  0  0  0  0
    0.7144   -1.0312    0.0000 N   0  0  0  0  0  0  0  0  0  0  0  0
    2.1434    1.4437    0.0000 N   0  0  0  0  0  0  0  0  0  0  0  0
   -0.7144   -1.8562    0.0000 N   0  0  0  0  0  0  0  0  0  0  0  0
    2.1434    3.0937    0.0000 N   0  0  0  0  0  0  0  0  0  0  0  0
    0.5023    0.7412    0.0000 H   0  0  0  0  0  0  0  0  0  0  0  0
    1.4289    1.2762    0.0000 H   0  0  0  0  0  0  0  0  0  0  0  0
    0.1793   -4.8472    0.0000 H   0  0  0  0  0  0  0  0  0  0  0  0
   -0.8937    3.8152    0.0000 H   0  0  0  0  0  0  0  0  0  0  0  0
    0.1793   -2.9902    0.0000 H   0  0  0  0  0  0  0  0  0  0  0  0
    0.7144    2.8867    0.0000 H   0  0  0  0  0  0  0  0  0  0  0  0
   -2.1434   -0.8242    0.0000 H   0  0  0  0  0  0  0  0  0  0  0  0
    3.7515    3.8152    0.0000 H   0  0  0  0  0  0  0  0  0  0  0  0
   -3.7515   -1.7527    0.0000 H   0  0  0  0  0  0  0  0  0  0  0  0
    3.7515    5.6722    0.0000 H   0  0  0  0  0  0  0  0  0  0  0  0
    2.3555   -1.1537    0.0000 H   0  0  0  0  0  0  0  0  0  0  0  0
    1.4289   -1.6887    0.0000 H   0  0  0  0  0  0  0  0  0  0  0  0
    3.0700    0.0837    0.0000 H   0  0  0  0  0  0  0  0  0  0  0  0
    3.0700    1.1537    0.0000 H   0  0  0  0  0  0  0  0  0  0  0  0
    0.0000    0.4513    0.0000 H   0  0  0  0  0  0  0  0  0  0  0  0
    0.9267   -0.0837    0.0000 H   0  0  0  0  0  0  0  0  0  0  0  0
    1.6411   -2.3912    0.0000 H   0  0  0  0  0  0  0  0  0  0  0  0
    1.6410   -1.3212    0.0000 H   0  0  0  0  0  0  0  0  0  0  0  0
    3.7845    1.3212    0.0000 H   0  0  0  0  0  0  0  0  0  0  0  0
    2.8578    0.7862    0.0000 H   0  0  0  0  0  0  0  0  0  0  0  0
    0.5023    1.3212    0.0000 H   0  0  0  0  0  0  0  0  0  0  0  0
    1.4289    0.7862    0.0000 H   0  0  0  0  0  0  0  0  0  0  0  0
   -1.6411   -0.4962    0.0000 H   0  0  0  0  0  0  0  0  0  0  0  0
   -1.6410   -1.5662    0.0000 H   0  0  0  0  0  0  0  0  0  0  0  0
    0.0000   -3.3387    0.0000 H   0  0  0  0  0  0  0  0  0  0  0  0
   -0.9267   -2.8037    0.0000 H   0  0  0  0  0  0  0  0  0  0  0  0
    3.7845    3.2162    0.0000 H   0  0  0  0  0  0  0  0  0  0  0  0
    2.8578    3.7512    0.0000 H   0  0  0  0  0  0  0  0  0  0  0  0
    0.5023    3.2162    0.0000 H   0  0  0  0  0  0  0  0  0  0  0  0
    1.4289    3.7512    0.0000 H   0  0  0  0  0  0  0  0  0  0  0  0
   -3.0371   -4.8472    0.0000 H   0  0  0  0  0  0  0  0  0  0  0  0
    0.7144    6.6007    0.0000 H   0  0  0  0  0  0  0  0  0  0  0  0
  1 38  1  0  0  0  0
  1 39  1  0  0  0  0
  2 40  1  0  0  0  0
  3 41  1  0  0  0  0
  4  2  2  0  0  0  0
  4 42  1  0  0  0  0
  5  3  2  0  0  0  0
  5 43  1  0  0  0  0
  6 44  1  0  0  0  0
  7 45  1  0  0  0  0
  8  6  1  0  0  0  0
  8 46  1  0  0  0  0
  9  7  1  0  0  0  0
  9 47  1  0  0  0  0
 10  1  1  0  0  0  0
 10 48  1  0  0  0  0
 10 49  1  0  0  0  0
 11  1  1  0  0  0  0
 11 50  1  0  0  0  0
 11 51  1  0  0  0  0
 12 52  1  0  0  0  0
 12 53  1  0  0  0  0
 13 54  1  0  0  0  0
 13 55  1  0  0  0  0
 14 56  1  0  0  0  0
 14 57  1  0  0  0  0
 15 58  1  0  0  0  0
 15 59  1  0  0  0  0
 16 12  1  0  0  0  0
 16 60  1  0  0  0  0
 16 61  1  0  0  0  0
 17 13  1  0  0  0  0
 17 62  1  0  0  0  0
 17 63  1  0  0  0  0
 18 14  1  0  0  0  0
 18 64  1  0  0  0  0
 18 65  1  0  0  0  0
 19 15  1  0  0  0  0
 19 66  1  0  0  0  0
 19 67  1  0  0  0  0
 20 68  1  0  0  0  0
 21 69  1  0  0  0  0
 22  2  1  0  0  0  0
 22 20  2  0  0  0  0
 23  3  1  0  0  0  0
 23 21  2  0  0  0  0
 24  4  1  0  0  0  0
 25  5  1  0  0  0  0
 26 20  1  0  0  0  0
 26 24  2  0  0  0  0
 27 21  1  0  0  0  0
 27 25  2  0  0  0  0
 28  6  2  0  0  0  0
 28 24  1  0  0  0  0
 29  7  2  0  0  0  0
 29 25  1  0  0  0  0
 30 22  1  0  0  0  0
 31 23  1  0  0  0  0
 32  8  2  0  0  0  0
 32 26  1  0  0  0  0
 33  9  2  0  0  0  0
 33 27  1  0  0  0  0
 34 10  1  0  0  0  0
 34 12  1  0  0  0  0
 34 13  1  0  0  0  0
 35 11  1  0  0  0  0
 35 14  1  0  0  0  0
 35 15  1  0  0  0  0
 36 16  1  0  0  0  0
 36 17  1  0  0  0  0
 36 28  1  0  0  0  0
 37 18  1  0  0  0  0
 37 19  1  0  0  0  0
 37 29  1  0  0  0  0
M  END
>  <DRUGBANK_ID>
DB13941

>  <COMMON_NAME>
Piperaquine

>  <CAS_NUMBER>
4085-31-8

>  <UNII>
A0HV2Q956Y

>  <SYNONYMS>
1,3-bis[4-(7-chloroquinolin-4-yl)piperazin-1-yl]propane

$$$$
