
 OpenBabel10282417072D

 16 16  0  0  0  0  0  0  0  0999 V2000
    0.0000    0.6187    0.0000 C   0  0  0  0  0  0  0  0  0  0  0  0
    0.7145    0.2062    0.0000 C   0  0  0  0  0  0  0  0  0  0  0  0
    0.7145   -0.6187    0.0000 C   0  0  0  0  0  0  0  0  0  0  0  0
    0.0000   -1.0313    0.0000 C   0  0  0  0  0  0  0  0  0  0  0  0
   -0.7145   -0.6187    0.0000 C   0  0  0  0  0  0  0  0  0  0  0  0
   -0.7145    0.2062    0.0000 C   0  0  0  0  0  0  0  0  0  0  0  0
    0.0000    1.4438    0.0000 C   0  0  0  0  0  0  0  0  0  0  0  0
   -0.7145    1.8563    0.0000 O   0  0  0  0  0  0  0  0  0  0  0  0
    0.7145    1.8563    0.0000 O   0  0  0  0  0  0  0  0  0  0  0  0
    0.0000   -1.8563    0.0000 O   0  0  0  0  0  0  0  0  0  0  0  0
    1.6082    0.7222    0.0000 H   0  0  0  0  0  0  0  0  0  0  0  0
    1.6083   -1.1347    0.0000 H   0  0  0  0  0  0  0  0  0  0  0  0
   -1.6083   -1.1347    0.0000 H   0  0  0  0  0  0  0  0  0  0  0  0
   -1.6082    0.7222    0.0000 H   0  0  0  0  0  0  0  0  0  0  0  0
    1.5260    1.3878    0.0000 H   0  0  0  0  0  0  0  0  0  0  0  0
   -0.8115   -2.3248    0.0000 H   0  0  0  0  0  0  0  0  0  0  0  0
  1  7  1  0  0  0  0
  2  1  2  0  0  0  0
  2 11  1  0  0  0  0
  3  2  1  0  0  0  0
  3 12  1  0  0  0  0
  4  3  2  0  0  0  0
  4  5  1  0  0  0  0
  5  6  2  0  0  0  0
  5 13  1  0  0  0  0
  6  1  1  0  0  0  0
  6 14  1  0  0  0  0
  8  7  2  0  0  0  0
  9  7  1  0  0  0  0
  9 15  1  0  0  0  0
 10  4  1  0  0  0  0
 10 16  1  0  0  0  0
M  END
>  <DRUGBANK_ID>
DB04242

>  <SECONDARY_ACCESSION_NUMBERS>
EXPT02580

>  <COMMON_NAME>
4-hydroxybenzoic acid

>  <CAS_NUMBER>
99-96-7

>  <UNII>
JG8Z55Y12H

>  <SYNONYMS>
4-carboxyphenol; p-Hydroxybenzoic acid; p-salicylic acid

$$$$
