
 OpenBabel10282417072D

 60 62  0  0  0  0  0  0  0  0999 V2000
   -0.7962   -0.2298    0.0000 C   0  0  0  0  0  0  0  0  0  0  0  0
   -0.7962   -1.0478    0.0000 N   0  0  0  0  0  0  0  0  0  0  0  0
   -2.2336   -0.2298    0.0000 C   0  0  0  0  0  0  0  0  0  0  0  0
   -2.2336   -1.0478    0.0000 C   0  0  0  0  0  0  0  0  0  0  0  0
   -1.5173    0.1863    0.0000 N   0  0  0  0  0  0  0  0  0  0  0  0
   -1.5173   -1.4495    0.0000 C   0  0  0  0  0  0  0  0  0  0  0  0
   -2.9596    0.1863    0.0000 C   0  0  0  0  0  0  0  0  0  0  0  0
   -3.6807   -0.2298    0.0000 C   0  0  0  0  0  0  0  0  0  0  0  0
   -0.0798    0.2008    0.0000 N   0  0  0  0  0  0  0  0  0  0  0  0
    2.0400    1.4640    0.0000 C   0  0  0  0  0  0  0  0  0  0  0  0
    1.3285    1.0430    0.0000 N   0  0  0  0  0  0  0  0  0  0  0  0
   -2.9596   -1.4495    0.0000 C   0  0  0  0  0  0  0  0  0  0  0  0
   -3.6807   -1.0478    0.0000 C   0  0  0  0  0  0  0  0  0  0  0  0
    2.7611    1.0769    0.0000 O   0  0  0  0  0  0  0  0  0  0  0  0
    0.6461   -0.2008    0.0000 C   0  0  0  0  0  0  0  0  0  0  0  0
   -0.0943    1.0284    0.0000 C   0  0  0  0  0  0  0  0  0  0  0  0
    1.3430    0.2056    0.0000 C   0  0  0  0  0  0  0  0  0  0  0  0
    0.6121    1.4398    0.0000 C   0  0  0  0  0  0  0  0  0  0  0  0
    2.0496    2.2674    0.0000 O   0  0  0  0  0  0  0  0  0  0  0  0
   -1.5173   -2.2674    0.0000 N   0  0  0  0  0  0  0  0  0  0  0  0
    4.2034    1.0913    0.0000 C   0  0  0  0  0  0  0  0  0  0  0  0
   -2.9596    1.0139    0.0000 O   0  0  0  0  0  0  0  0  0  0  0  0
   -4.4115    0.2202    0.0000 O   0  0  0  0  0  0  0  0  0  0  0  0
    3.4629    1.4931    0.0000 C   0  0  0  0  0  0  0  0  0  0  0  0
   -4.3971   -1.4495    0.0000 O   0  0  0  0  0  0  0  0  0  0  0  0
    4.2034    0.2879    0.0000 O   0  0  0  0  0  0  0  0  0  0  0  0
    5.1036    0.8977    0.0000 C   0  0  0  0  0  0  0  0  0  0  0  0
    4.9148    1.5076    0.0000 C   0  0  0  0  0  0  0  0  0  0  0  0
   -3.6661    1.4398    0.0000 C   0  0  0  0  0  0  0  0  0  0  0  0
   -5.1036   -0.2056    0.0000 C   0  0  0  0  0  0  0  0  0  0  0  0
   -5.1036   -1.0478    0.0000 C   0  0  0  0  0  0  0  0  0  0  0  0
   -2.9611   -2.4815    0.0000 H   0  0  0  0  0  0  0  0  0  0  0  0
    0.6582   -1.2707    0.0000 H   0  0  0  0  0  0  0  0  0  0  0  0
    1.5769   -0.7285    0.0000 H   0  0  0  0  0  0  0  0  0  0  0  0
   -1.0266    1.5535    0.0000 H   0  0  0  0  0  0  0  0  0  0  0  0
   -0.1020    2.0984    0.0000 H   0  0  0  0  0  0  0  0  0  0  0  0
    2.2754   -0.3193    0.0000 H   0  0  0  0  0  0  0  0  0  0  0  0
    2.2620    0.7536    0.0000 H   0  0  0  0  0  0  0  0  0  0  0  0
    0.6006    2.5097    0.0000 H   0  0  0  0  0  0  0  0  0  0  0  0
   -0.3184    1.9680    0.0000 H   0  0  0  0  0  0  0  0  0  0  0  0
   -2.3699   -2.7596    0.0000 H   0  0  0  0  0  0  0  0  0  0  0  0
   -0.6647   -2.7596    0.0000 H   0  0  0  0  0  0  0  0  0  0  0  0
    3.4425    2.5629    0.0000 H   0  0  0  0  0  0  0  0  0  0  0  0
    2.5281    2.0138    0.0000 H   0  0  0  0  0  0  0  0  0  0  0  0
    3.3634   -0.1971    0.0000 H   0  0  0  0  0  0  0  0  0  0  0  0
    5.4318   -0.1207    0.0000 H   0  0  0  0  0  0  0  0  0  0  0  0
    5.8215    1.6911    0.0000 H   0  0  0  0  0  0  0  0  0  0  0  0
    6.1497    0.6727    0.0000 H   0  0  0  0  0  0  0  0  0  0  0  0
    5.8446    0.9780    0.0000 H   0  0  0  0  0  0  0  0  0  0  0  0
    4.9085    2.5776    0.0000 H   0  0  0  0  0  0  0  0  0  0  0  0
    5.8383    2.0480    0.0000 H   0  0  0  0  0  0  0  0  0  0  0  0
   -3.6459    2.5096    0.0000 H   0  0  0  0  0  0  0  0  0  0  0  0
   -4.6027    0.9224    0.0000 H   0  0  0  0  0  0  0  0  0  0  0  0
   -4.5825    1.9922    0.0000 H   0  0  0  0  0  0  0  0  0  0  0  0
   -6.0448    0.3033    0.0000 H   0  0  0  0  0  0  0  0  0  0  0  0
   -5.0737   -1.2752    0.0000 H   0  0  0  0  0  0  0  0  0  0  0  0
   -6.0149   -0.7663    0.0000 H   0  0  0  0  0  0  0  0  0  0  0  0
   -5.1107    0.0222    0.0000 H   0  0  0  0  0  0  0  0  0  0  0  0
   -6.0267   -1.5889    0.0000 H   0  0  0  0  0  0  0  0  0  0  0  0
   -6.0338   -0.5189    0.0000 H   0  0  0  0  0  0  0  0  0  0  0  0
  2  1  1  0  0  0  0
  3  5  1  0  0  0  0
  4  3  2  0  0  0  0
  5  1  2  0  0  0  0
  6  2  2  0  0  0  0
  6  4  1  0  0  0  0
  7  3  1  0  0  0  0
  8  7  2  0  0  0  0
  9  1  1  0  0  0  0
 10 11  1  0  0  0  0
 11 18  1  0  0  0  0
 12  4  1  0  0  0  0
 12 32  1  0  0  0  0
 13  8  1  0  0  0  0
 13 12  2  0  0  0  0
 14 10  1  0  0  0  0
 15  9  1  0  0  0  0
 15 33  1  0  0  0  0
 15 34  1  0  0  0  0
 16  9  1  0  0  0  0
 16 35  1  0  0  0  0
 16 36  1  0  0  0  0
 17 15  1  0  0  0  0
 17 11  1  0  0  0  0
 17 37  1  0  0  0  0
 17 38  1  0  0  0  0
 18 16  1  0  0  0  0
 18 39  1  0  0  0  0
 18 40  1  0  0  0  0
 19 10  2  0  0  0  0
 20  6  1  0  0  0  0
 20 41  1  0  0  0  0
 20 42  1  0  0  0  0
 21 24  1  0  0  0  0
 22  7  1  0  0  0  0
 23  8  1  0  0  0  0
 24 14  1  0  0  0  0
 24 43  1  0  0  0  0
 24 44  1  0  0  0  0
 25 13  1  0  0  0  0
 26 21  1  0  0  0  0
 26 45  1  0  0  0  0
 27 21  1  0  0  0  0
 27 46  1  0  0  0  0
 27 47  1  0  0  0  0
 27 48  1  0  0  0  0
 28 21  1  0  0  0  0
 28 49  1  0  0  0  0
 28 50  1  0  0  0  0
 28 51  1  0  0  0  0
 29 22  1  0  0  0  0
 29 52  1  0  0  0  0
 29 53  1  0  0  0  0
 29 54  1  0  0  0  0
 30 23  1  0  0  0  0
 30 55  1  0  0  0  0
 30 56  1  0  0  0  0
 30 57  1  0  0  0  0
 31 25  1  0  0  0  0
 31 58  1  0  0  0  0
 31 59  1  0  0  0  0
 31 60  1  0  0  0  0
M  END
>  <DRUGBANK_ID>
DB09206

>  <COMMON_NAME>
Trimazosin

>  <CAS_NUMBER>
35795-16-5

>  <UNII>
31L760807H

>  <SYNONYMS>
Trimazosin

$$$$
