L03
 OpenBabel10282417072D

 22 23  0  0  0  0  0  0  0  0999 V2000
    1.4080    2.4789    0.0000 C   0  0  0  0  0  0  0  0  0  0  0  0
    0.6935    2.0664    0.0000 S   0  0  0  0  0  0  0  0  0  0  0  0
    0.6935    1.2414    0.0000 C   0  0  0  0  0  0  0  0  0  0  0  0
    1.3609    0.7564    0.0000 N   0  0  0  0  0  0  0  0  0  0  0  0
    1.1060   -0.0282    0.0000 N   0  0  0  0  0  0  0  0  0  0  0  0
    0.2810   -0.0282    0.0000 C   0  0  0  0  0  0  0  0  0  0  0  0
    0.0261    0.7564    0.0000 N   0  0  0  0  0  0  0  0  0  0  0  0
   -0.2039   -0.6956    0.0000 C   0  0  0  0  0  0  0  0  0  0  0  0
    0.1316   -1.4493    0.0000 C   0  0  0  0  0  0  0  0  0  0  0  0
   -0.3533   -2.1167    0.0000 C   0  0  0  0  0  0  0  0  0  0  0  0
   -1.1738   -2.0305    0.0000 C   0  0  0  0  0  0  0  0  0  0  0  0
   -1.6587   -2.6979    0.0000 Cl  0  0  0  0  0  0  0  0  0  0  0  0
   -1.5093   -1.2768    0.0000 C   0  0  0  0  0  0  0  0  0  0  0  0
   -1.0244   -0.6094    0.0000 C   0  0  0  0  0  0  0  0  0  0  0  0
    2.3346    1.9439    0.0000 H   0  0  0  0  0  0  0  0  0  0  0  0
    1.4080    3.5489    0.0000 H   0  0  0  0  0  0  0  0  0  0  0  0
    2.3347    3.0139    0.0000 H   0  0  0  0  0  0  0  0  0  0  0  0
   -0.9102    1.0606    0.0000 H   0  0  0  0  0  0  0  0  0  0  0  0
    1.1579   -1.5572    0.0000 H   0  0  0  0  0  0  0  0  0  0  0  0
    0.0665   -3.0595    0.0000 H   0  0  0  0  0  0  0  0  0  0  0  0
   -2.5356   -1.1689    0.0000 H   0  0  0  0  0  0  0  0  0  0  0  0
   -1.4442    0.3334    0.0000 H   0  0  0  0  0  0  0  0  0  0  0  0
  1  2  1  0  0  0  0
  1 15  1  0  0  0  0
  1 16  1  0  0  0  0
  1 17  1  0  0  0  0
  2  3  1  0  0  0  0
  3  4  2  0  0  0  0
  3  7  1  0  0  0  0
  4  5  1  0  0  0  0
  5  6  2  0  0  0  0
  6  7  1  0  0  0  0
  6  8  1  0  0  0  0
  7 18  1  0  0  0  0
  8  9  2  0  0  0  0
  8 14  1  0  0  0  0
  9 10  1  0  0  0  0
  9 19  1  0  0  0  0
 10 11  2  0  0  0  0
 10 20  1  0  0  0  0
 11 12  1  0  0  0  0
 11 13  1  0  0  0  0
 13 14  2  0  0  0  0
 13 21  1  0  0  0  0
 14 22  1  0  0  0  0
M  END
>  <DRUGBANK_ID>
DB08062

>  <COMMON_NAME>
3-(4-CHLOROPHENYL)-5-(METHYLTHIO)-4H-1,2,4-TRIAZOLE

$$$$
