709
 OpenBabel10282417072D

 41 43  0  0  0  0  0  0  0  0999 V2000
    0.0923   -2.0319    0.0000 C   0  0  0  0  0  0  0  0  0  0  0  0
   -0.6221   -2.4444    0.0000 C   0  0  0  0  0  0  0  0  0  0  0  0
   -1.3366   -2.0319    0.0000 C   0  0  0  0  0  0  0  0  0  0  0  0
   -1.3366   -1.2069    0.0000 C   0  0  0  0  0  0  0  0  0  0  0  0
   -0.6221   -0.7944    0.0000 C   0  0  0  0  0  0  0  0  0  0  0  0
    0.0923   -1.2069    0.0000 C   0  0  0  0  0  0  0  0  0  0  0  0
    0.8068   -0.7944    0.0000 C   0  0  0  0  0  0  0  0  0  0  0  0
    1.5213   -1.2069    0.0000 C   0  0  0  0  0  0  0  0  0  0  0  0
    1.5213   -2.0319    0.0000 C   0  0  0  0  0  0  0  0  0  0  0  0
    0.8068   -2.4444    0.0000 C   0  0  0  0  0  0  0  0  0  0  0  0
   -2.0511   -0.7944    0.0000 C   0  0  0  0  0  0  0  0  0  0  0  0
   -2.7655   -1.2069    0.0000 N   0  0  0  0  0  0  0  0  0  0  0  0
   -2.0511    0.0306    0.0000 N   0  0  0  0  0  0  0  0  0  0  0  0
    0.8068    0.0306    0.0000 N   0  0  0  0  0  0  0  0  0  0  0  0
    0.0923    0.4431    0.0000 C   0  0  0  0  0  0  0  0  0  0  0  0
    0.0923    1.2681    0.0000 C   0  0  0  0  0  0  0  0  0  0  0  0
   -0.6221    0.0306    0.0000 O   0  0  0  0  0  0  0  0  0  0  0  0
   -0.6221    1.6806    0.0000 C   0  0  0  0  0  0  0  0  0  0  0  0
   -0.6221    2.5056    0.0000 C   0  0  0  0  0  0  0  0  0  0  0  0
    0.0923    2.9181    0.0000 C   0  0  0  0  0  0  0  0  0  0  0  0
    0.8068    2.5056    0.0000 C   0  0  0  0  0  0  0  0  0  0  0  0
    0.8068    1.6806    0.0000 C   0  0  0  0  0  0  0  0  0  0  0  0
    1.5213    1.2681    0.0000 C   0  0  0  0  0  0  0  0  0  0  0  0
    1.5213    2.9181    0.0000 O   0  0  0  0  0  0  0  0  0  0  0  0
   -0.6221   -3.4764    0.0000 H   0  0  0  0  0  0  0  0  0  0  0  0
   -2.2303   -2.5479    0.0000 H   0  0  0  0  0  0  0  0  0  0  0  0
   -0.6221    0.2376    0.0000 H   0  0  0  0  0  0  0  0  0  0  0  0
    2.4150   -0.6909    0.0000 H   0  0  0  0  0  0  0  0  0  0  0  0
    2.4150   -2.5479    0.0000 H   0  0  0  0  0  0  0  0  0  0  0  0
    0.8068   -3.4764    0.0000 H   0  0  0  0  0  0  0  0  0  0  0  0
   -3.6181   -0.7147    0.0000 H   0  0  0  0  0  0  0  0  0  0  0  0
   -2.7655   -2.1914    0.0000 H   0  0  0  0  0  0  0  0  0  0  0  0
   -1.1985    0.5229    0.0000 H   0  0  0  0  0  0  0  0  0  0  0  0
    1.6594    0.5229    0.0000 H   0  0  0  0  0  0  0  0  0  0  0  0
   -1.5158    1.1646    0.0000 H   0  0  0  0  0  0  0  0  0  0  0  0
   -1.5158    3.0216    0.0000 H   0  0  0  0  0  0  0  0  0  0  0  0
    0.0923    3.9501    0.0000 H   0  0  0  0  0  0  0  0  0  0  0  0
    1.5213    0.1981    0.0000 H   0  0  0  0  0  0  0  0  0  0  0  0
    2.4479    1.8031    0.0000 H   0  0  0  0  0  0  0  0  0  0  0  0
    2.4480    0.7331    0.0000 H   0  0  0  0  0  0  0  0  0  0  0  0
    2.3328    2.4496    0.0000 H   0  0  0  0  0  0  0  0  0  0  0  0
  1  2  1  0  0  0  0
  1  6  1  0  0  0  0
  1 10  2  0  0  0  0
  2  3  2  0  0  0  0
  2 25  1  0  0  0  0
  3  4  1  0  0  0  0
  3 26  1  0  0  0  0
  4  5  2  0  0  0  0
  4 11  1  0  0  0  0
  5  6  1  0  0  0  0
  5 27  1  0  0  0  0
  6  7  2  0  0  0  0
  7  8  1  0  0  0  0
  7 14  1  0  0  0  0
  8  9  2  0  0  0  0
  8 28  1  0  0  0  0
  9 10  1  0  0  0  0
  9 29  1  0  0  0  0
 10 30  1  0  0  0  0
 11 12  1  0  0  0  0
 11 13  2  0  0  0  0
 12 31  1  0  0  0  0
 12 32  1  0  0  0  0
 13 33  1  0  0  0  0
 14 15  1  0  0  0  0
 14 34  1  0  0  0  0
 15 16  1  0  0  0  0
 15 17  2  0  0  0  0
 16 18  2  0  0  0  0
 16 22  1  0  0  0  0
 18 19  1  0  0  0  0
 18 35  1  0  0  0  0
 19 20  2  0  0  0  0
 19 36  1  0  0  0  0
 20 21  1  0  0  0  0
 20 37  1  0  0  0  0
 21 22  2  0  0  0  0
 21 24  1  0  0  0  0
 22 23  1  0  0  0  0
 23 38  1  0  0  0  0
 23 39  1  0  0  0  0
 23 40  1  0  0  0  0
 24 41  1  0  0  0  0
M  END
>  <DRUGBANK_ID>
DB07212

>  <COMMON_NAME>
N-(7-CARBAMIMIDOYL-NAPHTHALEN-1-YL)-3-HYDROXY-2-METHYL-BENZAMIDE

$$$$
