
 OpenBabel10282417072D

103107  0  0  1  0  0  0  0  0999 V2000
   -6.1753   -0.7743    0.0000 C   0  0  0  0  0  0  0  0  0  0  0  0
   -5.3907   -0.5193    0.0000 C   0  0  0  0  0  0  0  0  0  0  0  0
   -4.7776   -1.0713    0.0000 C   0  0  0  0  0  0  0  0  0  0  0  0
   -5.2192    0.2877    0.0000 C   0  0  0  0  0  0  0  0  0  0  0  0
   -4.4346    0.5426    0.0000 O   0  0  0  0  0  0  0  0  0  0  0  0
   -4.2630    1.3496    0.0000 C   0  0  0  0  0  0  0  0  0  0  0  0
   -4.8761    1.9016    0.0000 O   0  0  0  0  0  0  0  0  0  0  0  0
   -3.4784    1.6045    0.0000 C   0  0  2  0  0  0  0  0  0  0  0  0
   -2.8653    1.0525    0.0000 C   0  0  0  0  0  0  0  0  0  0  0  0
   -3.0368    0.2455    0.0000 C   0  0  0  0  0  0  0  0  0  0  0  0
   -2.4238   -0.3065    0.0000 C   0  0  0  0  0  0  0  0  0  0  0  0
   -2.5953   -1.1135    0.0000 C   0  0  0  0  0  0  0  0  0  0  0  0
   -3.3799   -1.3684    0.0000 C   0  0  0  0  0  0  0  0  0  0  0  0
   -3.9930   -0.8164    0.0000 C   0  0  0  0  0  0  0  0  0  0  0  0
   -3.8215   -0.0094    0.0000 C   0  0  0  0  0  0  0  0  0  0  0  0
   -3.3069    2.4115    0.0000 N   0  0  0  0  0  0  0  0  0  0  0  0
   -2.5223    2.6664    0.0000 P   0  0  3  0  0  0  0  0  0  0  0  0
   -1.7376    2.9214    0.0000 O   0  0  0  0  0  0  0  0  0  0  0  0
   -2.2673    1.8818    0.0000 C   0  0  0  0  0  0  0  0  0  0  0  0
   -1.4604    1.7103    0.0000 O   0  0  0  0  0  0  0  0  0  0  0  0
   -1.2054    0.9256    0.0000 C   0  0  0  0  0  0  0  0  0  0  0  0
   -0.3984    0.7541    0.0000 C   0  0  0  0  0  0  0  0  0  0  0  0
   -0.1435   -0.0305    0.0000 N   0  0  0  0  0  0  0  0  0  0  0  0
   -0.6284   -0.6979    0.0000 C   0  0  0  0  0  0  0  0  0  0  0  0
   -0.1435   -1.3654    0.0000 N   0  0  0  0  0  0  0  0  0  0  0  0
    0.6411   -1.1104    0.0000 C   0  0  0  0  0  0  0  0  0  0  0  0
    0.6411   -0.2854    0.0000 C   0  0  0  0  0  0  0  0  0  0  0  0
    1.3556    0.1271    0.0000 N   0  0  0  0  0  0  0  0  0  0  0  0
    2.0701   -0.2854    0.0000 C   0  0  0  0  0  0  0  0  0  0  0  0
    2.7845    0.1271    0.0000 N   0  0  0  0  0  0  0  0  0  0  0  0
    2.0701   -1.1104    0.0000 N   0  0  0  0  0  0  0  0  0  0  0  0
    1.3556   -1.5229    0.0000 C   0  0  0  0  0  0  0  0  0  0  0  0
    1.3556   -2.3479    0.0000 N   0  0  0  0  0  0  0  0  0  0  0  0
    2.0701   -2.7604    0.0000 C   0  0  0  0  0  0  0  0  0  0  0  0
    2.8951   -2.7604    0.0000 C   0  0  0  0  0  0  0  0  0  0  0  0
    2.4826   -3.4749    0.0000 C   0  0  0  0  0  0  0  0  0  0  0  0
   -2.7772    3.4510    0.0000 N   0  0  0  0  0  0  0  0  0  0  0  0
   -2.2252    4.0641    0.0000 C   0  0  1  0  0  0  0  0  0  0  0  0
   -1.4182    3.8926    0.0000 C   0  0  0  0  0  0  0  0  0  0  0  0
   -0.8662    4.5057    0.0000 C   0  0  0  0  0  0  0  0  0  0  0  0
   -1.1211    5.2903    0.0000 C   0  0  0  0  0  0  0  0  0  0  0  0
   -0.5691    5.9034    0.0000 C   0  0  0  0  0  0  0  0  0  0  0  0
    0.2379    5.7319    0.0000 C   0  0  0  0  0  0  0  0  0  0  0  0
    0.4928    4.9473    0.0000 C   0  0  0  0  0  0  0  0  0  0  0  0
   -0.0592    4.3342    0.0000 C   0  0  0  0  0  0  0  0  0  0  0  0
   -2.4801    4.8488    0.0000 C   0  0  0  0  0  0  0  0  0  0  0  0
   -1.9281    5.4618    0.0000 O   0  0  0  0  0  0  0  0  0  0  0  0
   -3.2871    5.0203    0.0000 O   0  0  0  0  0  0  0  0  0  0  0  0
   -3.5420    5.8049    0.0000 C   0  0  0  0  0  0  0  0  0  0  0  0
   -4.3490    5.9764    0.0000 C   0  0  0  0  0  0  0  0  0  0  0  0
   -4.9010    5.3633    0.0000 C   0  0  0  0  0  0  0  0  0  0  0  0
   -4.6039    6.7611    0.0000 C   0  0  0  0  0  0  0  0  0  0  0  0
   -6.9705   -0.0584    0.0000 H   0  0  0  0  0  0  0  0  0  0  0  0
   -6.3977   -1.8209    0.0000 H   0  0  0  0  0  0  0  0  0  0  0  0
   -7.1929   -1.1050    0.0000 H   0  0  0  0  0  0  0  0  0  0  0  0
   -4.3731   -0.1886    0.0000 H   0  0  0  0  0  0  0  0  0  0  0  0
   -5.0000   -2.1179    0.0000 H   0  0  0  0  0  0  0  0  0  0  0  0
   -3.7600   -0.7406    0.0000 H   0  0  0  0  0  0  0  0  0  0  0  0
   -3.9824   -1.7872    0.0000 H   0  0  0  0  0  0  0  0  0  0  0  0
   -6.0144    1.0037    0.0000 H   0  0  0  0  0  0  0  0  0  0  0  0
   -4.9967    1.3343    0.0000 H   0  0  0  0  0  0  0  0  0  0  0  0
   -4.2736    2.3205    0.0000 H   0  0  0  0  0  0  0  0  0  0  0  0
   -1.8477    1.3832    0.0000 H   0  0  0  0  0  0  0  0  0  0  0  0
   -2.0701    0.3366    0.0000 H   0  0  0  0  0  0  0  0  0  0  0  0
   -1.4423    0.0124    0.0000 H   0  0  0  0  0  0  0  0  0  0  0  0
   -1.8284   -1.8040    0.0000 H   0  0  0  0  0  0  0  0  0  0  0  0
   -3.5945   -2.3778    0.0000 H   0  0  0  0  0  0  0  0  0  0  0  0
   -4.9745   -1.1353    0.0000 H   0  0  0  0  0  0  0  0  0  0  0  0
   -4.5884    0.6812    0.0000 H   0  0  0  0  0  0  0  0  0  0  0  0
   -4.0649    3.0940    0.0000 H   0  0  0  0  0  0  0  0  0  0  0  0
   -2.9832    1.0866    0.0000 H   0  0  0  0  0  0  0  0  0  0  0  0
   -1.9366    0.8642    0.0000 H   0  0  0  0  0  0  0  0  0  0  0  0
   -1.9213    0.1304    0.0000 H   0  0  0  0  0  0  0  0  0  0  0  0
   -0.8747   -0.0920    0.0000 H   0  0  0  0  0  0  0  0  0  0  0  0
    0.3176    1.5493    0.0000 H   0  0  0  0  0  0  0  0  0  0  0  0
    0.6482    0.5316    0.0000 H   0  0  0  0  0  0  0  0  0  0  0  0
   -1.6604   -0.6979    0.0000 H   0  0  0  0  0  0  0  0  0  0  0  0
    3.6371   -0.3651    0.0000 H   0  0  0  0  0  0  0  0  0  0  0  0
    2.7845    1.1116    0.0000 H   0  0  0  0  0  0  0  0  0  0  0  0
    0.5030   -2.8402    0.0000 H   0  0  0  0  0  0  0  0  0  0  0  0
    2.9967   -3.2954    0.0000 H   0  0  0  0  0  0  0  0  0  0  0  0
    3.8217   -2.2254    0.0000 H   0  0  0  0  0  0  0  0  0  0  0  0
    3.6517   -3.5170    0.0000 H   0  0  0  0  0  0  0  0  0  0  0  0
    2.4826   -4.5449    0.0000 H   0  0  0  0  0  0  0  0  0  0  0  0
    1.4491   -3.7518    0.0000 H   0  0  0  0  0  0  0  0  0  0  0  0
   -3.7749    3.6631    0.0000 H   0  0  0  0  0  0  0  0  0  0  0  0
   -1.8945    3.0465    0.0000 H   0  0  0  0  0  0  0  0  0  0  0  0
   -1.0875    2.8750    0.0000 H   0  0  0  0  0  0  0  0  0  0  0  0
   -0.3716    3.6702    0.0000 H   0  0  0  0  0  0  0  0  0  0  0  0
   -2.1305    5.5049    0.0000 H   0  0  0  0  0  0  0  0  0  0  0  0
   -0.8880    6.8849    0.0000 H   0  0  0  0  0  0  0  0  0  0  0  0
    0.9284    6.4988    0.0000 H   0  0  0  0  0  0  0  0  0  0  0  0
    1.5022    4.7327    0.0000 H   0  0  0  0  0  0  0  0  0  0  0  0
    0.2597    3.3527    0.0000 H   0  0  0  0  0  0  0  0  0  0  0  0
   -2.8260    6.6001    0.0000 H   0  0  0  0  0  0  0  0  0  0  0  0
   -3.8727    6.8225    0.0000 H   0  0  0  0  0  0  0  0  0  0  0  0
   -5.3956    6.1989    0.0000 H   0  0  0  0  0  0  0  0  0  0  0  0
   -5.9476    5.5857    0.0000 H   0  0  0  0  0  0  0  0  0  0  0  0
   -4.5703    4.3457    0.0000 H   0  0  0  0  0  0  0  0  0  0  0  0
   -5.6169    4.5681    0.0000 H   0  0  0  0  0  0  0  0  0  0  0  0
   -3.8879    7.5562    0.0000 H   0  0  0  0  0  0  0  0  0  0  0  0
   -5.6505    6.9836    0.0000 H   0  0  0  0  0  0  0  0  0  0  0  0
   -4.9345    7.7788    0.0000 H   0  0  0  0  0  0  0  0  0  0  0  0
  1  2  1  0  0  0  0
  1 53  1  0  0  0  0
  1 54  1  0  0  0  0
  1 55  1  0  0  0  0
  2  3  1  0  0  0  0
  2  4  1  0  0  0  0
  2 56  1  0  0  0  0
  3 57  1  0  0  0  0
  3 58  1  0  0  0  0
  3 59  1  0  0  0  0
  4  5  1  0  0  0  0
  4 60  1  0  0  0  0
  4 61  1  0  0  0  0
  5  6  1  0  0  0  0
  6  7  2  0  0  0  0
  8  6  1  0  0  0  0
  8  9  1  0  0  0  0
  8 16  1  0  0  0  0
  8 62  1  6  0  0  0
  9 10  1  0  0  0  0
  9 63  1  0  0  0  0
  9 64  1  0  0  0  0
 10 11  2  0  0  0  0
 10 15  1  0  0  0  0
 11 12  1  0  0  0  0
 11 65  1  0  0  0  0
 12 13  2  0  0  0  0
 12 66  1  0  0  0  0
 13 14  1  0  0  0  0
 13 67  1  0  0  0  0
 14 15  2  0  0  0  0
 14 68  1  0  0  0  0
 15 69  1  0  0  0  0
 16 17  1  0  0  0  0
 16 70  1  0  0  0  0
 17 18  2  0  0  0  0
 17 19  1  0  0  0  0
 17 37  1  0  0  0  0
 19 20  1  0  0  0  0
 19 71  1  0  0  0  0
 19 72  1  0  0  0  0
 20 21  1  0  0  0  0
 21 22  1  0  0  0  0
 21 73  1  0  0  0  0
 21 74  1  0  0  0  0
 22 23  1  0  0  0  0
 22 75  1  0  0  0  0
 22 76  1  0  0  0  0
 23 24  1  0  0  0  0
 23 27  1  0  0  0  0
 24 25  2  0  0  0  0
 24 77  1  0  0  0  0
 25 26  1  0  0  0  0
 26 27  2  0  0  0  0
 26 32  1  0  0  0  0
 27 28  1  0  0  0  0
 28 29  2  0  0  0  0
 29 30  1  0  0  0  0
 29 31  1  0  0  0  0
 30 78  1  0  0  0  0
 30 79  1  0  0  0  0
 31 32  2  0  0  0  0
 32 33  1  0  0  0  0
 33 34  1  0  0  0  0
 33 80  1  0  0  0  0
 34 35  1  0  0  0  0
 34 36  1  0  0  0  0
 34 81  1  0  0  0  0
 35 36  1  0  0  0  0
 35 82  1  0  0  0  0
 35 83  1  0  0  0  0
 36 84  1  0  0  0  0
 36 85  1  0  0  0  0
 37 86  1  0  0  0  0
 38 37  1  0  0  0  0
 38 39  1  0  0  0  0
 38 46  1  0  0  0  0
 38 87  1  1  0  0  0
 39 40  1  0  0  0  0
 39 88  1  0  0  0  0
 39 89  1  0  0  0  0
 40 41  2  0  0  0  0
 40 45  1  0  0  0  0
 41 42  1  0  0  0  0
 41 90  1  0  0  0  0
 42 43  2  0  0  0  0
 42 91  1  0  0  0  0
 43 44  1  0  0  0  0
 43 92  1  0  0  0  0
 44 45  2  0  0  0  0
 44 93  1  0  0  0  0
 45 94  1  0  0  0  0
 46 47  2  0  0  0  0
 46 48  1  0  0  0  0
 48 49  1  0  0  0  0
 49 50  1  0  0  0  0
 49 95  1  0  0  0  0
 49 96  1  0  0  0  0
 50 51  1  0  0  0  0
 50 52  1  0  0  0  0
 50 97  1  0  0  0  0
 51 98  1  0  0  0  0
 51 99  1  0  0  0  0
 51100  1  0  0  0  0
 52101  1  0  0  0  0
 52102  1  0  0  0  0
 52103  1  0  0  0  0
M  END
>  <DRUGBANK_ID>
DB15084

>  <COMMON_NAME>
GS-9191

>  <CAS_NUMBER>
859209-84-0

>  <UNII>
5I2GJW5Z2Q

$$$$
