
 OpenBabel10282417072D

 61 65  0  0  1  0  0  0  0  0999 V2000
    1.3895   -1.8497    0.0000 C   0  0  0  0  0  0  0  0  0  0  0  0
    1.7494   -2.5921    0.0000 C   0  0  2  0  0  0  0  0  0  0  0  0
    2.2812   -1.9614    0.0000 C   0  0  0  0  0  0  0  0  0  0  0  0
    3.0934   -2.1066    0.0000 C   0  0  0  0  0  0  0  0  0  0  0  0
    3.3737   -2.8825    0.0000 C   0  0  2  0  0  0  0  0  0  0  0  0
    4.1858   -3.0277    0.0000 C   0  0  1  0  0  0  0  0  0  0  0  0
    4.7176   -2.3970    0.0000 C   0  0  0  0  0  0  0  0  0  0  0  0
    5.5297   -2.5422    0.0000 C   0  0  0  0  0  0  0  0  0  0  0  0
    5.8100   -3.3182    0.0000 C   0  0  0  0  0  0  0  0  0  0  0  0
    5.2782   -3.9489    0.0000 C   0  0  0  0  0  0  0  0  0  0  0  0
    4.4661   -3.8037    0.0000 C   0  0  0  0  0  0  0  0  0  0  0  0
    3.9343   -4.4344    0.0000 C   0  0  0  0  0  0  0  0  0  0  0  0
    3.1221   -4.2891    0.0000 C   0  0  0  0  0  0  0  0  0  0  0  0
    2.8418   -3.5132    0.0000 C   0  0  1  0  0  0  0  0  0  0  0  0
    2.0297   -3.3680    0.0000 C   0  0  2  0  0  0  0  0  0  0  0  0
    1.3784   -3.8744    0.0000 C   0  0  0  0  0  0  0  0  0  0  0  0
    0.6955   -3.4114    0.0000 C   0  0  0  0  0  0  0  0  0  0  0  0
    0.9249   -2.6189    0.0000 C   0  0  1  0  0  0  0  0  0  0  0  0
    0.1640   -2.3000    0.0000 C   0  0  0  0  0  0  0  0  0  0  0  0
   -0.5969   -1.9811    0.0000 C   0  0  0  0  0  0  0  0  0  0  0  0
    0.8035   -1.8029    0.0000 O   0  0  0  0  0  0  0  0  0  0  0  0
    6.6221   -3.4634    0.0000 O   0  0  0  0  0  0  0  0  0  0  0  0
    6.9024   -4.2393    0.0000 C   0  0  0  0  0  0  0  0  0  0  0  0
    7.6949   -4.4686    0.0000 C   0  0  0  0  0  0  0  0  0  0  0  0
    7.7217   -5.2932    0.0000 C   0  0  0  0  0  0  0  0  0  0  0  0
    6.9458   -5.5735    0.0000 C   0  0  0  0  0  0  0  0  0  0  0  0
    6.4395   -4.9221    0.0000 C   0  0  0  0  0  0  0  0  0  0  0  0
    1.9900   -0.9641    0.0000 H   0  0  0  0  0  0  0  0  0  0  0  0
    0.3223   -1.7725    0.0000 H   0  0  0  0  0  0  0  0  0  0  0  0
    0.9227   -0.8869    0.0000 H   0  0  0  0  0  0  0  0  0  0  0  0
    1.9176   -0.9551    0.0000 H   0  0  0  0  0  0  0  0  0  0  0  0
    2.9709   -1.1434    0.0000 H   0  0  0  0  0  0  0  0  0  0  0  0
    3.7831   -1.2886    0.0000 H   0  0  0  0  0  0  0  0  0  0  0  0
    4.1467   -2.2949    0.0000 H   0  0  0  0  0  0  0  0  0  0  0  0
    4.0634   -2.0645    0.0000 H   0  0  0  0  0  0  0  0  0  0  0  0
    3.8222   -2.0214    0.0000 H   0  0  0  0  0  0  0  0  0  0  0  0
    4.3540   -1.3907    0.0000 H   0  0  0  0  0  0  0  0  0  0  0  0
    5.4073   -1.5790    0.0000 H   0  0  0  0  0  0  0  0  0  0  0  0
    6.2195   -1.7242    0.0000 H   0  0  0  0  0  0  0  0  0  0  0  0
    6.5830   -2.7306    0.0000 H   0  0  0  0  0  0  0  0  0  0  0  0
    5.6288   -4.9195    0.0000 H   0  0  0  0  0  0  0  0  0  0  0  0
    4.2849   -5.4050    0.0000 H   0  0  0  0  0  0  0  0  0  0  0  0
    2.4323   -5.1071    0.0000 H   0  0  0  0  0  0  0  0  0  0  0  0
    2.0688   -4.1007    0.0000 H   0  0  0  0  0  0  0  0  0  0  0  0
    3.8951   -3.7016    0.0000 H   0  0  0  0  0  0  0  0  0  0  0  0
    2.2861   -4.4068    0.0000 H   0  0  0  0  0  0  0  0  0  0  0  0
    1.4132   -4.9438    0.0000 H   0  0  0  0  0  0  0  0  0  0  0  0
    0.4413   -4.3909    0.0000 H   0  0  0  0  0  0  0  0  0  0  0  0
   -0.3109   -3.7749    0.0000 H   0  0  0  0  0  0  0  0  0  0  0  0
   -0.0852   -2.6797    0.0000 H   0  0  0  0  0  0  0  0  0  0  0  0
   -1.5136   -1.5969    0.0000 H   0  0  0  0  0  0  0  0  0  0  0  0
    1.5630   -1.1996    0.0000 H   0  0  0  0  0  0  0  0  0  0  0  0
    7.2660   -5.2456    0.0000 H   0  0  0  0  0  0  0  0  0  0  0  0
    8.5397   -3.8119    0.0000 H   0  0  0  0  0  0  0  0  0  0  0  0
    8.6636   -4.9231    0.0000 H   0  0  0  0  0  0  0  0  0  0  0  0
    8.6073   -5.8937    0.0000 H   0  0  0  0  0  0  0  0  0  0  0  0
    7.5887   -6.3549    0.0000 H   0  0  0  0  0  0  0  0  0  0  0  0
    6.6483   -6.6013    0.0000 H   0  0  0  0  0  0  0  0  0  0  0  0
    5.8950   -5.7751    0.0000 H   0  0  0  0  0  0  0  0  0  0  0  0
    5.3701   -4.9568    0.0000 H   0  0  0  0  0  0  0  0  0  0  0  0
    5.9230   -3.9850    0.0000 H   0  0  0  0  0  0  0  0  0  0  0  0
  1 28  1  0  0  0  0
  1 29  1  0  0  0  0
  1 30  1  0  0  0  0
  2  1  1  6  0  0  0
  2  3  1  0  0  0  0
  2 15  1  0  0  0  0
  2 18  1  0  0  0  0
  3  4  1  0  0  0  0
  3 31  1  0  0  0  0
  3 32  1  0  0  0  0
  4 33  1  0  0  0  0
  4 34  1  0  0  0  0
  5  4  1  0  0  0  0
  5  6  1  0  0  0  0
  5 14  1  0  0  0  0
  5 35  1  1  0  0  0
  6  7  1  0  0  0  0
  6 11  1  0  0  0  0
  6 36  1  6  0  0  0
  7  8  1  0  0  0  0
  7 37  1  0  0  0  0
  7 38  1  0  0  0  0
  8  9  1  0  0  0  0
  8 39  1  0  0  0  0
  8 40  1  0  0  0  0
  9 10  2  0  0  0  0
  9 22  1  0  0  0  0
 10 11  1  0  0  0  0
 10 41  1  0  0  0  0
 11 12  2  0  0  0  0
 12 13  1  0  0  0  0
 12 42  1  0  0  0  0
 13 43  1  0  0  0  0
 13 44  1  0  0  0  0
 14 13  1  0  0  0  0
 14 15  1  0  0  0  0
 14 45  1  6  0  0  0
 15 16  1  0  0  0  0
 15 46  1  1  0  0  0
 16 17  1  0  0  0  0
 16 47  1  0  0  0  0
 16 48  1  0  0  0  0
 17 18  1  0  0  0  0
 17 49  1  0  0  0  0
 17 50  1  0  0  0  0
 18 19  1  1  0  0  0
 18 21  1  0  0  0  0
 19 20  3  0  0  0  0
 20 51  1  0  0  0  0
 21 52  1  0  0  0  0
 22 23  1  0  0  0  0
 23 24  1  0  0  0  0
 23 27  1  0  0  0  0
 23 53  1  0  0  0  0
 24 25  1  0  0  0  0
 24 54  1  0  0  0  0
 24 55  1  0  0  0  0
 25 26  1  0  0  0  0
 25 56  1  0  0  0  0
 25 57  1  0  0  0  0
 26 27  1  0  0  0  0
 26 58  1  0  0  0  0
 26 59  1  0  0  0  0
 27 60  1  0  0  0  0
 27 61  1  0  0  0  0
M  END
>  <DRUGBANK_ID>
DB13685

>  <COMMON_NAME>
Quingestanol

>  <CAS_NUMBER>
10592-65-1

>  <UNII>
1A635076CE

>  <SYNONYMS>
Quingestanol

$$$$
