
 OpenBabel10282417072D

 33 32  0  0  0  0  0  0  0  0999 V2000
    3.2284    0.2113    0.0000 C   0  0  0  0  0  0  0  0  0  0  0  0
    3.2284   -0.6190    0.0000 O   0  0  0  0  0  0  0  0  0  0  0  0
    3.9381    0.6190    0.0000 O   0  0  0  0  0  0  0  0  0  0  0  0
   -3.2133    0.6190    0.0000 C   0  0  0  0  0  0  0  0  0  0  0  0
   -3.9381    0.2113    0.0000 C   0  0  0  0  0  0  0  0  0  0  0  0
    2.5088    0.6190    0.0000 C   0  0  0  0  0  0  0  0  0  0  0  0
   -2.5037    0.2113    0.0000 C   0  0  0  0  0  0  0  0  0  0  0  0
    1.7993    0.2113    0.0000 C   0  0  0  0  0  0  0  0  0  0  0  0
   -1.7841    0.6190    0.0000 C   0  0  0  0  0  0  0  0  0  0  0  0
   -1.0693    0.2113    0.0000 C   0  0  0  0  0  0  0  0  0  0  0  0
    0.3648    0.2113    0.0000 C   0  0  0  0  0  0  0  0  0  0  0  0
    1.0845    0.6190    0.0000 C   0  0  0  0  0  0  0  0  0  0  0  0
   -0.3496    0.6190    0.0000 C   0  0  0  0  0  0  0  0  0  0  0  0
    2.4169   -1.0875    0.0000 H   0  0  0  0  0  0  0  0  0  0  0  0
   -3.2086    1.6510    0.0000 H   0  0  0  0  0  0  0  0  0  0  0  0
   -4.8260    0.7373    0.0000 H   0  0  0  0  0  0  0  0  0  0  0  0
   -3.9497   -0.8206    0.0000 H   0  0  0  0  0  0  0  0  0  0  0  0
    2.5055    1.6890    0.0000 H   0  0  0  0  0  0  0  0  0  0  0  0
    1.5819    1.1535    0.0000 H   0  0  0  0  0  0  0  0  0  0  0  0
   -2.5069   -0.8587    0.0000 H   0  0  0  0  0  0  0  0  0  0  0  0
   -1.5800   -0.3289    0.0000 H   0  0  0  0  0  0  0  0  0  0  0  0
    1.8010   -0.8587    0.0000 H   0  0  0  0  0  0  0  0  0  0  0  0
    0.8745   -0.3269    0.0000 H   0  0  0  0  0  0  0  0  0  0  0  0
   -1.7826    1.6890    0.0000 H   0  0  0  0  0  0  0  0  0  0  0  0
   -0.8585    1.1558    0.0000 H   0  0  0  0  0  0  0  0  0  0  0  0
   -1.0709   -0.8587    0.0000 H   0  0  0  0  0  0  0  0  0  0  0  0
   -0.1452   -0.3282    0.0000 H   0  0  0  0  0  0  0  0  0  0  0  0
    0.3631   -0.8587    0.0000 H   0  0  0  0  0  0  0  0  0  0  0  0
   -0.5609   -0.3253    0.0000 H   0  0  0  0  0  0  0  0  0  0  0  0
    1.0861    1.6890    0.0000 H   0  0  0  0  0  0  0  0  0  0  0  0
    2.0101    1.1558    0.0000 H   0  0  0  0  0  0  0  0  0  0  0  0
   -0.3479    1.6890    0.0000 H   0  0  0  0  0  0  0  0  0  0  0  0
    0.5761    1.1556    0.0000 H   0  0  0  0  0  0  0  0  0  0  0  0
  2  1  1  0  0  0  0
  2 14  1  0  0  0  0
  3  1  2  0  0  0  0
  4  7  1  0  0  0  0
  4 15  1  0  0  0  0
  5  4  2  0  0  0  0
  5 16  1  0  0  0  0
  5 17  1  0  0  0  0
  6  1  1  0  0  0  0
  6 18  1  0  0  0  0
  6 19  1  0  0  0  0
  7  9  1  0  0  0  0
  7 20  1  0  0  0  0
  7 21  1  0  0  0  0
  8  6  1  0  0  0  0
  8 22  1  0  0  0  0
  8 23  1  0  0  0  0
  9 10  1  0  0  0  0
  9 24  1  0  0  0  0
  9 25  1  0  0  0  0
 10 13  1  0  0  0  0
 10 26  1  0  0  0  0
 10 27  1  0  0  0  0
 11 12  1  0  0  0  0
 11 28  1  0  0  0  0
 11 29  1  0  0  0  0
 12  8  1  0  0  0  0
 12 30  1  0  0  0  0
 12 31  1  0  0  0  0
 13 11  1  0  0  0  0
 13 32  1  0  0  0  0
 13 33  1  0  0  0  0
M  END
>  <DRUGBANK_ID>
DB11117

>  <SECONDARY_ACCESSION_NUMBERS>
DBSALT001514

>  <COMMON_NAME>
Undecylenic acid

>  <CAS_NUMBER>
112-38-9

>  <UNII>
K3D86KJ24N

>  <SYNONYMS>
10-undecenoic acid; Ã¡cido 10-undecenoico; Undecenoic acid; Undecylenate; Undecylenic acid

$$$$
