2368
 OpenBabel10282417072D

 28 28  0  0  0  0  0  0  0  0999 V2000
    3.0790    0.4125    0.0000 N   0  0  0  0  0  0  0  0  0  0  0  0
    3.7934    1.6500    0.0000 N   0  0  0  0  0  0  0  0  0  0  0  0
    2.3645    1.6500    0.0000 N   0  0  0  0  0  0  0  0  0  0  0  0
    2.3645    0.0000    0.0000 C   0  0  0  0  0  0  0  0  0  0  0  0
    2.3645   -0.8250    0.0000 C   0  0  0  0  0  0  0  0  0  0  0  0
    3.0790   -1.2375    0.0000 C   0  0  0  0  0  0  0  0  0  0  0  0
    1.6500   -1.2375    0.0000 C   0  0  0  0  0  0  0  0  0  0  0  0
    3.0790    1.2375    0.0000 C   0  0  0  0  0  0  0  0  0  0  0  0
    3.0790   -2.0625    0.0000 C   0  0  0  0  0  0  0  0  0  0  0  0
    1.6500   -2.0625    0.0000 C   0  0  0  0  0  0  0  0  0  0  0  0
    2.3645   -2.4750    0.0000 C   0  0  0  0  0  0  0  0  0  0  0  0
    3.7934    2.4750    0.0000 C   0  0  0  0  0  0  0  0  0  0  0  0
    2.3645    2.4750    0.0000 C   0  0  0  0  0  0  0  0  0  0  0  0
    3.9316   -0.0798    0.0000 H   0  0  0  0  0  0  0  0  0  0  0  0
    4.6460    1.1578    0.0000 H   0  0  0  0  0  0  0  0  0  0  0  0
    1.4379    0.5350    0.0000 H   0  0  0  0  0  0  0  0  0  0  0  0
    1.4379   -0.5350    0.0000 H   0  0  0  0  0  0  0  0  0  0  0  0
    3.9727   -0.7215    0.0000 H   0  0  0  0  0  0  0  0  0  0  0  0
    0.7563   -0.7215    0.0000 H   0  0  0  0  0  0  0  0  0  0  0  0
    3.9727   -2.5785    0.0000 H   0  0  0  0  0  0  0  0  0  0  0  0
    0.7563   -2.5785    0.0000 H   0  0  0  0  0  0  0  0  0  0  0  0
    2.3645   -3.5070    0.0000 H   0  0  0  0  0  0  0  0  0  0  0  0
    4.7200    3.0100    0.0000 H   0  0  0  0  0  0  0  0  0  0  0  0
    2.8668    3.0100    0.0000 H   0  0  0  0  0  0  0  0  0  0  0  0
    3.7934    3.5450    0.0000 H   0  0  0  0  0  0  0  0  0  0  0  0
    3.2911    3.0100    0.0000 H   0  0  0  0  0  0  0  0  0  0  0  0
    1.4379    3.0100    0.0000 H   0  0  0  0  0  0  0  0  0  0  0  0
    2.3645    3.5450    0.0000 H   0  0  0  0  0  0  0  0  0  0  0  0
  1  4  1  0  0  0  0
  1  8  1  0  0  0  0
  1 14  1  0  0  0  0
  2  8  1  0  0  0  0
  2 12  1  0  0  0  0
  2 15  1  0  0  0  0
  3  8  2  0  0  0  0
  3 13  1  0  0  0  0
  4  5  1  0  0  0  0
  4 16  1  0  0  0  0
  4 17  1  0  0  0  0
  5  6  2  0  0  0  0
  5  7  1  0  0  0  0
  6  9  1  0  0  0  0
  6 18  1  0  0  0  0
  7 10  2  0  0  0  0
  7 19  1  0  0  0  0
  9 11  2  0  0  0  0
  9 20  1  0  0  0  0
 10 11  1  0  0  0  0
 10 21  1  0  0  0  0
 11 22  1  0  0  0  0
 12 23  1  0  0  0  0
 12 24  1  0  0  0  0
 12 25  1  0  0  0  0
 13 26  1  0  0  0  0
 13 27  1  0  0  0  0
 13 28  1  0  0  0  0
M  END
>  <DRUGBANK_ID>
DB00217

>  <SECONDARY_ACCESSION_NUMBERS>
APRD00825

>  <COMMON_NAME>
Bethanidine

>  <CAS_NUMBER>
55-73-2

>  <UNII>
W8S3YM7AUU

>  <SYNONYMS>
Betanidina; Betanidine; BÃ©tanidine; Betanidinum; Bethanidine; N,N'-dimethyl-N''-(phenylmethyl)-guanidine

$$$$
