
 OpenBabel10282417072D

129134  0  0  1  0  0  0  0  0999 V2000
   -3.5724   -5.3625    0.0000 C   0  0  0  0  0  0  0  0  0  0  0  0
   -3.5724   -6.1875    0.0000 C   0  0  1  0  0  0  0  0  0  0  0  0
   -2.8579   -6.6000    0.0000 O   0  0  0  0  0  0  0  0  0  0  0  0
   -2.8579   -7.4250    0.0000 C   0  0  2  0  0  0  0  0  0  0  0  0
   -2.1434   -7.8375    0.0000 O   0  0  0  0  0  0  0  0  0  0  0  0
   -1.4289   -7.4250    0.0000 C   0  0  2  0  0  0  0  0  0  0  0  0
   -0.7145   -7.8375    0.0000 C   0  0  1  0  0  0  0  0  0  0  0  0
   -0.7145   -8.6625    0.0000 C   0  0  0  0  0  0  0  0  0  0  0  0
   -1.4289   -9.0750    0.0000 O   0  0  0  0  0  0  0  0  0  0  0  0
    0.0000   -7.4250    0.0000 O   0  0  0  0  0  0  0  0  0  0  0  0
    0.0000   -6.6000    0.0000 C   0  0  2  0  0  0  0  0  0  0  0  0
    0.7145   -6.1875    0.0000 O   0  0  0  0  0  0  0  0  0  0  0  0
    1.4289   -6.6000    0.0000 C   0  0  2  0  0  0  0  0  0  0  0  0
    2.1434   -6.1875    0.0000 C   0  0  1  0  0  0  0  0  0  0  0  0
    2.1434   -5.3625    0.0000 C   0  0  0  0  0  0  0  0  0  0  0  0
    2.8579   -4.9500    0.0000 O   0  0  0  0  0  0  0  0  0  0  0  0
    2.8579   -6.6000    0.0000 O   0  0  0  0  0  0  0  0  0  0  0  0
    2.8579   -7.4250    0.0000 C   0  0  2  0  0  0  0  0  0  0  0  0
    3.5724   -7.8375    0.0000 O   0  0  0  0  0  0  0  0  0  0  0  0
    2.1434   -7.8375    0.0000 C   0  0  2  0  0  0  0  0  0  0  0  0
    2.1434   -8.6625    0.0000 O   0  0  0  0  0  0  0  0  0  0  0  0
    1.4289   -7.4250    0.0000 C   0  0  1  0  0  0  0  0  0  0  0  0
    0.7145   -7.8375    0.0000 O   0  0  0  0  0  0  0  0  0  0  0  0
   -0.7145   -6.1875    0.0000 C   0  0  2  0  0  0  0  0  0  0  0  0
   -0.7145   -5.3625    0.0000 O   0  0  0  0  0  0  0  0  0  0  0  0
   -1.4289   -6.6000    0.0000 C   0  0  1  0  0  0  0  0  0  0  0  0
   -2.1434   -6.1875    0.0000 O   0  0  0  0  0  0  0  0  0  0  0  0
   -3.5724   -7.8375    0.0000 C   0  0  2  0  0  0  0  0  0  0  0  0
   -3.5724   -8.6625    0.0000 O   0  0  0  0  0  0  0  0  0  0  0  0
   -4.2868   -7.4250    0.0000 C   0  0  1  0  0  0  0  0  0  0  0  0
   -5.0013   -7.8375    0.0000 O   0  0  0  0  0  0  0  0  0  0  0  0
   -4.2868   -6.6000    0.0000 C   0  0  2  0  0  0  0  0  0  0  0  0
   -5.0013   -6.1875    0.0000 N   0  0  0  0  0  0  0  0  0  0  0  0
   -5.7158   -6.6000    0.0000 C   0  0  1  0  0  0  0  0  0  0  0  0
   -5.7158   -7.4250    0.0000 C   0  0  0  0  0  0  0  0  0  0  0  0
   -6.4302   -7.8375    0.0000 C   0  0  0  0  0  0  0  0  0  0  0  0
   -6.4302   -8.6625    0.0000 C   0  0  0  0  0  0  0  0  0  0  0  0
   -5.7158   -9.0750    0.0000 O   0  0  0  0  0  0  0  0  0  0  0  0
   -7.1447   -7.4250    0.0000 C   0  0  1  0  0  0  0  0  0  0  0  0
   -7.8592   -7.8375    0.0000 O   0  0  0  0  0  0  0  0  0  0  0  0
   -8.5737   -7.4250    0.0000 C   0  0  1  0  0  0  0  0  0  0  0  0
   -8.5737   -6.6000    0.0000 O   0  0  0  0  0  0  0  0  0  0  0  0
   -9.2881   -6.1875    0.0000 C   0  0  2  0  0  0  0  0  0  0  0  0
   -9.2881   -5.3625    0.0000 C   0  0  0  0  0  0  0  0  0  0  0  0
  -10.0026   -4.9500    0.0000 O   0  0  0  0  0  0  0  0  0  0  0  0
  -10.0026   -6.6000    0.0000 C   0  0  1  0  0  0  0  0  0  0  0  0
  -10.7171   -6.1875    0.0000 O   0  0  0  0  0  0  0  0  0  0  0  0
  -11.4315   -6.6000    0.0000 C   0  0  1  0  0  0  0  0  0  0  0  0
  -11.4315   -7.4250    0.0000 O   0  0  0  0  0  0  0  0  0  0  0  0
  -12.1460   -7.8375    0.0000 C   0  0  2  0  0  0  0  0  0  0  0  0
  -12.1460   -8.6625    0.0000 C   0  0  0  0  0  0  0  0  0  0  0  0
  -12.8605   -9.0750    0.0000 O   0  0  0  0  0  0  0  0  0  0  0  0
  -12.8605   -7.4250    0.0000 C   0  0  1  0  0  0  0  0  0  0  0  0
  -13.5749   -7.8375    0.0000 O   0  0  0  0  0  0  0  0  0  0  0  0
  -12.8605   -6.6000    0.0000 C   0  0  2  0  0  0  0  0  0  0  0  0
  -13.5749   -6.1875    0.0000 O   0  0  0  0  0  0  0  0  0  0  0  0
  -12.1460   -6.1875    0.0000 C   0  0  1  0  0  0  0  0  0  0  0  0
  -12.1460   -5.3625    0.0000 O   0  0  0  0  0  0  0  0  0  0  0  0
  -10.0026   -7.4250    0.0000 C   0  0  2  0  0  0  0  0  0  0  0  0
  -10.7171   -7.8375    0.0000 O   0  0  0  0  0  0  0  0  0  0  0  0
   -9.2881   -7.8375    0.0000 C   0  0  1  0  0  0  0  0  0  0  0  0
   -9.2881   -8.6625    0.0000 O   0  0  0  0  0  0  0  0  0  0  0  0
   -7.1447   -6.6000    0.0000 C   0  0  2  0  0  0  0  0  0  0  0  0
   -7.8592   -6.1875    0.0000 O   0  0  0  0  0  0  0  0  0  0  0  0
   -6.4302   -6.1875    0.0000 C   0  0  1  0  0  0  0  0  0  0  0  0
   -6.4302   -5.3625    0.0000 O   0  0  0  0  0  0  0  0  0  0  0  0
   -2.6458   -4.8275    0.0000 H   0  0  0  0  0  0  0  0  0  0  0  0
   -4.4990   -4.8275    0.0000 H   0  0  0  0  0  0  0  0  0  0  0  0
   -3.5724   -4.2925    0.0000 H   0  0  0  0  0  0  0  0  0  0  0  0
   -2.6458   -5.6525    0.0000 H   0  0  0  0  0  0  0  0  0  0  0  0
   -1.9313   -6.8900    0.0000 H   0  0  0  0  0  0  0  0  0  0  0  0
   -1.4289   -8.4950    0.0000 H   0  0  0  0  0  0  0  0  0  0  0  0
   -1.6412   -8.3725    0.0000 H   0  0  0  0  0  0  0  0  0  0  0  0
    0.2122   -9.1975    0.0000 H   0  0  0  0  0  0  0  0  0  0  0  0
   -0.7145   -9.7325    0.0000 H   0  0  0  0  0  0  0  0  0  0  0  0
   -2.2690   -8.5900    0.0000 H   0  0  0  0  0  0  0  0  0  0  0  0
    0.9266   -7.1350    0.0000 H   0  0  0  0  0  0  0  0  0  0  0  0
    1.4289   -5.5300    0.0000 H   0  0  0  0  0  0  0  0  0  0  0  0
    1.2168   -5.6525    0.0000 H   0  0  0  0  0  0  0  0  0  0  0  0
    1.2168   -4.8275    0.0000 H   0  0  0  0  0  0  0  0  0  0  0  0
    2.1434   -4.2925    0.0000 H   0  0  0  0  0  0  0  0  0  0  0  0
    3.6979   -5.4350    0.0000 H   0  0  0  0  0  0  0  0  0  0  0  0
    3.7845   -6.8900    0.0000 H   0  0  0  0  0  0  0  0  0  0  0  0
    3.5724   -8.8075    0.0000 H   0  0  0  0  0  0  0  0  0  0  0  0
    3.0700   -8.3725    0.0000 H   0  0  0  0  0  0  0  0  0  0  0  0
    1.3034   -9.1475    0.0000 H   0  0  0  0  0  0  0  0  0  0  0  0
    1.4289   -8.4950    0.0000 H   0  0  0  0  0  0  0  0  0  0  0  0
   -0.1256   -7.3525    0.0000 H   0  0  0  0  0  0  0  0  0  0  0  0
    0.2121   -5.6525    0.0000 H   0  0  0  0  0  0  0  0  0  0  0  0
    0.1255   -4.8775    0.0000 H   0  0  0  0  0  0  0  0  0  0  0  0
   -1.4289   -5.5300    0.0000 H   0  0  0  0  0  0  0  0  0  0  0  0
   -2.1434   -5.2175    0.0000 H   0  0  0  0  0  0  0  0  0  0  0  0
   -2.6458   -8.3725    0.0000 H   0  0  0  0  0  0  0  0  0  0  0  0
   -4.4124   -9.1475    0.0000 H   0  0  0  0  0  0  0  0  0  0  0  0
   -4.2868   -8.4950    0.0000 H   0  0  0  0  0  0  0  0  0  0  0  0
   -5.8413   -7.3525    0.0000 H   0  0  0  0  0  0  0  0  0  0  0  0
   -5.2134   -7.1350    0.0000 H   0  0  0  0  0  0  0  0  0  0  0  0
   -5.0013   -5.1675    0.0000 H   0  0  0  0  0  0  0  0  0  0  0  0
   -4.7892   -7.1350    0.0000 H   0  0  0  0  0  0  0  0  0  0  0  0
   -4.8221   -7.9410    0.0000 H   0  0  0  0  0  0  0  0  0  0  0  0
   -7.3569   -9.1975    0.0000 H   0  0  0  0  0  0  0  0  0  0  0  0
   -6.4302   -9.7325    0.0000 H   0  0  0  0  0  0  0  0  0  0  0  0
   -5.7158  -10.0450    0.0000 H   0  0  0  0  0  0  0  0  0  0  0  0
   -7.1447   -8.4950    0.0000 H   0  0  0  0  0  0  0  0  0  0  0  0
   -7.6471   -6.8900    0.0000 H   0  0  0  0  0  0  0  0  0  0  0  0
   -8.3614   -5.6525    0.0000 H   0  0  0  0  0  0  0  0  0  0  0  0
   -8.3615   -4.8275    0.0000 H   0  0  0  0  0  0  0  0  0  0  0  0
   -9.2881   -4.2925    0.0000 H   0  0  0  0  0  0  0  0  0  0  0  0
  -10.0026   -3.9800    0.0000 H   0  0  0  0  0  0  0  0  0  0  0  0
  -10.0026   -5.5300    0.0000 H   0  0  0  0  0  0  0  0  0  0  0  0
  -10.5048   -7.1350    0.0000 H   0  0  0  0  0  0  0  0  0  0  0  0
  -11.2194   -8.3725    0.0000 H   0  0  0  0  0  0  0  0  0  0  0  0
  -11.2194   -9.1975    0.0000 H   0  0  0  0  0  0  0  0  0  0  0  0
  -12.1460   -9.7325    0.0000 H   0  0  0  0  0  0  0  0  0  0  0  0
  -13.7005   -8.5900    0.0000 H   0  0  0  0  0  0  0  0  0  0  0  0
  -12.8605   -8.4950    0.0000 H   0  0  0  0  0  0  0  0  0  0  0  0
  -14.4150   -7.3525    0.0000 H   0  0  0  0  0  0  0  0  0  0  0  0
  -13.7872   -7.1350    0.0000 H   0  0  0  0  0  0  0  0  0  0  0  0
  -13.5749   -5.2175    0.0000 H   0  0  0  0  0  0  0  0  0  0  0  0
  -13.0726   -5.6525    0.0000 H   0  0  0  0  0  0  0  0  0  0  0  0
  -11.3060   -4.8775    0.0000 H   0  0  0  0  0  0  0  0  0  0  0  0
  -10.9292   -6.8900    0.0000 H   0  0  0  0  0  0  0  0  0  0  0  0
  -11.5571   -7.3525    0.0000 H   0  0  0  0  0  0  0  0  0  0  0  0
  -10.2147   -8.3725    0.0000 H   0  0  0  0  0  0  0  0  0  0  0  0
  -10.1281   -9.1475    0.0000 H   0  0  0  0  0  0  0  0  0  0  0  0
   -8.0713   -7.1350    0.0000 H   0  0  0  0  0  0  0  0  0  0  0  0
   -7.8592   -5.2175    0.0000 H   0  0  0  0  0  0  0  0  0  0  0  0
   -7.3568   -5.6525    0.0000 H   0  0  0  0  0  0  0  0  0  0  0  0
   -5.5902   -4.8775    0.0000 H   0  0  0  0  0  0  0  0  0  0  0  0
  1 67  1  0  0  0  0
  1 68  1  0  0  0  0
  1 69  1  0  0  0  0
  2  1  1  0  0  0  0
  2  3  1  0  0  0  0
  2 32  1  0  0  0  0
  2 70  1  6  0  0  0
  3  4  1  0  0  0  0
  4  5  1  0  0  0  0
  4 28  1  0  0  0  0
  4 71  1  1  0  0  0
  6  5  1  0  0  0  0
  6  7  1  0  0  0  0
  6 26  1  0  0  0  0
  6 72  1  6  0  0  0
  7  8  1  0  0  0  0
  7 10  1  0  0  0  0
  7 73  1  1  0  0  0
  8  9  1  0  0  0  0
  8 74  1  0  0  0  0
  8 75  1  0  0  0  0
  9 76  1  0  0  0  0
 10 11  1  0  0  0  0
 11 12  1  0  0  0  0
 11 24  1  0  0  0  0
 11 77  1  6  0  0  0
 13 12  1  0  0  0  0
 13 14  1  0  0  0  0
 13 22  1  0  0  0  0
 13 78  1  1  0  0  0
 14 15  1  0  0  0  0
 14 17  1  0  0  0  0
 14 79  1  6  0  0  0
 15 16  1  0  0  0  0
 15 80  1  0  0  0  0
 15 81  1  0  0  0  0
 16 82  1  0  0  0  0
 17 18  1  0  0  0  0
 18 19  1  0  0  0  0
 18 20  1  0  0  0  0
 18 83  1  1  0  0  0
 19 84  1  0  0  0  0
 20 21  1  0  0  0  0
 20 22  1  0  0  0  0
 20 85  1  1  0  0  0
 21 86  1  0  0  0  0
 22 23  1  0  0  0  0
 22 87  1  6  0  0  0
 23 88  1  0  0  0  0
 24 25  1  0  0  0  0
 24 26  1  0  0  0  0
 24 89  1  6  0  0  0
 25 90  1  0  0  0  0
 26 27  1  0  0  0  0
 26 91  1  1  0  0  0
 27 92  1  0  0  0  0
 28 29  1  0  0  0  0
 28 30  1  0  0  0  0
 28 93  1  1  0  0  0
 29 94  1  0  0  0  0
 30 31  1  0  0  0  0
 30 32  1  0  0  0  0
 30 95  1  6  0  0  0
 31 96  1  0  0  0  0
 32 33  1  0  0  0  0
 32 97  1  1  0  0  0
 33 98  1  0  0  0  0
 34 33  1  0  0  0  0
 34 35  1  0  0  0  0
 34 65  1  0  0  0  0
 34 99  1  6  0  0  0
 35 36  2  0  0  0  0
 35100  1  0  0  0  0
 36 37  1  0  0  0  0
 36 39  1  0  0  0  0
 37 38  1  0  0  0  0
 37101  1  0  0  0  0
 37102  1  0  0  0  0
 38103  1  0  0  0  0
 39 40  1  0  0  0  0
 39 63  1  0  0  0  0
 39104  1  6  0  0  0
 41 40  1  0  0  0  0
 41 42  1  0  0  0  0
 41 61  1  0  0  0  0
 41105  1  1  0  0  0
 42 43  1  0  0  0  0
 43 44  1  0  0  0  0
 43 46  1  0  0  0  0
 43106  1  6  0  0  0
 44 45  1  0  0  0  0
 44107  1  0  0  0  0
 44108  1  0  0  0  0
 45109  1  0  0  0  0
 46 47  1  0  0  0  0
 46 59  1  0  0  0  0
 46110  1  1  0  0  0
 48 47  1  0  0  0  0
 48 49  1  0  0  0  0
 48 57  1  0  0  0  0
 48111  1  6  0  0  0
 49 50  1  0  0  0  0
 50 51  1  0  0  0  0
 50 53  1  0  0  0  0
 50112  1  1  0  0  0
 51 52  1  0  0  0  0
 51113  1  0  0  0  0
 51114  1  0  0  0  0
 52115  1  0  0  0  0
 53 54  1  0  0  0  0
 53 55  1  0  0  0  0
 53116  1  6  0  0  0
 54117  1  0  0  0  0
 55 56  1  0  0  0  0
 55 57  1  0  0  0  0
 55118  1  1  0  0  0
 56119  1  0  0  0  0
 57 58  1  0  0  0  0
 57120  1  6  0  0  0
 58121  1  0  0  0  0
 59 60  1  0  0  0  0
 59 61  1  0  0  0  0
 59122  1  6  0  0  0
 60123  1  0  0  0  0
 61 62  1  0  0  0  0
 61124  1  1  0  0  0
 62125  1  0  0  0  0
 63 64  1  0  0  0  0
 63 65  1  0  0  0  0
 63126  1  1  0  0  0
 64127  1  0  0  0  0
 65 66  1  0  0  0  0
 65128  1  6  0  0  0
 66129  1  0  0  0  0
M  END
>  <DRUGBANK_ID>
DB04618

>  <COMMON_NAME>
4,6-DIDEOXY-4-{[4-[(4-O-HEXOPYRANOSYLHEXOPYRANOSYL)OXY]-5,6-DIHYDROXY-3-(HYDROXYMETHYL)CYCLOHEX-2-EN-1-YL]AMINO}HEXOPYRANOSYL-(1->4)HEXOPYRANOSYL-(1->4)HEXOPYRANOSE

$$$$
