
 OpenBabel10282417072D

 40 42  0  0  0  0  0  0  0  0999 V2000
    4.0753    0.0355    0.0000 N   0  0  0  0  0  0  0  0  0  0  0  0
    3.3001   -0.2467    0.0000 C   0  0  0  0  0  0  0  0  0  0  0  0
    4.0145   -0.6592    0.0000 C   0  0  0  0  0  0  0  0  0  0  0  0
    2.5856   -0.6592    0.0000 C   0  0  0  0  0  0  0  0  0  0  0  0
    4.0145   -1.4842    0.0000 C   0  0  0  0  0  0  0  0  0  0  0  0
    2.5856   -1.4842    0.0000 C   0  0  0  0  0  0  0  0  0  0  0  0
    4.7593   -0.4259    0.0000 C   0  0  0  0  0  0  0  0  0  0  0  0
    4.3027    0.8285    0.0000 C   0  0  0  0  0  0  0  0  0  0  0  0
    3.3001   -1.8967    0.0000 C   0  0  0  0  0  0  0  0  0  0  0  0
    2.8876    0.4678    0.0000 C   0  0  0  0  0  0  0  0  0  0  0  0
    5.4094    0.0821    0.0000 C   0  0  0  0  0  0  0  0  0  0  0  0
    5.1272    0.8573    0.0000 C   0  0  0  0  0  0  0  0  0  0  0  0
    2.0625    0.4678    0.0000 C   0  0  0  0  0  0  0  0  0  0  0  0
    3.3001    1.1823    0.0000 C   0  0  0  0  0  0  0  0  0  0  0  0
    1.6500    1.1823    0.0000 C   0  0  0  0  0  0  0  0  0  0  0  0
    2.8876    1.8967    0.0000 C   0  0  0  0  0  0  0  0  0  0  0  0
    2.0625    1.8967    0.0000 C   0  0  0  0  0  0  0  0  0  0  0  0
    4.9412   -0.1242    0.0000 H   0  0  0  0  0  0  0  0  0  0  0  0
    4.9411   -1.1942    0.0000 H   0  0  0  0  0  0  0  0  0  0  0  0
    1.6590   -0.1242    0.0000 H   0  0  0  0  0  0  0  0  0  0  0  0
    1.6590   -1.1942    0.0000 H   0  0  0  0  0  0  0  0  0  0  0  0
    4.9412   -2.0192    0.0000 H   0  0  0  0  0  0  0  0  0  0  0  0
    4.0145   -2.5542    0.0000 H   0  0  0  0  0  0  0  0  0  0  0  0
    1.6590   -2.0192    0.0000 H   0  0  0  0  0  0  0  0  0  0  0  0
    2.5856   -2.5542    0.0000 H   0  0  0  0  0  0  0  0  0  0  0  0
    4.7967   -1.4952    0.0000 H   0  0  0  0  0  0  0  0  0  0  0  0
    5.7291   -0.8781    0.0000 H   0  0  0  0  0  0  0  0  0  0  0  0
    3.6439    1.6717    0.0000 H   0  0  0  0  0  0  0  0  0  0  0  0
    4.7549    1.7983    0.0000 H   0  0  0  0  0  0  0  0  0  0  0  0
    3.3001   -2.9667    0.0000 H   0  0  0  0  0  0  0  0  0  0  0  0
    2.3735   -2.4317    0.0000 H   0  0  0  0  0  0  0  0  0  0  0  0
    6.4380   -0.2128    0.0000 H   0  0  0  0  0  0  0  0  0  0  0  0
    6.1391    0.8647    0.0000 H   0  0  0  0  0  0  0  0  0  0  0  0
    5.7255    1.7444    0.0000 H   0  0  0  0  0  0  0  0  0  0  0  0
    6.1892    0.7269    0.0000 H   0  0  0  0  0  0  0  0  0  0  0  0
    1.5465   -0.4259    0.0000 H   0  0  0  0  0  0  0  0  0  0  0  0
    4.3321    1.1823    0.0000 H   0  0  0  0  0  0  0  0  0  0  0  0
    0.6180    1.1823    0.0000 H   0  0  0  0  0  0  0  0  0  0  0  0
    3.4036    2.7904    0.0000 H   0  0  0  0  0  0  0  0  0  0  0  0
    1.5465    2.7904    0.0000 H   0  0  0  0  0  0  0  0  0  0  0  0
  1  2  1  0  0  0  0
  1  7  1  0  0  0  0
  1  8  1  0  0  0  0
  2  3  1  0  0  0  0
  2  4  1  0  0  0  0
  2 10  1  0  0  0  0
  3  5  1  0  0  0  0
  3 18  1  0  0  0  0
  3 19  1  0  0  0  0
  4  6  1  0  0  0  0
  4 20  1  0  0  0  0
  4 21  1  0  0  0  0
  5  9  1  0  0  0  0
  5 22  1  0  0  0  0
  5 23  1  0  0  0  0
  6  9  1  0  0  0  0
  6 24  1  0  0  0  0
  6 25  1  0  0  0  0
  7 11  1  0  0  0  0
  7 26  1  0  0  0  0
  7 27  1  0  0  0  0
  8 12  1  0  0  0  0
  8 28  1  0  0  0  0
  8 29  1  0  0  0  0
  9 30  1  0  0  0  0
  9 31  1  0  0  0  0
 10 13  2  0  0  0  0
 10 14  1  0  0  0  0
 11 12  1  0  0  0  0
 11 32  1  0  0  0  0
 11 33  1  0  0  0  0
 12 34  1  0  0  0  0
 12 35  1  0  0  0  0
 13 15  1  0  0  0  0
 13 36  1  0  0  0  0
 14 16  2  0  0  0  0
 14 37  1  0  0  0  0
 15 17  2  0  0  0  0
 15 38  1  0  0  0  0
 16 17  1  0  0  0  0
 16 39  1  0  0  0  0
 17 40  1  0  0  0  0
M  END
>  <DRUGBANK_ID>
DB01549

>  <COMMON_NAME>
Rolicyclidine

>  <CAS_NUMBER>
2201-39-0

>  <UNII>
183O9O9JE3

>  <SYNONYMS>
1-(1-phenylcyclohexyl)pyrrolidine; PCPy; Roliciclidina; Rolicyclidine; Rolicyclidinum

$$$$
