
 OpenBabel10282417072D

 32 34  0  0  1  0  0  0  0  0999 V2000
   -0.7846    3.9841    0.0000 C   0  0  0  0  0  0  0  0  0  0  0  0
   -1.2695    0.4125    0.0000 C   0  0  0  0  0  0  0  0  0  0  0  0
   -1.0396    3.1994    0.0000 C   0  0  2  0  0  0  0  0  0  0  0  0
    0.0000    0.0000    0.0000 C   0  0  0  0  0  0  0  0  0  0  0  0
   -1.8242    2.9445    0.0000 C   0  0  2  0  0  0  0  0  0  0  0  0
   -1.8242    2.1195    0.0000 C   0  0  2  0  0  0  0  0  0  0  0  0
    0.7145   -0.4125    0.0000 C   0  0  0  0  0  0  0  0  0  0  0  0
    0.0000    0.8250    0.0000 C   0  0  0  0  0  0  0  0  0  0  0  0
   -1.0396    1.8646    0.0000 C   0  0  2  0  0  0  0  0  0  0  0  0
    1.4289    0.8250    0.0000 C   0  0  0  0  0  0  0  0  0  0  0  0
    2.1434    1.2375    0.0000 F   0  0  0  0  0  0  0  0  0  0  0  0
    0.7145   -1.2375    0.0000 N   0  0  0  0  0  0  0  0  0  0  0  0
   -0.7846   -0.2549    0.0000 N   0  0  0  0  0  0  0  0  0  0  0  0
    1.4289    0.0000    0.0000 N   0  0  0  0  0  0  0  0  0  0  0  0
    0.7145    1.2375    0.0000 N   0  0  0  0  0  0  0  0  0  0  0  0
   -0.7846    1.0799    0.0000 N   0  0  0  0  0  0  0  0  0  0  0  0
   -1.3367    4.5972    0.0000 O   0  0  0  0  0  0  0  0  0  0  0  0
   -2.4916    3.4294    0.0000 O   0  0  0  0  0  0  0  0  0  0  0  0
   -2.4916    1.6346    0.0000 O   0  0  0  0  0  0  0  0  0  0  0  0
   -0.5546    2.5320    0.0000 O   0  0  0  0  0  0  0  0  0  0  0  0
   -1.7873    3.5481    0.0000 H   0  0  0  0  0  0  0  0  0  0  0  0
   -1.9816    3.7543    0.0000 H   0  0  0  0  0  0  0  0  0  0  0  0
   -2.5593    2.4940    0.0000 H   0  0  0  0  0  0  0  0  0  0  0  0
   -1.6229    1.2812    0.0000 H   0  0  0  0  0  0  0  0  0  0  0  0
    0.2620    4.2066    0.0000 H   0  0  0  0  0  0  0  0  0  0  0  0
   -0.4540    5.0017    0.0000 H   0  0  0  0  0  0  0  0  0  0  0  0
   -2.3015    0.4125    0.0000 H   0  0  0  0  0  0  0  0  0  0  0  0
   -0.1381   -1.7298    0.0000 H   0  0  0  0  0  0  0  0  0  0  0  0
    1.5671   -1.7298    0.0000 H   0  0  0  0  0  0  0  0  0  0  0  0
   -1.0370    5.5197    0.0000 H   0  0  0  0  0  0  0  0  0  0  0  0
   -2.3902    4.3941    0.0000 H   0  0  0  0  0  0  0  0  0  0  0  0
   -3.3777    2.0291    0.0000 H   0  0  0  0  0  0  0  0  0  0  0  0
  1 25  1  0  0  0  0
  1 26  1  0  0  0  0
  2 27  1  0  0  0  0
  3  1  1  0  0  0  0
  3 21  1  6  0  0  0
  5  3  1  0  0  0  0
  5 18  1  0  0  0  0
  5 22  1  1  0  0  0
  6  5  1  0  0  0  0
  6 19  1  0  0  0  0
  6 23  1  1  0  0  0
  7  4  2  0  0  0  0
  8  4  1  0  0  0  0
  9  6  1  0  0  0  0
  9 16  1  0  0  0  0
  9 24  1  6  0  0  0
 11 10  1  0  0  0  0
 12  7  1  0  0  0  0
 12 28  1  0  0  0  0
 12 29  1  0  0  0  0
 13  2  2  0  0  0  0
 13  4  1  0  0  0  0
 14  7  1  0  0  0  0
 14 10  2  0  0  0  0
 15  8  2  0  0  0  0
 15 10  1  0  0  0  0
 16  2  1  0  0  0  0
 16  8  1  0  0  0  0
 17  1  1  0  0  0  0
 17 30  1  0  0  0  0
 18 31  1  0  0  0  0
 19 32  1  0  0  0  0
 20  3  1  0  0  0  0
 20  9  1  0  0  0  0
M  END
>  <DRUGBANK_ID>
DB04441

>  <SECONDARY_ACCESSION_NUMBERS>
EXPT00114

>  <COMMON_NAME>
2-Fluoroadenosine

>  <CAS_NUMBER>
146-78-1

>  <UNII>
0S67290CRJ

>  <SYNONYMS>
2-(6-amino-2-fluoro-purin-9-yl)-5-hydroxymethyl-tetrahydro-furan-3,4-diol; 6-amino-2-fluoro-9-Î²-D-ribofuranosylpurine

$$$$
