
 OpenBabel10282417072D

 56 60  0  0  0  0  0  0  0  0999 V2000
    6.9246    0.6979    0.0000 C   0  0  0  0  0  0  0  0  0  0  0  0
    6.2102    1.1104    0.0000 C   0  0  0  0  0  0  0  0  0  0  0  0
    5.4957    0.6979    0.0000 C   0  0  0  0  0  0  0  0  0  0  0  0
    4.7812    1.1104    0.0000 C   0  0  0  0  0  0  0  0  0  0  0  0
    4.7812    1.9354    0.0000 C   0  0  0  0  0  0  0  0  0  0  0  0
    5.4957    2.3479    0.0000 C   0  0  0  0  0  0  0  0  0  0  0  0
    6.2102    1.9354    0.0000 C   0  0  0  0  0  0  0  0  0  0  0  0
    6.9246    2.3479    0.0000 N   0  0  0  0  0  0  0  0  0  0  0  0
    7.6391    1.9354    0.0000 C   0  0  0  0  0  0  0  0  0  0  0  0
    7.6391    1.1104    0.0000 O   0  0  0  0  0  0  0  0  0  0  0  0
    8.3536    2.3479    0.0000 C   0  0  0  0  0  0  0  0  0  0  0  0
    8.4398    3.1684    0.0000 C   0  0  0  0  0  0  0  0  0  0  0  0
    9.2468    3.3400    0.0000 C   0  0  0  0  0  0  0  0  0  0  0  0
    9.6593    2.6255    0.0000 N   0  0  0  0  0  0  0  0  0  0  0  0
    9.1073    2.0124    0.0000 N   0  0  0  0  0  0  0  0  0  0  0  0
    9.2788    1.2054    0.0000 C   0  0  0  0  0  0  0  0  0  0  0  0
    9.5823    4.0936    0.0000 C   0  0  0  0  0  0  0  0  0  0  0  0
    4.0668    2.3479    0.0000 O   0  0  0  0  0  0  0  0  0  0  0  0
    3.3523    1.9354    0.0000 C   0  0  0  0  0  0  0  0  0  0  0  0
    3.3523    1.1104    0.0000 C   0  0  0  0  0  0  0  0  0  0  0  0
    2.6378    0.6979    0.0000 C   0  0  0  0  0  0  0  0  0  0  0  0
    1.9233    1.1104    0.0000 C   0  0  0  0  0  0  0  0  0  0  0  0
    1.1387    0.8555    0.0000 N   0  0  0  0  0  0  0  0  0  0  0  0
    0.6538    1.5229    0.0000 C   0  0  0  0  0  0  0  0  0  0  0  0
    1.1387    2.1904    0.0000 C   0  0  0  0  0  0  0  0  0  0  0  0
    1.9233    1.9354    0.0000 N   0  0  0  0  0  0  0  0  0  0  0  0
    2.6378    2.3479    0.0000 N   0  0  0  0  0  0  0  0  0  0  0  0
   -0.1712    1.5229    0.0000 N   0  0  0  0  0  0  0  0  0  0  0  0
   -0.5837    0.8085    0.0000 C   0  0  0  0  0  0  0  0  0  0  0  0
   -0.1712    0.0940    0.0000 O   0  0  0  0  0  0  0  0  0  0  0  0
   -1.4087    0.8085    0.0000 C   0  0  0  0  0  0  0  0  0  0  0  0
   -2.1232    0.3960    0.0000 C   0  0  0  0  0  0  0  0  0  0  0  0
   -2.1232    1.2210    0.0000 C   0  0  0  0  0  0  0  0  0  0  0  0
    6.9246   -0.3721    0.0000 H   0  0  0  0  0  0  0  0  0  0  0  0
    7.8513    1.2329    0.0000 H   0  0  0  0  0  0  0  0  0  0  0  0
    7.8512    0.1629    0.0000 H   0  0  0  0  0  0  0  0  0  0  0  0
    5.4957   -0.3341    0.0000 H   0  0  0  0  0  0  0  0  0  0  0  0
    3.8875    0.5944    0.0000 H   0  0  0  0  0  0  0  0  0  0  0  0
    5.4957    3.3799    0.0000 H   0  0  0  0  0  0  0  0  0  0  0  0
    6.9246    3.3324    0.0000 H   0  0  0  0  0  0  0  0  0  0  0  0
    7.6728    3.8589    0.0000 H   0  0  0  0  0  0  0  0  0  0  0  0
    8.4836    0.4895    0.0000 H   0  0  0  0  0  0  0  0  0  0  0  0
   10.2964    0.8747    0.0000 H   0  0  0  0  0  0  0  0  0  0  0  0
    9.5012    0.1588    0.0000 H   0  0  0  0  0  0  0  0  0  0  0  0
   10.6464    4.2055    0.0000 H   0  0  0  0  0  0  0  0  0  0  0  0
    8.9533    4.9592    0.0000 H   0  0  0  0  0  0  0  0  0  0  0  0
   10.0175    5.0711    0.0000 H   0  0  0  0  0  0  0  0  0  0  0  0
    4.2460    0.5944    0.0000 H   0  0  0  0  0  0  0  0  0  0  0  0
    2.6378   -0.3341    0.0000 H   0  0  0  0  0  0  0  0  0  0  0  0
    0.8198    3.1719    0.0000 H   0  0  0  0  0  0  0  0  0  0  0  0
   -0.6634    2.3755    0.0000 H   0  0  0  0  0  0  0  0  0  0  0  0
   -2.4787    0.8085    0.0000 H   0  0  0  0  0  0  0  0  0  0  0  0
   -2.6582   -0.5306    0.0000 H   0  0  0  0  0  0  0  0  0  0  0  0
   -3.1567    0.6729    0.0000 H   0  0  0  0  0  0  0  0  0  0  0  0
   -2.6582    2.1476    0.0000 H   0  0  0  0  0  0  0  0  0  0  0  0
   -1.3666    1.9776    0.0000 H   0  0  0  0  0  0  0  0  0  0  0  0
  1  2  1  0  0  0  0
  1 34  1  0  0  0  0
  1 35  1  0  0  0  0
  1 36  1  0  0  0  0
  2  3  2  0  0  0  0
  2  7  1  0  0  0  0
  3  4  1  0  0  0  0
  3 37  1  0  0  0  0
  4  5  2  0  0  0  0
  4 38  1  0  0  0  0
  5  6  1  0  0  0  0
  5 18  1  0  0  0  0
  6  7  2  0  0  0  0
  6 39  1  0  0  0  0
  7  8  1  0  0  0  0
  8  9  1  0  0  0  0
  8 40  1  0  0  0  0
  9 10  2  0  0  0  0
  9 11  1  0  0  0  0
 11 12  2  0  0  0  0
 11 15  1  0  0  0  0
 12 13  1  0  0  0  0
 12 41  1  0  0  0  0
 13 14  2  0  0  0  0
 13 17  1  0  0  0  0
 14 15  1  0  0  0  0
 15 16  1  0  0  0  0
 16 42  1  0  0  0  0
 16 43  1  0  0  0  0
 16 44  1  0  0  0  0
 17 45  1  0  0  0  0
 17 46  1  0  0  0  0
 17 47  1  0  0  0  0
 18 19  1  0  0  0  0
 19 20  1  0  0  0  0
 19 27  2  0  0  0  0
 20 21  2  0  0  0  0
 20 48  1  0  0  0  0
 21 22  1  0  0  0  0
 21 49  1  0  0  0  0
 22 23  2  0  0  0  0
 22 26  1  0  0  0  0
 23 24  1  0  0  0  0
 24 25  2  0  0  0  0
 24 28  1  0  0  0  0
 25 26  1  0  0  0  0
 25 50  1  0  0  0  0
 26 27  1  0  0  0  0
 28 29  1  0  0  0  0
 28 51  1  0  0  0  0
 29 30  2  0  0  0  0
 29 31  1  0  0  0  0
 31 32  1  0  0  0  0
 31 33  1  0  0  0  0
 31 52  1  0  0  0  0
 32 33  1  0  0  0  0
 32 53  1  0  0  0  0
 32 54  1  0  0  0  0
 33 55  1  0  0  0  0
 33 56  1  0  0  0  0
M  END
>  <DRUGBANK_ID>
DB13093

>  <COMMON_NAME>
TAK-593

>  <CAS_NUMBER>
1005780-62-0

>  <UNII>
H3I42X8XX7

$$$$
