TQ5
 OpenBabel10282417072D

 43 45  0  0  0  0  0  0  0  0999 V2000
   -1.6764   -2.1119    0.0000 C   0  0  0  0  0  0  0  0  0  0  0  0
   -1.6764   -1.2869    0.0000 C   0  0  0  0  0  0  0  0  0  0  0  0
   -2.3909   -0.8744    0.0000 C   0  0  0  0  0  0  0  0  0  0  0  0
   -3.1054   -1.2869    0.0000 N   0  0  0  0  0  0  0  0  0  0  0  0
   -3.1054   -2.1119    0.0000 C   0  0  0  0  0  0  0  0  0  0  0  0
   -2.3909   -2.5244    0.0000 N   0  0  0  0  0  0  0  0  0  0  0  0
   -2.3909   -0.0494    0.0000 N   0  0  0  0  0  0  0  0  0  0  0  0
   -0.9619   -2.5244    0.0000 C   0  0  0  0  0  0  0  0  0  0  0  0
   -0.2475   -2.1119    0.0000 C   0  0  0  0  0  0  0  0  0  0  0  0
   -0.2475   -1.2869    0.0000 C   0  0  0  0  0  0  0  0  0  0  0  0
   -0.9619   -0.8744    0.0000 C   0  0  0  0  0  0  0  0  0  0  0  0
   -3.8198   -2.5244    0.0000 N   0  0  0  0  0  0  0  0  0  0  0  0
   -0.9619   -0.0494    0.0000 S   0  0  0  0  0  0  0  0  0  0  0  0
   -0.2475    0.3631    0.0000 C   0  0  0  0  0  0  0  0  0  0  0  0
   -0.2475    1.1881    0.0000 C   0  0  0  0  0  0  0  0  0  0  0  0
    0.4670    1.6006    0.0000 C   0  0  0  0  0  0  0  0  0  0  0  0
    1.1815    1.1881    0.0000 C   0  0  0  0  0  0  0  0  0  0  0  0
    1.1815    0.3631    0.0000 C   0  0  0  0  0  0  0  0  0  0  0  0
    0.4670   -0.0494    0.0000 C   0  0  0  0  0  0  0  0  0  0  0  0
    1.8959    1.6006    0.0000 C   0  0  0  0  0  0  0  0  0  0  0  0
    2.6104    2.0131    0.0000 C   0  0  0  0  0  0  0  0  0  0  0  0
    2.3084    0.8861    0.0000 C   0  0  0  0  0  0  0  0  0  0  0  0
    1.4834    2.3150    0.0000 C   0  0  0  0  0  0  0  0  0  0  0  0
   -1.5383    0.4429    0.0000 H   0  0  0  0  0  0  0  0  0  0  0  0
   -3.2435    0.4428    0.0000 H   0  0  0  0  0  0  0  0  0  0  0  0
   -0.9619   -3.5564    0.0000 H   0  0  0  0  0  0  0  0  0  0  0  0
    0.6462   -2.6279    0.0000 H   0  0  0  0  0  0  0  0  0  0  0  0
    0.6462   -0.7709    0.0000 H   0  0  0  0  0  0  0  0  0  0  0  0
   -4.6724   -2.0322    0.0000 H   0  0  0  0  0  0  0  0  0  0  0  0
   -3.8198   -3.5089    0.0000 H   0  0  0  0  0  0  0  0  0  0  0  0
   -1.1412    1.7041    0.0000 H   0  0  0  0  0  0  0  0  0  0  0  0
    0.4670    2.6326    0.0000 H   0  0  0  0  0  0  0  0  0  0  0  0
    2.0752   -0.1529    0.0000 H   0  0  0  0  0  0  0  0  0  0  0  0
    0.4670   -1.0814    0.0000 H   0  0  0  0  0  0  0  0  0  0  0  0
    3.5370    1.4781    0.0000 H   0  0  0  0  0  0  0  0  0  0  0  0
    2.6104    3.0831    0.0000 H   0  0  0  0  0  0  0  0  0  0  0  0
    3.5371    2.5481    0.0000 H   0  0  0  0  0  0  0  0  0  0  0  0
    1.7734   -0.0405    0.0000 H   0  0  0  0  0  0  0  0  0  0  0  0
    3.3784    0.8861    0.0000 H   0  0  0  0  0  0  0  0  0  0  0  0
    2.8434   -0.0406    0.0000 H   0  0  0  0  0  0  0  0  0  0  0  0
    2.0184    3.2417    0.0000 H   0  0  0  0  0  0  0  0  0  0  0  0
    0.4134    2.3150    0.0000 H   0  0  0  0  0  0  0  0  0  0  0  0
    0.9484    3.2416    0.0000 H   0  0  0  0  0  0  0  0  0  0  0  0
  1  2  2  0  0  0  0
  1  6  1  0  0  0  0
  1  8  1  0  0  0  0
  2  3  1  0  0  0  0
  2 11  1  0  0  0  0
  3  4  2  0  0  0  0
  3  7  1  0  0  0  0
  4  5  1  0  0  0  0
  5  6  2  0  0  0  0
  5 12  1  0  0  0  0
  7 24  1  0  0  0  0
  7 25  1  0  0  0  0
  8  9  2  0  0  0  0
  8 26  1  0  0  0  0
  9 10  1  0  0  0  0
  9 27  1  0  0  0  0
 10 11  2  0  0  0  0
 10 28  1  0  0  0  0
 11 13  1  0  0  0  0
 12 29  1  0  0  0  0
 12 30  1  0  0  0  0
 13 14  1  0  0  0  0
 14 15  2  0  0  0  0
 14 19  1  0  0  0  0
 15 16  1  0  0  0  0
 15 31  1  0  0  0  0
 16 17  2  0  0  0  0
 16 32  1  0  0  0  0
 17 18  1  0  0  0  0
 17 20  1  0  0  0  0
 18 19  2  0  0  0  0
 18 33  1  0  0  0  0
 19 34  1  0  0  0  0
 20 21  1  0  0  0  0
 20 22  1  0  0  0  0
 20 23  1  0  0  0  0
 21 35  1  0  0  0  0
 21 36  1  0  0  0  0
 21 37  1  0  0  0  0
 22 38  1  0  0  0  0
 22 39  1  0  0  0  0
 22 40  1  0  0  0  0
 23 41  1  0  0  0  0
 23 42  1  0  0  0  0
 23 43  1  0  0  0  0
M  END
>  <DRUGBANK_ID>
DB01958

>  <SECONDARY_ACCESSION_NUMBERS>
EXPT03101

>  <COMMON_NAME>
5-[4-Tert-Butylphenylsulfanyl]-2,4-Quinazolinediamine

$$$$
