
 OpenBabel10282417072D

 60 59  0  0  1  0  0  0  0  0999 V2000
    4.2355    3.2704    0.0000 C   0  0  0  0  0  0  0  0  0  0  0  0
    4.9500    2.8579    0.0000 C   0  0  0  0  0  0  0  0  0  0  0  0
    5.6645    3.2704    0.0000 C   0  0  0  0  0  0  0  0  0  0  0  0
    6.3789    2.8579    0.0000 C   0  0  0  0  0  0  0  0  0  0  0  0
    7.0934    3.2704    0.0000 C   0  0  0  0  0  0  0  0  0  0  0  0
    7.8079    2.8579    0.0000 C   0  0  0  0  0  0  0  0  0  0  0  0
    8.5224    3.2704    0.0000 C   0  0  0  0  0  0  0  0  0  0  0  0
    9.2368    2.8579    0.0000 C   0  0  0  0  0  0  0  0  0  0  0  0
   10.6658    2.0329    0.0000 C   0  0  0  0  0  0  0  0  0  0  0  0
   11.3802    1.6204    0.0000 C   0  0  0  0  0  0  0  0  0  0  0  0
   11.3802    3.2704    0.0000 C   0  0  0  0  0  0  0  0  0  0  0  0
   14.9526    2.8579    0.0000 C   0  0  0  0  0  0  0  0  0  0  0  0
   12.0947    2.8579    0.0000 C   0  0  2  0  0  0  0  0  0  0  0  0
   14.2381    3.2704    0.0000 C   0  0  1  0  0  0  0  0  0  0  0  0
    9.9513    3.2704    0.0000 C   0  0  0  0  0  0  0  0  0  0  0  0
   12.8092    3.2704    0.0000 C   0  0  2  0  0  0  0  0  0  0  0  0
   13.5237    2.8579    0.0000 C   0  0  1  0  0  0  0  0  0  0  0  0
   10.6658    2.8579    0.0000 N   0  0  0  0  0  0  0  0  0  0  0  0
   11.3802    0.7954    0.0000 O   0  0  0  0  0  0  0  0  0  0  0  0
   15.6671    3.2704    0.0000 O   0  0  0  0  0  0  0  0  0  0  0  0
   12.0947    2.0329    0.0000 O   0  0  0  0  0  0  0  0  0  0  0  0
   14.2381    4.0954    0.0000 O   0  0  0  0  0  0  0  0  0  0  0  0
    9.9513    4.0954    0.0000 O   0  0  0  0  0  0  0  0  0  0  0  0
   12.8092    4.0954    0.0000 O   0  0  0  0  0  0  0  0  0  0  0  0
   13.5237    2.0329    0.0000 O   0  0  0  0  0  0  0  0  0  0  0  0
   12.0947    3.6829    0.0000 H   0  0  0  0  0  0  0  0  0  0  0  0
   14.2381    2.4454    0.0000 H   0  0  0  0  0  0  0  0  0  0  0  0
   12.8092    2.4454    0.0000 H   0  0  0  0  0  0  0  0  0  0  0  0
   13.5237    3.6829    0.0000 H   0  0  0  0  0  0  0  0  0  0  0  0
    4.2355    4.3404    0.0000 H   0  0  0  0  0  0  0  0  0  0  0  0
    3.3089    2.7354    0.0000 H   0  0  0  0  0  0  0  0  0  0  0  0
    3.3088    3.8054    0.0000 H   0  0  0  0  0  0  0  0  0  0  0  0
    4.9500    1.7879    0.0000 H   0  0  0  0  0  0  0  0  0  0  0  0
    5.8766    2.3229    0.0000 H   0  0  0  0  0  0  0  0  0  0  0  0
    5.6645    4.3404    0.0000 H   0  0  0  0  0  0  0  0  0  0  0  0
    6.5912    3.8054    0.0000 H   0  0  0  0  0  0  0  0  0  0  0  0
    6.3789    1.7879    0.0000 H   0  0  0  0  0  0  0  0  0  0  0  0
    7.3055    2.3229    0.0000 H   0  0  0  0  0  0  0  0  0  0  0  0
    7.0934    4.3404    0.0000 H   0  0  0  0  0  0  0  0  0  0  0  0
    8.0200    3.8054    0.0000 H   0  0  0  0  0  0  0  0  0  0  0  0
    7.8079    1.7879    0.0000 H   0  0  0  0  0  0  0  0  0  0  0  0
    8.7345    2.3229    0.0000 H   0  0  0  0  0  0  0  0  0  0  0  0
    8.5224    4.3404    0.0000 H   0  0  0  0  0  0  0  0  0  0  0  0
    9.4491    3.8054    0.0000 H   0  0  0  0  0  0  0  0  0  0  0  0
    9.2368    1.7879    0.0000 H   0  0  0  0  0  0  0  0  0  0  0  0
   10.1634    2.3229    0.0000 H   0  0  0  0  0  0  0  0  0  0  0  0
    9.7391    1.4979    0.0000 H   0  0  0  0  0  0  0  0  0  0  0  0
    9.7392    2.5679    0.0000 H   0  0  0  0  0  0  0  0  0  0  0  0
   12.3069    2.1554    0.0000 H   0  0  0  0  0  0  0  0  0  0  0  0
   12.3068    1.0854    0.0000 H   0  0  0  0  0  0  0  0  0  0  0  0
   11.3802    4.3404    0.0000 H   0  0  0  0  0  0  0  0  0  0  0  0
   10.4535    3.8054    0.0000 H   0  0  0  0  0  0  0  0  0  0  0  0
   14.9526    1.7879    0.0000 H   0  0  0  0  0  0  0  0  0  0  0  0
   15.8792    2.3229    0.0000 H   0  0  0  0  0  0  0  0  0  0  0  0
   10.5402    0.3104    0.0000 H   0  0  0  0  0  0  0  0  0  0  0  0
   16.5071    2.7854    0.0000 H   0  0  0  0  0  0  0  0  0  0  0  0
   11.2547    1.5479    0.0000 H   0  0  0  0  0  0  0  0  0  0  0  0
   15.0781    4.5804    0.0000 H   0  0  0  0  0  0  0  0  0  0  0  0
   13.6492    4.5804    0.0000 H   0  0  0  0  0  0  0  0  0  0  0  0
   12.6837    1.5479    0.0000 H   0  0  0  0  0  0  0  0  0  0  0  0
  1 30  1  0  0  0  0
  1 31  1  0  0  0  0
  1 32  1  0  0  0  0
  2  1  1  0  0  0  0
  2 33  1  0  0  0  0
  2 34  1  0  0  0  0
  3  2  1  0  0  0  0
  3 35  1  0  0  0  0
  3 36  1  0  0  0  0
  4  3  1  0  0  0  0
  4 37  1  0  0  0  0
  4 38  1  0  0  0  0
  5  4  1  0  0  0  0
  5 39  1  0  0  0  0
  5 40  1  0  0  0  0
  6  5  1  0  0  0  0
  6 41  1  0  0  0  0
  6 42  1  0  0  0  0
  7  6  1  0  0  0  0
  7 43  1  0  0  0  0
  7 44  1  0  0  0  0
  8  7  1  0  0  0  0
  8 45  1  0  0  0  0
  8 46  1  0  0  0  0
  9 47  1  0  0  0  0
  9 48  1  0  0  0  0
 10  9  1  0  0  0  0
 10 49  1  0  0  0  0
 10 50  1  0  0  0  0
 11 51  1  0  0  0  0
 11 52  1  0  0  0  0
 12 53  1  0  0  0  0
 12 54  1  0  0  0  0
 13 11  1  0  0  0  0
 13 21  1  0  0  0  0
 13 26  1  1  0  0  0
 14 12  1  0  0  0  0
 14 22  1  0  0  0  0
 14 27  1  6  0  0  0
 15  8  1  0  0  0  0
 16 13  1  0  0  0  0
 16 24  1  0  0  0  0
 16 28  1  6  0  0  0
 17 14  1  0  0  0  0
 17 16  1  0  0  0  0
 17 25  1  0  0  0  0
 17 29  1  1  0  0  0
 18  9  1  0  0  0  0
 18 11  1  0  0  0  0
 18 15  1  0  0  0  0
 19 10  1  0  0  0  0
 19 55  1  0  0  0  0
 20 12  1  0  0  0  0
 20 56  1  0  0  0  0
 21 57  1  0  0  0  0
 22 58  1  0  0  0  0
 23 15  2  0  0  0  0
 24 59  1  0  0  0  0
 25 60  1  0  0  0  0
M  END
>  <DRUGBANK_ID>
DB01970

>  <SECONDARY_ACCESSION_NUMBERS>
EXPT01736

>  <COMMON_NAME>
Hg9a-9, Nonanoyl-N-Hydroxyethylglucamide

$$$$
