
 OpenBabel10282417072D

 65 63  0  0  0  0  0  0  0  0999 V2000
   11.3365   -9.5098    0.0000 C   0  0  0  0  0  0  0  0  0  0  0  0
   12.0496   -9.9245    0.0000 C   0  0  0  0  0  0  0  0  0  0  0  0
   10.6234   -9.9245    0.0000 C   0  0  0  0  0  0  0  0  0  0  0  0
   12.7663   -9.5098    0.0000 C   0  0  0  0  0  0  0  0  0  0  0  0
    9.9066   -9.5098    0.0000 C   0  0  0  0  0  0  0  0  0  0  0  0
   13.5922   -9.5098    0.0000 C   0  0  0  0  0  0  0  0  0  0  0  0
    9.1972   -9.9245    0.0000 C   0  0  0  0  0  0  0  0  0  0  0  0
   14.3054   -9.9245    0.0000 C   0  0  0  0  0  0  0  0  0  0  0  0
    8.4839   -9.5098    0.0000 C   0  0  0  0  0  0  0  0  0  0  0  0
   15.0185   -9.5098    0.0000 C   0  0  0  0  0  0  0  0  0  0  0  0
    7.7709   -9.9245    0.0000 C   0  0  0  0  0  0  0  0  0  0  0  0
   15.7352   -9.9245    0.0000 C   0  0  0  0  0  0  0  0  0  0  0  0
    7.0578   -9.5098    0.0000 C   0  0  0  0  0  0  0  0  0  0  0  0
   16.4447   -9.5098    0.0000 C   0  0  0  0  0  0  0  0  0  0  0  0
    6.3446   -9.9245    0.0000 O   0  0  0  0  0  0  0  0  0  0  0  0
    7.0578   -8.6838    0.0000 O   0  0  0  0  0  0  0  0  0  0  0  0
   17.1579   -9.9245    0.0000 C   0  0  0  0  0  0  0  0  0  0  0  0
   17.8710   -9.5098    0.0000 C   0  0  0  0  0  0  0  0  0  0  0  0
   18.5840   -9.9245    0.0000 C   0  0  0  0  0  0  0  0  0  0  0  0
   19.2972   -9.5098    0.0000 C   0  0  0  0  0  0  0  0  0  0  0  0
    6.3956  -11.4158    0.0000 O   0  0  0  0  0  0  0  0  0  0  0  0
    7.1102  -11.0032    0.0000 C   0  0  0  0  0  0  0  0  0  0  0  0
    7.8249  -11.4158    0.0000 C   0  0  0  0  0  0  0  0  0  0  0  0
    8.5396  -11.0032    0.0000 N   0  0  0  0  0  0  0  0  0  0  0  0
   11.3365   -8.4398    0.0000 H   0  0  0  0  0  0  0  0  0  0  0  0
   10.4090   -8.9763    0.0000 H   0  0  0  0  0  0  0  0  0  0  0  0
   12.0484  -10.9945    0.0000 H   0  0  0  0  0  0  0  0  0  0  0  0
   12.9762  -10.4596    0.0000 H   0  0  0  0  0  0  0  0  0  0  0  0
   10.6246  -10.9945    0.0000 H   0  0  0  0  0  0  0  0  0  0  0  0
    9.6968  -10.4596    0.0000 H   0  0  0  0  0  0  0  0  0  0  0  0
   12.4987   -8.5131    0.0000 H   0  0  0  0  0  0  0  0  0  0  0  0
    9.9042   -8.4398    0.0000 H   0  0  0  0  0  0  0  0  0  0  0  0
    8.9779   -8.9784    0.0000 H   0  0  0  0  0  0  0  0  0  0  0  0
   13.8608   -8.5134    0.0000 H   0  0  0  0  0  0  0  0  0  0  0  0
    9.1985  -10.9945    0.0000 H   0  0  0  0  0  0  0  0  0  0  0  0
    8.2701  -10.4587    0.0000 H   0  0  0  0  0  0  0  0  0  0  0  0
   14.3054  -10.9945    0.0000 H   0  0  0  0  0  0  0  0  0  0  0  0
   15.2329  -10.4580    0.0000 H   0  0  0  0  0  0  0  0  0  0  0  0
    8.4838   -8.4398    0.0000 H   0  0  0  0  0  0  0  0  0  0  0  0
    7.5564   -8.9763    0.0000 H   0  0  0  0  0  0  0  0  0  0  0  0
   15.0173   -8.4398    0.0000 H   0  0  0  0  0  0  0  0  0  0  0  0
   15.9451   -8.9747    0.0000 H   0  0  0  0  0  0  0  0  0  0  0  0
    7.7709  -10.9945    0.0000 H   0  0  0  0  0  0  0  0  0  0  0  0
    6.8434  -10.4581    0.0000 H   0  0  0  0  0  0  0  0  0  0  0  0
   15.7375  -10.9945    0.0000 H   0  0  0  0  0  0  0  0  0  0  0  0
   16.6639  -10.4560    0.0000 H   0  0  0  0  0  0  0  0  0  0  0  0
   16.4435   -8.4398    0.0000 H   0  0  0  0  0  0  0  0  0  0  0  0
   17.3719   -8.9757    0.0000 H   0  0  0  0  0  0  0  0  0  0  0  0
    5.5317   -9.4585    0.0000 H   0  0  0  0  0  0  0  0  0  0  0  0
   17.1579  -10.9945    0.0000 H   0  0  0  0  0  0  0  0  0  0  0  0
   18.0854  -10.4580    0.0000 H   0  0  0  0  0  0  0  0  0  0  0  0
   17.8710   -8.4398    0.0000 H   0  0  0  0  0  0  0  0  0  0  0  0
   18.7985   -8.9763    0.0000 H   0  0  0  0  0  0  0  0  0  0  0  0
   18.5839  -10.9945    0.0000 H   0  0  0  0  0  0  0  0  0  0  0  0
   19.5115  -10.4581    0.0000 H   0  0  0  0  0  0  0  0  0  0  0  0
   20.2255  -10.0419    0.0000 H   0  0  0  0  0  0  0  0  0  0  0  0
   19.2939   -8.4398    0.0000 H   0  0  0  0  0  0  0  0  0  0  0  0
   20.2222   -8.9719    0.0000 H   0  0  0  0  0  0  0  0  0  0  0  0
    5.5555  -10.9308    0.0000 H   0  0  0  0  0  0  0  0  0  0  0  0
    7.1102   -9.9332    0.0000 H   0  0  0  0  0  0  0  0  0  0  0  0
    8.0368  -10.4682    0.0000 H   0  0  0  0  0  0  0  0  0  0  0  0
    7.8249  -12.4858    0.0000 H   0  0  0  0  0  0  0  0  0  0  0  0
    8.7515  -11.9508    0.0000 H   0  0  0  0  0  0  0  0  0  0  0  0
    9.4229  -11.5132    0.0000 H   0  0  0  0  0  0  0  0  0  0  0  0
    8.5396   -9.9832    0.0000 H   0  0  0  0  0  0  0  0  0  0  0  0
  1  2  1  0  0  0  0
  1  3  1  0  0  0  0
  1 25  1  0  0  0  0
  1 26  1  0  0  0  0
  2  4  1  0  0  0  0
  2 27  1  0  0  0  0
  2 28  1  0  0  0  0
  3  5  1  0  0  0  0
  3 29  1  0  0  0  0
  3 30  1  0  0  0  0
  4  6  2  0  0  0  0
  4 31  1  0  0  0  0
  5  7  1  0  0  0  0
  5 32  1  0  0  0  0
  5 33  1  0  0  0  0
  6  8  1  0  0  0  0
  6 34  1  0  0  0  0
  7  9  1  0  0  0  0
  7 35  1  0  0  0  0
  7 36  1  0  0  0  0
  8 10  1  0  0  0  0
  8 37  1  0  0  0  0
  8 38  1  0  0  0  0
  9 11  1  0  0  0  0
  9 39  1  0  0  0  0
  9 40  1  0  0  0  0
 10 12  1  0  0  0  0
 10 41  1  0  0  0  0
 10 42  1  0  0  0  0
 11 13  1  0  0  0  0
 11 43  1  0  0  0  0
 11 44  1  0  0  0  0
 12 14  1  0  0  0  0
 12 45  1  0  0  0  0
 12 46  1  0  0  0  0
 13 15  1  0  0  0  0
 13 16  2  0  0  0  0
 14 17  1  0  0  0  0
 14 47  1  0  0  0  0
 14 48  1  0  0  0  0
 15 49  1  0  0  0  0
 17 18  1  0  0  0  0
 17 50  1  0  0  0  0
 17 51  1  0  0  0  0
 18 19  1  0  0  0  0
 18 52  1  0  0  0  0
 18 53  1  0  0  0  0
 19 20  1  0  0  0  0
 19 54  1  0  0  0  0
 19 55  1  0  0  0  0
 20 56  1  0  0  0  0
 20 57  1  0  0  0  0
 20 58  1  0  0  0  0
 21 22  1  0  0  0  0
 21 59  1  0  0  0  0
 22 23  1  0  0  0  0
 22 60  1  0  0  0  0
 22 61  1  0  0  0  0
 23 24  1  0  0  0  0
 23 62  1  0  0  0  0
 23 63  1  0  0  0  0
 24 64  1  0  0  0  0
 24 65  1  0  0  0  0
M  END
>  <DRUGBANK_ID>
DB06689

>  <COMMON_NAME>
Ethanolamine oleate

>  <CAS_NUMBER>
2272-11-9

>  <UNII>
U4RY8MRX7C

>  <SYNONYMS>
Ethamolin; Ethanolamine oleate; Monoethanolamine oleate; Monoethanolamini oleas; Oldamin; Oleate de monoethanolamine; Oleato de monoetanolaminio

$$$$
