BOS
 OpenBabel10282417072D

 32 33  0  0  0  0  0  0  0  0999 V2000
   -0.0372    3.8255    0.0000 N   0  0  0  0  0  0  0  0  0  0  0  0
   -0.0372    3.0005    0.0000 S   0  0  0  0  0  0  0  0  0  0  0  0
   -0.8622    3.0005    0.0000 O   0  0  0  0  0  0  0  0  0  0  0  0
    0.7878    3.0005    0.0000 O   0  0  0  0  0  0  0  0  0  0  0  0
   -0.0372    2.1755    0.0000 C   0  0  0  0  0  0  0  0  0  0  0  0
    0.6772    1.7630    0.0000 C   0  0  0  0  0  0  0  0  0  0  0  0
    0.6772    0.9380    0.0000 C   0  0  0  0  0  0  0  0  0  0  0  0
   -0.0372    0.5255    0.0000 C   0  0  0  0  0  0  0  0  0  0  0  0
   -0.7517    0.9380    0.0000 C   0  0  0  0  0  0  0  0  0  0  0  0
   -0.7517    1.7630    0.0000 C   0  0  0  0  0  0  0  0  0  0  0  0
   -0.0372   -0.2995    0.0000 N   0  0  0  0  0  0  0  0  0  0  0  0
    0.6772   -0.7120    0.0000 C   0  0  0  0  0  0  0  0  0  0  0  0
    1.3917   -0.2995    0.0000 O   0  0  0  0  0  0  0  0  0  0  0  0
    0.6772   -1.5370    0.0000 C   0  0  0  0  0  0  0  0  0  0  0  0
    1.3917   -1.9495    0.0000 C   0  0  0  0  0  0  0  0  0  0  0  0
    1.3917   -2.7745    0.0000 C   0  0  0  0  0  0  0  0  0  0  0  0
    0.6772   -3.1870    0.0000 C   0  0  0  0  0  0  0  0  0  0  0  0
   -0.0372   -2.7745    0.0000 C   0  0  0  0  0  0  0  0  0  0  0  0
   -0.0372   -1.9495    0.0000 C   0  0  0  0  0  0  0  0  0  0  0  0
   -0.7517   -1.5370    0.0000 S   0  0  0  0  0  0  0  0  0  0  0  0
    0.8461    4.3355    0.0000 H   0  0  0  0  0  0  0  0  0  0  0  0
   -0.9205    4.3355    0.0000 H   0  0  0  0  0  0  0  0  0  0  0  0
    1.5709    2.2790    0.0000 H   0  0  0  0  0  0  0  0  0  0  0  0
    1.5709    0.4220    0.0000 H   0  0  0  0  0  0  0  0  0  0  0  0
   -1.6454    0.4220    0.0000 H   0  0  0  0  0  0  0  0  0  0  0  0
   -1.6454    2.2790    0.0000 H   0  0  0  0  0  0  0  0  0  0  0  0
   -0.8898   -0.7917    0.0000 H   0  0  0  0  0  0  0  0  0  0  0  0
    2.2854   -1.4335    0.0000 H   0  0  0  0  0  0  0  0  0  0  0  0
    2.2854   -3.2905    0.0000 H   0  0  0  0  0  0  0  0  0  0  0  0
    0.6772   -4.2190    0.0000 H   0  0  0  0  0  0  0  0  0  0  0  0
   -0.9309   -3.2905    0.0000 H   0  0  0  0  0  0  0  0  0  0  0  0
   -0.7517   -0.1770    0.0000 H   0  0  0  0  0  0  0  0  0  0  0  0
  1  2  1  0  0  0  0
  1 21  1  0  0  0  0
  1 22  1  0  0  0  0
  2  3  2  0  0  0  0
  2  4  2  0  0  0  0
  2  5  1  0  0  0  0
  5  6  2  0  0  0  0
  5 10  1  0  0  0  0
  6  7  1  0  0  0  0
  6 23  1  0  0  0  0
  7  8  2  0  0  0  0
  7 24  1  0  0  0  0
  8  9  1  0  0  0  0
  8 11  1  0  0  0  0
  9 10  2  0  0  0  0
  9 25  1  0  0  0  0
 10 26  1  0  0  0  0
 11 12  1  0  0  0  0
 11 27  1  0  0  0  0
 12 13  2  0  0  0  0
 12 14  1  0  0  0  0
 14 15  2  0  0  0  0
 14 19  1  0  0  0  0
 15 16  1  0  0  0  0
 15 28  1  0  0  0  0
 16 17  2  0  0  0  0
 16 29  1  0  0  0  0
 17 18  1  0  0  0  0
 17 30  1  0  0  0  0
 18 19  2  0  0  0  0
 18 31  1  0  0  0  0
 19 20  1  0  0  0  0
 20 32  1  0  0  0  0
M  END
>  <DRUGBANK_ID>
DB07476

>  <COMMON_NAME>
N-[4-(AMINOSULFONYL)PHENYL]-2-MERCAPTOBENZAMIDE

$$$$
