730
 OpenBabel10282417072D

 21 23  0  0  0  0  0  0  0  0999 V2000
    6.4356    0.2500    0.0000 S   0  0  0  0  0  0  0  0  0  0  0  0
    3.8596    0.5014    0.0000 N   0  0  0  0  0  0  0  0  0  0  0  0
    3.8596   -0.8265    0.0000 N   0  0  0  0  0  0  0  0  0  0  0  0
    5.6510   -0.8300    0.0000 N   0  0  0  0  0  0  0  0  0  0  0  0
    3.0790    0.2500    0.0000 C   0  0  0  0  0  0  0  0  0  0  0  0
    3.0790   -0.5750    0.0000 C   0  0  0  0  0  0  0  0  0  0  0  0
    4.3411   -0.1625    0.0000 C   0  0  0  0  0  0  0  0  0  0  0  0
    5.1661   -0.1625    0.0000 C   0  0  0  0  0  0  0  0  0  0  0  0
    2.3645    0.6625    0.0000 C   0  0  0  0  0  0  0  0  0  0  0  0
    2.3645   -0.9875    0.0000 C   0  0  0  0  0  0  0  0  0  0  0  0
    1.6500    0.2500    0.0000 C   0  0  0  0  0  0  0  0  0  0  0  0
    1.6500   -0.5750    0.0000 C   0  0  0  0  0  0  0  0  0  0  0  0
    5.6510    0.5049    0.0000 C   0  0  0  0  0  0  0  0  0  0  0  0
    6.4356   -0.5750    0.0000 C   0  0  0  0  0  0  0  0  0  0  0  0
    4.1654    1.4372    0.0000 H   0  0  0  0  0  0  0  0  0  0  0  0
    2.3645    1.6945    0.0000 H   0  0  0  0  0  0  0  0  0  0  0  0
    2.3645   -2.0195    0.0000 H   0  0  0  0  0  0  0  0  0  0  0  0
    0.7563    0.7660    0.0000 H   0  0  0  0  0  0  0  0  0  0  0  0
    0.7563   -1.0910    0.0000 H   0  0  0  0  0  0  0  0  0  0  0  0
    5.3321    1.4864    0.0000 H   0  0  0  0  0  0  0  0  0  0  0  0
    7.2705   -1.1816    0.0000 H   0  0  0  0  0  0  0  0  0  0  0  0
  1 13  1  0  0  0  0
  1 14  1  0  0  0  0
  2  5  1  0  0  0  0
  2  7  1  0  0  0  0
  2 15  1  0  0  0  0
  3  6  1  0  0  0  0
  3  7  2  0  0  0  0
  4  8  1  0  0  0  0
  4 14  2  0  0  0  0
  5  6  1  0  0  0  0
  5  9  2  0  0  0  0
  6 10  2  0  0  0  0
  7  8  1  0  0  0  0
  8 13  2  0  0  0  0
  9 11  1  0  0  0  0
  9 16  1  0  0  0  0
 10 12  1  0  0  0  0
 10 17  1  0  0  0  0
 11 12  2  0  0  0  0
 11 18  1  0  0  0  0
 12 19  1  0  0  0  0
 13 20  1  0  0  0  0
 14 21  1  0  0  0  0
M  END
>  <DRUGBANK_ID>
DB00730

>  <SECONDARY_ACCESSION_NUMBERS>
APRD01252; DB08630

>  <COMMON_NAME>
Thiabendazole

>  <CAS_NUMBER>
148-79-8

>  <UNII>
N1Q45E87DT

>  <SYNONYMS>
2-(1,3-thiazole-4-yl)-1H-benzimidazole; 2-(4-thiazolyl)-1H-benzimidazole; 2-(thiazol-4-yl)benzimidazole; 4-(2-benzimidazolyl)thiazole; TBDZ; Thiabendazole; Tiabendazol; Tiabendazole; Tiabendazolum

$$$$
