
 OpenBabel10282417072D

 27 28  0  0  0  0  0  0  0  0999 V2000
    1.0907    1.1736    0.0000 C   0  0  0  0  0  0  0  0  0  0  0  0
    0.3473    0.8156    0.0000 C   0  0  0  0  0  0  0  0  0  0  0  0
    0.1637    0.0114    0.0000 C   0  0  0  0  0  0  0  0  0  0  0  0
    0.6781   -0.6335    0.0000 C   0  0  2  0  0  0  0  0  0  0  0  0
    1.5031   -0.6335    0.0000 C   0  0  0  0  0  0  0  0  0  0  0  0
    2.0175    0.0114    0.0000 N   0  0  0  0  0  0  0  0  0  0  0  0
    1.8340    0.8156    0.0000 C   0  0  0  0  0  0  0  0  0  0  0  0
   -0.2573    1.3769    0.0000 C   0  0  0  0  0  0  0  0  0  0  0  0
   -1.0457    1.1336    0.0000 C   0  0  0  0  0  0  0  0  0  0  0  0
   -1.2292    0.3293    0.0000 C   0  0  0  0  0  0  0  0  0  0  0  0
   -0.6244   -0.2318    0.0000 C   0  0  0  0  0  0  0  0  0  0  0  0
    0.3202   -1.3769    0.0000 C   0  0  0  0  0  0  0  0  0  0  0  0
   -2.0176    0.0861    0.0000 Cl  0  0  0  0  0  0  0  0  0  0  0  0
    1.0907    2.2436    0.0000 H   0  0  0  0  0  0  0  0  0  0  0  0
    1.9967    1.7428    0.0000 H   0  0  0  0  0  0  0  0  0  0  0  0
   -0.3852   -0.7534    0.0000 H   0  0  0  0  0  0  0  0  0  0  0  0
    1.9673   -1.5976    0.0000 H   0  0  0  0  0  0  0  0  0  0  0  0
    2.5664   -0.7534    0.0000 H   0  0  0  0  0  0  0  0  0  0  0  0
    3.0119   -0.2157    0.0000 H   0  0  0  0  0  0  0  0  0  0  0  0
    2.6706    1.4827    0.0000 H   0  0  0  0  0  0  0  0  0  0  0  0
    2.8439    0.4621    0.0000 H   0  0  0  0  0  0  0  0  0  0  0  0
   -0.0276    2.3830    0.0000 H   0  0  0  0  0  0  0  0  0  0  0  0
   -1.8023    1.8355    0.0000 H   0  0  0  0  0  0  0  0  0  0  0  0
   -0.8539   -1.2379    0.0000 H   0  0  0  0  0  0  0  0  0  0  0  0
   -0.7468   -1.4570    0.0000 H   0  0  0  0  0  0  0  0  0  0  0  0
    0.9231   -2.2609    0.0000 H   0  0  0  0  0  0  0  0  0  0  0  0
   -0.1439   -2.3410    0.0000 H   0  0  0  0  0  0  0  0  0  0  0  0
  1  2  1  0  0  0  0
  1 14  1  0  0  0  0
  1 15  1  0  0  0  0
  2  8  2  0  0  0  0
  3  4  1  0  0  0  0
  3  2  1  0  0  0  0
  4  5  1  0  0  0  0
  4 12  1  0  0  0  0
  4 16  1  1  0  0  0
  5  6  1  0  0  0  0
  5 17  1  0  0  0  0
  5 18  1  0  0  0  0
  6  7  1  0  0  0  0
  6 19  1  0  0  0  0
  7  1  1  0  0  0  0
  7 20  1  0  0  0  0
  7 21  1  0  0  0  0
  8  9  1  0  0  0  0
  8 22  1  0  0  0  0
  9 10  2  0  0  0  0
  9 23  1  0  0  0  0
 10 11  1  0  0  0  0
 10 13  1  0  0  0  0
 11  3  2  0  0  0  0
 11 24  1  0  0  0  0
 12 25  1  0  0  0  0
 12 26  1  0  0  0  0
 12 27  1  0  0  0  0
M  END
>  <DRUGBANK_ID>
DB04871

>  <COMMON_NAME>
Lorcaserin

>  <CAS_NUMBER>
616202-92-7

>  <UNII>
637E494O0Z

>  <SYNONYMS>
Lorcaserin; Lorqess

$$$$
