
 OpenBabel10282417072D

 76 80  0  0  0  0  0  0  0  0999 V2000
   15.6785  -11.9918    0.0000 C   0  0  0  0  0  0  0  0  0  0  0  0
   14.9224  -12.3185    0.0000 C   0  0  0  0  0  0  0  0  0  0  0  0
   15.7388  -11.1649    0.0000 N   0  0  0  0  0  0  0  0  0  0  0  0
   16.4874  -12.3009    0.0000 C   0  0  0  0  0  0  0  0  0  0  0  0
   14.1490  -12.0064    0.0000 C   0  0  0  0  0  0  0  0  0  0  0  0
   16.5365  -10.9777    0.0000 C   0  0  0  0  0  0  0  0  0  0  0  0
   16.9770  -11.6728    0.0000 C   0  0  0  0  0  0  0  0  0  0  0  0
   13.4146  -12.3749    0.0000 C   0  0  0  0  0  0  0  0  0  0  0  0
   14.0173  -11.1865    0.0000 N   0  0  0  0  0  0  0  0  0  0  0  0
   16.8349  -10.2355    0.0000 C   0  0  0  0  0  0  0  0  0  0  0  0
   13.9569   -9.4122    0.0000 N   0  0  0  0  0  0  0  0  0  0  0  0
   12.8249  -11.8284    0.0000 C   0  0  0  0  0  0  0  0  0  0  0  0
   13.2085  -11.0554    0.0000 C   0  0  0  0  0  0  0  0  0  0  0  0
   16.5296   -9.4940    0.0000 C   0  0  0  0  0  0  0  0  0  0  0  0
   14.0596   -8.5923    0.0000 C   0  0  0  0  0  0  0  0  0  0  0  0
   13.1370   -9.5579    0.0000 C   0  0  0  0  0  0  0  0  0  0  0  0
   12.8784  -10.3244    0.0000 C   0  0  0  0  0  0  0  0  0  0  0  0
   16.9021   -8.7450    0.0000 C   0  0  0  0  0  0  0  0  0  0  0  0
   15.7132   -9.3657    0.0000 N   0  0  0  0  0  0  0  0  0  0  0  0
   13.3189   -8.2413    0.0000 C   0  0  0  0  0  0  0  0  0  0  0  0
   14.8088   -8.1921    0.0000 C   0  0  0  0  0  0  0  0  0  0  0  0
   12.7473   -8.8337    0.0000 C   0  0  0  0  0  0  0  0  0  0  0  0
   16.3132   -8.1734    0.0000 C   0  0  0  0  0  0  0  0  0  0  0  0
   15.5828   -8.5570    0.0000 C   0  0  0  0  0  0  0  0  0  0  0  0
   13.3077   -7.4035    0.0000 C   0  0  0  0  0  0  0  0  0  0  0  0
   11.9170   -8.8337    0.0000 C   0  0  0  0  0  0  0  0  0  0  0  0
   16.3062   -7.3396    0.0000 C   0  0  0  0  0  0  0  0  0  0  0  0
   14.0288   -6.9827    0.0000 C   0  0  0  0  0  0  0  0  0  0  0  0
   17.7255   -8.7315    0.0000 C   0  0  0  0  0  0  0  0  0  0  0  0
   16.5071  -13.1806    0.0000 C   0  0  0  0  0  0  0  0  0  0  0  0
   17.2162  -13.6353    0.0000 C   0  0  0  0  0  0  0  0  0  0  0  0
   17.1987  -14.5100    0.0000 C   0  0  0  0  0  0  0  0  0  0  0  0
   17.9496  -14.9647    0.0000 O   0  0  0  0  0  0  0  0  0  0  0  0
   16.4303  -14.9345    0.0000 O   0  0  0  0  0  0  0  0  0  0  0  0
   13.4193  -13.1955    0.0000 C   0  0  0  0  0  0  0  0  0  0  0  0
   12.6530  -13.5753    0.0000 C   0  0  0  0  0  0  0  0  0  0  0  0
   12.6578  -14.3958    0.0000 C   0  0  0  0  0  0  0  0  0  0  0  0
   11.8914  -14.7757    0.0000 O   0  0  0  0  0  0  0  0  0  0  0  0
   13.3082  -14.8365    0.0000 O   0  0  0  0  0  0  0  0  0  0  0  0
   11.9465  -11.8260    0.0000 C   0  0  0  0  0  0  0  0  0  0  0  0
   17.7762  -11.6687    0.0000 C   0  0  0  0  0  0  0  0  0  0  0  0
   18.1642   -9.4639    0.0000 C   0  0  0  0  0  0  0  0  0  0  0  0
   14.9349  -13.3504    0.0000 H   0  0  0  0  0  0  0  0  0  0  0  0
   14.9900  -10.5258    0.0000 H   0  0  0  0  0  0  0  0  0  0  0  0
   17.8669  -10.2312    0.0000 H   0  0  0  0  0  0  0  0  0  0  0  0
   14.6707  -10.0903    0.0000 H   0  0  0  0  0  0  0  0  0  0  0  0
   11.8477  -10.3753    0.0000 H   0  0  0  0  0  0  0  0  0  0  0  0
   14.7830   -7.1604    0.0000 H   0  0  0  0  0  0  0  0  0  0  0  0
   12.4094   -6.8956    0.0000 H   0  0  0  0  0  0  0  0  0  0  0  0
   11.3820   -7.9071    0.0000 H   0  0  0  0  0  0  0  0  0  0  0  0
   11.3820   -9.7603    0.0000 H   0  0  0  0  0  0  0  0  0  0  0  0
   10.8470   -8.8337    0.0000 H   0  0  0  0  0  0  0  0  0  0  0  0
   17.2283   -6.7968    0.0000 H   0  0  0  0  0  0  0  0  0  0  0  0
   15.3751   -6.8124    0.0000 H   0  0  0  0  0  0  0  0  0  0  0  0
   16.2972   -6.2696    0.0000 H   0  0  0  0  0  0  0  0  0  0  0  0
   14.9249   -7.4945    0.0000 H   0  0  0  0  0  0  0  0  0  0  0  0
   14.0240   -5.9507    0.0000 H   0  0  0  0  0  0  0  0  0  0  0  0
   18.2269   -7.8295    0.0000 H   0  0  0  0  0  0  0  0  0  0  0  0
   15.5740  -13.7043    0.0000 H   0  0  0  0  0  0  0  0  0  0  0  0
   16.4757  -14.2501    0.0000 H   0  0  0  0  0  0  0  0  0  0  0  0
   18.1601  -13.1314    0.0000 H   0  0  0  0  0  0  0  0  0  0  0  0
   18.1283  -14.1948    0.0000 H   0  0  0  0  0  0  0  0  0  0  0  0
   15.6278  -14.4508    0.0000 H   0  0  0  0  0  0  0  0  0  0  0  0
   14.3301  -13.7570    0.0000 H   0  0  0  0  0  0  0  0  0  0  0  0
   13.3699  -14.2644    0.0000 H   0  0  0  0  0  0  0  0  0  0  0  0
   11.7421  -13.0138    0.0000 H   0  0  0  0  0  0  0  0  0  0  0  0
   11.7203  -14.0996    0.0000 H   0  0  0  0  0  0  0  0  0  0  0  0
   11.1112  -14.2567    0.0000 H   0  0  0  0  0  0  0  0  0  0  0  0
   11.4140  -10.8979    0.0000 H   0  0  0  0  0  0  0  0  0  0  0  0
   11.4090  -12.7512    0.0000 H   0  0  0  0  0  0  0  0  0  0  0  0
   10.8765  -11.8231    0.0000 H   0  0  0  0  0  0  0  0  0  0  0  0
   18.3159  -12.5926    0.0000 H   0  0  0  0  0  0  0  0  0  0  0  0
   18.3064  -10.7393    0.0000 H   0  0  0  0  0  0  0  0  0  0  0  0
   18.8462  -11.6632    0.0000 H   0  0  0  0  0  0  0  0  0  0  0  0
   17.6626  -10.3658    0.0000 H   0  0  0  0  0  0  0  0  0  0  0  0
   19.1961   -9.4473    0.0000 H   0  0  0  0  0  0  0  0  0  0  0  0
  1  2  2  0  0  0  0
  1  3  1  0  0  0  0
  1  4  1  0  0  0  0
  2  5  1  0  0  0  0
  2 43  1  0  0  0  0
  3  6  1  0  0  0  0
  3 44  1  0  0  0  0
  4 30  1  0  0  0  0
  4  7  2  0  0  0  0
  5  8  1  0  0  0  0
  5  9  2  0  0  0  0
  6  7  1  0  0  0  0
  6 10  2  0  0  0  0
  7 41  1  0  0  0  0
  8 35  1  0  0  0  0
  8 12  2  0  0  0  0
  9 13  1  0  0  0  0
 10 14  1  0  0  0  0
 10 45  1  0  0  0  0
 11 15  1  0  0  0  0
 11 16  1  0  0  0  0
 11 46  1  0  0  0  0
 12 13  1  0  0  0  0
 12 40  1  0  0  0  0
 13 17  2  0  0  0  0
 14 18  1  0  0  0  0
 14 19  2  0  0  0  0
 15 20  2  0  0  0  0
 15 21  1  0  0  0  0
 16 22  2  0  0  0  0
 16 17  1  0  0  0  0
 17 47  1  0  0  0  0
 18 23  2  0  0  0  0
 18 29  1  0  0  0  0
 19 24  1  0  0  0  0
 20 25  1  0  0  0  0
 20 22  1  0  0  0  0
 21 24  2  0  0  0  0
 21 48  1  0  0  0  0
 22 26  1  0  0  0  0
 23 27  1  0  0  0  0
 23 24  1  0  0  0  0
 25 28  2  0  0  0  0
 25 49  1  0  0  0  0
 26 50  1  0  0  0  0
 26 51  1  0  0  0  0
 26 52  1  0  0  0  0
 27 53  1  0  0  0  0
 27 54  1  0  0  0  0
 27 55  1  0  0  0  0
 28 56  1  0  0  0  0
 28 57  1  0  0  0  0
 29 42  2  0  0  0  0
 29 58  1  0  0  0  0
 30 31  1  0  0  0  0
 30 59  1  0  0  0  0
 30 60  1  0  0  0  0
 31 32  1  0  0  0  0
 31 61  1  0  0  0  0
 31 62  1  0  0  0  0
 32 33  2  0  0  0  0
 32 34  1  0  0  0  0
 34 63  1  0  0  0  0
 35 36  1  0  0  0  0
 35 64  1  0  0  0  0
 35 65  1  0  0  0  0
 36 37  1  0  0  0  0
 36 66  1  0  0  0  0
 36 67  1  0  0  0  0
 37 38  1  0  0  0  0
 37 39  2  0  0  0  0
 38 68  1  0  0  0  0
 40 69  1  0  0  0  0
 40 70  1  0  0  0  0
 40 71  1  0  0  0  0
 41 72  1  0  0  0  0
 41 73  1  0  0  0  0
 41 74  1  0  0  0  0
 42 75  1  0  0  0  0
 42 76  1  0  0  0  0
M  END
>  <DRUGBANK_ID>
DB02285

>  <SECONDARY_ACCESSION_NUMBERS>
EXPT02636

>  <COMMON_NAME>
Protoporphyrin

>  <CAS_NUMBER>
553-12-8

>  <UNII>
C2K325S808

>  <SYNONYMS>
Protoporphyrin IX

$$$$
