870
 OpenBabel10282417072D

 45 48  0  0  0  0  0  0  0  0999 V2000
   -4.1495    2.4319    0.0000 C   0  0  0  0  0  0  0  0  0  0  0  0
   -3.7370    3.1464    0.0000 C   0  0  0  0  0  0  0  0  0  0  0  0
   -2.9120    3.1464    0.0000 C   0  0  0  0  0  0  0  0  0  0  0  0
   -2.4995    2.4319    0.0000 C   0  0  0  0  0  0  0  0  0  0  0  0
   -2.9120    1.7174    0.0000 C   0  0  0  0  0  0  0  0  0  0  0  0
   -3.7370    1.7174    0.0000 C   0  0  0  0  0  0  0  0  0  0  0  0
   -2.4995    1.0030    0.0000 S   0  0  0  0  0  0  0  0  0  0  0  0
   -3.2140    0.5905    0.0000 O   0  0  0  0  0  0  0  0  0  0  0  0
   -1.7850    1.4155    0.0000 O   0  0  0  0  0  0  0  0  0  0  0  0
   -2.0870    0.2885    0.0000 N   0  0  0  0  0  0  0  0  0  0  0  0
   -1.2620    0.2885    0.0000 C   0  0  0  0  0  0  0  0  0  0  0  0
   -0.7771    0.9559    0.0000 N   0  0  0  0  0  0  0  0  0  0  0  0
    0.0075    0.7010    0.0000 C   0  0  0  0  0  0  0  0  0  0  0  0
    0.7220    1.1135    0.0000 C   0  0  0  0  0  0  0  0  0  0  0  0
    1.4365    0.7010    0.0000 C   0  0  0  0  0  0  0  0  0  0  0  0
    1.4365   -0.1240    0.0000 C   0  0  0  0  0  0  0  0  0  0  0  0
    0.7220   -0.5365    0.0000 C   0  0  0  0  0  0  0  0  0  0  0  0
    0.0075   -0.1240    0.0000 C   0  0  0  0  0  0  0  0  0  0  0  0
   -0.7771   -0.3789    0.0000 O   0  0  0  0  0  0  0  0  0  0  0  0
   -2.4995    3.8608    0.0000 Cl  0  0  0  0  0  0  0  0  0  0  0  0
   -4.1495    1.0030    0.0000 Cl  0  0  0  0  0  0  0  0  0  0  0  0
    2.1510    1.1135    0.0000 O   0  0  0  0  0  0  0  0  0  0  0  0
    2.8654    0.7010    0.0000 C   0  0  0  0  0  0  0  0  0  0  0  0
    1.4365   -2.5990    0.0000 C   0  0  0  0  0  0  0  0  0  0  0  0
    0.7220   -3.0115    0.0000 C   0  0  0  0  0  0  0  0  0  0  0  0
    0.0075   -2.5990    0.0000 C   0  0  0  0  0  0  0  0  0  0  0  0
    0.0075   -1.7740    0.0000 C   0  0  0  0  0  0  0  0  0  0  0  0
    0.7220   -1.3615    0.0000 C   0  0  0  0  0  0  0  0  0  0  0  0
    1.4365   -1.7740    0.0000 C   0  0  0  0  0  0  0  0  0  0  0  0
   -0.7069   -3.0115    0.0000 N   0  0  0  0  0  0  0  0  0  0  0  0
   -5.1815    2.4319    0.0000 H   0  0  0  0  0  0  0  0  0  0  0  0
   -4.2530    4.0401    0.0000 H   0  0  0  0  0  0  0  0  0  0  0  0
   -1.4675    2.4319    0.0000 H   0  0  0  0  0  0  0  0  0  0  0  0
   -2.5793   -0.5641    0.0000 H   0  0  0  0  0  0  0  0  0  0  0  0
    0.7220    2.1455    0.0000 H   0  0  0  0  0  0  0  0  0  0  0  0
    2.3302   -0.6400    0.0000 H   0  0  0  0  0  0  0  0  0  0  0  0
    2.8654   -0.3690    0.0000 H   0  0  0  0  0  0  0  0  0  0  0  0
    3.7921    1.2360    0.0000 H   0  0  0  0  0  0  0  0  0  0  0  0
    3.7920    0.1660    0.0000 H   0  0  0  0  0  0  0  0  0  0  0  0
    2.3302   -3.1150    0.0000 H   0  0  0  0  0  0  0  0  0  0  0  0
    0.7220   -4.0435    0.0000 H   0  0  0  0  0  0  0  0  0  0  0  0
   -0.8862   -1.2580    0.0000 H   0  0  0  0  0  0  0  0  0  0  0  0
    2.3302   -1.2580    0.0000 H   0  0  0  0  0  0  0  0  0  0  0  0
   -1.5595   -2.5193    0.0000 H   0  0  0  0  0  0  0  0  0  0  0  0
   -0.7069   -3.9960    0.0000 H   0  0  0  0  0  0  0  0  0  0  0  0
  1  2  1  0  0  0  0
  1  6  2  0  0  0  0
  1 31  1  0  0  0  0
  2  3  2  0  0  0  0
  2 32  1  0  0  0  0
  3  4  1  0  0  0  0
  3 20  1  0  0  0  0
  4  5  2  0  0  0  0
  4 33  1  0  0  0  0
  5  6  1  0  0  0  0
  5  7  1  0  0  0  0
  6 21  1  0  0  0  0
  7  8  2  0  0  0  0
  7  9  2  0  0  0  0
  7 10  1  0  0  0  0
 10 11  1  0  0  0  0
 10 34  1  0  0  0  0
 11 12  2  0  0  0  0
 11 19  1  0  0  0  0
 12 13  1  0  0  0  0
 13 14  1  0  0  0  0
 13 18  2  0  0  0  0
 14 15  2  0  0  0  0
 14 35  1  0  0  0  0
 15 16  1  0  0  0  0
 15 22  1  0  0  0  0
 16 17  2  0  0  0  0
 16 36  1  0  0  0  0
 17 18  1  0  0  0  0
 17 28  1  0  0  0  0
 18 19  1  0  0  0  0
 22 23  1  0  0  0  0
 23 37  1  0  0  0  0
 23 38  1  0  0  0  0
 23 39  1  0  0  0  0
 24 25  1  0  0  0  0
 24 29  2  0  0  0  0
 24 40  1  0  0  0  0
 25 26  2  0  0  0  0
 25 41  1  0  0  0  0
 26 27  1  0  0  0  0
 26 30  1  0  0  0  0
 27 28  2  0  0  0  0
 27 42  1  0  0  0  0
 28 29  1  0  0  0  0
 29 43  1  0  0  0  0
 30 44  1  0  0  0  0
 30 45  1  0  0  0  0
M  END
>  <DRUGBANK_ID>
DB07270

>  <COMMON_NAME>
N-[7-(3-AMINOPHENYL)-5-METHOXY-1,3-BENZOXAZOL-2-YL]-2,5-DICHLOROBENZENESULFONAMIDE

$$$$
