
 OpenBabel10282417072D

 35 37  0  0  0  0  0  0  0  0999 V2000
   -3.5878    1.8627    0.0000 O   0  0  0  0  0  0  0  0  0  0  0  0
   -3.5878    1.0367    0.0000 C   0  0  0  0  0  0  0  0  0  0  0  0
   -4.3020    0.6238    0.0000 O   0  0  0  0  0  0  0  0  0  0  0  0
   -2.8651    0.6238    0.0000 C   0  0  0  0  0  0  0  0  0  0  0  0
   -2.8651   -0.2108    0.0000 C   0  0  0  0  0  0  0  0  0  0  0  0
   -2.1510   -0.6238    0.0000 C   0  0  0  0  0  0  0  0  0  0  0  0
   -1.4369   -0.2108    0.0000 C   0  0  0  0  0  0  0  0  0  0  0  0
   -1.4369    0.6238    0.0000 C   0  0  0  0  0  0  0  0  0  0  0  0
   -2.1510    1.0367    0.0000 C   0  0  0  0  0  0  0  0  0  0  0  0
   -0.7141   -0.6238    0.0000 N   0  0  0  0  0  0  0  0  0  0  0  0
    0.0000   -0.2108    0.0000 C   0  0  0  0  0  0  0  0  0  0  0  0
    0.7141   -0.6238    0.0000 C   0  0  0  0  0  0  0  0  0  0  0  0
    0.7141   -1.4498    0.0000 C   0  0  0  0  0  0  0  0  0  0  0  0
    1.4368   -1.8627    0.0000 N   0  0  0  0  0  0  0  0  0  0  0  0
    2.1509   -1.4498    0.0000 C   0  0  0  0  0  0  0  0  0  0  0  0
    2.1509   -0.6238    0.0000 C   0  0  0  0  0  0  0  0  0  0  0  0
    1.4368   -0.2108    0.0000 N   0  0  0  0  0  0  0  0  0  0  0  0
    2.8651   -0.2108    0.0000 C   0  0  0  0  0  0  0  0  0  0  0  0
    2.8651    0.6238    0.0000 O   0  0  0  0  0  0  0  0  0  0  0  0
    3.5878   -0.6238    0.0000 N   0  0  0  0  0  0  0  0  0  0  0  0
    3.5878   -1.4498    0.0000 C   0  0  0  0  0  0  0  0  0  0  0  0
    2.8651   -1.8627    0.0000 N   0  0  0  0  0  0  0  0  0  0  0  0
    4.3020   -1.8627    0.0000 N   0  0  0  0  0  0  0  0  0  0  0  0
   -2.7763    2.3312    0.0000 H   0  0  0  0  0  0  0  0  0  0  0  0
   -3.7590   -0.7265    0.0000 H   0  0  0  0  0  0  0  0  0  0  0  0
   -2.1510   -1.6558    0.0000 H   0  0  0  0  0  0  0  0  0  0  0  0
   -0.5430    1.1395    0.0000 H   0  0  0  0  0  0  0  0  0  0  0  0
   -2.1510    2.0687    0.0000 H   0  0  0  0  0  0  0  0  0  0  0  0
   -0.7115   -1.6083    0.0000 H   0  0  0  0  0  0  0  0  0  0  0  0
    0.0000    0.8592    0.0000 H   0  0  0  0  0  0  0  0  0  0  0  0
    0.9268    0.3239    0.0000 H   0  0  0  0  0  0  0  0  0  0  0  0
   -0.1785   -1.9678    0.0000 H   0  0  0  0  0  0  0  0  0  0  0  0
    4.4393   -0.1297    0.0000 H   0  0  0  0  0  0  0  0  0  0  0  0
    4.3014   -2.8472    0.0000 H   0  0  0  0  0  0  0  0  0  0  0  0
    5.1549   -1.3709    0.0000 H   0  0  0  0  0  0  0  0  0  0  0  0
  1  2  1  0  0  0  0
  1 24  1  0  0  0  0
  2  3  2  0  0  0  0
  2  4  1  0  0  0  0
  4  5  1  0  0  0  0
  4  9  2  0  0  0  0
  5  6  2  0  0  0  0
  5 25  1  0  0  0  0
  6  7  1  0  0  0  0
  6 26  1  0  0  0  0
  7  8  2  0  0  0  0
  7 10  1  0  0  0  0
  8  9  1  0  0  0  0
  8 27  1  0  0  0  0
  9 28  1  0  0  0  0
 10 11  1  0  0  0  0
 10 29  1  0  0  0  0
 11 12  1  0  0  0  0
 11 30  1  0  0  0  0
 11 31  1  0  0  0  0
 12 13  2  0  0  0  0
 12 17  1  0  0  0  0
 13 14  1  0  0  0  0
 13 32  1  0  0  0  0
 14 15  2  0  0  0  0
 15 16  1  0  0  0  0
 15 22  1  0  0  0  0
 16 17  2  0  0  0  0
 16 18  1  0  0  0  0
 18 19  2  0  0  0  0
 18 20  1  0  0  0  0
 20 21  1  0  0  0  0
 20 33  1  0  0  0  0
 21 22  2  0  0  0  0
 21 23  1  0  0  0  0
 23 34  1  0  0  0  0
 23 35  1  0  0  0  0
M  END
>  <DRUGBANK_ID>
DB04196

>  <SECONDARY_ACCESSION_NUMBERS>
EXPT02678

>  <COMMON_NAME>
Pteroic acid

>  <CAS_NUMBER>
119-24-4

>  <UNII>
8258W48TBZ

$$$$
