
 OpenBabel10282417072D

 72 76  0  0  0  0  0  0  0  0999 V2000
    6.0589   -3.7449    0.0000 C   0  0  0  0  0  0  0  0  0  0  0  0
    6.7734   -3.3324    0.0000 C   0  0  0  0  0  0  0  0  0  0  0  0
    7.4879   -3.7449    0.0000 N   0  0  0  0  0  0  0  0  0  0  0  0
    7.4879   -4.5699    0.0000 C   0  0  0  0  0  0  0  0  0  0  0  0
    6.7734   -4.9824    0.0000 C   0  0  0  0  0  0  0  0  0  0  0  0
    8.2023   -3.3324    0.0000 C   0  0  0  0  0  0  0  0  0  0  0  0
    8.9168   -3.7449    0.0000 C   0  0  0  0  0  0  0  0  0  0  0  0
    9.6313   -3.3324    0.0000 N   0  0  0  0  0  0  0  0  0  0  0  0
   10.3458   -3.7449    0.0000 C   0  0  0  0  0  0  0  0  0  0  0  0
   10.3458   -4.5699    0.0000 O   0  0  0  0  0  0  0  0  0  0  0  0
   11.0602   -3.3324    0.0000 C   0  0  0  0  0  0  0  0  0  0  0  0
   11.1465   -2.5119    0.0000 C   0  0  0  0  0  0  0  0  0  0  0  0
   10.5334   -1.9599    0.0000 C   0  0  0  0  0  0  0  0  0  0  0  0
   11.9534   -2.3404    0.0000 N   0  0  0  0  0  0  0  0  0  0  0  0
   12.3659   -3.0548    0.0000 C   0  0  0  0  0  0  0  0  0  0  0  0
   13.1864   -3.1411    0.0000 C   0  0  0  0  0  0  0  0  0  0  0  0
   13.6713   -2.4736    0.0000 C   0  0  0  0  0  0  0  0  0  0  0  0
   13.4164   -1.6890    0.0000 C   0  0  0  0  0  0  0  0  0  0  0  0
   12.6318   -1.4341    0.0000 O   0  0  0  0  0  0  0  0  0  0  0  0
   14.0838   -1.2041    0.0000 N   0  0  0  0  0  0  0  0  0  0  0  0
   14.7513   -1.6890    0.0000 C   0  0  0  0  0  0  0  0  0  0  0  0
   15.5582   -1.5175    0.0000 C   0  0  0  0  0  0  0  0  0  0  0  0
   16.1103   -2.1306    0.0000 C   0  0  0  0  0  0  0  0  0  0  0  0
   15.8553   -2.9152    0.0000 C   0  0  0  0  0  0  0  0  0  0  0  0
   15.0484   -3.0867    0.0000 C   0  0  0  0  0  0  0  0  0  0  0  0
   14.4963   -2.4736    0.0000 C   0  0  0  0  0  0  0  0  0  0  0  0
   16.4074   -3.5283    0.0000 C   0  0  0  0  0  0  0  0  0  0  0  0
   17.2279   -3.4420    0.0000 C   0  0  0  0  0  0  0  0  0  0  0  0
   17.5634   -4.1957    0.0000 S   0  0  0  0  0  0  0  0  0  0  0  0
   16.9503   -4.7478    0.0000 C   0  0  0  0  0  0  0  0  0  0  0  0
   16.2358   -4.3353    0.0000 N   0  0  0  0  0  0  0  0  0  0  0  0
   17.0366   -5.5682    0.0000 C   0  0  0  0  0  0  0  0  0  0  0  0
   17.7902   -5.9038    0.0000 C   0  0  0  0  0  0  0  0  0  0  0  0
   17.8765   -6.7243    0.0000 C   0  0  0  0  0  0  0  0  0  0  0  0
   17.2090   -7.2092    0.0000 C   0  0  0  0  0  0  0  0  0  0  0  0
   16.4554   -6.8736    0.0000 C   0  0  0  0  0  0  0  0  0  0  0  0
   16.3691   -6.0532    0.0000 C   0  0  0  0  0  0  0  0  0  0  0  0
   11.8139   -3.6679    0.0000 C   0  0  0  0  0  0  0  0  0  0  0  0
   11.9854   -4.4749    0.0000 C   0  0  0  0  0  0  0  0  0  0  0  0
    5.1323   -3.2099    0.0000 H   0  0  0  0  0  0  0  0  0  0  0  0
    6.0589   -4.8149    0.0000 H   0  0  0  0  0  0  0  0  0  0  0  0
    5.1322   -4.2799    0.0000 H   0  0  0  0  0  0  0  0  0  0  0  0
    6.7734   -2.2624    0.0000 H   0  0  0  0  0  0  0  0  0  0  0  0
    7.7000   -2.7974    0.0000 H   0  0  0  0  0  0  0  0  0  0  0  0
    8.4145   -5.1049    0.0000 H   0  0  0  0  0  0  0  0  0  0  0  0
    7.4879   -5.6399    0.0000 H   0  0  0  0  0  0  0  0  0  0  0  0
    5.8468   -4.4474    0.0000 H   0  0  0  0  0  0  0  0  0  0  0  0
    6.7734   -6.0524    0.0000 H   0  0  0  0  0  0  0  0  0  0  0  0
    5.8467   -5.5174    0.0000 H   0  0  0  0  0  0  0  0  0  0  0  0
    8.2023   -2.2624    0.0000 H   0  0  0  0  0  0  0  0  0  0  0  0
    9.1289   -2.7974    0.0000 H   0  0  0  0  0  0  0  0  0  0  0  0
    8.9168   -4.8149    0.0000 H   0  0  0  0  0  0  0  0  0  0  0  0
    9.8434   -4.2799    0.0000 H   0  0  0  0  0  0  0  0  0  0  0  0
    9.6313   -2.3479    0.0000 H   0  0  0  0  0  0  0  0  0  0  0  0
   10.7558   -0.9133    0.0000 H   0  0  0  0  0  0  0  0  0  0  0  0
    9.5158   -2.2906    0.0000 H   0  0  0  0  0  0  0  0  0  0  0  0
    9.7382   -1.2440    0.0000 H   0  0  0  0  0  0  0  0  0  0  0  0
   12.3538   -1.4410    0.0000 H   0  0  0  0  0  0  0  0  0  0  0  0
   13.6061   -4.0839    0.0000 H   0  0  0  0  0  0  0  0  0  0  0  0
   14.0838   -0.2196    0.0000 H   0  0  0  0  0  0  0  0  0  0  0  0
   15.8771   -0.5360    0.0000 H   0  0  0  0  0  0  0  0  0  0  0  0
   17.1198   -1.9160    0.0000 H   0  0  0  0  0  0  0  0  0  0  0  0
   14.7295   -4.0682    0.0000 H   0  0  0  0  0  0  0  0  0  0  0  0
   17.7439   -2.5483    0.0000 H   0  0  0  0  0  0  0  0  0  0  0  0
   18.6251   -5.2972    0.0000 H   0  0  0  0  0  0  0  0  0  0  0  0
   18.8193   -7.1440    0.0000 H   0  0  0  0  0  0  0  0  0  0  0  0
   17.3168   -8.2356    0.0000 H   0  0  0  0  0  0  0  0  0  0  0  0
   15.6205   -7.4802    0.0000 H   0  0  0  0  0  0  0  0  0  0  0  0
   15.4263   -5.6335    0.0000 H   0  0  0  0  0  0  0  0  0  0  0  0
   11.1902   -5.1908    0.0000 H   0  0  0  0  0  0  0  0  0  0  0  0
   13.0030   -4.8056    0.0000 H   0  0  0  0  0  0  0  0  0  0  0  0
   12.2078   -5.5215    0.0000 H   0  0  0  0  0  0  0  0  0  0  0  0
  1  2  1  0  0  0  0
  1 40  1  0  0  0  0
  1 41  1  0  0  0  0
  1 42  1  0  0  0  0
  2  3  1  0  0  0  0
  2 43  1  0  0  0  0
  2 44  1  0  0  0  0
  3  4  1  0  0  0  0
  3  6  1  0  0  0  0
  4  5  1  0  0  0  0
  4 45  1  0  0  0  0
  4 46  1  0  0  0  0
  5 47  1  0  0  0  0
  5 48  1  0  0  0  0
  5 49  1  0  0  0  0
  6  7  1  0  0  0  0
  6 50  1  0  0  0  0
  6 51  1  0  0  0  0
  7  8  1  0  0  0  0
  7 52  1  0  0  0  0
  7 53  1  0  0  0  0
  8  9  1  0  0  0  0
  8 54  1  0  0  0  0
  9 10  2  0  0  0  0
  9 11  1  0  0  0  0
 11 12  2  0  0  0  0
 11 38  1  0  0  0  0
 12 13  1  0  0  0  0
 12 14  1  0  0  0  0
 13 55  1  0  0  0  0
 13 56  1  0  0  0  0
 13 57  1  0  0  0  0
 14 15  1  0  0  0  0
 14 58  1  0  0  0  0
 15 16  1  0  0  0  0
 15 38  2  0  0  0  0
 16 17  2  0  0  0  0
 16 59  1  0  0  0  0
 17 18  1  0  0  0  0
 17 26  1  0  0  0  0
 18 19  2  0  0  0  0
 18 20  1  0  0  0  0
 20 21  1  0  0  0  0
 20 60  1  0  0  0  0
 21 22  2  0  0  0  0
 21 26  1  0  0  0  0
 22 23  1  0  0  0  0
 22 61  1  0  0  0  0
 23 24  2  0  0  0  0
 23 62  1  0  0  0  0
 24 25  1  0  0  0  0
 24 27  1  0  0  0  0
 25 26  2  0  0  0  0
 25 63  1  0  0  0  0
 27 28  2  0  0  0  0
 27 31  1  0  0  0  0
 28 29  1  0  0  0  0
 28 64  1  0  0  0  0
 29 30  1  0  0  0  0
 30 31  2  0  0  0  0
 30 32  1  0  0  0  0
 32 33  2  0  0  0  0
 32 37  1  0  0  0  0
 33 34  1  0  0  0  0
 33 65  1  0  0  0  0
 34 35  2  0  0  0  0
 34 66  1  0  0  0  0
 35 36  1  0  0  0  0
 35 67  1  0  0  0  0
 36 37  2  0  0  0  0
 36 68  1  0  0  0  0
 37 69  1  0  0  0  0
 38 39  1  0  0  0  0
 39 70  1  0  0  0  0
 39 71  1  0  0  0  0
 39 72  1  0  0  0  0
M  END
>  <DRUGBANK_ID>
DB14866

>  <COMMON_NAME>
Amcasertib

>  <CAS_NUMBER>
1129403-56-0

>  <UNII>
GLY8ABW25V

>  <SYNONYMS>
Amcasertib

$$$$
