
 OpenBabel10282417072D

 42 42  0  0  0  0  0  0  0  0999 V2000
   -1.3246   -1.6195    0.0000 C   0  0  0  0  0  0  0  0  0  0  0  0
   -0.5793   -1.2055    0.0000 S   0  0  0  0  0  0  0  0  0  0  0  0
    0.1246   -1.6195    0.0000 C   0  0  0  0  0  0  0  0  0  0  0  0
    0.8284   -1.2055    0.0000 C   0  0  0  0  0  0  0  0  0  0  0  0
    1.5737   -1.6195    0.0000 N   0  0  0  0  0  0  0  0  0  0  0  0
    2.2777   -1.2055    0.0000 C   0  0  0  0  0  0  0  0  0  0  0  0
   -2.0285   -1.2055    0.0000 C   0  0  0  0  0  0  0  0  0  0  0  0
   -2.0285   -0.3773    0.0000 N   0  0  0  0  0  0  0  0  0  0  0  0
   -2.8152   -0.1289    0.0000 C   0  0  0  0  0  0  0  0  0  0  0  0
   -3.3121   -0.7914    0.0000 S   0  0  0  0  0  0  0  0  0  0  0  0
   -2.8152   -1.4538    0.0000 C   0  0  0  0  0  0  0  0  0  0  0  0
   -3.0636    0.6578    0.0000 C   0  0  0  0  0  0  0  0  0  0  0  0
    3.0231   -1.6195    0.0000 C   0  0  0  0  0  0  0  0  0  0  0  0
   -3.8722    0.8366    0.0000 N   0  0  0  0  0  0  0  0  0  0  0  0
   -4.4468    0.2089    0.0000 C   0  0  0  0  0  0  0  0  0  0  0  0
   -4.1198    1.6195    0.0000 C   0  0  0  0  0  0  0  0  0  0  0  0
    3.7332   -1.1937    0.0000 N   0  3  0  0  0  0  0  0  0  0  0  0
    3.7197   -0.3656    0.0000 O   0  0  0  0  0  0  0  0  0  0  0  0
    4.4468   -1.5903    0.0000 O   0  5  0  0  0  0  0  0  0  0  0  0
    2.3091   -0.3880    0.0000 N   0  0  0  0  0  0  0  0  0  0  0  0
    1.5947    0.0621    0.0000 C   0  0  0  0  0  0  0  0  0  0  0  0
   -1.3378   -2.6894    0.0000 H   0  0  0  0  0  0  0  0  0  0  0  0
   -2.2566   -2.1450    0.0000 H   0  0  0  0  0  0  0  0  0  0  0  0
    0.1246   -2.6895    0.0000 H   0  0  0  0  0  0  0  0  0  0  0  0
    1.0534   -2.1507    0.0000 H   0  0  0  0  0  0  0  0  0  0  0  0
    0.8152   -0.1356    0.0000 H   0  0  0  0  0  0  0  0  0  0  0  0
    1.7472   -0.6572    0.0000 H   0  0  0  0  0  0  0  0  0  0  0  0
    1.5858   -2.6039    0.0000 H   0  0  0  0  0  0  0  0  0  0  0  0
   -3.1307   -2.4364    0.0000 H   0  0  0  0  0  0  0  0  0  0  0  0
   -2.3411    1.4470    0.0000 H   0  0  0  0  0  0  0  0  0  0  0  0
   -3.3859    1.6781    0.0000 H   0  0  0  0  0  0  0  0  0  0  0  0
    3.0402   -2.6514    0.0000 H   0  0  0  0  0  0  0  0  0  0  0  0
   -5.4916    0.4400    0.0000 H   0  0  0  0  0  0  0  0  0  0  0  0
   -4.1245   -0.8114    0.0000 H   0  0  0  0  0  0  0  0  0  0  0  0
   -5.1693   -0.5804    0.0000 H   0  0  0  0  0  0  0  0  0  0  0  0
   -3.3976    2.4090    0.0000 H   0  0  0  0  0  0  0  0  0  0  0  0
   -5.1646    1.8502    0.0000 H   0  0  0  0  0  0  0  0  0  0  0  0
   -4.4424    2.6397    0.0000 H   0  0  0  0  0  0  0  0  0  0  0  0
    3.1800    0.0711    0.0000 H   0  0  0  0  0  0  0  0  0  0  0  0
    1.6360    1.1313    0.0000 H   0  0  0  0  0  0  0  0  0  0  0  0
    0.6481   -0.4367    0.0000 H   0  0  0  0  0  0  0  0  0  0  0  0
    0.6894    0.6325    0.0000 H   0  0  0  0  0  0  0  0  0  0  0  0
  1  2  1  0  0  0  0
  1  7  1  0  0  0  0
  1 22  1  0  0  0  0
  1 23  1  0  0  0  0
  2  3  1  0  0  0  0
  3  4  1  0  0  0  0
  3 24  1  0  0  0  0
  3 25  1  0  0  0  0
  4  5  1  0  0  0  0
  4 26  1  0  0  0  0
  4 27  1  0  0  0  0
  5  6  1  0  0  0  0
  5 28  1  0  0  0  0
  6 13  2  3  0  0  0
  6 20  1  0  0  0  0
  7  8  1  0  0  0  0
  7 11  2  0  0  0  0
  8  9  2  0  0  0  0
  9 10  1  0  0  0  0
  9 12  1  0  0  0  0
 10 11  1  0  0  0  0
 11 29  1  0  0  0  0
 12 14  1  0  0  0  0
 12 30  1  0  0  0  0
 12 31  1  0  0  0  0
 13 17  1  0  0  0  0
 13 32  1  0  0  0  0
 14 15  1  0  0  0  0
 14 16  1  0  0  0  0
 15 33  1  0  0  0  0
 15 34  1  0  0  0  0
 15 35  1  0  0  0  0
 16 36  1  0  0  0  0
 16 37  1  0  0  0  0
 16 38  1  0  0  0  0
 17 18  2  0  0  0  0
 17 19  1  0  0  0  0
 20 21  1  0  0  0  0
 20 39  1  0  0  0  0
 21 40  1  0  0  0  0
 21 41  1  0  0  0  0
 21 42  1  0  0  0  0
M  CHG  2  17   1  19  -1
M  END
>  <DRUGBANK_ID>
DB00585

>  <SECONDARY_ACCESSION_NUMBERS>
APRD00706

>  <COMMON_NAME>
Nizatidine

>  <CAS_NUMBER>
76963-41-2

>  <UNII>
P41PML4GHR

>  <SYNONYMS>
N-(4-(6-Methylamino-7-nitro-2-thia-5-aza-6-hepten-1-yl)-2-thiazolylmethyl)-N,N-dimethylamine; Nizatidina; Nizatidine; Nizatidinum

$$$$
