
 OpenBabel10282417072D

 50 52  0  0  0  0  0  0  0  0999 V2000
   -1.4078    0.0067    0.0000 C   0  0  0  0  0  0  0  0  0  0  0  0
   -1.8253    0.6847    0.0000 C   0  0  0  0  0  0  0  0  0  0  0  0
   -2.1158   -0.4108    0.0000 C   0  0  0  0  0  0  0  0  0  0  0  0
   -0.5994    0.0067    0.0000 C   0  0  0  0  0  0  0  0  0  0  0  0
   -1.0637   -0.7380    0.0000 O   0  0  0  0  0  0  0  0  0  0  0  0
   -2.6603    0.6780    0.0000 C   0  0  0  0  0  0  0  0  0  0  0  0
   -1.4078    1.4095    0.0000 C   0  0  0  0  0  0  0  0  0  0  0  0
   -2.8406   -0.0233    0.0000 C   0  0  0  0  0  0  0  0  0  0  0  0
   -2.1125   -1.2525    0.0000 C   0  0  0  0  0  0  0  0  0  0  0  0
   -0.1754   -0.6880    0.0000 O   0  0  0  0  0  0  0  0  0  0  0  0
   -0.1754    0.6780    0.0000 O   0  0  0  0  0  0  0  0  0  0  0  0
   -3.0811    1.3928    0.0000 C   0  0  0  0  0  0  0  0  0  0  0  0
   -1.8587    2.1309    0.0000 C   0  0  0  0  0  0  0  0  0  0  0  0
   -3.5387   -0.4174    0.0000 C   0  0  0  0  0  0  0  0  0  0  0  0
   -2.8273   -1.6566    0.0000 C   0  0  0  0  0  0  0  0  0  0  0  0
    0.6328   -0.6780    0.0000 C   0  0  0  0  0  0  0  0  0  0  0  0
   -2.6803    2.1209    0.0000 C   0  0  0  0  0  0  0  0  0  0  0  0
   -3.5387   -1.2424    0.0000 C   0  0  0  0  0  0  0  0  0  0  0  0
    1.0471   -1.4027    0.0000 C   0  0  0  0  0  0  0  0  0  0  0  0
    1.8720   -1.4027    0.0000 N   0  0  0  0  0  0  0  0  0  0  0  0
    2.2962   -2.1309    0.0000 C   0  0  0  0  0  0  0  0  0  0  0  0
    2.2796   -0.6880    0.0000 C   0  0  0  0  0  0  0  0  0  0  0  0
    3.1312   -2.1242    0.0000 C   0  0  0  0  0  0  0  0  0  0  0  0
    3.1179   -0.6880    0.0000 C   0  0  0  0  0  0  0  0  0  0  0  0
    3.5387   -1.4161    0.0000 C   0  0  0  0  0  0  0  0  0  0  0  0
   -1.6228   -1.5306    0.0000 H   0  0  0  0  0  0  0  0  0  0  0  0
   -3.1689   -0.2200    0.0000 H   0  0  0  0  0  0  0  0  0  0  0  0
   -0.3760    1.4281    0.0000 H   0  0  0  0  0  0  0  0  0  0  0  0
   -2.8524    1.0086    0.0000 H   0  0  0  0  0  0  0  0  0  0  0  0
   -1.2201   -1.7708    0.0000 H   0  0  0  0  0  0  0  0  0  0  0  0
   -4.1130    1.3779    0.0000 H   0  0  0  0  0  0  0  0  0  0  0  0
   -1.3639    3.0366    0.0000 H   0  0  0  0  0  0  0  0  0  0  0  0
   -4.4299    0.1029    0.0000 H   0  0  0  0  0  0  0  0  0  0  0  0
   -2.8339   -2.6886    0.0000 H   0  0  0  0  0  0  0  0  0  0  0  0
    1.1640    0.2508    0.0000 H   0  0  0  0  0  0  0  0  0  0  0  0
    1.7028   -0.6781    0.0000 H   0  0  0  0  0  0  0  0  0  0  0  0
   -3.2108    3.0061    0.0000 H   0  0  0  0  0  0  0  0  0  0  0  0
   -4.4334   -1.7568    0.0000 H   0  0  0  0  0  0  0  0  0  0  0  0
    0.5101   -2.3282    0.0000 H   0  0  0  0  0  0  0  0  0  0  0  0
    1.5811   -2.3299    0.0000 H   0  0  0  0  0  0  0  0  0  0  0  0
    1.7667   -3.0607    0.0000 H   0  0  0  0  0  0  0  0  0  0  0  0
    2.8377   -3.0538    0.0000 H   0  0  0  0  0  0  0  0  0  0  0  0
    1.7421    0.2372    0.0000 H   0  0  0  0  0  0  0  0  0  0  0  0
    2.8134    0.2394    0.0000 H   0  0  0  0  0  0  0  0  0  0  0  0
    3.6706   -3.0483    0.0000 H   0  0  0  0  0  0  0  0  0  0  0  0
    4.2012   -2.1209    0.0000 H   0  0  0  0  0  0  0  0  0  0  0  0
    3.6527    0.2388    0.0000 H   0  0  0  0  0  0  0  0  0  0  0  0
    4.1879   -0.6876    0.0000 H   0  0  0  0  0  0  0  0  0  0  0  0
    4.6087   -1.4151    0.0000 H   0  0  0  0  0  0  0  0  0  0  0  0
    4.0731   -0.4891    0.0000 H   0  0  0  0  0  0  0  0  0  0  0  0
  1  2  1  0  0  0  0
  1  3  1  0  0  0  0
  1  4  1  0  0  0  0
  1  5  1  0  0  0  0
  2  6  1  0  0  0  0
  2  7  2  0  0  0  0
  3  8  2  0  0  0  0
  3  9  1  0  0  0  0
  4 10  1  0  0  0  0
  4 11  2  0  0  0  0
  5 26  1  0  0  0  0
  6 12  2  0  0  0  0
  6 27  1  0  0  0  0
  7 13  1  0  0  0  0
  7 28  1  0  0  0  0
  8 14  1  0  0  0  0
  8 29  1  0  0  0  0
  9 15  2  0  0  0  0
  9 30  1  0  0  0  0
 10 16  1  0  0  0  0
 12 17  1  0  0  0  0
 12 31  1  0  0  0  0
 13 17  2  0  0  0  0
 13 32  1  0  0  0  0
 14 18  2  0  0  0  0
 14 33  1  0  0  0  0
 15 18  1  0  0  0  0
 15 34  1  0  0  0  0
 16 19  1  0  0  0  0
 16 35  1  0  0  0  0
 16 36  1  0  0  0  0
 17 37  1  0  0  0  0
 18 38  1  0  0  0  0
 19 20  1  0  0  0  0
 19 39  1  0  0  0  0
 19 40  1  0  0  0  0
 20 21  1  0  0  0  0
 20 22  1  0  0  0  0
 21 23  1  0  0  0  0
 21 41  1  0  0  0  0
 21 42  1  0  0  0  0
 22 24  1  0  0  0  0
 22 43  1  0  0  0  0
 22 44  1  0  0  0  0
 23 25  1  0  0  0  0
 23 45  1  0  0  0  0
 23 46  1  0  0  0  0
 24 25  1  0  0  0  0
 24 47  1  0  0  0  0
 24 48  1  0  0  0  0
 25 49  1  0  0  0  0
 25 50  1  0  0  0  0
M  END
>  <DRUGBANK_ID>
DB15888

>  <COMMON_NAME>
Pipethanate

>  <CAS_NUMBER>
4546-39-8

>  <UNII>
P32MG14U83

>  <SYNONYMS>
Piperilate; Pipetanato; Pipethanate; Pipethanatum

$$$$
