
 OpenBabel10282417072D

133135  0  0  0  0  0  0  0  0999 V2000
    1.3187    1.8440    0.0000 N   0  0  0  0  0  0  0  0  0  0  0  0
    1.3352    1.0191    0.0000 C   0  0  1  0  0  0  0  0  0  0  0  0
    2.0578    0.6210    0.0000 C   0  0  0  0  0  0  0  0  0  0  0  0
    2.0743   -0.2039    0.0000 C   0  0  0  0  0  0  0  0  0  0  0  0
    1.3682   -0.6306    0.0000 C   0  0  0  0  0  0  0  0  0  0  0  0
    1.3847   -1.4554    0.0000 C   0  0  0  0  0  0  0  0  0  0  0  0
    2.1073   -1.8536    0.0000 C   0  0  0  0  0  0  0  0  0  0  0  0
    2.1238   -2.6785    0.0000 O   0  0  0  0  0  0  0  0  0  0  0  0
    2.8134   -1.4269    0.0000 C   0  0  0  0  0  0  0  0  0  0  0  0
    2.7969   -0.6020    0.0000 C   0  0  0  0  0  0  0  0  0  0  0  0
    0.6291    0.5924    0.0000 C   0  0  0  0  0  0  0  0  0  0  0  0
    0.6456   -0.2324    0.0000 O   0  0  0  0  0  0  0  0  0  0  0  0
   -0.0934    0.9905    0.0000 N   0  0  0  0  0  0  0  0  0  0  0  0
   -0.7995    0.5638    0.0000 C   0  0  2  0  0  0  0  0  0  0  0  0
   -0.7830   -0.2610    0.0000 C   0  0  0  0  0  0  0  0  0  0  0  0
   -1.4891   -0.6877    0.0000 N   0  0  0  0  0  0  0  0  0  0  0  0
   -1.4726   -1.5126    0.0000 C   0  0  2  0  0  0  0  0  0  0  0  0
   -2.1788   -1.9393    0.0000 C   0  0  0  0  0  0  0  0  0  0  0  0
   -2.1623   -2.7642    0.0000 O   0  0  0  0  0  0  0  0  0  0  0  0
   -2.9014   -1.5412    0.0000 N   0  0  0  0  0  0  0  0  0  0  0  0
   -3.6482   -1.8917    0.0000 C   0  0  2  0  0  0  0  0  0  0  0  0
   -3.8036   -2.7020    0.0000 C   0  0  0  0  0  0  0  0  0  0  0  0
   -4.5830   -2.9726    0.0000 N   0  0  0  0  0  0  0  0  0  0  0  0
   -5.2071   -2.4330    0.0000 C   0  0  1  0  0  0  0  0  0  0  0  0
   -5.9865   -2.7036    0.0000 C   0  0  0  0  0  0  0  0  0  0  0  0
   -6.6105   -2.1639    0.0000 O   0  0  0  0  0  0  0  0  0  0  0  0
   -6.1418   -3.5138    0.0000 O   0  0  0  0  0  0  0  0  0  0  0  0
   -5.0517   -1.6227    0.0000 C   0  0  0  0  0  0  0  0  0  0  0  0
   -3.1796   -3.2417    0.0000 O   0  0  0  0  0  0  0  0  0  0  0  0
   -4.2124   -1.2898    0.0000 C   0  0  0  0  0  0  0  0  0  0  0  0
   -3.8144   -0.5672    0.0000 C   0  0  0  0  0  0  0  0  0  0  0  0
   -3.0040   -0.7225    0.0000 C   0  0  0  0  0  0  0  0  0  0  0  0
   -0.7501   -1.9107    0.0000 C   0  0  0  0  0  0  0  0  0  0  0  0
   -0.7335   -2.7356    0.0000 C   0  0  0  0  0  0  0  0  0  0  0  0
   -0.0565   -3.2071    0.0000 C   0  0  0  0  0  0  0  0  0  0  0  0
   -0.2957   -3.9968    0.0000 N   0  0  0  0  0  0  0  0  0  0  0  0
   -1.1206   -4.0133    0.0000 C   0  0  0  0  0  0  0  0  0  0  0  0
   -1.3912   -3.2338    0.0000 N   0  0  0  0  0  0  0  0  0  0  0  0
   -0.0604   -0.6592    0.0000 O   0  0  0  0  0  0  0  0  0  0  0  0
   -1.5057    0.1371    0.0000 H   0  0  0  0  0  0  0  0  0  0  0  0
   -1.5222    0.9619    0.0000 C   0  0  1  0  0  0  0  0  0  0  0  0
   -1.5387    1.7868    0.0000 C   0  0  0  0  0  0  0  0  0  0  0  0
   -2.2283    0.5352    0.0000 C   0  0  0  0  0  0  0  0  0  0  0  0
   -2.9509    0.9333    0.0000 C   0  0  0  0  0  0  0  0  0  0  0  0
    2.0248    2.2707    0.0000 C   0  0  0  0  0  0  0  0  0  0  0  0
    2.0084    3.0956    0.0000 O   0  0  0  0  0  0  0  0  0  0  0  0
    2.7475    1.8725    0.0000 C   0  0  1  0  0  0  0  0  0  0  0  0
    2.7775    0.3692    0.0000 N   0  0  0  0  0  0  0  0  0  0  0  0
    3.7530   -0.1682    0.0000 C   0  0  0  0  0  0  0  0  0  0  0  0
    3.7696   -0.9931    0.0000 O   0  0  0  0  0  0  0  0  0  0  0  0
    4.4592    0.2584    0.0000 C   0  0  1  0  0  0  0  0  0  0  0  0
    5.1818   -0.1396    0.0000 N   0  0  0  0  0  0  0  0  0  0  0  0
    5.8879    0.2870    0.0000 C   0  0  0  0  0  0  0  0  0  0  0  0
    6.6105   -0.1110    0.0000 O   0  0  0  0  0  0  0  0  0  0  0  0
    5.8714    1.1119    0.0000 C   0  0  0  0  0  0  0  0  0  0  0  0
    6.5775    1.5386    0.0000 N   0  0  0  0  0  0  0  0  0  0  0  0
    6.5610    2.3635    0.0000 C   0  0  0  0  0  0  0  0  0  0  0  0
    4.4427    1.0833    0.0000 C   0  0  0  0  0  0  0  0  0  0  0  0
    5.1488    1.5100    0.0000 C   0  0  0  0  0  0  0  0  0  0  0  0
    5.1323    2.3350    0.0000 C   0  0  0  0  0  0  0  0  0  0  0  0
    5.8384    2.7617    0.0000 N   0  0  0  0  0  0  0  0  0  0  0  0
    5.8219    3.5865    0.0000 C   0  0  0  0  0  0  0  0  0  0  0  0
    5.0993    3.9847    0.0000 N   0  0  0  0  0  0  0  0  0  0  0  0
    6.5280    4.0133    0.0000 N   0  0  0  0  0  0  0  0  0  0  0  0
    3.7007    2.4487    0.0000 C   0  0  0  0  0  0  0  0  0  0  0  0
    4.4233    2.0505    0.0000 C   0  0  0  0  0  0  0  0  0  0  0  0
    3.6842    3.2735    0.0000 C   0  0  0  0  0  0  0  0  0  0  0  0
    0.4564    2.3191    0.0000 H   0  0  0  0  0  0  0  0  0  0  0  0
    2.2510    1.5725    0.0000 H   0  0  0  0  0  0  0  0  0  0  0  0
    2.9736    1.1744    0.0000 H   0  0  0  0  0  0  0  0  0  0  0  0
    2.9950    0.1046    0.0000 H   0  0  0  0  0  0  0  0  0  0  0  0
    0.4643   -0.1326    0.0000 H   0  0  0  0  0  0  0  0  0  0  0  0
    0.5014   -1.9891    0.0000 H   0  0  0  0  0  0  0  0  0  0  0  0
    1.3219   -3.1631    0.0000 H   0  0  0  0  0  0  0  0  0  0  0  0
    3.7173   -1.9249    0.0000 H   0  0  0  0  0  0  0  0  0  0  0  0
    3.6801   -0.0682    0.0000 H   0  0  0  0  0  0  0  0  0  0  0  0
   -0.1131    1.9748    0.0000 H   0  0  0  0  0  0  0  0  0  0  0  0
   -2.3514   -0.2126    0.0000 H   0  0  0  0  0  0  0  0  0  0  0  0
   -2.4097   -0.9962    0.0000 H   0  0  0  0  0  0  0  0  0  0  0  0
   -2.8034   -2.5484    0.0000 H   0  0  0  0  0  0  0  0  0  0  0  0
   -4.7683   -3.9395    0.0000 H   0  0  0  0  0  0  0  0  0  0  0  0
   -4.1963   -2.0820    0.0000 H   0  0  0  0  0  0  0  0  0  0  0  0
   -6.4340   -1.2437    0.0000 H   0  0  0  0  0  0  0  0  0  0  0  0
   -4.0409   -1.2718    0.0000 H   0  0  0  0  0  0  0  0  0  0  0  0
   -5.8610   -0.9227    0.0000 H   0  0  0  0  0  0  0  0  0  0  0  0
   -4.8502   -0.5719    0.0000 H   0  0  0  0  0  0  0  0  0  0  0  0
   -5.2741   -1.4230    0.0000 H   0  0  0  0  0  0  0  0  0  0  0  0
   -4.8131   -0.4043    0.0000 H   0  0  0  0  0  0  0  0  0  0  0  0
   -4.2692    0.4013    0.0000 H   0  0  0  0  0  0  0  0  0  0  0  0
   -3.1579    0.2777    0.0000 H   0  0  0  0  0  0  0  0  0  0  0  0
   -2.2233    0.0092    0.0000 H   0  0  0  0  0  0  0  0  0  0  0  0
   -1.9976   -1.0859    0.0000 H   0  0  0  0  0  0  0  0  0  0  0  0
    0.1656   -1.3572    0.0000 H   0  0  0  0  0  0  0  0  0  0  0  0
    0.1871   -2.4270    0.0000 H   0  0  0  0  0  0  0  0  0  0  0  0
    0.9184   -2.8686    0.0000 H   0  0  0  0  0  0  0  0  0  0  0  0
   -1.7104   -4.8602    0.0000 H   0  0  0  0  0  0  0  0  0  0  0  0
   -2.3334   -2.9483    0.0000 H   0  0  0  0  0  0  0  0  0  0  0  0
   -0.6065    1.5154    0.0000 H   0  0  0  0  0  0  0  0  0  0  0  0
   -0.6229    2.3402    0.0000 H   0  0  0  0  0  0  0  0  0  0  0  0
   -2.4759    2.3032    0.0000 H   0  0  0  0  0  0  0  0  0  0  0  0
   -1.5601    2.8566    0.0000 H   0  0  0  0  0  0  0  0  0  0  0  0
   -2.2069   -0.5346    0.0000 H   0  0  0  0  0  0  0  0  0  0  0  0
   -3.1440   -0.0183    0.0000 H   0  0  0  0  0  0  0  0  0  0  0  0
   -2.9723    2.0031    0.0000 H   0  0  0  0  0  0  0  0  0  0  0  0
   -3.8666    0.3798    0.0000 H   0  0  0  0  0  0  0  0  0  0  0  0
   -3.8881    1.4496    0.0000 H   0  0  0  0  0  0  0  0  0  0  0  0
    1.8317    1.3191    0.0000 H   0  0  0  0  0  0  0  0  0  0  0  0
    1.9349   -0.1400    0.0000 H   0  0  0  0  0  0  0  0  0  0  0  0
    4.4806   -0.8114    0.0000 H   0  0  0  0  0  0  0  0  0  0  0  0
    5.2015   -1.1239    0.0000 H   0  0  0  0  0  0  0  0  0  0  0  0
    4.9342    1.6283    0.0000 H   0  0  0  0  0  0  0  0  0  0  0  0
    5.8500    2.1817    0.0000 H   0  0  0  0  0  0  0  0  0  0  0  0
    7.4709    1.0464    0.0000 H   0  0  0  0  0  0  0  0  0  0  0  0
    7.4768    2.9169    0.0000 H   0  0  0  0  0  0  0  0  0  0  0  0
    5.6238    2.8799    0.0000 H   0  0  0  0  0  0  0  0  0  0  0  0
    6.5396    3.4333    0.0000 H   0  0  0  0  0  0  0  0  0  0  0  0
    3.5055    1.5997    0.0000 H   0  0  0  0  0  0  0  0  0  0  0  0
    4.4213    2.1531    0.0000 H   0  0  0  0  0  0  0  0  0  0  0  0
    6.0860    0.9936    0.0000 H   0  0  0  0  0  0  0  0  0  0  0  0
    6.0646    2.0634    0.0000 H   0  0  0  0  0  0  0  0  0  0  0  0
    4.1951    2.8514    0.0000 H   0  0  0  0  0  0  0  0  0  0  0  0
    5.1109    3.4048    0.0000 H   0  0  0  0  0  0  0  0  0  0  0  0
    6.7007    2.2866    0.0000 H   0  0  0  0  0  0  0  0  0  0  0  0
    5.0797    4.9690    0.0000 H   0  0  0  0  0  0  0  0  0  0  0  0
    7.3903    3.5383    0.0000 H   0  0  0  0  0  0  0  0  0  0  0  0
    6.5082    4.9976    0.0000 H   0  0  0  0  0  0  0  0  0  0  0  0
    4.6165    3.0021    0.0000 H   0  0  0  0  0  0  0  0  0  0  0  0
    4.4446    0.9807    0.0000 H   0  0  0  0  0  0  0  0  0  0  0  0
    5.3391    2.6039    0.0000 H   0  0  0  0  0  0  0  0  0  0  0  0
    5.3604    1.5341    0.0000 H   0  0  0  0  0  0  0  0  0  0  0  0
    4.6000    3.8269    0.0000 H   0  0  0  0  0  0  0  0  0  0  0  0
    2.7470    3.7899    0.0000 H   0  0  0  0  0  0  0  0  0  0  0  0
    3.6628    4.3433    0.0000 H   0  0  0  0  0  0  0  0  0  0  0  0
  1 45  1  0  0  0  0
  1 68  1  0  0  0  0
  2  1  1  0  0  0  0
  2 69  1  6  0  0  0
  3  2  1  0  0  0  0
  3 70  1  0  0  0  0
  3 71  1  0  0  0  0
  4  3  1  0  0  0  0
  4  5  2  0  0  0  0
  5 72  1  0  0  0  0
  6  5  1  0  0  0  0
  6 73  1  0  0  0  0
  7  6  2  0  0  0  0
  7  8  1  0  0  0  0
  8 74  1  0  0  0  0
  9  7  1  0  0  0  0
  9 10  2  0  0  0  0
  9 75  1  0  0  0  0
 10  4  1  0  0  0  0
 10 76  1  0  0  0  0
 11  2  1  0  0  0  0
 11 12  2  0  0  0  0
 13 11  1  0  0  0  0
 13 77  1  0  0  0  0
 14 13  1  0  0  0  0
 14 15  1  0  0  0  0
 14 40  1  1  0  0  0
 14 41  1  0  0  0  0
 15 39  2  0  0  0  0
 16 15  1  0  0  0  0
 16 78  1  0  0  0  0
 17 16  1  0  0  0  0
 17 33  1  0  0  0  0
 17 79  1  6  0  0  0
 18 17  1  0  0  0  0
 18 19  2  0  0  0  0
 18 20  1  0  0  0  0
 20 21  1  0  0  0  0
 20 32  1  0  0  0  0
 21 22  1  0  0  0  0
 21 30  1  0  0  0  0
 21 80  1  1  0  0  0
 22 23  1  0  0  0  0
 22 29  2  0  0  0  0
 23 24  1  0  0  0  0
 23 81  1  0  0  0  0
 24 25  1  0  0  0  0
 24 28  1  0  0  0  0
 24 82  1  6  0  0  0
 25 26  1  0  0  0  0
 25 27  2  0  0  0  0
 26 83  1  0  0  0  0
 28 84  1  0  0  0  0
 28 85  1  0  0  0  0
 28 86  1  0  0  0  0
 30 31  1  0  0  0  0
 30 87  1  0  0  0  0
 30 88  1  0  0  0  0
 31 89  1  0  0  0  0
 31 90  1  0  0  0  0
 32 31  1  0  0  0  0
 32 91  1  0  0  0  0
 32 92  1  0  0  0  0
 33 34  1  0  0  0  0
 33 93  1  0  0  0  0
 33 94  1  0  0  0  0
 34 35  2  0  0  0  0
 34 38  1  0  0  0  0
 35 36  1  0  0  0  0
 35 95  1  0  0  0  0
 36 37  2  0  0  0  0
 37 96  1  0  0  0  0
 38 37  1  0  0  0  0
 38 97  1  0  0  0  0
 41 42  1  0  0  0  0
 41 43  1  0  0  0  0
 41 98  1  1  0  0  0
 42 99  1  0  0  0  0
 42100  1  0  0  0  0
 42101  1  0  0  0  0
 43 44  1  0  0  0  0
 43102  1  0  0  0  0
 43103  1  0  0  0  0
 44104  1  0  0  0  0
 44105  1  0  0  0  0
 44106  1  0  0  0  0
 45 46  2  0  0  0  0
 47 45  1  0  0  0  0
 47 48  1  0  0  0  0
 47107  1  1  0  0  0
 48 49  1  0  0  0  0
 48108  1  0  0  0  0
 49 50  2  0  0  0  0
 51 49  1  0  0  0  0
 51 52  1  0  0  0  0
 51109  1  1  0  0  0
 52 53  1  0  0  0  0
 52110  1  0  0  0  0
 53 54  2  0  0  0  0
 53 55  1  0  0  0  0
 55 56  1  0  0  0  0
 55111  1  0  0  0  0
 55112  1  0  0  0  0
 56 57  1  0  0  0  0
 56113  1  0  0  0  0
 57114  1  0  0  0  0
 57115  1  0  0  0  0
 57116  1  0  0  0  0
 58 51  1  0  0  0  0
 58117  1  0  0  0  0
 58118  1  0  0  0  0
 59 58  1  0  0  0  0
 59 60  1  0  0  0  0
 59119  1  0  0  0  0
 59120  1  0  0  0  0
 60 61  1  0  0  0  0
 60121  1  0  0  0  0
 60122  1  0  0  0  0
 61 62  1  0  0  0  0
 61123  1  0  0  0  0
 62 63  2  0  0  0  0
 62 64  1  0  0  0  0
 63124  1  0  0  0  0
 64125  1  0  0  0  0
 64126  1  0  0  0  0
 65 47  1  0  0  0  0
 65 66  1  0  0  0  0
 65 67  1  0  0  0  0
 65127  1  0  0  0  0
 66128  1  0  0  0  0
 66129  1  0  0  0  0
 66130  1  0  0  0  0
 67131  1  0  0  0  0
 67132  1  0  0  0  0
 67133  1  0  0  0  0
M  END
>  <DRUGBANK_ID>
DB12199

>  <COMMON_NAME>
TRV-120027

>  <CAS_NUMBER>
1234510-46-3

>  <UNII>
J1J4P3PQZD

$$$$
