
 OpenBabel10282417072D

 32 34  0  0  0  0  0  0  0  0999 V2000
    1.3743    2.2215    0.0000 C   0  0  0  0  0  0  0  0  0  0  0  0
    2.1989    2.2215    0.0000 C   0  0  0  0  0  0  0  0  0  0  0  0
    1.7865    1.5057    0.0000 C   0  0  0  0  0  0  0  0  0  0  0  0
   -0.3511    1.0852    0.0000 C   0  0  0  0  0  0  0  0  0  0  0  0
   -0.3523    0.2582    0.0000 C   0  0  0  0  0  0  0  0  0  0  0  0
    0.3621   -0.1544    0.0000 C   0  0  0  0  0  0  0  0  0  0  0  0
    1.0781    0.2587    0.0000 C   0  0  0  0  0  0  0  0  0  0  0  0
    1.0752    1.0887    0.0000 C   0  0  0  0  0  0  0  0  0  0  0  0
    0.3603    1.4977    0.0000 C   0  0  0  0  0  0  0  0  0  0  0  0
   -2.4919   -0.1600    0.0000 C   0  0  0  0  0  0  0  0  0  0  0  0
   -2.4930   -0.9870    0.0000 C   0  0  0  0  0  0  0  0  0  0  0  0
   -1.7786   -1.3997    0.0000 C   0  0  0  0  0  0  0  0  0  0  0  0
   -1.0625   -0.9865    0.0000 C   0  0  0  0  0  0  0  0  0  0  0  0
   -1.0653   -0.1564    0.0000 C   0  0  0  0  0  0  0  0  0  0  0  0
   -1.7804    0.2525    0.0000 C   0  0  0  0  0  0  0  0  0  0  0  0
   -3.2109   -1.3927    0.0000 Cl  0  0  0  0  0  0  0  0  0  0  0  0
   -1.7866   -2.2215    0.0000 Cl  0  0  0  0  0  0  0  0  0  0  0  0
   -1.0703    1.5015    0.0000 F   0  0  0  0  0  0  0  0  0  0  0  0
    2.4987    1.0934    0.0000 C   0  0  0  0  0  0  0  0  0  0  0  0
    3.2109    1.5099    0.0000 O   0  0  0  0  0  0  0  0  0  0  0  0
    2.4946    0.2688    0.0000 O   0  0  0  0  0  0  0  0  0  0  0  0
    0.4480    2.7570    0.0000 H   0  0  0  0  0  0  0  0  0  0  0  0
    1.6515    3.2550    0.0000 H   0  0  0  0  0  0  0  0  0  0  0  0
    3.1253    2.7569    0.0000 H   0  0  0  0  0  0  0  0  0  0  0  0
    1.9217    3.2550    0.0000 H   0  0  0  0  0  0  0  0  0  0  0  0
    0.3619   -1.1864    0.0000 H   0  0  0  0  0  0  0  0  0  0  0  0
    1.9727   -0.2559    0.0000 H   0  0  0  0  0  0  0  0  0  0  0  0
    0.3573    2.5297    0.0000 H   0  0  0  0  0  0  0  0  0  0  0  0
   -3.3858    0.3558    0.0000 H   0  0  0  0  0  0  0  0  0  0  0  0
   -0.1680   -1.5011    0.0000 H   0  0  0  0  0  0  0  0  0  0  0  0
   -1.7835    1.2845    0.0000 H   0  0  0  0  0  0  0  0  0  0  0  0
    1.6808   -0.1957    0.0000 H   0  0  0  0  0  0  0  0  0  0  0  0
  1  3  1  0  0  0  0
  1 22  1  0  0  0  0
  1 23  1  0  0  0  0
  2  1  1  0  0  0  0
  2 24  1  0  0  0  0
  2 25  1  0  0  0  0
  3  2  1  0  0  0  0
  3 19  1  0  0  0  0
  4 18  1  0  0  0  0
  4  5  2  0  0  0  0
  5  6  1  0  0  0  0
  6  7  2  0  0  0  0
  6 26  1  0  0  0  0
  7  8  1  0  0  0  0
  7 27  1  0  0  0  0
  8  9  2  0  0  0  0
  8  3  1  0  0  0  0
  9  4  1  0  0  0  0
  9 28  1  0  0  0  0
 10 11  2  0  0  0  0
 10 29  1  0  0  0  0
 11 12  1  0  0  0  0
 11 16  1  0  0  0  0
 12 13  2  0  0  0  0
 12 17  1  0  0  0  0
 13 14  1  0  0  0  0
 13 30  1  0  0  0  0
 14 15  2  0  0  0  0
 14  5  1  0  0  0  0
 15 10  1  0  0  0  0
 15 31  1  0  0  0  0
 19 20  2  0  0  0  0
 19 21  1  0  0  0  0
 21 32  1  0  0  0  0
M  END
>  <DRUGBANK_ID>
DB16825

>  <COMMON_NAME>
Itanapraced

>  <CAS_NUMBER>
749269-83-8

>  <UNII>
C35RF1MWQZ

>  <SYNONYMS>
Itanapraced

$$$$
