
 OpenBabel10282417072D

 50 53  0  0  0  0  0  0  0  0999 V2000
    0.2413    1.4455    0.0000 C   0  0  0  0  0  0  0  0  0  0  0  0
   -0.1712    0.7310    0.0000 C   0  0  0  0  0  0  0  0  0  0  0  0
   -0.8857    1.1435    0.0000 F   0  0  0  0  0  0  0  0  0  0  0  0
    0.5433    0.3185    0.0000 F   0  0  0  0  0  0  0  0  0  0  0  0
   -0.5837    0.0165    0.0000 C   0  0  0  0  0  0  0  0  0  0  0  0
   -0.1712   -0.6979    0.0000 C   0  0  0  0  0  0  0  0  0  0  0  0
   -0.5837   -1.4124    0.0000 C   0  0  0  0  0  0  0  0  0  0  0  0
   -1.4087   -1.4124    0.0000 C   0  0  0  0  0  0  0  0  0  0  0  0
   -1.8212   -0.6979    0.0000 C   0  0  0  0  0  0  0  0  0  0  0  0
   -2.6462   -0.6979    0.0000 F   0  0  0  0  0  0  0  0  0  0  0  0
   -1.4087    0.0165    0.0000 C   0  0  0  0  0  0  0  0  0  0  0  0
    0.6538   -0.6979    0.0000 C   0  0  0  0  0  0  0  0  0  0  0  0
    1.1387   -0.0305    0.0000 C   0  0  0  0  0  0  0  0  0  0  0  0
    0.8838    0.7541    0.0000 O   0  0  0  0  0  0  0  0  0  0  0  0
    1.4358    1.3672    0.0000 C   0  0  0  0  0  0  0  0  0  0  0  0
    1.1809    2.1518    0.0000 C   0  0  0  0  0  0  0  0  0  0  0  0
    1.7329    2.7649    0.0000 C   0  0  0  0  0  0  0  0  0  0  0  0
    2.5399    2.5934    0.0000 C   0  0  0  0  0  0  0  0  0  0  0  0
    3.0919    3.2065    0.0000 C   0  0  0  0  0  0  0  0  0  0  0  0
    3.8989    3.0350    0.0000 C   0  0  0  0  0  0  0  0  0  0  0  0
    4.4509    3.6481    0.0000 C   0  0  0  0  0  0  0  0  0  0  0  0
    4.1960    4.4327    0.0000 O   0  0  0  0  0  0  0  0  0  0  0  0
    5.2579    3.4765    0.0000 O   0  0  0  0  0  0  0  0  0  0  0  0
    2.7948    1.8088    0.0000 C   0  0  0  0  0  0  0  0  0  0  0  0
    2.2428    1.1957    0.0000 C   0  0  0  0  0  0  0  0  0  0  0  0
    1.9233   -0.2854    0.0000 C   0  0  0  0  0  0  0  0  0  0  0  0
    2.6378    0.1271    0.0000 C   0  0  0  0  0  0  0  0  0  0  0  0
    3.3523   -0.2854    0.0000 C   0  0  0  0  0  0  0  0  0  0  0  0
    3.3523   -1.1104    0.0000 C   0  0  0  0  0  0  0  0  0  0  0  0
    4.0668   -1.5229    0.0000 O   0  0  0  0  0  0  0  0  0  0  0  0
    2.6378   -1.5229    0.0000 C   0  0  0  0  0  0  0  0  0  0  0  0
    1.9233   -1.1104    0.0000 C   0  0  0  0  0  0  0  0  0  0  0  0
    1.1387   -1.3654    0.0000 S   0  0  0  0  0  0  0  0  0  0  0  0
    1.3113    1.4455    0.0000 H   0  0  0  0  0  0  0  0  0  0  0  0
   -0.2937    2.3721    0.0000 H   0  0  0  0  0  0  0  0  0  0  0  0
    0.7763    2.3722    0.0000 H   0  0  0  0  0  0  0  0  0  0  0  0
   -0.0677   -2.3061    0.0000 H   0  0  0  0  0  0  0  0  0  0  0  0
   -1.9247   -2.3061    0.0000 H   0  0  0  0  0  0  0  0  0  0  0  0
   -1.9247    0.9102    0.0000 H   0  0  0  0  0  0  0  0  0  0  0  0
    0.1715    2.3664    0.0000 H   0  0  0  0  0  0  0  0  0  0  0  0
    1.4140    3.7464    0.0000 H   0  0  0  0  0  0  0  0  0  0  0  0
    2.7730    4.1880    0.0000 H   0  0  0  0  0  0  0  0  0  0  0  0
    4.2178    2.0535    0.0000 H   0  0  0  0  0  0  0  0  0  0  0  0
    4.8230    5.1290    0.0000 H   0  0  0  0  0  0  0  0  0  0  0  0
    3.8042    1.5942    0.0000 H   0  0  0  0  0  0  0  0  0  0  0  0
    2.5617    0.2142    0.0000 H   0  0  0  0  0  0  0  0  0  0  0  0
    2.6378    1.1591    0.0000 H   0  0  0  0  0  0  0  0  0  0  0  0
    4.2460    0.2306    0.0000 H   0  0  0  0  0  0  0  0  0  0  0  0
    4.0668   -2.4599    0.0000 H   0  0  0  0  0  0  0  0  0  0  0  0
    2.6378   -2.5549    0.0000 H   0  0  0  0  0  0  0  0  0  0  0  0
  1  2  1  0  0  0  0
  1 34  1  0  0  0  0
  1 35  1  0  0  0  0
  1 36  1  0  0  0  0
  2  3  1  0  0  0  0
  2  4  1  0  0  0  0
  2  5  1  0  0  0  0
  5  6  2  0  0  0  0
  5 11  1  0  0  0  0
  6  7  1  0  0  0  0
  6 12  1  0  0  0  0
  7  8  2  0  0  0  0
  7 37  1  0  0  0  0
  8  9  1  0  0  0  0
  8 38  1  0  0  0  0
  9 10  1  0  0  0  0
  9 11  2  0  0  0  0
 11 39  1  0  0  0  0
 12 13  2  0  0  0  0
 12 33  1  0  0  0  0
 13 14  1  0  0  0  0
 13 26  1  0  0  0  0
 14 15  1  0  0  0  0
 15 16  2  0  0  0  0
 15 25  1  0  0  0  0
 16 17  1  0  0  0  0
 16 40  1  0  0  0  0
 17 18  2  0  0  0  0
 17 41  1  0  0  0  0
 18 19  1  0  0  0  0
 18 24  1  0  0  0  0
 19 20  2  0  0  0  0
 19 42  1  0  0  0  0
 20 21  1  0  0  0  0
 20 43  1  0  0  0  0
 21 22  1  0  0  0  0
 21 23  2  0  0  0  0
 22 44  1  0  0  0  0
 24 25  2  0  0  0  0
 24 45  1  0  0  0  0
 25 46  1  0  0  0  0
 26 27  2  0  0  0  0
 26 32  1  0  0  0  0
 27 28  1  0  0  0  0
 27 47  1  0  0  0  0
 28 29  2  0  0  0  0
 28 48  1  0  0  0  0
 29 30  1  0  0  0  0
 29 31  1  0  0  0  0
 30 49  1  0  0  0  0
 31 32  2  0  0  0  0
 31 50  1  0  0  0  0
 32 33  1  0  0  0  0
M  END
>  <DRUGBANK_ID>
DB15362

>  <COMMON_NAME>
LSZ-102

>  <CAS_NUMBER>
2135600-76-7

>  <UNII>
0Y175XGX4P

$$$$
