
 OpenBabel10282417072D

 46 50  0  0  0  0  0  0  0  0999 V2000
    3.2578   -1.0172    0.0000 C   0  0  0  0  0  0  0  0  0  0  0  0
    1.9140   -2.1080    0.0000 C   0  0  0  0  0  0  0  0  0  0  0  0
   -2.7891    2.3215    0.0000 C   0  0  0  0  0  0  0  0  0  0  0  0
    1.7005   -1.3111    0.0000 C   0  0  0  0  0  0  0  0  0  0  0  0
    1.1171   -2.3215    0.0000 C   0  0  0  0  0  0  0  0  0  0  0  0
   -3.3412    1.7085    0.0000 C   0  0  0  0  0  0  0  0  0  0  0  0
   -1.9822    2.1500    0.0000 C   0  0  0  0  0  0  0  0  0  0  0  0
   -0.5252   -1.5247    0.0000 C   0  0  0  0  0  0  0  0  0  0  0  0
    1.6181   -0.2872    0.0000 C   0  0  0  0  0  0  0  0  0  0  0  0
    3.2258    1.1173    0.0000 C   0  0  0  0  0  0  0  0  0  0  0  0
    0.9036   -1.5247    0.0000 C   0  0  0  0  0  0  0  0  0  0  0  0
    0.1891   -1.1122    0.0000 C   0  0  0  0  0  0  0  0  0  0  0  0
   -3.0862    0.9238    0.0000 C   0  0  0  0  0  0  0  0  0  0  0  0
   -1.7272    1.3654    0.0000 C   0  0  0  0  0  0  0  0  0  0  0  0
   -1.2397   -1.1122    0.0000 C   0  0  0  0  0  0  0  0  0  0  0  0
    2.3326    0.1252    0.0000 C   0  0  0  0  0  0  0  0  0  0  0  0
   -2.2793    0.7523    0.0000 C   0  0  0  0  0  0  0  0  0  0  0  0
   -2.0243   -0.0322    0.0000 C   0  0  0  0  0  0  0  0  0  0  0  0
    0.1891   -0.2872    0.0000 C   0  0  0  0  0  0  0  0  0  0  0  0
   -3.6383    0.3107    0.0000 F   0  0  0  0  0  0  0  0  0  0  0  0
   -0.9203    1.1939    0.0000 F   0  0  0  0  0  0  0  0  0  0  0  0
    2.4188    0.9457    0.0000 N   0  0  0  0  0  0  0  0  0  0  0  0
    3.6383    0.4028    0.0000 N   0  0  0  0  0  0  0  0  0  0  0  0
   -2.0243   -1.3671    0.0000 N   0  0  0  0  0  0  0  0  0  0  0  0
   -2.5092   -0.6997    0.0000 N   0  0  0  0  0  0  0  0  0  0  0  0
   -0.5252    0.1252    0.0000 N   0  0  0  0  0  0  0  0  0  0  0  0
    3.0862   -0.2102    0.0000 N   0  0  0  0  0  0  0  0  0  0  0  0
   -1.2397   -0.2872    0.0000 N   0  0  0  0  0  0  0  0  0  0  0  0
    0.9036    0.1252    0.0000 O   0  0  0  0  0  0  0  0  0  0  0  0
    2.4627   -1.7332    0.0000 H   0  0  0  0  0  0  0  0  0  0  0  0
    4.2755   -1.3478    0.0000 H   0  0  0  0  0  0  0  0  0  0  0  0
    3.4803   -2.0638    0.0000 H   0  0  0  0  0  0  0  0  0  0  0  0
    2.8406   -2.6430    0.0000 H   0  0  0  0  0  0  0  0  0  0  0  0
    1.7743   -3.1688    0.0000 H   0  0  0  0  0  0  0  0  0  0  0  0
   -3.1079    3.3030    0.0000 H   0  0  0  0  0  0  0  0  0  0  0  0
    2.2355   -0.3844    0.0000 H   0  0  0  0  0  0  0  0  0  0  0  0
    1.0491   -0.4622    0.0000 H   0  0  0  0  0  0  0  0  0  0  0  0
    0.5821   -3.2481    0.0000 H   0  0  0  0  0  0  0  0  0  0  0  0
    0.0563   -2.1818    0.0000 H   0  0  0  0  0  0  0  0  0  0  0  0
   -4.3506    1.9231    0.0000 H   0  0  0  0  0  0  0  0  0  0  0  0
   -1.2917    2.9170    0.0000 H   0  0  0  0  0  0  0  0  0  0  0  0
   -0.5251   -2.5567    0.0000 H   0  0  0  0  0  0  0  0  0  0  0  0
    1.6181   -1.3572    0.0000 H   0  0  0  0  0  0  0  0  0  0  0  0
    0.6915   -0.8223    0.0000 H   0  0  0  0  0  0  0  0  0  0  0  0
    3.6455    2.0601    0.0000 H   0  0  0  0  0  0  0  0  0  0  0  0
    0.0547   -2.1761    0.0000 H   0  0  0  0  0  0  0  0  0  0  0  0
  1 30  1  0  0  0  0
  1 31  1  0  0  0  0
  1 32  1  0  0  0  0
  2 33  1  0  0  0  0
  2 34  1  0  0  0  0
  3 35  1  0  0  0  0
  4  2  1  0  0  0  0
  4 36  1  0  0  0  0
  4 37  1  0  0  0  0
  5  2  1  0  0  0  0
  5 38  1  0  0  0  0
  5 39  1  0  0  0  0
  6  3  2  0  0  0  0
  6 40  1  0  0  0  0
  7  3  1  0  0  0  0
  7 41  1  0  0  0  0
  8 42  1  0  0  0  0
  9 43  1  0  0  0  0
  9 44  1  0  0  0  0
 10 45  1  0  0  0  0
 11  4  1  0  0  0  0
 11  5  1  0  0  0  0
 11 46  1  0  0  0  0
 12  8  2  0  0  0  0
 12 11  1  0  0  0  0
 13  6  1  0  0  0  0
 14  7  2  0  0  0  0
 15  8  1  0  0  0  0
 16  9  1  0  0  0  0
 17 13  2  0  0  0  0
 17 14  1  0  0  0  0
 18 17  1  0  0  0  0
 19 12  1  0  0  0  0
 20 13  1  0  0  0  0
 21 14  1  0  0  0  0
 22 10  1  0  0  0  0
 22 16  2  0  0  0  0
 23 10  2  0  0  0  0
 24 15  2  0  0  0  0
 25 18  2  0  0  0  0
 25 24  1  0  0  0  0
 26 19  2  0  0  0  0
 27  1  1  0  0  0  0
 27 16  1  0  0  0  0
 27 23  1  0  0  0  0
 28 15  1  0  0  0  0
 28 18  1  0  0  0  0
 28 26  1  0  0  0  0
 29  9  1  0  0  0  0
 29 19  1  0  0  0  0
M  END
>  <DRUGBANK_ID>
DB13993

>  <COMMON_NAME>
MRK-409

>  <CAS_NUMBER>
233275-76-8

>  <UNII>
9VSE02330I

$$$$
