
 OpenBabel10282417072D

 41 43  0  0  1  0  0  0  0  0999 V2000
    1.6500    2.5560    0.0000 Cl  0  0  0  0  0  0  0  0  0  0  0  0
    7.5307   -1.1270    0.0000 O   0  0  0  0  0  0  0  0  0  0  0  0
    5.8806    1.7310    0.0000 O   0  0  0  0  0  0  0  0  0  0  0  0
    4.5741    2.3949    0.0000 O   0  0  0  0  0  0  0  0  0  0  0  0
    9.5932   -1.8415    0.0000 O   0  0  0  0  0  0  0  0  0  0  0  0
    8.3557   -2.5560    0.0000 O   0  0  0  0  0  0  0  0  0  0  0  0
    4.5741    1.0670    0.0000 N   0  0  0  0  0  0  0  0  0  0  0  0
    8.3557   -1.1270    0.0000 C   0  0  3  0  0  0  0  0  0  0  0  0
    7.1182   -0.4125    0.0000 C   0  0  0  0  0  0  0  0  0  0  0  0
    8.7682   -0.4125    0.0000 C   0  0  0  0  0  0  0  0  0  0  0  0
    6.2932    1.0165    0.0000 C   0  0  0  0  0  0  0  0  0  0  0  0
    3.7935    2.1435    0.0000 C   0  0  0  0  0  0  0  0  0  0  0  0
    3.7935    1.3185    0.0000 C   0  0  0  0  0  0  0  0  0  0  0  0
    7.5307    0.3020    0.0000 C   0  0  0  0  0  0  0  0  0  0  0  0
    6.2932   -0.4125    0.0000 C   0  0  0  0  0  0  0  0  0  0  0  0
    8.7682   -1.8415    0.0000 C   0  0  0  0  0  0  0  0  0  0  0  0
    7.1182    1.0165    0.0000 C   0  0  0  0  0  0  0  0  0  0  0  0
    5.8806    0.3020    0.0000 C   0  0  0  0  0  0  0  0  0  0  0  0
    5.0556    1.7310    0.0000 C   0  0  0  0  0  0  0  0  0  0  0  0
    3.0791    2.5560    0.0000 C   0  0  0  0  0  0  0  0  0  0  0  0
    3.0791    0.9060    0.0000 C   0  0  0  0  0  0  0  0  0  0  0  0
    2.3645    2.1435    0.0000 C   0  0  0  0  0  0  0  0  0  0  0  0
    2.3645    1.3185    0.0000 C   0  0  0  0  0  0  0  0  0  0  0  0
   10.0057   -2.5560    0.0000 C   0  0  0  0  0  0  0  0  0  0  0  0
   10.8308   -2.5560    0.0000 C   0  0  0  0  0  0  0  0  0  0  0  0
    7.8207   -0.2004    0.0000 H   0  0  0  0  0  0  0  0  0  0  0  0
    9.8382   -0.4125    0.0000 H   0  0  0  0  0  0  0  0  0  0  0  0
    8.2332    0.5141    0.0000 H   0  0  0  0  0  0  0  0  0  0  0  0
    9.3032    0.5142    0.0000 H   0  0  0  0  0  0  0  0  0  0  0  0
    8.5627    0.3020    0.0000 H   0  0  0  0  0  0  0  0  0  0  0  0
    5.7772   -1.3063    0.0000 H   0  0  0  0  0  0  0  0  0  0  0  0
    7.6342    1.9102    0.0000 H   0  0  0  0  0  0  0  0  0  0  0  0
    4.8486    0.3020    0.0000 H   0  0  0  0  0  0  0  0  0  0  0  0
    3.0792    3.5880    0.0000 H   0  0  0  0  0  0  0  0  0  0  0  0
    3.0792   -0.1260    0.0000 H   0  0  0  0  0  0  0  0  0  0  0  0
    1.4708    0.8025    0.0000 H   0  0  0  0  0  0  0  0  0  0  0  0
    9.4707   -3.4826    0.0000 H   0  0  0  0  0  0  0  0  0  0  0  0
   10.5407   -3.4826    0.0000 H   0  0  0  0  0  0  0  0  0  0  0  0
   11.3658   -3.4826    0.0000 H   0  0  0  0  0  0  0  0  0  0  0  0
   11.3658   -1.6294    0.0000 H   0  0  0  0  0  0  0  0  0  0  0  0
   11.9008   -2.5560    0.0000 H   0  0  0  0  0  0  0  0  0  0  0  0
  1 22  1  0  0  0  0
  2  8  1  0  0  0  0
  2  9  1  0  0  0  0
  3 11  1  0  0  0  0
  3 19  1  0  0  0  0
  4 12  1  0  0  0  0
  4 19  1  0  0  0  0
  5 16  1  0  0  0  0
  5 24  1  0  0  0  0
  6 16  2  0  0  0  0
  7 13  1  0  0  0  0
  7 19  2  0  0  0  0
  8 10  1  0  0  0  0
  8 16  1  0  0  0  0
  8 26  1  0  0  0  0
  9 14  2  0  0  0  0
  9 15  1  0  0  0  0
 10 27  1  0  0  0  0
 10 28  1  0  0  0  0
 10 29  1  0  0  0  0
 11 17  2  0  0  0  0
 11 18  1  0  0  0  0
 12 13  2  0  0  0  0
 12 20  1  0  0  0  0
 13 21  1  0  0  0  0
 14 17  1  0  0  0  0
 14 30  1  0  0  0  0
 15 18  2  0  0  0  0
 15 31  1  0  0  0  0
 17 32  1  0  0  0  0
 18 33  1  0  0  0  0
 20 22  2  0  0  0  0
 20 34  1  0  0  0  0
 21 23  2  0  0  0  0
 21 35  1  0  0  0  0
 22 23  1  0  0  0  0
 23 36  1  0  0  0  0
 24 25  1  0  0  0  0
 24 37  1  0  0  0  0
 24 38  1  0  0  0  0
 25 39  1  0  0  0  0
 25 40  1  0  0  0  0
 25 41  1  0  0  0  0
M  END
>  <DRUGBANK_ID>
DB05252

>  <COMMON_NAME>
Fenoxaprop-ethyl

>  <CAS_NUMBER>
66441-23-4

>  <UNII>
7U20WEM458

>  <SYNONYMS>
Fenoxaprop ethyl

$$$$
