
 OpenBabel10282417072D

 36 39  0  0  0  0  0  0  0  0999 V2000
    6.1237    0.8510    0.0000 C   0  0  0  0  0  0  0  0  0  0  0  0
    5.9401    1.6553    0.0000 C   0  0  0  0  0  0  0  0  0  0  0  0
    5.1517    1.8985    0.0000 C   0  0  0  0  0  0  0  0  0  0  0  0
    4.5470    1.3373    0.0000 C   0  0  0  0  0  0  0  0  0  0  0  0
    4.7305    0.5330    0.0000 C   0  0  0  0  0  0  0  0  0  0  0  0
    5.5189    0.2898    0.0000 C   0  0  0  0  0  0  0  0  0  0  0  0
    4.2162   -0.1120    0.0000 C   0  0  0  0  0  0  0  0  0  0  0  0
    3.3912   -0.1120    0.0000 C   0  0  0  0  0  0  0  0  0  0  0  0
    2.8768    0.5330    0.0000 C   0  0  0  0  0  0  0  0  0  0  0  0
    2.0884    0.2898    0.0000 C   0  0  0  0  0  0  0  0  0  0  0  0
    1.4837    0.8510    0.0000 C   0  0  0  0  0  0  0  0  0  0  0  0
    1.6673    1.6553    0.0000 C   0  0  0  0  0  0  0  0  0  0  0  0
    2.4556    1.8985    0.0000 C   0  0  0  0  0  0  0  0  0  0  0  0
    3.0604    1.3373    0.0000 C   0  0  0  0  0  0  0  0  0  0  0  0
    3.8037    1.6953    0.0000 C   0  0  3  0  0  0  0  0  0  0  0  0
    3.8037    2.5203    0.0000 N   0  0  0  0  0  0  0  0  0  0  0  0
    3.1362    3.0052    0.0000 C   0  0  0  0  0  0  0  0  0  0  0  0
    3.3912    3.7898    0.0000 C   0  0  0  0  0  0  0  0  0  0  0  0
    4.2162    3.7898    0.0000 N   0  0  0  0  0  0  0  0  0  0  0  0
    4.4711    3.0052    0.0000 C   0  0  0  0  0  0  0  0  0  0  0  0
    2.6392    2.7028    0.0000 Cl  0  0  0  0  0  0  0  0  0  0  0  0
    0.6953    0.6078    0.0000 Cl  0  0  0  0  0  0  0  0  0  0  0  0
    7.1099    0.5468    0.0000 H   0  0  0  0  0  0  0  0  0  0  0  0
    6.6966    2.3572    0.0000 H   0  0  0  0  0  0  0  0  0  0  0  0
    4.9220    2.9046    0.0000 H   0  0  0  0  0  0  0  0  0  0  0  0
    5.7485   -0.7163    0.0000 H   0  0  0  0  0  0  0  0  0  0  0  0
    4.6805   -1.0760    0.0000 H   0  0  0  0  0  0  0  0  0  0  0  0
    3.6469   -1.0180    0.0000 H   0  0  0  0  0  0  0  0  0  0  0  0
    2.9270   -1.0760    0.0000 H   0  0  0  0  0  0  0  0  0  0  0  0
    2.3279   -0.2318    0.0000 H   0  0  0  0  0  0  0  0  0  0  0  0
    1.8587   -0.7163    0.0000 H   0  0  0  0  0  0  0  0  0  0  0  0
    0.9108    2.3572    0.0000 H   0  0  0  0  0  0  0  0  0  0  0  0
    3.8037    0.6253    0.0000 H   0  0  0  0  0  0  0  0  0  0  0  0
    2.1547    2.6863    0.0000 H   0  0  0  0  0  0  0  0  0  0  0  0
    2.7846    4.6247    0.0000 H   0  0  0  0  0  0  0  0  0  0  0  0
    5.4526    2.6863    0.0000 H   0  0  0  0  0  0  0  0  0  0  0  0
  1  2  2  0  0  0  0
  1  6  1  0  0  0  0
  1 23  1  0  0  0  0
  2  3  1  0  0  0  0
  2 24  1  0  0  0  0
  3  4  2  0  0  0  0
  3 25  1  0  0  0  0
  4  5  1  0  0  0  0
  4 15  1  0  0  0  0
  5  6  2  0  0  0  0
  5  7  1  0  0  0  0
  6 26  1  0  0  0  0
  7  8  1  0  0  0  0
  7 27  1  0  0  0  0
  7 28  1  0  0  0  0
  8  9  1  0  0  0  0
  8 29  1  0  0  0  0
  8 30  1  0  0  0  0
  9 10  2  0  0  0  0
  9 14  1  0  0  0  0
 10 11  1  0  0  0  0
 10 31  1  0  0  0  0
 11 12  2  0  0  0  0
 11 22  1  0  0  0  0
 12 13  1  0  0  0  0
 12 32  1  0  0  0  0
 13 14  2  0  0  0  0
 13 21  1  0  0  0  0
 14 15  1  0  0  0  0
 15 16  1  0  0  0  0
 15 33  1  0  0  0  0
 16 17  1  0  0  0  0
 16 20  1  0  0  0  0
 17 18  2  0  0  0  0
 17 34  1  0  0  0  0
 18 19  1  0  0  0  0
 18 35  1  0  0  0  0
 19 20  2  0  0  0  0
 20 36  1  0  0  0  0
M  END
>  <DRUGBANK_ID>
DB13656

>  <COMMON_NAME>
Eberconazole

>  <CAS_NUMBER>
128326-82-9

>  <UNII>
V7O1U41C9B

>  <SYNONYMS>
Eberconazole

$$$$
