
 OpenBabel10282417072D

  3  0  0  0  0  0  0  0  0  0999 V2000
   -0.9219   -0.0312    0.0000 Ra  0  2  0  0  0  0  0  0  0  0  0  0
    0.6985    0.7008    0.0000 Cl  0  5  0  0  0  0  0  0  0  0  0  0
    0.7209   -0.7053    0.0000 Cl  0  5  0  0  0  0  0  0  0  0  0  0
M  ISO  1   1 223
M  CHG  3   1   2   2  -1   3  -1
M  END
>  <DRUGBANK_ID>
DB08913

>  <SECONDARY_ACCESSION_NUMBERS>
DB05677; DB09566

>  <COMMON_NAME>
Radium Ra 223 dichloride

>  <CAS_NUMBER>
444811-40-9

>  <UNII>
RJ00KV3VTG

>  <SYNONYMS>
Radium chloride Ra-223; Radium Ra 223 dichloride; Radium Ra-223 dichloride; Radium-223 chloride; Radium-223 dichloride

$$$$
