
 OpenBabel10282417072D

 45 46  0  0  1  0  0  0  0  0999 V2000
   -2.8579   -4.9500    0.0000 C   0  0  0  0  0  0  0  0  0  0  0  0
   -2.1434   -4.5375    0.0000 C   0  0  0  0  0  0  0  0  0  0  0  0
   -2.1434   -3.7125    0.0000 O   0  0  0  0  0  0  0  0  0  0  0  0
   -1.4289   -4.9500    0.0000 N   0  0  0  0  0  0  0  0  0  0  0  0
   -0.7145   -4.5375    0.0000 C   0  0  0  0  0  0  0  0  0  0  0  0
    0.0000   -4.9500    0.0000 C   0  0  0  0  0  0  0  0  0  0  0  0
    0.7145   -4.5375    0.0000 O   0  0  0  0  0  0  0  0  0  0  0  0
    1.4289   -4.9500    0.0000 C   0  0  0  0  0  0  0  0  0  0  0  0
    1.4289   -5.7750    0.0000 O   0  0  0  0  0  0  0  0  0  0  0  0
    2.1434   -4.5375    0.0000 C   0  0  1  0  0  0  0  0  0  0  0  0
    2.1434   -3.7125    0.0000 C   0  0  0  0  0  0  0  0  0  0  0  0
    1.4289   -3.3000    0.0000 C   0  0  0  0  0  0  0  0  0  0  0  0
    1.4289   -2.4750    0.0000 C   0  0  0  0  0  0  0  0  0  0  0  0
    2.1434   -2.0625    0.0000 C   0  0  0  0  0  0  0  0  0  0  0  0
    2.8579   -2.4750    0.0000 C   0  0  0  0  0  0  0  0  0  0  0  0
    2.8579   -3.3000    0.0000 C   0  0  0  0  0  0  0  0  0  0  0  0
    2.1434   -1.2375    0.0000 Cl  0  0  0  0  0  0  0  0  0  0  0  0
    2.8579   -4.9500    0.0000 O   0  0  0  0  0  0  0  0  0  0  0  0
    3.5724   -4.5375    0.0000 C   0  0  0  0  0  0  0  0  0  0  0  0
    3.5724   -3.7125    0.0000 C   0  0  0  0  0  0  0  0  0  0  0  0
    4.2868   -3.3000    0.0000 C   0  0  0  0  0  0  0  0  0  0  0  0
    5.0013   -3.7125    0.0000 C   0  0  0  0  0  0  0  0  0  0  0  0
    5.0013   -4.5375    0.0000 C   0  0  0  0  0  0  0  0  0  0  0  0
    4.2868   -4.9500    0.0000 C   0  0  0  0  0  0  0  0  0  0  0  0
    5.7158   -4.9500    0.0000 C   0  0  0  0  0  0  0  0  0  0  0  0
    6.4302   -5.3625    0.0000 F   0  0  0  0  0  0  0  0  0  0  0  0
    5.3033   -5.6645    0.0000 F   0  0  0  0  0  0  0  0  0  0  0  0
    6.1283   -4.2355    0.0000 F   0  0  0  0  0  0  0  0  0  0  0  0
   -3.7845   -4.4150    0.0000 H   0  0  0  0  0  0  0  0  0  0  0  0
   -2.8579   -6.0200    0.0000 H   0  0  0  0  0  0  0  0  0  0  0  0
   -3.7846   -5.4850    0.0000 H   0  0  0  0  0  0  0  0  0  0  0  0
   -1.4289   -5.9345    0.0000 H   0  0  0  0  0  0  0  0  0  0  0  0
   -0.7145   -3.4675    0.0000 H   0  0  0  0  0  0  0  0  0  0  0  0
    0.2121   -4.0025    0.0000 H   0  0  0  0  0  0  0  0  0  0  0  0
    0.0000   -6.0200    0.0000 H   0  0  0  0  0  0  0  0  0  0  0  0
    0.9266   -5.4850    0.0000 H   0  0  0  0  0  0  0  0  0  0  0  0
    2.1434   -5.6075    0.0000 H   0  0  0  0  0  0  0  0  0  0  0  0
    0.5352   -3.8160    0.0000 H   0  0  0  0  0  0  0  0  0  0  0  0
    0.5352   -1.9590    0.0000 H   0  0  0  0  0  0  0  0  0  0  0  0
    3.7516   -1.9590    0.0000 H   0  0  0  0  0  0  0  0  0  0  0  0
    3.7516   -3.8160    0.0000 H   0  0  0  0  0  0  0  0  0  0  0  0
    2.6787   -3.1965    0.0000 H   0  0  0  0  0  0  0  0  0  0  0  0
    4.2868   -2.2680    0.0000 H   0  0  0  0  0  0  0  0  0  0  0  0
    5.8950   -3.1965    0.0000 H   0  0  0  0  0  0  0  0  0  0  0  0
    4.2868   -5.9820    0.0000 H   0  0  0  0  0  0  0  0  0  0  0  0
  1  2  1  0  0  0  0
  1 29  1  0  0  0  0
  1 30  1  0  0  0  0
  1 31  1  0  0  0  0
  2  3  2  0  0  0  0
  2  4  1  0  0  0  0
  4  5  1  0  0  0  0
  4 32  1  0  0  0  0
  5  6  1  0  0  0  0
  5 33  1  0  0  0  0
  5 34  1  0  0  0  0
  6  7  1  0  0  0  0
  6 35  1  0  0  0  0
  6 36  1  0  0  0  0
  7  8  1  0  0  0  0
  8  9  2  0  0  0  0
  8 10  1  0  0  0  0
 10 11  1  0  0  0  0
 10 18  1  0  0  0  0
 10 37  1  6  0  0  0
 11 12  2  0  0  0  0
 11 16  1  0  0  0  0
 12 13  1  0  0  0  0
 12 38  1  0  0  0  0
 13 14  2  0  0  0  0
 13 39  1  0  0  0  0
 14 15  1  0  0  0  0
 14 17  1  0  0  0  0
 15 16  2  0  0  0  0
 15 40  1  0  0  0  0
 16 41  1  0  0  0  0
 18 19  1  0  0  0  0
 19 20  2  0  0  0  0
 19 24  1  0  0  0  0
 20 21  1  0  0  0  0
 20 42  1  0  0  0  0
 21 22  2  0  0  0  0
 21 43  1  0  0  0  0
 22 23  1  0  0  0  0
 22 44  1  0  0  0  0
 23 24  2  0  0  0  0
 23 25  1  0  0  0  0
 24 45  1  0  0  0  0
 25 26  1  0  0  0  0
 25 27  1  0  0  0  0
 25 28  1  0  0  0  0
M  END
>  <DRUGBANK_ID>
DB11811

>  <SECONDARY_ACCESSION_NUMBERS>
DB06158

>  <COMMON_NAME>
Arhalofenate

>  <CAS_NUMBER>
24136-23-0

>  <UNII>
1P01UJR9X1

>  <SYNONYMS>
Arhalofenate

$$$$
