582
 OpenBabel10282417072D

 30 32  0  0  0  0  0  0  0  0999 V2000
    1.8795   -0.6782    0.0000 C   0  0  0  0  0  0  0  0  0  0  0  0
    1.4449    0.0231    0.0000 C   0  0  0  0  0  0  0  0  0  0  0  0
    0.6203   -0.0027    0.0000 C   0  0  0  0  0  0  0  0  0  0  0  0
    0.2303   -0.7297    0.0000 C   0  0  0  0  0  0  0  0  0  0  0  0
    0.6649   -1.4309    0.0000 C   0  0  0  0  0  0  0  0  0  0  0  0
    1.4895   -1.4052    0.0000 C   0  0  0  0  0  0  0  0  0  0  0  0
    0.1856    0.6985    0.0000 N   0  0  0  0  0  0  0  0  0  0  0  0
   -0.6390    0.6728    0.0000 C   0  0  0  0  0  0  0  0  0  0  0  0
   -1.0289   -0.0542    0.0000 C   0  0  0  0  0  0  0  0  0  0  0  0
   -0.5943   -0.7555    0.0000 C   0  0  0  0  0  0  0  0  0  0  0  0
   -1.0736    1.3740    0.0000 O   0  0  0  0  0  0  0  0  0  0  0  0
    0.5756    1.4255    0.0000 C   0  0  0  0  0  0  0  0  0  0  0  0
   -1.1269   -1.3855    0.0000 N   0  0  0  0  0  0  0  0  0  0  0  0
   -1.8302   -0.2509    0.0000 C   0  0  0  0  0  0  0  0  0  0  0  0
   -2.4602    0.2818    0.0000 C   0  0  0  0  0  0  0  0  0  0  0  0
   -1.8907   -1.0736    0.0000 N   0  0  0  0  0  0  0  0  0  0  0  0
    0.1410    2.1268    0.0000 C   0  0  0  0  0  0  0  0  0  0  0  0
    2.9110   -0.6460    0.0000 H   0  0  0  0  0  0  0  0  0  0  0  0
    1.9327    0.9325    0.0000 H   0  0  0  0  0  0  0  0  0  0  0  0
    0.1770   -2.3403    0.0000 H   0  0  0  0  0  0  0  0  0  0  0  0
    2.0331   -2.2824    0.0000 H   0  0  0  0  0  0  0  0  0  0  0  0
    1.6451    1.4589    0.0000 H   0  0  0  0  0  0  0  0  0  0  0  0
    1.0814    2.3684    0.0000 H   0  0  0  0  0  0  0  0  0  0  0  0
   -0.8923   -2.3416    0.0000 H   0  0  0  0  0  0  0  0  0  0  0  0
   -2.2704    1.3348    0.0000 H   0  0  0  0  0  0  0  0  0  0  0  0
   -3.4670   -0.0804    0.0000 H   0  0  0  0  0  0  0  0  0  0  0  0
   -3.2773    0.9727    0.0000 H   0  0  0  0  0  0  0  0  0  0  0  0
    0.6468    3.0697    0.0000 H   0  0  0  0  0  0  0  0  0  0  0  0
   -0.9285    2.0934    0.0000 H   0  0  0  0  0  0  0  0  0  0  0  0
   -0.4226    3.0363    0.0000 H   0  0  0  0  0  0  0  0  0  0  0  0
  1  6  1  0  0  0  0
  1  2  2  0  0  0  0
  1 18  1  0  0  0  0
  2  3  1  0  0  0  0
  2 19  1  0  0  0  0
  3  4  2  0  0  0  0
  3  7  1  0  0  0  0
  4  5  1  0  0  0  0
  4 10  1  0  0  0  0
  5  6  2  0  0  0  0
  5 20  1  0  0  0  0
  6 21  1  0  0  0  0
  7  8  1  0  0  0  0
  7 12  1  0  0  0  0
  8  9  1  0  0  0  0
  8 11  2  0  0  0  0
  9 10  2  0  0  0  0
  9 14  1  0  0  0  0
 10 13  1  0  0  0  0
 12 17  1  0  0  0  0
 12 22  1  0  0  0  0
 12 23  1  0  0  0  0
 13 16  1  0  0  0  0
 13 24  1  0  0  0  0
 14 16  2  0  0  0  0
 14 15  1  0  0  0  0
 15 25  1  0  0  0  0
 15 26  1  0  0  0  0
 15 27  1  0  0  0  0
 17 28  1  0  0  0  0
 17 29  1  0  0  0  0
 17 30  1  0  0  0  0
M  END
>  <DRUGBANK_ID>
DB07158

>  <COMMON_NAME>
5-ETHYL-3-METHYL-1,5-DIHYDRO-4H-PYRAZOLO[4,3-C]QUINOLIN-4-ONE

$$$$
