
 OpenBabel10282417072D

 52 55  0  0  0  0  0  0  0  0999 V2000
   -2.0367   -3.8973    0.0000 C   0  0  0  0  0  0  0  0  0  0  0  0
   -2.7512   -4.3098    0.0000 C   0  0  0  0  0  0  0  0  0  0  0  0
   -3.4656   -3.8973    0.0000 N   0  0  0  0  0  0  0  0  0  0  0  0
   -3.4656   -3.0723    0.0000 C   0  0  0  0  0  0  0  0  0  0  0  0
   -2.7512   -2.6598    0.0000 C   0  0  0  0  0  0  0  0  0  0  0  0
   -2.0367   -3.0723    0.0000 C   0  0  0  0  0  0  0  0  0  0  0  0
   -1.3222   -2.6598    0.0000 N   0  0  0  0  0  0  0  0  0  0  0  0
   -1.3222   -1.8348    0.0000 C   0  0  0  0  0  0  0  0  0  0  0  0
   -2.0367   -1.4223    0.0000 N   0  0  0  0  0  0  0  0  0  0  0  0
   -2.0367   -0.5973    0.0000 C   0  0  0  0  0  0  0  0  0  0  0  0
   -1.3222   -0.1848    0.0000 C   0  0  0  0  0  0  0  0  0  0  0  0
   -0.6078   -0.5973    0.0000 N   0  0  0  0  0  0  0  0  0  0  0  0
   -0.6078   -1.4223    0.0000 C   0  0  0  0  0  0  0  0  0  0  0  0
   -0.6078   -3.0723    0.0000 C   0  0  0  0  0  0  0  0  0  0  0  0
    0.1067   -2.6598    0.0000 O   0  0  0  0  0  0  0  0  0  0  0  0
   -0.6078   -3.8973    0.0000 C   0  0  0  0  0  0  0  0  0  0  0  0
    0.0597   -4.3822    0.0000 C   0  0  0  0  0  0  0  0  0  0  0  0
   -0.1953   -5.1669    0.0000 C   0  0  0  0  0  0  0  0  0  0  0  0
   -1.0203   -5.1669    0.0000 C   0  0  0  0  0  0  0  0  0  0  0  0
   -1.2752   -4.3822    0.0000 O   0  0  0  0  0  0  0  0  0  0  0  0
   -4.1801   -4.3098    0.0000 C   0  0  0  0  0  0  0  0  0  0  0  0
   -4.1801   -5.1348    0.0000 C   0  0  0  0  0  0  0  0  0  0  0  0
   -4.8946   -5.5473    0.0000 C   0  0  0  0  0  0  0  0  0  0  0  0
   -4.8946   -6.3723    0.0000 C   0  0  0  0  0  0  0  0  0  0  0  0
   -5.6091   -6.7848    0.0000 C   0  0  0  0  0  0  0  0  0  0  0  0
   -6.3235   -6.3723    0.0000 C   0  0  0  0  0  0  0  0  0  0  0  0
   -6.3235   -5.5473    0.0000 C   0  0  0  0  0  0  0  0  0  0  0  0
   -5.6091   -5.1348    0.0000 C   0  0  0  0  0  0  0  0  0  0  0  0
   -1.1101   -4.4323    0.0000 H   0  0  0  0  0  0  0  0  0  0  0  0
   -1.1101   -3.3623    0.0000 H   0  0  0  0  0  0  0  0  0  0  0  0
   -2.7512   -5.3798    0.0000 H   0  0  0  0  0  0  0  0  0  0  0  0
   -3.6779   -4.8448    0.0000 H   0  0  0  0  0  0  0  0  0  0  0  0
   -4.3923   -2.5373    0.0000 H   0  0  0  0  0  0  0  0  0  0  0  0
   -3.4656   -2.0023    0.0000 H   0  0  0  0  0  0  0  0  0  0  0  0
   -2.7512   -1.5898    0.0000 H   0  0  0  0  0  0  0  0  0  0  0  0
   -1.8246   -2.1248    0.0000 H   0  0  0  0  0  0  0  0  0  0  0  0
   -1.1101   -3.6073    0.0000 H   0  0  0  0  0  0  0  0  0  0  0  0
   -2.9304   -0.0813    0.0000 H   0  0  0  0  0  0  0  0  0  0  0  0
   -1.3222    0.8472    0.0000 H   0  0  0  0  0  0  0  0  0  0  0  0
    0.2859   -1.9383    0.0000 H   0  0  0  0  0  0  0  0  0  0  0  0
    1.0412   -4.0633    0.0000 H   0  0  0  0  0  0  0  0  0  0  0  0
    0.4113   -6.0018    0.0000 H   0  0  0  0  0  0  0  0  0  0  0  0
   -1.6269   -6.0018    0.0000 H   0  0  0  0  0  0  0  0  0  0  0  0
   -5.1067   -3.7748    0.0000 H   0  0  0  0  0  0  0  0  0  0  0  0
   -5.1067   -4.8448    0.0000 H   0  0  0  0  0  0  0  0  0  0  0  0
   -3.2535   -5.6698    0.0000 H   0  0  0  0  0  0  0  0  0  0  0  0
   -4.1801   -6.2048    0.0000 H   0  0  0  0  0  0  0  0  0  0  0  0
   -4.0009   -6.8883    0.0000 H   0  0  0  0  0  0  0  0  0  0  0  0
   -5.6091   -7.8168    0.0000 H   0  0  0  0  0  0  0  0  0  0  0  0
   -7.2172   -6.8883    0.0000 H   0  0  0  0  0  0  0  0  0  0  0  0
   -7.2172   -5.0313    0.0000 H   0  0  0  0  0  0  0  0  0  0  0  0
   -5.6091   -4.1028    0.0000 H   0  0  0  0  0  0  0  0  0  0  0  0
  1  2  1  0  0  0  0
  1  6  1  0  0  0  0
  1 29  1  0  0  0  0
  1 30  1  0  0  0  0
  2  3  1  0  0  0  0
  2 31  1  0  0  0  0
  2 32  1  0  0  0  0
  3  4  1  0  0  0  0
  3 21  1  0  0  0  0
  4  5  1  0  0  0  0
  4 33  1  0  0  0  0
  4 34  1  0  0  0  0
  5  6  1  0  0  0  0
  5 35  1  0  0  0  0
  5 36  1  0  0  0  0
  6  7  1  0  0  0  0
  6 37  1  0  0  0  0
  7  8  1  0  0  0  0
  7 14  1  0  0  0  0
  8  9  2  0  0  0  0
  8 13  1  0  0  0  0
  9 10  1  0  0  0  0
 10 11  2  0  0  0  0
 10 38  1  0  0  0  0
 11 12  1  0  0  0  0
 11 39  1  0  0  0  0
 12 13  2  0  0  0  0
 13 40  1  0  0  0  0
 14 15  2  0  0  0  0
 14 16  1  0  0  0  0
 16 17  2  0  0  0  0
 16 20  1  0  0  0  0
 17 18  1  0  0  0  0
 17 41  1  0  0  0  0
 18 19  2  0  0  0  0
 18 42  1  0  0  0  0
 19 20  1  0  0  0  0
 19 43  1  0  0  0  0
 21 22  1  0  0  0  0
 21 44  1  0  0  0  0
 21 45  1  0  0  0  0
 22 23  1  0  0  0  0
 22 46  1  0  0  0  0
 22 47  1  0  0  0  0
 23 24  2  0  0  0  0
 23 28  1  0  0  0  0
 24 25  1  0  0  0  0
 24 48  1  0  0  0  0
 25 26  2  0  0  0  0
 25 49  1  0  0  0  0
 26 27  1  0  0  0  0
 26 50  1  0  0  0  0
 27 28  2  0  0  0  0
 27 51  1  0  0  0  0
 28 52  1  0  0  0  0
M  END
>  <DRUGBANK_ID>
DB09175

>  <COMMON_NAME>
Mirfentanil

>  <CAS_NUMBER>
117523-47-4

>  <UNII>
Q2U943H24P

>  <SYNONYMS>
Mirfentanil

$$$$
