949
 OpenBabel10282417072D

 31 31  0  0  0  0  0  0  0  0999 V2000
    3.0791    1.1096    0.0000 O   0  0  0  0  0  0  0  0  0  0  0  0
    4.5080    1.1096    0.0000 O   0  0  0  0  0  0  0  0  0  0  0  0
    1.6500    1.1096    0.0000 O   0  0  0  0  0  0  0  0  0  0  0  0
    5.9370    1.1096    0.0000 O   0  0  0  0  0  0  0  0  0  0  0  0
    2.3645    2.3472    0.0000 N   0  0  0  0  0  0  0  0  0  0  0  0
    5.2224    2.3472    0.0000 N   0  0  0  0  0  0  0  0  0  0  0  0
    3.7935   -0.1279    0.0000 C   0  0  0  0  0  0  0  0  0  0  0  0
    3.7935   -0.9529    0.0000 C   0  0  0  0  0  0  0  0  0  0  0  0
    3.0791    0.2846    0.0000 C   0  0  0  0  0  0  0  0  0  0  0  0
    4.5080    0.2846    0.0000 C   0  0  0  0  0  0  0  0  0  0  0  0
    4.5080   -1.3654    0.0000 C   0  0  0  0  0  0  0  0  0  0  0  0
    3.0791   -1.3654    0.0000 C   0  0  0  0  0  0  0  0  0  0  0  0
    4.5080   -2.1904    0.0000 C   0  0  0  0  0  0  0  0  0  0  0  0
    3.0791   -2.1904    0.0000 C   0  0  0  0  0  0  0  0  0  0  0  0
    3.7935   -2.6029    0.0000 C   0  0  0  0  0  0  0  0  0  0  0  0
    2.3645    1.5222    0.0000 C   0  0  0  0  0  0  0  0  0  0  0  0
    5.2224    1.5222    0.0000 C   0  0  0  0  0  0  0  0  0  0  0  0
    3.2171    2.8395    0.0000 H   0  0  0  0  0  0  0  0  0  0  0  0
    1.5119    2.8394    0.0000 H   0  0  0  0  0  0  0  0  0  0  0  0
    6.0750    2.8395    0.0000 H   0  0  0  0  0  0  0  0  0  0  0  0
    4.3698    2.8395    0.0000 H   0  0  0  0  0  0  0  0  0  0  0  0
    3.7935    0.9421    0.0000 H   0  0  0  0  0  0  0  0  0  0  0  0
    2.1524   -0.2504    0.0000 H   0  0  0  0  0  0  0  0  0  0  0  0
    3.0791   -0.7854    0.0000 H   0  0  0  0  0  0  0  0  0  0  0  0
    5.4346   -0.2504    0.0000 H   0  0  0  0  0  0  0  0  0  0  0  0
    4.5080   -0.7854    0.0000 H   0  0  0  0  0  0  0  0  0  0  0  0
    5.4017   -0.8494    0.0000 H   0  0  0  0  0  0  0  0  0  0  0  0
    2.1854   -0.8494    0.0000 H   0  0  0  0  0  0  0  0  0  0  0  0
    5.4017   -2.7064    0.0000 H   0  0  0  0  0  0  0  0  0  0  0  0
    2.1854   -2.7064    0.0000 H   0  0  0  0  0  0  0  0  0  0  0  0
    3.7935   -3.6349    0.0000 H   0  0  0  0  0  0  0  0  0  0  0  0
  1  9  1  0  0  0  0
  1 16  1  0  0  0  0
  2 10  1  0  0  0  0
  2 17  1  0  0  0  0
  3 16  2  0  0  0  0
  4 17  2  0  0  0  0
  5 16  1  0  0  0  0
  5 18  1  0  0  0  0
  5 19  1  0  0  0  0
  6 17  1  0  0  0  0
  6 20  1  0  0  0  0
  6 21  1  0  0  0  0
  7  8  1  0  0  0  0
  7  9  1  0  0  0  0
  7 10  1  0  0  0  0
  7 22  1  0  0  0  0
  8 11  2  0  0  0  0
  8 12  1  0  0  0  0
  9 23  1  0  0  0  0
  9 24  1  0  0  0  0
 10 25  1  0  0  0  0
 10 26  1  0  0  0  0
 11 13  1  0  0  0  0
 11 27  1  0  0  0  0
 12 14  2  0  0  0  0
 12 28  1  0  0  0  0
 13 15  2  0  0  0  0
 13 29  1  0  0  0  0
 14 15  1  0  0  0  0
 14 30  1  0  0  0  0
 15 31  1  0  0  0  0
M  END
>  <DRUGBANK_ID>
DB00949

>  <SECONDARY_ACCESSION_NUMBERS>
APRD00505

>  <COMMON_NAME>
Felbamate

>  <CAS_NUMBER>
25451-15-4

>  <UNII>
X72RBB02N8

>  <SYNONYMS>
2-phenyl-1,3-propanediol dicarbamate; carbamic acid 2-phenyltrimethylene ester; Carbamic acid 3-carbamoyloxy-2-phenyl-propyl ester; Felbamate; Felbamato; Felbamatum

$$$$
