
 OpenBabel10282417072D

 28 29  0  0  0  0  0  0  0  0999 V2000
   -0.0132    0.1577    0.0000 N   0  0  0  0  0  0  0  0  0  0  0  0
    0.6965    0.5782    0.0000 C   0  0  0  0  0  0  0  0  0  0  0  0
    0.6965    1.3933    0.0000 N   0  0  0  0  0  0  0  0  0  0  0  0
   -0.7229    0.5783    0.0000 C   0  0  0  0  0  0  0  0  0  0  0  0
   -0.7229    1.3933    0.0000 C   0  0  0  0  0  0  0  0  0  0  0  0
   -0.0132    1.8139    0.0000 C   0  0  0  0  0  0  0  0  0  0  0  0
    0.3548   -1.9453    0.0000 C   0  0  1  0  0  0  0  0  0  0  0  0
    0.6440   -1.1567    0.0000 C   0  0  2  0  0  0  0  0  0  0  0  0
   -0.0132   -0.6572    0.0000 C   0  0  1  0  0  0  0  0  0  0  0  0
   -0.6703   -1.1567    0.0000 O   0  0  0  0  0  0  0  0  0  0  0  0
   -0.4337   -1.9453    0.0000 C   0  0  2  0  0  0  0  0  0  0  0  0
   -0.9070   -2.6026    0.0000 C   0  0  0  0  0  0  0  0  0  0  0  0
    1.4327   -0.9464    0.0000 O   0  0  0  0  0  0  0  0  0  0  0  0
    0.8281   -2.6289    0.0000 O   0  0  0  0  0  0  0  0  0  0  0  0
    1.4327    0.1577    0.0000 O   0  0  0  0  0  0  0  0  0  0  0  0
   -0.0132    2.6289    0.0000 O   0  0  0  0  0  0  0  0  0  0  0  0
   -1.4327    1.8139    0.0000 F   0  0  0  0  0  0  0  0  0  0  0  0
    1.5519    1.8807    0.0000 H   0  0  0  0  0  0  0  0  0  0  0  0
   -1.6196    0.0674    0.0000 H   0  0  0  0  0  0  0  0  0  0  0  0
   -0.1418   -2.8931    0.0000 H   0  0  0  0  0  0  0  0  0  0  0  0
    1.3654   -1.9469    0.0000 H   0  0  0  0  0  0  0  0  0  0  0  0
    0.9454   -0.1817    0.0000 H   0  0  0  0  0  0  0  0  0  0  0  0
    0.0541   -2.8976    0.0000 H   0  0  0  0  0  0  0  0  0  0  0  0
   -1.9716   -2.4953    0.0000 H   0  0  0  0  0  0  0  0  0  0  0  0
   -0.4676   -3.5782    0.0000 H   0  0  0  0  0  0  0  0  0  0  0  0
   -1.5322   -3.4709    0.0000 H   0  0  0  0  0  0  0  0  0  0  0  0
    2.1178   -1.6331    0.0000 H   0  0  0  0  0  0  0  0  0  0  0  0
    0.4135   -3.5058    0.0000 H   0  0  0  0  0  0  0  0  0  0  0  0
  2  1  1  0  0  0  0
  3  2  1  0  0  0  0
  3 18  1  0  0  0  0
  4  1  1  0  0  0  0
  4 19  1  0  0  0  0
  5  4  2  0  0  0  0
  6  3  1  0  0  0  0
  6  5  1  0  0  0  0
  7 14  1  0  0  0  0
  7 20  1  1  0  0  0
  8  7  1  0  0  0  0
  8 13  1  0  0  0  0
  8 21  1  1  0  0  0
  9  1  1  0  0  0  0
  9  8  1  0  0  0  0
  9 22  1  6  0  0  0
 10  9  1  0  0  0  0
 11  7  1  0  0  0  0
 11 10  1  0  0  0  0
 11 12  1  0  0  0  0
 11 23  1  6  0  0  0
 12 24  1  0  0  0  0
 12 25  1  0  0  0  0
 12 26  1  0  0  0  0
 13 27  1  0  0  0  0
 14 28  1  0  0  0  0
 15  2  2  0  0  0  0
 16  6  2  0  0  0  0
 17  5  1  0  0  0  0
M  END
>  <DRUGBANK_ID>
DB12947

>  <COMMON_NAME>
Doxifluridine

>  <CAS_NUMBER>
3094-09-5

>  <UNII>
V1JK16Y2JP

>  <SYNONYMS>
1-(Î²-D-5-desoxyribofuranoxyl)-5-fluoruracil; 5-fluoro-5'-deoxyuridine; 5'-deoxy-5-fluorouridine; 5'-DFUR; Doxifluridina; Doxifluridine; Doxifluridinum

$$$$
