
 OpenBabel10282417072D

 52 57  0  0  0  0  0  0  0  0999 V2000
    0.6348   -0.8250    0.0000 C   0  0  0  0  0  0  0  0  0  0  0  0
   -0.0796   -0.4125    0.0000 C   0  0  0  0  0  0  0  0  0  0  0  0
    0.6348   -1.6500    0.0000 N   0  0  0  0  0  0  0  0  0  0  0  0
   -0.7942   -0.8250    0.0000 N   0  0  0  0  0  0  0  0  0  0  0  0
   -0.7942   -1.6500    0.0000 C   0  0  0  0  0  0  0  0  0  0  0  0
   -0.0796   -2.0625    0.0000 C   0  0  0  0  0  0  0  0  0  0  0  0
    1.4194   -0.5701    0.0000 N   0  0  0  0  0  0  0  0  0  0  0  0
    1.9043   -1.2374    0.0000 C   0  0  0  0  0  0  0  0  0  0  0  0
    1.4194   -1.9049    0.0000 C   0  0  0  0  0  0  0  0  0  0  0  0
   -0.0796    0.4125    0.0000 N   0  0  0  0  0  0  0  0  0  0  0  0
    0.6348    0.8250    0.0000 C   0  0  0  0  0  0  0  0  0  0  0  0
    0.6348    1.6500    0.0000 C   0  0  0  0  0  0  0  0  0  0  0  0
    1.3492    2.0625    0.0000 C   0  0  0  0  0  0  0  0  0  0  0  0
    2.0637    1.6500    0.0000 C   0  0  0  0  0  0  0  0  0  0  0  0
    2.0637    0.8250    0.0000 C   0  0  0  0  0  0  0  0  0  0  0  0
    1.3492    0.4125    0.0000 C   0  0  0  0  0  0  0  0  0  0  0  0
    2.7782    2.0625    0.0000 N   0  0  0  0  0  0  0  0  0  0  0  0
    2.7782    2.8875    0.0000 C   0  0  0  0  0  0  0  0  0  0  0  0
    3.4927    3.3000    0.0000 C   0  0  0  0  0  0  0  0  0  0  0  0
    4.2070    2.8875    0.0000 O   0  0  0  0  0  0  0  0  0  0  0  0
    4.2070    2.0625    0.0000 C   0  0  0  0  0  0  0  0  0  0  0  0
    3.4927    1.6500    0.0000 C   0  0  0  0  0  0  0  0  0  0  0  0
   -3.7222   -1.8076    0.0000 N   0  0  0  0  0  0  0  0  0  0  0  0
   -4.2070   -2.4749    0.0000 N   0  0  0  0  0  0  0  0  0  0  0  0
   -3.7222   -3.1424    0.0000 C   0  0  0  0  0  0  0  0  0  0  0  0
   -2.9376   -2.8875    0.0000 C   0  0  0  0  0  0  0  0  0  0  0  0
   -2.2231   -3.3000    0.0000 C   0  0  0  0  0  0  0  0  0  0  0  0
   -1.5086   -2.8875    0.0000 C   0  0  0  0  0  0  0  0  0  0  0  0
   -1.5086   -2.0625    0.0000 C   0  0  0  0  0  0  0  0  0  0  0  0
   -2.2231   -1.6500    0.0000 C   0  0  0  0  0  0  0  0  0  0  0  0
   -2.9376   -2.0625    0.0000 C   0  0  0  0  0  0  0  0  0  0  0  0
   -0.0795   -3.0945    0.0000 H   0  0  0  0  0  0  0  0  0  0  0  0
    2.9363   -1.2373    0.0000 H   0  0  0  0  0  0  0  0  0  0  0  0
    1.7384   -2.8864    0.0000 H   0  0  0  0  0  0  0  0  0  0  0  0
   -0.9322    0.9047    0.0000 H   0  0  0  0  0  0  0  0  0  0  0  0
   -0.2589    2.1660    0.0000 H   0  0  0  0  0  0  0  0  0  0  0  0
    1.3492    3.0945    0.0000 H   0  0  0  0  0  0  0  0  0  0  0  0
    2.9574    0.3090    0.0000 H   0  0  0  0  0  0  0  0  0  0  0  0
    1.3492   -0.6195    0.0000 H   0  0  0  0  0  0  0  0  0  0  0  0
    1.8516    3.4225    0.0000 H   0  0  0  0  0  0  0  0  0  0  0  0
    2.7782    3.9575    0.0000 H   0  0  0  0  0  0  0  0  0  0  0  0
    3.4928    4.3700    0.0000 H   0  0  0  0  0  0  0  0  0  0  0  0
    4.4194    3.8349    0.0000 H   0  0  0  0  0  0  0  0  0  0  0  0
    5.1337    1.5275    0.0000 H   0  0  0  0  0  0  0  0  0  0  0  0
    4.2071    0.9925    0.0000 H   0  0  0  0  0  0  0  0  0  0  0  0
    3.4928    0.5800    0.0000 H   0  0  0  0  0  0  0  0  0  0  0  0
    2.5661    1.1150    0.0000 H   0  0  0  0  0  0  0  0  0  0  0  0
   -4.0265   -0.8713    0.0000 H   0  0  0  0  0  0  0  0  0  0  0  0
   -4.0412   -4.1239    0.0000 H   0  0  0  0  0  0  0  0  0  0  0  0
   -2.2231   -4.3320    0.0000 H   0  0  0  0  0  0  0  0  0  0  0  0
   -0.6149   -3.4035    0.0000 H   0  0  0  0  0  0  0  0  0  0  0  0
   -2.2231   -0.6180    0.0000 H   0  0  0  0  0  0  0  0  0  0  0  0
  1  2  1  0  0  0  0
  1  3  1  0  0  0  0
  2  4  2  0  0  0  0
  2 10  1  0  0  0  0
  3  6  1  0  0  0  0
  4  5  1  0  0  0  0
  5  6  2  0  0  0  0
  5 29  1  0  0  0  0
  6 32  1  0  0  0  0
  7  8  1  0  0  0  0
  7  1  2  0  0  0  0
  8  9  2  0  0  0  0
  8 33  1  0  0  0  0
  9  3  1  0  0  0  0
  9 34  1  0  0  0  0
 10 11  1  0  0  0  0
 10 35  1  0  0  0  0
 11 12  1  0  0  0  0
 11 16  2  0  0  0  0
 12 13  2  0  0  0  0
 12 36  1  0  0  0  0
 13 14  1  0  0  0  0
 13 37  1  0  0  0  0
 14 15  2  0  0  0  0
 14 17  1  0  0  0  0
 15 16  1  0  0  0  0
 15 38  1  0  0  0  0
 16 39  1  0  0  0  0
 17 18  1  0  0  0  0
 17 22  1  0  0  0  0
 18 19  1  0  0  0  0
 18 40  1  0  0  0  0
 18 41  1  0  0  0  0
 19 20  1  0  0  0  0
 19 42  1  0  0  0  0
 19 43  1  0  0  0  0
 20 21  1  0  0  0  0
 21 22  1  0  0  0  0
 21 44  1  0  0  0  0
 21 45  1  0  0  0  0
 22 46  1  0  0  0  0
 22 47  1  0  0  0  0
 23 24  1  0  0  0  0
 23 31  1  0  0  0  0
 23 48  1  0  0  0  0
 24 25  2  0  0  0  0
 25 26  1  0  0  0  0
 25 49  1  0  0  0  0
 26 27  1  0  0  0  0
 26 31  2  0  0  0  0
 27 28  2  0  0  0  0
 27 50  1  0  0  0  0
 28 29  1  0  0  0  0
 28 51  1  0  0  0  0
 29 30  2  0  0  0  0
 30 31  1  0  0  0  0
 30 52  1  0  0  0  0
M  END
>  <DRUGBANK_ID>
DB12121

>  <COMMON_NAME>
Entospletinib

>  <CAS_NUMBER>
1229208-44-9

>  <UNII>
6I3O3W6O3B

>  <SYNONYMS>
Entospletinib

$$$$
