AB3
 OpenBabel10282417072D

 38 40  0  0  0  0  0  0  0  0999 V2000
   -0.4921    2.7222    0.0000 C   0  0  0  0  0  0  0  0  0  0  0  0
   -0.2371    1.9376    0.0000 C   0  0  0  0  0  0  0  0  0  0  0  0
   -1.0218    1.6827    0.0000 C   0  0  0  0  0  0  0  0  0  0  0  0
    0.5475    2.1926    0.0000 C   0  0  0  0  0  0  0  0  0  0  0  0
    0.0178    1.1530    0.0000 N   0  0  0  0  0  0  0  0  0  0  0  0
   -0.4671    0.4856    0.0000 N   0  0  0  0  0  0  0  0  0  0  0  0
    0.8024    0.8981    0.0000 C   0  0  0  0  0  0  0  0  0  0  0  0
    1.5169    1.3106    0.0000 N   0  0  0  0  0  0  0  0  0  0  0  0
    2.2314    0.8981    0.0000 C   0  0  0  0  0  0  0  0  0  0  0  0
    2.2314    0.0731    0.0000 N   0  0  0  0  0  0  0  0  0  0  0  0
    1.5169   -0.3394    0.0000 C   0  0  0  0  0  0  0  0  0  0  0  0
    1.5169   -1.1644    0.0000 N   0  0  0  0  0  0  0  0  0  0  0  0
    0.8024    0.0731    0.0000 C   0  0  0  0  0  0  0  0  0  0  0  0
    0.0178   -0.1819    0.0000 C   0  0  0  0  0  0  0  0  0  0  0  0
   -0.2371   -0.9665    0.0000 C   0  0  0  0  0  0  0  0  0  0  0  0
    0.3149   -1.5796    0.0000 C   0  0  0  0  0  0  0  0  0  0  0  0
   -1.0441   -1.1380    0.0000 C   0  0  0  0  0  0  0  0  0  0  0  0
   -1.2990   -1.9226    0.0000 C   0  0  0  0  0  0  0  0  0  0  0  0
   -0.7470   -2.5357    0.0000 C   0  0  0  0  0  0  0  0  0  0  0  0
    0.0600   -2.3642    0.0000 C   0  0  0  0  0  0  0  0  0  0  0  0
    0.6120   -2.9773    0.0000 O   0  0  0  0  0  0  0  0  0  0  0  0
    0.2238    3.5174    0.0000 H   0  0  0  0  0  0  0  0  0  0  0  0
   -1.5387    2.9446    0.0000 H   0  0  0  0  0  0  0  0  0  0  0  0
   -0.8228    3.7398    0.0000 H   0  0  0  0  0  0  0  0  0  0  0  0
   -1.8169    2.3987    0.0000 H   0  0  0  0  0  0  0  0  0  0  0  0
   -1.2443    0.6361    0.0000 H   0  0  0  0  0  0  0  0  0  0  0  0
   -2.0395    1.3521    0.0000 H   0  0  0  0  0  0  0  0  0  0  0  0
    1.3427    1.4767    0.0000 H   0  0  0  0  0  0  0  0  0  0  0  0
    0.7699    3.2392    0.0000 H   0  0  0  0  0  0  0  0  0  0  0  0
    1.5651    2.5233    0.0000 H   0  0  0  0  0  0  0  0  0  0  0  0
    3.1251    1.4141    0.0000 H   0  0  0  0  0  0  0  0  0  0  0  0
    0.6643   -1.6567    0.0000 H   0  0  0  0  0  0  0  0  0  0  0  0
    2.3695   -1.6566    0.0000 H   0  0  0  0  0  0  0  0  0  0  0  0
    1.3243   -1.3650    0.0000 H   0  0  0  0  0  0  0  0  0  0  0  0
   -1.7346   -0.3711    0.0000 H   0  0  0  0  0  0  0  0  0  0  0  0
   -2.3084   -2.1372    0.0000 H   0  0  0  0  0  0  0  0  0  0  0  0
   -1.0659   -3.5172    0.0000 H   0  0  0  0  0  0  0  0  0  0  0  0
    0.3224   -3.8684    0.0000 H   0  0  0  0  0  0  0  0  0  0  0  0
  1  2  1  0  0  0  0
  1 22  1  0  0  0  0
  1 23  1  0  0  0  0
  1 24  1  0  0  0  0
  2  3  1  0  0  0  0
  2  4  1  0  0  0  0
  2  5  1  0  0  0  0
  3 25  1  0  0  0  0
  3 26  1  0  0  0  0
  3 27  1  0  0  0  0
  4 28  1  0  0  0  0
  4 29  1  0  0  0  0
  4 30  1  0  0  0  0
  5  6  1  0  0  0  0
  5  7  1  0  0  0  0
  6 14  2  0  0  0  0
  7  8  2  0  0  0  0
  7 13  1  0  0  0  0
  8  9  1  0  0  0  0
  9 10  2  0  0  0  0
  9 31  1  0  0  0  0
 10 11  1  0  0  0  0
 11 12  1  0  0  0  0
 11 13  2  0  0  0  0
 12 32  1  0  0  0  0
 12 33  1  0  0  0  0
 13 14  1  0  0  0  0
 14 15  1  0  0  0  0
 15 16  1  0  0  0  0
 15 17  2  0  0  0  0
 16 20  2  0  0  0  0
 16 34  1  0  0  0  0
 17 18  1  0  0  0  0
 17 35  1  0  0  0  0
 18 19  2  0  0  0  0
 18 36  1  0  0  0  0
 19 20  1  0  0  0  0
 19 37  1  0  0  0  0
 20 21  1  0  0  0  0
 21 38  1  0  0  0  0
M  END
>  <DRUGBANK_ID>
DB04463

>  <SECONDARY_ACCESSION_NUMBERS>
EXPT00389

>  <COMMON_NAME>
3-(4-Amino-1-Tert-Butyl-1h-Pyrazolo[3,4-D]Pyrimidin-3-Yl)Phenol

$$$$
