D56
 OpenBabel10282417072D

 63 65  0  0  0  0  0  0  0  0999 V2000
   11.1952    5.4295    0.0000 N   0  0  0  0  0  0  0  0  0  0  0  0
   11.1952    4.6045    0.0000 C   0  0  0  0  0  0  0  0  0  0  0  0
   10.4808    4.1920    0.0000 C   0  0  0  0  0  0  0  0  0  0  0  0
    9.7663    4.6045    0.0000 C   0  0  0  0  0  0  0  0  0  0  0  0
    9.7663    5.4295    0.0000 C   0  0  0  0  0  0  0  0  0  0  0  0
   10.4808    5.8420    0.0000 C   0  0  0  0  0  0  0  0  0  0  0  0
   11.9097    5.8420    0.0000 C   0  0  0  0  0  0  0  0  0  0  0  0
   11.9097    6.6670    0.0000 C   0  0  0  0  0  0  0  0  0  0  0  0
   12.6242    7.0795    0.0000 C   0  0  0  0  0  0  0  0  0  0  0  0
   12.6242    7.9045    0.0000 Cl  0  0  0  0  0  0  0  0  0  0  0  0
   13.3386    6.6670    0.0000 C   0  0  0  0  0  0  0  0  0  0  0  0
   13.3386    5.8420    0.0000 C   0  0  0  0  0  0  0  0  0  0  0  0
   14.0531    5.4295    0.0000 N   0  0  0  0  0  0  0  0  0  0  0  0
   14.7676    5.8420    0.0000 C   0  0  0  0  0  0  0  0  0  0  0  0
   14.7676    6.6670    0.0000 O   0  0  0  0  0  0  0  0  0  0  0  0
   15.4820    5.4295    0.0000 C   0  0  0  0  0  0  0  0  0  0  0  0
   16.1965    5.8420    0.0000 C   0  0  0  0  0  0  0  0  0  0  0  0
   16.9110    5.4295    0.0000 C   0  0  0  0  0  0  0  0  0  0  0  0
   14.7676    8.3170    0.0000 C   0  0  0  0  0  0  0  0  0  0  0  0
   17.6255    5.8420    0.0000 C   0  0  0  0  0  0  0  0  0  0  0  0
   16.9110    4.6045    0.0000 C   0  0  0  0  0  0  0  0  0  0  0  0
   17.6255    4.1920    0.0000 O   0  0  0  0  0  0  0  0  0  0  0  0
   18.3399    4.6045    0.0000 C   0  0  0  0  0  0  0  0  0  0  0  0
   19.0544    4.1920    0.0000 C   0  0  0  0  0  0  0  0  0  0  0  0
   19.7689    4.6045    0.0000 N   0  0  0  0  0  0  0  0  0  0  0  0
   16.1965    4.1920    0.0000 C   0  0  0  0  0  0  0  0  0  0  0  0
   16.1965    3.3670    0.0000 C   0  0  0  0  0  0  0  0  0  0  0  0
   15.4820    4.6045    0.0000 C   0  0  0  0  0  0  0  0  0  0  0  0
   12.6242    5.4295    0.0000 C   0  0  0  0  0  0  0  0  0  0  0  0
   14.0531    7.0795    0.0000 O   0  0  0  0  0  0  0  0  0  0  0  0
   14.0531    7.9045    0.0000 C   0  0  0  0  0  0  0  0  0  0  0  0
   12.1219    4.0695    0.0000 H   0  0  0  0  0  0  0  0  0  0  0  0
   11.1952    3.5345    0.0000 H   0  0  0  0  0  0  0  0  0  0  0  0
   10.4808    3.1220    0.0000 H   0  0  0  0  0  0  0  0  0  0  0  0
    9.5542    3.6570    0.0000 H   0  0  0  0  0  0  0  0  0  0  0  0
    8.8397    4.0695    0.0000 H   0  0  0  0  0  0  0  0  0  0  0  0
    8.8397    5.1395    0.0000 H   0  0  0  0  0  0  0  0  0  0  0  0
    8.8397    5.9645    0.0000 H   0  0  0  0  0  0  0  0  0  0  0  0
    9.7663    6.4995    0.0000 H   0  0  0  0  0  0  0  0  0  0  0  0
   10.4808    6.9120    0.0000 H   0  0  0  0  0  0  0  0  0  0  0  0
    9.5542    6.3770    0.0000 H   0  0  0  0  0  0  0  0  0  0  0  0
   11.0160    7.1830    0.0000 H   0  0  0  0  0  0  0  0  0  0  0  0
   14.0531    4.4450    0.0000 H   0  0  0  0  0  0  0  0  0  0  0  0
   16.1965    6.8740    0.0000 H   0  0  0  0  0  0  0  0  0  0  0  0
   15.6942    7.7820    0.0000 H   0  0  0  0  0  0  0  0  0  0  0  0
   14.7676    9.3870    0.0000 H   0  0  0  0  0  0  0  0  0  0  0  0
   15.6943    8.8520    0.0000 H   0  0  0  0  0  0  0  0  0  0  0  0
   18.5521    5.3070    0.0000 H   0  0  0  0  0  0  0  0  0  0  0  0
   17.6255    6.9120    0.0000 H   0  0  0  0  0  0  0  0  0  0  0  0
   18.5522    6.3770    0.0000 H   0  0  0  0  0  0  0  0  0  0  0  0
   18.3399    5.6745    0.0000 H   0  0  0  0  0  0  0  0  0  0  0  0
   19.2665    5.1395    0.0000 H   0  0  0  0  0  0  0  0  0  0  0  0
   19.0544    3.1220    0.0000 H   0  0  0  0  0  0  0  0  0  0  0  0
   19.9810    3.6570    0.0000 H   0  0  0  0  0  0  0  0  0  0  0  0
   20.6522    4.0945    0.0000 H   0  0  0  0  0  0  0  0  0  0  0  0
   19.7689    5.6245    0.0000 H   0  0  0  0  0  0  0  0  0  0  0  0
   15.2699    2.8320    0.0000 H   0  0  0  0  0  0  0  0  0  0  0  0
   17.1231    2.8320    0.0000 H   0  0  0  0  0  0  0  0  0  0  0  0
   16.1965    2.2970    0.0000 H   0  0  0  0  0  0  0  0  0  0  0  0
   14.5883    4.0885    0.0000 H   0  0  0  0  0  0  0  0  0  0  0  0
   12.6242    4.3975    0.0000 H   0  0  0  0  0  0  0  0  0  0  0  0
   13.1265    8.4395    0.0000 H   0  0  0  0  0  0  0  0  0  0  0  0
   13.1265    7.3695    0.0000 H   0  0  0  0  0  0  0  0  0  0  0  0
  1  2  1  0  0  0  0
  1  6  1  0  0  0  0
  1  7  1  0  0  0  0
  2  3  1  0  0  0  0
  2 32  1  0  0  0  0
  2 33  1  0  0  0  0
  3  4  1  0  0  0  0
  3 34  1  0  0  0  0
  3 35  1  0  0  0  0
  4  5  1  0  0  0  0
  4 36  1  0  0  0  0
  4 37  1  0  0  0  0
  5  6  1  0  0  0  0
  5 38  1  0  0  0  0
  5 39  1  0  0  0  0
  6 40  1  0  0  0  0
  6 41  1  0  0  0  0
  7  8  1  0  0  0  0
  7 29  2  0  0  0  0
  8  9  2  0  0  0  0
  8 42  1  0  0  0  0
  9 10  1  0  0  0  0
  9 11  1  0  0  0  0
 11 12  2  0  0  0  0
 11 30  1  0  0  0  0
 12 13  1  0  0  0  0
 12 29  1  0  0  0  0
 13 14  1  0  0  0  0
 13 43  1  0  0  0  0
 14 15  2  0  0  0  0
 14 16  1  0  0  0  0
 16 17  1  0  0  0  0
 16 28  2  0  0  0  0
 17 18  2  0  0  0  0
 17 44  1  0  0  0  0
 18 20  1  0  0  0  0
 18 21  1  0  0  0  0
 19 31  1  0  0  0  0
 19 45  1  0  0  0  0
 19 46  1  0  0  0  0
 19 47  1  0  0  0  0
 20 48  1  0  0  0  0
 20 49  1  0  0  0  0
 20 50  1  0  0  0  0
 21 22  1  0  0  0  0
 21 26  2  0  0  0  0
 22 23  1  0  0  0  0
 23 24  1  0  0  0  0
 23 51  1  0  0  0  0
 23 52  1  0  0  0  0
 24 25  1  0  0  0  0
 24 53  1  0  0  0  0
 24 54  1  0  0  0  0
 25 55  1  0  0  0  0
 25 56  1  0  0  0  0
 26 27  1  0  0  0  0
 26 28  1  0  0  0  0
 27 57  1  0  0  0  0
 27 58  1  0  0  0  0
 27 59  1  0  0  0  0
 28 60  1  0  0  0  0
 29 61  1  0  0  0  0
 30 31  1  0  0  0  0
 31 62  1  0  0  0  0
 31 63  1  0  0  0  0
M  END
>  <DRUGBANK_ID>
DB07626

>  <COMMON_NAME>
4-(2-aminoethoxy)-N-(3-chloro-2-ethoxy-5-piperidin-1-ylphenyl)-3,5-dimethylbenzamide

$$$$
