
 OpenBabel10282417072D

  8  3  0  0  0  0  0  0  0  0999 V2000
    0.1375    0.2382    0.0000 C   0  0  0  0  0  0  0  0  0  0  0  0
    0.5500    0.9526    0.0000 O   0  0  0  0  0  0  0  0  0  0  0  0
    0.5500   -0.4763    0.0000 O   0  5  0  0  0  0  0  0  0  0  0  0
   -0.6875    0.2382    0.0000 O   0  5  0  0  0  0  0  0  0  0  0  0
    3.3196    0.0000    0.0000 O   0  6  0  0  0  0  0  0  0  0  0  0
    0.0000   -2.8408    0.0000 O   0  6  0  0  0  0  0  0  0  0  0  0
    0.9625   -1.1908    0.0000 Bi  0  1  0  0  0  0  0  0  0  0  0  0
   -1.5125    0.2382    0.0000 Bi  0  1  0  0  0  0  0  0  0  0  0  0
  1  2  2  0  0  0  0
  1  3  1  0  0  0  0
  1  4  1  0  0  0  0
M  CHG  6   3  -1   4  -1   5  -2   6  -2   7   3   8   3
M  END
>  <DRUGBANK_ID>
DB11281

>  <COMMON_NAME>
Bismuth subcarbonate

>  <CAS_NUMBER>
5892-10-4

>  <UNII>
M41L2IN55T

>  <SYNONYMS>
2,4-Dioxa-1,5-dibismapentane, 1,3,5-trioxo-; Bismuth carbonate; Bismuth oxycarbonate; Bismuth subcarbonate; Bismuthyl carbonate

$$$$
