
 OpenBabel10282417072D

 51 54  0  0  0  0  0  0  0  0999 V2000
    3.4274   -1.0194    0.0000 C   0  0  0  0  0  0  0  0  0  0  0  0
    2.8439   -0.4360    0.0000 C   0  0  0  0  0  0  0  0  0  0  0  0
    1.8335   -1.4465    0.0000 C   0  0  0  0  0  0  0  0  0  0  0  0
    2.4169   -2.0298    0.0000 C   0  0  0  0  0  0  0  0  0  0  0  0
    3.2138   -1.8163    0.0000 C   0  0  0  0  0  0  0  0  0  0  0  0
    3.7973   -2.3997    0.0000 F   0  0  0  0  0  0  0  0  0  0  0  0
    2.0470   -0.6496    0.0000 C   0  0  0  0  0  0  0  0  0  0  0  0
    0.6386   -0.0661    0.0000 C   0  0  0  0  0  0  0  0  0  0  0  0
    0.0552   -0.6496    0.0000 O   0  0  0  0  0  0  0  0  0  0  0  0
    1.4637   -0.0661    0.0000 N   0  0  0  0  0  0  0  0  0  0  0  0
    0.6387    0.7588    0.0000 C   0  0  1  0  0  0  0  0  0  0  0  0
    1.4637    1.5839    0.0000 H   0  0  0  0  0  0  0  0  0  0  0  0
    3.6263    1.1541    0.0000 C   0  0  0  0  0  0  0  0  0  0  0  0
    2.8978    2.3836    0.0000 C   0  0  0  0  0  0  0  0  0  0  0  0
    2.1881    1.9630    0.0000 C   0  0  0  0  0  0  0  0  0  0  0  0
    2.9164    0.7337    0.0000 C   0  0  0  0  0  0  0  0  0  0  0  0
    3.6170    1.9791    0.0000 C   0  0  0  0  0  0  0  0  0  0  0  0
    4.3269    2.3997    0.0000 O   0  0  0  0  0  0  0  0  0  0  0  0
    2.1973    1.1381    0.0000 C   0  0  0  0  0  0  0  0  0  0  0  0
    1.4637    0.7588    0.0000 C   0  0  1  0  0  0  0  0  0  0  0  0
   -0.0741    1.1632    0.0000 C   0  0  0  0  0  0  0  0  0  0  0  0
   -2.8981   -0.5444    0.0000 C   0  0  0  0  0  0  0  0  0  0  0  0
   -3.6209   -0.1464    0.0000 C   0  0  0  0  0  0  0  0  0  0  0  0
   -2.2088    0.7074    0.0000 C   0  0  0  0  0  0  0  0  0  0  0  0
   -2.1921   -0.1174    0.0000 C   0  0  0  0  0  0  0  0  0  0  0  0
   -3.6375    0.6784    0.0000 C   0  0  0  0  0  0  0  0  0  0  0  0
   -2.9315    1.1053    0.0000 C   0  0  0  0  0  0  0  0  0  0  0  0
   -0.7802    0.7363    0.0000 C   0  0  0  0  0  0  0  0  0  0  0  0
   -4.3269   -0.5734    0.0000 F   0  0  0  0  0  0  0  0  0  0  0  0
   -1.5029    1.1342    0.0000 C   0  0  2  0  0  0  0  0  0  0  0  0
   -1.5197    1.9591    0.0000 O   0  0  0  0  0  0  0  0  0  0  0  0
    0.6415    1.5808    0.0000 H   0  0  0  0  0  0  0  0  0  0  0  0
    4.4242   -0.7523    0.0000 H   0  0  0  0  0  0  0  0  0  0  0  0
    3.1109    0.5609    0.0000 H   0  0  0  0  0  0  0  0  0  0  0  0
    0.8367   -1.7137    0.0000 H   0  0  0  0  0  0  0  0  0  0  0  0
    2.1498   -3.0266    0.0000 H   0  0  0  0  0  0  0  0  0  0  0  0
    4.5257    0.6481    0.0000 H   0  0  0  0  0  0  0  0  0  0  0  0
    2.8861    3.4155    0.0000 H   0  0  0  0  0  0  0  0  0  0  0  0
    1.2886    2.4689    0.0000 H   0  0  0  0  0  0  0  0  0  0  0  0
    2.9279   -0.2982    0.0000 H   0  0  0  0  0  0  0  0  0  0  0  0
    5.1436    1.9404    0.0000 H   0  0  0  0  0  0  0  0  0  0  0  0
   -0.0889    2.2331    0.0000 H   0  0  0  0  0  0  0  0  0  0  0  0
   -1.0097    1.6823    0.0000 H   0  0  0  0  0  0  0  0  0  0  0  0
   -2.8771   -1.5762    0.0000 H   0  0  0  0  0  0  0  0  0  0  0  0
   -1.2881   -0.6152    0.0000 H   0  0  0  0  0  0  0  0  0  0  0  0
   -4.5415    1.1763    0.0000 H   0  0  0  0  0  0  0  0  0  0  0  0
   -2.9524    2.1371    0.0000 H   0  0  0  0  0  0  0  0  0  0  0  0
   -0.7585   -0.3335    0.0000 H   0  0  0  0  0  0  0  0  0  0  0  0
   -1.6958    0.1826    0.0000 H   0  0  0  0  0  0  0  0  0  0  0  0
   -2.4402    1.6503    0.0000 H   0  0  0  0  0  0  0  0  0  0  0  0
   -0.6897    2.4611    0.0000 H   0  0  0  0  0  0  0  0  0  0  0  0
  1  2  1  0  0  0  0
  1  5  2  0  0  0  0
  1 33  1  0  0  0  0
  2  7  2  0  0  0  0
  2 34  1  0  0  0  0
  3  4  2  0  0  0  0
  3 35  1  0  0  0  0
  4  5  1  0  0  0  0
  4 36  1  0  0  0  0
  5  6  1  0  0  0  0
  7  3  1  0  0  0  0
  7 10  1  0  0  0  0
  8 10  1  0  0  0  0
  8  9  2  0  0  0  0
 10 20  1  0  0  0  0
 11  8  1  0  0  0  0
 11 21  1  0  0  0  0
 11 32  1  1  0  0  0
 13 17  2  0  0  0  0
 13 16  1  0  0  0  0
 13 37  1  0  0  0  0
 14 15  2  0  0  0  0
 14 38  1  0  0  0  0
 15 19  1  0  0  0  0
 15 39  1  0  0  0  0
 16 40  1  0  0  0  0
 17 14  1  0  0  0  0
 17 18  1  0  0  0  0
 18 41  1  0  0  0  0
 19 16  2  0  0  0  0
 19 20  1  0  0  0  0
 20 11  1  0  0  0  0
 20 12  1  6  0  0  0
 21 28  1  0  0  0  0
 21 42  1  0  0  0  0
 21 43  1  0  0  0  0
 22 23  1  0  0  0  0
 22 44  1  0  0  0  0
 23 29  1  0  0  0  0
 23 26  2  0  0  0  0
 25 24  1  0  0  0  0
 25 22  2  0  0  0  0
 25 45  1  0  0  0  0
 26 27  1  0  0  0  0
 26 46  1  0  0  0  0
 27 24  2  0  0  0  0
 27 47  1  0  0  0  0
 28 30  1  0  0  0  0
 28 48  1  0  0  0  0
 28 49  1  0  0  0  0
 30 24  1  0  0  0  0
 30 31  1  0  0  0  0
 30 50  1  6  0  0  0
 31 51  1  0  0  0  0
M  END
>  <DRUGBANK_ID>
DB00973

>  <SECONDARY_ACCESSION_NUMBERS>
APRD00619

>  <COMMON_NAME>
Ezetimibe

>  <CAS_NUMBER>
163222-33-1

>  <UNII>
EOR26LQQ24

>  <SYNONYMS>
Ezetimiba; ézétimibe; Ezetimibe; Ezetimibum

$$$$
