
 OpenBabel10282417072D

 25 25  0  0  0  0  0  0  0  0999 V2000
   -0.0029   -0.6165    0.0000 C   0  0  0  0  0  0  0  0  0  0  0  0
   -0.7219   -0.2145    0.0000 C   0  0  0  0  0  0  0  0  0  0  0  0
    0.7142   -0.2145    0.0000 C   0  0  0  0  0  0  0  0  0  0  0  0
   -0.0029   -1.4477    0.0000 C   0  0  0  0  0  0  0  0  0  0  0  0
   -0.7219    0.6165    0.0000 C   0  0  0  0  0  0  0  0  0  0  0  0
   -1.4293   -0.6282    0.0000 Cl  0  0  0  0  0  0  0  0  0  0  0  0
    0.7142    0.6165    0.0000 C   0  0  0  0  0  0  0  0  0  0  0  0
    0.7142   -1.8497    0.0000 C   0  0  0  0  0  0  0  0  0  0  0  0
   -0.7219   -1.8497    0.0000 C   0  0  0  0  0  0  0  0  0  0  0  0
   -0.0029    1.0302    0.0000 C   0  0  0  0  0  0  0  0  0  0  0  0
    1.4293    1.0302    0.0000 O   0  0  0  0  0  0  0  0  0  0  0  0
   -0.0029    1.8497    0.0000 C   0  0  0  0  0  0  0  0  0  0  0  0
    1.6047   -0.7361    0.0000 H   0  0  0  0  0  0  0  0  0  0  0  0
   -0.0035   -2.5177    0.0000 H   0  0  0  0  0  0  0  0  0  0  0  0
   -1.6153    1.1332    0.0000 H   0  0  0  0  0  0  0  0  0  0  0  0
    0.7277   -2.9196    0.0000 H   0  0  0  0  0  0  0  0  0  0  0  0
    1.6340   -1.3030    0.0000 H   0  0  0  0  0  0  0  0  0  0  0  0
    1.6475   -2.3729    0.0000 H   0  0  0  0  0  0  0  0  0  0  0  0
   -1.6411   -1.3020    0.0000 H   0  0  0  0  0  0  0  0  0  0  0  0
   -0.7367   -2.9196    0.0000 H   0  0  0  0  0  0  0  0  0  0  0  0
   -1.6558   -2.3719    0.0000 H   0  0  0  0  0  0  0  0  0  0  0  0
    2.2412    0.5624    0.0000 H   0  0  0  0  0  0  0  0  0  0  0  0
    0.9237    2.3847    0.0000 H   0  0  0  0  0  0  0  0  0  0  0  0
   -0.9295    2.3847    0.0000 H   0  0  0  0  0  0  0  0  0  0  0  0
   -0.0029    2.9197    0.0000 H   0  0  0  0  0  0  0  0  0  0  0  0
  1  2  2  0  0  0  0
  1  3  1  0  0  0  0
  1  4  1  0  0  0  0
  2  5  1  0  0  0  0
  2  6  1  0  0  0  0
  3  7  2  0  0  0  0
  3 13  1  0  0  0  0
  4  8  1  0  0  0  0
  4  9  1  0  0  0  0
  4 14  1  0  0  0  0
  5 10  2  0  0  0  0
  5 15  1  0  0  0  0
  7 11  1  0  0  0  0
  7 10  1  0  0  0  0
  8 16  1  0  0  0  0
  8 17  1  0  0  0  0
  8 18  1  0  0  0  0
  9 19  1  0  0  0  0
  9 20  1  0  0  0  0
  9 21  1  0  0  0  0
 10 12  1  0  0  0  0
 11 22  1  0  0  0  0
 12 23  1  0  0  0  0
 12 24  1  0  0  0  0
 12 25  1  0  0  0  0
M  END
>  <DRUGBANK_ID>
DB15886

>  <COMMON_NAME>
Carvasept

>  <CAS_NUMBER>
5665-94-1

>  <UNII>
5EL163606Q

>  <SYNONYMS>
Carvasept; Chlorcarvacrol; Chlorocarvacrol; MCIT

$$$$
