
 OpenBabel10282417072D

203206  0  0  0  0  0  0  0  0999 V2000
   -7.9109    1.0931    0.0000 S   0  0  0  0  0  0  0  0  0  0  0  0
   -7.0859    1.0931    0.0000 C   0  0  0  0  0  0  0  0  0  0  0  0
   -6.8384    1.8769    0.0000 C   0  0  2  0  0  0  0  0  0  0  0  0
   -7.4984    2.3719    0.0000 N   0  0  0  0  0  0  0  0  0  0  0  0
   -8.1584    1.8769    0.0000 C   0  0  0  0  0  0  0  0  0  0  0  0
   -8.8596    2.2894    0.0000 C   0  0  1  0  0  0  0  0  0  0  0  0
   -9.6022    1.8769    0.0000 N   0  0  0  0  0  0  0  0  0  0  0  0
   -6.1371    2.2894    0.0000 C   0  0  0  0  0  0  0  0  0  0  0  0
   -5.3946    1.8769    0.0000 N   0  0  0  0  0  0  0  0  0  0  0  0
   -4.6933    2.2894    0.0000 C   0  0  2  0  0  0  0  0  0  0  0  0
   -3.9920    1.8769    0.0000 C   0  0  0  0  0  0  0  0  0  0  0  0
   -3.2495    2.2894    0.0000 N   0  0  0  0  0  0  0  0  0  0  0  0
   -2.5483    1.8769    0.0000 C   0  0  1  0  0  0  0  0  0  0  0  0
   -1.8470    2.2894    0.0000 C   0  0  0  0  0  0  0  0  0  0  0  0
   -1.1045    1.8769    0.0000 N   0  0  0  0  0  0  0  0  0  0  0  0
   -0.4032    2.2894    0.0000 C   0  0  2  0  0  0  0  0  0  0  0  0
    0.2980    1.8769    0.0000 C   0  0  0  0  0  0  0  0  0  0  0  0
    1.0405    2.2894    0.0000 N   0  0  0  0  0  0  0  0  0  0  0  0
    1.7418    1.8769    0.0000 C   0  0  2  0  0  0  0  0  0  0  0  0
    2.4430    2.2894    0.0000 C   0  0  0  0  0  0  0  0  0  0  0  0
    3.1442    1.8769    0.0000 N   0  0  0  0  0  0  0  0  0  0  0  0
    3.8868    2.2894    0.0000 C   0  0  1  0  0  0  0  0  0  0  0  0
    4.5880    1.8769    0.0000 C   0  0  0  0  0  0  0  0  0  0  0  0
    5.2893    2.2894    0.0000 N   0  0  0  0  0  0  0  0  0  0  0  0
   -8.8596    3.1145    0.0000 C   0  0  1  0  0  0  0  0  0  0  0  0
   -8.1584    3.5269    0.0000 C   0  0  0  0  0  0  0  0  0  0  0  0
   -9.5609    3.5269    0.0000 C   0  0  0  0  0  0  0  0  0  0  0  0
   -9.5609    4.3520    0.0000 C   0  0  0  0  0  0  0  0  0  0  0  0
   -6.1371    3.1145    0.0000 O   0  0  0  0  0  0  0  0  0  0  0  0
   -3.9920    1.0519    0.0000 O   0  0  0  0  0  0  0  0  0  0  0  0
   -1.8470    3.1145    0.0000 O   0  0  0  0  0  0  0  0  0  0  0  0
    0.2980    1.0519    0.0000 O   0  0  0  0  0  0  0  0  0  0  0  0
    2.4430    3.1145    0.0000 O   0  0  0  0  0  0  0  0  0  0  0  0
    4.5880    1.0519    0.0000 O   0  0  0  0  0  0  0  0  0  0  0  0
   -4.7758    3.4445    0.0000 C   0  0  0  0  0  0  0  0  0  0  0  0
   -4.0746    3.8570    0.0000 C   0  0  0  0  0  0  0  0  0  0  0  0
   -3.3733    3.4445    0.0000 C   0  0  0  0  0  0  0  0  0  0  0  0
   -4.0746    4.6820    0.0000 C   0  0  0  0  0  0  0  0  0  0  0  0
   -2.5483    1.0519    0.0000 C   0  0  0  0  0  0  0  0  0  0  0  0
   -3.2495    0.6394    0.0000 C   0  0  0  0  0  0  0  0  0  0  0  0
   -3.2495   -0.1855    0.0000 C   0  0  0  0  0  0  0  0  0  0  0  0
   -3.9920   -0.5980    0.0000 O   0  0  0  0  0  0  0  0  0  0  0  0
   -2.5483   -0.5980    0.0000 O   0  0  0  0  0  0  0  0  0  0  0  0
   -0.4032    3.1145    0.0000 C   0  0  2  0  0  0  0  0  0  0  0  0
   -1.1045    3.5269    0.0000 C   0  0  0  0  0  0  0  0  0  0  0  0
    0.2980    3.5269    0.0000 C   0  0  0  0  0  0  0  0  0  0  0  0
   -1.1045    4.3520    0.0000 C   0  0  0  0  0  0  0  0  0  0  0  0
    1.7418    1.0519    0.0000 C   0  0  0  0  0  0  0  0  0  0  0  0
    3.8868    3.1145    0.0000 C   0  0  0  0  0  0  0  0  0  0  0  0
    5.9906    1.8769    0.0000 C   0  0  2  0  0  0  0  0  0  0  0  0
    5.9906    0.6394    0.0000 C   0  0  0  0  0  0  0  0  0  0  0  0
    5.2893    0.2269    0.0000 O   0  0  0  0  0  0  0  0  0  0  0  0
    6.7331    0.2269    0.0000 N   0  0  0  0  0  0  0  0  0  0  0  0
    6.7331   -0.8868    0.0000 C   0  0  1  0  0  0  0  0  0  0  0  0
    5.9906   -1.2993    0.0000 C   0  0  0  0  0  0  0  0  0  0  0  0
    5.9906   -2.1243    0.0000 N   0  0  0  0  0  0  0  0  0  0  0  0
    5.2893   -0.8868    0.0000 O   0  0  0  0  0  0  0  0  0  0  0  0
    5.2893   -2.5368    0.0000 C   0  0  2  0  0  0  0  0  0  0  0  0
    4.5880   -2.1243    0.0000 C   0  0  0  0  0  0  0  0  0  0  0  0
    3.8455   -2.5368    0.0000 N   0  0  0  0  0  0  0  0  0  0  0  0
    4.5880   -1.2993    0.0000 O   0  0  0  0  0  0  0  0  0  0  0  0
    3.1311   -2.1243    0.0000 C   0  0  1  0  0  0  0  0  0  0  0  0
    2.4166   -2.5368    0.0000 C   0  0  0  0  0  0  0  0  0  0  0  0
    1.7021   -2.1243    0.0000 N   0  0  0  0  0  0  0  0  0  0  0  0
    2.4166   -3.3618    0.0000 O   0  0  0  0  0  0  0  0  0  0  0  0
    1.0273    0.6394    0.0000 C   0  0  0  0  0  0  0  0  0  0  0  0
    4.6012    3.5269    0.0000 C   0  0  0  0  0  0  0  0  0  0  0  0
    4.6012    4.3520    0.0000 C   0  0  0  0  0  0  0  0  0  0  0  0
    3.8868    4.7645    0.0000 N   0  0  0  0  0  0  0  0  0  0  0  0
    6.7051    2.2894    0.0000 C   0  0  1  0  0  0  0  0  0  0  0  0
    7.4096    1.8826    0.0000 C   0  0  0  0  0  0  0  0  0  0  0  0
    6.7051    3.1143    0.0000 C   0  0  0  0  0  0  0  0  0  0  0  0
    7.4196    3.5269    0.0000 C   0  0  0  0  0  0  0  0  0  0  0  0
    7.4476   -1.2993    0.0000 C   0  0  0  0  0  0  0  0  0  0  0  0
    8.1621   -0.8868    0.0000 C   0  0  0  0  0  0  0  0  0  0  0  0
    8.8876   -1.3058    0.0000 C   0  0  0  0  0  0  0  0  0  0  0  0
    9.6021   -0.8934    0.0000 C   0  0  0  0  0  0  0  0  0  0  0  0
    9.6022   -0.0684    0.0000 C   0  0  0  0  0  0  0  0  0  0  0  0
    8.8767    0.3505    0.0000 C   0  0  0  0  0  0  0  0  0  0  0  0
    8.1622   -0.0617    0.0000 C   0  0  0  0  0  0  0  0  0  0  0  0
    5.2893   -3.3618    0.0000 C   0  0  0  0  0  0  0  0  0  0  0  0
    6.0038   -3.7743    0.0000 C   0  0  0  0  0  0  0  0  0  0  0  0
    6.0899   -4.5934    0.0000 N   0  0  0  0  0  0  0  0  0  0  0  0
    6.8954   -4.7646    0.0000 C   0  0  0  0  0  0  0  0  0  0  0  0
    7.3072   -4.0514    0.0000 N   0  0  0  0  0  0  0  0  0  0  0  0
    6.7561   -3.4394    0.0000 C   0  0  0  0  0  0  0  0  0  0  0  0
    0.9876   -2.5368    0.0000 C   0  0  2  0  0  0  0  0  0  0  0  0
    0.2731   -2.1243    0.0000 C   0  0  0  0  0  0  0  0  0  0  0  0
    0.2731   -1.2993    0.0000 N   0  0  0  0  0  0  0  0  0  0  0  0
   -0.4413   -2.5368    0.0000 O   0  0  0  0  0  0  0  0  0  0  0  0
    0.9876   -3.3618    0.0000 C   0  0  0  0  0  0  0  0  0  0  0  0
    0.2731   -3.7743    0.0000 C   0  0  0  0  0  0  0  0  0  0  0  0
    0.2731   -4.5993    0.0000 O   0  0  0  0  0  0  0  0  0  0  0  0
   -0.4413   -3.3618    0.0000 N   0  0  0  0  0  0  0  0  0  0  0  0
    1.0273   -0.1855    0.0000 C   0  0  0  0  0  0  0  0  0  0  0  0
    3.1311   -0.9693    0.0000 C   0  0  0  0  0  0  0  0  0  0  0  0
    0.3127   -0.5980    0.0000 C   0  0  0  0  0  0  0  0  0  0  0  0
    2.4166   -0.5568    0.0000 C   0  0  0  0  0  0  0  0  0  0  0  0
    1.7021   -0.9693    0.0000 O   0  0  0  0  0  0  0  0  0  0  0  0
    2.4166    0.2681    0.0000 O   0  0  0  0  0  0  0  0  0  0  0  0
   -6.4534    0.2301    0.0000 H   0  0  0  0  0  0  0  0  0  0  0  0
   -6.0301    1.2671    0.0000 H   0  0  0  0  0  0  0  0  0  0  0  0
   -6.0014    1.2104    0.0000 H   0  0  0  0  0  0  0  0  0  0  0  0
   -8.8728    1.2195    0.0000 H   0  0  0  0  0  0  0  0  0  0  0  0
  -10.4770    2.4015    0.0000 H   0  0  0  0  0  0  0  0  0  0  0  0
   -9.6191    0.8570    0.0000 H   0  0  0  0  0  0  0  0  0  0  0  0
   -5.3825    0.8925    0.0000 H   0  0  0  0  0  0  0  0  0  0  0  0
   -5.6404    2.7872    0.0000 H   0  0  0  0  0  0  0  0  0  0  0  0
   -3.2374    3.2738    0.0000 H   0  0  0  0  0  0  0  0  0  0  0  0
   -3.4771    1.3457    0.0000 H   0  0  0  0  0  0  0  0  0  0  0  0
   -1.0924    0.8925    0.0000 H   0  0  0  0  0  0  0  0  0  0  0  0
   -0.4032    1.2194    0.0000 H   0  0  0  0  0  0  0  0  0  0  0  0
    1.0526    3.2738    0.0000 H   0  0  0  0  0  0  0  0  0  0  0  0
    0.8130    1.3457    0.0000 H   0  0  0  0  0  0  0  0  0  0  0  0
    3.1320    0.8925    0.0000 H   0  0  0  0  0  0  0  0  0  0  0  0
    2.9646    2.8321    0.0000 H   0  0  0  0  0  0  0  0  0  0  0  0
    5.2893    3.2739    0.0000 H   0  0  0  0  0  0  0  0  0  0  0  0
   -7.9308    2.5832    0.0000 H   0  0  0  0  0  0  0  0  0  0  0  0
   -7.2275    2.9994    0.0000 H   0  0  0  0  0  0  0  0  0  0  0  0
   -8.1670    4.5969    0.0000 H   0  0  0  0  0  0  0  0  0  0  0  0
   -7.2361    4.0693    0.0000 H   0  0  0  0  0  0  0  0  0  0  0  0
  -10.4897    2.9956    0.0000 H   0  0  0  0  0  0  0  0  0  0  0  0
  -10.4865    4.0637    0.0000 H   0  0  0  0  0  0  0  0  0  0  0  0
   -8.6343    4.8870    0.0000 H   0  0  0  0  0  0  0  0  0  0  0  0
  -10.4875    4.8870    0.0000 H   0  0  0  0  0  0  0  0  0  0  0  0
   -9.5609    5.4220    0.0000 H   0  0  0  0  0  0  0  0  0  0  0  0
   -5.7230    3.9423    0.0000 H   0  0  0  0  0  0  0  0  0  0  0  0
   -4.8014    4.5142    0.0000 H   0  0  0  0  0  0  0  0  0  0  0  0
   -3.1458    4.3882    0.0000 H   0  0  0  0  0  0  0  0  0  0  0  0
   -3.3820    2.3745    0.0000 H   0  0  0  0  0  0  0  0  0  0  0  0
   -2.4424    3.9720    0.0000 H   0  0  0  0  0  0  0  0  0  0  0  0
   -2.4510    2.9020    0.0000 H   0  0  0  0  0  0  0  0  0  0  0  0
   -3.1480    5.2170    0.0000 H   0  0  0  0  0  0  0  0  0  0  0  0
   -5.0012    5.2170    0.0000 H   0  0  0  0  0  0  0  0  0  0  0  0
   -4.0746    5.7520    0.0000 H   0  0  0  0  0  0  0  0  0  0  0  0
   -1.6195    0.5207    0.0000 H   0  0  0  0  0  0  0  0  0  0  0  0
   -2.5418   -0.0181    0.0000 H   0  0  0  0  0  0  0  0  0  0  0  0
   -4.1783    1.1706    0.0000 H   0  0  0  0  0  0  0  0  0  0  0  0
   -4.1751    0.1025    0.0000 H   0  0  0  0  0  0  0  0  0  0  0  0
   -4.7956   -0.1162    0.0000 H   0  0  0  0  0  0  0  0  0  0  0  0
    0.5256    2.5832    0.0000 H   0  0  0  0  0  0  0  0  0  0  0  0
   -2.0333    2.9956    0.0000 H   0  0  0  0  0  0  0  0  0  0  0  0
   -2.0301    4.0637    0.0000 H   0  0  0  0  0  0  0  0  0  0  0  0
    1.2289    2.9994    0.0000 H   0  0  0  0  0  0  0  0  0  0  0  0
    0.2894    4.5969    0.0000 H   0  0  0  0  0  0  0  0  0  0  0  0
    1.2203    4.0693    0.0000 H   0  0  0  0  0  0  0  0  0  0  0  0
   -0.1779    4.8870    0.0000 H   0  0  0  0  0  0  0  0  0  0  0  0
   -2.0311    4.8870    0.0000 H   0  0  0  0  0  0  0  0  0  0  0  0
   -1.1045    5.4220    0.0000 H   0  0  0  0  0  0  0  0  0  0  0  0
    2.6684    0.5169    0.0000 H   0  0  0  0  0  0  0  0  0  0  0  0
    1.7418   -0.0181    0.0000 H   0  0  0  0  0  0  0  0  0  0  0  0
    2.9602    3.6495    0.0000 H   0  0  0  0  0  0  0  0  0  0  0  0
    3.8868    4.1845    0.0000 H   0  0  0  0  0  0  0  0  0  0  0  0
    5.0618    1.3457    0.0000 H   0  0  0  0  0  0  0  0  0  0  0  0
    7.5816    0.7262    0.0000 H   0  0  0  0  0  0  0  0  0  0  0  0
    7.6597   -0.3518    0.0000 H   0  0  0  0  0  0  0  0  0  0  0  0
    6.8452   -2.6131    0.0000 H   0  0  0  0  0  0  0  0  0  0  0  0
    6.2181   -3.0680    0.0000 H   0  0  0  0  0  0  0  0  0  0  0  0
    3.8374   -3.5213    0.0000 H   0  0  0  0  0  0  0  0  0  0  0  0
    4.0578   -1.5893    0.0000 H   0  0  0  0  0  0  0  0  0  0  0  0
    1.7021   -1.1398    0.0000 H   0  0  0  0  0  0  0  0  0  0  0  0
    0.1007    1.1744    0.0000 H   0  0  0  0  0  0  0  0  0  0  0  0
    0.1007    0.1044    0.0000 H   0  0  0  0  0  0  0  0  0  0  0  0
    5.5278    2.9919    0.0000 H   0  0  0  0  0  0  0  0  0  0  0  0
    5.5279    4.0619    0.0000 H   0  0  0  0  0  0  0  0  0  0  0  0
    5.5279    4.8870    0.0000 H   0  0  0  0  0  0  0  0  0  0  0  0
    4.6012    5.4220    0.0000 H   0  0  0  0  0  0  0  0  0  0  0  0
    3.8868    5.7845    0.0000 H   0  0  0  0  0  0  0  0  0  0  0  0
    3.0034    4.2545    0.0000 H   0  0  0  0  0  0  0  0  0  0  0  0
    6.7051    1.2194    0.0000 H   0  0  0  0  0  0  0  0  0  0  0  0
    7.4095    0.8126    0.0000 H   0  0  0  0  0  0  0  0  0  0  0  0
    8.3363    2.4175    0.0000 H   0  0  0  0  0  0  0  0  0  0  0  0
    8.3362    1.3475    0.0000 H   0  0  0  0  0  0  0  0  0  0  0  0
    5.7784    3.6493    0.0000 H   0  0  0  0  0  0  0  0  0  0  0  0
    6.7050    4.1843    0.0000 H   0  0  0  0  0  0  0  0  0  0  0  0
    8.3463    2.9920    0.0000 H   0  0  0  0  0  0  0  0  0  0  0  0
    7.4195    4.5969    0.0000 H   0  0  0  0  0  0  0  0  0  0  0  0
    8.3462    4.0620    0.0000 H   0  0  0  0  0  0  0  0  0  0  0  0
    7.4476   -2.3693    0.0000 H   0  0  0  0  0  0  0  0  0  0  0  0
    8.3742   -1.8343    0.0000 H   0  0  0  0  0  0  0  0  0  0  0  0
    8.8875   -2.3378    0.0000 H   0  0  0  0  0  0  0  0  0  0  0  0
   10.4958   -1.4095    0.0000 H   0  0  0  0  0  0  0  0  0  0  0  0
   10.4960    0.4475    0.0000 H   0  0  0  0  0  0  0  0  0  0  0  0
    8.8769    1.3825    0.0000 H   0  0  0  0  0  0  0  0  0  0  0  0
    7.2686    0.4545    0.0000 H   0  0  0  0  0  0  0  0  0  0  0  0
    4.3627   -3.8968    0.0000 H   0  0  0  0  0  0  0  0  0  0  0  0
    5.2893   -4.4318    0.0000 H   0  0  0  0  0  0  0  0  0  0  0  0
    7.3151   -5.7074    0.0000 H   0  0  0  0  0  0  0  0  0  0  0  0
    8.2863   -3.9485    0.0000 H   0  0  0  0  0  0  0  0  0  0  0  0
    6.9707   -2.4300    0.0000 H   0  0  0  0  0  0  0  0  0  0  0  0
    1.9142   -3.0718    0.0000 H   0  0  0  0  0  0  0  0  0  0  0  0
   -0.7110   -1.2715    0.0000 H   0  0  0  0  0  0  0  0  0  0  0  0
    1.9142   -3.8968    0.0000 H   0  0  0  0  0  0  0  0  0  0  0  0
    0.9876   -4.4318    0.0000 H   0  0  0  0  0  0  0  0  0  0  0  0
   -0.4413   -2.3773    0.0000 H   0  0  0  0  0  0  0  0  0  0  0  0
   -1.2939   -3.8540    0.0000 H   0  0  0  0  0  0  0  0  0  0  0  0
    1.9539   -0.7205    0.0000 H   0  0  0  0  0  0  0  0  0  0  0  0
    1.0272   -1.2555    0.0000 H   0  0  0  0  0  0  0  0  0  0  0  0
    4.0577   -0.4343    0.0000 H   0  0  0  0  0  0  0  0  0  0  0  0
    3.1311    0.1007    0.0000 H   0  0  0  0  0  0  0  0  0  0  0  0
   -0.5985   -0.0370    0.0000 H   0  0  0  0  0  0  0  0  0  0  0  0
   -0.6358   -1.0933    0.0000 H   0  0  0  0  0  0  0  0  0  0  0  0
    3.2281    0.7366    0.0000 H   0  0  0  0  0  0  0  0  0  0  0  0
  1  2  1  0  0  0  0
  1  5  1  0  0  0  0
  2101  1  0  0  0  0
  2102  1  0  0  0  0
  3  2  1  0  0  0  0
  3  4  1  0  0  0  0
  3  8  1  0  0  0  0
  3103  1  1  0  0  0
  4  5  2  0  0  0  0
  5  6  1  0  0  0  0
  6  7  1  0  0  0  0
  6 25  1  0  0  0  0
  6104  1  6  0  0  0
  7105  1  0  0  0  0
  7106  1  0  0  0  0
  8  9  1  0  0  0  0
  8 29  2  0  0  0  0
  9 10  1  0  0  0  0
  9107  1  0  0  0  0
 10 11  1  0  0  0  0
 10 35  1  0  0  0  0
 10108  1  6  0  0  0
 11 12  1  0  0  0  0
 11 30  2  0  0  0  0
 12 13  1  0  0  0  0
 12109  1  0  0  0  0
 13 14  1  0  0  0  0
 13 39  1  0  0  0  0
 13110  1  6  0  0  0
 14 15  1  0  0  0  0
 14 31  2  0  0  0  0
 15111  1  0  0  0  0
 16 15  1  0  0  0  0
 16 17  1  0  0  0  0
 16 44  1  0  0  0  0
 16112  1  6  0  0  0
 17 18  1  0  0  0  0
 17 32  2  0  0  0  0
 18 19  1  0  0  0  0
 18113  1  0  0  0  0
 19 20  1  0  0  0  0
 19 48  1  0  0  0  0
 19114  1  1  0  0  0
 20 21  1  0  0  0  0
 20 33  2  0  0  0  0
 21 22  1  0  0  0  0
 21115  1  0  0  0  0
 22 23  1  0  0  0  0
 22 49  1  0  0  0  0
 22116  1  1  0  0  0
 23 24  1  0  0  0  0
 23 34  2  0  0  0  0
 24117  1  0  0  0  0
 25 26  1  0  0  0  0
 25 27  1  0  0  0  0
 25118  1  1  0  0  0
 26119  1  0  0  0  0
 26120  1  0  0  0  0
 26121  1  0  0  0  0
 27 28  1  0  0  0  0
 27122  1  0  0  0  0
 27123  1  0  0  0  0
 28124  1  0  0  0  0
 28125  1  0  0  0  0
 28126  1  0  0  0  0
 35 36  1  0  0  0  0
 35127  1  0  0  0  0
 35128  1  0  0  0  0
 36 37  1  0  0  0  0
 36 38  1  0  0  0  0
 36129  1  0  0  0  0
 37130  1  0  0  0  0
 37131  1  0  0  0  0
 37132  1  0  0  0  0
 38133  1  0  0  0  0
 38134  1  0  0  0  0
 38135  1  0  0  0  0
 39 40  1  0  0  0  0
 39136  1  0  0  0  0
 39137  1  0  0  0  0
 40 41  1  0  0  0  0
 40138  1  0  0  0  0
 40139  1  0  0  0  0
 41 42  1  0  0  0  0
 41 43  2  0  0  0  0
 42140  1  0  0  0  0
 44 45  1  0  0  0  0
 44 46  1  0  0  0  0
 44141  1  1  0  0  0
 45 47  1  0  0  0  0
 45142  1  0  0  0  0
 45143  1  0  0  0  0
 46144  1  0  0  0  0
 46145  1  0  0  0  0
 46146  1  0  0  0  0
 47147  1  0  0  0  0
 47148  1  0  0  0  0
 47149  1  0  0  0  0
 48 66  1  0  0  0  0
 48150  1  0  0  0  0
 48151  1  0  0  0  0
 49 67  1  0  0  0  0
 49152  1  0  0  0  0
 49153  1  0  0  0  0
 50 24  1  0  0  0  0
 50 51  1  0  0  0  0
 50 70  1  0  0  0  0
 50154  1  6  0  0  0
 51 52  2  0  0  0  0
 51 53  1  0  0  0  0
 53 54  1  0  0  0  0
 53155  1  0  0  0  0
 54 55  1  0  0  0  0
 54 74  1  0  0  0  0
 54156  1  1  0  0  0
 55 56  1  0  0  0  0
 55 57  2  0  0  0  0
 56 58  1  0  0  0  0
 56157  1  0  0  0  0
 58 59  1  0  0  0  0
 58 81  1  0  0  0  0
 58158  1  6  0  0  0
 59 60  1  0  0  0  0
 59 61  2  0  0  0  0
 60 62  1  0  0  0  0
 60159  1  0  0  0  0
 62 63  1  0  0  0  0
 62 96  1  0  0  0  0
 62160  1  6  0  0  0
 63 64  1  0  0  0  0
 63 65  2  0  0  0  0
 64 87  1  0  0  0  0
 64161  1  0  0  0  0
 66 95  1  0  0  0  0
 66162  1  0  0  0  0
 66163  1  0  0  0  0
 67 68  1  0  0  0  0
 67164  1  0  0  0  0
 67165  1  0  0  0  0
 68 69  1  0  0  0  0
 68166  1  0  0  0  0
 68167  1  0  0  0  0
 69168  1  0  0  0  0
 69169  1  0  0  0  0
 70 71  1  0  0  0  0
 70 72  1  0  0  0  0
 70170  1  1  0  0  0
 71171  1  0  0  0  0
 71172  1  0  0  0  0
 71173  1  0  0  0  0
 72 73  1  0  0  0  0
 72174  1  0  0  0  0
 72175  1  0  0  0  0
 73176  1  0  0  0  0
 73177  1  0  0  0  0
 73178  1  0  0  0  0
 74 75  1  0  0  0  0
 74179  1  0  0  0  0
 74180  1  0  0  0  0
 75 76  2  0  0  0  0
 75 80  1  0  0  0  0
 76 77  1  0  0  0  0
 76181  1  0  0  0  0
 77 78  2  0  0  0  0
 77182  1  0  0  0  0
 78 79  1  0  0  0  0
 78183  1  0  0  0  0
 79 80  2  0  0  0  0
 79184  1  0  0  0  0
 80185  1  0  0  0  0
 81 82  1  0  0  0  0
 81186  1  0  0  0  0
 81187  1  0  0  0  0
 82 83  1  0  0  0  0
 82 86  2  0  0  0  0
 83 84  2  0  0  0  0
 84 85  1  0  0  0  0
 84188  1  0  0  0  0
 85 86  1  0  0  0  0
 85189  1  0  0  0  0
 86190  1  0  0  0  0
 87 88  1  0  0  0  0
 87 91  1  0  0  0  0
 87191  1  6  0  0  0
 88 89  1  0  0  0  0
 88 90  2  0  0  0  0
 89 97  1  0  0  0  0
 89192  1  0  0  0  0
 91 92  1  0  0  0  0
 91193  1  0  0  0  0
 91194  1  0  0  0  0
 92 93  2  0  0  0  0
 92 94  1  0  0  0  0
 94195  1  0  0  0  0
 94196  1  0  0  0  0
 95 97  1  0  0  0  0
 95197  1  0  0  0  0
 95198  1  0  0  0  0
 96 98  1  0  0  0  0
 96199  1  0  0  0  0
 96200  1  0  0  0  0
 97201  1  0  0  0  0
 97202  1  0  0  0  0
 98 99  2  0  0  0  0
 98100  1  0  0  0  0
100203  1  0  0  0  0
M  END
>  <DRUGBANK_ID>
DB00626

>  <SECONDARY_ACCESSION_NUMBERS>
APRD00816

>  <COMMON_NAME>
Bacitracin

>  <CAS_NUMBER>
1405-87-4

>  <UNII>
DDA3RRX0P7

>  <SYNONYMS>
Bacitracin; Bacitracin A; Bacitracina

$$$$
