
 OpenBabel10282417072D

 70 72  0  0  0  0  0  0  0  0999 V2000
    0.3417    2.0557    0.0000 S   0  0  0  0  0  0  0  0  0  0  0  0
    3.2121    0.4024    0.0000 S   0  0  0  0  0  0  0  0  0  0  0  0
    1.0594    0.8145    0.0000 C   0  0  0  0  0  0  0  0  0  0  0  0
    1.0449    1.6388    0.0000 C   0  0  0  0  0  0  0  0  0  0  0  0
    0.3612    0.4169    0.0000 C   0  0  0  0  0  0  0  0  0  0  0  0
   -0.3660    0.8388    0.0000 C   0  0  0  0  0  0  0  0  0  0  0  0
    2.5091    0.8193    0.0000 C   0  0  0  0  0  0  0  0  0  0  0  0
    1.7867    0.3975    0.0000 C   0  0  0  0  0  0  0  0  0  0  0  0
   -2.5187    2.0994    0.0000 N   0  3  0  0  0  0  0  0  0  0  0  0
   -1.7963    1.6775    0.0000 C   0  0  0  0  0  0  0  0  0  0  0  0
   -1.0787    0.4411    0.0000 C   0  0  0  0  0  0  0  0  0  0  0  0
   -0.3660    1.6484    0.0000 C   0  0  0  0  0  0  0  0  0  0  0  0
   -1.1224    2.0751    0.0000 C   0  0  0  0  0  0  0  0  0  0  0  0
   -1.8060    0.8630    0.0000 C   0  0  0  0  0  0  0  0  0  0  0  0
   -0.3950    2.4776    0.0000 O   0  0  0  0  0  0  0  0  0  0  0  0
    3.9297    0.8145    0.0000 O   0  0  0  0  0  0  0  0  0  0  0  0
    1.7673    2.0703    0.0000 C   0  0  0  0  0  0  0  0  0  0  0  0
    0.7685    2.7829    0.0000 O   0  0  0  0  0  0  0  0  0  0  0  0
   -0.0751    1.3430    0.0000 O   0  0  0  0  0  0  0  0  0  0  0  0
    3.6194   -0.3102    0.0000 O   0  0  0  0  0  0  0  0  0  0  0  0
    2.8000   -0.3102    0.0000 O   0  0  0  0  0  0  0  0  0  0  0  0
    0.3321   -0.4315    0.0000 C   0  0  0  0  0  0  0  0  0  0  0  0
    0.3757   -2.0751    0.0000 C   0  0  0  0  0  0  0  0  0  0  0  0
    2.5285    1.6194    0.0000 C   0  0  0  0  0  0  0  0  0  0  0  0
    0.4048   -2.9188    0.0000 N   0  0  0  0  0  0  0  0  0  0  0  0
   -0.3806   -0.8388    0.0000 C   0  0  0  0  0  0  0  0  0  0  0  0
    1.0594   -0.8533    0.0000 C   0  0  0  0  0  0  0  0  0  0  0  0
    1.0594   -1.6824    0.0000 C   0  0  0  0  0  0  0  0  0  0  0  0
   -0.3660   -1.6629    0.0000 C   0  0  0  0  0  0  0  0  0  0  0  0
   -3.2218    1.7115    0.0000 C   0  0  0  0  0  0  0  0  0  0  0  0
   -2.5041    2.9333    0.0000 C   0  0  0  0  0  0  0  0  0  0  0  0
    1.1176   -3.3261    0.0000 C   0  0  0  0  0  0  0  0  0  0  0  0
   -0.2787   -3.3648    0.0000 C   0  0  0  0  0  0  0  0  0  0  0  0
   -3.2073    3.3648    0.0000 C   0  0  0  0  0  0  0  0  0  0  0  0
   -3.9297    2.1430    0.0000 C   0  0  0  0  0  0  0  0  0  0  0  0
    1.8690   -2.9866    0.0000 C   0  0  0  0  0  0  0  0  0  0  0  0
   -1.0109   -2.9915    0.0000 C   0  0  0  0  0  0  0  0  0  0  0  0
    1.7908   -0.6345    0.0000 H   0  0  0  0  0  0  0  0  0  0  0  0
   -1.0873   -0.5909    0.0000 H   0  0  0  0  0  0  0  0  0  0  0  0
    0.5252    2.1689    0.0000 H   0  0  0  0  0  0  0  0  0  0  0  0
   -1.1324    3.1071    0.0000 H   0  0  0  0  0  0  0  0  0  0  0  0
   -2.7033    0.3533    0.0000 H   0  0  0  0  0  0  0  0  0  0  0  0
   -0.3984    3.4476    0.0000 H   0  0  0  0  0  0  0  0  0  0  0  0
    4.7686    0.3276    0.0000 H   0  0  0  0  0  0  0  0  0  0  0  0
    1.7654    3.1023    0.0000 H   0  0  0  0  0  0  0  0  0  0  0  0
    3.4312    2.1195    0.0000 H   0  0  0  0  0  0  0  0  0  0  0  0
   -1.2778   -0.3288    0.0000 H   0  0  0  0  0  0  0  0  0  0  0  0
    1.9536   -0.3382    0.0000 H   0  0  0  0  0  0  0  0  0  0  0  0
    1.9526   -2.1994    0.0000 H   0  0  0  0  0  0  0  0  0  0  0  0
   -1.2508   -2.1940    0.0000 H   0  0  0  0  0  0  0  0  0  0  0  0
   -3.2449    0.6418    0.0000 H   0  0  0  0  0  0  0  0  0  0  0  0
   -4.1604    1.1977    0.0000 H   0  0  0  0  0  0  0  0  0  0  0  0
   -1.5658    3.4477    0.0000 H   0  0  0  0  0  0  0  0  0  0  0  0
   -2.4779    4.0030    0.0000 H   0  0  0  0  0  0  0  0  0  0  0  0
    1.0669   -4.3949    0.0000 H   0  0  0  0  0  0  0  0  0  0  0  0
    2.0026   -3.9275    0.0000 H   0  0  0  0  0  0  0  0  0  0  0  0
   -0.2217   -4.4333    0.0000 H   0  0  0  0  0  0  0  0  0  0  0  0
   -1.1759   -3.9479    0.0000 H   0  0  0  0  0  0  0  0  0  0  0  0
   -3.1787    4.4344    0.0000 H   0  0  0  0  0  0  0  0  0  0  0  0
   -4.1479    2.8548    0.0000 H   0  0  0  0  0  0  0  0  0  0  0  0
   -4.1193    3.9244    0.0000 H   0  0  0  0  0  0  0  0  0  0  0  0
   -3.9042    3.2127    0.0000 H   0  0  0  0  0  0  0  0  0  0  0  0
   -4.8688    1.6302    0.0000 H   0  0  0  0  0  0  0  0  0  0  0  0
   -4.8433    2.6999    0.0000 H   0  0  0  0  0  0  0  0  0  0  0  0
    2.7381   -3.6108    0.0000 H   0  0  0  0  0  0  0  0  0  0  0  0
    1.9750   -1.9219    0.0000 H   0  0  0  0  0  0  0  0  0  0  0  0
    2.8441   -2.5460    0.0000 H   0  0  0  0  0  0  0  0  0  0  0  0
   -1.0666   -1.9230    0.0000 H   0  0  0  0  0  0  0  0  0  0  0  0
   -1.9084   -3.5740    0.0000 H   0  0  0  0  0  0  0  0  0  0  0  0
   -1.9642   -2.5055    0.0000 H   0  0  0  0  0  0  0  0  0  0  0  0
  2  7  1  0  0  0  0
  3  4  1  0  0  0  0
  4  1  1  0  0  0  0
  5  3  1  0  0  0  0
  6  5  2  0  0  0  0
  7  8  1  0  0  0  0
  8  3  2  0  0  0  0
  8 38  1  0  0  0  0
  9 10  2  0  0  0  0
 10 13  1  0  0  0  0
 10 14  1  0  0  0  0
 11  6  1  0  0  0  0
 11 39  1  0  0  0  0
 12  6  1  0  0  0  0
 12 40  1  0  0  0  0
 13 12  2  0  0  0  0
 13 41  1  0  0  0  0
 14 11  2  0  0  0  0
 14 42  1  0  0  0  0
 15  1  1  0  0  0  0
 15 43  1  0  0  0  0
 16  2  1  0  0  0  0
 16 44  1  0  0  0  0
 17  4  2  0  0  0  0
 17 45  1  0  0  0  0
 18  1  2  0  0  0  0
 19  1  2  0  0  0  0
 20  2  2  0  0  0  0
 21  2  2  0  0  0  0
 22  5  1  0  0  0  0
 23 29  2  0  0  0  0
 23 28  1  0  0  0  0
 24 17  1  0  0  0  0
 24  7  2  0  0  0  0
 24 46  1  0  0  0  0
 25 23  1  0  0  0  0
 26 22  2  0  0  0  0
 26 47  1  0  0  0  0
 27 22  1  0  0  0  0
 27 48  1  0  0  0  0
 28 27  2  0  0  0  0
 28 49  1  0  0  0  0
 29 26  1  0  0  0  0
 29 50  1  0  0  0  0
 30  9  1  0  0  0  0
 30 51  1  0  0  0  0
 30 52  1  0  0  0  0
 31  9  1  0  0  0  0
 31 53  1  0  0  0  0
 31 54  1  0  0  0  0
 32 25  1  0  0  0  0
 32 55  1  0  0  0  0
 32 56  1  0  0  0  0
 33 25  1  0  0  0  0
 33 57  1  0  0  0  0
 33 58  1  0  0  0  0
 34 31  1  0  0  0  0
 34 59  1  0  0  0  0
 34 60  1  0  0  0  0
 34 61  1  0  0  0  0
 35 30  1  0  0  0  0
 35 62  1  0  0  0  0
 35 63  1  0  0  0  0
 35 64  1  0  0  0  0
 36 32  1  0  0  0  0
 36 65  1  0  0  0  0
 36 66  1  0  0  0  0
 36 67  1  0  0  0  0
 37 33  1  0  0  0  0
 37 68  1  0  0  0  0
 37 69  1  0  0  0  0
 37 70  1  0  0  0  0
M  CHG  1   9   1
M  END
>  <DRUGBANK_ID>
DB09136

>  <COMMON_NAME>
Isosulfan blue

>  <CAS_NUMBER>
748080-29-7

>  <UNII>
NS6Q291771

>  <SYNONYMS>
Isosulfan blue inner salt

$$$$
