
 OpenBabel10282417072D

144145  0  0  0  0  0  0  0  0999 V2000
    6.6564   -4.6886    0.0000 Gd  0  1  0  0  0  0  0  0  0  0  0  0
   12.6665   -4.2635    0.0000 O   0  0  0  0  0  0  0  0  0  0  0  0
    2.0680   -4.4832    0.0000 O   0  0  0  0  0  0  0  0  0  0  0  0
    8.1659    0.6470    0.0000 O   0  0  0  0  0  0  0  0  0  0  0  0
    6.5011    0.6470    0.0000 O   0  0  0  0  0  0  0  0  0  0  0  0
   10.2282    1.3615    0.0000 O   0  0  0  0  0  0  0  0  0  0  0  0
    6.9136    2.7903    0.0000 O   0  0  0  0  0  0  0  0  0  0  0  0
   11.8781    2.7903    0.0000 O   0  0  0  0  0  0  0  0  0  0  0  0
    6.5011    4.9335    0.0000 O   0  0  0  0  0  0  0  0  0  0  0  0
   13.9404    3.5047    0.0000 O   0  0  0  0  0  0  0  0  0  0  0  0
    6.9136    7.0768    0.0000 O   0  0  0  0  0  0  0  0  0  0  0  0
    5.9420   -5.1011    0.0000 O   0  5  0  0  0  0  0  0  0  0  0  0
    6.7996   -3.8762    0.0000 O   0  5  0  0  0  0  0  0  0  0  0  0
    5.2276   -6.3385    0.0000 O   0  0  0  0  0  0  0  0  0  0  0  0
    7.4317   -4.4065    0.0000 O   0  0  0  0  0  0  0  0  0  0  0  0
    7.3708   -5.1011    0.0000 N   0  5  0  0  0  0  0  0  0  0  0  0
    8.5165   -3.8435    0.0000 N   0  0  0  0  0  0  0  0  0  0  0  0
    6.2066   -3.8062    0.0000 N   0  0  0  0  0  0  0  0  0  0  0  0
    8.1734   -2.2495    0.0000 N   0  0  0  0  0  0  0  0  0  0  0  0
    6.4936   -2.2495    0.0000 N   0  0  0  0  0  0  0  0  0  0  0  0
    7.7908   -6.3936    0.0000 C   0  0  0  0  0  0  0  0  0  0  0  0
    6.9509   -6.3936    0.0000 C   0  0  0  0  0  0  0  0  0  0  0  0
    8.0503   -5.5948    0.0000 C   0  0  0  0  0  0  0  0  0  0  0  0
    6.6913   -5.5948    0.0000 C   0  0  0  0  0  0  0  0  0  0  0  0
    9.8090   -4.2635    0.0000 C   0  0  0  0  0  0  0  0  0  0  0  0
    4.9141   -4.2262    0.0000 C   0  0  0  0  0  0  0  0  0  0  0  0
    8.3428   -7.0066    0.0000 C   0  0  0  0  0  0  0  0  0  0  0  0
    6.7235   -7.1867    0.0000 C   0  0  0  0  0  0  0  0  0  0  0  0
    9.0237   -4.5137    0.0000 C   0  0  0  0  0  0  0  0  0  0  0  0
    5.7179   -4.5137    0.0000 C   0  0  0  0  0  0  0  0  0  0  0  0
    8.8491   -5.3353    0.0000 C   0  0  0  0  0  0  0  0  0  0  0  0
    5.8926   -5.3353    0.0000 C   0  0  0  0  0  0  0  0  0  0  0  0
   10.5233   -4.6759    0.0000 C   0  0  0  0  0  0  0  0  0  0  0  0
    4.2397   -4.7012    0.0000 C   0  0  0  0  0  0  0  0  0  0  0  0
    9.8090   -3.4235    0.0000 C   0  0  0  0  0  0  0  0  0  0  0  0
    4.9141   -3.3862    0.0000 C   0  0  0  0  0  0  0  0  0  0  0  0
   11.2377   -4.2635    0.0000 C   0  0  0  0  0  0  0  0  0  0  0  0
    3.4910   -4.3547    0.0000 C   0  0  0  0  0  0  0  0  0  0  0  0
    9.0100   -3.1641    0.0000 C   0  0  0  0  0  0  0  0  0  0  0  0
    5.7130   -3.1267    0.0000 C   0  0  0  0  0  0  0  0  0  0  0  0
    8.0879   -7.7912    0.0000 C   0  0  0  0  0  0  0  0  0  0  0  0
    7.2966   -7.7800    0.0000 C   0  0  0  0  0  0  0  0  0  0  0  0
   10.4219   -2.8716    0.0000 C   0  0  0  0  0  0  0  0  0  0  0  0
    4.3011   -2.8343    0.0000 C   0  0  0  0  0  0  0  0  0  0  0  0
   11.9521   -4.6759    0.0000 C   0  0  0  0  0  0  0  0  0  0  0  0
    2.8167   -4.8296    0.0000 C   0  0  0  0  0  0  0  0  0  0  0  0
    8.7505   -2.3652    0.0000 C   0  0  0  0  0  0  0  0  0  0  0  0
    5.8876   -2.3051    0.0000 C   0  0  0  0  0  0  0  0  0  0  0  0
    7.7534   -1.5222    0.0000 C   0  0  0  0  0  0  0  0  0  0  0  0
    6.9136   -1.5222    0.0000 C   0  0  0  0  0  0  0  0  0  0  0  0
    8.1734   -0.7947    0.0000 C   0  0  0  0  0  0  0  0  0  0  0  0
    6.4936   -0.7947    0.0000 C   0  0  0  0  0  0  0  0  0  0  0  0
    7.7534   -0.0674    0.0000 C   0  0  0  0  0  0  0  0  0  0  0  0
    6.9136   -0.0674    0.0000 C   0  0  0  0  0  0  0  0  0  0  0  0
    8.9908    0.6470    0.0000 C   0  0  0  0  0  0  0  0  0  0  0  0
    6.9136    1.3615    0.0000 C   0  0  0  0  0  0  0  0  0  0  0  0
    9.4033    1.3615    0.0000 C   0  0  0  0  0  0  0  0  0  0  0  0
    6.5011    2.0758    0.0000 C   0  0  0  0  0  0  0  0  0  0  0  0
   10.6407    2.0758    0.0000 C   0  0  0  0  0  0  0  0  0  0  0  0
    6.5011    3.5046    0.0000 C   0  0  0  0  0  0  0  0  0  0  0  0
   11.4656    2.0758    0.0000 C   0  0  0  0  0  0  0  0  0  0  0  0
    6.9136    4.2192    0.0000 C   0  0  0  0  0  0  0  0  0  0  0  0
   12.7030    2.7903    0.0000 C   0  0  0  0  0  0  0  0  0  0  0  0
    6.9136    5.6480    0.0000 C   0  0  0  0  0  0  0  0  0  0  0  0
   13.1155    3.5047    0.0000 C   0  0  0  0  0  0  0  0  0  0  0  0
    6.5011    6.3623    0.0000 C   0  0  0  0  0  0  0  0  0  0  0  0
   14.3529    4.2192    0.0000 C   0  0  0  0  0  0  0  0  0  0  0  0
    6.5011    7.7912    0.0000 C   0  0  0  0  0  0  0  0  0  0  0  0
    6.0852   -6.7384    0.0000 C   0  0  0  0  0  0  0  0  0  0  0  0
    7.7181   -2.7817    0.0000 C   0  0  0  0  0  0  0  0  0  0  0  0
    5.9420   -5.9261    0.0000 C   0  0  0  0  0  0  0  0  0  0  0  0
    7.5748   -3.5941    0.0000 C   0  0  0  0  0  0  0  0  0  0  0  0
   13.5065   -4.7486    0.0000 H   0  0  0  0  0  0  0  0  0  0  0  0
    1.9806   -3.5171    0.0000 H   0  0  0  0  0  0  0  0  0  0  0  0
    9.3894   -6.7841    0.0000 H   0  0  0  0  0  0  0  0  0  0  0  0
    9.0588   -7.8017    0.0000 H   0  0  0  0  0  0  0  0  0  0  0  0
    5.6853   -7.4456    0.0000 H   0  0  0  0  0  0  0  0  0  0  0  0
    6.4287   -8.2153    0.0000 H   0  0  0  0  0  0  0  0  0  0  0  0
    9.6160   -6.0258    0.0000 H   0  0  0  0  0  0  0  0  0  0  0  0
    5.1257   -6.0259    0.0000 H   0  0  0  0  0  0  0  0  0  0  0  0
   10.5233   -5.7459    0.0000 H   0  0  0  0  0  0  0  0  0  0  0  0
   11.4499   -5.2109    0.0000 H   0  0  0  0  0  0  0  0  0  0  0  0
    4.3360   -5.7669    0.0000 H   0  0  0  0  0  0  0  0  0  0  0  0
    3.3650   -5.3174    0.0000 H   0  0  0  0  0  0  0  0  0  0  0  0
   11.2377   -3.1935    0.0000 H   0  0  0  0  0  0  0  0  0  0  0  0
   12.1643   -3.7285    0.0000 H   0  0  0  0  0  0  0  0  0  0  0  0
    3.3948   -3.2890    0.0000 H   0  0  0  0  0  0  0  0  0  0  0  0
    2.5200   -3.9052    0.0000 H   0  0  0  0  0  0  0  0  0  0  0  0
    7.0413   -8.0137    0.0000 H   0  0  0  0  0  0  0  0  0  0  0  0
    8.8039   -8.5863    0.0000 H   0  0  0  0  0  0  0  0  0  0  0  0
    7.7573   -8.8088    0.0000 H   0  0  0  0  0  0  0  0  0  0  0  0
    7.0018   -8.8086    0.0000 H   0  0  0  0  0  0  0  0  0  0  0  0
    8.3348   -7.5210    0.0000 H   0  0  0  0  0  0  0  0  0  0  0  0
    8.0400   -8.5496    0.0000 H   0  0  0  0  0  0  0  0  0  0  0  0
   11.4395   -3.2022    0.0000 H   0  0  0  0  0  0  0  0  0  0  0  0
   10.1994   -1.8250    0.0000 H   0  0  0  0  0  0  0  0  0  0  0  0
   11.2170   -2.1556    0.0000 H   0  0  0  0  0  0  0  0  0  0  0  0
    4.5235   -1.7877    0.0000 H   0  0  0  0  0  0  0  0  0  0  0  0
    3.2835   -3.1650    0.0000 H   0  0  0  0  0  0  0  0  0  0  0  0
    3.5059   -2.1184    0.0000 H   0  0  0  0  0  0  0  0  0  0  0  0
   11.9521   -5.7459    0.0000 H   0  0  0  0  0  0  0  0  0  0  0  0
   11.0255   -5.2109    0.0000 H   0  0  0  0  0  0  0  0  0  0  0  0
    2.9130   -5.8953    0.0000 H   0  0  0  0  0  0  0  0  0  0  0  0
    3.7877   -5.2791    0.0000 H   0  0  0  0  0  0  0  0  0  0  0  0
    9.4366   -1.5943    0.0000 H   0  0  0  0  0  0  0  0  0  0  0  0
    5.2021   -1.5336    0.0000 H   0  0  0  0  0  0  0  0  0  0  0  0
    9.2054   -0.7946    0.0000 H   0  0  0  0  0  0  0  0  0  0  0  0
    5.4616   -0.7946    0.0000 H   0  0  0  0  0  0  0  0  0  0  0  0
    9.5258   -0.2796    0.0000 H   0  0  0  0  0  0  0  0  0  0  0  0
   10.0608    0.6470    0.0000 H   0  0  0  0  0  0  0  0  0  0  0  0
    7.9836    1.3616    0.0000 H   0  0  0  0  0  0  0  0  0  0  0  0
    7.4485    2.2882    0.0000 H   0  0  0  0  0  0  0  0  0  0  0  0
    8.8683    2.2881    0.0000 H   0  0  0  0  0  0  0  0  0  0  0  0
    8.3333    1.3615    0.0000 H   0  0  0  0  0  0  0  0  0  0  0  0
    5.4311    2.0757    0.0000 H   0  0  0  0  0  0  0  0  0  0  0  0
    5.9662    1.1491    0.0000 H   0  0  0  0  0  0  0  0  0  0  0  0
   10.1057    3.0025    0.0000 H   0  0  0  0  0  0  0  0  0  0  0  0
   11.1757    3.0024    0.0000 H   0  0  0  0  0  0  0  0  0  0  0  0
    5.4311    3.5045    0.0000 H   0  0  0  0  0  0  0  0  0  0  0  0
    5.9660    4.4312    0.0000 H   0  0  0  0  0  0  0  0  0  0  0  0
   12.0006    1.1492    0.0000 H   0  0  0  0  0  0  0  0  0  0  0  0
   10.9306    1.1492    0.0000 H   0  0  0  0  0  0  0  0  0  0  0  0
    7.9836    4.2193    0.0000 H   0  0  0  0  0  0  0  0  0  0  0  0
    7.4487    3.2926    0.0000 H   0  0  0  0  0  0  0  0  0  0  0  0
   13.2380    1.8636    0.0000 H   0  0  0  0  0  0  0  0  0  0  0  0
   13.7730    2.7903    0.0000 H   0  0  0  0  0  0  0  0  0  0  0  0
    7.9836    5.6481    0.0000 H   0  0  0  0  0  0  0  0  0  0  0  0
    7.4485    6.5747    0.0000 H   0  0  0  0  0  0  0  0  0  0  0  0
   12.5805    4.4314    0.0000 H   0  0  0  0  0  0  0  0  0  0  0  0
   12.0455    3.5047    0.0000 H   0  0  0  0  0  0  0  0  0  0  0  0
    5.4311    6.3622    0.0000 H   0  0  0  0  0  0  0  0  0  0  0  0
    5.9662    5.4356    0.0000 H   0  0  0  0  0  0  0  0  0  0  0  0
   15.4229    4.2192    0.0000 H   0  0  0  0  0  0  0  0  0  0  0  0
   13.8179    5.1458    0.0000 H   0  0  0  0  0  0  0  0  0  0  0  0
   14.8879    5.1459    0.0000 H   0  0  0  0  0  0  0  0  0  0  0  0
    7.0361    8.7179    0.0000 H   0  0  0  0  0  0  0  0  0  0  0  0
    5.4311    7.7912    0.0000 H   0  0  0  0  0  0  0  0  0  0  0  0
    5.9661    8.7178    0.0000 H   0  0  0  0  0  0  0  0  0  0  0  0
    5.2655   -7.4262    0.0000 H   0  0  0  0  0  0  0  0  0  0  0  0
    7.0907   -7.1044    0.0000 H   0  0  0  0  0  0  0  0  0  0  0  0
    6.2710   -7.7922    0.0000 H   0  0  0  0  0  0  0  0  0  0  0  0
    8.7236   -2.4158    0.0000 H   0  0  0  0  0  0  0  0  0  0  0  0
    6.8985   -2.0939    0.0000 H   0  0  0  0  0  0  0  0  0  0  0  0
    7.9040   -1.7280    0.0000 H   0  0  0  0  0  0  0  0  0  0  0  0
  2 45  1  0  0  0  0
  2 73  1  0  0  0  0
  3 46  1  0  0  0  0
  3 74  1  0  0  0  0
  4 53  1  0  0  0  0
  4 55  1  0  0  0  0
  5 54  1  0  0  0  0
  5 56  1  0  0  0  0
  6 57  1  0  0  0  0
  6 59  1  0  0  0  0
  7 58  1  0  0  0  0
  7 60  1  0  0  0  0
  8 61  1  0  0  0  0
  8 63  1  0  0  0  0
  9 62  1  0  0  0  0
  9 64  1  0  0  0  0
 10 65  1  0  0  0  0
 10 67  1  0  0  0  0
 11 66  1  0  0  0  0
 11 68  1  0  0  0  0
 12 71  1  0  0  0  0
 13 72  1  0  0  0  0
 14 71  2  0  0  0  0
 15 72  2  0  0  0  0
 16 23  1  0  0  0  0
 16 24  1  0  0  0  0
 17 29  2  0  0  0  0
 17 39  1  0  0  0  0
 18 30  2  0  0  0  0
 18 40  1  0  0  0  0
 19 47  1  0  0  0  0
 19 49  2  0  0  0  0
 20 48  1  0  0  0  0
 20 50  2  0  0  0  0
 21 22  2  0  0  0  0
 21 23  1  0  0  0  0
 21 27  1  0  0  0  0
 22 24  1  0  0  0  0
 22 28  1  0  0  0  0
 23 31  2  0  0  0  0
 24 32  2  0  0  0  0
 25 29  1  0  0  0  0
 25 33  1  0  0  0  0
 25 35  2  0  0  0  0
 26 30  1  0  0  0  0
 26 34  1  0  0  0  0
 26 36  2  0  0  0  0
 27 41  1  0  0  0  0
 27 75  1  0  0  0  0
 27 76  1  0  0  0  0
 28 42  1  0  0  0  0
 28 77  1  0  0  0  0
 28 78  1  0  0  0  0
 29 31  1  0  0  0  0
 30 32  1  0  0  0  0
 31 79  1  0  0  0  0
 32 80  1  0  0  0  0
 33 37  1  0  0  0  0
 33 81  1  0  0  0  0
 33 82  1  0  0  0  0
 34 38  1  0  0  0  0
 34 83  1  0  0  0  0
 34 84  1  0  0  0  0
 35 39  1  0  0  0  0
 35 43  1  0  0  0  0
 36 40  1  0  0  0  0
 36 44  1  0  0  0  0
 37 45  1  0  0  0  0
 37 85  1  0  0  0  0
 37 86  1  0  0  0  0
 38 46  1  0  0  0  0
 38 87  1  0  0  0  0
 38 88  1  0  0  0  0
 39 47  2  0  0  0  0
 40 48  2  0  0  0  0
 41 89  1  0  0  0  0
 41 90  1  0  0  0  0
 41 91  1  0  0  0  0
 42 92  1  0  0  0  0
 42 93  1  0  0  0  0
 42 94  1  0  0  0  0
 43 95  1  0  0  0  0
 43 96  1  0  0  0  0
 43 97  1  0  0  0  0
 44 98  1  0  0  0  0
 44 99  1  0  0  0  0
 44100  1  0  0  0  0
 45101  1  0  0  0  0
 45102  1  0  0  0  0
 46103  1  0  0  0  0
 46104  1  0  0  0  0
 47105  1  0  0  0  0
 48106  1  0  0  0  0
 49 50  1  0  0  0  0
 49 51  1  0  0  0  0
 50 52  1  0  0  0  0
 51 53  2  0  0  0  0
 51107  1  0  0  0  0
 52 54  2  0  0  0  0
 52108  1  0  0  0  0
 53 54  1  0  0  0  0
 55 57  1  0  0  0  0
 55109  1  0  0  0  0
 55110  1  0  0  0  0
 56 58  1  0  0  0  0
 56111  1  0  0  0  0
 56112  1  0  0  0  0
 57113  1  0  0  0  0
 57114  1  0  0  0  0
 58115  1  0  0  0  0
 58116  1  0  0  0  0
 59 61  1  0  0  0  0
 59117  1  0  0  0  0
 59118  1  0  0  0  0
 60 62  1  0  0  0  0
 60119  1  0  0  0  0
 60120  1  0  0  0  0
 61121  1  0  0  0  0
 61122  1  0  0  0  0
 62123  1  0  0  0  0
 62124  1  0  0  0  0
 63 65  1  0  0  0  0
 63125  1  0  0  0  0
 63126  1  0  0  0  0
 64 66  1  0  0  0  0
 64127  1  0  0  0  0
 64128  1  0  0  0  0
 65129  1  0  0  0  0
 65130  1  0  0  0  0
 66131  1  0  0  0  0
 66132  1  0  0  0  0
 67133  1  0  0  0  0
 67134  1  0  0  0  0
 67135  1  0  0  0  0
 68136  1  0  0  0  0
 68137  1  0  0  0  0
 68138  1  0  0  0  0
 69 71  1  0  0  0  0
 69139  1  0  0  0  0
 69140  1  0  0  0  0
 69141  1  0  0  0  0
 70 72  1  0  0  0  0
 70142  1  0  0  0  0
 70143  1  0  0  0  0
 70144  1  0  0  0  0
M  CHG  4   1   3  12  -1  13  -1  16  -1
M  END
>  <DRUGBANK_ID>
DB05428

>  <COMMON_NAME>
Motexafin gadolinium

>  <CAS_NUMBER>
246252-06-2

>  <UNII>
0BG5NE3APZ

>  <SYNONYMS>
Gadolinium texaphyrin; Motexafin gadolinium

$$$$
