
 OpenBabel10282417072D

  3  1  0  0  0  0  0  0  0  0999 V2000
   -0.4125    0.0000    0.0000 Li  0  3  0  0  0  0  0  0  0  0  0  0
    0.4125    0.0000    0.0000 O   0  5  0  0  0  0  0  0  0  0  0  0
    1.3825    0.0000    0.0000 H   0  0  0  0  0  0  0  0  0  0  0  0
  2  3  1  0  0  0  0
M  CHG  2   1   1   2  -1
M  END
>  <DRUGBANK_ID>
DB14506

>  <COMMON_NAME>
Lithium hydroxide

>  <CAS_NUMBER>
1310-65-2

>  <UNII>
903YL31JAS

>  <SYNONYMS>
Lithium hydrate; Lithium hydroxide anhydrous; Lithiumhydroxid

$$$$
