
 OpenBabel10282417072D

 49 52  0  0  0  0  0  0  0  0999 V2000
   -1.3390   -0.0234    0.0000 C   0  0  0  0  0  0  0  0  0  0  0  0
   -2.0620   -0.4200    0.0000 C   0  0  0  0  0  0  0  0  0  0  0  0
   -2.0620   -1.2519    0.0000 C   0  0  0  0  0  0  0  0  0  0  0  0
   -1.3390   -1.6639    0.0000 C   0  0  0  0  0  0  0  0  0  0  0  0
   -0.6315   -1.2519    0.0000 C   0  0  1  0  0  0  0  0  0  0  0  0
    0.0837   -1.6639    0.0000 C   0  0  0  0  0  0  0  0  0  0  0  0
    0.8146   -1.2519    0.0000 C   0  0  0  0  0  0  0  0  0  0  0  0
    0.8146   -0.4200    0.0000 C   0  0  2  0  0  0  0  0  0  0  0  0
    0.0837   -0.0234    0.0000 C   0  0  1  0  0  0  0  0  0  0  0  0
   -0.6315   -0.4200    0.0000 C   0  0  1  0  0  0  0  0  0  0  0  0
    0.0837    0.7851    0.0000 C   0  0  0  0  0  0  0  0  0  0  0  0
    0.8146    1.2048    0.0000 C   0  0  0  0  0  0  0  0  0  0  0  0
    1.5142    0.7851    0.0000 C   0  0  1  0  0  0  0  0  0  0  0  0
    1.5142   -0.0234    0.0000 C   0  0  1  0  0  0  0  0  0  0  0  0
    2.2995   -0.2800    0.0000 C   0  0  0  0  0  0  0  0  0  0  0  0
    2.7659    0.3729    0.0000 C   0  0  0  0  0  0  0  0  0  0  0  0
    2.2995    1.0416    0.0000 C   0  0  0  0  0  0  0  0  0  0  0  0
    1.5142    1.6324    0.0000 C   0  0  0  0  0  0  0  0  0  0  0  0
   -0.6315    0.3885    0.0000 C   0  0  0  0  0  0  0  0  0  0  0  0
    1.5142   -0.8553    0.0000 H   0  0  0  0  0  0  0  0  0  0  0  0
    0.8146    0.4041    0.0000 H   0  0  0  0  0  0  0  0  0  0  0  0
    0.0837   -0.8553    0.0000 H   0  0  0  0  0  0  0  0  0  0  0  0
   -2.7659   -1.6571    0.0000 O   0  0  0  0  0  0  0  0  0  0  0  0
    2.5352    1.9005    0.0000 O   0  0  0  0  0  0  0  0  0  0  0  0
   -0.6297   -1.9005    0.0000 H   0  0  0  0  0  0  0  0  0  0  0  0
   -1.3341    1.0466    0.0000 H   0  0  0  0  0  0  0  0  0  0  0  0
   -2.2585    0.5238    0.0000 H   0  0  0  0  0  0  0  0  0  0  0  0
   -2.9827    0.1251    0.0000 H   0  0  0  0  0  0  0  0  0  0  0  0
   -2.9916   -0.9499    0.0000 H   0  0  0  0  0  0  0  0  0  0  0  0
   -1.3340   -2.7339    0.0000 H   0  0  0  0  0  0  0  0  0  0  0  0
   -2.2629   -2.2037    0.0000 H   0  0  0  0  0  0  0  0  0  0  0  0
    0.0787   -2.7339    0.0000 H   0  0  0  0  0  0  0  0  0  0  0  0
   -0.8439   -2.1972    0.0000 H   0  0  0  0  0  0  0  0  0  0  0  0
    1.7385   -1.7917    0.0000 H   0  0  0  0  0  0  0  0  0  0  0  0
    0.8063   -2.3219    0.0000 H   0  0  0  0  0  0  0  0  0  0  0  0
   -0.8423    1.3212    0.0000 H   0  0  0  0  0  0  0  0  0  0  0  0
    0.0856    1.8551    0.0000 H   0  0  0  0  0  0  0  0  0  0  0  0
    0.8248    2.2748    0.0000 H   0  0  0  0  0  0  0  0  0  0  0  0
   -0.1088    1.7453    0.0000 H   0  0  0  0  0  0  0  0  0  0  0  0
    2.6334   -1.2966    0.0000 H   0  0  0  0  0  0  0  0  0  0  0  0
    3.3572   -0.4415    0.0000 H   0  0  0  0  0  0  0  0  0  0  0  0
    3.8359    0.3669    0.0000 H   0  0  0  0  0  0  0  0  0  0  0  0
    3.2528   -0.5799    0.0000 H   0  0  0  0  0  0  0  0  0  0  0  0
    2.4408    2.1674    0.0000 H   0  0  0  0  0  0  0  0  0  0  0  0
    0.5876    2.1674    0.0000 H   0  0  0  0  0  0  0  0  0  0  0  0
    1.5142    2.7024    0.0000 H   0  0  0  0  0  0  0  0  0  0  0  0
    0.2951    0.9235    0.0000 H   0  0  0  0  0  0  0  0  0  0  0  0
   -1.5581    0.9235    0.0000 H   0  0  0  0  0  0  0  0  0  0  0  0
   -0.6315    1.4585    0.0000 H   0  0  0  0  0  0  0  0  0  0  0  0
  1 10  1  0  0  0  0
  1 26  1  0  0  0  0
  1 27  1  0  0  0  0
  2  1  1  0  0  0  0
  2 28  1  0  0  0  0
  2 29  1  0  0  0  0
  3  4  1  0  0  0  0
  3  2  1  0  0  0  0
  4  5  1  0  0  0  0
  4 30  1  0  0  0  0
  4 31  1  0  0  0  0
  5 10  1  0  0  0  0
  5 25  1  1  0  0  0
  6  7  1  0  0  0  0
  6  5  1  0  0  0  0
  6 32  1  0  0  0  0
  6 33  1  0  0  0  0
  7  8  1  0  0  0  0
  7 34  1  0  0  0  0
  7 35  1  0  0  0  0
  8 14  1  0  0  0  0
  8  9  1  0  0  0  0
  8 21  1  1  0  0  0
  9 22  1  6  0  0  0
 10  9  1  0  0  0  0
 10 19  1  1  0  0  0
 11  9  1  0  0  0  0
 11 12  1  0  0  0  0
 11 36  1  0  0  0  0
 11 37  1  0  0  0  0
 12 13  1  0  0  0  0
 12 38  1  0  0  0  0
 12 39  1  0  0  0  0
 13 18  1  1  0  0  0
 14 13  1  0  0  0  0
 14 20  1  6  0  0  0
 15 14  1  0  0  0  0
 15 40  1  0  0  0  0
 15 41  1  0  0  0  0
 16 17  1  0  0  0  0
 16 15  1  0  0  0  0
 16 42  1  0  0  0  0
 16 43  1  0  0  0  0
 17 13  1  0  0  0  0
 18 44  1  0  0  0  0
 18 45  1  0  0  0  0
 18 46  1  0  0  0  0
 19 47  1  0  0  0  0
 19 48  1  0  0  0  0
 19 49  1  0  0  0  0
 23  3  2  0  0  0  0
 24 17  2  0  0  0  0
M  END
>  <DRUGBANK_ID>
DB07375

>  <COMMON_NAME>
Etiocholanedione

>  <CAS_NUMBER>
1229-12-5

>  <UNII>
213MVW2TZD

>  <SYNONYMS>
5beta-androstane-3,17-dione; 5Î²-androstane-3,17-dione; Etiocholane-3,17-dione

$$$$
