
 OpenBabel10282417072D

 71 70  0  0  0  0  0  0  0  0999 V2000
   -2.8594   -0.0019    0.0000 C   0  0  0  0  0  0  0  0  0  0  0  0
   -2.8594   -0.8271    0.0000 C   0  0  0  0  0  0  0  0  0  0  0  0
   -3.5741    0.4105    0.0000 C   0  0  0  0  0  0  0  0  0  0  0  0
   -3.5741   -1.2396    0.0000 C   0  0  0  0  0  0  0  0  0  0  0  0
   -4.2887   -0.0019    0.0000 C   0  0  0  0  0  0  0  0  0  0  0  0
   -4.2887   -0.8271    0.0000 C   0  0  0  0  0  0  0  0  0  0  0  0
   -2.1448    0.4105    0.0000 C   0  0  0  0  0  0  0  0  0  0  0  0
   -1.4302   -0.0020    0.0000 C   0  0  0  0  0  0  0  0  0  0  0  0
   -2.1449   -1.2396    0.0000 C   0  0  0  0  0  0  0  0  0  0  0  0
   -1.4302   -0.8271    0.0000 C   0  0  0  0  0  0  0  0  0  0  0  0
   -0.7157    0.4104    0.0000 C   0  0  0  0  0  0  0  0  0  0  0  0
   -0.0012   -0.0021    0.0000 C   0  0  0  0  0  0  0  0  0  0  0  0
   -0.7158   -1.2396    0.0000 C   0  0  0  0  0  0  0  0  0  0  0  0
   -0.0013   -0.8272    0.0000 C   0  0  0  0  0  0  0  0  0  0  0  0
    0.7133    0.4101    0.0000 C   0  0  0  0  0  0  0  0  0  0  0  0
    1.4276   -0.0024    0.0000 C   0  0  0  0  0  0  0  0  0  0  0  0
    0.7130   -1.2397    0.0000 C   0  0  0  0  0  0  0  0  0  0  0  0
    1.4275   -0.8274    0.0000 C   0  0  0  0  0  0  0  0  0  0  0  0
    2.1421    0.4097    0.0000 C   0  0  0  0  0  0  0  0  0  0  0  0
    2.8565   -0.0027    0.0000 C   0  0  0  0  0  0  0  0  0  0  0  0
    2.1418   -1.2399    0.0000 C   0  0  0  0  0  0  0  0  0  0  0  0
    2.8563   -0.8276    0.0000 C   0  0  0  0  0  0  0  0  0  0  0  0
    3.5723    0.4147    0.0000 C   0  0  0  0  0  0  0  0  0  0  0  0
    4.2887    0.0054    0.0000 O   0  0  0  0  0  0  0  0  0  0  0  0
    3.5686    1.2399    0.0000 O   0  0  0  0  0  0  0  0  0  0  0  0
   -2.8594   -1.0719    0.0000 H   0  0  0  0  0  0  0  0  0  0  0  0
   -1.9328   -0.5370    0.0000 H   0  0  0  0  0  0  0  0  0  0  0  0
   -2.8593    0.2429    0.0000 H   0  0  0  0  0  0  0  0  0  0  0  0
   -1.9327   -0.2921    0.0000 H   0  0  0  0  0  0  0  0  0  0  0  0
   -3.5741    1.4805    0.0000 H   0  0  0  0  0  0  0  0  0  0  0  0
   -4.5007    0.9456    0.0000 H   0  0  0  0  0  0  0  0  0  0  0  0
   -3.5741   -2.3096    0.0000 H   0  0  0  0  0  0  0  0  0  0  0  0
   -4.5007   -1.7746    0.0000 H   0  0  0  0  0  0  0  0  0  0  0  0
   -5.2153    0.5332    0.0000 H   0  0  0  0  0  0  0  0  0  0  0  0
   -5.2154   -0.5369    0.0000 H   0  0  0  0  0  0  0  0  0  0  0  0
   -5.2153   -1.3621    0.0000 H   0  0  0  0  0  0  0  0  0  0  0  0
   -5.2154   -0.2921    0.0000 H   0  0  0  0  0  0  0  0  0  0  0  0
   -2.1447    1.4805    0.0000 H   0  0  0  0  0  0  0  0  0  0  0  0
   -1.2182    0.9455    0.0000 H   0  0  0  0  0  0  0  0  0  0  0  0
   -1.4302   -1.0720    0.0000 H   0  0  0  0  0  0  0  0  0  0  0  0
   -0.5036   -0.5371    0.0000 H   0  0  0  0  0  0  0  0  0  0  0  0
   -2.1450   -2.3096    0.0000 H   0  0  0  0  0  0  0  0  0  0  0  0
   -1.2183   -1.7747    0.0000 H   0  0  0  0  0  0  0  0  0  0  0  0
   -1.4301    0.2429    0.0000 H   0  0  0  0  0  0  0  0  0  0  0  0
   -0.5035   -0.2922    0.0000 H   0  0  0  0  0  0  0  0  0  0  0  0
   -0.7156    1.4804    0.0000 H   0  0  0  0  0  0  0  0  0  0  0  0
    0.2110    0.9454    0.0000 H   0  0  0  0  0  0  0  0  0  0  0  0
   -0.0014   -1.0721    0.0000 H   0  0  0  0  0  0  0  0  0  0  0  0
    0.9253   -0.5373    0.0000 H   0  0  0  0  0  0  0  0  0  0  0  0
   -0.7159   -2.3096    0.0000 H   0  0  0  0  0  0  0  0  0  0  0  0
    0.2108   -1.7747    0.0000 H   0  0  0  0  0  0  0  0  0  0  0  0
   -0.0012    0.2428    0.0000 H   0  0  0  0  0  0  0  0  0  0  0  0
    0.9254   -0.2923    0.0000 H   0  0  0  0  0  0  0  0  0  0  0  0
    0.7135    1.4801    0.0000 H   0  0  0  0  0  0  0  0  0  0  0  0
    1.6400    0.9450    0.0000 H   0  0  0  0  0  0  0  0  0  0  0  0
    1.4273   -1.0724    0.0000 H   0  0  0  0  0  0  0  0  0  0  0  0
    2.3541   -0.5377    0.0000 H   0  0  0  0  0  0  0  0  0  0  0  0
    0.7128   -2.3097    0.0000 H   0  0  0  0  0  0  0  0  0  0  0  0
    1.6395   -1.7749    0.0000 H   0  0  0  0  0  0  0  0  0  0  0  0
    1.4277    0.2426    0.0000 H   0  0  0  0  0  0  0  0  0  0  0  0
    2.3542   -0.2925    0.0000 H   0  0  0  0  0  0  0  0  0  0  0  0
    2.1423    1.4797    0.0000 H   0  0  0  0  0  0  0  0  0  0  0  0
    3.0688    0.9446    0.0000 H   0  0  0  0  0  0  0  0  0  0  0  0
    2.8588   -1.0727    0.0000 H   0  0  0  0  0  0  0  0  0  0  0  0
    3.7849   -0.5347    0.0000 H   0  0  0  0  0  0  0  0  0  0  0  0
    2.1416   -2.3099    0.0000 H   0  0  0  0  0  0  0  0  0  0  0  0
    3.0683   -1.7751    0.0000 H   0  0  0  0  0  0  0  0  0  0  0  0
    3.7828   -1.3628    0.0000 H   0  0  0  0  0  0  0  0  0  0  0  0
    2.8565    0.2424    0.0000 H   0  0  0  0  0  0  0  0  0  0  0  0
    3.7831   -0.2928    0.0000 H   0  0  0  0  0  0  0  0  0  0  0  0
    4.2929   -0.9316    0.0000 H   0  0  0  0  0  0  0  0  0  0  0  0
  1 26  1  0  0  0  0
  1 27  1  0  0  0  0
  2 28  1  0  0  0  0
  2 29  1  0  0  0  0
  3  1  1  0  0  0  0
  3 30  1  0  0  0  0
  3 31  1  0  0  0  0
  4  2  1  0  0  0  0
  4 32  1  0  0  0  0
  4 33  1  0  0  0  0
  5  3  1  0  0  0  0
  5 34  1  0  0  0  0
  5 35  1  0  0  0  0
  6  4  1  0  0  0  0
  6  5  1  0  0  0  0
  6 36  1  0  0  0  0
  6 37  1  0  0  0  0
  7  1  1  0  0  0  0
  7 38  1  0  0  0  0
  7 39  1  0  0  0  0
  8  7  1  0  0  0  0
  8 40  1  0  0  0  0
  8 41  1  0  0  0  0
  9  2  1  0  0  0  0
  9 42  1  0  0  0  0
  9 43  1  0  0  0  0
 10  9  1  0  0  0  0
 10 44  1  0  0  0  0
 10 45  1  0  0  0  0
 11  8  1  0  0  0  0
 11 46  1  0  0  0  0
 11 47  1  0  0  0  0
 12 11  1  0  0  0  0
 12 48  1  0  0  0  0
 12 49  1  0  0  0  0
 13 10  1  0  0  0  0
 13 50  1  0  0  0  0
 13 51  1  0  0  0  0
 14 13  1  0  0  0  0
 14 52  1  0  0  0  0
 14 53  1  0  0  0  0
 15 12  1  0  0  0  0
 15 54  1  0  0  0  0
 15 55  1  0  0  0  0
 16 15  1  0  0  0  0
 16 56  1  0  0  0  0
 16 57  1  0  0  0  0
 17 14  1  0  0  0  0
 17 58  1  0  0  0  0
 17 59  1  0  0  0  0
 18 17  1  0  0  0  0
 18 60  1  0  0  0  0
 18 61  1  0  0  0  0
 19 16  1  0  0  0  0
 19 62  1  0  0  0  0
 19 63  1  0  0  0  0
 20 19  1  0  0  0  0
 20 23  1  0  0  0  0
 20 64  1  0  0  0  0
 20 65  1  0  0  0  0
 21 18  1  0  0  0  0
 21 66  1  0  0  0  0
 21 67  1  0  0  0  0
 22 21  1  0  0  0  0
 22 68  1  0  0  0  0
 22 69  1  0  0  0  0
 22 70  1  0  0  0  0
 23 24  1  0  0  0  0
 23 25  2  0  0  0  0
 24 71  1  0  0  0  0
M  END
>  <DRUGBANK_ID>
DB03500

>  <SECONDARY_ACCESSION_NUMBERS>
EXPT01377

>  <COMMON_NAME>
Tricosanoic acid

>  <CAS_NUMBER>
2433-96-7

>  <UNII>
MUC9A0MS6V

>  <SYNONYMS>
n-Tricosanoic acid

$$$$
