
 OpenBabel10282417072D

 80 81  0  0  1  0  0  0  0  0999 V2000
   -5.6498   -8.4464    0.0000 C   0  0  0  0  0  0  0  0  0  0  0  0
   -4.9354   -8.8589    0.0000 C   0  0  0  0  0  0  0  0  0  0  0  0
   -4.2209   -8.4464    0.0000 C   0  0  0  0  0  0  0  0  0  0  0  0
   -3.5064   -8.8589    0.0000 C   0  0  0  0  0  0  0  0  0  0  0  0
   -2.7919   -8.4464    0.0000 C   0  0  0  0  0  0  0  0  0  0  0  0
   -2.0775   -8.8589    0.0000 C   0  0  0  0  0  0  0  0  0  0  0  0
   -1.3630   -8.4464    0.0000 C   0  0  0  0  0  0  0  0  0  0  0  0
   -0.6485   -8.8589    0.0000 C   0  0  0  0  0  0  0  0  0  0  0  0
    0.0659   -8.4464    0.0000 C   0  0  0  0  0  0  0  0  0  0  0  0
    0.7804   -8.8589    0.0000 C   0  0  0  0  0  0  0  0  0  0  0  0
    1.4949   -8.4464    0.0000 C   0  0  0  0  0  0  0  0  0  0  0  0
    2.2094   -8.8589    0.0000 C   0  0  0  0  0  0  0  0  0  0  0  0
    2.9238   -8.4464    0.0000 C   0  0  0  0  0  0  0  0  0  0  0  0
    3.6383   -8.8589    0.0000 C   0  0  0  0  0  0  0  0  0  0  0  0
    4.3528   -8.4464    0.0000 C   0  0  0  0  0  0  0  0  0  0  0  0
    5.0672   -8.8589    0.0000 C   0  0  0  0  0  0  0  0  0  0  0  0
    5.7817   -8.4464    0.0000 C   0  0  0  0  0  0  0  0  0  0  0  0
    6.4962   -8.8589    0.0000 C   0  0  0  0  0  0  0  0  0  0  0  0
    6.4962   -9.6839    0.0000 O   0  0  0  0  0  0  0  0  0  0  0  0
    7.2107   -8.4464    0.0000 O   0  0  0  0  0  0  0  0  0  0  0  0
    7.9251   -8.8589    0.0000 C   0  0  0  0  0  0  0  0  0  0  0  0
    8.6396   -8.4464    0.0000 C   0  0  2  0  0  0  0  0  0  0  0  0
    8.7258   -7.6260    0.0000 C   0  0  2  0  0  0  0  0  0  0  0  0
    9.5328   -7.4544    0.0000 C   0  0  0  0  0  0  0  0  0  0  0  0
    9.9453   -8.1689    0.0000 C   0  0  1  0  0  0  0  0  0  0  0  0
    9.3933   -8.7820    0.0000 O   0  0  0  0  0  0  0  0  0  0  0  0
   10.7658   -8.2551    0.0000 N   0  0  0  0  0  0  0  0  0  0  0  0
   11.2507   -7.5877    0.0000 C   0  0  0  0  0  0  0  0  0  0  0  0
   12.0712   -7.6739    0.0000 C   0  0  0  0  0  0  0  0  0  0  0  0
   12.4067   -8.4276    0.0000 C   0  0  0  0  0  0  0  0  0  0  0  0
   11.9218   -9.0950    0.0000 N   0  0  0  0  0  0  0  0  0  0  0  0
   11.1013   -9.0088    0.0000 C   0  0  0  0  0  0  0  0  0  0  0  0
   10.6164   -9.6763    0.0000 O   0  0  0  0  0  0  0  0  0  0  0  0
   13.2272   -8.5138    0.0000 N   0  0  0  0  0  0  0  0  0  0  0  0
    9.4552   -6.6331    0.0000 F   0  0  0  0  0  0  0  0  0  0  0  0
   10.1951   -6.9625    0.0000 F   0  0  0  0  0  0  0  0  0  0  0  0
    8.1127   -7.0739    0.0000 O   0  0  0  0  0  0  0  0  0  0  0  0
   -5.6498   -7.3764    0.0000 H   0  0  0  0  0  0  0  0  0  0  0  0
   -6.5765   -8.9814    0.0000 H   0  0  0  0  0  0  0  0  0  0  0  0
   -6.5764   -7.9114    0.0000 H   0  0  0  0  0  0  0  0  0  0  0  0
   -4.9354   -9.9289    0.0000 H   0  0  0  0  0  0  0  0  0  0  0  0
   -4.0088   -9.3939    0.0000 H   0  0  0  0  0  0  0  0  0  0  0  0
   -4.2209   -7.3764    0.0000 H   0  0  0  0  0  0  0  0  0  0  0  0
   -3.2943   -7.9114    0.0000 H   0  0  0  0  0  0  0  0  0  0  0  0
   -3.5064   -9.9289    0.0000 H   0  0  0  0  0  0  0  0  0  0  0  0
   -2.5798   -9.3939    0.0000 H   0  0  0  0  0  0  0  0  0  0  0  0
   -2.7919   -7.3764    0.0000 H   0  0  0  0  0  0  0  0  0  0  0  0
   -1.8652   -7.9114    0.0000 H   0  0  0  0  0  0  0  0  0  0  0  0
   -2.0775   -9.9289    0.0000 H   0  0  0  0  0  0  0  0  0  0  0  0
   -1.1509   -9.3939    0.0000 H   0  0  0  0  0  0  0  0  0  0  0  0
   -1.3630   -7.3764    0.0000 H   0  0  0  0  0  0  0  0  0  0  0  0
   -0.4364   -7.9114    0.0000 H   0  0  0  0  0  0  0  0  0  0  0  0
   -0.6485   -9.9289    0.0000 H   0  0  0  0  0  0  0  0  0  0  0  0
    0.2782   -9.3939    0.0000 H   0  0  0  0  0  0  0  0  0  0  0  0
    0.0659   -7.4144    0.0000 H   0  0  0  0  0  0  0  0  0  0  0  0
    0.7804   -9.8909    0.0000 H   0  0  0  0  0  0  0  0  0  0  0  0
    1.4949   -7.3764    0.0000 H   0  0  0  0  0  0  0  0  0  0  0  0
    2.4215   -7.9114    0.0000 H   0  0  0  0  0  0  0  0  0  0  0  0
    2.2094   -9.9289    0.0000 H   0  0  0  0  0  0  0  0  0  0  0  0
    3.1361   -9.3939    0.0000 H   0  0  0  0  0  0  0  0  0  0  0  0
    2.9238   -7.3764    0.0000 H   0  0  0  0  0  0  0  0  0  0  0  0
    3.8504   -7.9114    0.0000 H   0  0  0  0  0  0  0  0  0  0  0  0
    3.6383   -9.9289    0.0000 H   0  0  0  0  0  0  0  0  0  0  0  0
    4.5649   -9.3939    0.0000 H   0  0  0  0  0  0  0  0  0  0  0  0
    4.3528   -7.3764    0.0000 H   0  0  0  0  0  0  0  0  0  0  0  0
    5.2795   -7.9114    0.0000 H   0  0  0  0  0  0  0  0  0  0  0  0
    5.0672   -9.9289    0.0000 H   0  0  0  0  0  0  0  0  0  0  0  0
    5.9938   -9.3939    0.0000 H   0  0  0  0  0  0  0  0  0  0  0  0
    5.7817   -7.3764    0.0000 H   0  0  0  0  0  0  0  0  0  0  0  0
    6.7083   -7.9114    0.0000 H   0  0  0  0  0  0  0  0  0  0  0  0
    7.9251   -9.9289    0.0000 H   0  0  0  0  0  0  0  0  0  0  0  0
    8.8517   -9.3939    0.0000 H   0  0  0  0  0  0  0  0  0  0  0  0
    7.7422   -7.8636    0.0000 H   0  0  0  0  0  0  0  0  0  0  0  0
    7.7269   -8.0094    0.0000 H   0  0  0  0  0  0  0  0  0  0  0  0
   10.5281   -7.2715    0.0000 H   0  0  0  0  0  0  0  0  0  0  0  0
   10.8309   -6.6449    0.0000 H   0  0  0  0  0  0  0  0  0  0  0  0
   12.6778   -6.8390    0.0000 H   0  0  0  0  0  0  0  0  0  0  0  0
   13.6277   -9.4132    0.0000 H   0  0  0  0  0  0  0  0  0  0  0  0
   13.8058   -7.7173    0.0000 H   0  0  0  0  0  0  0  0  0  0  0  0
    8.3144   -6.1251    0.0000 H   0  0  0  0  0  0  0  0  0  0  0  0
  1  2  1  0  0  0  0
  1 38  1  0  0  0  0
  1 39  1  0  0  0  0
  1 40  1  0  0  0  0
  2  3  1  0  0  0  0
  2 41  1  0  0  0  0
  2 42  1  0  0  0  0
  3  4  1  0  0  0  0
  3 43  1  0  0  0  0
  3 44  1  0  0  0  0
  4  5  1  0  0  0  0
  4 45  1  0  0  0  0
  4 46  1  0  0  0  0
  5  6  1  0  0  0  0
  5 47  1  0  0  0  0
  5 48  1  0  0  0  0
  6  7  1  0  0  0  0
  6 49  1  0  0  0  0
  6 50  1  0  0  0  0
  7  8  1  0  0  0  0
  7 51  1  0  0  0  0
  7 52  1  0  0  0  0
  8  9  1  0  0  0  0
  8 53  1  0  0  0  0
  8 54  1  0  0  0  0
  9 10  2  0  0  0  0
  9 55  1  0  0  0  0
 10 11  1  0  0  0  0
 10 56  1  0  0  0  0
 11 12  1  0  0  0  0
 11 57  1  0  0  0  0
 11 58  1  0  0  0  0
 12 13  1  0  0  0  0
 12 59  1  0  0  0  0
 12 60  1  0  0  0  0
 13 14  1  0  0  0  0
 13 61  1  0  0  0  0
 13 62  1  0  0  0  0
 14 15  1  0  0  0  0
 14 63  1  0  0  0  0
 14 64  1  0  0  0  0
 15 16  1  0  0  0  0
 15 65  1  0  0  0  0
 15 66  1  0  0  0  0
 16 17  1  0  0  0  0
 16 67  1  0  0  0  0
 16 68  1  0  0  0  0
 17 18  1  0  0  0  0
 17 69  1  0  0  0  0
 17 70  1  0  0  0  0
 18 19  2  0  0  0  0
 18 20  1  0  0  0  0
 20 21  1  0  0  0  0
 21 71  1  0  0  0  0
 21 72  1  0  0  0  0
 22 21  1  0  0  0  0
 22 23  1  0  0  0  0
 22 26  1  0  0  0  0
 22 73  1  1  0  0  0
 23 24  1  0  0  0  0
 23 37  1  0  0  0  0
 23 74  1  6  0  0  0
 24 25  1  0  0  0  0
 24 35  1  0  0  0  0
 24 36  1  0  0  0  0
 25 26  1  0  0  0  0
 25 27  1  0  0  0  0
 25 75  1  1  0  0  0
 27 28  1  0  0  0  0
 27 32  1  0  0  0  0
 28 29  2  0  0  0  0
 28 76  1  0  0  0  0
 29 30  1  0  0  0  0
 29 77  1  0  0  0  0
 30 31  2  0  0  0  0
 30 34  1  0  0  0  0
 31 32  1  0  0  0  0
 32 33  2  0  0  0  0
 34 78  1  0  0  0  0
 34 79  1  0  0  0  0
 37 80  1  0  0  0  0
M  END
>  <DRUGBANK_ID>
DB12564

>  <COMMON_NAME>
Gemcitabine elaidate

>  <CAS_NUMBER>
210829-30-4

>  <UNII>
231C73W7LG

>  <SYNONYMS>
2'-Deoxy-2',2'-difluorocytidine 5'-(9E)-octadec-9-enoate; 5'-O-(TRANS-9''-OCTADECENOYL)-1-.BETA.-D-2'DEOXY-2',2'-DIFLUOROCYTIDINE; 5'-O-(trans-9"-octadecenoyl)-1-beta-D-2'deoxy-2',2'-difluorocytidine; Gemcitabine elaidate

$$$$
