307
 OpenBabel10282417072D

 54 56  0  0  0  0  0  0  0  0999 V2000
    5.9770   -2.7941    0.0000 O   0  0  0  0  0  0  0  0  0  0  0  0
    4.5481   -2.7886    0.0000 O   0  0  0  0  0  0  0  0  0  0  0  0
    2.3645    0.9411    0.0000 C   0  0  0  0  0  0  0  0  0  0  0  0
    2.3645    2.5911    0.0000 C   0  0  0  0  0  0  0  0  0  0  0  0
    1.6500    1.3536    0.0000 C   0  0  0  0  0  0  0  0  0  0  0  0
    1.6500    2.1786    0.0000 C   0  0  0  0  0  0  0  0  0  0  0  0
    3.0790    1.3536    0.0000 C   0  0  0  0  0  0  0  0  0  0  0  0
    3.0790    2.1786    0.0000 C   0  0  0  0  0  0  0  0  0  0  0  0
    1.9520    0.2266    0.0000 C   0  0  0  0  0  0  0  0  0  0  0  0
    2.7770    0.2266    0.0000 C   0  0  0  0  0  0  0  0  0  0  0  0
    1.9520    3.3056    0.0000 C   0  0  0  0  0  0  0  0  0  0  0  0
    2.7770    3.3056    0.0000 C   0  0  0  0  0  0  0  0  0  0  0  0
    3.8165    0.9125    0.0000 C   0  0  0  0  0  0  0  0  0  0  0  0
    3.8165    2.6197    0.0000 C   0  0  0  0  0  0  0  0  0  0  0  0
    4.5640    1.3364    0.0000 C   0  0  0  0  0  0  0  0  0  0  0  0
    4.5640    2.1958    0.0000 C   0  0  0  0  0  0  0  0  0  0  0  0
    5.2769    0.9212    0.0000 C   0  0  0  0  0  0  0  0  0  0  0  0
    5.2769    2.6111    0.0000 C   0  0  0  0  0  0  0  0  0  0  0  0
    5.2737    0.0962    0.0000 C   0  0  0  0  0  0  0  0  0  0  0  0
    5.9929    1.3309    0.0000 C   0  0  0  0  0  0  0  0  0  0  0  0
    4.5577   -0.3136    0.0000 C   0  0  0  0  0  0  0  0  0  0  0  0
    5.9866   -0.3191    0.0000 C   0  0  0  0  0  0  0  0  0  0  0  0
    4.5545   -1.1386    0.0000 C   0  0  0  0  0  0  0  0  0  0  0  0
    5.9834   -1.1441    0.0000 C   0  0  0  0  0  0  0  0  0  0  0  0
    5.2673   -1.5538    0.0000 C   0  0  0  0  0  0  0  0  0  0  0  0
    5.2641   -2.3788    0.0000 C   0  0  0  0  0  0  0  0  0  0  0  0
    5.9734   -3.7311    0.0000 H   0  0  0  0  0  0  0  0  0  0  0  0
    0.7234    0.8186    0.0000 H   0  0  0  0  0  0  0  0  0  0  0  0
    0.7234    1.8886    0.0000 H   0  0  0  0  0  0  0  0  0  0  0  0
    0.7234    2.7136    0.0000 H   0  0  0  0  0  0  0  0  0  0  0  0
    0.7234    1.6436    0.0000 H   0  0  0  0  0  0  0  0  0  0  0  0
    0.8820    0.2266    0.0000 H   0  0  0  0  0  0  0  0  0  0  0  0
    2.4870   -0.7000    0.0000 H   0  0  0  0  0  0  0  0  0  0  0  0
    1.4170   -0.7001    0.0000 H   0  0  0  0  0  0  0  0  0  0  0  0
    2.2420   -0.7000    0.0000 H   0  0  0  0  0  0  0  0  0  0  0  0
    3.8470    0.2266    0.0000 H   0  0  0  0  0  0  0  0  0  0  0  0
    3.3120   -0.7001    0.0000 H   0  0  0  0  0  0  0  0  0  0  0  0
    2.4870    4.2322    0.0000 H   0  0  0  0  0  0  0  0  0  0  0  0
    0.8820    3.3056    0.0000 H   0  0  0  0  0  0  0  0  0  0  0  0
    1.4170    4.2323    0.0000 H   0  0  0  0  0  0  0  0  0  0  0  0
    3.8470    3.3056    0.0000 H   0  0  0  0  0  0  0  0  0  0  0  0
    2.2420    4.2322    0.0000 H   0  0  0  0  0  0  0  0  0  0  0  0
    3.3120    4.2323    0.0000 H   0  0  0  0  0  0  0  0  0  0  0  0
    3.8046   -0.1194    0.0000 H   0  0  0  0  0  0  0  0  0  0  0  0
    3.8046    3.6516    0.0000 H   0  0  0  0  0  0  0  0  0  0  0  0
    6.2056    2.0797    0.0000 H   0  0  0  0  0  0  0  0  0  0  0  0
    5.2727    3.6811    0.0000 H   0  0  0  0  0  0  0  0  0  0  0  0
    6.2015    3.1497    0.0000 H   0  0  0  0  0  0  0  0  0  0  0  0
    6.8846    0.8114    0.0000 H   0  0  0  0  0  0  0  0  0  0  0  0
    5.9969    2.3629    0.0000 H   0  0  0  0  0  0  0  0  0  0  0  0
    3.6659    0.2058    0.0000 H   0  0  0  0  0  0  0  0  0  0  0  0
    6.8823    0.1934    0.0000 H   0  0  0  0  0  0  0  0  0  0  0  0
    3.6588   -1.6511    0.0000 H   0  0  0  0  0  0  0  0  0  0  0  0
    6.8751   -1.6636    0.0000 H   0  0  0  0  0  0  0  0  0  0  0  0
  1 26  1  0  0  0  0
  1 27  1  0  0  0  0
  2 26  2  0  0  0  0
  3  5  1  0  0  0  0
  3  7  1  0  0  0  0
  3  9  1  0  0  0  0
  3 10  1  0  0  0  0
  4  6  1  0  0  0  0
  4  8  1  0  0  0  0
  4 11  1  0  0  0  0
  4 12  1  0  0  0  0
  5  6  1  0  0  0  0
  5 28  1  0  0  0  0
  5 29  1  0  0  0  0
  6 30  1  0  0  0  0
  6 31  1  0  0  0  0
  7  8  2  0  0  0  0
  7 13  1  0  0  0  0
  8 14  1  0  0  0  0
  9 32  1  0  0  0  0
  9 33  1  0  0  0  0
  9 34  1  0  0  0  0
 10 35  1  0  0  0  0
 10 36  1  0  0  0  0
 10 37  1  0  0  0  0
 11 38  1  0  0  0  0
 11 39  1  0  0  0  0
 11 40  1  0  0  0  0
 12 41  1  0  0  0  0
 12 42  1  0  0  0  0
 12 43  1  0  0  0  0
 13 15  2  0  0  0  0
 13 44  1  0  0  0  0
 14 16  2  0  0  0  0
 14 45  1  0  0  0  0
 15 16  1  0  0  0  0
 15 17  1  0  0  0  0
 16 18  1  0  0  0  0
 17 19  1  0  0  0  0
 17 20  2  0  0  0  0
 18 46  1  0  0  0  0
 18 47  1  0  0  0  0
 18 48  1  0  0  0  0
 19 21  2  0  0  0  0
 19 22  1  0  0  0  0
 20 49  1  0  0  0  0
 20 50  1  0  0  0  0
 21 23  1  0  0  0  0
 21 51  1  0  0  0  0
 22 24  2  0  0  0  0
 22 52  1  0  0  0  0
 23 25  2  0  0  0  0
 23 53  1  0  0  0  0
 24 25  1  0  0  0  0
 24 54  1  0  0  0  0
 25 26  1  0  0  0  0
M  END
>  <DRUGBANK_ID>
DB00307

>  <SECONDARY_ACCESSION_NUMBERS>
APRD00114

>  <COMMON_NAME>
Bexarotene

>  <CAS_NUMBER>
153559-49-0

>  <UNII>
A61RXM4375

>  <SYNONYMS>
4-[1-(3,5,5,8,8-pentamethyltetralin-2-yl)ethenyl]benzoic acid; 4-[1-(5,6,7,8,-Tetrahydro-3,5,5,8,8-pentamethyl-2-naphtalenyl)ethenyl]benzoic acid; Bexaroten; Bexarot√®ne; Bexarotene; Bexaroteno; Bexarotenum; p-(1-(5,6,7,8-Tetrahydro-3,5,5,8,8-pentamethyl-2-naphthyl)vinyl)benzoic acid

$$$$
