
 OpenBabel10282417072D

 52 54  0  0  1  0  0  0  0  0999 V2000
    1.4289    2.4750    0.0000 C   0  0  0  0  0  0  0  0  0  0  0  0
    2.8579    3.3000    0.0000 C   0  0  0  0  0  0  0  0  0  0  0  0
    5.0013    4.5375    0.0000 C   0  0  0  0  0  0  0  0  0  0  0  0
    4.1888    1.3808    0.0000 C   0  0  0  0  0  0  0  0  0  0  0  0
    4.7191    0.4623    0.0000 C   0  0  0  0  0  0  0  0  0  0  0  0
    2.1434    2.0625    0.0000 C   0  0  0  0  0  0  0  0  0  0  0  0
    7.8592    1.2375    0.0000 C   0  0  0  0  0  0  0  0  0  0  0  0
    8.5737    2.4750    0.0000 C   0  0  0  0  0  0  0  0  0  0  0  0
    7.1447    0.8250    0.0000 C   0  0  0  0  0  0  0  0  0  0  0  0
    8.5737    3.3000    0.0000 C   0  0  0  0  0  0  0  0  0  0  0  0
    2.8579    2.4750    0.0000 C   0  0  2  0  0  0  0  0  0  0  0  0
    5.0013    3.7125    0.0000 C   0  0  0  0  0  0  0  0  0  0  0  0
    7.8592    2.0625    0.0000 C   0  0  0  0  0  0  0  0  0  0  0  0
    6.4302    1.2375    0.0000 C   0  0  0  0  0  0  0  0  0  0  0  0
    7.8592    3.7125    0.0000 C   0  0  0  0  0  0  0  0  0  0  0  0
    6.4302    2.0625    0.0000 C   0  0  0  0  0  0  0  0  0  0  0  0
    7.1447    2.4750    0.0000 C   0  0  0  0  0  0  0  0  0  0  0  0
    5.7158    2.4750    0.0000 C   0  0  2  0  0  0  0  0  0  0  0  0
    5.0013    2.0625    0.0000 C   0  0  2  0  0  0  0  0  0  0  0  0
    3.5724    2.0625    0.0000 C   0  0  0  0  0  0  0  0  0  0  0  0
    5.0013    1.2375    0.0000 C   0  0  0  0  0  0  0  0  0  0  0  0
    4.2868    3.3000    0.0000 O   0  0  0  0  0  0  0  0  0  0  0  0
    7.8592    4.5375    0.0000 O   0  0  0  0  0  0  0  0  0  0  0  0
    3.5724    1.2375    0.0000 O   0  0  0  0  0  0  0  0  0  0  0  0
    5.7158    3.3000    0.0000 O   0  0  0  0  0  0  0  0  0  0  0  0
    7.1447    3.3000    0.0000 O   0  0  0  0  0  0  0  0  0  0  0  0
    4.2868    2.4750    0.0000 O   0  0  0  0  0  0  0  0  0  0  0  0
    5.7158    0.8250    0.0000 O   0  0  0  0  0  0  0  0  0  0  0  0
    2.1434    2.8875    0.0000 H   0  0  0  0  0  0  0  0  0  0  0  0
    6.4302    2.8875    0.0000 H   0  0  0  0  0  0  0  0  0  0  0  0
    5.0013    2.8875    0.0000 H   0  0  0  0  0  0  0  0  0  0  0  0
    1.4289    3.5450    0.0000 H   0  0  0  0  0  0  0  0  0  0  0  0
    0.5023    1.9400    0.0000 H   0  0  0  0  0  0  0  0  0  0  0  0
    0.5022    3.0100    0.0000 H   0  0  0  0  0  0  0  0  0  0  0  0
    3.7845    3.8350    0.0000 H   0  0  0  0  0  0  0  0  0  0  0  0
    1.9313    3.8350    0.0000 H   0  0  0  0  0  0  0  0  0  0  0  0
    2.8579    4.3700    0.0000 H   0  0  0  0  0  0  0  0  0  0  0  0
    5.9279    5.0725    0.0000 H   0  0  0  0  0  0  0  0  0  0  0  0
    4.0747    5.0725    0.0000 H   0  0  0  0  0  0  0  0  0  0  0  0
    5.0013    5.6075    0.0000 H   0  0  0  0  0  0  0  0  0  0  0  0
    3.8229    2.3863    0.0000 H   0  0  0  0  0  0  0  0  0  0  0  0
    3.5010    0.5612    0.0000 H   0  0  0  0  0  0  0  0  0  0  0  0
    3.1351    1.5666    0.0000 H   0  0  0  0  0  0  0  0  0  0  0  0
    3.6653    0.2766    0.0000 H   0  0  0  0  0  0  0  0  0  0  0  0
    5.4068   -0.3574    0.0000 H   0  0  0  0  0  0  0  0  0  0  0  0
    4.3531   -0.5432    0.0000 H   0  0  0  0  0  0  0  0  0  0  0  0
    2.1434    0.9925    0.0000 H   0  0  0  0  0  0  0  0  0  0  0  0
    3.0700    1.5275    0.0000 H   0  0  0  0  0  0  0  0  0  0  0  0
    8.7529    0.7215    0.0000 H   0  0  0  0  0  0  0  0  0  0  0  0
    9.4674    1.9590    0.0000 H   0  0  0  0  0  0  0  0  0  0  0  0
    7.1447   -0.2070    0.0000 H   0  0  0  0  0  0  0  0  0  0  0  0
    9.4674    3.8160    0.0000 H   0  0  0  0  0  0  0  0  0  0  0  0
  1 32  1  0  0  0  0
  1 33  1  0  0  0  0
  1 34  1  0  0  0  0
  2 35  1  0  0  0  0
  2 36  1  0  0  0  0
  2 37  1  0  0  0  0
  3 38  1  0  0  0  0
  3 39  1  0  0  0  0
  3 40  1  0  0  0  0
  4 41  1  0  0  0  0
  4 42  1  0  0  0  0
  4 43  1  0  0  0  0
  5 44  1  0  0  0  0
  5 45  1  0  0  0  0
  5 46  1  0  0  0  0
  6  1  1  0  0  0  0
  6 47  1  0  0  0  0
  6 48  1  0  0  0  0
  7 49  1  0  0  0  0
  8 50  1  0  0  0  0
  9  7  2  0  0  0  0
  9 51  1  0  0  0  0
 10  8  2  0  0  0  0
 10 52  1  0  0  0  0
 11  2  1  0  0  0  0
 11  6  1  0  0  0  0
 11 29  1  6  0  0  0
 12  3  1  0  0  0  0
 13  7  1  0  0  0  0
 13  8  1  0  0  0  0
 14  9  1  0  0  0  0
 15 10  1  0  0  0  0
 16 14  2  0  0  0  0
 17 13  2  0  0  0  0
 17 16  1  0  0  0  0
 18 16  1  0  0  0  0
 18 25  1  0  0  0  0
 18 30  1  1  0  0  0
 19 18  1  0  0  0  0
 19 27  1  0  0  0  0
 19 31  1  1  0  0  0
 20 11  1  0  0  0  0
 21  4  1  0  0  0  0
 21  5  1  0  0  0  0
 21 19  1  0  0  0  0
 22 12  2  0  0  0  0
 23 15  2  0  0  0  0
 24 20  2  0  0  0  0
 25 12  1  0  0  0  0
 26 15  1  0  0  0  0
 26 17  1  0  0  0  0
 27 20  1  0  0  0  0
 28 14  1  0  0  0  0
 28 21  1  0  0  0  0
M  END
>  <DRUGBANK_ID>
DB13355

>  <COMMON_NAME>
Visnadine

>  <CAS_NUMBER>
477-32-7

>  <UNII>
0RL4V0K263

>  <SYNONYMS>
Visnadine

$$$$
