
 OpenBabel10282417072D

 25 27  0  0  1  0  0  0  0  0999 V2000
    4.0716    1.5745    0.0000 N   0  0  0  0  0  0  0  0  0  0  0  0
    3.2470    1.5487    0.0000 C   0  0  0  0  0  0  0  0  0  0  0  0
    2.8124    2.2499    0.0000 N   0  0  0  0  0  0  0  0  0  0  0  0
    1.9878    2.2242    0.0000 C   0  0  0  0  0  0  0  0  0  0  0  0
    1.5978    1.4972    0.0000 C   0  0  0  0  0  0  0  0  0  0  0  0
    0.7732    1.4714    0.0000 N   0  0  0  0  0  0  0  0  0  0  0  0
    0.3386    2.1727    0.0000 C   0  0  2  0  0  0  0  0  0  0  0  0
    0.7286    2.8997    0.0000 C   0  0  0  0  0  0  0  0  0  0  0  0
    1.5532    2.9254    0.0000 N   0  0  0  0  0  0  0  0  0  0  0  0
   -0.4626    1.9760    0.0000 C   0  0  0  0  0  0  0  0  0  0  0  0
   -0.5232    1.1532    0.0000 O   0  0  0  0  0  0  0  0  0  0  0  0
    0.2406    0.8414    0.0000 C   0  0  0  0  0  0  0  0  0  0  0  0
    0.4373    0.0402    0.0000 O   0  0  0  0  0  0  0  0  0  0  0  0
    2.0325    0.7959    0.0000 C   0  0  0  0  0  0  0  0  0  0  0  0
    1.6425    0.0689    0.0000 O   0  0  0  0  0  0  0  0  0  0  0  0
    2.8571    0.8217    0.0000 N   0  0  0  0  0  0  0  0  0  0  0  0
    4.5903    0.7377    0.0000 H   0  0  0  0  0  0  0  0  0  0  0  0
    4.5369    2.4421    0.0000 H   0  0  0  0  0  0  0  0  0  0  0  0
    1.4081    2.2061    0.0000 H   0  0  0  0  0  0  0  0  0  0  0  0
    0.1650    3.8092    0.0000 H   0  0  0  0  0  0  0  0  0  0  0  0
    1.2345    3.8426    0.0000 H   0  0  0  0  0  0  0  0  0  0  0  0
    2.0186    3.7929    0.0000 H   0  0  0  0  0  0  0  0  0  0  0  0
   -1.2797    2.6668    0.0000 H   0  0  0  0  0  0  0  0  0  0  0  0
   -1.4491    1.5615    0.0000 H   0  0  0  0  0  0  0  0  0  0  0  0
    3.3758   -0.0151    0.0000 H   0  0  0  0  0  0  0  0  0  0  0  0
  1  2  1  0  0  0  0
  1 17  1  0  0  0  0
  1 18  1  0  0  0  0
  2  3  2  0  0  0  0
  2 16  1  0  0  0  0
  3  4  1  0  0  0  0
  4  5  2  0  0  0  0
  4  9  1  0  0  0  0
  5  6  1  0  0  0  0
  5 14  1  0  0  0  0
  6 12  1  0  0  0  0
  7  6  1  0  0  0  0
  7  8  1  0  0  0  0
  7 10  1  0  0  0  0
  7 19  1  6  0  0  0
  8  9  1  0  0  0  0
  8 20  1  0  0  0  0
  8 21  1  0  0  0  0
  9 22  1  0  0  0  0
 10 11  1  0  0  0  0
 10 23  1  0  0  0  0
 10 24  1  0  0  0  0
 11 12  1  0  0  0  0
 12 13  2  0  0  0  0
 14 15  2  0  0  0  0
 14 16  1  0  0  0  0
 16 25  1  0  0  0  0
M  END
>  <DRUGBANK_ID>
DB03332

>  <SECONDARY_ACCESSION_NUMBERS>
EXPT00534

>  <COMMON_NAME>
5,6-Cyclic-Tetrahydropteridine

$$$$
