391
 OpenBabel10282417072D

 45 49  0  0  0  0  0  0  0  0999 V2000
   -2.1629   -2.5640    0.0000 C   0  0  0  0  0  0  0  0  0  0  0  0
   -2.8774   -2.9765    0.0000 C   0  0  0  0  0  0  0  0  0  0  0  0
   -3.6620   -2.7216    0.0000 O   0  0  0  0  0  0  0  0  0  0  0  0
   -4.1469   -3.3890    0.0000 C   0  0  0  0  0  0  0  0  0  0  0  0
   -3.6620   -4.0565    0.0000 O   0  0  0  0  0  0  0  0  0  0  0  0
   -2.8774   -3.8015    0.0000 C   0  0  0  0  0  0  0  0  0  0  0  0
   -2.1629   -4.2140    0.0000 C   0  0  0  0  0  0  0  0  0  0  0  0
   -1.4485   -3.8015    0.0000 C   0  0  0  0  0  0  0  0  0  0  0  0
   -1.4485   -2.9765    0.0000 C   0  0  0  0  0  0  0  0  0  0  0  0
   -0.7340   -2.5640    0.0000 O   0  0  0  0  0  0  0  0  0  0  0  0
   -0.7340   -1.7390    0.0000 C   0  0  0  0  0  0  0  0  0  0  0  0
   -0.0195   -1.3265    0.0000 N   0  0  0  0  0  0  0  0  0  0  0  0
   -1.4485   -1.3265    0.0000 C   0  0  0  0  0  0  0  0  0  0  0  0
   -1.4485   -0.5015    0.0000 C   0  0  0  0  0  0  0  0  0  0  0  0
   -2.1629   -0.0890    0.0000 C   0  0  0  0  0  0  0  0  0  0  0  0
   -0.7340   -0.0890    0.0000 N   0  0  0  0  0  0  0  0  0  0  0  0
   -0.0195   -0.5015    0.0000 C   0  0  0  0  0  0  0  0  0  0  0  0
    0.6950   -0.0890    0.0000 O   0  0  0  0  0  0  0  0  0  0  0  0
    1.4094   -0.5015    0.0000 C   0  0  0  0  0  0  0  0  0  0  0  0
    2.1239   -0.0890    0.0000 C   0  0  0  0  0  0  0  0  0  0  0  0
    2.8384   -0.5015    0.0000 C   0  0  0  0  0  0  0  0  0  0  0  0
    1.4094   -1.3265    0.0000 C   0  0  0  0  0  0  0  0  0  0  0  0
    2.1239   -1.7390    0.0000 C   0  0  0  0  0  0  0  0  0  0  0  0
    2.8384   -1.3265    0.0000 C   0  0  0  0  0  0  0  0  0  0  0  0
    3.5528   -1.7390    0.0000 N   0  0  0  0  0  0  0  0  0  0  0  0
    4.3065   -1.4035    0.0000 C   0  0  0  0  0  0  0  0  0  0  0  0
    4.8585   -2.0166    0.0000 C   0  0  0  0  0  0  0  0  0  0  0  0
    4.4460   -2.7310    0.0000 N   0  0  0  0  0  0  0  0  0  0  0  0
    3.6391   -2.5595    0.0000 C   0  0  0  0  0  0  0  0  0  0  0  0
   -2.1629   -1.5320    0.0000 H   0  0  0  0  0  0  0  0  0  0  0  0
   -5.2169   -3.3890    0.0000 H   0  0  0  0  0  0  0  0  0  0  0  0
   -4.6327   -4.3424    0.0000 H   0  0  0  0  0  0  0  0  0  0  0  0
   -2.1629   -5.2460    0.0000 H   0  0  0  0  0  0  0  0  0  0  0  0
   -0.5548   -4.3175    0.0000 H   0  0  0  0  0  0  0  0  0  0  0  0
   -2.3422   -1.8425    0.0000 H   0  0  0  0  0  0  0  0  0  0  0  0
   -2.1629    0.9810    0.0000 H   0  0  0  0  0  0  0  0  0  0  0  0
   -3.0896   -0.6240    0.0000 H   0  0  0  0  0  0  0  0  0  0  0  0
   -3.0895    0.4460    0.0000 H   0  0  0  0  0  0  0  0  0  0  0  0
    2.1239    0.9430    0.0000 H   0  0  0  0  0  0  0  0  0  0  0  0
    3.7321    0.0145    0.0000 H   0  0  0  0  0  0  0  0  0  0  0  0
    0.5157   -1.8425    0.0000 H   0  0  0  0  0  0  0  0  0  0  0  0
    2.1239   -2.7710    0.0000 H   0  0  0  0  0  0  0  0  0  0  0  0
    4.5211   -0.3941    0.0000 H   0  0  0  0  0  0  0  0  0  0  0  0
    5.8849   -1.9088    0.0000 H   0  0  0  0  0  0  0  0  0  0  0  0
    2.8722   -3.2501    0.0000 H   0  0  0  0  0  0  0  0  0  0  0  0
  1  9  2  0  0  0  0
  1  2  1  0  0  0  0
  1 30  1  0  0  0  0
  2  3  1  0  0  0  0
  2  6  2  0  0  0  0
  3  4  1  0  0  0  0
  4  5  1  0  0  0  0
  4 31  1  0  0  0  0
  4 32  1  0  0  0  0
  5  6  1  0  0  0  0
  6  7  1  0  0  0  0
  7  8  2  0  0  0  0
  7 33  1  0  0  0  0
  8  9  1  0  0  0  0
  8 34  1  0  0  0  0
  9 10  1  0  0  0  0
 10 11  1  0  0  0  0
 11 13  2  0  0  0  0
 11 12  1  0  0  0  0
 12 17  2  0  0  0  0
 13 14  1  0  0  0  0
 13 35  1  0  0  0  0
 14 15  1  0  0  0  0
 14 16  2  0  0  0  0
 15 36  1  0  0  0  0
 15 37  1  0  0  0  0
 15 38  1  0  0  0  0
 16 17  1  0  0  0  0
 17 18  1  0  0  0  0
 18 19  1  0  0  0  0
 19 20  2  0  0  0  0
 19 22  1  0  0  0  0
 20 21  1  0  0  0  0
 20 39  1  0  0  0  0
 21 24  2  0  0  0  0
 21 40  1  0  0  0  0
 22 23  2  0  0  0  0
 22 41  1  0  0  0  0
 23 24  1  0  0  0  0
 23 42  1  0  0  0  0
 24 25  1  0  0  0  0
 25 26  1  0  0  0  0
 25 29  1  0  0  0  0
 26 27  2  0  0  0  0
 26 43  1  0  0  0  0
 27 28  1  0  0  0  0
 27 44  1  0  0  0  0
 28 29  2  0  0  0  0
 29 45  1  0  0  0  0
M  END
>  <DRUGBANK_ID>
DB07029

>  <COMMON_NAME>
4-(1,3-BENZODIOXOL-5-YLOXY)-2-[4-(1H-IMIDAZOL-1-YL)PHENOXY]-6-METHYLPYRIMIDINE

$$$$
