619
 OpenBabel10282417072D

 68 72  0  0  0  0  0  0  0  0999 V2000
    5.9370   -0.4125    0.0000 O   0  0  0  0  0  0  0  0  0  0  0  0
    2.3645   -2.4751    0.0000 N   0  0  0  0  0  0  0  0  0  0  0  0
    2.3645   -4.1251    0.0000 N   0  0  0  0  0  0  0  0  0  0  0  0
    5.2224    0.8250    0.0000 N   0  0  0  0  0  0  0  0  0  0  0  0
    6.6515    3.3001    0.0000 N   0  0  0  0  0  0  0  0  0  0  0  0
    5.2224    3.3001    0.0000 N   0  0  0  0  0  0  0  0  0  0  0  0
    5.9370    4.5376    0.0000 N   0  0  0  0  0  0  0  0  0  0  0  0
    3.0791    2.0625    0.0000 N   0  0  0  0  0  0  0  0  0  0  0  0
    1.6500   -2.8876    0.0000 C   0  0  0  0  0  0  0  0  0  0  0  0
    3.0791   -2.8876    0.0000 C   0  0  0  0  0  0  0  0  0  0  0  0
    1.6500   -3.7126    0.0000 C   0  0  0  0  0  0  0  0  0  0  0  0
    3.0791   -3.7126    0.0000 C   0  0  0  0  0  0  0  0  0  0  0  0
    2.3645   -1.6500    0.0000 C   0  0  0  0  0  0  0  0  0  0  0  0
    2.3645   -4.9501    0.0000 C   0  0  0  0  0  0  0  0  0  0  0  0
    3.0791   -1.2375    0.0000 C   0  0  0  0  0  0  0  0  0  0  0  0
    3.7935   -1.6500    0.0000 C   0  0  0  0  0  0  0  0  0  0  0  0
    3.0791   -0.4125    0.0000 C   0  0  0  0  0  0  0  0  0  0  0  0
    4.5080   -1.2375    0.0000 C   0  0  0  0  0  0  0  0  0  0  0  0
    3.7935    0.0000    0.0000 C   0  0  0  0  0  0  0  0  0  0  0  0
    4.5080   -0.4125    0.0000 C   0  0  0  0  0  0  0  0  0  0  0  0
    5.2224    0.0000    0.0000 C   0  0  0  0  0  0  0  0  0  0  0  0
    5.9370    1.2375    0.0000 C   0  0  0  0  0  0  0  0  0  0  0  0
    6.6515    2.4751    0.0000 C   0  0  0  0  0  0  0  0  0  0  0  0
    5.9370    2.0625    0.0000 C   0  0  0  0  0  0  0  0  0  0  0  0
    7.3659    2.0625    0.0000 C   0  0  0  0  0  0  0  0  0  0  0  0
    6.6515    0.8250    0.0000 C   0  0  0  0  0  0  0  0  0  0  0  0
    7.3659    1.2375    0.0000 C   0  0  0  0  0  0  0  0  0  0  0  0
    8.0804    2.4751    0.0000 C   0  0  0  0  0  0  0  0  0  0  0  0
    5.9370    3.7126    0.0000 C   0  0  0  0  0  0  0  0  0  0  0  0
    4.5080    3.7126    0.0000 C   0  0  0  0  0  0  0  0  0  0  0  0
    3.7935    3.3001    0.0000 C   0  0  0  0  0  0  0  0  0  0  0  0
    4.5080    4.5376    0.0000 C   0  0  0  0  0  0  0  0  0  0  0  0
    5.2224    4.9501    0.0000 C   0  0  0  0  0  0  0  0  0  0  0  0
    3.0791    3.7126    0.0000 C   0  0  0  0  0  0  0  0  0  0  0  0
    3.7935    2.4751    0.0000 C   0  0  0  0  0  0  0  0  0  0  0  0
    2.3645    3.3001    0.0000 C   0  0  0  0  0  0  0  0  0  0  0  0
    2.3645    2.4751    0.0000 C   0  0  0  0  0  0  0  0  0  0  0  0
    4.3698    1.3173    0.0000 H   0  0  0  0  0  0  0  0  0  0  0  0
    7.5041    3.7924    0.0000 H   0  0  0  0  0  0  0  0  0  0  0  0
    0.7234   -2.3526    0.0000 H   0  0  0  0  0  0  0  0  0  0  0  0
    0.7234   -3.4226    0.0000 H   0  0  0  0  0  0  0  0  0  0  0  0
    4.0057   -2.3526    0.0000 H   0  0  0  0  0  0  0  0  0  0  0  0
    4.0058   -3.4226    0.0000 H   0  0  0  0  0  0  0  0  0  0  0  0
    0.7234   -4.2476    0.0000 H   0  0  0  0  0  0  0  0  0  0  0  0
    0.7234   -3.1776    0.0000 H   0  0  0  0  0  0  0  0  0  0  0  0
    4.0057   -4.2476    0.0000 H   0  0  0  0  0  0  0  0  0  0  0  0
    4.0058   -3.1776    0.0000 H   0  0  0  0  0  0  0  0  0  0  0  0
    1.4379   -1.1150    0.0000 H   0  0  0  0  0  0  0  0  0  0  0  0
    2.3646   -0.5800    0.0000 H   0  0  0  0  0  0  0  0  0  0  0  0
    1.4379   -5.4851    0.0000 H   0  0  0  0  0  0  0  0  0  0  0  0
    3.2911   -5.4851    0.0000 H   0  0  0  0  0  0  0  0  0  0  0  0
    2.3645   -6.0201    0.0000 H   0  0  0  0  0  0  0  0  0  0  0  0
    3.7935   -2.6820    0.0000 H   0  0  0  0  0  0  0  0  0  0  0  0
    2.1854    0.1035    0.0000 H   0  0  0  0  0  0  0  0  0  0  0  0
    5.4017   -1.7535    0.0000 H   0  0  0  0  0  0  0  0  0  0  0  0
    3.7935    1.0320    0.0000 H   0  0  0  0  0  0  0  0  0  0  0  0
    5.0432    2.5785    0.0000 H   0  0  0  0  0  0  0  0  0  0  0  0
    6.6515   -0.2070    0.0000 H   0  0  0  0  0  0  0  0  0  0  0  0
    8.2596    0.7215    0.0000 H   0  0  0  0  0  0  0  0  0  0  0  0
    9.0071    1.9402    0.0000 H   0  0  0  0  0  0  0  0  0  0  0  0
    8.0803    3.5451    0.0000 H   0  0  0  0  0  0  0  0  0  0  0  0
    9.0070    3.0102    0.0000 H   0  0  0  0  0  0  0  0  0  0  0  0
    3.6143    5.0536    0.0000 H   0  0  0  0  0  0  0  0  0  0  0  0
    5.2223    5.9821    0.0000 H   0  0  0  0  0  0  0  0  0  0  0  0
    3.0792    4.7446    0.0000 H   0  0  0  0  0  0  0  0  0  0  0  0
    4.6873    1.9592    0.0000 H   0  0  0  0  0  0  0  0  0  0  0  0
    1.4708    3.8161    0.0000 H   0  0  0  0  0  0  0  0  0  0  0  0
    1.4708    1.9591    0.0000 H   0  0  0  0  0  0  0  0  0  0  0  0
  1 21  2  0  0  0  0
  2  9  1  0  0  0  0
  2 10  1  0  0  0  0
  2 13  1  0  0  0  0
  3 11  1  0  0  0  0
  3 12  1  0  0  0  0
  3 14  1  0  0  0  0
  4 21  1  0  0  0  0
  4 22  1  0  0  0  0
  4 38  1  0  0  0  0
  5 23  1  0  0  0  0
  5 29  1  0  0  0  0
  5 39  1  0  0  0  0
  6 29  1  0  0  0  0
  6 30  2  0  0  0  0
  7 29  2  0  0  0  0
  7 33  1  0  0  0  0
  8 35  1  0  0  0  0
  8 37  2  0  0  0  0
  9 11  1  0  0  0  0
  9 40  1  0  0  0  0
  9 41  1  0  0  0  0
 10 12  1  0  0  0  0
 10 42  1  0  0  0  0
 10 43  1  0  0  0  0
 11 44  1  0  0  0  0
 11 45  1  0  0  0  0
 12 46  1  0  0  0  0
 12 47  1  0  0  0  0
 13 15  1  0  0  0  0
 13 48  1  0  0  0  0
 13 49  1  0  0  0  0
 14 50  1  0  0  0  0
 14 51  1  0  0  0  0
 14 52  1  0  0  0  0
 15 16  2  0  0  0  0
 15 17  1  0  0  0  0
 16 18  1  0  0  0  0
 16 53  1  0  0  0  0
 17 19  2  0  0  0  0
 17 54  1  0  0  0  0
 18 20  2  0  0  0  0
 18 55  1  0  0  0  0
 19 20  1  0  0  0  0
 19 56  1  0  0  0  0
 20 21  1  0  0  0  0
 22 24  2  0  0  0  0
 22 26  1  0  0  0  0
 23 24  1  0  0  0  0
 23 25  2  0  0  0  0
 24 57  1  0  0  0  0
 25 27  1  0  0  0  0
 25 28  1  0  0  0  0
 26 27  2  0  0  0  0
 26 58  1  0  0  0  0
 27 59  1  0  0  0  0
 28 60  1  0  0  0  0
 28 61  1  0  0  0  0
 28 62  1  0  0  0  0
 30 31  1  0  0  0  0
 30 32  1  0  0  0  0
 31 34  1  0  0  0  0
 31 35  2  0  0  0  0
 32 33  2  0  0  0  0
 32 63  1  0  0  0  0
 33 64  1  0  0  0  0
 34 36  2  0  0  0  0
 34 65  1  0  0  0  0
 35 66  1  0  0  0  0
 36 37  1  0  0  0  0
 36 67  1  0  0  0  0
 37 68  1  0  0  0  0
M  END
>  <DRUGBANK_ID>
DB00619

>  <SECONDARY_ACCESSION_NUMBERS>
APRD01028; EXPT02967; DB03261

>  <COMMON_NAME>
Imatinib

>  <CAS_NUMBER>
152459-95-5

>  <UNII>
BKJ8M8G5HI

>  <SYNONYMS>
Imatinib; Imatinibum; Î±-(4-methyl-1-piperazinyl)-3'-((4-(3-pyridyl)-2-pyrimidinyl)amino)-p-toluidide

$$$$
