STS
 OpenBabel10282417072D

 35 37  0  0  0  0  0  0  0  0999 V2000
   -2.2841   -1.4845    0.0000 S   0  0  0  0  0  0  0  0  0  0  0  0
   -1.4591   -1.4845    0.0000 C   0  0  0  0  0  0  0  0  0  0  0  0
   -1.0466   -0.7701    0.0000 C   0  0  2  0  0  0  0  0  0  0  0  0
   -0.2216   -0.7701    0.0000 C   0  0  0  0  0  0  0  0  0  0  0  0
    0.2634   -1.4375    0.0000 N   0  0  0  0  0  0  0  0  0  0  0  0
    1.0480   -1.1826    0.0000 C   0  0  0  0  0  0  0  0  0  0  0  0
    1.0480   -0.3576    0.0000 C   0  0  0  0  0  0  0  0  0  0  0  0
    0.2634   -0.1026    0.0000 N   0  0  0  0  0  0  0  0  0  0  0  0
    1.7625    0.0549    0.0000 C   0  0  0  0  0  0  0  0  0  0  0  0
    2.4769   -0.3576    0.0000 C   0  0  0  0  0  0  0  0  0  0  0  0
    2.4769   -1.1826    0.0000 N   0  3  0  0  0  0  0  0  0  0  0  0
    1.7625   -1.5951    0.0000 C   0  0  0  0  0  0  0  0  0  0  0  0
   -1.4591   -0.0556    0.0000 C   0  0  0  0  0  0  0  0  0  0  0  0
   -1.0466    0.6589    0.0000 C   0  0  0  0  0  0  0  0  0  0  0  0
   -1.4591    1.3733    0.0000 C   0  0  0  0  0  0  0  0  0  0  0  0
   -1.0466    2.0878    0.0000 C   0  0  0  0  0  0  0  0  0  0  0  0
   -0.2216    2.0878    0.0000 C   0  0  0  0  0  0  0  0  0  0  0  0
    0.1909    1.3733    0.0000 C   0  0  0  0  0  0  0  0  0  0  0  0
   -0.2216    0.6589    0.0000 C   0  0  0  0  0  0  0  0  0  0  0  0
   -0.7546   -1.2758    0.0000 H   0  0  0  0  0  0  0  0  0  0  0  0
   -2.9641   -0.3067    0.0000 H   0  0  0  0  0  0  0  0  0  0  0  0
   -0.9241   -2.4112    0.0000 H   0  0  0  0  0  0  0  0  0  0  0  0
   -0.3891   -1.4845    0.0000 H   0  0  0  0  0  0  0  0  0  0  0  0
   -0.0408    0.8337    0.0000 H   0  0  0  0  0  0  0  0  0  0  0  0
    1.7625    1.0869    0.0000 H   0  0  0  0  0  0  0  0  0  0  0  0
    3.3706    0.1584    0.0000 H   0  0  0  0  0  0  0  0  0  0  0  0
    3.3295   -1.6748    0.0000 H   0  0  0  0  0  0  0  0  0  0  0  0
    1.7625   -2.6271    0.0000 H   0  0  0  0  0  0  0  0  0  0  0  0
   -2.5291   -0.0556    0.0000 H   0  0  0  0  0  0  0  0  0  0  0  0
   -1.9941    0.8710    0.0000 H   0  0  0  0  0  0  0  0  0  0  0  0
   -2.4911    1.3733    0.0000 H   0  0  0  0  0  0  0  0  0  0  0  0
   -1.5626    2.9815    0.0000 H   0  0  0  0  0  0  0  0  0  0  0  0
    0.2944    2.9815    0.0000 H   0  0  0  0  0  0  0  0  0  0  0  0
    1.2229    1.3733    0.0000 H   0  0  0  0  0  0  0  0  0  0  0  0
    0.2944   -0.2348    0.0000 H   0  0  0  0  0  0  0  0  0  0  0  0
  1  2  1  0  0  0  0
  1 21  1  0  0  0  0
  2  3  1  0  0  0  0
  2 22  1  0  0  0  0
  2 23  1  0  0  0  0
  3  4  1  0  0  0  0
  3 13  1  0  0  0  0
  3 20  1  6  0  0  0
  4  5  2  0  0  0  0
  4  8  1  0  0  0  0
  5  6  1  0  0  0  0
  6  7  2  0  0  0  0
  6 12  1  0  0  0  0
  7  8  1  0  0  0  0
  7  9  1  0  0  0  0
  8 24  1  0  0  0  0
  9 10  2  0  0  0  0
  9 25  1  0  0  0  0
 10 11  1  0  0  0  0
 10 26  1  0  0  0  0
 11 12  2  0  0  0  0
 11 27  1  0  0  0  0
 12 28  1  0  0  0  0
 13 14  1  0  0  0  0
 13 29  1  0  0  0  0
 13 30  1  0  0  0  0
 14 15  2  0  0  0  0
 14 19  1  0  0  0  0
 15 16  1  0  0  0  0
 15 31  1  0  0  0  0
 16 17  2  0  0  0  0
 16 32  1  0  0  0  0
 17 18  1  0  0  0  0
 17 33  1  0  0  0  0
 18 19  2  0  0  0  0
 18 34  1  0  0  0  0
 19 35  1  0  0  0  0
M  CHG  1  11   1
M  END
>  <DRUGBANK_ID>
DB08575

>  <COMMON_NAME>
2-[(1S)-1-BENZYL-2-SULFANYLETHYL]-1H-IMIDAZO[4,5-C]PYRIDIN-5-IUM

$$$$
