
 OpenBabel10282417072D

 50 50  0  0  1  0  0  0  0  0999 V2000
   -2.9707   -0.0651    0.0000 C   0  0  0  0  0  0  0  0  0  0  0  0
   -2.2562   -0.4776    0.0000 N   0  0  0  0  0  0  0  0  0  0  0  0
   -2.2562   -1.3026    0.0000 C   0  0  0  0  0  0  0  0  0  0  0  0
   -1.5418   -0.0651    0.0000 C   0  0  0  0  0  0  0  0  0  0  0  0
   -0.8273   -0.4776    0.0000 C   0  0  0  0  0  0  0  0  0  0  0  0
   -0.1128   -0.0651    0.0000 C   0  0  1  0  0  0  0  0  0  0  0  0
    0.6017   -0.4776    0.0000 C   0  0  0  0  0  0  0  0  0  0  0  0
    1.3161   -0.0651    0.0000 C   0  0  0  0  0  0  0  0  0  0  0  0
    2.0306   -0.4776    0.0000 C   0  0  0  0  0  0  0  0  0  0  0  0
    2.0306   -1.3026    0.0000 C   0  0  0  0  0  0  0  0  0  0  0  0
    1.3161   -1.7151    0.0000 C   0  0  0  0  0  0  0  0  0  0  0  0
    0.6017   -1.3026    0.0000 C   0  0  0  0  0  0  0  0  0  0  0  0
    2.7451   -1.7151    0.0000 Cl  0  0  0  0  0  0  0  0  0  0  0  0
   -0.1128    0.7599    0.0000 C   0  0  0  0  0  0  0  0  0  0  0  0
   -0.8273    1.1724    0.0000 C   0  0  0  0  0  0  0  0  0  0  0  0
   -0.8273    1.9974    0.0000 C   0  0  0  0  0  0  0  0  0  0  0  0
   -0.1128    2.4099    0.0000 C   0  0  0  0  0  0  0  0  0  0  0  0
    0.6017    1.9974    0.0000 C   0  0  0  0  0  0  0  0  0  0  0  0
    0.6017    1.1724    0.0000 N   0  0  0  0  0  0  0  0  0  0  0  0
    6.5754    0.7145    0.0000 C   0  0  0  0  0  0  0  0  0  0  0  0
    5.7504    0.7145    0.0000 C   0  0  0  0  0  0  0  0  0  0  0  0
    5.3379    0.0000    0.0000 C   0  0  0  0  0  0  0  0  0  0  0  0
    4.5129    0.0000    0.0000 O   0  0  0  0  0  0  0  0  0  0  0  0
    5.7504   -0.7145    0.0000 O   0  0  0  0  0  0  0  0  0  0  0  0
    6.9879    0.0000    0.0000 C   0  0  0  0  0  0  0  0  0  0  0  0
    7.8129   -0.0000    0.0000 O   0  0  0  0  0  0  0  0  0  0  0  0
    6.5754   -0.7145    0.0000 O   0  0  0  0  0  0  0  0  0  0  0  0
   -2.9707    1.0049    0.0000 H   0  0  0  0  0  0  0  0  0  0  0  0
   -3.8973   -0.6001    0.0000 H   0  0  0  0  0  0  0  0  0  0  0  0
   -3.8974    0.4699    0.0000 H   0  0  0  0  0  0  0  0  0  0  0  0
   -3.1828   -1.8376    0.0000 H   0  0  0  0  0  0  0  0  0  0  0  0
   -1.3296   -1.8376    0.0000 H   0  0  0  0  0  0  0  0  0  0  0  0
   -2.2562   -2.3726    0.0000 H   0  0  0  0  0  0  0  0  0  0  0  0
   -1.5418    1.0049    0.0000 H   0  0  0  0  0  0  0  0  0  0  0  0
   -0.6152    0.4699    0.0000 H   0  0  0  0  0  0  0  0  0  0  0  0
   -0.8273   -1.5476    0.0000 H   0  0  0  0  0  0  0  0  0  0  0  0
    0.0993   -1.0126    0.0000 H   0  0  0  0  0  0  0  0  0  0  0  0
   -0.1128   -1.1351    0.0000 H   0  0  0  0  0  0  0  0  0  0  0  0
    1.3161    0.9669    0.0000 H   0  0  0  0  0  0  0  0  0  0  0  0
    2.9243    0.0384    0.0000 H   0  0  0  0  0  0  0  0  0  0  0  0
    1.3161   -2.7471    0.0000 H   0  0  0  0  0  0  0  0  0  0  0  0
   -0.2920   -1.8186    0.0000 H   0  0  0  0  0  0  0  0  0  0  0  0
   -1.7210    0.6564    0.0000 H   0  0  0  0  0  0  0  0  0  0  0  0
   -1.7210    2.5134    0.0000 H   0  0  0  0  0  0  0  0  0  0  0  0
   -0.1128    3.4419    0.0000 H   0  0  0  0  0  0  0  0  0  0  0  0
    1.4954    2.5134    0.0000 H   0  0  0  0  0  0  0  0  0  0  0  0
    7.0914    1.6082    0.0000 H   0  0  0  0  0  0  0  0  0  0  0  0
    5.2344    1.6082    0.0000 H   0  0  0  0  0  0  0  0  0  0  0  0
    5.2819   -1.5260    0.0000 H   0  0  0  0  0  0  0  0  0  0  0  0
    5.6384   -0.7145    0.0000 H   0  0  0  0  0  0  0  0  0  0  0  0
  1  2  1  0  0  0  0
  1 28  1  0  0  0  0
  1 29  1  0  0  0  0
  1 30  1  0  0  0  0
  2  3  1  0  0  0  0
  2  4  1  0  0  0  0
  3 31  1  0  0  0  0
  3 32  1  0  0  0  0
  3 33  1  0  0  0  0
  4  5  1  0  0  0  0
  4 34  1  0  0  0  0
  4 35  1  0  0  0  0
  5 36  1  0  0  0  0
  5 37  1  0  0  0  0
  6  5  1  0  0  0  0
  6  7  1  0  0  0  0
  6 14  1  0  0  0  0
  6 38  1  1  0  0  0
  7  8  2  0  0  0  0
  7 12  1  0  0  0  0
  8  9  1  0  0  0  0
  8 39  1  0  0  0  0
  9 10  2  0  0  0  0
  9 40  1  0  0  0  0
 10 11  1  0  0  0  0
 10 13  1  0  0  0  0
 11 12  2  0  0  0  0
 11 41  1  0  0  0  0
 12 42  1  0  0  0  0
 14 15  2  0  0  0  0
 14 19  1  0  0  0  0
 15 16  1  0  0  0  0
 15 43  1  0  0  0  0
 16 17  2  0  0  0  0
 16 44  1  0  0  0  0
 17 18  1  0  0  0  0
 17 45  1  0  0  0  0
 18 19  2  0  0  0  0
 18 46  1  0  0  0  0
 20 21  2  0  0  0  0
 20 25  1  0  0  0  0
 20 47  1  0  0  0  0
 21 22  1  0  0  0  0
 21 48  1  0  0  0  0
 22 23  2  0  0  0  0
 22 24  1  0  0  0  0
 24 49  1  0  0  0  0
 25 26  2  0  0  0  0
 25 27  1  0  0  0  0
 27 50  1  0  0  0  0
M  END
>  <DRUGBANK_ID>
DB09555

>  <COMMON_NAME>
Dexchlorpheniramine maleate

>  <CAS_NUMBER>
2438-32-6

>  <UNII>
B10YD955QW

>  <SYNONYMS>
Dexchlorpheniramine maleate

$$$$
