196
 OpenBabel10282417072D

 34 36  0  0  0  0  0  0  0  0999 V2000
    1.6500   -0.2897    0.0000 F   0  0  0  0  0  0  0  0  0  0  0  0
    3.0790   -2.7647    0.0000 F   0  0  0  0  0  0  0  0  0  0  0  0
    2.2540    0.5353    0.0000 O   0  0  0  0  0  0  0  0  0  0  0  0
    3.7934    1.7728    0.0000 N   0  0  0  0  0  0  0  0  0  0  0  0
    4.6184    0.1228    0.0000 N   0  0  0  0  0  0  0  0  0  0  0  0
    4.5471    1.4371    0.0000 N   0  0  0  0  0  0  0  0  0  0  0  0
    5.3721    0.4583    0.0000 N   0  0  0  0  0  0  0  0  0  0  0  0
    4.6867    2.7647    0.0000 N   0  0  0  0  0  0  0  0  0  0  0  0
    5.5117   -0.8693    0.0000 N   0  0  0  0  0  0  0  0  0  0  0  0
    3.0790    0.5353    0.0000 C   0  0  0  0  0  0  0  0  0  0  0  0
    3.0790    1.3603    0.0000 C   0  0  0  0  0  0  0  0  0  0  0  0
    3.9040    0.5353    0.0000 C   0  0  0  0  0  0  0  0  0  0  0  0
    3.0790   -0.2897    0.0000 C   0  0  0  0  0  0  0  0  0  0  0  0
    2.3644   -0.7022    0.0000 C   0  0  0  0  0  0  0  0  0  0  0  0
    3.7934   -0.7022    0.0000 C   0  0  0  0  0  0  0  0  0  0  0  0
    2.3644   -1.5272    0.0000 C   0  0  0  0  0  0  0  0  0  0  0  0
    3.7934   -1.5272    0.0000 C   0  0  0  0  0  0  0  0  0  0  0  0
    3.8796    2.5932    0.0000 C   0  0  0  0  0  0  0  0  0  0  0  0
    4.7046   -0.6977    0.0000 C   0  0  0  0  0  0  0  0  0  0  0  0
    3.0790   -1.9397    0.0000 C   0  0  0  0  0  0  0  0  0  0  0  0
    5.0992    2.0503    0.0000 C   0  0  0  0  0  0  0  0  0  0  0  0
    5.9242   -0.1548    0.0000 C   0  0  0  0  0  0  0  0  0  0  0  0
    1.7690    1.3753    0.0000 H   0  0  0  0  0  0  0  0  0  0  0  0
    2.1523    1.8953    0.0000 H   0  0  0  0  0  0  0  0  0  0  0  0
    2.1524    0.8253    0.0000 H   0  0  0  0  0  0  0  0  0  0  0  0
    4.1810    1.5688    0.0000 H   0  0  0  0  0  0  0  0  0  0  0  0
    3.2526    1.3842    0.0000 H   0  0  0  0  0  0  0  0  0  0  0  0
    4.6871   -0.1862    0.0000 H   0  0  0  0  0  0  0  0  0  0  0  0
    1.4707   -2.0432    0.0000 H   0  0  0  0  0  0  0  0  0  0  0  0
    4.6871   -2.0432    0.0000 H   0  0  0  0  0  0  0  0  0  0  0  0
    3.1127    3.2838    0.0000 H   0  0  0  0  0  0  0  0  0  0  0  0
    3.9376   -1.3882    0.0000 H   0  0  0  0  0  0  0  0  0  0  0  0
    6.1256    1.9425    0.0000 H   0  0  0  0  0  0  0  0  0  0  0  0
    6.9505   -0.0469    0.0000 H   0  0  0  0  0  0  0  0  0  0  0  0
  1 14  1  0  0  0  0
  2 20  1  0  0  0  0
  3 10  1  0  0  0  0
  3 23  1  0  0  0  0
  4  6  1  0  0  0  0
  4 11  1  0  0  0  0
  4 18  1  0  0  0  0
  5  7  1  0  0  0  0
  5 12  1  0  0  0  0
  5 19  1  0  0  0  0
  6 21  2  0  0  0  0
  7 22  2  0  0  0  0
  8 18  2  0  0  0  0
  8 21  1  0  0  0  0
  9 19  2  0  0  0  0
  9 22  1  0  0  0  0
 10 11  1  0  0  0  0
 10 12  1  0  0  0  0
 10 13  1  0  0  0  0
 11 24  1  0  0  0  0
 11 25  1  0  0  0  0
 12 26  1  0  0  0  0
 12 27  1  0  0  0  0
 13 14  2  0  0  0  0
 13 15  1  0  0  0  0
 14 16  1  0  0  0  0
 15 17  2  0  0  0  0
 15 28  1  0  0  0  0
 16 20  2  0  0  0  0
 16 29  1  0  0  0  0
 17 20  1  0  0  0  0
 17 30  1  0  0  0  0
 18 31  1  0  0  0  0
 19 32  1  0  0  0  0
 21 33  1  0  0  0  0
 22 34  1  0  0  0  0
M  END
>  <DRUGBANK_ID>
DB00196

>  <SECONDARY_ACCESSION_NUMBERS>
APRD00327

>  <COMMON_NAME>
Fluconazole

>  <CAS_NUMBER>
86386-73-4

>  <UNII>
8VZV102JFY

>  <SYNONYMS>
Diflucan; Difluconazole; Fluconazol; Fluconazole; Fluconazolum; Triflucan

$$$$
