AZQ
 OpenBabel10282417072D

 40 42  0  0  0  0  0  0  0  0999 V2000
   -0.2845   -0.9203    0.0000 C   0  0  0  0  0  0  0  0  0  0  0  0
   -1.0483   -0.6085    0.0000 C   0  0  1  0  0  0  0  0  0  0  0  0
   -0.9877    0.2143    0.0000 C   0  0  0  0  0  0  0  0  0  0  0  0
   -0.1865    0.4109    0.0000 N   0  0  0  0  0  0  0  0  0  0  0  0
    0.2035    1.1379    0.0000 C   0  0  0  0  0  0  0  0  0  0  0  0
    1.0281    1.1637    0.0000 N   0  0  0  0  0  0  0  0  0  0  0  0
    1.4627    0.4625    0.0000 C   0  0  0  0  0  0  0  0  0  0  0  0
    2.2873    0.4882    0.0000 C   0  0  0  0  0  0  0  0  0  0  0  0
    2.7219   -0.2130    0.0000 C   0  0  0  0  0  0  0  0  0  0  0  0
    2.3319   -0.9400    0.0000 C   0  0  0  0  0  0  0  0  0  0  0  0
    1.5073   -0.9658    0.0000 C   0  0  0  0  0  0  0  0  0  0  0  0
    1.0727   -0.2645    0.0000 C   0  0  0  0  0  0  0  0  0  0  0  0
    0.2481   -0.2903    0.0000 N   0  0  0  0  0  0  0  0  0  0  0  0
   -0.0879   -1.7216    0.0000 O   0  0  0  0  0  0  0  0  0  0  0  0
   -1.7496   -1.0431    0.0000 C   0  0  0  0  0  0  0  0  0  0  0  0
   -2.4766   -0.6531    0.0000 C   0  0  0  0  0  0  0  0  0  0  0  0
   -3.1778   -1.0877    0.0000 C   0  0  0  0  0  0  0  0  0  0  0  0
   -1.6178    0.7469    0.0000 O   0  0  0  0  0  0  0  0  0  0  0  0
   -0.2311    1.8392    0.0000 N   0  0  0  0  0  0  0  0  0  0  0  0
    0.1588    2.5662    0.0000 C   0  0  0  0  0  0  0  0  0  0  0  0
   -1.0557    1.8134    0.0000 C   0  0  0  0  0  0  0  0  0  0  0  0
    2.7665   -1.6413    0.0000 C   0  0  0  0  0  0  0  0  0  0  0  0
   -0.9996   -1.1904    0.0000 H   0  0  0  0  0  0  0  0  0  0  0  0
    2.7752    1.3976    0.0000 H   0  0  0  0  0  0  0  0  0  0  0  0
    3.7534   -0.1808    0.0000 H   0  0  0  0  0  0  0  0  0  0  0  0
    1.0195   -1.8752    0.0000 H   0  0  0  0  0  0  0  0  0  0  0  0
   -1.7162   -2.1126    0.0000 H   0  0  0  0  0  0  0  0  0  0  0  0
   -2.6591   -1.6068    0.0000 H   0  0  0  0  0  0  0  0  0  0  0  0
   -2.5088    0.3784    0.0000 H   0  0  0  0  0  0  0  0  0  0  0  0
   -4.0872   -0.5999    0.0000 H   0  0  0  0  0  0  0  0  0  0  0  0
   -3.1456   -2.1192    0.0000 H   0  0  0  0  0  0  0  0  0  0  0  0
    1.2283    2.5997    0.0000 H   0  0  0  0  0  0  0  0  0  0  0  0
   -0.4050    3.4756    0.0000 H   0  0  0  0  0  0  0  0  0  0  0  0
    0.6645    3.5091    0.0000 H   0  0  0  0  0  0  0  0  0  0  0  0
   -1.6194    2.7229    0.0000 H   0  0  0  0  0  0  0  0  0  0  0  0
   -1.5615    0.8705    0.0000 H   0  0  0  0  0  0  0  0  0  0  0  0
   -2.1252    1.7799    0.0000 H   0  0  0  0  0  0  0  0  0  0  0  0
    2.2607   -2.5842    0.0000 H   0  0  0  0  0  0  0  0  0  0  0  0
    3.8360   -1.6079    0.0000 H   0  0  0  0  0  0  0  0  0  0  0  0
    3.3301   -2.5508    0.0000 H   0  0  0  0  0  0  0  0  0  0  0  0
  1  2  1  0  0  0  0
  1 13  1  0  0  0  0
  1 14  2  0  0  0  0
  2  3  1  0  0  0  0
  2 15  1  0  0  0  0
  2 23  1  1  0  0  0
  3  4  1  0  0  0  0
  3 18  2  0  0  0  0
  4  5  1  0  0  0  0
  4 13  1  0  0  0  0
  5  6  2  0  0  0  0
  5 19  1  0  0  0  0
  6  7  1  0  0  0  0
  7  8  2  0  0  0  0
  7 12  1  0  0  0  0
  8  9  1  0  0  0  0
  8 24  1  0  0  0  0
  9 10  2  0  0  0  0
  9 25  1  0  0  0  0
 10 11  1  0  0  0  0
 10 22  1  0  0  0  0
 11 12  2  0  0  0  0
 11 26  1  0  0  0  0
 12 13  1  0  0  0  0
 15 16  1  0  0  0  0
 15 27  1  0  0  0  0
 15 28  1  0  0  0  0
 16 17  2  0  0  0  0
 16 29  1  0  0  0  0
 17 30  1  0  0  0  0
 17 31  1  0  0  0  0
 19 20  1  0  0  0  0
 19 21  1  0  0  0  0
 20 32  1  0  0  0  0
 20 33  1  0  0  0  0
 20 34  1  0  0  0  0
 21 35  1  0  0  0  0
 21 36  1  0  0  0  0
 21 37  1  0  0  0  0
 22 38  1  0  0  0  0
 22 39  1  0  0  0  0
 22 40  1  0  0  0  0
M  END
>  <DRUGBANK_ID>
DB07402

>  <COMMON_NAME>
Azapropazone

>  <CAS_NUMBER>
13539-59-8

>  <UNII>
K2VOT966ZI

>  <SYNONYMS>
1,2-Dihydro-3-dimethylamino-7-methyl-1,2-(propylmalonyl)-1,2,4-benzotriazine; 3-Dimethylamino-7-methyl-1,2-(n-propylmalonyl)-1,2-dihydro-1,2,4-benzotriazine; 5-(Dimethylamino)-9-methyl-2-propyl-1H-pyrazolo(1,2-a)(1,2,4)benzotriazine-1,3(2H)-dione; Apazone; Azapropazon; Azapropazona; Azapropazone; Azapropazonum

$$$$
