
 OpenBabel10282417072D

 42 42  0  0  0  0  0  0  0  0999 V2000
   -3.5759    0.6185    0.0000 Br  0  0  0  0  0  0  0  0  0  0  0  0
   -0.7080   -1.0334    0.0000 O   0  0  0  0  0  0  0  0  0  0  0  0
   -0.7008    1.4411    0.0000 O   0  0  0  0  0  0  0  0  0  0  0  0
    0.0071    0.2037    0.0000 N   0  0  0  0  0  0  0  0  0  0  0  0
   -3.5759   -1.0262    0.0000 N   0  0  0  0  0  0  0  0  0  0  0  0
    2.1455    0.6185    0.0000 N   0  0  0  0  0  0  0  0  0  0  0  0
   -1.4375    0.2037    0.0000 C   0  0  0  0  0  0  0  0  0  0  0  0
   -1.4375   -0.6185    0.0000 C   0  0  0  0  0  0  0  0  0  0  0  0
   -2.8608    0.2037    0.0000 C   0  0  0  0  0  0  0  0  0  0  0  0
   -0.7080    0.6185    0.0000 C   0  0  0  0  0  0  0  0  0  0  0  0
   -2.1455    0.6185    0.0000 C   0  0  0  0  0  0  0  0  0  0  0  0
   -2.8608   -0.6185    0.0000 C   0  0  0  0  0  0  0  0  0  0  0  0
   -2.1455   -1.0262    0.0000 C   0  0  0  0  0  0  0  0  0  0  0  0
    0.7224    0.6185    0.0000 C   0  0  0  0  0  0  0  0  0  0  0  0
    1.4375    0.2037    0.0000 C   0  0  0  0  0  0  0  0  0  0  0  0
   -0.7080   -1.8559    0.0000 C   0  0  0  0  0  0  0  0  0  0  0  0
    2.8608    0.2037    0.0000 C   0  0  0  0  0  0  0  0  0  0  0  0
    2.1599    1.4411    0.0000 C   0  0  0  0  0  0  0  0  0  0  0  0
    3.5759    0.6185    0.0000 C   0  0  0  0  0  0  0  0  0  0  0  0
    2.8751    1.8559    0.0000 C   0  0  0  0  0  0  0  0  0  0  0  0
    0.0070   -0.7808    0.0000 H   0  0  0  0  0  0  0  0  0  0  0  0
   -4.4258   -0.5293    0.0000 H   0  0  0  0  0  0  0  0  0  0  0  0
   -3.5812   -2.0107    0.0000 H   0  0  0  0  0  0  0  0  0  0  0  0
   -2.1432    1.6505    0.0000 H   0  0  0  0  0  0  0  0  0  0  0  0
   -2.1432   -2.0582    0.0000 H   0  0  0  0  0  0  0  0  0  0  0  0
    0.7225    1.6885    0.0000 H   0  0  0  0  0  0  0  0  0  0  0  0
    1.6496    1.1525    0.0000 H   0  0  0  0  0  0  0  0  0  0  0  0
    1.4398   -0.8663    0.0000 H   0  0  0  0  0  0  0  0  0  0  0  0
    0.5109   -0.3314    0.0000 H   0  0  0  0  0  0  0  0  0  0  0  0
   -1.6346   -2.3909    0.0000 H   0  0  0  0  0  0  0  0  0  0  0  0
    0.2186   -2.3909    0.0000 H   0  0  0  0  0  0  0  0  0  0  0  0
   -0.7080   -2.9259    0.0000 H   0  0  0  0  0  0  0  0  0  0  0  0
    2.8609   -0.8663    0.0000 H   0  0  0  0  0  0  0  0  0  0  0  0
    3.7880   -0.3303    0.0000 H   0  0  0  0  0  0  0  0  0  0  0  0
    1.2374    1.9833    0.0000 H   0  0  0  0  0  0  0  0  0  0  0  0
    2.1630    2.5111    0.0000 H   0  0  0  0  0  0  0  0  0  0  0  0
    4.5036    0.0854    0.0000 H   0  0  0  0  0  0  0  0  0  0  0  0
    3.5737    1.6885    0.0000 H   0  0  0  0  0  0  0  0  0  0  0  0
    4.5015    1.1554    0.0000 H   0  0  0  0  0  0  0  0  0  0  0  0
    3.8028    1.3227    0.0000 H   0  0  0  0  0  0  0  0  0  0  0  0
    2.8730    2.9259    0.0000 H   0  0  0  0  0  0  0  0  0  0  0  0
    3.8007    2.3927    0.0000 H   0  0  0  0  0  0  0  0  0  0  0  0
  1  9  1  0  0  0  0
  2  8  1  0  0  0  0
  2 16  1  0  0  0  0
  3 10  2  0  0  0  0
  4 10  1  0  0  0  0
  4 14  1  0  0  0  0
  4 21  1  0  0  0  0
  5 12  1  0  0  0  0
  5 22  1  0  0  0  0
  5 23  1  0  0  0  0
  6 15  1  0  0  0  0
  6 17  1  0  0  0  0
  6 18  1  0  0  0  0
  7  8  1  0  0  0  0
  7 10  1  0  0  0  0
  7 11  2  0  0  0  0
  8 13  2  0  0  0  0
  9 11  1  0  0  0  0
  9 12  2  0  0  0  0
 11 24  1  0  0  0  0
 12 13  1  0  0  0  0
 13 25  1  0  0  0  0
 14 15  1  0  0  0  0
 14 26  1  0  0  0  0
 14 27  1  0  0  0  0
 15 28  1  0  0  0  0
 15 29  1  0  0  0  0
 16 30  1  0  0  0  0
 16 31  1  0  0  0  0
 16 32  1  0  0  0  0
 17 19  1  0  0  0  0
 17 33  1  0  0  0  0
 17 34  1  0  0  0  0
 18 20  1  0  0  0  0
 18 35  1  0  0  0  0
 18 36  1  0  0  0  0
 19 37  1  0  0  0  0
 19 38  1  0  0  0  0
 19 39  1  0  0  0  0
 20 40  1  0  0  0  0
 20 41  1  0  0  0  0
 20 42  1  0  0  0  0
M  END
>  <DRUGBANK_ID>
DB09018

>  <COMMON_NAME>
Bromopride

>  <CAS_NUMBER>
4093-35-0

>  <UNII>
75473V2YZK

>  <SYNONYMS>
4-amino-5-bromo-N-[2-(diethylamino)ethyl]-2-methoxybenzamide; Bromoprid; Bromoprida; Bromopride; Bromopridum

$$$$
