
 OpenBabel10282417072D

 85 89  0  0  0  0  0  0  0  0999 V2000
   -3.5014    1.0048    0.0000 P   0  0  2  0  0  0  0  0  0  0  0  0
    2.1836    1.5923    0.0000 P   0  0  2  0  0  0  0  0  0  0  0  0
   -2.0802    1.1517    0.0000 P   0  0  1  0  0  0  0  0  0  0  0  0
    0.7623    1.4455    0.0000 P   0  0  1  0  0  0  0  0  0  0  0  0
   -0.6589    1.2986    0.0000 P   0  0  1  0  0  0  0  0  0  0  0  0
   -5.5924   -0.4507    0.0000 O   0  0  0  0  0  0  0  0  0  0  0  0
    5.0573    1.9667    0.0000 O   0  0  0  0  0  0  0  0  0  0  0  0
   -7.6861   -0.0346    0.0000 O   0  0  0  0  0  0  0  0  0  0  0  0
   -6.6286    1.4155    0.0000 O   0  0  0  0  0  0  0  0  0  0  0  0
    3.6080    3.5340    0.0000 O   0  0  0  0  0  0  0  0  0  0  0  0
   -4.1697    0.5211    0.0000 O   0  0  0  0  0  0  0  0  0  0  0  0
    2.8518    2.0761    0.0000 O   0  0  0  0  0  0  0  0  0  0  0  0
   -2.8332    1.4886    0.0000 O   0  0  0  0  0  0  0  0  0  0  0  0
    6.3658    1.2031    0.0000 O   0  0  0  0  0  0  0  0  0  0  0  0
   -3.0177    0.3365    0.0000 O   0  0  0  0  0  0  0  0  0  0  0  0
    1.5153    1.1087    0.0000 O   0  0  0  0  0  0  0  0  0  0  0  0
   -3.9851    1.6730    0.0000 O   0  0  0  0  0  0  0  0  0  0  0  0
    2.6673    0.9241    0.0000 O   0  0  0  0  0  0  0  0  0  0  0  0
    8.8431    2.6276    0.0000 O   0  0  0  0  0  0  0  0  0  0  0  0
    1.6999    2.2606    0.0000 O   0  0  0  0  0  0  0  0  0  0  0  0
   -1.3271    0.8148    0.0000 O   0  0  0  0  0  0  0  0  0  0  0  0
    0.0092    1.7823    0.0000 O   0  0  0  0  0  0  0  0  0  0  0  0
   -1.7434    1.9048    0.0000 O   0  0  0  0  0  0  0  0  0  0  0  0
   -2.4170    0.3986    0.0000 O   0  0  0  0  0  0  0  0  0  0  0  0
    1.0992    2.1985    0.0000 O   0  0  0  0  0  0  0  0  0  0  0  0
    0.4255    0.6924    0.0000 O   0  0  0  0  0  0  0  0  0  0  0  0
   -0.1751    0.6304    0.0000 O   0  0  0  0  0  0  0  0  0  0  0  0
   -1.1426    1.9668    0.0000 O   0  0  0  0  0  0  0  0  0  0  0  0
   -6.6336   -1.4884    0.0000 N   0  0  0  0  0  0  0  0  0  0  0  0
    6.3683    2.6319    0.0000 N   0  0  0  0  0  0  0  0  0  0  0  0
   -6.6336   -2.8161    0.0000 N   0  0  0  0  0  0  0  0  0  0  0  0
   -8.1287   -1.3273    0.0000 N   0  0  0  0  0  0  0  0  0  0  0  0
    7.6044    1.9153    0.0000 N   0  0  0  0  0  0  0  0  0  0  0  0
   -8.8431   -2.5647    0.0000 N   0  0  0  0  0  0  0  0  0  0  0  0
   -8.1287   -3.8021    0.0000 N   0  0  0  0  0  0  0  0  0  0  0  0
   -6.8612   -0.0360    0.0000 C   0  0  2  0  0  0  0  0  0  0  0  0
   -6.3751    0.6305    0.0000 C   0  0  1  0  0  0  0  0  0  0  0  0
   -6.3774   -0.7042    0.0000 C   0  0  1  0  0  0  0  0  0  0  0  0
   -5.5909    0.3741    0.0000 C   0  0  1  0  0  0  0  0  0  0  0  0
    4.2745    3.0480    0.0000 C   0  0  2  0  0  0  0  0  0  0  0  0
    4.2731    2.2230    0.0000 C   0  0  1  0  0  0  0  0  0  0  0  0
    5.0596    3.3016    0.0000 C   0  0  0  0  0  0  0  0  0  0  0  0
    5.5433    2.6333    0.0000 C   0  0  1  0  0  0  0  0  0  0  0  0
   -4.9227    0.8579    0.0000 C   0  0  0  0  0  0  0  0  0  0  0  0
    3.6048    1.7393    0.0000 C   0  0  0  0  0  0  0  0  0  0  0  0
   -7.4142   -1.7398    0.0000 C   0  0  0  0  0  0  0  0  0  0  0  0
   -6.1522   -2.1522    0.0000 C   0  0  0  0  0  0  0  0  0  0  0  0
   -7.4142   -2.5647    0.0000 C   0  0  0  0  0  0  0  0  0  0  0  0
    6.7820    3.3456    0.0000 C   0  0  0  0  0  0  0  0  0  0  0  0
    6.7795    1.9167    0.0000 C   0  0  0  0  0  0  0  0  0  0  0  0
    7.6069    3.3441    0.0000 C   0  0  0  0  0  0  0  0  0  0  0  0
   -8.1287   -2.9772    0.0000 C   0  0  0  0  0  0  0  0  0  0  0  0
    8.0182    2.6290    0.0000 C   0  0  0  0  0  0  0  0  0  0  0  0
   -8.8431   -1.7398    0.0000 C   0  0  0  0  0  0  0  0  0  0  0  0
    8.0206    4.0579    0.0000 C   0  0  0  0  0  0  0  0  0  0  0  0
    7.8593    1.4719    0.0000 H   0  0  0  0  0  0  0  0  0  0  0  0
   -7.6857   -4.0579    0.0000 H   0  0  0  0  0  0  0  0  0  0  0  0
   -8.5716   -4.0579    0.0000 H   0  0  0  0  0  0  0  0  0  0  0  0
   -8.1697    0.8063    0.0000 H   0  0  0  0  0  0  0  0  0  0  0  0
   -5.9782    2.1352    0.0000 H   0  0  0  0  0  0  0  0  0  0  0  0
    3.7111    4.4985    0.0000 H   0  0  0  0  0  0  0  0  0  0  0  0
   -3.4138   -0.5489    0.0000 H   0  0  0  0  0  0  0  0  0  0  0  0
    2.2712    0.0386    0.0000 H   0  0  0  0  0  0  0  0  0  0  0  0
   -0.7785    2.0046    0.0000 H   0  0  0  0  0  0  0  0  0  0  0  0
    2.0641    2.2981    0.0000 H   0  0  0  0  0  0  0  0  0  0  0  0
   -0.5711   -0.2551    0.0000 H   0  0  0  0  0  0  0  0  0  0  0  0
   -7.3453    0.9182    0.0000 H   0  0  0  0  0  0  0  0  0  0  0  0
   -7.4316    0.7998    0.0000 H   0  0  0  0  0  0  0  0  0  0  0  0
   -5.6221   -1.4621    0.0000 H   0  0  0  0  0  0  0  0  0  0  0  0
   -4.6384   -0.1133    0.0000 H   0  0  0  0  0  0  0  0  0  0  0  0
    3.3203    2.5639    0.0000 H   0  0  0  0  0  0  0  0  0  0  0  0
    4.4386    1.1659    0.0000 H   0  0  0  0  0  0  0  0  0  0  0  0
    5.3920    4.3186    0.0000 H   0  0  0  0  0  0  0  0  0  0  0  0
    6.1167    3.4671    0.0000 H   0  0  0  0  0  0  0  0  0  0  0  0
    6.0275    1.6791    0.0000 H   0  0  0  0  0  0  0  0  0  0  0  0
   -5.0328    1.9222    0.0000 H   0  0  0  0  0  0  0  0  0  0  0  0
   -5.8995    1.2947    0.0000 H   0  0  0  0  0  0  0  0  0  0  0  0
    3.7148    0.6750    0.0000 H   0  0  0  0  0  0  0  0  0  0  0  0
    4.5815    1.3023    0.0000 H   0  0  0  0  0  0  0  0  0  0  0  0
   -5.1202   -2.1522    0.0000 H   0  0  0  0  0  0  0  0  0  0  0  0
    6.2676    4.2403    0.0000 H   0  0  0  0  0  0  0  0  0  0  0  0
   -9.7368   -1.2238    0.0000 H   0  0  0  0  0  0  0  0  0  0  0  0
    9.0906    4.0561    0.0000 H   0  0  0  0  0  0  0  0  0  0  0  0
    7.4871    4.9854    0.0000 H   0  0  0  0  0  0  0  0  0  0  0  0
    8.5571    4.9837    0.0000 H   0  0  0  0  0  0  0  0  0  0  0  0
  1 11  1  0  0  0  0
  1 13  1  0  0  0  0
  1 15  1  0  0  0  0
  1 17  2  1  0  0  0
  2 12  1  0  0  0  0
  2 16  1  0  0  0  0
  2 18  1  0  0  0  0
  2 20  2  6  0  0  0
  3 13  1  0  0  0  0
  3 21  1  0  0  0  0
  3 23  1  0  0  0  0
  3 24  2  1  0  0  0
  4 16  1  0  0  0  0
  4 22  1  0  0  0  0
  4 25  1  0  0  0  0
  4 26  2  6  0  0  0
  5 21  1  0  0  0  0
  5 22  1  0  0  0  0
  5 27  1  0  0  0  0
  5 28  2  6  0  0  0
  6 38  1  0  0  0  0
  6 39  1  0  0  0  0
  7 41  1  0  0  0  0
  7 43  1  0  0  0  0
  8 59  1  0  0  0  0
  9 60  1  0  0  0  0
 10 61  1  0  0  0  0
 11 44  1  0  0  0  0
 12 45  1  0  0  0  0
 14 50  2  0  0  0  0
 15 62  1  0  0  0  0
 18 63  1  0  0  0  0
 19 53  2  0  0  0  0
 23 64  1  0  0  0  0
 25 65  1  0  0  0  0
 27 66  1  0  0  0  0
 29 46  1  0  0  0  0
 29 47  1  0  0  0  0
 30 49  1  0  0  0  0
 30 50  1  0  0  0  0
 31 47  2  0  0  0  0
 31 48  1  0  0  0  0
 32 46  2  0  0  0  0
 32 54  1  0  0  0  0
 33 50  1  0  0  0  0
 33 53  1  0  0  0  0
 33 56  1  0  0  0  0
 34 52  1  0  0  0  0
 34 54  2  0  0  0  0
 35 52  1  0  0  0  0
 35 57  1  0  0  0  0
 35 58  1  0  0  0  0
 36  8  1  0  0  0  0
 36 37  1  0  0  0  0
 36 38  1  0  0  0  0
 36 67  1  1  0  0  0
 37  9  1  0  0  0  0
 37 39  1  0  0  0  0
 37 68  1  1  0  0  0
 38 29  1  0  0  0  0
 38 69  1  6  0  0  0
 39 44  1  0  0  0  0
 39 70  1  6  0  0  0
 40 10  1  0  0  0  0
 40 41  1  0  0  0  0
 40 42  1  0  0  0  0
 40 71  1  6  0  0  0
 41 45  1  0  0  0  0
 41 72  1  1  0  0  0
 42 43  1  0  0  0  0
 42 73  1  0  0  0  0
 42 74  1  0  0  0  0
 43 30  1  0  0  0  0
 43 75  1  1  0  0  0
 44 76  1  0  0  0  0
 44 77  1  0  0  0  0
 45 78  1  0  0  0  0
 45 79  1  0  0  0  0
 46 48  1  0  0  0  0
 47 80  1  0  0  0  0
 48 52  2  0  0  0  0
 49 51  2  0  0  0  0
 49 81  1  0  0  0  0
 51 53  1  0  0  0  0
 51 55  1  0  0  0  0
 54 82  1  0  0  0  0
 55 83  1  0  0  0  0
 55 84  1  0  0  0  0
 55 85  1  0  0  0  0
M  END
>  <DRUGBANK_ID>
DB03280

>  <SECONDARY_ACCESSION_NUMBERS>
EXPT02996

>  <COMMON_NAME>
p1-(5'-adenosyl)p5-(5'-thymidyl)pentaphosphate

$$$$
