
 OpenBabel10282417072D

 60 61  0  0  0  0  0  0  0  0999 V2000
    1.9472    0.4071    0.0000 C   0  0  1  0  0  0  0  0  0  0  0  0
    1.9472   -0.4188    0.0000 O   0  0  0  0  0  0  0  0  0  0  0  0
    2.6626    0.8230    0.0000 C   0  0  1  0  0  0  0  0  0  0  0  0
    3.3752   -0.4188    0.0000 C   0  0  2  0  0  0  0  0  0  0  0  0
    3.3752    0.4071    0.0000 C   0  0  1  0  0  0  0  0  0  0  0  0
    1.2287    0.8202    0.0000 C   0  0  2  0  0  0  0  0  0  0  0  0
   -0.2078    0.8289    0.0000 C   0  0  0  0  0  0  0  0  0  0  0  0
    0.5104    0.4158    0.0000 N   0  0  0  0  0  0  0  0  0  0  0  0
    2.6626   -0.8318    0.0000 C   0  0  1  0  0  0  0  0  0  0  0  0
   -1.5837    0.8958    0.0000 N   0  0  0  0  0  0  0  0  0  0  0  0
   -0.9176    0.4101    0.0000 C   0  0  1  0  0  0  0  0  0  0  0  0
   -2.2525    0.4101    0.0000 C   0  0  0  0  0  0  0  0  0  0  0  0
   -0.2078    1.6519    0.0000 O   0  0  0  0  0  0  0  0  0  0  0  0
   -1.1706   -0.3751    0.0000 C   0  0  0  0  0  0  0  0  0  0  0  0
    1.2287    1.6432    0.0000 C   0  0  1  0  0  0  0  0  0  0  0  0
    2.6626   -1.6548    0.0000 S   0  0  0  0  0  0  0  0  0  0  0  0
   -1.9937   -0.3751    0.0000 C   0  0  1  0  0  0  0  0  0  0  0  0
    4.0906   -0.8318    0.0000 O   0  0  0  0  0  0  0  0  0  0  0  0
    2.6713    1.6461    0.0000 O   0  0  0  0  0  0  0  0  0  0  0  0
    4.0936    0.8144    0.0000 O   0  0  0  0  0  0  0  0  0  0  0  0
   -1.5923    1.7188    0.0000 C   0  0  0  0  0  0  0  0  0  0  0  0
    0.5162    2.0591    0.0000 Cl  0  0  0  0  0  0  0  0  0  0  0  0
   -2.6597   -0.8580    0.0000 C   0  0  0  0  0  0  0  0  0  0  0  0
    3.3781   -2.0678    0.0000 C   0  0  0  0  0  0  0  0  0  0  0  0
    1.9385    2.0678    0.0000 C   0  0  0  0  0  0  0  0  0  0  0  0
   -3.3811   -0.4536    0.0000 C   0  0  0  0  0  0  0  0  0  0  0  0
   -4.0936   -0.8667    0.0000 C   0  0  0  0  0  0  0  0  0  0  0  0
    1.9472    1.2302    0.0000 H   0  0  0  0  0  0  0  0  0  0  0  0
    0.5133    1.2302    0.0000 H   0  0  0  0  0  0  0  0  0  0  0  0
    1.7380    1.3615    0.0000 H   0  0  0  0  0  0  0  0  0  0  0  0
    4.3018    0.1162    0.0000 H   0  0  0  0  0  0  0  0  0  0  0  0
    4.2997   -0.1315    0.0000 H   0  0  0  0  0  0  0  0  0  0  0  0
    0.5059   -0.5687    0.0000 H   0  0  0  0  0  0  0  0  0  0  0  0
    1.7360   -1.3668    0.0000 H   0  0  0  0  0  0  0  0  0  0  0  0
   -0.8657    1.4788    0.0000 H   0  0  0  0  0  0  0  0  0  0  0  0
   -3.2708    0.7387    0.0000 H   0  0  0  0  0  0  0  0  0  0  0  0
   -3.0067   -0.3489    0.0000 H   0  0  0  0  0  0  0  0  0  0  0  0
   -0.5406   -1.2400    0.0000 H   0  0  0  0  0  0  0  0  0  0  0  0
   -1.6558   -1.3288    0.0000 H   0  0  0  0  0  0  0  0  0  0  0  0
    0.3008    1.1104    0.0000 H   0  0  0  0  0  0  0  0  0  0  0  0
   -1.6635   -1.3929    0.0000 H   0  0  0  0  0  0  0  0  0  0  0  0
    4.0906   -1.8018    0.0000 H   0  0  0  0  0  0  0  0  0  0  0  0
    3.5164    2.1222    0.0000 H   0  0  0  0  0  0  0  0  0  0  0  0
    4.9298    0.3228    0.0000 H   0  0  0  0  0  0  0  0  0  0  0  0
   -0.6713    2.2635    0.0000 H   0  0  0  0  0  0  0  0  0  0  0  0
   -2.5245    2.2441    0.0000 H   0  0  0  0  0  0  0  0  0  0  0  0
   -1.6035    2.7887    0.0000 H   0  0  0  0  0  0  0  0  0  0  0  0
   -2.5974   -1.9262    0.0000 H   0  0  0  0  0  0  0  0  0  0  0  0
   -3.5668   -1.4255    0.0000 H   0  0  0  0  0  0  0  0  0  0  0  0
    3.3782   -3.1378    0.0000 H   0  0  0  0  0  0  0  0  0  0  0  0
    4.3047   -1.5327    0.0000 H   0  0  0  0  0  0  0  0  0  0  0  0
    4.3048   -2.6027    0.0000 H   0  0  0  0  0  0  0  0  0  0  0  0
    2.8733    1.5472    0.0000 H   0  0  0  0  0  0  0  0  0  0  0  0
    1.9219    3.1377    0.0000 H   0  0  0  0  0  0  0  0  0  0  0  0
    2.8567    2.6171    0.0000 H   0  0  0  0  0  0  0  0  0  0  0  0
   -3.3889    0.6164    0.0000 H   0  0  0  0  0  0  0  0  0  0  0  0
   -4.3102    0.0772    0.0000 H   0  0  0  0  0  0  0  0  0  0  0  0
   -5.0212   -0.3334    0.0000 H   0  0  0  0  0  0  0  0  0  0  0  0
   -4.0916   -1.9367    0.0000 H   0  0  0  0  0  0  0  0  0  0  0  0
   -5.0193   -1.4034    0.0000 H   0  0  0  0  0  0  0  0  0  0  0  0
  1 28  1  1  0  0  0
  2  1  1  0  0  0  0
  3  1  1  0  0  0  0
  3 19  1  0  0  0  0
  3 30  1  1  0  0  0
  4  5  1  0  0  0  0
  4 18  1  0  0  0  0
  4 31  1  6  0  0  0
  5  3  1  0  0  0  0
  5 20  1  0  0  0  0
  5 32  1  1  0  0  0
  6  1  1  0  0  0  0
  6 29  1  1  0  0  0
  7  8  1  0  0  0  0
  8  6  1  0  0  0  0
  8 33  1  0  0  0  0
  9  2  1  0  0  0  0
  9 16  1  0  0  0  0
  9  4  1  0  0  0  0
  9 34  1  6  0  0  0
 10 11  1  0  0  0  0
 11  7  1  0  0  0  0
 11 35  1  1  0  0  0
 12 10  1  0  0  0  0
 12 17  1  0  0  0  0
 12 36  1  0  0  0  0
 12 37  1  0  0  0  0
 13  7  2  0  0  0  0
 14 11  1  0  0  0  0
 14 38  1  0  0  0  0
 14 39  1  0  0  0  0
 15  6  1  0  0  0  0
 15 22  1  0  0  0  0
 15 40  1  6  0  0  0
 17 14  1  0  0  0  0
 17 23  1  0  0  0  0
 17 41  1  6  0  0  0
 18 42  1  0  0  0  0
 19 43  1  0  0  0  0
 20 44  1  0  0  0  0
 21 10  1  0  0  0  0
 21 45  1  0  0  0  0
 21 46  1  0  0  0  0
 21 47  1  0  0  0  0
 23 48  1  0  0  0  0
 23 49  1  0  0  0  0
 24 16  1  0  0  0  0
 24 50  1  0  0  0  0
 24 51  1  0  0  0  0
 24 52  1  0  0  0  0
 25 15  1  0  0  0  0
 25 53  1  0  0  0  0
 25 54  1  0  0  0  0
 25 55  1  0  0  0  0
 26 23  1  0  0  0  0
 26 56  1  0  0  0  0
 26 57  1  0  0  0  0
 27 26  1  0  0  0  0
 27 58  1  0  0  0  0
 27 59  1  0  0  0  0
 27 60  1  0  0  0  0
M  END
>  <DRUGBANK_ID>
DB01190

>  <SECONDARY_ACCESSION_NUMBERS>
APRD00566

>  <COMMON_NAME>
Clindamycin

>  <CAS_NUMBER>
18323-44-9

>  <UNII>
3U02EL437C

>  <SYNONYMS>
7-CDL; 7(S)-Chloro-7-deoxylincomycin; Clindamicina; Clindamycin; Clindamycine; Clindamycinum; Methyl 7-chloro-6,7,8-trideoxy-6-(1-methyl-trans-4-propyl-L-2-pyrrolidinecarboxamido)-1-thio-L-threo-alpha-D-galacto-octopyranoside

$$$$
