903
 OpenBabel10282417072D

 31 31  0  0  0  0  0  0  0  0999 V2000
    1.6500    1.0808    0.0000 Cl  0  0  0  0  0  0  0  0  0  0  0  0
    1.6500   -0.5693    0.0000 Cl  0  0  0  0  0  0  0  0  0  0  0  0
    3.0791   -1.3943    0.0000 O   0  0  0  0  0  0  0  0  0  0  0  0
    2.3645    2.3183    0.0000 O   0  0  0  0  0  0  0  0  0  0  0  0
    4.5080   -3.0443    0.0000 O   0  0  0  0  0  0  0  0  0  0  0  0
    3.0791   -3.0443    0.0000 O   0  0  0  0  0  0  0  0  0  0  0  0
    3.0791    1.0808    0.0000 C   0  0  0  0  0  0  0  0  0  0  0  0
    3.7935    2.3183    0.0000 C   0  0  0  0  0  0  0  0  0  0  0  0
    3.0791    1.9058    0.0000 C   0  0  0  0  0  0  0  0  0  0  0  0
    3.7935    3.1433    0.0000 C   0  0  0  0  0  0  0  0  0  0  0  0
    2.3645    0.6683    0.0000 C   0  0  0  0  0  0  0  0  0  0  0  0
    3.7935    0.6683    0.0000 C   0  0  0  0  0  0  0  0  0  0  0  0
    3.0791   -0.5693    0.0000 C   0  0  0  0  0  0  0  0  0  0  0  0
    2.3645   -0.1568    0.0000 C   0  0  0  0  0  0  0  0  0  0  0  0
    3.7935   -0.1568    0.0000 C   0  0  0  0  0  0  0  0  0  0  0  0
    4.5080    3.5558    0.0000 C   0  0  0  0  0  0  0  0  0  0  0  0
    4.5080    1.9058    0.0000 C   0  0  0  0  0  0  0  0  0  0  0  0
    3.7935   -1.8068    0.0000 C   0  0  0  0  0  0  0  0  0  0  0  0
    3.7935   -2.6318    0.0000 C   0  0  0  0  0  0  0  0  0  0  0  0
    4.5080   -3.9813    0.0000 H   0  0  0  0  0  0  0  0  0  0  0  0
    2.8669    3.6783    0.0000 H   0  0  0  0  0  0  0  0  0  0  0  0
    3.7935    4.2133    0.0000 H   0  0  0  0  0  0  0  0  0  0  0  0
    4.6872    1.1843    0.0000 H   0  0  0  0  0  0  0  0  0  0  0  0
    4.6872   -0.6728    0.0000 H   0  0  0  0  0  0  0  0  0  0  0  0
    5.4346    3.0208    0.0000 H   0  0  0  0  0  0  0  0  0  0  0  0
    4.5080    4.6258    0.0000 H   0  0  0  0  0  0  0  0  0  0  0  0
    5.4347    4.0908    0.0000 H   0  0  0  0  0  0  0  0  0  0  0  0
    4.5080    0.8738    0.0000 H   0  0  0  0  0  0  0  0  0  0  0  0
    5.4017    2.4218    0.0000 H   0  0  0  0  0  0  0  0  0  0  0  0
    4.7202   -1.2718    0.0000 H   0  0  0  0  0  0  0  0  0  0  0  0
    4.7201   -2.3418    0.0000 H   0  0  0  0  0  0  0  0  0  0  0  0
  1 11  1  0  0  0  0
  2 14  1  0  0  0  0
  3 13  1  0  0  0  0
  3 18  1  0  0  0  0
  4  9  2  0  0  0  0
  5 19  1  0  0  0  0
  5 20  1  0  0  0  0
  6 19  2  0  0  0  0
  7  9  1  0  0  0  0
  7 11  2  0  0  0  0
  7 12  1  0  0  0  0
  8  9  1  0  0  0  0
  8 10  1  0  0  0  0
  8 17  2  0  0  0  0
 10 16  1  0  0  0  0
 10 21  1  0  0  0  0
 10 22  1  0  0  0  0
 11 14  1  0  0  0  0
 12 15  2  0  0  0  0
 12 23  1  0  0  0  0
 13 14  2  0  0  0  0
 13 15  1  0  0  0  0
 15 24  1  0  0  0  0
 16 25  1  0  0  0  0
 16 26  1  0  0  0  0
 16 27  1  0  0  0  0
 17 28  1  0  0  0  0
 17 29  1  0  0  0  0
 18 19  1  0  0  0  0
 18 30  1  0  0  0  0
 18 31  1  0  0  0  0
M  END
>  <DRUGBANK_ID>
DB00903

>  <SECONDARY_ACCESSION_NUMBERS>
APRD00251

>  <COMMON_NAME>
Etacrynic acid

>  <CAS_NUMBER>
58-54-8

>  <UNII>
M5DP350VZV

>  <SYNONYMS>
(2,3-Dichloro-4-(2-methylene-1-oxobutyl)phenoxy)acetic acid; Acide étacrynique; ácido etacrínico; Acidum etacrynicum; Etacrinic acid; Etacrynic acid; Ethacrynate; Ethacrynic acid; Methylenebutyrylphenoxyacetic acid

$$$$
