3MS
 OpenBabel10282417072D

 56 59  0  0  0  0  0  0  0  0999 V2000
   -1.9667    0.1154    0.0000 C   0  0  0  0  0  0  0  0  0  0  0  0
    3.1048    1.5104    0.0000 C   0  0  0  0  0  0  0  0  0  0  0  0
   -1.9667   -1.2195    0.0000 C   0  0  0  0  0  0  0  0  0  0  0  0
    1.6758    1.5104    0.0000 C   0  0  0  0  0  0  0  0  0  0  0  0
    3.1048    2.3354    0.0000 C   0  0  0  0  0  0  0  0  0  0  0  0
   -1.1820   -0.1396    0.0000 C   0  0  0  0  0  0  0  0  0  0  0  0
    0.9614    0.2729    0.0000 C   0  0  0  0  0  0  0  0  0  0  0  0
   -1.8965   -3.8521    0.0000 C   0  0  0  0  0  0  0  0  0  0  0  0
    3.8193    4.3979    0.0000 C   0  0  0  0  0  0  0  0  0  0  0  0
   -1.1820   -3.4396    0.0000 C   0  0  0  0  0  0  0  0  0  0  0  0
    4.6443    3.5729    0.0000 O   0  0  0  0  0  0  0  0  0  0  0  0
    3.8193    3.5729    0.0000 S   0  0  0  0  0  0  0  0  0  0  0  0
    2.9943    3.5729    0.0000 O   0  0  0  0  0  0  0  0  0  0  0  0
    3.8193    2.7479    0.0000 N   0  0  0  0  0  0  0  0  0  0  0  0
    2.3903    2.7479    0.0000 C   0  0  0  0  0  0  0  0  0  0  0  0
    2.3903    1.0979    0.0000 C   0  0  0  0  0  0  0  0  0  0  0  0
    2.3903    0.2729    0.0000 S   0  0  0  0  0  0  0  0  0  0  0  0
    3.2028    0.4162    0.0000 O   0  0  0  0  0  0  0  0  0  0  0  0
    2.6725   -0.5023    0.0000 O   0  0  0  0  0  0  0  0  0  0  0  0
    1.6758   -0.1396    0.0000 N   0  0  0  0  0  0  0  0  0  0  0  0
    0.9614    1.0979    0.0000 N   0  0  0  0  0  0  0  0  0  0  0  0
    1.6758    2.3354    0.0000 C   0  0  0  0  0  0  0  0  0  0  0  0
    0.2469   -0.1396    0.0000 C   0  0  0  0  0  0  0  0  0  0  0  0
   -0.4676    0.2729    0.0000 C   0  0  0  0  0  0  0  0  0  0  0  0
   -0.4676    1.0979    0.0000 O   0  0  0  0  0  0  0  0  0  0  0  0
    0.2469   -0.9646    0.0000 C   0  0  0  0  0  0  0  0  0  0  0  0
    0.9614   -1.3771    0.0000 O   0  0  0  0  0  0  0  0  0  0  0  0
   -0.4676   -1.3771    0.0000 N   0  0  0  0  0  0  0  0  0  0  0  0
   -1.1820   -0.9646    0.0000 N   0  0  0  0  0  0  0  0  0  0  0  0
   -2.4516   -0.5521    0.0000 C   0  0  0  0  0  0  0  0  0  0  0  0
   -0.4676   -2.2021    0.0000 C   0  0  0  0  0  0  0  0  0  0  0  0
   -1.1820   -2.6146    0.0000 C   0  0  0  0  0  0  0  0  0  0  0  0
   -0.4676   -3.8521    0.0000 C   0  0  0  0  0  0  0  0  0  0  0  0
   -2.2856    1.0969    0.0000 H   0  0  0  0  0  0  0  0  0  0  0  0
    3.9985    0.9944    0.0000 H   0  0  0  0  0  0  0  0  0  0  0  0
   -2.2856   -2.2010    0.0000 H   0  0  0  0  0  0  0  0  0  0  0  0
   -2.8231   -3.3171    0.0000 H   0  0  0  0  0  0  0  0  0  0  0  0
   -1.8965   -4.9221    0.0000 H   0  0  0  0  0  0  0  0  0  0  0  0
   -2.8232   -4.3871    0.0000 H   0  0  0  0  0  0  0  0  0  0  0  0
    4.7459    4.9329    0.0000 H   0  0  0  0  0  0  0  0  0  0  0  0
    2.8927    4.9329    0.0000 H   0  0  0  0  0  0  0  0  0  0  0  0
    3.8193    5.4679    0.0000 H   0  0  0  0  0  0  0  0  0  0  0  0
   -0.2553   -2.9046    0.0000 H   0  0  0  0  0  0  0  0  0  0  0  0
    4.6719    2.2556    0.0000 H   0  0  0  0  0  0  0  0  0  0  0  0
    2.3903    3.7799    0.0000 H   0  0  0  0  0  0  0  0  0  0  0  0
    1.6758   -1.1241    0.0000 H   0  0  0  0  0  0  0  0  0  0  0  0
    0.7821    2.8514    0.0000 H   0  0  0  0  0  0  0  0  0  0  0  0
    0.3439    1.5664    0.0000 H   0  0  0  0  0  0  0  0  0  0  0  0
   -3.4836   -0.5521    0.0000 H   0  0  0  0  0  0  0  0  0  0  0  0
    0.4591   -2.7371    0.0000 H   0  0  0  0  0  0  0  0  0  0  0  0
   -0.4676   -3.2721    0.0000 H   0  0  0  0  0  0  0  0  0  0  0  0
   -2.1087   -2.0796    0.0000 H   0  0  0  0  0  0  0  0  0  0  0  0
   -1.1820   -1.5446    0.0000 H   0  0  0  0  0  0  0  0  0  0  0  0
   -0.4676   -4.9221    0.0000 H   0  0  0  0  0  0  0  0  0  0  0  0
    0.4591   -3.3171    0.0000 H   0  0  0  0  0  0  0  0  0  0  0  0
    0.4590   -4.3871    0.0000 H   0  0  0  0  0  0  0  0  0  0  0  0
  1  6  2  0  0  0  0
  1 30  1  0  0  0  0
  1 34  1  0  0  0  0
  2  5  2  0  0  0  0
  2 16  1  0  0  0  0
  2 35  1  0  0  0  0
  3 29  1  0  0  0  0
  3 30  2  0  0  0  0
  3 36  1  0  0  0  0
  4 16  2  0  0  0  0
  4 21  1  0  0  0  0
  4 22  1  0  0  0  0
  5 14  1  0  0  0  0
  5 15  1  0  0  0  0
  6 24  1  0  0  0  0
  6 29  1  0  0  0  0
  7 20  1  0  0  0  0
  7 21  2  0  0  0  0
  7 23  1  0  0  0  0
  8 10  1  0  0  0  0
  8 37  1  0  0  0  0
  8 38  1  0  0  0  0
  8 39  1  0  0  0  0
  9 12  1  0  0  0  0
  9 40  1  0  0  0  0
  9 41  1  0  0  0  0
  9 42  1  0  0  0  0
 10 32  1  0  0  0  0
 10 33  1  0  0  0  0
 10 43  1  0  0  0  0
 11 12  2  0  0  0  0
 12 13  2  0  0  0  0
 12 14  1  0  0  0  0
 14 44  1  0  0  0  0
 15 22  2  0  0  0  0
 15 45  1  0  0  0  0
 16 17  1  0  0  0  0
 17 18  2  0  0  0  0
 17 19  2  0  0  0  0
 17 20  1  0  0  0  0
 20 46  1  0  0  0  0
 22 47  1  0  0  0  0
 23 24  2  0  0  0  0
 23 26  1  0  0  0  0
 24 25  1  0  0  0  0
 25 48  1  0  0  0  0
 26 27  2  0  0  0  0
 26 28  1  0  0  0  0
 28 29  1  0  0  0  0
 28 31  1  0  0  0  0
 30 49  1  0  0  0  0
 31 32  1  0  0  0  0
 31 50  1  0  0  0  0
 31 51  1  0  0  0  0
 32 52  1  0  0  0  0
 32 53  1  0  0  0  0
 33 54  1  0  0  0  0
 33 55  1  0  0  0  0
 33 56  1  0  0  0  0
M  END
>  <DRUGBANK_ID>
DB07062

>  <COMMON_NAME>
N-{3-[4-Hydroxy-1-(3-methylbutyl)-2-oxo-1,2-dihydropyrrolo[1,2-b]pyridazin-3-yl]-1,1-dioxido-2H-1,2,4-benzothiadiazin-7-yl}methanesulfonamide

$$$$
