
 OpenBabel10282417072D

 80 83  0  0  0  0  0  0  0  0999 V2000
    0.4207   -0.1606    0.0000 O   0  0  0  0  0  0  0  0  0  0  0  0
    0.4283   -0.9883    0.0000 C   0  0  0  0  0  0  0  0  0  0  0  0
   -0.2821   -1.4076    0.0000 C   0  0  0  0  0  0  0  0  0  0  0  0
   -0.2749   -2.2355    0.0000 C   0  0  0  0  0  0  0  0  0  0  0  0
    0.4429   -2.6422    0.0000 O   0  0  0  0  0  0  0  0  0  0  0  0
   -0.9825   -2.6512    0.0000 C   0  0  0  0  0  0  0  0  0  0  0  0
   -1.7013   -2.2464    0.0000 C   0  0  0  0  0  0  0  0  0  0  0  0
   -2.4107   -2.6673    0.0000 O   0  0  0  0  0  0  0  0  0  0  0  0
   -3.1302   -2.2637    0.0000 C   0  0  2  0  0  0  0  0  0  0  0  0
   -3.1411   -1.4358    0.0000 O   0  0  0  0  0  0  0  0  0  0  0  0
   -3.8575   -1.0356    0.0000 C   0  0  1  0  0  0  0  0  0  0  0  0
   -4.5673   -1.4560    0.0000 C   0  0  1  0  0  0  0  0  0  0  0  0
   -5.2856   -1.0505    0.0000 O   0  0  0  0  0  0  0  0  0  0  0  0
   -4.5607   -2.2768    0.0000 C   0  0  2  0  0  0  0  0  0  0  0  0
   -5.2714   -2.6953    0.0000 O   0  0  0  0  0  0  0  0  0  0  0  0
   -3.8400   -2.6840    0.0000 C   0  0  1  0  0  0  0  0  0  0  0  0
   -3.8316   -3.5090    0.0000 O   0  0  0  0  0  0  0  0  0  0  0  0
   -3.8679   -0.2106    0.0000 C   0  0  0  0  0  0  0  0  0  0  0  0
   -3.2344    0.2245    0.0000 O   0  0  0  0  0  0  0  0  0  0  0  0
   -1.7125   -1.4257    0.0000 C   0  0  0  0  0  0  0  0  0  0  0  0
   -1.0009   -1.0028    0.0000 C   0  0  0  0  0  0  0  0  0  0  0  0
   -1.0105   -0.1778    0.0000 O   0  0  0  0  0  0  0  0  0  0  0  0
   -1.7296    0.2263    0.0000 C   0  0  0  0  0  0  0  0  0  0  0  0
    1.1432   -1.3915    0.0000 C   0  0  0  0  0  0  0  0  0  0  0  0
    1.8554   -0.9694    0.0000 C   0  0  0  0  0  0  0  0  0  0  0  0
    2.5744   -1.3740    0.0000 C   0  0  0  0  0  0  0  0  0  0  0  0
    2.5845   -2.2018    0.0000 C   0  0  0  0  0  0  0  0  0  0  0  0
    3.2949   -2.5994    0.0000 C   0  0  0  0  0  0  0  0  0  0  0  0
    4.0106   -2.1827    0.0000 C   0  0  0  0  0  0  0  0  0  0  0  0
    4.7286   -2.5890    0.0000 O   0  0  0  0  0  0  0  0  0  0  0  0
    5.2856   -2.2260    0.0000 C   0  0  0  0  0  0  0  0  0  0  0  0
    4.0028   -1.3610    0.0000 C   0  0  0  0  0  0  0  0  0  0  0  0
    3.2846   -0.9542    0.0000 C   0  0  0  0  0  0  0  0  0  0  0  0
   -3.2340    1.0356    0.0000 C   0  0  2  0  0  0  0  0  0  0  0  0
   -3.9452    1.4592    0.0000 O   0  0  0  0  0  0  0  0  0  0  0  0
   -3.9331    2.2799    0.0000 C   0  0  2  0  0  0  0  0  0  0  0  0
   -3.2139    2.6841    0.0000 C   0  0  2  0  0  0  0  0  0  0  0  0
   -3.2056    3.5090    0.0000 O   0  0  0  0  0  0  0  0  0  0  0  0
   -2.5067    2.2676    0.0000 C   0  0  1  0  0  0  0  0  0  0  0  0
   -1.7885    2.6735    0.0000 O   0  0  0  0  0  0  0  0  0  0  0  0
   -2.5147    1.4397    0.0000 C   0  0  1  0  0  0  0  0  0  0  0  0
   -1.8047    1.0197    0.0000 O   0  0  0  0  0  0  0  0  0  0  0  0
   -4.6421    2.7017    0.0000 C   0  0  0  0  0  0  0  0  0  0  0  0
    3.2882   -3.4080    0.0000 O   0  0  0  0  0  0  0  0  0  0  0  0
    0.4505   -3.5792    0.0000 H   0  0  0  0  0  0  0  0  0  0  0  0
   -0.9731   -3.6832    0.0000 H   0  0  0  0  0  0  0  0  0  0  0  0
   -3.1177   -3.3336    0.0000 H   0  0  0  0  0  0  0  0  0  0  0  0
   -4.7904   -0.5116    0.0000 H   0  0  0  0  0  0  0  0  0  0  0  0
   -4.5784   -0.3861    0.0000 H   0  0  0  0  0  0  0  0  0  0  0  0
   -5.2950   -0.0805    0.0000 H   0  0  0  0  0  0  0  0  0  0  0  0
   -5.4918   -1.7495    0.0000 H   0  0  0  0  0  0  0  0  0  0  0  0
   -6.1156   -2.2175    0.0000 H   0  0  0  0  0  0  0  0  0  0  0  0
   -4.7614   -3.2280    0.0000 H   0  0  0  0  0  0  0  0  0  0  0  0
   -4.6667   -4.0025    0.0000 H   0  0  0  0  0  0  0  0  0  0  0  0
   -4.8179    0.2818    0.0000 H   0  0  0  0  0  0  0  0  0  0  0  0
   -3.9340    0.8574    0.0000 H   0  0  0  0  0  0  0  0  0  0  0  0
   -2.6129   -0.9215    0.0000 H   0  0  0  0  0  0  0  0  0  0  0  0
   -1.7420    1.2962    0.0000 H   0  0  0  0  0  0  0  0  0  0  0  0
   -2.6500   -0.3194    0.0000 H   0  0  0  0  0  0  0  0  0  0  0  0
   -2.6624    0.7505    0.0000 H   0  0  0  0  0  0  0  0  0  0  0  0
    1.1543   -2.4234    0.0000 H   0  0  0  0  0  0  0  0  0  0  0  0
    1.8438    0.0625    0.0000 H   0  0  0  0  0  0  0  0  0  0  0  0
    1.6974   -2.7292    0.0000 H   0  0  0  0  0  0  0  0  0  0  0  0
    6.2398   -2.7102    0.0000 H   0  0  0  0  0  0  0  0  0  0  0  0
    5.2279   -1.1576    0.0000 H   0  0  0  0  0  0  0  0  0  0  0  0
    6.1820   -1.6418    0.0000 H   0  0  0  0  0  0  0  0  0  0  0  0
    4.8919   -0.8371    0.0000 H   0  0  0  0  0  0  0  0  0  0  0  0
    3.2751    0.0778    0.0000 H   0  0  0  0  0  0  0  0  0  0  0  0
   -4.1644    0.5071    0.0000 H   0  0  0  0  0  0  0  0  0  0  0  0
   -4.8671    1.7578    0.0000 H   0  0  0  0  0  0  0  0  0  0  0  0
   -4.1347    3.2291    0.0000 H   0  0  0  0  0  0  0  0  0  0  0  0
   -2.3607    3.9855    0.0000 H   0  0  0  0  0  0  0  0  0  0  0  0
   -2.4972    3.3376    0.0000 H   0  0  0  0  0  0  0  0  0  0  0  0
   -0.9529    2.1808    0.0000 H   0  0  0  0  0  0  0  0  0  0  0  0
   -1.5827    1.9653    0.0000 H   0  0  0  0  0  0  0  0  0  0  0  0
   -1.8150    0.0498    0.0000 H   0  0  0  0  0  0  0  0  0  0  0  0
   -4.6281    3.7716    0.0000 H   0  0  0  0  0  0  0  0  0  0  0  0
   -5.5757    2.1789    0.0000 H   0  0  0  0  0  0  0  0  0  0  0  0
   -5.5617    3.2488    0.0000 H   0  0  0  0  0  0  0  0  0  0  0  0
    2.4729   -3.8698    0.0000 H   0  0  0  0  0  0  0  0  0  0  0  0
  1  2  2  0  0  0  0
  2 24  1  0  0  0  0
  2  3  1  0  0  0  0
  3  4  1  0  0  0  0
  4  5  1  0  0  0  0
  4  6  2  0  0  0  0
  5 45  1  0  0  0  0
  6  7  1  0  0  0  0
  6 46  1  0  0  0  0
  7 20  2  0  0  0  0
  7  8  1  0  0  0  0
  9  8  1  0  0  0  0
  9 10  1  0  0  0  0
  9 47  1  6  0  0  0
 10 11  1  0  0  0  0
 11 12  1  0  0  0  0
 11 18  1  0  0  0  0
 11 48  1  6  0  0  0
 12 13  1  0  0  0  0
 12 14  1  0  0  0  0
 12 49  1  1  0  0  0
 13 50  1  0  0  0  0
 14 15  1  0  0  0  0
 14 16  1  0  0  0  0
 14 51  1  6  0  0  0
 15 52  1  0  0  0  0
 16  9  1  0  0  0  0
 16 17  1  0  0  0  0
 16 53  1  1  0  0  0
 17 54  1  0  0  0  0
 18 19  1  0  0  0  0
 18 55  1  0  0  0  0
 18 56  1  0  0  0  0
 20 21  1  0  0  0  0
 20 57  1  0  0  0  0
 21  3  2  0  0  0  0
 21 22  1  0  0  0  0
 22 23  1  0  0  0  0
 23 58  1  0  0  0  0
 23 59  1  0  0  0  0
 23 60  1  0  0  0  0
 24 25  2  0  0  0  0
 24 61  1  0  0  0  0
 25 26  1  0  0  0  0
 25 62  1  0  0  0  0
 26 27  1  0  0  0  0
 27 28  2  0  0  0  0
 27 63  1  0  0  0  0
 28 29  1  0  0  0  0
 28 44  1  0  0  0  0
 29 30  1  0  0  0  0
 29 32  2  0  0  0  0
 30 31  1  0  0  0  0
 31 64  1  0  0  0  0
 31 65  1  0  0  0  0
 31 66  1  0  0  0  0
 32 33  1  0  0  0  0
 32 67  1  0  0  0  0
 33 26  2  0  0  0  0
 33 68  1  0  0  0  0
 34 35  1  0  0  0  0
 34 19  1  0  0  0  0
 34 69  1  1  0  0  0
 35 36  1  0  0  0  0
 36 37  1  0  0  0  0
 36 43  1  0  0  0  0
 36 70  1  6  0  0  0
 37 38  1  0  0  0  0
 37 39  1  0  0  0  0
 37 71  1  1  0  0  0
 38 72  1  0  0  0  0
 39 40  1  0  0  0  0
 39 41  1  0  0  0  0
 39 73  1  6  0  0  0
 40 74  1  0  0  0  0
 41 34  1  0  0  0  0
 41 42  1  0  0  0  0
 41 75  1  6  0  0  0
 42 76  1  0  0  0  0
 43 77  1  0  0  0  0
 43 78  1  0  0  0  0
 43 79  1  0  0  0  0
 44 80  1  0  0  0  0
M  END
>  <DRUGBANK_ID>
DB15943

>  <COMMON_NAME>
Hesperidin methylchalcone

>  <CAS_NUMBER>
24292-52-2

>  <UNII>
4T2GVA922X

>  <SYNONYMS>
Hesperidin methyl chalcone

$$$$
