294
 OpenBabel10282417072D

 48 50  0  0  0  0  0  0  0  0999 V2000
    2.0167    1.9813    0.0000 C   0  0  0  0  0  0  0  0  0  0  0  0
    0.4164    0.8742    0.0000 C   0  0  0  0  0  0  0  0  0  0  0  0
    1.1309    0.4617    0.0000 C   0  0  0  0  0  0  0  0  0  0  0  0
    1.1309   -0.3633    0.0000 C   0  0  0  0  0  0  0  0  0  0  0  0
    0.4164   -0.7758    0.0000 C   0  0  0  0  0  0  0  0  0  0  0  0
   -0.2981   -0.3633    0.0000 C   0  0  0  0  0  0  0  0  0  0  0  0
   -0.2981    0.4617    0.0000 C   0  0  0  0  0  0  0  0  0  0  0  0
   -0.2981   -2.0133    0.0000 C   0  0  0  0  0  0  0  0  0  0  0  0
   -0.2981   -2.8383    0.0000 C   0  0  0  0  0  0  0  0  0  0  0  0
   -1.0125   -3.2508    0.0000 C   0  0  0  0  0  0  0  0  0  0  0  0
   -1.7270   -2.8383    0.0000 C   0  0  0  0  0  0  0  0  0  0  0  0
   -1.7270   -2.0133    0.0000 C   0  0  0  0  0  0  0  0  0  0  0  0
   -1.0125   -1.6008    0.0000 C   0  0  0  0  0  0  0  0  0  0  0  0
   -2.4415   -3.2508    0.0000 C   0  0  0  0  0  0  0  0  0  0  0  0
    0.1796    3.6063    0.0000 O   0  0  0  0  0  0  0  0  0  0  0  0
    0.3229    2.7938    0.0000 N   0  0  0  0  0  0  0  0  0  0  0  0
    1.0982    2.5116    0.0000 C   0  0  0  0  0  0  0  0  0  0  0  0
    1.7301    3.0419    0.0000 O   0  0  0  0  0  0  0  0  0  0  0  0
    1.2414    1.6992    0.0000 C   0  0  0  0  0  0  0  0  0  0  0  0
    1.0982    0.8867    0.0000 C   0  0  0  0  0  0  0  0  0  0  0  0
    1.7301    0.3564    0.0000 C   0  0  0  0  0  0  0  0  0  0  0  0
    2.5054    0.6386    0.0000 O   0  0  0  0  0  0  0  0  0  0  0  0
    2.6486    1.4510    0.0000 C   0  0  0  0  0  0  0  0  0  0  0  0
    0.4164    1.6992    0.0000 S   0  0  0  0  0  0  0  0  0  0  0  0
    0.4164    2.5242    0.0000 O   0  0  0  0  0  0  0  0  0  0  0  0
   -0.4086    1.6992    0.0000 O   0  0  0  0  0  0  0  0  0  0  0  0
    0.4164   -1.6008    0.0000 O   0  0  0  0  0  0  0  0  0  0  0  0
   -3.1559   -3.6633    0.0000 F   0  0  0  0  0  0  0  0  0  0  0  0
   -2.8540   -2.5364    0.0000 F   0  0  0  0  0  0  0  0  0  0  0  0
   -2.0290   -3.9653    0.0000 F   0  0  0  0  0  0  0  0  0  0  0  0
    2.2026    3.0350    0.0000 H   0  0  0  0  0  0  0  0  0  0  0  0
    3.0222    2.3472    0.0000 H   0  0  0  0  0  0  0  0  0  0  0  0
    2.0246    0.9777    0.0000 H   0  0  0  0  0  0  0  0  0  0  0  0
    2.0246   -0.8793    0.0000 H   0  0  0  0  0  0  0  0  0  0  0  0
   -1.1918   -0.8793    0.0000 H   0  0  0  0  0  0  0  0  0  0  0  0
   -1.1918    0.9777    0.0000 H   0  0  0  0  0  0  0  0  0  0  0  0
    0.5956   -3.3543    0.0000 H   0  0  0  0  0  0  0  0  0  0  0  0
   -1.0125   -4.2828    0.0000 H   0  0  0  0  0  0  0  0  0  0  0  0
   -2.6207   -1.4973    0.0000 H   0  0  0  0  0  0  0  0  0  0  0  0
   -1.0125   -0.5688    0.0000 H   0  0  0  0  0  0  0  0  0  0  0  0
    0.9226    4.2298    0.0000 H   0  0  0  0  0  0  0  0  0  0  0  0
   -0.4313    2.1610    0.0000 H   0  0  0  0  0  0  0  0  0  0  0  0
    0.0927    0.5207    0.0000 H   0  0  0  0  0  0  0  0  0  0  0  0
    0.9124   -0.1670    0.0000 H   0  0  0  0  0  0  0  0  0  0  0  0
    1.5443   -0.6973    0.0000 H   0  0  0  0  0  0  0  0  0  0  0  0
    2.5498   -0.3314    0.0000 H   0  0  0  0  0  0  0  0  0  0  0  0
    3.6541    1.8170    0.0000 H   0  0  0  0  0  0  0  0  0  0  0  0
    3.4683    0.7632    0.0000 H   0  0  0  0  0  0  0  0  0  0  0  0
  1 19  1  0  0  0  0
  1 23  1  0  0  0  0
  1 31  1  0  0  0  0
  1 32  1  0  0  0  0
  2  3  2  0  0  0  0
  2  7  1  0  0  0  0
  2 24  1  0  0  0  0
  3  4  1  0  0  0  0
  3 33  1  0  0  0  0
  4  5  2  0  0  0  0
  4 34  1  0  0  0  0
  5  6  1  0  0  0  0
  5 27  1  0  0  0  0
  6  7  2  0  0  0  0
  6 35  1  0  0  0  0
  7 36  1  0  0  0  0
  8  9  2  0  0  0  0
  8 13  1  0  0  0  0
  8 27  1  0  0  0  0
  9 10  1  0  0  0  0
  9 37  1  0  0  0  0
 10 11  2  0  0  0  0
 10 38  1  0  0  0  0
 11 12  1  0  0  0  0
 11 14  1  0  0  0  0
 12 13  2  0  0  0  0
 12 39  1  0  0  0  0
 13 40  1  0  0  0  0
 14 28  1  0  0  0  0
 14 29  1  0  0  0  0
 14 30  1  0  0  0  0
 15 16  1  0  0  0  0
 15 41  1  0  0  0  0
 16 17  1  0  0  0  0
 16 42  1  0  0  0  0
 17 18  2  0  0  0  0
 17 19  1  0  0  0  0
 19 20  1  0  0  0  0
 19 24  1  0  0  0  0
 20 21  1  0  0  0  0
 20 43  1  0  0  0  0
 20 44  1  0  0  0  0
 21 22  1  0  0  0  0
 21 45  1  0  0  0  0
 21 46  1  0  0  0  0
 22 23  1  0  0  0  0
 23 47  1  0  0  0  0
 23 48  1  0  0  0  0
 24 25  2  0  0  0  0
 24 26  2  0  0  0  0
M  END
>  <DRUGBANK_ID>
DB06945

>  <COMMON_NAME>
N-hydroxy-4-({4-[4-(trifluoromethyl)phenoxy]phenyl}sulfonyl)tetrahydro-2H-pyran-4-carboxamide

$$$$
