
 OpenBabel10282417072D

  3  0  0  0  0  0  0  0  0  0999 V2000
   -0.7660    0.0000    0.0000 Cl  0  5  0  0  0  0  0  0  0  0  0  0
    1.5910    0.0000    0.0000 Cl  0  5  0  0  0  0  0  0  0  0  0  0
   -1.5910    0.0000    0.0000 Sr  0  2  0  0  0  0  0  0  0  0  0  0
M  ISO  1   3  89
M  CHG  3   1  -1   2  -1   3   2
M  END
>  <DRUGBANK_ID>
DB09498

>  <SECONDARY_ACCESSION_NUMBERS>
DB12546

>  <COMMON_NAME>
Strontium chloride Sr-89

>  <CAS_NUMBER>
38270-90-5

>  <UNII>
5R78837D4A

>  <SYNONYMS>
Strontium (89Sr) chloride; Strontium chloride Sr 89; strontium chloride, 89Sr-labeled; Strontium chloride, Sr-89; Strontium-89 chloride

$$$$
