PSY
 OpenBabel10282417072D

 20 20  0  0  0  0  0  0  0  0999 V2000
    2.1208    0.3151    0.0000 C   0  0  0  0  0  0  0  0  0  0  0  0
    2.1208   -0.5099    0.0000 C   0  0  0  0  0  0  0  0  0  0  0  0
    1.4064    0.7276    0.0000 C   0  0  0  0  0  0  0  0  0  0  0  0
    1.4064   -0.9224    0.0000 C   0  0  0  0  0  0  0  0  0  0  0  0
    0.6919    0.3151    0.0000 C   0  0  0  0  0  0  0  0  0  0  0  0
    0.6919   -0.5099    0.0000 C   0  0  0  0  0  0  0  0  0  0  0  0
   -0.0226   -0.9224    0.0000 O   0  0  0  0  0  0  0  0  0  0  0  0
   -0.7370   -0.5099    0.0000 S   0  0  0  0  0  0  0  0  0  0  0  0
   -0.3245    0.2046    0.0000 O   0  0  0  0  0  0  0  0  0  0  0  0
   -1.1495   -1.2244    0.0000 O   0  0  0  0  0  0  0  0  0  0  0  0
   -1.4515   -0.0974    0.0000 C   0  0  0  0  0  0  0  0  0  0  0  0
   -2.1660   -0.5099    0.0000 C   0  0  0  0  0  0  0  0  0  0  0  0
    3.0145    0.8311    0.0000 H   0  0  0  0  0  0  0  0  0  0  0  0
    3.0145   -1.0259    0.0000 H   0  0  0  0  0  0  0  0  0  0  0  0
    1.4064    1.7596    0.0000 H   0  0  0  0  0  0  0  0  0  0  0  0
    1.4064   -1.9544    0.0000 H   0  0  0  0  0  0  0  0  0  0  0  0
   -0.2018    0.8311    0.0000 H   0  0  0  0  0  0  0  0  0  0  0  0
   -1.4515    0.9346    0.0000 H   0  0  0  0  0  0  0  0  0  0  0  0
   -3.0597    0.0061    0.0000 H   0  0  0  0  0  0  0  0  0  0  0  0
   -2.1660   -1.5419    0.0000 H   0  0  0  0  0  0  0  0  0  0  0  0
  1  2  1  0  0  0  0
  1 13  1  0  0  0  0
  2  4  2  0  0  0  0
  2 14  1  0  0  0  0
  3  1  2  0  0  0  0
  3  5  1  0  0  0  0
  3 15  1  0  0  0  0
  4 16  1  0  0  0  0
  5  6  2  0  0  0  0
  5 17  1  0  0  0  0
  6  4  1  0  0  0  0
  6  7  1  0  0  0  0
  8  7  1  0  0  0  0
  8  9  2  0  0  0  0
 10  8  2  0  0  0  0
 11  8  1  0  0  0  0
 11 18  1  0  0  0  0
 12 11  2  0  0  0  0
 12 19  1  0  0  0  0
 12 20  1  0  0  0  0
M  END
>  <DRUGBANK_ID>
DB08433

>  <COMMON_NAME>
phenyl ethenesulfonate

>  <UNII>
HN14RW9PVP

$$$$
