VGG
 OpenBabel10282417072D

 43 45  0  0  0  0  0  0  0  0999 V2000
   -1.1704    2.9382    0.0000 C   0  0  0  0  0  0  0  0  0  0  0  0
   -0.9155    2.1535    0.0000 C   0  0  0  0  0  0  0  0  0  0  0  0
   -1.7001    1.8986    0.0000 C   0  0  0  0  0  0  0  0  0  0  0  0
   -0.1309    2.4085    0.0000 C   0  0  0  0  0  0  0  0  0  0  0  0
   -0.6605    1.3689    0.0000 N   0  0  0  0  0  0  0  0  0  0  0  0
   -1.1455    0.7015    0.0000 N   0  0  0  0  0  0  0  0  0  0  0  0
    0.1241    1.1140    0.0000 C   0  0  0  0  0  0  0  0  0  0  0  0
    0.8386    1.5265    0.0000 N   0  0  0  0  0  0  0  0  0  0  0  0
    1.5530    1.1140    0.0000 C   0  0  0  0  0  0  0  0  0  0  0  0
    1.5530    0.2890    0.0000 N   0  0  0  0  0  0  0  0  0  0  0  0
    0.8386   -0.1235    0.0000 C   0  0  0  0  0  0  0  0  0  0  0  0
    0.8386   -0.9485    0.0000 N   0  0  0  0  0  0  0  0  0  0  0  0
    0.1241    0.2890    0.0000 C   0  0  0  0  0  0  0  0  0  0  0  0
   -0.6605    0.0340    0.0000 C   0  0  0  0  0  0  0  0  0  0  0  0
   -0.9155   -0.7506    0.0000 C   0  0  0  0  0  0  0  0  0  0  0  0
   -0.3634   -1.3637    0.0000 C   0  0  0  0  0  0  0  0  0  0  0  0
    0.4435   -1.1921    0.0000 C   0  0  0  0  0  0  0  0  0  0  0  0
   -0.6184   -2.1483    0.0000 C   0  0  0  0  0  0  0  0  0  0  0  0
   -0.0664   -2.7614    0.0000 C   0  0  0  0  0  0  0  0  0  0  0  0
    0.7406   -2.5899    0.0000 C   0  0  0  0  0  0  0  0  0  0  0  0
    0.9956   -1.8052    0.0000 C   0  0  0  0  0  0  0  0  0  0  0  0
    1.8025   -1.6337    0.0000 C   0  0  0  0  0  0  0  0  0  0  0  0
   -0.4544    3.7333    0.0000 H   0  0  0  0  0  0  0  0  0  0  0  0
   -2.2170    3.1607    0.0000 H   0  0  0  0  0  0  0  0  0  0  0  0
   -1.5010    3.9559    0.0000 H   0  0  0  0  0  0  0  0  0  0  0  0
   -2.4952    2.6146    0.0000 H   0  0  0  0  0  0  0  0  0  0  0  0
   -1.9226    0.8520    0.0000 H   0  0  0  0  0  0  0  0  0  0  0  0
   -2.7177    1.5680    0.0000 H   0  0  0  0  0  0  0  0  0  0  0  0
    0.6643    1.6926    0.0000 H   0  0  0  0  0  0  0  0  0  0  0  0
    0.0915    3.4551    0.0000 H   0  0  0  0  0  0  0  0  0  0  0  0
    0.8867    2.7392    0.0000 H   0  0  0  0  0  0  0  0  0  0  0  0
    2.4467    1.6300    0.0000 H   0  0  0  0  0  0  0  0  0  0  0  0
   -0.0140   -1.4408    0.0000 H   0  0  0  0  0  0  0  0  0  0  0  0
    1.6912   -1.4407    0.0000 H   0  0  0  0  0  0  0  0  0  0  0  0
   -1.9621   -0.9731    0.0000 H   0  0  0  0  0  0  0  0  0  0  0  0
   -1.2461   -1.7682    0.0000 H   0  0  0  0  0  0  0  0  0  0  0  0
    0.7623   -0.2106    0.0000 H   0  0  0  0  0  0  0  0  0  0  0  0
   -1.6279   -2.3628    0.0000 H   0  0  0  0  0  0  0  0  0  0  0  0
   -0.3853   -3.7429    0.0000 H   0  0  0  0  0  0  0  0  0  0  0  0
    1.4311   -3.3569    0.0000 H   0  0  0  0  0  0  0  0  0  0  0  0
    2.5185   -2.4289    0.0000 H   0  0  0  0  0  0  0  0  0  0  0  0
    2.1332   -0.6161    0.0000 H   0  0  0  0  0  0  0  0  0  0  0  0
    2.8491   -1.4112    0.0000 H   0  0  0  0  0  0  0  0  0  0  0  0
  1  2  1  0  0  0  0
  1 23  1  0  0  0  0
  1 24  1  0  0  0  0
  1 25  1  0  0  0  0
  2  3  1  0  0  0  0
  2  4  1  0  0  0  0
  2  5  1  0  0  0  0
  3 26  1  0  0  0  0
  3 27  1  0  0  0  0
  3 28  1  0  0  0  0
  4 29  1  0  0  0  0
  4 30  1  0  0  0  0
  4 31  1  0  0  0  0
  5  6  1  0  0  0  0
  5  7  1  0  0  0  0
  6 14  2  0  0  0  0
  7  8  1  0  0  0  0
  7 13  2  0  0  0  0
  8  9  2  0  0  0  0
  9 10  1  0  0  0  0
  9 32  1  0  0  0  0
 10 11  2  0  0  0  0
 11 12  1  0  0  0  0
 11 13  1  0  0  0  0
 12 33  1  0  0  0  0
 12 34  1  0  0  0  0
 13 14  1  0  0  0  0
 14 15  1  0  0  0  0
 15 16  1  0  0  0  0
 15 35  1  0  0  0  0
 15 36  1  0  0  0  0
 16 17  1  0  0  0  0
 16 18  2  0  0  0  0
 17 21  2  0  0  0  0
 17 37  1  0  0  0  0
 18 19  1  0  0  0  0
 18 38  1  0  0  0  0
 19 20  2  0  0  0  0
 19 39  1  0  0  0  0
 20 21  1  0  0  0  0
 20 40  1  0  0  0  0
 21 22  1  0  0  0  0
 22 41  1  0  0  0  0
 22 42  1  0  0  0  0
 22 43  1  0  0  0  0
M  END
>  <DRUGBANK_ID>
DB08699

>  <COMMON_NAME>
1-tert-butyl-3-(3-methylbenzyl)-1H-pyrazolo[3,4-d]pyrimidin-4-amine

>  <UNII>
LP62329LQ7

$$$$
