
 OpenBabel10282417072D

 40 41  0  0  0  0  0  0  0  0999 V2000
   -2.5006   -2.6812    0.0000 C   0  0  0  0  0  0  0  0  0  0  0  0
    1.0717   -3.0937    0.0000 C   0  0  0  0  0  0  0  0  0  0  0  0
   -1.7861   -2.2687    0.0000 C   0  0  0  0  0  0  0  0  0  0  0  0
    1.0717   -2.2687    0.0000 C   0  0  0  0  0  0  0  0  0  0  0  0
   -0.3572    2.6812    0.0000 C   0  0  0  0  0  0  0  0  0  0  0  0
   -0.3572    1.8562    0.0000 C   0  0  0  0  0  0  0  0  0  0  0  0
    1.0717    0.2062    0.0000 C   0  0  0  0  0  0  0  0  0  0  0  0
    1.7861    0.6187    0.0000 C   0  0  0  0  0  0  0  0  0  0  0  0
   -1.0717   -1.8562    0.0000 C   0  0  0  0  0  0  0  0  0  0  0  0
    0.3572    3.0937    0.0000 C   0  0  0  0  0  0  0  0  0  0  0  0
   -0.3572    0.2062    0.0000 C   0  0  0  0  0  0  0  0  0  0  0  0
    0.3572    0.6187    0.0000 C   0  0  0  0  0  0  0  0  0  0  0  0
    0.3572    1.4437    0.0000 C   0  0  0  0  0  0  0  0  0  0  0  0
   -0.3572   -0.6187    0.0000 C   0  0  3  0  0  0  0  0  0  0  0  0
    1.7861    1.4437    0.0000 C   0  0  0  0  0  0  0  0  0  0  0  0
    1.0717    1.8562    0.0000 C   0  0  0  0  0  0  0  0  0  0  0  0
    0.3572   -1.0312    0.0000 C   0  0  0  0  0  0  0  0  0  0  0  0
   -1.0717   -1.0312    0.0000 N   0  0  0  0  0  0  0  0  0  0  0  0
    1.0717    2.6812    0.0000 N   0  0  0  0  0  0  0  0  0  0  0  0
    2.5006    1.8562    0.0000 O   0  0  0  0  0  0  0  0  0  0  0  0
    1.0717   -0.6187    0.0000 O   0  0  0  0  0  0  0  0  0  0  0  0
    0.3572   -1.8562    0.0000 O   0  0  0  0  0  0  0  0  0  0  0  0
   -3.3614   -3.1782    0.0000 H   0  0  0  0  0  0  0  0  0  0  0  0
    0.1451   -3.6287    0.0000 H   0  0  0  0  0  0  0  0  0  0  0  0
    1.9983   -3.6287    0.0000 H   0  0  0  0  0  0  0  0  0  0  0  0
    1.0717   -4.1637    0.0000 H   0  0  0  0  0  0  0  0  0  0  0  0
    1.9983   -1.7337    0.0000 H   0  0  0  0  0  0  0  0  0  0  0  0
    1.0717   -1.1987    0.0000 H   0  0  0  0  0  0  0  0  0  0  0  0
   -1.2509    3.1972    0.0000 H   0  0  0  0  0  0  0  0  0  0  0  0
   -1.2509    1.3402    0.0000 H   0  0  0  0  0  0  0  0  0  0  0  0
    1.0717   -0.8258    0.0000 H   0  0  0  0  0  0  0  0  0  0  0  0
    2.6798    0.1027    0.0000 H   0  0  0  0  0  0  0  0  0  0  0  0
   -0.1450   -2.3912    0.0000 H   0  0  0  0  0  0  0  0  0  0  0  0
   -0.1451   -1.3212    0.0000 H   0  0  0  0  0  0  0  0  0  0  0  0
    0.3572    4.1257    0.0000 H   0  0  0  0  0  0  0  0  0  0  0  0
   -1.2839    0.7412    0.0000 H   0  0  0  0  0  0  0  0  0  0  0  0
   -1.2838   -0.3288    0.0000 H   0  0  0  0  0  0  0  0  0  0  0  0
    0.5695   -0.0837    0.0000 H   0  0  0  0  0  0  0  0  0  0  0  0
   -1.9550   -0.5212    0.0000 H   0  0  0  0  0  0  0  0  0  0  0  0
    3.3121    1.3877    0.0000 H   0  0  0  0  0  0  0  0  0  0  0  0
  1 23  1  0  0  0  0
  2 24  1  0  0  0  0
  2 25  1  0  0  0  0
  2 26  1  0  0  0  0
  3  1  3  0  0  0  0
  4  2  1  0  0  0  0
  4 27  1  0  0  0  0
  4 28  1  0  0  0  0
  5 29  1  0  0  0  0
  6  5  2  0  0  0  0
  6 30  1  0  0  0  0
  7 31  1  0  0  0  0
  8  7  2  0  0  0  0
  8 32  1  0  0  0  0
  9  3  1  0  0  0  0
  9 33  1  0  0  0  0
  9 34  1  0  0  0  0
 10  5  1  0  0  0  0
 10 35  1  0  0  0  0
 11 36  1  0  0  0  0
 11 37  1  0  0  0  0
 12  7  1  0  0  0  0
 12 11  1  0  0  0  0
 13  6  1  0  0  0  0
 13 12  2  0  0  0  0
 14 11  1  0  0  0  0
 14 38  1  0  0  0  0
 15  8  1  0  0  0  0
 16 13  1  0  0  0  0
 16 15  2  0  0  0  0
 17 14  1  0  0  0  0
 18  9  1  0  0  0  0
 18 14  1  0  0  0  0
 18 39  1  0  0  0  0
 19 10  2  0  0  0  0
 19 16  1  0  0  0  0
 20 15  1  0  0  0  0
 20 40  1  0  0  0  0
 21 17  2  0  0  0  0
 22  4  1  0  0  0  0
 22 17  1  0  0  0  0
M  END
>  <DRUGBANK_ID>
DB14701

>  <COMMON_NAME>
Ethyl 8-hydroxy-alpha-(2-propynylamino)-5-quinolinepropanoate

>  <CAS_NUMBER>
686723-15-9

>  <UNII>
R333AH7MH1

>  <SYNONYMS>
5-Quinolinepropanoic acid, 8-hydroxy-alpha-(2-propyn-1-ylamino)-, ethyl ester; Ethyl 8-hydroxy-alpha-(2-propynylamino)-5-quinolinepropanoate

$$$$
