
 OpenBabel10282417072D

 76 80  0  0  0  0  0  0  0  0999 V2000
   -2.7787   -0.8748    0.0000 C   0  0  0  0  0  0  0  0  0  0  0  0
   -3.0218   -1.6632    0.0000 C   0  0  0  0  0  0  0  0  0  0  0  0
   -2.4607   -2.2679    0.0000 C   0  0  0  0  0  0  0  0  0  0  0  0
   -1.6564   -2.0844    0.0000 C   0  0  0  0  0  0  0  0  0  0  0  0
   -1.4132   -1.2960    0.0000 C   0  0  0  0  0  0  0  0  0  0  0  0
   -1.9744   -0.6913    0.0000 C   0  0  0  0  0  0  0  0  0  0  0  0
   -1.7312    0.0970    0.0000 C   0  0  0  0  0  0  0  0  0  0  0  0
    1.4132   -1.2960    0.0000 C   0  0  0  0  0  0  0  0  0  0  0  0
    1.6563   -2.0844    0.0000 C   0  0  0  0  0  0  0  0  0  0  0  0
    2.4606   -2.2679    0.0000 C   0  0  0  0  0  0  0  0  0  0  0  0
    3.0219   -1.6632    0.0000 C   0  0  0  0  0  0  0  0  0  0  0  0
    2.7786   -0.8748    0.0000 C   0  0  0  0  0  0  0  0  0  0  0  0
    1.9743   -0.6913    0.0000 C   0  0  0  0  0  0  0  0  0  0  0  0
    1.7311    0.0970    0.0000 C   0  0  0  0  0  0  0  0  0  0  0  0
   -0.9269    0.2806    0.0000 C   0  0  2  0  0  0  0  0  0  0  0  0
   -0.4125   -0.3643    0.0000 C   0  0  2  0  0  0  0  0  0  0  0  0
   -0.7704   -1.1076    0.0000 O   0  0  0  0  0  0  0  0  0  0  0  0
    0.4124   -0.3643    0.0000 C   0  0  1  0  0  0  0  0  0  0  0  0
    0.7704   -1.1076    0.0000 O   0  0  0  0  0  0  0  0  0  0  0  0
    0.9269    0.2806    0.0000 C   0  0  2  0  0  0  0  0  0  0  0  0
   -2.1563    1.2979    0.0000 C   0  0  0  0  0  0  0  0  0  0  0  0
   -2.2792    0.4821    0.0000 C   0  0  0  0  0  0  0  0  0  0  0  0
   -3.0472    0.1808    0.0000 C   0  0  0  0  0  0  0  0  0  0  0  0
   -3.6922    0.6951    0.0000 C   0  0  0  0  0  0  0  0  0  0  0  0
   -3.5692    1.5108    0.0000 C   0  0  0  0  0  0  0  0  0  0  0  0
   -2.8013    1.8122    0.0000 C   0  0  0  0  0  0  0  0  0  0  0  0
    3.5693    1.5108    0.0000 C   0  0  0  0  0  0  0  0  0  0  0  0
    3.6922    0.6951    0.0000 C   0  0  0  0  0  0  0  0  0  0  0  0
    3.0472    0.1808    0.0000 C   0  0  0  0  0  0  0  0  0  0  0  0
    2.2793    0.4821    0.0000 C   0  0  0  0  0  0  0  0  0  0  0  0
    2.1563    1.2979    0.0000 C   0  0  0  0  0  0  0  0  0  0  0  0
    2.8012    1.8122    0.0000 C   0  0  0  0  0  0  0  0  0  0  0  0
    0.7432    1.0849    0.0000 N   0  0  0  0  0  0  0  0  0  0  0  0
    0.0000    1.4428    0.0000 C   0  0  0  0  0  0  0  0  0  0  0  0
   -0.7433    1.0849    0.0000 N   0  0  0  0  0  0  0  0  0  0  0  0
    0.0000    2.2678    0.0000 O   0  0  0  0  0  0  0  0  0  0  0  0
    1.3883    1.5993    0.0000 C   0  0  0  0  0  0  0  0  0  0  0  0
   -1.3883    1.5993    0.0000 C   0  0  0  0  0  0  0  0  0  0  0  0
    4.2143    2.0252    0.0000 N   0  0  0  0  0  0  0  0  0  0  0  0
   -4.2143    2.0252    0.0000 N   0  0  0  0  0  0  0  0  0  0  0  0
   -3.4806   -0.1183    0.0000 H   0  0  0  0  0  0  0  0  0  0  0  0
   -4.0279   -1.8929    0.0000 H   0  0  0  0  0  0  0  0  0  0  0  0
   -2.7649   -3.2540    0.0000 H   0  0  0  0  0  0  0  0  0  0  0  0
   -0.9545   -2.8409    0.0000 H   0  0  0  0  0  0  0  0  0  0  0  0
   -0.4071   -1.0663    0.0000 H   0  0  0  0  0  0  0  0  0  0  0  0
   -2.4590    0.8814    0.0000 H   0  0  0  0  0  0  0  0  0  0  0  0
   -2.7744   -0.1411    0.0000 H   0  0  0  0  0  0  0  0  0  0  0  0
    0.4071   -1.0663    0.0000 H   0  0  0  0  0  0  0  0  0  0  0  0
    0.9544   -2.8409    0.0000 H   0  0  0  0  0  0  0  0  0  0  0  0
    2.7647   -3.2541    0.0000 H   0  0  0  0  0  0  0  0  0  0  0  0
    4.0280   -1.8929    0.0000 H   0  0  0  0  0  0  0  0  0  0  0  0
    3.4805   -0.1182    0.0000 H   0  0  0  0  0  0  0  0  0  0  0  0
    2.4589    0.8814    0.0000 H   0  0  0  0  0  0  0  0  0  0  0  0
    2.7743   -0.1411    0.0000 H   0  0  0  0  0  0  0  0  0  0  0  0
   -1.6835    1.0372    0.0000 H   0  0  0  0  0  0  0  0  0  0  0  0
   -1.4758   -0.4842    0.0000 H   0  0  0  0  0  0  0  0  0  0  0  0
   -1.7377   -1.1801    0.0000 H   0  0  0  0  0  0  0  0  0  0  0  0
    1.4757   -0.4842    0.0000 H   0  0  0  0  0  0  0  0  0  0  0  0
    0.2240   -1.9091    0.0000 H   0  0  0  0  0  0  0  0  0  0  0  0
    1.6835    1.0372    0.0000 H   0  0  0  0  0  0  0  0  0  0  0  0
   -1.4724   -0.1614    0.0000 H   0  0  0  0  0  0  0  0  0  0  0  0
   -3.2010   -0.8397    0.0000 H   0  0  0  0  0  0  0  0  0  0  0  0
   -4.6529    0.3181    0.0000 H   0  0  0  0  0  0  0  0  0  0  0  0
   -2.6475    2.8327    0.0000 H   0  0  0  0  0  0  0  0  0  0  0  0
    4.6528    0.3180    0.0000 H   0  0  0  0  0  0  0  0  0  0  0  0
    3.2010   -0.8397    0.0000 H   0  0  0  0  0  0  0  0  0  0  0  0
    1.4725   -0.1614    0.0000 H   0  0  0  0  0  0  0  0  0  0  0  0
    2.6474    2.8327    0.0000 H   0  0  0  0  0  0  0  0  0  0  0  0
    1.2288    2.6574    0.0000 H   0  0  0  0  0  0  0  0  0  0  0  0
    2.2249    2.2664    0.0000 H   0  0  0  0  0  0  0  0  0  0  0  0
   -1.2288    2.6573    0.0000 H   0  0  0  0  0  0  0  0  0  0  0  0
   -2.2248    2.2665    0.0000 H   0  0  0  0  0  0  0  0  0  0  0  0
    5.1308    1.6655    0.0000 H   0  0  0  0  0  0  0  0  0  0  0  0
    4.0675    2.9987    0.0000 H   0  0  0  0  0  0  0  0  0  0  0  0
   -4.0676    2.9987    0.0000 H   0  0  0  0  0  0  0  0  0  0  0  0
   -5.1307    1.6655    0.0000 H   0  0  0  0  0  0  0  0  0  0  0  0
  1  2  2  0  0  0  0
  1 41  1  0  0  0  0
  2  3  1  0  0  0  0
  2 42  1  0  0  0  0
  3  4  2  0  0  0  0
  3 43  1  0  0  0  0
  4  5  1  0  0  0  0
  4 44  1  0  0  0  0
  5  6  2  0  0  0  0
  5 45  1  0  0  0  0
  6  1  1  0  0  0  0
  6  7  1  0  0  0  0
  7 46  1  0  0  0  0
  7 47  1  0  0  0  0
  8  9  2  0  0  0  0
  8 48  1  0  0  0  0
  9 10  1  0  0  0  0
  9 49  1  0  0  0  0
 10 11  2  0  0  0  0
 10 50  1  0  0  0  0
 11 12  1  0  0  0  0
 11 51  1  0  0  0  0
 12 13  2  0  0  0  0
 12 52  1  0  0  0  0
 13  8  1  0  0  0  0
 13 14  1  0  0  0  0
 14 53  1  0  0  0  0
 14 54  1  0  0  0  0
 15  7  1  0  0  0  0
 15 35  1  0  0  0  0
 15 55  1  6  0  0  0
 16 17  1  0  0  0  0
 16 15  1  0  0  0  0
 16 18  1  0  0  0  0
 16 56  1  6  0  0  0
 17 57  1  0  0  0  0
 18 20  1  0  0  0  0
 18 19  1  0  0  0  0
 18 58  1  1  0  0  0
 19 59  1  0  0  0  0
 20 14  1  0  0  0  0
 20 33  1  0  0  0  0
 20 60  1  1  0  0  0
 21 22  2  0  0  0  0
 22 23  1  0  0  0  0
 22 61  1  0  0  0  0
 23 24  2  0  0  0  0
 23 62  1  0  0  0  0
 24 25  1  0  0  0  0
 24 63  1  0  0  0  0
 25 26  2  0  0  0  0
 25 40  1  0  0  0  0
 26 21  1  0  0  0  0
 26 64  1  0  0  0  0
 27 28  2  0  0  0  0
 27 39  1  0  0  0  0
 28 29  1  0  0  0  0
 28 65  1  0  0  0  0
 29 30  2  0  0  0  0
 29 66  1  0  0  0  0
 30 31  1  0  0  0  0
 30 67  1  0  0  0  0
 31 32  2  0  0  0  0
 32 27  1  0  0  0  0
 32 68  1  0  0  0  0
 33 34  1  0  0  0  0
 33 37  1  0  0  0  0
 34 35  1  0  0  0  0
 34 36  2  0  0  0  0
 35 38  1  0  0  0  0
 37 31  1  0  0  0  0
 37 69  1  0  0  0  0
 37 70  1  0  0  0  0
 38 21  1  0  0  0  0
 38 71  1  0  0  0  0
 38 72  1  0  0  0  0
 39 73  1  0  0  0  0
 39 74  1  0  0  0  0
 40 75  1  0  0  0  0
 40 76  1  0  0  0  0
M  END
>  <DRUGBANK_ID>
DB02102

>  <SECONDARY_ACCESSION_NUMBERS>
EXPT00197; DB02886

>  <COMMON_NAME>
Mozenavir

>  <CAS_NUMBER>
174391-92-5

>  <UNII>
64OO8946ER

>  <SYNONYMS>
Mozenavir; Moz√©navir; Mozenavirum

$$$$
