
 OpenBabel10282417072D

 93 97  0  0  0  0  0  0  0  0999 V2000
    0.0000    1.3323    0.0000 P   0  0  1  0  0  0  0  0  0  0  0  0
   -0.7842    1.5886    0.0000 O   0  0  0  0  0  0  0  0  0  0  0  0
    0.7841    1.0760    0.0000 O   0  0  0  0  0  0  0  0  0  0  0  0
   -0.7689   -1.0202    0.0000 O   0  0  0  0  0  0  0  0  0  0  0  0
   -1.6529    3.1744    0.0000 O   0  0  0  0  0  0  0  0  0  0  0  0
   -1.3582    1.7762    0.0000 O   0  0  0  0  0  0  0  0  0  0  0  0
    0.6277   -3.6465    0.0000 O   0  0  0  0  0  0  0  0  0  0  0  0
   -0.2947    2.7306    0.0000 N   0  0  0  0  0  0  0  0  0  0  0  0
    0.5893   -1.4641    0.0000 N   0  0  0  0  0  0  0  0  0  0  0  0
   -0.7305   -4.5304    0.0000 N   0  0  0  0  0  0  0  0  0  0  0  0
    1.6913   -2.6922    0.0000 N   0  0  0  0  0  0  0  0  0  0  0  0
    0.2946   -0.0659    0.0000 C   0  0  1  0  0  0  0  0  0  0  0  0
   -0.2562    0.5481    0.0000 C   0  0  0  0  0  0  0  0  0  0  0  0
    0.2562    2.1165    0.0000 C   0  0  2  0  0  0  0  0  0  0  0  0
    1.1019    0.1041    0.0000 C   0  0  0  0  0  0  0  0  0  0  0  0
    1.6529   -0.5098    0.0000 C   0  0  0  0  0  0  0  0  0  0  0  0
    0.0383   -0.8500    0.0000 C   0  0  0  0  0  0  0  0  0  0  0  0
    1.0635    2.2866    0.0000 C   0  0  0  0  0  0  0  0  0  0  0  0
    2.4602   -0.3396    0.0000 C   0  0  0  0  0  0  0  0  0  0  0  0
    0.3330   -2.2483    0.0000 C   0  0  1  0  0  0  0  0  0  0  0  0
    1.3198    3.0708    0.0000 C   0  0  0  0  0  0  0  0  0  0  0  0
   -0.4742   -2.4184    0.0000 C   0  0  0  0  0  0  0  0  0  0  0  0
    3.0111   -0.9537    0.0000 C   0  0  0  0  0  0  0  0  0  0  0  0
   -0.7305   -3.2026    0.0000 C   0  0  0  0  0  0  0  0  0  0  0  0
   -1.1020    2.5604    0.0000 C   0  0  0  0  0  0  0  0  0  0  0  0
    0.8840   -2.8623    0.0000 C   0  0  0  0  0  0  0  0  0  0  0  0
    2.1271    3.2409    0.0000 C   0  0  0  0  0  0  0  0  0  0  0  0
    0.7688    3.6848    0.0000 C   0  0  0  0  0  0  0  0  0  0  0  0
   -1.5112   -3.4540    0.0000 C   0  0  0  0  0  0  0  0  0  0  0  0
   -0.2490   -3.8665    0.0000 C   0  0  0  0  0  0  0  0  0  0  0  0
   -1.5112   -4.2790    0.0000 C   0  0  0  0  0  0  0  0  0  0  0  0
    3.8184   -0.7835    0.0000 C   0  0  0  0  0  0  0  0  0  0  0  0
    2.7548   -1.7379    0.0000 C   0  0  0  0  0  0  0  0  0  0  0  0
    2.3834    4.0251    0.0000 C   0  0  0  0  0  0  0  0  0  0  0  0
    1.0251    4.4690    0.0000 C   0  0  0  0  0  0  0  0  0  0  0  0
   -2.2256   -3.0415    0.0000 C   0  0  0  0  0  0  0  0  0  0  0  0
    1.8324    4.6391    0.0000 C   0  0  0  0  0  0  0  0  0  0  0  0
    4.3694   -1.3976    0.0000 C   0  0  0  0  0  0  0  0  0  0  0  0
    3.3058   -2.3520    0.0000 C   0  0  0  0  0  0  0  0  0  0  0  0
   -2.2256   -4.6915    0.0000 C   0  0  0  0  0  0  0  0  0  0  0  0
    4.1131   -2.1818    0.0000 C   0  0  0  0  0  0  0  0  0  0  0  0
   -2.9401   -3.4540    0.0000 C   0  0  0  0  0  0  0  0  0  0  0  0
   -2.4602    3.0043    0.0000 C   0  0  0  0  0  0  0  0  0  0  0  0
   -2.9401   -4.2790    0.0000 C   0  0  0  0  0  0  0  0  0  0  0  0
   -3.0112    3.6183    0.0000 C   0  0  0  0  0  0  0  0  0  0  0  0
   -2.7549    4.4025    0.0000 C   0  0  0  0  0  0  0  0  0  0  0  0
   -3.8185    3.4482    0.0000 C   0  0  0  0  0  0  0  0  0  0  0  0
   -3.3058    5.0166    0.0000 C   0  0  0  0  0  0  0  0  0  0  0  0
   -4.3694    4.0623    0.0000 C   0  0  0  0  0  0  0  0  0  0  0  0
   -4.1131    4.8464    0.0000 C   0  0  0  0  0  0  0  0  0  0  0  0
   -0.1357    3.2167    0.0000 H   0  0  0  0  0  0  0  0  0  0  0  0
    1.0898   -1.3586    0.0000 H   0  0  0  0  0  0  0  0  0  0  0  0
   -0.5716   -5.0166    0.0000 H   0  0  0  0  0  0  0  0  0  0  0  0
    1.8502   -2.2060    0.0000 H   0  0  0  0  0  0  0  0  0  0  0  0
    2.0328   -3.0729    0.0000 H   0  0  0  0  0  0  0  0  0  0  0  0
   -0.9842    2.5378    0.0000 H   0  0  0  0  0  0  0  0  0  0  0  0
    0.6271    0.9511    0.0000 H   0  0  0  0  0  0  0  0  0  0  0  0
   -1.3032    0.3274    0.0000 H   0  0  0  0  0  0  0  0  0  0  0  0
   -0.5887   -0.4689    0.0000 H   0  0  0  0  0  0  0  0  0  0  0  0
   -0.7908    1.8958    0.0000 H   0  0  0  0  0  0  0  0  0  0  0  0
    1.4343    1.1212    0.0000 H   0  0  0  0  0  0  0  0  0  0  0  0
    2.1489    0.3248    0.0000 H   0  0  0  0  0  0  0  0  0  0  0  0
    1.3206   -1.5269    0.0000 H   0  0  0  0  0  0  0  0  0  0  0  0
    2.3676   -1.3061    0.0000 H   0  0  0  0  0  0  0  0  0  0  0  0
    1.7781    1.4902    0.0000 H   0  0  0  0  0  0  0  0  0  0  0  0
    2.1105    2.5072    0.0000 H   0  0  0  0  0  0  0  0  0  0  0  0
    2.7926    0.6775    0.0000 H   0  0  0  0  0  0  0  0  0  0  0  0
    3.5072   -0.1190    0.0000 H   0  0  0  0  0  0  0  0  0  0  0  0
   -0.3816   -1.4519    0.0000 H   0  0  0  0  0  0  0  0  0  0  0  0
   -1.1888   -1.6220    0.0000 H   0  0  0  0  0  0  0  0  0  0  0  0
   -1.5212   -2.6391    0.0000 H   0  0  0  0  0  0  0  0  0  0  0  0
    2.8163    2.4728    0.0000 H   0  0  0  0  0  0  0  0  0  0  0  0
   -0.2410    3.4719    0.0000 H   0  0  0  0  0  0  0  0  0  0  0  0
    0.7830   -3.8665    0.0000 H   0  0  0  0  0  0  0  0  0  0  0  0
    4.1390    0.1974    0.0000 H   0  0  0  0  0  0  0  0  0  0  0  0
    1.7450   -1.9507    0.0000 H   0  0  0  0  0  0  0  0  0  0  0  0
    3.3932    4.2380    0.0000 H   0  0  0  0  0  0  0  0  0  0  0  0
    0.3359    5.2371    0.0000 H   0  0  0  0  0  0  0  0  0  0  0  0
   -2.2256   -2.0095    0.0000 H   0  0  0  0  0  0  0  0  0  0  0  0
    2.1530    5.6200    0.0000 H   0  0  0  0  0  0  0  0  0  0  0  0
    5.3792   -1.1848    0.0000 H   0  0  0  0  0  0  0  0  0  0  0  0
    2.9852   -3.3329    0.0000 H   0  0  0  0  0  0  0  0  0  0  0  0
   -2.2256   -5.7235    0.0000 H   0  0  0  0  0  0  0  0  0  0  0  0
    4.8023   -2.9499    0.0000 H   0  0  0  0  0  0  0  0  0  0  0  0
   -3.8338   -2.9380    0.0000 H   0  0  0  0  0  0  0  0  0  0  0  0
   -2.7926    1.9872    0.0000 H   0  0  0  0  0  0  0  0  0  0  0  0
   -3.5072    2.7836    0.0000 H   0  0  0  0  0  0  0  0  0  0  0  0
   -3.8338   -4.7950    0.0000 H   0  0  0  0  0  0  0  0  0  0  0  0
   -1.7451    4.6153    0.0000 H   0  0  0  0  0  0  0  0  0  0  0  0
   -4.1392    2.4673    0.0000 H   0  0  0  0  0  0  0  0  0  0  0  0
   -2.9852    5.9975    0.0000 H   0  0  0  0  0  0  0  0  0  0  0  0
   -5.3792    3.8496    0.0000 H   0  0  0  0  0  0  0  0  0  0  0  0
   -4.8023    5.6145    0.0000 H   0  0  0  0  0  0  0  0  0  0  0  0
  1  2  1  0  0  0  0
  1  3  2  1  0  0  0
  1 13  1  0  0  0  0
  1 14  1  0  0  0  0
  2 56  1  0  0  0  0
  4 17  2  0  0  0  0
  5 25  1  0  0  0  0
  5 43  1  0  0  0  0
  6 25  2  0  0  0  0
  7 26  2  0  0  0  0
  8 25  1  0  0  0  0
  8 51  1  0  0  0  0
  9 17  1  0  0  0  0
  9 52  1  0  0  0  0
 10 30  1  0  0  0  0
 10 31  1  0  0  0  0
 10 53  1  0  0  0  0
 11 26  1  0  0  0  0
 11 54  1  0  0  0  0
 11 55  1  0  0  0  0
 12 13  1  0  0  0  0
 12 15  1  0  0  0  0
 12 17  1  0  0  0  0
 12 57  1  6  0  0  0
 13 58  1  0  0  0  0
 13 59  1  0  0  0  0
 14  8  1  0  0  0  0
 14 18  1  0  0  0  0
 14 60  1  1  0  0  0
 15 16  1  0  0  0  0
 15 61  1  0  0  0  0
 15 62  1  0  0  0  0
 16 19  1  0  0  0  0
 16 63  1  0  0  0  0
 16 64  1  0  0  0  0
 18 21  1  0  0  0  0
 18 65  1  0  0  0  0
 18 66  1  0  0  0  0
 19 23  1  0  0  0  0
 19 67  1  0  0  0  0
 19 68  1  0  0  0  0
 20  9  1  0  0  0  0
 20 22  1  0  0  0  0
 20 26  1  0  0  0  0
 20 69  1  1  0  0  0
 21 27  2  0  0  0  0
 21 28  1  0  0  0  0
 22 24  1  0  0  0  0
 22 70  1  0  0  0  0
 22 71  1  0  0  0  0
 23 32  2  0  0  0  0
 23 33  1  0  0  0  0
 24 29  1  0  0  0  0
 24 30  2  0  0  0  0
 27 34  1  0  0  0  0
 27 72  1  0  0  0  0
 28 35  2  0  0  0  0
 28 73  1  0  0  0  0
 29 31  1  0  0  0  0
 29 36  2  0  0  0  0
 30 74  1  0  0  0  0
 31 40  2  0  0  0  0
 32 38  1  0  0  0  0
 32 75  1  0  0  0  0
 33 39  2  0  0  0  0
 33 76  1  0  0  0  0
 34 37  2  0  0  0  0
 34 77  1  0  0  0  0
 35 37  1  0  0  0  0
 35 78  1  0  0  0  0
 36 42  1  0  0  0  0
 36 79  1  0  0  0  0
 37 80  1  0  0  0  0
 38 41  2  0  0  0  0
 38 81  1  0  0  0  0
 39 41  1  0  0  0  0
 39 82  1  0  0  0  0
 40 44  1  0  0  0  0
 40 83  1  0  0  0  0
 41 84  1  0  0  0  0
 42 44  2  0  0  0  0
 42 85  1  0  0  0  0
 43 45  1  0  0  0  0
 43 86  1  0  0  0  0
 43 87  1  0  0  0  0
 44 88  1  0  0  0  0
 45 46  2  0  0  0  0
 45 47  1  0  0  0  0
 46 48  1  0  0  0  0
 46 89  1  0  0  0  0
 47 49  2  0  0  0  0
 47 90  1  0  0  0  0
 48 50  2  0  0  0  0
 48 91  1  0  0  0  0
 49 50  1  0  0  0  0
 49 92  1  0  0  0  0
 50 93  1  0  0  0  0
M  END
>  <DRUGBANK_ID>
DB04318

>  <SECONDARY_ACCESSION_NUMBERS>
EXPT02827

>  <COMMON_NAME>
NÎ±-[(2S)-2-{[(S)-[(1S)-1-{[(Benzyloxy)carbonyl]amino}-2-phenylethyl](hydroxy)phosphoryl]methyl}-5-phenylpentanoyl]-L-tryptophanamide

$$$$
