P21
 OpenBabel10282417072D

 60 62  0  0  0  0  0  0  0  0999 V2000
    2.9864    3.2493    0.0000 Cl  0  0  0  0  0  0  0  0  0  0  0  0
    2.2719    2.8368    0.0000 C   0  0  0  0  0  0  0  0  0  0  0  0
    2.2719    2.0118    0.0000 C   0  0  0  0  0  0  0  0  0  0  0  0
    1.5575    1.5993    0.0000 C   0  0  0  0  0  0  0  0  0  0  0  0
    1.5575    3.2493    0.0000 C   0  0  0  0  0  0  0  0  0  0  0  0
    0.8430    2.8368    0.0000 C   0  0  0  0  0  0  0  0  0  0  0  0
    0.8430    2.0118    0.0000 C   0  0  0  0  0  0  0  0  0  0  0  0
    0.1285    1.5993    0.0000 C   0  0  0  0  0  0  0  0  0  0  0  0
   -0.5860    2.0118    0.0000 O   0  0  0  0  0  0  0  0  0  0  0  0
    0.1285    0.7743    0.0000 N   0  0  0  0  0  0  0  0  0  0  0  0
    0.8430    0.3618    0.0000 C   0  0  0  0  0  0  0  0  0  0  0  0
    1.5575    0.7743    0.0000 C   0  0  0  0  0  0  0  0  0  0  0  0
   -0.5860    0.3618    0.0000 C   0  0  2  0  0  0  0  0  0  0  0  0
   -0.5860   -0.4632    0.0000 C   0  0  0  0  0  0  0  0  0  0  0  0
   -1.3004   -0.8757    0.0000 N   0  0  0  0  0  0  0  0  0  0  0  0
   -2.0149   -0.4632    0.0000 C   0  0  0  0  0  0  0  0  0  0  0  0
   -2.0149    0.3618    0.0000 C   0  0  0  0  0  0  0  0  0  0  0  0
   -1.3004    0.7743    0.0000 C   0  0  0  0  0  0  0  0  0  0  0  0
   -1.3004   -1.7007    0.0000 C   0  0  0  0  0  0  0  0  0  0  0  0
   -0.5860   -2.1132    0.0000 C   0  0  0  0  0  0  0  0  0  0  0  0
   -0.5860   -2.9382    0.0000 C   0  0  0  0  0  0  0  0  0  0  0  0
    0.1285   -3.3507    0.0000 C   0  0  0  0  0  0  0  0  0  0  0  0
    0.1285   -4.1757    0.0000 C   0  0  0  0  0  0  0  0  0  0  0  0
   -0.5860   -4.5882    0.0000 C   0  0  0  0  0  0  0  0  0  0  0  0
   -1.3004   -4.1757    0.0000 C   0  0  0  0  0  0  0  0  0  0  0  0
   -1.3004   -3.3507    0.0000 C   0  0  0  0  0  0  0  0  0  0  0  0
    2.2719    0.3618    0.0000 C   0  0  0  0  0  0  0  0  0  0  0  0
    2.9864    0.7743    0.0000 O   0  0  0  0  0  0  0  0  0  0  0  0
    3.7009    0.3618    0.0000 C   0  0  0  0  0  0  0  0  0  0  0  0
   -0.0803    0.0699    0.0000 H   0  0  0  0  0  0  0  0  0  0  0  0
    3.1656    1.4958    0.0000 H   0  0  0  0  0  0  0  0  0  0  0  0
    1.5575    0.5673    0.0000 H   0  0  0  0  0  0  0  0  0  0  0  0
    1.5575    4.2813    0.0000 H   0  0  0  0  0  0  0  0  0  0  0  0
   -0.0507    3.3528    0.0000 H   0  0  0  0  0  0  0  0  0  0  0  0
    0.8430   -0.7082    0.0000 H   0  0  0  0  0  0  0  0  0  0  0  0
    1.7696   -0.1732    0.0000 H   0  0  0  0  0  0  0  0  0  0  0  0
    1.5575    1.8443    0.0000 H   0  0  0  0  0  0  0  0  0  0  0  0
    2.4842    1.3093    0.0000 H   0  0  0  0  0  0  0  0  0  0  0  0
    0.3407   -0.9982    0.0000 H   0  0  0  0  0  0  0  0  0  0  0  0
   -0.5860   -1.5332    0.0000 H   0  0  0  0  0  0  0  0  0  0  0  0
   -2.9415   -0.9982    0.0000 H   0  0  0  0  0  0  0  0  0  0  0  0
   -2.9415    0.0718    0.0000 H   0  0  0  0  0  0  0  0  0  0  0  0
   -2.9415    0.8968    0.0000 H   0  0  0  0  0  0  0  0  0  0  0  0
   -2.0149    1.4318    0.0000 H   0  0  0  0  0  0  0  0  0  0  0  0
   -1.3004    1.8443    0.0000 H   0  0  0  0  0  0  0  0  0  0  0  0
   -2.2270    1.3093    0.0000 H   0  0  0  0  0  0  0  0  0  0  0  0
   -2.2271   -2.2357    0.0000 H   0  0  0  0  0  0  0  0  0  0  0  0
   -1.3004   -2.7707    0.0000 H   0  0  0  0  0  0  0  0  0  0  0  0
    0.3407   -1.5782    0.0000 H   0  0  0  0  0  0  0  0  0  0  0  0
    0.3406   -2.6482    0.0000 H   0  0  0  0  0  0  0  0  0  0  0  0
    1.0222   -2.8347    0.0000 H   0  0  0  0  0  0  0  0  0  0  0  0
    1.0222   -4.6917    0.0000 H   0  0  0  0  0  0  0  0  0  0  0  0
   -0.5860   -5.6202    0.0000 H   0  0  0  0  0  0  0  0  0  0  0  0
   -2.1941   -4.6917    0.0000 H   0  0  0  0  0  0  0  0  0  0  0  0
   -2.1941   -2.8347    0.0000 H   0  0  0  0  0  0  0  0  0  0  0  0
    2.2719   -0.7082    0.0000 H   0  0  0  0  0  0  0  0  0  0  0  0
    3.1985   -0.1732    0.0000 H   0  0  0  0  0  0  0  0  0  0  0  0
    3.7009   -0.7082    0.0000 H   0  0  0  0  0  0  0  0  0  0  0  0
    4.6275    0.8968    0.0000 H   0  0  0  0  0  0  0  0  0  0  0  0
    4.6276   -0.1732    0.0000 H   0  0  0  0  0  0  0  0  0  0  0  0
  1  2  1  0  0  0  0
  2  3  1  0  0  0  0
  2  5  2  0  0  0  0
  3  4  2  0  0  0  0
  3 31  1  0  0  0  0
  4  7  1  0  0  0  0
  4 32  1  0  0  0  0
  5  6  1  0  0  0  0
  5 33  1  0  0  0  0
  6  7  2  0  0  0  0
  6 34  1  0  0  0  0
  7  8  1  0  0  0  0
  8  9  2  0  0  0  0
  8 10  1  0  0  0  0
 10 11  1  0  0  0  0
 11 12  1  0  0  0  0
 11 35  1  0  0  0  0
 11 36  1  0  0  0  0
 12 27  1  0  0  0  0
 12 37  1  0  0  0  0
 12 38  1  0  0  0  0
 13 10  1  0  0  0  0
 13 14  1  0  0  0  0
 13 18  1  0  0  0  0
 13 30  1  1  0  0  0
 14 15  1  0  0  0  0
 14 39  1  0  0  0  0
 14 40  1  0  0  0  0
 15 16  1  0  0  0  0
 15 19  1  0  0  0  0
 16 17  1  0  0  0  0
 16 41  1  0  0  0  0
 16 42  1  0  0  0  0
 17 18  1  0  0  0  0
 17 43  1  0  0  0  0
 17 44  1  0  0  0  0
 18 45  1  0  0  0  0
 18 46  1  0  0  0  0
 19 20  1  0  0  0  0
 19 47  1  0  0  0  0
 19 48  1  0  0  0  0
 20 21  1  0  0  0  0
 20 49  1  0  0  0  0
 20 50  1  0  0  0  0
 21 22  1  0  0  0  0
 21 26  2  0  0  0  0
 22 23  2  0  0  0  0
 22 51  1  0  0  0  0
 23 24  1  0  0  0  0
 23 52  1  0  0  0  0
 24 25  2  0  0  0  0
 24 53  1  0  0  0  0
 25 26  1  0  0  0  0
 25 54  1  0  0  0  0
 26 55  1  0  0  0  0
 27 28  1  0  0  0  0
 27 56  1  0  0  0  0
 27 57  1  0  0  0  0
 28 29  1  0  0  0  0
 29 58  1  0  0  0  0
 29 59  1  0  0  0  0
 29 60  1  0  0  0  0
M  END
>  <DRUGBANK_ID>
DB08344

>  <COMMON_NAME>
4-chloro-N-(3-methoxypropyl)-N-[(3S)-1-(2-phenylethyl)piperidin-3-yl]benzamide

$$$$
