
 OpenBabel10282417072D

 81 84  0  0  1  0  0  0  0  0999 V2000
   11.0730   -3.4133    0.0000 C   0  0  0  0  0  0  0  0  0  0  0  0
   11.7874   -3.8258    0.0000 C   0  0  0  0  0  0  0  0  0  0  0  0
   12.5019   -3.4133    0.0000 C   0  0  0  0  0  0  0  0  0  0  0  0
   13.2164   -3.8258    0.0000 C   0  0  0  0  0  0  0  0  0  0  0  0
   13.9309   -3.4133    0.0000 C   0  0  0  0  0  0  0  0  0  0  0  0
   14.6453   -3.8258    0.0000 C   0  0  0  0  0  0  0  0  0  0  0  0
   15.3598   -3.4133    0.0000 C   0  0  0  0  0  0  0  0  0  0  0  0
   16.0743   -3.8258    0.0000 C   0  0  0  0  0  0  0  0  0  0  0  0
   16.7887   -3.4133    0.0000 C   0  0  0  0  0  0  0  0  0  0  0  0
   17.5032   -3.8258    0.0000 C   0  0  0  0  0  0  0  0  0  0  0  0
   18.2177   -3.4133    0.0000 C   0  0  0  0  0  0  0  0  0  0  0  0
   18.2177   -2.5883    0.0000 O   0  0  0  0  0  0  0  0  0  0  0  0
   18.9322   -3.8258    0.0000 O   0  0  0  0  0  0  0  0  0  0  0  0
   19.6466   -3.4133    0.0000 C   0  0  1  0  0  0  0  0  0  0  0  0
   19.7329   -2.5929    0.0000 C   0  0  0  0  0  0  0  0  0  0  0  0
   20.5398   -2.4213    0.0000 C   0  0  0  0  0  0  0  0  0  0  0  0
   20.9523   -3.1358    0.0000 C   0  0  2  0  0  0  0  0  0  0  0  0
   20.4003   -3.7489    0.0000 C   0  0  2  0  0  0  0  0  0  0  0  0
   20.6552   -4.5335    0.0000 C   0  0  0  0  0  0  0  0  0  0  0  0
   21.4622   -4.7050    0.0000 C   0  0  0  0  0  0  0  0  0  0  0  0
   22.0142   -4.0920    0.0000 C   0  0  1  0  0  0  0  0  0  0  0  0
   21.7593   -3.3073    0.0000 C   0  0  1  0  0  0  0  0  0  0  0  0
   22.3113   -2.6942    0.0000 C   0  0  0  0  0  0  0  0  0  0  0  0
   23.1183   -2.8658    0.0000 C   0  0  0  0  0  0  0  0  0  0  0  0
   23.3732   -3.6504    0.0000 C   0  0  0  0  0  0  0  0  0  0  0  0
   24.1802   -3.8219    0.0000 C   0  0  0  0  0  0  0  0  0  0  0  0
   24.4352   -4.6065    0.0000 C   0  0  0  0  0  0  0  0  0  0  0  0
   25.2421   -4.7781    0.0000 O   0  0  0  0  0  0  0  0  0  0  0  0
   23.8831   -5.2196    0.0000 C   0  0  0  0  0  0  0  0  0  0  0  0
   23.0762   -5.0481    0.0000 C   0  0  0  0  0  0  0  0  0  0  0  0
   22.8212   -4.2635    0.0000 C   0  0  2  0  0  0  0  0  0  0  0  0
   22.2692   -4.8766    0.0000 C   0  0  0  0  0  0  0  0  0  0  0  0
   19.7872   -4.3009    0.0000 C   0  0  0  0  0  0  0  0  0  0  0  0
   11.0730   -2.3433    0.0000 H   0  0  0  0  0  0  0  0  0  0  0  0
   10.1463   -3.9483    0.0000 H   0  0  0  0  0  0  0  0  0  0  0  0
   10.1464   -2.8783    0.0000 H   0  0  0  0  0  0  0  0  0  0  0  0
   11.7874   -4.8958    0.0000 H   0  0  0  0  0  0  0  0  0  0  0  0
   12.7140   -4.3608    0.0000 H   0  0  0  0  0  0  0  0  0  0  0  0
   12.5019   -2.3433    0.0000 H   0  0  0  0  0  0  0  0  0  0  0  0
   13.4285   -2.8783    0.0000 H   0  0  0  0  0  0  0  0  0  0  0  0
   13.2164   -4.8958    0.0000 H   0  0  0  0  0  0  0  0  0  0  0  0
   14.1430   -4.3608    0.0000 H   0  0  0  0  0  0  0  0  0  0  0  0
   13.9309   -2.3433    0.0000 H   0  0  0  0  0  0  0  0  0  0  0  0
   14.8576   -2.8783    0.0000 H   0  0  0  0  0  0  0  0  0  0  0  0
   14.6453   -4.8958    0.0000 H   0  0  0  0  0  0  0  0  0  0  0  0
   15.5719   -4.3608    0.0000 H   0  0  0  0  0  0  0  0  0  0  0  0
   15.3598   -2.3433    0.0000 H   0  0  0  0  0  0  0  0  0  0  0  0
   16.2864   -2.8783    0.0000 H   0  0  0  0  0  0  0  0  0  0  0  0
   16.0743   -4.8958    0.0000 H   0  0  0  0  0  0  0  0  0  0  0  0
   17.0010   -4.3608    0.0000 H   0  0  0  0  0  0  0  0  0  0  0  0
   16.7887   -2.3433    0.0000 H   0  0  0  0  0  0  0  0  0  0  0  0
   17.7153   -2.8783    0.0000 H   0  0  0  0  0  0  0  0  0  0  0  0
   17.5032   -4.8958    0.0000 H   0  0  0  0  0  0  0  0  0  0  0  0
   18.4298   -4.3608    0.0000 H   0  0  0  0  0  0  0  0  0  0  0  0
   18.7492   -2.8305    0.0000 H   0  0  0  0  0  0  0  0  0  0  0  0
   18.9377   -1.8769    0.0000 H   0  0  0  0  0  0  0  0  0  0  0  0
   20.0098   -1.5593    0.0000 H   0  0  0  0  0  0  0  0  0  0  0  0
   20.9750   -1.4438    0.0000 H   0  0  0  0  0  0  0  0  0  0  0  0
   21.6083   -2.3653    0.0000 H   0  0  0  0  0  0  0  0  0  0  0  0
   19.8882   -3.0240    0.0000 H   0  0  0  0  0  0  0  0  0  0  0  0
   19.9392   -5.3287    0.0000 H   0  0  0  0  0  0  0  0  0  0  0  0
   20.9859   -5.5511    0.0000 H   0  0  0  0  0  0  0  0  0  0  0  0
   21.7928   -5.7226    0.0000 H   0  0  0  0  0  0  0  0  0  0  0  0
   22.5088   -4.9275    0.0000 H   0  0  0  0  0  0  0  0  0  0  0  0
   20.9676   -3.8695    0.0000 H   0  0  0  0  0  0  0  0  0  0  0  0
   22.8059   -3.5298    0.0000 H   0  0  0  0  0  0  0  0  0  0  0  0
   21.9807   -1.6766    0.0000 H   0  0  0  0  0  0  0  0  0  0  0  0
   23.0273   -1.8991    0.0000 H   0  0  0  0  0  0  0  0  0  0  0  0
   23.8343   -2.0707    0.0000 H   0  0  0  0  0  0  0  0  0  0  0  0
   24.1649   -3.0883    0.0000 H   0  0  0  0  0  0  0  0  0  0  0  0
   24.8707   -3.0549    0.0000 H   0  0  0  0  0  0  0  0  0  0  0  0
   24.2137   -6.2372    0.0000 H   0  0  0  0  0  0  0  0  0  0  0  0
   23.1671   -6.0148    0.0000 H   0  0  0  0  0  0  0  0  0  0  0  0
   22.3603   -5.8433    0.0000 H   0  0  0  0  0  0  0  0  0  0  0  0
   22.0296   -4.8257    0.0000 H   0  0  0  0  0  0  0  0  0  0  0  0
   21.2226   -4.6542    0.0000 H   0  0  0  0  0  0  0  0  0  0  0  0
   22.5999   -5.8942    0.0000 H   0  0  0  0  0  0  0  0  0  0  0  0
   21.5533   -5.6718    0.0000 H   0  0  0  0  0  0  0  0  0  0  0  0
   18.7696   -3.9702    0.0000 H   0  0  0  0  0  0  0  0  0  0  0  0
   20.0096   -5.3475    0.0000 H   0  0  0  0  0  0  0  0  0  0  0  0
   18.9920   -5.0168    0.0000 H   0  0  0  0  0  0  0  0  0  0  0  0
  1  2  1  0  0  0  0
  1 34  1  0  0  0  0
  1 35  1  0  0  0  0
  1 36  1  0  0  0  0
  2  3  1  0  0  0  0
  2 37  1  0  0  0  0
  2 38  1  0  0  0  0
  3  4  1  0  0  0  0
  3 39  1  0  0  0  0
  3 40  1  0  0  0  0
  4  5  1  0  0  0  0
  4 41  1  0  0  0  0
  4 42  1  0  0  0  0
  5  6  1  0  0  0  0
  5 43  1  0  0  0  0
  5 44  1  0  0  0  0
  6  7  1  0  0  0  0
  6 45  1  0  0  0  0
  6 46  1  0  0  0  0
  7  8  1  0  0  0  0
  7 47  1  0  0  0  0
  7 48  1  0  0  0  0
  8  9  1  0  0  0  0
  8 49  1  0  0  0  0
  8 50  1  0  0  0  0
  9 10  1  0  0  0  0
  9 51  1  0  0  0  0
  9 52  1  0  0  0  0
 10 11  1  0  0  0  0
 10 53  1  0  0  0  0
 10 54  1  0  0  0  0
 11 12  2  0  0  0  0
 11 13  1  0  0  0  0
 14 13  1  0  0  0  0
 14 15  1  0  0  0  0
 14 18  1  0  0  0  0
 14 55  1  6  0  0  0
 15 16  1  0  0  0  0
 15 56  1  0  0  0  0
 15 57  1  0  0  0  0
 16 58  1  0  0  0  0
 16 59  1  0  0  0  0
 17 16  1  0  0  0  0
 17 18  1  0  0  0  0
 17 22  1  0  0  0  0
 17 60  1  6  0  0  0
 18 19  1  0  0  0  0
 18 33  1  1  0  0  0
 19 20  1  0  0  0  0
 19 61  1  0  0  0  0
 19 62  1  0  0  0  0
 20 63  1  0  0  0  0
 20 64  1  0  0  0  0
 21 20  1  0  0  0  0
 21 22  1  0  0  0  0
 21 31  1  0  0  0  0
 21 65  1  6  0  0  0
 22 23  1  0  0  0  0
 22 66  1  1  0  0  0
 23 24  1  0  0  0  0
 23 67  1  0  0  0  0
 23 68  1  0  0  0  0
 24 25  1  0  0  0  0
 24 69  1  0  0  0  0
 24 70  1  0  0  0  0
 25 26  2  0  0  0  0
 25 31  1  0  0  0  0
 26 27  1  0  0  0  0
 26 71  1  0  0  0  0
 27 28  2  0  0  0  0
 27 29  1  0  0  0  0
 29 30  1  0  0  0  0
 29 72  1  0  0  0  0
 29 73  1  0  0  0  0
 30 31  1  0  0  0  0
 30 74  1  0  0  0  0
 30 75  1  0  0  0  0
 31 32  1  1  0  0  0
 32 76  1  0  0  0  0
 32 77  1  0  0  0  0
 32 78  1  0  0  0  0
 33 79  1  0  0  0  0
 33 80  1  0  0  0  0
 33 81  1  0  0  0  0
M  END
>  <DRUGBANK_ID>
DB13946

>  <SECONDARY_ACCESSION_NUMBERS>
DBSALT001033

>  <COMMON_NAME>
Testosterone undecanoate

>  <CAS_NUMBER>
5949-44-0

>  <UNII>
H16A5VCT9C

>  <SYNONYMS>
Testosterone undecanoate; Testosterone undeconate; Testosterone undecylate

$$$$
