
 OpenBabel10282417072D

 39 38  0  0  0  0  0  0  0  0999 V2000
   -0.7334    1.1704    0.0000 C   0  0  0  0  0  0  0  0  0  0  0  0
   -1.4479    0.7579    0.0000 C   0  0  1  0  0  0  0  0  0  0  0  0
   -2.1154   -0.5519    0.0000 C   0  0  0  0  0  0  0  0  0  0  0  0
   -1.8604   -1.3366    0.0000 C   0  0  0  0  0  0  0  0  0  0  0  0
   -1.4479   -0.0670    0.0000 C   0  0  2  0  0  0  0  0  0  0  0  0
   -1.0354   -1.3366    0.0000 C   0  0  0  0  0  0  0  0  0  0  0  0
   -0.7334    1.9954    0.0000 O   0  0  0  0  0  0  0  0  0  0  0  0
   -2.1624    1.1704    0.0000 O   0  0  0  0  0  0  0  0  0  0  0  0
   -2.9000   -0.2970    0.0000 O   0  5  0  0  0  0  0  0  0  0  0  0
   -2.3453   -2.0040    0.0000 O   0  5  0  0  0  0  0  0  0  0  0  0
   -0.5505   -2.0040    0.0000 O   0  0  0  0  0  0  0  0  0  0  0  0
   -0.7805   -0.5519    0.0000 O   0  0  0  0  0  0  0  0  0  0  0  0
    3.5016    1.1790    0.0000 C   0  0  0  0  0  0  0  0  0  0  0  0
    2.7872    0.7665    0.0000 C   0  0  1  0  0  0  0  0  0  0  0  0
    2.1197   -0.5433    0.0000 C   0  0  0  0  0  0  0  0  0  0  0  0
    2.3747   -1.3279    0.0000 C   0  0  0  0  0  0  0  0  0  0  0  0
    2.7872   -0.0584    0.0000 C   0  0  2  0  0  0  0  0  0  0  0  0
    3.1997   -1.3279    0.0000 C   0  0  0  0  0  0  0  0  0  0  0  0
    3.5016    2.0040    0.0000 O   0  0  0  0  0  0  0  0  0  0  0  0
    2.0727    1.1790    0.0000 O   0  0  0  0  0  0  0  0  0  0  0  0
    1.3351   -0.2884    0.0000 O   0  0  0  0  0  0  0  0  0  0  0  0
    1.8898   -1.9954    0.0000 O   0  0  0  0  0  0  0  0  0  0  0  0
    3.6846   -1.9954    0.0000 O   0  0  0  0  0  0  0  0  0  0  0  0
    3.4546   -0.5433    0.0000 O   0  0  0  0  0  0  0  0  0  0  0  0
   -3.6846   -0.0421    0.0000 Fe  0  2  0  0  0  0  0  0  0  0  0  0
   -0.7334    0.3454    0.0000 H   0  0  0  0  0  0  0  0  0  0  0  0
   -2.1830    0.3074    0.0000 H   0  0  0  0  0  0  0  0  0  0  0  0
    3.5016    0.3540    0.0000 H   0  0  0  0  0  0  0  0  0  0  0  0
    2.0521    0.3160    0.0000 H   0  0  0  0  0  0  0  0  0  0  0  0
    0.1932    0.6354    0.0000 H   0  0  0  0  0  0  0  0  0  0  0  0
    0.1932    1.7054    0.0000 H   0  0  0  0  0  0  0  0  0  0  0  0
    0.1066    2.4804    0.0000 H   0  0  0  0  0  0  0  0  0  0  0  0
   -2.1624    2.1404    0.0000 H   0  0  0  0  0  0  0  0  0  0  0  0
    4.4283    0.6440    0.0000 H   0  0  0  0  0  0  0  0  0  0  0  0
    4.4282    1.7140    0.0000 H   0  0  0  0  0  0  0  0  0  0  0  0
    4.3416    2.4890    0.0000 H   0  0  0  0  0  0  0  0  0  0  0  0
    2.0727    2.1490    0.0000 H   0  0  0  0  0  0  0  0  0  0  0  0
    1.1403    0.6281    0.0000 H   0  0  0  0  0  0  0  0  0  0  0  0
    0.9579   -1.8975    0.0000 H   0  0  0  0  0  0  0  0  0  0  0  0
  1 30  1  0  0  0  0
  1 31  1  0  0  0  0
  2  1  1  0  0  0  0
  2  5  1  0  0  0  0
  2  8  1  0  0  0  0
  2 26  1  6  0  0  0
  4  3  2  0  0  0  0
  5  3  1  0  0  0  0
  5 12  1  0  0  0  0
  5 27  1  6  0  0  0
  6  4  1  0  0  0  0
  7  1  1  0  0  0  0
  7 32  1  0  0  0  0
  8 33  1  0  0  0  0
  9  3  1  0  0  0  0
 10  4  1  0  0  0  0
 11  6  2  0  0  0  0
 12  6  1  0  0  0  0
 13 34  1  0  0  0  0
 13 35  1  0  0  0  0
 14 13  1  0  0  0  0
 14 17  1  0  0  0  0
 14 20  1  0  0  0  0
 14 28  1  6  0  0  0
 16 15  2  0  0  0  0
 17 15  1  0  0  0  0
 17 24  1  0  0  0  0
 17 29  1  6  0  0  0
 18 16  1  0  0  0  0
 19 13  1  0  0  0  0
 19 36  1  0  0  0  0
 20 37  1  0  0  0  0
 21 15  1  0  0  0  0
 21 38  1  0  0  0  0
 22 16  1  0  0  0  0
 22 39  1  0  0  0  0
 23 18  2  0  0  0  0
 24 18  1  0  0  0  0
M  CHG  3   9  -1  10  -1  25   2
M  END
>  <DRUGBANK_ID>
DB14490

>  <SECONDARY_ACCESSION_NUMBERS>
DBSALT000075

>  <COMMON_NAME>
Ferrous ascorbate

>  <CAS_NUMBER>
24808-52-4

>  <UNII>
DI3477D0PI

>  <SYNONYMS>
Ferrous cevitamate; Iron(2+) L-ascorbate; L-Ascorbic acid, iron complex

$$$$
