
 OpenBabel10282417072D

 22 22  0  0  0  0  0  0  0  0999 V2000
    1.0706   -1.8553    0.0000 O   0  0  0  0  0  0  0  0  0  0  0  0
    1.0706   -1.0307    0.0000 C   0  0  0  0  0  0  0  0  0  0  0  0
    1.7853   -0.6184    0.0000 C   0  0  0  0  0  0  0  0  0  0  0  0
   -1.7853    0.6170    0.0000 O   0  0  0  0  0  0  0  0  0  0  0  0
   -1.0720    0.2048    0.0000 C   0  0  0  0  0  0  0  0  0  0  0  0
   -1.0720   -0.6198    0.0000 C   0  0  0  0  0  0  0  0  0  0  0  0
   -0.3573   -1.0322    0.0000 C   0  0  0  0  0  0  0  0  0  0  0  0
    0.3572   -0.6198    0.0000 C   0  0  0  0  0  0  0  0  0  0  0  0
    0.3572    0.2062    0.0000 C   0  0  0  0  0  0  0  0  0  0  0  0
   -0.3573    0.6184    0.0000 C   0  0  0  0  0  0  0  0  0  0  0  0
   -0.3573    1.4416    0.0000 O   0  0  0  0  0  0  0  0  0  0  0  0
    0.3572    1.8553    0.0000 C   0  0  0  0  0  0  0  0  0  0  0  0
    2.7118   -1.1537    0.0000 H   0  0  0  0  0  0  0  0  0  0  0  0
    1.7857    0.4516    0.0000 H   0  0  0  0  0  0  0  0  0  0  0  0
    2.7121   -0.0837    0.0000 H   0  0  0  0  0  0  0  0  0  0  0  0
   -1.7849    1.5540    0.0000 H   0  0  0  0  0  0  0  0  0  0  0  0
   -1.9657   -1.1359    0.0000 H   0  0  0  0  0  0  0  0  0  0  0  0
   -0.3572   -2.0642    0.0000 H   0  0  0  0  0  0  0  0  0  0  0  0
    1.2509    0.7223    0.0000 H   0  0  0  0  0  0  0  0  0  0  0  0
    1.2845    1.3215    0.0000 H   0  0  0  0  0  0  0  0  0  0  0  0
    0.3559    2.9253    0.0000 H   0  0  0  0  0  0  0  0  0  0  0  0
    1.2832    2.3914    0.0000 H   0  0  0  0  0  0  0  0  0  0  0  0
  1  2  2  0  0  0  0
  2  3  1  0  0  0  0
  2  8  1  0  0  0  0
  3 13  1  0  0  0  0
  3 14  1  0  0  0  0
  3 15  1  0  0  0  0
  4  5  1  0  0  0  0
  4 16  1  0  0  0  0
  5  6  1  0  0  0  0
  5 10  2  0  0  0  0
  6  7  2  0  0  0  0
  6 17  1  0  0  0  0
  7  8  1  0  0  0  0
  7 18  1  0  0  0  0
  8  9  2  0  0  0  0
  9 10  1  0  0  0  0
  9 19  1  0  0  0  0
 10 11  1  0  0  0  0
 11 12  1  0  0  0  0
 12 20  1  0  0  0  0
 12 21  1  0  0  0  0
 12 22  1  0  0  0  0
M  END
>  <DRUGBANK_ID>
DB12618

>  <COMMON_NAME>
Apocynin

>  <CAS_NUMBER>
498-02-2

>  <UNII>
B6J7B9UDTR

>  <SYNONYMS>
Acetovanillone

$$$$
