
 OpenBabel10282417072D

 44 49  0  0  1  0  0  0  0  0999 V2000
    8.0374    1.9727    0.0000 C   0  0  0  0  0  0  0  0  0  0  0  0
    7.1609    1.2447    0.0000 C   0  0  0  0  0  0  0  0  0  0  0  0
    6.3359    1.2447    0.0000 C   0  0  0  0  0  0  0  0  0  0  0  0
   10.2197    2.0148    0.0000 C   0  0  0  0  0  0  0  0  0  0  0  0
    9.4351    2.2698    0.0000 C   0  0  0  0  0  0  0  0  0  0  0  0
   11.1758    0.9529    0.0000 C   0  0  0  0  0  0  0  0  0  0  0  0
    9.9497   -0.1511    0.0000 C   0  0  0  0  0  0  0  0  0  0  0  0
   11.8903   -1.0735    0.0000 C   0  0  0  0  0  0  0  0  0  0  0  0
    5.0302   -0.4617    0.0000 C   0  0  0  0  0  0  0  0  0  0  0  0
   10.3912    1.2079    0.0000 C   0  0  0  0  0  0  0  0  0  0  0  0
    7.5734    0.5303    0.0000 C   0  0  0  0  0  0  0  0  0  0  0  0
    9.7781    0.6558    0.0000 C   0  0  0  0  0  0  0  0  0  0  0  0
    5.9234    0.5303    0.0000 C   0  0  0  0  0  0  0  0  0  0  0  0
   11.3474    0.1459    0.0000 C   0  0  0  0  0  0  0  0  0  0  0  0
   10.7343   -0.4061    0.0000 C   0  0  0  0  0  0  0  0  0  0  0  0
    7.1609   -0.1842    0.0000 C   0  0  0  0  0  0  0  0  0  0  0  0
    8.9935    0.9108    0.0000 C   0  0  1  0  0  0  0  0  0  0  0  0
    8.3804    0.3587    0.0000 C   0  0  2  0  0  0  0  0  0  0  0  0
    6.3359   -0.1842    0.0000 C   0  0  0  0  0  0  0  0  0  0  0  0
    7.7130   -0.7973    0.0000 C   0  0  0  0  0  0  0  0  0  0  0  0
    8.8220    1.7177    0.0000 N   0  0  0  0  0  0  0  0  0  0  0  0
    7.5415   -1.6043    0.0000 O   0  0  0  0  0  0  0  0  0  0  0  0
    5.1165    0.3587    0.0000 O   0  0  0  0  0  0  0  0  0  0  0  0
   12.0618   -0.2666    0.0000 O   0  0  0  0  0  0  0  0  0  0  0  0
   11.0698   -1.1598    0.0000 O   0  0  0  0  0  0  0  0  0  0  0  0
    5.7839   -0.7973    0.0000 O   0  0  0  0  0  0  0  0  0  0  0  0
    8.4667   -0.4617    0.0000 O   0  0  0  0  0  0  0  0  0  0  0  0
    8.2089    1.1657    0.0000 H   0  0  0  0  0  0  0  0  0  0  0  0
    9.1506    0.0631    0.0000 H   0  0  0  0  0  0  0  0  0  0  0  0
    7.8150    3.0193    0.0000 H   0  0  0  0  0  0  0  0  0  0  0  0
    7.2422    1.2568    0.0000 H   0  0  0  0  0  0  0  0  0  0  0  0
    7.0198    2.3034    0.0000 H   0  0  0  0  0  0  0  0  0  0  0  0
    7.6769    2.1384    0.0000 H   0  0  0  0  0  0  0  0  0  0  0  0
    5.8199    2.1384    0.0000 H   0  0  0  0  0  0  0  0  0  0  0  0
   11.0149    2.7307    0.0000 H   0  0  0  0  0  0  0  0  0  0  0  0
   11.2373    1.6841    0.0000 H   0  0  0  0  0  0  0  0  0  0  0  0
    9.2126    3.3164    0.0000 H   0  0  0  0  0  0  0  0  0  0  0  0
    8.4175    2.6004    0.0000 H   0  0  0  0  0  0  0  0  0  0  0  0
   11.9427    1.6434    0.0000 H   0  0  0  0  0  0  0  0  0  0  0  0
    9.1828   -0.8417    0.0000 H   0  0  0  0  0  0  0  0  0  0  0  0
   12.6063   -1.8686    0.0000 H   0  0  0  0  0  0  0  0  0  0  0  0
   11.5069   -2.0725    0.0000 H   0  0  0  0  0  0  0  0  0  0  0  0
    4.1035   -0.9966    0.0000 H   0  0  0  0  0  0  0  0  0  0  0  0
    5.0861   -1.5302    0.0000 H   0  0  0  0  0  0  0  0  0  0  0  0
  1 30  1  0  0  0  0
  1 31  1  0  0  0  0
  1 32  1  0  0  0  0
  2 33  1  0  0  0  0
  3  2  2  0  0  0  0
  3 34  1  0  0  0  0
  4 35  1  0  0  0  0
  4 36  1  0  0  0  0
  5  4  1  0  0  0  0
  5 37  1  0  0  0  0
  5 38  1  0  0  0  0
  6 39  1  0  0  0  0
  7 40  1  0  0  0  0
  8 41  1  0  0  0  0
  8 42  1  0  0  0  0
  9 43  1  0  0  0  0
  9 44  1  0  0  0  0
 10  4  1  0  0  0  0
 10  6  2  0  0  0  0
 11  2  1  0  0  0  0
 12  7  2  0  0  0  0
 12 10  1  0  0  0  0
 13  3  1  0  0  0  0
 14  6  1  0  0  0  0
 15  7  1  0  0  0  0
 15 14  2  0  0  0  0
 16 11  2  0  0  0  0
 17 12  1  0  0  0  0
 17 18  1  0  0  0  0
 17 28  1  6  0  0  0
 18 11  1  0  0  0  0
 18 29  1  1  0  0  0
 19 13  2  0  0  0  0
 19 16  1  0  0  0  0
 20 16  1  0  0  0  0
 21  1  1  0  0  0  0
 21  5  1  0  0  0  0
 21 17  1  0  0  0  0
 22 20  2  0  0  0  0
 23  9  1  0  0  0  0
 23 13  1  0  0  0  0
 24  8  1  0  0  0  0
 24 14  1  0  0  0  0
 25  8  1  0  0  0  0
 25 15  1  0  0  0  0
 26  9  1  0  0  0  0
 26 19  1  0  0  0  0
 27 18  1  0  0  0  0
 27 20  1  0  0  0  0
M  END
>  <DRUGBANK_ID>
DB11562

>  <COMMON_NAME>
Bicuculline

>  <CAS_NUMBER>
485-49-4

>  <UNII>
Y37615DVKC

>  <SYNONYMS>
Bicculine; Bicucullin; d-Bicuculline

$$$$
