
 OpenBabel10282417072D

 57 61  0  0  1  0  0  0  0  0999 V2000
    0.7477   -5.5585    0.0000 C   0  0  0  0  0  0  0  0  0  0  0  0
    0.1957   -4.9454    0.0000 C   0  0  0  0  0  0  0  0  0  0  0  0
    0.4506   -4.1608    0.0000 C   0  0  0  0  0  0  0  0  0  0  0  0
    1.2576   -3.9892    0.0000 O   0  0  0  0  0  0  0  0  0  0  0  0
   -0.1013   -3.5477    0.0000 N   0  0  0  0  0  0  0  0  0  0  0  0
   -0.9083   -3.7192    0.0000 C   0  0  0  0  0  0  0  0  0  0  0  0
   -1.4603   -3.1061    0.0000 C   0  0  0  0  0  0  0  0  0  0  0  0
   -1.2054   -2.3215    0.0000 C   0  0  0  0  0  0  0  0  0  0  0  0
   -0.3984   -2.1500    0.0000 C   0  0  2  0  0  0  0  0  0  0  0  0
    0.1535   -2.7630    0.0000 C   0  0  0  0  0  0  0  0  0  0  0  0
   -0.1435   -1.3653    0.0000 N   0  0  0  0  0  0  0  0  0  0  0  0
    0.6411   -1.1104    0.0000 C   0  0  0  0  0  0  0  0  0  0  0  0
    0.6411   -0.2854    0.0000 C   0  0  0  0  0  0  0  0  0  0  0  0
   -0.1435   -0.0305    0.0000 C   0  0  0  0  0  0  0  0  0  0  0  0
   -0.6284   -0.6979    0.0000 N   0  0  0  0  0  0  0  0  0  0  0  0
   -0.3984    0.7541    0.0000 C   0  0  0  0  0  0  0  0  0  0  0  0
   -1.2054    0.9256    0.0000 C   0  0  0  0  0  0  0  0  0  0  0  0
   -1.4603    1.7102    0.0000 C   0  0  0  0  0  0  0  0  0  0  0  0
   -0.9083    2.3233    0.0000 C   0  0  0  0  0  0  0  0  0  0  0  0
   -0.1013    2.1518    0.0000 C   0  0  0  0  0  0  0  0  0  0  0  0
    0.1535    1.3672    0.0000 C   0  0  0  0  0  0  0  0  0  0  0  0
   -1.1632    3.1079    0.0000 O   0  0  0  0  0  0  0  0  0  0  0  0
   -0.6112    3.7210    0.0000 C   0  0  0  0  0  0  0  0  0  0  0  0
   -0.8661    4.5056    0.0000 C   0  0  0  0  0  0  0  0  0  0  0  0
   -0.3141    5.1187    0.0000 C   0  0  0  0  0  0  0  0  0  0  0  0
    0.4928    4.9472    0.0000 C   0  0  0  0  0  0  0  0  0  0  0  0
    0.7477    4.1626    0.0000 C   0  0  0  0  0  0  0  0  0  0  0  0
    0.1957    3.5495    0.0000 C   0  0  0  0  0  0  0  0  0  0  0  0
    1.3555    0.1270    0.0000 C   0  0  0  0  0  0  0  0  0  0  0  0
    2.0700   -0.2854    0.0000 N   0  0  0  0  0  0  0  0  0  0  0  0
    2.0700   -1.1104    0.0000 C   0  0  0  0  0  0  0  0  0  0  0  0
    1.3555   -1.5229    0.0000 N   0  0  0  0  0  0  0  0  0  0  0  0
    1.3555    0.9520    0.0000 N   0  0  0  0  0  0  0  0  0  0  0  0
    0.4288   -6.5400    0.0000 H   0  0  0  0  0  0  0  0  0  0  0  0
    1.7572   -5.3440    0.0000 H   0  0  0  0  0  0  0  0  0  0  0  0
   -0.8137   -5.1600    0.0000 H   0  0  0  0  0  0  0  0  0  0  0  0
   -1.2390   -4.7368    0.0000 H   0  0  0  0  0  0  0  0  0  0  0  0
   -1.9549   -3.9416    0.0000 H   0  0  0  0  0  0  0  0  0  0  0  0
   -2.5069   -3.3286    0.0000 H   0  0  0  0  0  0  0  0  0  0  0  0
   -2.1763   -2.3109    0.0000 H   0  0  0  0  0  0  0  0  0  0  0  0
   -1.9214   -1.5263    0.0000 H   0  0  0  0  0  0  0  0  0  0  0  0
   -0.8747   -1.3039    0.0000 H   0  0  0  0  0  0  0  0  0  0  0  0
   -1.1144   -1.3548    0.0000 H   0  0  0  0  0  0  0  0  0  0  0  0
    1.2001   -2.5405    0.0000 H   0  0  0  0  0  0  0  0  0  0  0  0
    0.8696   -3.5581    0.0000 H   0  0  0  0  0  0  0  0  0  0  0  0
   -1.8959    0.1587    0.0000 H   0  0  0  0  0  0  0  0  0  0  0  0
   -2.4697    1.9248    0.0000 H   0  0  0  0  0  0  0  0  0  0  0  0
    0.5893    2.9187    0.0000 H   0  0  0  0  0  0  0  0  0  0  0  0
    1.1629    1.1526    0.0000 H   0  0  0  0  0  0  0  0  0  0  0  0
   -1.8755    4.7202    0.0000 H   0  0  0  0  0  0  0  0  0  0  0  0
   -0.6330    6.1002    0.0000 H   0  0  0  0  0  0  0  0  0  0  0  0
    1.1834    5.7141    0.0000 H   0  0  0  0  0  0  0  0  0  0  0  0
    1.7571    3.9480    0.0000 H   0  0  0  0  0  0  0  0  0  0  0  0
    0.5146    2.5680    0.0000 H   0  0  0  0  0  0  0  0  0  0  0  0
    2.9637   -1.6264    0.0000 H   0  0  0  0  0  0  0  0  0  0  0  0
    2.2081    1.4443    0.0000 H   0  0  0  0  0  0  0  0  0  0  0  0
    0.5029    1.4442    0.0000 H   0  0  0  0  0  0  0  0  0  0  0  0
  1  2  2  0  0  0  0
  1 34  1  0  0  0  0
  1 35  1  0  0  0  0
  2  3  1  0  0  0  0
  2 36  1  0  0  0  0
  3  4  2  0  0  0  0
  3  5  1  0  0  0  0
  5  6  1  0  0  0  0
  5 10  1  0  0  0  0
  6  7  1  0  0  0  0
  6 37  1  0  0  0  0
  6 38  1  0  0  0  0
  7  8  1  0  0  0  0
  7 39  1  0  0  0  0
  7 40  1  0  0  0  0
  8  9  1  0  0  0  0
  8 41  1  0  0  0  0
  8 42  1  0  0  0  0
  9 10  1  0  0  0  0
  9 11  1  0  0  0  0
  9 43  1  6  0  0  0
 10 44  1  0  0  0  0
 10 45  1  0  0  0  0
 11 12  1  0  0  0  0
 11 15  1  0  0  0  0
 12 13  2  0  0  0  0
 12 32  1  0  0  0  0
 13 14  1  0  0  0  0
 13 29  1  0  0  0  0
 14 15  2  0  0  0  0
 14 16  1  0  0  0  0
 16 17  2  0  0  0  0
 16 21  1  0  0  0  0
 17 18  1  0  0  0  0
 17 46  1  0  0  0  0
 18 19  2  0  0  0  0
 18 47  1  0  0  0  0
 19 20  1  0  0  0  0
 19 22  1  0  0  0  0
 20 21  2  0  0  0  0
 20 48  1  0  0  0  0
 21 49  1  0  0  0  0
 22 23  1  0  0  0  0
 23 24  2  0  0  0  0
 23 28  1  0  0  0  0
 24 25  1  0  0  0  0
 24 50  1  0  0  0  0
 25 26  2  0  0  0  0
 25 51  1  0  0  0  0
 26 27  1  0  0  0  0
 26 52  1  0  0  0  0
 27 28  2  0  0  0  0
 27 53  1  0  0  0  0
 28 54  1  0  0  0  0
 29 30  2  0  0  0  0
 29 33  1  0  0  0  0
 30 31  1  0  0  0  0
 31 32  2  0  0  0  0
 31 55  1  0  0  0  0
 33 56  1  0  0  0  0
 33 57  1  0  0  0  0
M  END
>  <DRUGBANK_ID>
DB09053

>  <COMMON_NAME>
Ibrutinib

>  <CAS_NUMBER>
936563-96-1

>  <UNII>
1X70OSD4VX

>  <SYNONYMS>
1-[(3R)-3-[4-Amino-3-(4-phenoxyphenyl)-1H-pyrazolo[3,4-d]pyrimidin-1-yl]piperidin-1-yl]prop-2-en-1-one; Ibrutinib

$$$$
