
 OpenBabel10282417072D

 36 38  0  0  0  0  0  0  0  0999 V2000
   -1.0266   -1.3885    0.0000 S   0  0  0  0  0  0  0  0  0  0  0  0
   -0.3088   -0.9817    0.0000 N   0  0  0  0  0  0  0  0  0  0  0  0
   -0.3088   -0.1683    0.0000 C   0  0  0  0  0  0  0  0  0  0  0  0
   -1.0266    0.2384    0.0000 C   0  0  0  0  0  0  0  0  0  0  0  0
    0.4328    0.2623    0.0000 C   0  0  0  0  0  0  0  0  0  0  0  0
   -1.7204   -0.9817    0.0000 C   0  0  0  0  0  0  0  0  0  0  0  0
   -1.7204   -0.1683    0.0000 C   0  0  0  0  0  0  0  0  0  0  0  0
    1.8772    0.2351    0.0000 C   0  0  0  0  0  0  0  0  0  0  0  0
    1.1506   -0.1683    0.0000 N   0  0  0  0  0  0  0  0  0  0  0  0
    2.6668   -0.0225    0.0000 N   0  0  0  0  0  0  0  0  0  0  0  0
    1.8783    1.0656    0.0000 C   0  0  0  0  0  0  0  0  0  0  0  0
    3.1559    0.6487    0.0000 O   0  0  0  0  0  0  0  0  0  0  0  0
    2.6685    1.3213    0.0000 C   0  0  0  0  0  0  0  0  0  0  0  0
    0.4328    1.0758    0.0000 O   0  0  0  0  0  0  0  0  0  0  0  0
   -1.0266    1.0758    0.0000 O   0  0  0  0  0  0  0  0  0  0  0  0
    0.4328   -1.4124    0.0000 C   0  0  0  0  0  0  0  0  0  0  0  0
   -2.4382    0.2384    0.0000 C   0  0  0  0  0  0  0  0  0  0  0  0
   -2.4382   -1.3885    0.0000 C   0  0  0  0  0  0  0  0  0  0  0  0
    2.9262    2.1108    0.0000 C   0  0  0  0  0  0  0  0  0  0  0  0
   -3.1559   -0.1683    0.0000 C   0  0  0  0  0  0  0  0  0  0  0  0
   -3.1559   -0.9817    0.0000 C   0  0  0  0  0  0  0  0  0  0  0  0
   -0.6166   -2.1108    0.0000 O   0  0  0  0  0  0  0  0  0  0  0  0
   -1.4471   -2.1108    0.0000 O   0  0  0  0  0  0  0  0  0  0  0  0
    1.1341   -1.1527    0.0000 H   0  0  0  0  0  0  0  0  0  0  0  0
    1.0442    1.6732    0.0000 H   0  0  0  0  0  0  0  0  0  0  0  0
   -0.2151    1.5443    0.0000 H   0  0  0  0  0  0  0  0  0  0  0  0
    0.4301   -2.4824    0.0000 H   0  0  0  0  0  0  0  0  0  0  0  0
    1.3608   -0.8798    0.0000 H   0  0  0  0  0  0  0  0  0  0  0  0
    1.3581   -1.9498    0.0000 H   0  0  0  0  0  0  0  0  0  0  0  0
   -2.4382    1.2704    0.0000 H   0  0  0  0  0  0  0  0  0  0  0  0
   -2.4382   -2.4205    0.0000 H   0  0  0  0  0  0  0  0  0  0  0  0
    3.9731    2.3319    0.0000 H   0  0  0  0  0  0  0  0  0  0  0  0
    2.2113    2.9069    0.0000 H   0  0  0  0  0  0  0  0  0  0  0  0
    3.2582    3.1280    0.0000 H   0  0  0  0  0  0  0  0  0  0  0  0
   -4.0476    0.3513    0.0000 H   0  0  0  0  0  0  0  0  0  0  0  0
   -4.0476   -1.5012    0.0000 H   0  0  0  0  0  0  0  0  0  0  0  0
  2  1  1  0  0  0  0
  3  2  1  0  0  0  0
  4  3  2  0  0  0  0
  5  3  1  0  0  0  0
  6  1  1  0  0  0  0
  7  4  1  0  0  0  0
  7  6  2  0  0  0  0
  9  5  1  0  0  0  0
  9  8  1  0  0  0  0
  9 24  1  0  0  0  0
 10  8  2  0  0  0  0
 11  8  1  0  0  0  0
 11 25  1  0  0  0  0
 12 10  1  0  0  0  0
 13 11  2  0  0  0  0
 13 12  1  0  0  0  0
 14  5  2  0  0  0  0
 15  4  1  0  0  0  0
 15 26  1  0  0  0  0
 16  2  1  0  0  0  0
 16 27  1  0  0  0  0
 16 28  1  0  0  0  0
 16 29  1  0  0  0  0
 17  7  1  0  0  0  0
 17 30  1  0  0  0  0
 18  6  1  0  0  0  0
 18 31  1  0  0  0  0
 19 13  1  0  0  0  0
 19 32  1  0  0  0  0
 19 33  1  0  0  0  0
 19 34  1  0  0  0  0
 20 17  2  0  0  0  0
 20 35  1  0  0  0  0
 21 18  2  0  0  0  0
 21 20  1  0  0  0  0
 21 36  1  0  0  0  0
 22  1  2  0  0  0  0
 23  1  2  0  0  0  0
M  END
>  <DRUGBANK_ID>
DB08942

>  <COMMON_NAME>
Isoxicam

>  <CAS_NUMBER>
34552-84-6

>  <UNII>
8XU734C4NG

>  <SYNONYMS>
Isoxicam; Isoxicamo; Isoxicamum

$$$$
