BIR
 OpenBabel10282417072D

 56 57  0  0  0  0  0  0  0  0999 V2000
   -2.0418   -2.1869    0.0000 C   0  0  0  0  0  0  0  0  0  0  0  0
   -2.5819   -1.5632    0.0000 C   0  0  2  0  0  0  0  0  0  0  0  0
   -3.3921   -1.7192    0.0000 N   0  0  0  0  0  0  0  0  0  0  0  0
   -2.3119   -0.7837    0.0000 P   0  0  1  0  0  0  0  0  0  0  0  0
   -1.5323   -1.0537    0.0000 O   0  0  0  0  0  0  0  0  0  0  0  0
   -3.0914   -0.5136    0.0000 O   0  0  0  0  0  0  0  0  0  0  0  0
   -2.0418   -0.0041    0.0000 C   0  0  0  0  0  0  0  0  0  0  0  0
   -1.2317    0.1518    0.0000 C   0  0  2  0  0  0  0  0  0  0  0  0
   -0.6916   -0.4719    0.0000 C   0  0  0  0  0  0  0  0  0  0  0  0
   -0.9617   -1.2514    0.0000 O   0  0  0  0  0  0  0  0  0  0  0  0
    0.1185   -0.3160    0.0000 N   0  0  0  0  0  0  0  0  0  0  0  0
    0.6586   -0.9396    0.0000 C   0  0  1  0  0  0  0  0  0  0  0  0
    0.3886   -1.7192    0.0000 C   0  0  0  0  0  0  0  0  0  0  0  0
    1.4687   -0.7837    0.0000 C   0  0  0  0  0  0  0  0  0  0  0  0
    1.7388   -0.0041    0.0000 O   0  0  0  0  0  0  0  0  0  0  0  0
    2.0088   -1.4073    0.0000 O   0  0  0  0  0  0  0  0  0  0  0  0
   -0.9617    0.9313    0.0000 C   0  0  0  0  0  0  0  0  0  0  0  0
   -0.1515    1.0872    0.0000 C   0  0  0  0  0  0  0  0  0  0  0  0
    0.1185    1.8668    0.0000 C   0  0  0  0  0  0  0  0  0  0  0  0
    0.9287    2.0227    0.0000 C   0  0  0  0  0  0  0  0  0  0  0  0
    1.4687    1.3991    0.0000 C   0  0  0  0  0  0  0  0  0  0  0  0
    1.1987    0.6195    0.0000 C   0  0  0  0  0  0  0  0  0  0  0  0
    0.3886    0.4636    0.0000 C   0  0  0  0  0  0  0  0  0  0  0  0
    2.2789    1.5550    0.0000 C   0  0  0  0  0  0  0  0  0  0  0  0
    2.5489    2.3345    0.0000 C   0  0  0  0  0  0  0  0  0  0  0  0
    3.3591    2.4904    0.0000 C   0  0  0  0  0  0  0  0  0  0  0  0
    3.8991    1.8668    0.0000 C   0  0  0  0  0  0  0  0  0  0  0  0
    3.6291    1.0872    0.0000 C   0  0  0  0  0  0  0  0  0  0  0  0
    2.8190    0.9313    0.0000 C   0  0  0  0  0  0  0  0  0  0  0  0
   -2.7731   -2.1150    0.0000 H   0  0  0  0  0  0  0  0  0  0  0  0
   -1.4228   -0.4000    0.0000 H   0  0  0  0  0  0  0  0  0  0  0  0
    0.0852   -1.0500    0.0000 H   0  0  0  0  0  0  0  0  0  0  0  0
   -2.3921   -3.1979    0.0000 H   0  0  0  0  0  0  0  0  0  0  0  0
   -0.9911   -1.9847    0.0000 H   0  0  0  0  0  0  0  0  0  0  0  0
   -1.3414   -2.9958    0.0000 H   0  0  0  0  0  0  0  0  0  0  0  0
   -4.0599   -0.9482    0.0000 H   0  0  0  0  0  0  0  0  0  0  0  0
   -3.7259   -2.6830    0.0000 H   0  0  0  0  0  0  0  0  0  0  0  0
   -3.2746    0.4389    0.0000 H   0  0  0  0  0  0  0  0  0  0  0  0
   -2.7423    0.8048    0.0000 H   0  0  0  0  0  0  0  0  0  0  0  0
   -1.6915    1.0069    0.0000 H   0  0  0  0  0  0  0  0  0  0  0  0
    0.4407    0.6143    0.0000 H   0  0  0  0  0  0  0  0  0  0  0  0
   -0.6621   -1.9215    0.0000 H   0  0  0  0  0  0  0  0  0  0  0  0
    1.0891   -2.5280    0.0000 H   0  0  0  0  0  0  0  0  0  0  0  0
    0.0384   -2.7303    0.0000 H   0  0  0  0  0  0  0  0  0  0  0  0
    2.6589    0.1729    0.0000 H   0  0  0  0  0  0  0  0  0  0  0  0
   -1.6622    1.7401    0.0000 H   0  0  0  0  0  0  0  0  0  0  0  0
   -0.6114    1.9424    0.0000 H   0  0  0  0  0  0  0  0  0  0  0  0
   -0.5571    2.6469    0.0000 H   0  0  0  0  0  0  0  0  0  0  0  0
    1.2665    2.9978    0.0000 H   0  0  0  0  0  0  0  0  0  0  0  0
    1.8743   -0.1606    0.0000 H   0  0  0  0  0  0  0  0  0  0  0  0
    0.0508   -0.5116    0.0000 H   0  0  0  0  0  0  0  0  0  0  0  0
    1.8733    3.1146    0.0000 H   0  0  0  0  0  0  0  0  0  0  0  0
    3.6969    3.4655    0.0000 H   0  0  0  0  0  0  0  0  0  0  0  0
    4.9125    2.0618    0.0000 H   0  0  0  0  0  0  0  0  0  0  0  0
    4.3047    0.3071    0.0000 H   0  0  0  0  0  0  0  0  0  0  0  0
    2.4812   -0.0438    0.0000 H   0  0  0  0  0  0  0  0  0  0  0  0
  1  2  1  0  0  0  0
  1 33  1  0  0  0  0
  1 34  1  0  0  0  0
  1 35  1  0  0  0  0
  2  3  1  0  0  0  0
  2  4  1  0  0  0  0
  2 30  1  1  0  0  0
  3 36  1  0  0  0  0
  3 37  1  0  0  0  0
  4  5  2  6  0  0  0
  4  6  1  0  0  0  0
  4  7  1  0  0  0  0
  6 38  1  0  0  0  0
  7  8  1  0  0  0  0
  7 39  1  0  0  0  0
  7 40  1  0  0  0  0
  8  9  1  0  0  0  0
  8 17  1  0  0  0  0
  8 31  1  6  0  0  0
  9 10  2  0  0  0  0
  9 11  1  0  0  0  0
 11 12  1  0  0  0  0
 11 41  1  0  0  0  0
 12 13  1  0  0  0  0
 12 14  1  0  0  0  0
 12 32  1  1  0  0  0
 13 42  1  0  0  0  0
 13 43  1  0  0  0  0
 13 44  1  0  0  0  0
 14 15  1  0  0  0  0
 14 16  2  0  0  0  0
 15 45  1  0  0  0  0
 17 18  1  0  0  0  0
 17 46  1  0  0  0  0
 17 47  1  0  0  0  0
 18 19  2  0  0  0  0
 18 23  1  0  0  0  0
 19 20  1  0  0  0  0
 19 48  1  0  0  0  0
 20 21  2  0  0  0  0
 20 49  1  0  0  0  0
 21 22  1  0  0  0  0
 21 24  1  0  0  0  0
 22 23  2  0  0  0  0
 22 50  1  0  0  0  0
 23 51  1  0  0  0  0
 24 25  2  0  0  0  0
 24 29  1  0  0  0  0
 25 26  1  0  0  0  0
 25 52  1  0  0  0  0
 26 27  2  0  0  0  0
 26 53  1  0  0  0  0
 27 28  1  0  0  0  0
 27 54  1  0  0  0  0
 28 29  2  0  0  0  0
 28 55  1  0  0  0  0
 29 56  1  0  0  0  0
M  END
>  <DRUGBANK_ID>
DB02062

>  <SECONDARY_ACCESSION_NUMBERS>
EXPT00710

>  <COMMON_NAME>
N-[3-[(1-Aminoethyl)(Hydroxy)Phosphoryl]-2-(1,1'-Biphenyl-4-Ylmethyl)Propanoyl]Alanine

$$$$
