
 OpenBabel10282417072D

 65 68  0  0  0  0  0  0  0  0999 V2000
    0.8694    1.4107    0.0000 O   0  0  0  0  0  0  0  0  0  0  0  0
   -3.3957    1.4107    0.0000 O   0  0  0  0  0  0  0  0  0  0  0  0
    0.1640    0.1640    0.0000 O   0  0  0  0  0  0  0  0  0  0  0  0
   -2.6902    0.1640    0.0000 O   0  0  0  0  0  0  0  0  0  0  0  0
    0.1640   -2.2802    0.0000 O   0  5  0  0  0  0  0  0  0  0  0  0
    1.0744   -0.8284    0.0000 O   0  0  0  0  0  0  0  0  0  0  0  0
   -1.2467    2.6493    0.0000 N   0  0  0  0  0  0  0  0  0  0  0  0
    0.1640   -1.4518    0.0000 N   0  3  0  0  0  0  0  0  0  0  0  0
    2.6492    0.2050    0.0000 N   0  0  0  0  0  0  0  0  0  0  0  0
   -1.2467    0.9924    0.0000 C   0  0  2  0  0  0  0  0  0  0  0  0
   -0.5412    1.4107    0.0000 C   0  0  0  0  0  0  0  0  0  0  0  0
   -1.9849    1.4107    0.0000 C   0  0  0  0  0  0  0  0  0  0  0  0
   -1.2467    0.1640    0.0000 C   0  0  0  0  0  0  0  0  0  0  0  0
   -0.5412    2.2391    0.0000 C   0  0  0  0  0  0  0  0  0  0  0  0
   -1.9849    2.2391    0.0000 C   0  0  0  0  0  0  0  0  0  0  0  0
    0.1640    0.9924    0.0000 C   0  0  0  0  0  0  0  0  0  0  0  0
   -2.6902    0.9924    0.0000 C   0  0  0  0  0  0  0  0  0  0  0  0
   -0.5412   -0.2051    0.0000 C   0  0  0  0  0  0  0  0  0  0  0  0
   -1.9438   -0.2460    0.0000 C   0  0  0  0  0  0  0  0  0  0  0  0
   -0.5412   -1.0335    0.0000 C   0  0  0  0  0  0  0  0  0  0  0  0
    1.5747    0.9924    0.0000 C   0  0  2  0  0  0  0  0  0  0  0  0
    0.1640    2.6493    0.0000 C   0  0  0  0  0  0  0  0  0  0  0  0
   -2.6902    2.6493    0.0000 C   0  0  0  0  0  0  0  0  0  0  0  0
   -1.9438   -1.0335    0.0000 C   0  0  0  0  0  0  0  0  0  0  0  0
   -1.2467   -1.4518    0.0000 C   0  0  0  0  0  0  0  0  0  0  0  0
    1.8207    0.2050    0.0000 C   0  0  0  0  0  0  0  0  0  0  0  0
    2.2391    1.4927    0.0000 C   0  0  0  0  0  0  0  0  0  0  0  0
    2.9034    0.9924    0.0000 C   0  0  0  0  0  0  0  0  0  0  0  0
    3.3546   -0.1640    0.0000 C   0  0  0  0  0  0  0  0  0  0  0  0
   -4.1010    0.9924    0.0000 C   0  0  0  0  0  0  0  0  0  0  0  0
    3.3546   -0.9924    0.0000 C   0  0  0  0  0  0  0  0  0  0  0  0
    2.6492   -1.4026    0.0000 C   0  0  0  0  0  0  0  0  0  0  0  0
    4.1010   -1.4026    0.0000 C   0  0  0  0  0  0  0  0  0  0  0  0
    2.6492   -2.2310    0.0000 C   0  0  0  0  0  0  0  0  0  0  0  0
    4.1010   -2.2310    0.0000 C   0  0  0  0  0  0  0  0  0  0  0  0
    3.3546   -2.6493    0.0000 C   0  0  0  0  0  0  0  0  0  0  0  0
   -1.2371    3.6338    0.0000 H   0  0  0  0  0  0  0  0  0  0  0  0
   -0.3170    0.4628    0.0000 H   0  0  0  0  0  0  0  0  0  0  0  0
    0.3416    0.3294    0.0000 H   0  0  0  0  0  0  0  0  0  0  0  0
   -2.8396    0.2664    0.0000 H   0  0  0  0  0  0  0  0  0  0  0  0
    0.7354    0.3287    0.0000 H   0  0  0  0  0  0  0  0  0  0  0  0
    1.0924    2.1173    0.0000 H   0  0  0  0  0  0  0  0  0  0  0  0
    0.1605    3.7193    0.0000 H   0  0  0  0  0  0  0  0  0  0  0  0
    1.0889    3.1873    0.0000 H   0  0  0  0  0  0  0  0  0  0  0  0
   -2.6868    3.7193    0.0000 H   0  0  0  0  0  0  0  0  0  0  0  0
   -3.6185    2.1172    0.0000 H   0  0  0  0  0  0  0  0  0  0  0  0
   -3.6151    3.1872    0.0000 H   0  0  0  0  0  0  0  0  0  0  0  0
   -2.8419   -1.5419    0.0000 H   0  0  0  0  0  0  0  0  0  0  0  0
   -1.2494   -2.4838    0.0000 H   0  0  0  0  0  0  0  0  0  0  0  0
    1.1869   -0.6571    0.0000 H   0  0  0  0  0  0  0  0  0  0  0  0
    0.7653    0.3814    0.0000 H   0  0  0  0  0  0  0  0  0  0  0  0
    2.2391    2.5627    0.0000 H   0  0  0  0  0  0  0  0  0  0  0  0
    3.1966    1.9702    0.0000 H   0  0  0  0  0  0  0  0  0  0  0  0
    3.9235    1.3153    0.0000 H   0  0  0  0  0  0  0  0  0  0  0  0
    3.0839    2.0471    0.0000 H   0  0  0  0  0  0  0  0  0  0  0  0
    4.2699    0.3902    0.0000 H   0  0  0  0  0  0  0  0  0  0  0  0
    4.2868   -0.6893    0.0000 H   0  0  0  0  0  0  0  0  0  0  0  0
   -5.0339    1.5165    0.0000 H   0  0  0  0  0  0  0  0  0  0  0  0
   -4.0885   -0.0775    0.0000 H   0  0  0  0  0  0  0  0  0  0  0  0
   -5.0213    0.4466    0.0000 H   0  0  0  0  0  0  0  0  0  0  0  0
    1.7547   -0.8880    0.0000 H   0  0  0  0  0  0  0  0  0  0  0  0
    4.9892   -0.8772    0.0000 H   0  0  0  0  0  0  0  0  0  0  0  0
    1.7525   -2.7418    0.0000 H   0  0  0  0  0  0  0  0  0  0  0  0
    4.9914   -2.7527    0.0000 H   0  0  0  0  0  0  0  0  0  0  0  0
    3.3420   -3.6812    0.0000 H   0  0  0  0  0  0  0  0  0  0  0  0
  1 16  1  0  0  0  0
  2 17  1  0  0  0  0
  2 30  1  0  0  0  0
  3 16  2  0  0  0  0
  4 17  2  0  0  0  0
  5  8  1  0  0  0  0
  6  8  2  0  0  0  0
  7 14  1  0  0  0  0
  7 15  1  0  0  0  0
  7 37  1  0  0  0  0
  8 20  1  0  0  0  0
  9 26  1  0  0  0  0
  9 28  1  0  0  0  0
  9 29  1  0  0  0  0
 10 11  1  0  0  0  0
 10 12  1  0  0  0  0
 10 13  1  0  0  0  0
 10 38  1  6  0  0  0
 11 14  2  0  0  0  0
 11 16  1  0  0  0  0
 12 15  2  0  0  0  0
 12 17  1  0  0  0  0
 13 18  2  0  0  0  0
 13 19  1  0  0  0  0
 14 22  1  0  0  0  0
 15 23  1  0  0  0  0
 18 20  1  0  0  0  0
 18 39  1  0  0  0  0
 19 24  2  0  0  0  0
 19 40  1  0  0  0  0
 20 25  2  0  0  0  0
 21  1  1  0  0  0  0
 21 26  1  0  0  0  0
 21 27  1  0  0  0  0
 21 41  1  6  0  0  0
 22 42  1  0  0  0  0
 22 43  1  0  0  0  0
 22 44  1  0  0  0  0
 23 45  1  0  0  0  0
 23 46  1  0  0  0  0
 23 47  1  0  0  0  0
 24 25  1  0  0  0  0
 24 48  1  0  0  0  0
 25 49  1  0  0  0  0
 26 50  1  0  0  0  0
 26 51  1  0  0  0  0
 27 28  1  0  0  0  0
 27 52  1  0  0  0  0
 27 53  1  0  0  0  0
 28 54  1  0  0  0  0
 28 55  1  0  0  0  0
 29 31  1  0  0  0  0
 29 56  1  0  0  0  0
 29 57  1  0  0  0  0
 30 58  1  0  0  0  0
 30 59  1  0  0  0  0
 30 60  1  0  0  0  0
 31 32  2  0  0  0  0
 31 33  1  0  0  0  0
 32 34  1  0  0  0  0
 32 61  1  0  0  0  0
 33 35  2  0  0  0  0
 33 62  1  0  0  0  0
 34 36  2  0  0  0  0
 34 63  1  0  0  0  0
 35 36  1  0  0  0  0
 35 64  1  0  0  0  0
 36 65  1  0  0  0  0
M  CHG  2   5  -1   8   1
M  END
>  <DRUGBANK_ID>
DB09227

>  <COMMON_NAME>
Barnidipine

>  <CAS_NUMBER>
104713-75-9

>  <UNII>
2VBY96ASWJ

>  <SYNONYMS>
Barnidipine; Barnidipino; Mepirodipine

$$$$
