
 OpenBabel10282417072D

 27 29  0  0  0  0  0  0  0  0999 V2000
   -1.3492    0.3019    0.0000 C   0  0  0  0  0  0  0  0  0  0  0  0
   -1.3492   -1.1269    0.0000 C   0  0  0  0  0  0  0  0  0  0  0  0
    1.8722   -1.2375    0.0000 C   0  0  0  0  0  0  0  0  0  0  0  0
   -2.1742    0.3019    0.0000 C   0  0  0  0  0  0  0  0  0  0  0  0
   -2.1742   -1.1269    0.0000 C   0  0  0  0  0  0  0  0  0  0  0  0
    2.5867   -0.8250    0.0000 C   0  0  0  0  0  0  0  0  0  0  0  0
    0.3731    0.2549    0.0000 C   0  0  0  0  0  0  0  0  0  0  0  0
   -0.9367   -0.4125    0.0000 C   0  0  0  0  0  0  0  0  0  0  0  0
    1.1578    0.0000    0.0000 C   0  0  0  0  0  0  0  0  0  0  0  0
    1.1578   -0.8250    0.0000 C   0  0  0  0  0  0  0  0  0  0  0  0
   -0.1117   -0.4125    0.0000 C   0  0  0  0  0  0  0  0  0  0  0  0
    1.8722    0.4125    0.0000 C   0  0  0  0  0  0  0  0  0  0  0  0
   -2.5867   -0.4125    0.0000 N   0  0  0  0  0  0  0  0  0  0  0  0
    2.5867    0.0000    0.0000 N   0  0  0  0  0  0  0  0  0  0  0  0
    0.3731   -1.0799    0.0000 N   0  0  0  0  0  0  0  0  0  0  0  0
    1.8722    1.2375    0.0000 O   0  0  0  0  0  0  0  0  0  0  0  0
   -0.8332    1.1956    0.0000 H   0  0  0  0  0  0  0  0  0  0  0  0
   -0.8332   -2.0206    0.0000 H   0  0  0  0  0  0  0  0  0  0  0  0
    1.8722   -2.3075    0.0000 H   0  0  0  0  0  0  0  0  0  0  0  0
    0.9455   -1.7725    0.0000 H   0  0  0  0  0  0  0  0  0  0  0  0
   -2.6902    1.1956    0.0000 H   0  0  0  0  0  0  0  0  0  0  0  0
   -2.6902   -2.0206    0.0000 H   0  0  0  0  0  0  0  0  0  0  0  0
    3.5133   -1.3600    0.0000 H   0  0  0  0  0  0  0  0  0  0  0  0
    3.5133   -0.2900    0.0000 H   0  0  0  0  0  0  0  0  0  0  0  0
    0.0541    1.2364    0.0000 H   0  0  0  0  0  0  0  0  0  0  0  0
    0.0688   -2.0162    0.0000 H   0  0  0  0  0  0  0  0  0  0  0  0
    2.6837    1.7060    0.0000 H   0  0  0  0  0  0  0  0  0  0  0  0
  1 17  1  0  0  0  0
  2 18  1  0  0  0  0
  3 19  1  0  0  0  0
  3 20  1  0  0  0  0
  4  1  1  0  0  0  0
  4 21  1  0  0  0  0
  5  2  2  0  0  0  0
  5 22  1  0  0  0  0
  6  3  1  0  0  0  0
  6 23  1  0  0  0  0
  6 24  1  0  0  0  0
  7 25  1  0  0  0  0
  8  1  2  0  0  0  0
  8  2  1  0  0  0  0
  9  7  1  0  0  0  0
 10  3  1  0  0  0  0
 10  9  2  0  0  0  0
 11  7  2  0  0  0  0
 11  8  1  0  0  0  0
 12  9  1  0  0  0  0
 13  4  2  0  0  0  0
 13  5  1  0  0  0  0
 14  6  1  0  0  0  0
 14 12  2  0  0  0  0
 15 10  1  0  0  0  0
 15 11  1  0  0  0  0
 15 26  1  0  0  0  0
 16 12  1  0  0  0  0
 16 27  1  0  0  0  0
M  END
>  <DRUGBANK_ID>
DB17043

>  <COMMON_NAME>
PHA-767491

>  <CAS_NUMBER>
845714-00-3

>  <UNII>
5M2GUN688C

$$$$
