MHC
 OpenBabel10282417072D

 34 36  0  0  0  0  0  0  0  0999 V2000
    2.9936   -1.7464    0.0000 S   0  0  0  0  0  0  0  0  0  0  0  0
    2.7386   -0.9618    0.0000 C   0  0  0  0  0  0  0  0  0  0  0  0
    1.9317   -0.7902    0.0000 C   0  0  0  0  0  0  0  0  0  0  0  0
    1.6767   -0.0056    0.0000 C   0  0  0  0  0  0  0  0  0  0  0  0
    2.2288    0.6075    0.0000 O   0  0  0  0  0  0  0  0  0  0  0  0
    0.8698    0.1659    0.0000 N   0  0  0  0  0  0  0  0  0  0  0  0
    0.6148    0.9505    0.0000 C   0  0  0  0  0  0  0  0  0  0  0  0
   -0.1921    1.1221    0.0000 C   0  0  0  0  0  0  0  0  0  0  0  0
   -0.7442    0.5090    0.0000 C   0  0  0  0  0  0  0  0  0  0  0  0
   -0.4892   -0.2756    0.0000 C   0  0  0  0  0  0  0  0  0  0  0  0
    0.3177   -0.4472    0.0000 C   0  0  0  0  0  0  0  0  0  0  0  0
   -1.1567   -0.7606    0.0000 N   0  0  0  0  0  0  0  0  0  0  0  0
   -1.5692    0.5090    0.0000 C   0  0  0  0  0  0  0  0  0  0  0  0
   -1.8241   -0.2756    0.0000 C   0  0  0  0  0  0  0  0  0  0  0  0
   -2.6311   -0.4472    0.0000 C   0  0  0  0  0  0  0  0  0  0  0  0
   -2.1212    1.1221    0.0000 C   0  0  0  0  0  0  0  0  0  0  0  0
   -2.9282    0.9505    0.0000 C   0  0  0  0  0  0  0  0  0  0  0  0
   -3.1831    0.1659    0.0000 C   0  0  0  0  0  0  0  0  0  0  0  0
    2.0837   -2.7571    0.0000 H   0  0  0  0  0  0  0  0  0  0  0  0
    3.4546   -0.1666    0.0000 H   0  0  0  0  0  0  0  0  0  0  0  0
    2.4080    0.0558    0.0000 H   0  0  0  0  0  0  0  0  0  0  0  0
    1.2157   -1.5854    0.0000 H   0  0  0  0  0  0  0  0  0  0  0  0
    0.8851   -0.5678    0.0000 H   0  0  0  0  0  0  0  0  0  0  0  0
    1.3308    1.7457    0.0000 H   0  0  0  0  0  0  0  0  0  0  0  0
    0.2842    1.9681    0.0000 H   0  0  0  0  0  0  0  0  0  0  0  0
   -0.5227    2.1398    0.0000 H   0  0  0  0  0  0  0  0  0  0  0  0
   -1.2387    1.3446    0.0000 H   0  0  0  0  0  0  0  0  0  0  0  0
    0.6483   -1.4649    0.0000 H   0  0  0  0  0  0  0  0  0  0  0  0
   -0.3983   -1.2423    0.0000 H   0  0  0  0  0  0  0  0  0  0  0  0
   -1.1567   -1.7451    0.0000 H   0  0  0  0  0  0  0  0  0  0  0  0
   -2.9500   -1.4287    0.0000 H   0  0  0  0  0  0  0  0  0  0  0  0
   -1.8023    2.1036    0.0000 H   0  0  0  0  0  0  0  0  0  0  0  0
   -3.6188    1.7174    0.0000 H   0  0  0  0  0  0  0  0  0  0  0  0
   -4.1925   -0.0487    0.0000 H   0  0  0  0  0  0  0  0  0  0  0  0
  1  2  1  0  0  0  0
  1 19  1  0  0  0  0
  2  3  1  0  0  0  0
  2 20  1  0  0  0  0
  2 21  1  0  0  0  0
  3  4  1  0  0  0  0
  3 22  1  0  0  0  0
  3 23  1  0  0  0  0
  4  5  2  0  0  0  0
  4  6  1  0  0  0  0
  6  7  1  0  0  0  0
  6 11  1  0  0  0  0
  7  8  1  0  0  0  0
  7 24  1  0  0  0  0
  7 25  1  0  0  0  0
  8  9  1  0  0  0  0
  8 26  1  0  0  0  0
  8 27  1  0  0  0  0
  9 10  2  0  0  0  0
  9 13  1  0  0  0  0
 10 11  1  0  0  0  0
 10 12  1  0  0  0  0
 11 28  1  0  0  0  0
 11 29  1  0  0  0  0
 12 14  1  0  0  0  0
 12 30  1  0  0  0  0
 13 14  2  0  0  0  0
 13 16  1  0  0  0  0
 14 15  1  0  0  0  0
 15 18  2  0  0  0  0
 15 31  1  0  0  0  0
 16 17  2  0  0  0  0
 16 32  1  0  0  0  0
 17 18  1  0  0  0  0
 17 33  1  0  0  0  0
 18 34  1  0  0  0  0
M  END
>  <DRUGBANK_ID>
DB03372

>  <SECONDARY_ACCESSION_NUMBERS>
EXPT02171

>  <COMMON_NAME>
3-Mercapto-1-(1,3,4,9-Tetrahydro-B-Carbolin-2-Yl)-Propan-1-One

$$$$
