
 OpenBabel10282417072D

140145  0  0  1  0  0  0  0  0999 V2000
  -27.1499   -4.9500    0.0000 C   0  0  0  0  0  0  0  0  0  0  0  0
  -26.4354   -4.5375    0.0000 N   0  0  0  0  0  0  0  0  0  0  0  0
  -25.7210   -4.9500    0.0000 C   0  0  0  0  0  0  0  0  0  0  0  0
  -25.0065   -4.5375    0.0000 C   0  0  0  0  0  0  0  0  0  0  0  0
  -25.0065   -3.7125    0.0000 C   0  0  0  0  0  0  0  0  0  0  0  0
  -24.2920   -3.3000    0.0000 C   0  0  0  0  0  0  0  0  0  0  0  0
  -23.5775   -3.7125    0.0000 C   0  0  0  0  0  0  0  0  0  0  0  0
  -23.5775   -4.5375    0.0000 C   0  0  0  0  0  0  0  0  0  0  0  0
  -24.2920   -4.9500    0.0000 C   0  0  0  0  0  0  0  0  0  0  0  0
  -24.2920   -5.7750    0.0000 Cl  0  0  0  0  0  0  0  0  0  0  0  0
  -22.8631   -3.3000    0.0000 Cl  0  0  0  0  0  0  0  0  0  0  0  0
  -25.7210   -3.3000    0.0000 C   0  0  1  0  0  0  0  0  0  0  0  0
  -26.4354   -3.7125    0.0000 C   0  0  0  0  0  0  0  0  0  0  0  0
  -25.7210   -2.4750    0.0000 C   0  0  0  0  0  0  0  0  0  0  0  0
  -26.4354   -2.0625    0.0000 C   0  0  0  0  0  0  0  0  0  0  0  0
  -26.4354   -1.2375    0.0000 C   0  0  0  0  0  0  0  0  0  0  0  0
  -25.7210   -0.8250    0.0000 C   0  0  0  0  0  0  0  0  0  0  0  0
  -25.0065   -1.2375    0.0000 C   0  0  0  0  0  0  0  0  0  0  0  0
  -25.0065   -2.0625    0.0000 C   0  0  0  0  0  0  0  0  0  0  0  0
  -24.2920   -0.8250    0.0000 S   0  0  0  0  0  0  0  0  0  0  0  0
  -23.8795   -1.5395    0.0000 O   0  0  0  0  0  0  0  0  0  0  0  0
  -24.7045   -0.1105    0.0000 O   0  0  0  0  0  0  0  0  0  0  0  0
  -23.5775   -0.4125    0.0000 N   0  0  0  0  0  0  0  0  0  0  0  0
  -22.8631   -0.8250    0.0000 C   0  0  0  0  0  0  0  0  0  0  0  0
  -22.1486   -0.4125    0.0000 C   0  0  0  0  0  0  0  0  0  0  0  0
  -21.4341   -0.8250    0.0000 O   0  0  0  0  0  0  0  0  0  0  0  0
  -20.7197   -0.4125    0.0000 C   0  0  0  0  0  0  0  0  0  0  0  0
  -20.0052   -0.8250    0.0000 C   0  0  0  0  0  0  0  0  0  0  0  0
  -19.2907   -0.4125    0.0000 O   0  0  0  0  0  0  0  0  0  0  0  0
  -18.5762   -0.8250    0.0000 C   0  0  0  0  0  0  0  0  0  0  0  0
  -17.8618   -0.4125    0.0000 C   0  0  0  0  0  0  0  0  0  0  0  0
  -17.1473   -0.8250    0.0000 N   0  0  0  0  0  0  0  0  0  0  0  0
  -16.4328   -0.4125    0.0000 C   0  0  0  0  0  0  0  0  0  0  0  0
  -16.4328    0.4125    0.0000 O   0  0  0  0  0  0  0  0  0  0  0  0
  -15.7184   -0.8250    0.0000 N   0  0  0  0  0  0  0  0  0  0  0  0
  -15.0039   -0.4125    0.0000 C   0  0  0  0  0  0  0  0  0  0  0  0
  -14.2894   -0.8250    0.0000 C   0  0  0  0  0  0  0  0  0  0  0  0
  -13.5749   -0.4125    0.0000 C   0  0  0  0  0  0  0  0  0  0  0  0
  -12.8605   -0.8250    0.0000 C   0  0  0  0  0  0  0  0  0  0  0  0
  -12.1460   -0.4125    0.0000 N   0  0  0  0  0  0  0  0  0  0  0  0
  -11.4315   -0.8250    0.0000 C   0  0  0  0  0  0  0  0  0  0  0  0
  -11.4315   -1.6500    0.0000 O   0  0  0  0  0  0  0  0  0  0  0  0
  -10.7171   -0.4125    0.0000 N   0  0  0  0  0  0  0  0  0  0  0  0
  -10.0026   -0.8250    0.0000 C   0  0  0  0  0  0  0  0  0  0  0  0
   -9.2881   -0.4125    0.0000 C   0  0  0  0  0  0  0  0  0  0  0  0
   -8.5737   -0.8250    0.0000 O   0  0  0  0  0  0  0  0  0  0  0  0
   -7.8592   -0.4125    0.0000 C   0  0  0  0  0  0  0  0  0  0  0  0
   -7.1447   -0.8250    0.0000 C   0  0  0  0  0  0  0  0  0  0  0  0
   -6.4302   -0.4125    0.0000 O   0  0  0  0  0  0  0  0  0  0  0  0
   -5.7158   -0.8250    0.0000 C   0  0  0  0  0  0  0  0  0  0  0  0
   -5.0013   -0.4125    0.0000 C   0  0  0  0  0  0  0  0  0  0  0  0
   -4.2868   -0.8250    0.0000 N   0  0  0  0  0  0  0  0  0  0  0  0
   -3.5724   -0.4125    0.0000 S   0  0  0  0  0  0  0  0  0  0  0  0
   -3.1599   -1.1270    0.0000 O   0  0  0  0  0  0  0  0  0  0  0  0
   -3.9849    0.3020    0.0000 O   0  0  0  0  0  0  0  0  0  0  0  0
   -2.8579    0.0000    0.0000 C   0  0  0  0  0  0  0  0  0  0  0  0
   -2.8579    0.8250    0.0000 C   0  0  0  0  0  0  0  0  0  0  0  0
   -2.1434    1.2375    0.0000 C   0  0  0  0  0  0  0  0  0  0  0  0
   -1.4289    0.8250    0.0000 C   0  0  0  0  0  0  0  0  0  0  0  0
   -1.4289    0.0000    0.0000 C   0  0  0  0  0  0  0  0  0  0  0  0
   -2.1434   -0.4125    0.0000 C   0  0  0  0  0  0  0  0  0  0  0  0
   -0.7145   -0.4125    0.0000 C   0  0  2  0  0  0  0  0  0  0  0  0
   -0.7145   -1.2375    0.0000 C   0  0  0  0  0  0  0  0  0  0  0  0
    0.0000   -1.6500    0.0000 N   0  0  0  0  0  0  0  0  0  0  0  0
    0.7145   -1.2375    0.0000 C   0  0  0  0  0  0  0  0  0  0  0  0
    0.7145   -0.4125    0.0000 C   0  0  0  0  0  0  0  0  0  0  0  0
    0.0000    0.0000    0.0000 C   0  0  0  0  0  0  0  0  0  0  0  0
   -0.0000    0.8250    0.0000 C   0  0  0  0  0  0  0  0  0  0  0  0
    0.7145    1.2375    0.0000 C   0  0  0  0  0  0  0  0  0  0  0  0
    1.4289    0.8250    0.0000 C   0  0  0  0  0  0  0  0  0  0  0  0
    1.4289    0.0000    0.0000 C   0  0  0  0  0  0  0  0  0  0  0  0
    2.1434   -0.4125    0.0000 Cl  0  0  0  0  0  0  0  0  0  0  0  0
    0.7145    2.0625    0.0000 Cl  0  0  0  0  0  0  0  0  0  0  0  0
    0.0000   -2.4750    0.0000 C   0  0  0  0  0  0  0  0  0  0  0  0
  -28.0765   -4.4150    0.0000 H   0  0  0  0  0  0  0  0  0  0  0  0
  -27.1499   -6.0200    0.0000 H   0  0  0  0  0  0  0  0  0  0  0  0
  -28.0766   -5.4850    0.0000 H   0  0  0  0  0  0  0  0  0  0  0  0
  -25.7210   -6.0200    0.0000 H   0  0  0  0  0  0  0  0  0  0  0  0
  -24.7944   -5.4850    0.0000 H   0  0  0  0  0  0  0  0  0  0  0  0
  -24.2920   -2.2680    0.0000 H   0  0  0  0  0  0  0  0  0  0  0  0
  -22.6838   -5.0535    0.0000 H   0  0  0  0  0  0  0  0  0  0  0  0
  -24.7944   -2.7650    0.0000 H   0  0  0  0  0  0  0  0  0  0  0  0
  -27.3621   -3.1775    0.0000 H   0  0  0  0  0  0  0  0  0  0  0  0
  -27.3620   -4.2475    0.0000 H   0  0  0  0  0  0  0  0  0  0  0  0
  -27.3291   -2.5785    0.0000 H   0  0  0  0  0  0  0  0  0  0  0  0
  -27.3291   -0.7215    0.0000 H   0  0  0  0  0  0  0  0  0  0  0  0
  -25.7210    0.2070    0.0000 H   0  0  0  0  0  0  0  0  0  0  0  0
  -24.1128   -2.5785    0.0000 H   0  0  0  0  0  0  0  0  0  0  0  0
  -23.5775    0.6075    0.0000 H   0  0  0  0  0  0  0  0  0  0  0  0
  -22.8631   -1.8950    0.0000 H   0  0  0  0  0  0  0  0  0  0  0  0
  -21.9365   -1.3600    0.0000 H   0  0  0  0  0  0  0  0  0  0  0  0
  -22.1486    0.6575    0.0000 H   0  0  0  0  0  0  0  0  0  0  0  0
  -21.2220    0.1225    0.0000 H   0  0  0  0  0  0  0  0  0  0  0  0
  -20.7197    0.6575    0.0000 H   0  0  0  0  0  0  0  0  0  0  0  0
  -19.7931    0.1225    0.0000 H   0  0  0  0  0  0  0  0  0  0  0  0
  -20.0052   -1.8950    0.0000 H   0  0  0  0  0  0  0  0  0  0  0  0
  -19.0786   -1.3600    0.0000 H   0  0  0  0  0  0  0  0  0  0  0  0
  -18.5762   -1.8950    0.0000 H   0  0  0  0  0  0  0  0  0  0  0  0
  -17.6495   -1.3600    0.0000 H   0  0  0  0  0  0  0  0  0  0  0  0
  -17.8618    0.6575    0.0000 H   0  0  0  0  0  0  0  0  0  0  0  0
  -16.9352    0.1225    0.0000 H   0  0  0  0  0  0  0  0  0  0  0  0
  -17.1473   -1.8095    0.0000 H   0  0  0  0  0  0  0  0  0  0  0  0
  -15.7184   -1.8095    0.0000 H   0  0  0  0  0  0  0  0  0  0  0  0
  -15.0039    0.6575    0.0000 H   0  0  0  0  0  0  0  0  0  0  0  0
  -14.0773    0.1225    0.0000 H   0  0  0  0  0  0  0  0  0  0  0  0
  -14.2894   -1.8950    0.0000 H   0  0  0  0  0  0  0  0  0  0  0  0
  -13.3628   -1.3600    0.0000 H   0  0  0  0  0  0  0  0  0  0  0  0
  -13.5749    0.6575    0.0000 H   0  0  0  0  0  0  0  0  0  0  0  0
  -12.6482    0.1225    0.0000 H   0  0  0  0  0  0  0  0  0  0  0  0
  -12.8605   -1.8950    0.0000 H   0  0  0  0  0  0  0  0  0  0  0  0
  -11.9339   -1.3600    0.0000 H   0  0  0  0  0  0  0  0  0  0  0  0
  -12.1460    0.5720    0.0000 H   0  0  0  0  0  0  0  0  0  0  0  0
  -10.7171    0.5720    0.0000 H   0  0  0  0  0  0  0  0  0  0  0  0
  -10.0026   -1.8950    0.0000 H   0  0  0  0  0  0  0  0  0  0  0  0
   -9.0760   -1.3600    0.0000 H   0  0  0  0  0  0  0  0  0  0  0  0
   -9.2881    0.6575    0.0000 H   0  0  0  0  0  0  0  0  0  0  0  0
   -8.3614    0.1225    0.0000 H   0  0  0  0  0  0  0  0  0  0  0  0
   -7.8592    0.6575    0.0000 H   0  0  0  0  0  0  0  0  0  0  0  0
   -6.9326    0.1225    0.0000 H   0  0  0  0  0  0  0  0  0  0  0  0
   -7.1447   -1.8950    0.0000 H   0  0  0  0  0  0  0  0  0  0  0  0
   -6.2181   -1.3600    0.0000 H   0  0  0  0  0  0  0  0  0  0  0  0
   -5.7158   -1.8950    0.0000 H   0  0  0  0  0  0  0  0  0  0  0  0
   -4.7892   -1.3600    0.0000 H   0  0  0  0  0  0  0  0  0  0  0  0
   -5.0013    0.6575    0.0000 H   0  0  0  0  0  0  0  0  0  0  0  0
   -4.0747    0.1225    0.0000 H   0  0  0  0  0  0  0  0  0  0  0  0
   -4.2868   -1.8450    0.0000 H   0  0  0  0  0  0  0  0  0  0  0  0
   -3.7516    1.3410    0.0000 H   0  0  0  0  0  0  0  0  0  0  0  0
   -2.1434    2.2695    0.0000 H   0  0  0  0  0  0  0  0  0  0  0  0
   -0.5352    1.3410    0.0000 H   0  0  0  0  0  0  0  0  0  0  0  0
   -2.1434   -1.4445    0.0000 H   0  0  0  0  0  0  0  0  0  0  0  0
   -1.6412   -0.9475    0.0000 H   0  0  0  0  0  0  0  0  0  0  0  0
   -1.6411   -1.7725    0.0000 H   0  0  0  0  0  0  0  0  0  0  0  0
   -0.7145   -2.3075    0.0000 H   0  0  0  0  0  0  0  0  0  0  0  0
    1.6411   -1.7725    0.0000 H   0  0  0  0  0  0  0  0  0  0  0  0
    1.6411   -0.7025    0.0000 H   0  0  0  0  0  0  0  0  0  0  0  0
   -0.8937    1.3410    0.0000 H   0  0  0  0  0  0  0  0  0  0  0  0
    2.3226    1.3410    0.0000 H   0  0  0  0  0  0  0  0  0  0  0  0
   -0.9266   -3.0100    0.0000 H   0  0  0  0  0  0  0  0  0  0  0  0
    0.9266   -3.0100    0.0000 H   0  0  0  0  0  0  0  0  0  0  0  0
    0.0000   -3.5450    0.0000 H   0  0  0  0  0  0  0  0  0  0  0  0
  1  2  1  0  0  0  0
  1 75  1  0  0  0  0
  1 76  1  0  0  0  0
  1 77  1  0  0  0  0
  2  3  1  0  0  0  0
  2 13  1  0  0  0  0
  3  4  1  0  0  0  0
  3 78  1  0  0  0  0
  3 79  1  0  0  0  0
  4  5  2  0  0  0  0
  4  9  1  0  0  0  0
  5  6  1  0  0  0  0
  5 12  1  0  0  0  0
  6  7  2  0  0  0  0
  6 80  1  0  0  0  0
  7  8  1  0  0  0  0
  7 11  1  0  0  0  0
  8  9  2  0  0  0  0
  8 81  1  0  0  0  0
  9 10  1  0  0  0  0
 12 13  1  0  0  0  0
 12 14  1  0  0  0  0
 12 82  1  6  0  0  0
 13 83  1  0  0  0  0
 13 84  1  0  0  0  0
 14 15  2  0  0  0  0
 14 19  1  0  0  0  0
 15 16  1  0  0  0  0
 15 85  1  0  0  0  0
 16 17  2  0  0  0  0
 16 86  1  0  0  0  0
 17 18  1  0  0  0  0
 17 87  1  0  0  0  0
 18 19  2  0  0  0  0
 18 20  1  0  0  0  0
 19 88  1  0  0  0  0
 20 21  2  0  0  0  0
 20 22  2  0  0  0  0
 20 23  1  0  0  0  0
 23 24  1  0  0  0  0
 23 89  1  0  0  0  0
 24 25  1  0  0  0  0
 24 90  1  0  0  0  0
 24 91  1  0  0  0  0
 25 26  1  0  0  0  0
 25 92  1  0  0  0  0
 25 93  1  0  0  0  0
 26 27  1  0  0  0  0
 27 28  1  0  0  0  0
 27 94  1  0  0  0  0
 27 95  1  0  0  0  0
 28 29  1  0  0  0  0
 28 96  1  0  0  0  0
 28 97  1  0  0  0  0
 29 30  1  0  0  0  0
 30 31  1  0  0  0  0
 30 98  1  0  0  0  0
 30 99  1  0  0  0  0
 31 32  1  0  0  0  0
 31100  1  0  0  0  0
 31101  1  0  0  0  0
 32 33  1  0  0  0  0
 32102  1  0  0  0  0
 33 34  2  0  0  0  0
 33 35  1  0  0  0  0
 35 36  1  0  0  0  0
 35103  1  0  0  0  0
 36 37  1  0  0  0  0
 36104  1  0  0  0  0
 36105  1  0  0  0  0
 37 38  1  0  0  0  0
 37106  1  0  0  0  0
 37107  1  0  0  0  0
 38 39  1  0  0  0  0
 38108  1  0  0  0  0
 38109  1  0  0  0  0
 39 40  1  0  0  0  0
 39110  1  0  0  0  0
 39111  1  0  0  0  0
 40 41  1  0  0  0  0
 40112  1  0  0  0  0
 41 42  2  0  0  0  0
 41 43  1  0  0  0  0
 43 44  1  0  0  0  0
 43113  1  0  0  0  0
 44 45  1  0  0  0  0
 44114  1  0  0  0  0
 44115  1  0  0  0  0
 45 46  1  0  0  0  0
 45116  1  0  0  0  0
 45117  1  0  0  0  0
 46 47  1  0  0  0  0
 47 48  1  0  0  0  0
 47118  1  0  0  0  0
 47119  1  0  0  0  0
 48 49  1  0  0  0  0
 48120  1  0  0  0  0
 48121  1  0  0  0  0
 49 50  1  0  0  0  0
 50 51  1  0  0  0  0
 50122  1  0  0  0  0
 50123  1  0  0  0  0
 51 52  1  0  0  0  0
 51124  1  0  0  0  0
 51125  1  0  0  0  0
 52 53  1  0  0  0  0
 52126  1  0  0  0  0
 53 54  2  0  0  0  0
 53 55  2  0  0  0  0
 53 56  1  0  0  0  0
 56 57  2  0  0  0  0
 56 61  1  0  0  0  0
 57 58  1  0  0  0  0
 57127  1  0  0  0  0
 58 59  2  0  0  0  0
 58128  1  0  0  0  0
 59 60  1  0  0  0  0
 59129  1  0  0  0  0
 60 61  2  0  0  0  0
 61130  1  0  0  0  0
 62 60  1  0  0  0  0
 62 63  1  0  0  0  0
 62 67  1  0  0  0  0
 62131  1  6  0  0  0
 63 64  1  0  0  0  0
 63132  1  0  0  0  0
 63133  1  0  0  0  0
 64 65  1  0  0  0  0
 64 74  1  0  0  0  0
 65 66  1  0  0  0  0
 65134  1  0  0  0  0
 65135  1  0  0  0  0
 66 67  2  0  0  0  0
 66 71  1  0  0  0  0
 67 68  1  0  0  0  0
 68 69  2  0  0  0  0
 68136  1  0  0  0  0
 69 70  1  0  0  0  0
 69 73  1  0  0  0  0
 70 71  2  0  0  0  0
 70137  1  0  0  0  0
 71 72  1  0  0  0  0
 74138  1  0  0  0  0
 74139  1  0  0  0  0
 74140  1  0  0  0  0
M  END
>  <DRUGBANK_ID>
DB11761

>  <COMMON_NAME>
Tenapanor

>  <CAS_NUMBER>
1234423-95-0

>  <UNII>
WYD79216A6

>  <SYNONYMS>
Tenapanor

$$$$
