
 OpenBabel10282417072D

 52 53  0  0  0  0  0  0  0  0999 V2000
   -3.1760   -0.5990    0.0000 C   0  0  0  0  0  0  0  0  0  0  0  0
    0.3962   -1.8366    0.0000 C   0  0  0  0  0  0  0  0  0  0  0  0
   -2.4617   -1.0116    0.0000 C   0  0  0  0  0  0  0  0  0  0  0  0
   -0.6607    1.9370    0.0000 C   0  0  0  0  0  0  0  0  0  0  0  0
   -0.9156    1.1523    0.0000 C   0  0  0  0  0  0  0  0  0  0  0  0
   -1.7470   -0.5990    0.0000 C   0  0  0  0  0  0  0  0  0  0  0  0
    0.1462    2.1084    0.0000 C   0  0  0  0  0  0  0  0  0  0  0  0
   -0.3636    0.5393    0.0000 C   0  0  0  0  0  0  0  0  0  0  0  0
    1.5233    1.4954    0.0000 C   0  0  0  0  0  0  0  0  0  0  0  0
    0.3962   -1.0116    0.0000 C   0  0  1  0  0  0  0  0  0  0  0  0
    0.6982    1.4954    0.0000 C   0  0  1  0  0  0  0  0  0  0  0  0
   -1.0326   -1.0116    0.0000 C   0  0  1  0  0  0  0  0  0  0  0  0
    0.4434    0.7107    0.0000 C   0  0  1  0  0  0  0  0  0  0  0  0
    1.7781    0.7107    0.0000 C   0  0  1  0  0  0  0  0  0  0  0  0
    1.1108   -0.5990    0.0000 C   0  0  0  0  0  0  0  0  0  0  0  0
   -1.0326   -1.8366    0.0000 C   0  0  0  0  0  0  0  0  0  0  0  0
    2.5629    0.4559    0.0000 C   0  0  0  0  0  0  0  0  0  0  0  0
   -0.3181   -0.5990    0.0000 N   0  0  0  0  0  0  0  0  0  0  0  0
    1.1108    0.2259    0.0000 N   0  0  0  0  0  0  0  0  0  0  0  0
    1.8252   -1.0116    0.0000 O   0  0  0  0  0  0  0  0  0  0  0  0
   -0.3181   -2.2491    0.0000 O   0  0  0  0  0  0  0  0  0  0  0  0
   -1.7470   -2.2491    0.0000 O   0  0  0  0  0  0  0  0  0  0  0  0
    3.1760    1.0079    0.0000 O   0  0  0  0  0  0  0  0  0  0  0  0
    2.7344   -0.3511    0.0000 O   0  0  0  0  0  0  0  0  0  0  0  0
    1.0339    2.2491    0.0000 H   0  0  0  0  0  0  0  0  0  0  0  0
    0.2718   -0.0962    0.0000 H   0  0  0  0  0  0  0  0  0  0  0  0
   -3.1758    0.4710    0.0000 H   0  0  0  0  0  0  0  0  0  0  0  0
   -4.1028   -1.1338    0.0000 H   0  0  0  0  0  0  0  0  0  0  0  0
   -4.1025   -0.0638    0.0000 H   0  0  0  0  0  0  0  0  0  0  0  0
   -0.5304   -2.3716    0.0000 H   0  0  0  0  0  0  0  0  0  0  0  0
    1.3228   -2.3716    0.0000 H   0  0  0  0  0  0  0  0  0  0  0  0
    0.3962   -2.9066    0.0000 H   0  0  0  0  0  0  0  0  0  0  0  0
   -2.4618   -2.0816    0.0000 H   0  0  0  0  0  0  0  0  0  0  0  0
   -1.5351   -1.5467    0.0000 H   0  0  0  0  0  0  0  0  0  0  0  0
   -1.3766    2.7322    0.0000 H   0  0  0  0  0  0  0  0  0  0  0  0
   -0.3300    2.9546    0.0000 H   0  0  0  0  0  0  0  0  0  0  0  0
   -1.9622    0.9298    0.0000 H   0  0  0  0  0  0  0  0  0  0  0  0
   -1.2462    0.1347    0.0000 H   0  0  0  0  0  0  0  0  0  0  0  0
   -1.7469    0.4710    0.0000 H   0  0  0  0  0  0  0  0  0  0  0  0
   -0.8203   -0.0641    0.0000 H   0  0  0  0  0  0  0  0  0  0  0  0
    0.4769    3.1260    0.0000 H   0  0  0  0  0  0  0  0  0  0  0  0
    1.1928    2.3309    0.0000 H   0  0  0  0  0  0  0  0  0  0  0  0
   -0.6943   -0.4783    0.0000 H   0  0  0  0  0  0  0  0  0  0  0  0
    0.3523   -0.2559    0.0000 H   0  0  0  0  0  0  0  0  0  0  0  0
    2.1523    2.3610    0.0000 H   0  0  0  0  0  0  0  0  0  0  0  0
    2.5801    1.3279    0.0000 H   0  0  0  0  0  0  0  0  0  0  0  0
    1.3229   -1.5466    0.0000 H   0  0  0  0  0  0  0  0  0  0  0  0
   -1.0326    0.0584    0.0000 H   0  0  0  0  0  0  0  0  0  0  0  0
    2.5347    1.4673    0.0000 H   0  0  0  0  0  0  0  0  0  0  0  0
   -0.3180    0.4210    0.0000 H   0  0  0  0  0  0  0  0  0  0  0  0
   -2.5585   -1.7806    0.0000 H   0  0  0  0  0  0  0  0  0  0  0  0
    4.0671    0.7183    0.0000 H   0  0  0  0  0  0  0  0  0  0  0  0
  1 27  1  0  0  0  0
  1 28  1  0  0  0  0
  1 29  1  0  0  0  0
  2 30  1  0  0  0  0
  2 31  1  0  0  0  0
  2 32  1  0  0  0  0
  3  1  1  0  0  0  0
  3 33  1  0  0  0  0
  3 34  1  0  0  0  0
  4 35  1  0  0  0  0
  4 36  1  0  0  0  0
  5  4  1  0  0  0  0
  5 37  1  0  0  0  0
  5 38  1  0  0  0  0
  6  3  1  0  0  0  0
  6 39  1  0  0  0  0
  6 40  1  0  0  0  0
  7  4  1  0  0  0  0
  7 41  1  0  0  0  0
  7 42  1  0  0  0  0
  8  5  1  0  0  0  0
  8 43  1  0  0  0  0
  8 44  1  0  0  0  0
  9 45  1  0  0  0  0
  9 46  1  0  0  0  0
 10  2  1  0  0  0  0
 10 47  1  1  0  0  0
 11  7  1  0  0  0  0
 11  9  1  0  0  0  0
 11 25  1  6  0  0  0
 12  6  1  0  0  0  0
 12 18  1  0  0  0  0
 12 48  1  1  0  0  0
 13  8  1  0  0  0  0
 13 11  1  0  0  0  0
 13 19  1  0  0  0  0
 13 26  1  6  0  0  0
 14  9  1  0  0  0  0
 14 17  1  0  0  0  0
 14 49  1  6  0  0  0
 15 10  1  0  0  0  0
 16 12  1  0  0  0  0
 18 10  1  0  0  0  0
 18 50  1  0  0  0  0
 19 14  1  0  0  0  0
 19 15  1  0  0  0  0
 20 15  2  0  0  0  0
 21 16  2  0  0  0  0
 22 16  1  0  0  0  0
 22 51  1  0  0  0  0
 23 17  1  0  0  0  0
 23 52  1  0  0  0  0
 24 17  2  0  0  0  0
M  END
>  <DRUGBANK_ID>
DB14213

>  <COMMON_NAME>
Perindoprilat

>  <CAS_NUMBER>
95153-31-4

>  <UNII>
2UV6ZNQ92K

>  <SYNONYMS>
Perindoprilat; Perindoprilate; Perindoprilato; Perindoprilatum

$$$$
