
 OpenBabel10282417072D

 40 42  0  0  0  0  0  0  0  0999 V2000
    0.1722   -2.1447    0.0000 C   0  0  0  0  0  0  0  0  0  0  0  0
    0.1722   -0.4946    0.0000 C   0  0  0  0  0  0  0  0  0  0  0  0
   -0.5521   -0.9072    0.0000 C   0  0  0  0  0  0  0  0  0  0  0  0
   -0.5521   -1.7322    0.0000 C   0  0  0  0  0  0  0  0  0  0  0  0
    0.8866   -0.9072    0.0000 C   0  0  0  0  0  0  0  0  0  0  0  0
    0.8866   -1.7322    0.0000 C   0  0  0  0  0  0  0  0  0  0  0  0
    1.6009   -2.1447    0.0000 C   0  0  0  0  0  0  0  0  0  0  0  0
    2.3153   -1.7322    0.0000 N   0  0  0  0  0  0  0  0  0  0  0  0
    2.3153   -0.9072    0.0000 C   0  0  0  0  0  0  0  0  0  0  0  0
    1.6009   -0.4946    0.0000 C   0  0  0  0  0  0  0  0  0  0  0  0
    1.6009    0.1665    0.0000 F   0  0  0  0  0  0  0  0  0  0  0  0
    0.1771    0.3322    0.0000 S   0  0  0  0  0  0  0  0  0  0  0  0
   -0.5363    0.7503    0.0000 N   0  0  0  0  0  0  0  0  0  0  0  0
   -1.2301    0.2938    0.0000 C   0  0  0  0  0  0  0  0  0  0  0  0
   -2.0183    0.5424    0.0000 C   0  0  0  0  0  0  0  0  0  0  0  0
   -0.4771    1.5787    0.0000 C   0  0  2  0  0  0  0  0  0  0  0  0
   -2.3153    1.3137    0.0000 C   0  0  0  0  0  0  0  0  0  0  0  0
   -1.0794    2.1447    0.0000 C   0  0  0  0  0  0  0  0  0  0  0  0
   -1.8974    2.0269    0.0000 N   0  0  0  0  0  0  0  0  0  0  0  0
    0.1387    1.8193    0.0000 C   0  0  0  0  0  0  0  0  0  0  0  0
    0.7517    0.6592    0.0000 O   0  0  0  0  0  0  0  0  0  0  0  0
    0.7477   -0.0017    0.0000 O   0  0  0  0  0  0  0  0  0  0  0  0
    0.1753   -3.1767    0.0000 H   0  0  0  0  0  0  0  0  0  0  0  0
   -1.4443   -0.3886    0.0000 H   0  0  0  0  0  0  0  0  0  0  0  0
   -1.4443   -2.2508    0.0000 H   0  0  0  0  0  0  0  0  0  0  0  0
    1.6009   -3.1767    0.0000 H   0  0  0  0  0  0  0  0  0  0  0  0
    3.2091   -0.3913    0.0000 H   0  0  0  0  0  0  0  0  0  0  0  0
   -1.0827   -0.7660    0.0000 H   0  0  0  0  0  0  0  0  0  0  0  0
   -2.0473   -0.3969    0.0000 H   0  0  0  0  0  0  0  0  0  0  0  0
   -2.7511   -0.2373    0.0000 H   0  0  0  0  0  0  0  0  0  0  0  0
   -3.0683    0.7481    0.0000 H   0  0  0  0  0  0  0  0  0  0  0  0
    0.3844    0.9441    0.0000 H   0  0  0  0  0  0  0  0  0  0  0  0
   -3.3818    1.4005    0.0000 H   0  0  0  0  0  0  0  0  0  0  0  0
   -2.8092    2.2629    0.0000 H   0  0  0  0  0  0  0  0  0  0  0  0
   -0.7574    3.1651    0.0000 H   0  0  0  0  0  0  0  0  0  0  0  0
   -1.7720    2.9603    0.0000 H   0  0  0  0  0  0  0  0  0  0  0  0
   -2.4665    2.8734    0.0000 H   0  0  0  0  0  0  0  0  0  0  0  0
    0.9742    1.1509    0.0000 H   0  0  0  0  0  0  0  0  0  0  0  0
    0.2998    2.8771    0.0000 H   0  0  0  0  0  0  0  0  0  0  0  0
    1.1353    2.2087    0.0000 H   0  0  0  0  0  0  0  0  0  0  0  0
  1  6  2  0  0  0  0
  1 23  1  0  0  0  0
  2  3  1  0  0  0  0
  2 12  1  0  0  0  0
  3  4  2  0  0  0  0
  3 24  1  0  0  0  0
  4  1  1  0  0  0  0
  4 25  1  0  0  0  0
  5  2  2  0  0  0  0
  5  6  1  0  0  0  0
  6  7  1  0  0  0  0
  7  8  2  0  0  0  0
  7 26  1  0  0  0  0
  8  9  1  0  0  0  0
  9 10  2  0  0  0  0
  9 27  1  0  0  0  0
 10  5  1  0  0  0  0
 10 11  1  0  0  0  0
 12 13  1  0  0  0  0
 12 21  2  0  0  0  0
 12 22  2  0  0  0  0
 13 14  1  0  0  0  0
 13 16  1  0  0  0  0
 14 15  1  0  0  0  0
 14 28  1  0  0  0  0
 14 29  1  0  0  0  0
 15 17  1  0  0  0  0
 15 30  1  0  0  0  0
 15 31  1  0  0  0  0
 16 18  1  0  0  0  0
 16 20  1  0  0  0  0
 16 32  1  1  0  0  0
 17 19  1  0  0  0  0
 17 33  1  0  0  0  0
 17 34  1  0  0  0  0
 18 19  1  0  0  0  0
 18 35  1  0  0  0  0
 18 36  1  0  0  0  0
 19 37  1  0  0  0  0
 20 38  1  0  0  0  0
 20 39  1  0  0  0  0
 20 40  1  0  0  0  0
M  END
>  <DRUGBANK_ID>
DB13165

>  <COMMON_NAME>
Ripasudil

>  <CAS_NUMBER>
223645-67-8

>  <UNII>
11978226XX

>  <SYNONYMS>
Ripasudil

$$$$
