
 OpenBabel10282417072D

 46 46  0  0  0  0  0  0  0  0999 V2000
   -2.8500   -0.4258    0.0000 C   0  0  0  0  0  0  0  0  0  0  0  0
   -2.8500    0.4016    0.0000 C   0  0  0  0  0  0  0  0  0  0  0  0
   -2.1361   -0.8396    0.0000 C   0  0  0  0  0  0  0  0  0  0  0  0
   -3.5639   -0.8362    0.0000 C   0  0  0  0  0  0  0  0  0  0  0  0
   -2.1361    0.8155    0.0000 C   0  0  0  0  0  0  0  0  0  0  0  0
   -1.4188   -0.4258    0.0000 C   0  0  0  0  0  0  0  0  0  0  0  0
   -4.2777   -0.4224    0.0000 O   0  0  0  0  0  0  0  0  0  0  0  0
   -3.5672   -1.6603    0.0000 O   0  0  0  0  0  0  0  0  0  0  0  0
   -1.4224    0.4050    0.0000 C   0  0  0  0  0  0  0  0  0  0  0  0
   -4.9881   -0.8362    0.0000 C   0  0  0  0  0  0  0  0  0  0  0  0
   -0.7085    0.8189    0.0000 O   0  0  0  0  0  0  0  0  0  0  0  0
   -5.7018   -0.4224    0.0000 C   0  0  0  0  0  0  0  0  0  0  0  0
    0.0016    0.4086    0.0000 C   0  0  0  0  0  0  0  0  0  0  0  0
    0.7154    0.8224    0.0000 C   0  0  0  0  0  0  0  0  0  0  0  0
    0.0051   -0.4155    0.0000 O   0  0  0  0  0  0  0  0  0  0  0  0
    1.4259    0.4120    0.0000 C   0  0  0  0  0  0  0  0  0  0  0  0
    2.1397    0.8258    0.0000 C   0  0  0  0  0  0  0  0  0  0  0  0
    2.8535    0.4189    0.0000 C   0  0  0  0  0  0  0  0  0  0  0  0
    3.5639    0.8292    0.0000 C   0  0  0  0  0  0  0  0  0  0  0  0
    4.2777    0.4224    0.0000 N   0  0  0  0  0  0  0  0  0  0  0  0
    4.9916    0.8362    0.0000 C   0  0  0  0  0  0  0  0  0  0  0  0
    5.7018    0.4258    0.0000 N   0  0  0  0  0  0  0  0  0  0  0  0
    4.9881    1.6603    0.0000 N   0  0  0  0  0  0  0  0  0  0  0  0
   -3.7442    0.9168    0.0000 H   0  0  0  0  0  0  0  0  0  0  0  0
   -2.1372   -1.8716    0.0000 H   0  0  0  0  0  0  0  0  0  0  0  0
   -2.1379    1.8475    0.0000 H   0  0  0  0  0  0  0  0  0  0  0  0
   -0.5240   -0.9400    0.0000 H   0  0  0  0  0  0  0  0  0  0  0  0
   -4.9870   -1.9062    0.0000 H   0  0  0  0  0  0  0  0  0  0  0  0
   -5.9150   -1.3708    0.0000 H   0  0  0  0  0  0  0  0  0  0  0  0
   -5.6998    0.6476    0.0000 H   0  0  0  0  0  0  0  0  0  0  0  0
   -6.6294   -0.9557    0.0000 H   0  0  0  0  0  0  0  0  0  0  0  0
   -6.6275    0.1143    0.0000 H   0  0  0  0  0  0  0  0  0  0  0  0
    0.7146    1.8924    0.0000 H   0  0  0  0  0  0  0  0  0  0  0  0
    1.6419    1.3577    0.0000 H   0  0  0  0  0  0  0  0  0  0  0  0
    1.4267   -0.6580    0.0000 H   0  0  0  0  0  0  0  0  0  0  0  0
    2.3532   -0.1218    0.0000 H   0  0  0  0  0  0  0  0  0  0  0  0
    2.1358    1.8958    0.0000 H   0  0  0  0  0  0  0  0  0  0  0  0
    3.0639    1.3650    0.0000 H   0  0  0  0  0  0  0  0  0  0  0  0
    2.8565   -0.6511    0.0000 H   0  0  0  0  0  0  0  0  0  0  0  0
    3.7809   -0.1147    0.0000 H   0  0  0  0  0  0  0  0  0  0  0  0
    3.5608    1.8992    0.0000 H   0  0  0  0  0  0  0  0  0  0  0  0
    4.4883    1.3681    0.0000 H   0  0  0  0  0  0  0  0  0  0  0  0
    4.2813   -0.5621    0.0000 H   0  0  0  0  0  0  0  0  0  0  0  0
    5.7014   -0.5587    0.0000 H   0  0  0  0  0  0  0  0  0  0  0  0
    6.5546    0.9177    0.0000 H   0  0  0  0  0  0  0  0  0  0  0  0
    5.8386    2.1562    0.0000 H   0  0  0  0  0  0  0  0  0  0  0  0
  1  2  2  0  0  0  0
  1  3  1  0  0  0  0
  1  4  1  0  0  0  0
  2  5  1  0  0  0  0
  2 24  1  0  0  0  0
  3  6  2  0  0  0  0
  3 25  1  0  0  0  0
  4  7  1  0  0  0  0
  4  8  2  0  0  0  0
  5  9  2  0  0  0  0
  5 26  1  0  0  0  0
  6  9  1  0  0  0  0
  6 27  1  0  0  0  0
  7 10  1  0  0  0  0
  9 11  1  0  0  0  0
 10 12  1  0  0  0  0
 10 28  1  0  0  0  0
 10 29  1  0  0  0  0
 11 13  1  0  0  0  0
 12 30  1  0  0  0  0
 12 31  1  0  0  0  0
 12 32  1  0  0  0  0
 13 14  1  0  0  0  0
 13 15  2  0  0  0  0
 14 16  1  0  0  0  0
 14 33  1  0  0  0  0
 14 34  1  0  0  0  0
 16 17  1  0  0  0  0
 16 35  1  0  0  0  0
 16 36  1  0  0  0  0
 17 18  1  0  0  0  0
 17 37  1  0  0  0  0
 17 38  1  0  0  0  0
 18 19  1  0  0  0  0
 18 39  1  0  0  0  0
 18 40  1  0  0  0  0
 19 20  1  0  0  0  0
 19 41  1  0  0  0  0
 19 42  1  0  0  0  0
 20 21  1  0  0  0  0
 20 43  1  0  0  0  0
 21 22  1  0  0  0  0
 21 23  2  0  0  0  0
 22 44  1  0  0  0  0
 22 45  1  0  0  0  0
 23 46  1  0  0  0  0
M  END
>  <DRUGBANK_ID>
DB12831

>  <COMMON_NAME>
Gabexate

>  <CAS_NUMBER>
39492-01-8

>  <UNII>
4V7M9137X9

>  <SYNONYMS>
Gabexate; Gabexato; Gabexatum

$$$$
