AOG
 OpenBabel10282417072D

 49 49  0  0  0  0  0  0  0  0999 V2000
   -1.5815    0.1900    0.0000 C   0  0  1  0  0  0  0  0  0  0  0  0
   -0.8671    0.6025    0.0000 O   0  0  0  0  0  0  0  0  0  0  0  0
   -1.5815   -0.6350    0.0000 C   0  0  2  0  0  0  0  0  0  0  0  0
   -0.8671   -1.0476    0.0000 O   0  0  0  0  0  0  0  0  0  0  0  0
   -2.2961   -1.0476    0.0000 C   0  0  2  0  0  0  0  0  0  0  0  0
   -3.0106   -0.6350    0.0000 C   0  0  1  0  0  0  0  0  0  0  0  0
   -3.7251   -1.0476    0.0000 O   0  0  0  0  0  0  0  0  0  0  0  0
   -3.0106    0.1900    0.0000 C   0  0  2  0  0  0  0  0  0  0  0  0
   -2.2961    0.6025    0.0000 O   0  0  0  0  0  0  0  0  0  0  0  0
   -3.7251    0.6025    0.0000 C   0  0  0  0  0  0  0  0  0  0  0  0
   -3.7251    1.4276    0.0000 O   0  0  0  0  0  0  0  0  0  0  0  0
   -2.2961   -1.8726    0.0000 N   0  0  0  0  0  0  0  0  0  0  0  0
   -0.1525    0.1900    0.0000 C   0  0  0  0  0  0  0  0  0  0  0  0
    0.5620    0.6025    0.0000 C   0  0  0  0  0  0  0  0  0  0  0  0
    1.2766    0.1900    0.0000 C   0  0  0  0  0  0  0  0  0  0  0  0
    1.9910    0.6025    0.0000 C   0  0  0  0  0  0  0  0  0  0  0  0
    2.7056    0.1900    0.0000 C   0  0  0  0  0  0  0  0  0  0  0  0
    3.4202    0.6025    0.0000 C   0  0  0  0  0  0  0  0  0  0  0  0
    4.1346    0.1900    0.0000 C   0  0  0  0  0  0  0  0  0  0  0  0
    4.8492    0.6025    0.0000 C   0  0  0  0  0  0  0  0  0  0  0  0
   -1.0065    0.0886    0.0000 H   0  0  0  0  0  0  0  0  0  0  0  0
   -1.0065   -0.5336    0.0000 H   0  0  0  0  0  0  0  0  0  0  0  0
   -1.7903   -1.3396    0.0000 H   0  0  0  0  0  0  0  0  0  0  0  0
   -3.0106   -1.2190    0.0000 H   0  0  0  0  0  0  0  0  0  0  0  0
   -3.5164   -0.1020    0.0000 H   0  0  0  0  0  0  0  0  0  0  0  0
   -0.8672   -2.0176    0.0000 H   0  0  0  0  0  0  0  0  0  0  0  0
   -4.5652   -0.5627    0.0000 H   0  0  0  0  0  0  0  0  0  0  0  0
   -4.6517    0.0675    0.0000 H   0  0  0  0  0  0  0  0  0  0  0  0
   -4.6517    1.1375    0.0000 H   0  0  0  0  0  0  0  0  0  0  0  0
   -2.8851    1.9126    0.0000 H   0  0  0  0  0  0  0  0  0  0  0  0
   -3.1794   -2.3826    0.0000 H   0  0  0  0  0  0  0  0  0  0  0  0
   -1.4128   -2.3826    0.0000 H   0  0  0  0  0  0  0  0  0  0  0  0
   -0.1525   -0.8800    0.0000 H   0  0  0  0  0  0  0  0  0  0  0  0
    0.7742   -0.3450    0.0000 H   0  0  0  0  0  0  0  0  0  0  0  0
    0.5620    1.6725    0.0000 H   0  0  0  0  0  0  0  0  0  0  0  0
    1.4886    1.1376    0.0000 H   0  0  0  0  0  0  0  0  0  0  0  0
    1.2767   -0.8800    0.0000 H   0  0  0  0  0  0  0  0  0  0  0  0
    2.2033   -0.3450    0.0000 H   0  0  0  0  0  0  0  0  0  0  0  0
    1.9909    1.6725    0.0000 H   0  0  0  0  0  0  0  0  0  0  0  0
    2.9176    1.1376    0.0000 H   0  0  0  0  0  0  0  0  0  0  0  0
    2.7056   -0.8800    0.0000 H   0  0  0  0  0  0  0  0  0  0  0  0
    3.6322   -0.3450    0.0000 H   0  0  0  0  0  0  0  0  0  0  0  0
    3.4203    1.6725    0.0000 H   0  0  0  0  0  0  0  0  0  0  0  0
    4.3469    1.1375    0.0000 H   0  0  0  0  0  0  0  0  0  0  0  0
    4.1345   -0.8800    0.0000 H   0  0  0  0  0  0  0  0  0  0  0  0
    5.0612   -0.3451    0.0000 H   0  0  0  0  0  0  0  0  0  0  0  0
    5.7758    0.0674    0.0000 H   0  0  0  0  0  0  0  0  0  0  0  0
    4.8493    1.6725    0.0000 H   0  0  0  0  0  0  0  0  0  0  0  0
    5.7759    1.1374    0.0000 H   0  0  0  0  0  0  0  0  0  0  0  0
  1  2  1  0  0  0  0
  1  3  1  0  0  0  0
  1  9  1  0  0  0  0
  1 21  1  6  0  0  0
  2 13  1  0  0  0  0
  3  4  1  0  0  0  0
  3  5  1  0  0  0  0
  3 22  1  1  0  0  0
  4 26  1  0  0  0  0
  5  6  1  0  0  0  0
  5 12  1  0  0  0  0
  5 23  1  6  0  0  0
  6  7  1  0  0  0  0
  6  8  1  0  0  0  0
  6 24  1  6  0  0  0
  7 27  1  0  0  0  0
  8  9  1  0  0  0  0
  8 10  1  0  0  0  0
  8 25  1  6  0  0  0
 10 11  1  0  0  0  0
 10 28  1  0  0  0  0
 10 29  1  0  0  0  0
 11 30  1  0  0  0  0
 12 31  1  0  0  0  0
 12 32  1  0  0  0  0
 13 14  1  0  0  0  0
 13 33  1  0  0  0  0
 13 34  1  0  0  0  0
 14 15  1  0  0  0  0
 14 35  1  0  0  0  0
 14 36  1  0  0  0  0
 15 16  1  0  0  0  0
 15 37  1  0  0  0  0
 15 38  1  0  0  0  0
 16 17  1  0  0  0  0
 16 39  1  0  0  0  0
 16 40  1  0  0  0  0
 17 18  1  0  0  0  0
 17 41  1  0  0  0  0
 17 42  1  0  0  0  0
 18 19  1  0  0  0  0
 18 43  1  0  0  0  0
 18 44  1  0  0  0  0
 19 20  1  0  0  0  0
 19 45  1  0  0  0  0
 19 46  1  0  0  0  0
 20 47  1  0  0  0  0
 20 48  1  0  0  0  0
 20 49  1  0  0  0  0
M  END
>  <DRUGBANK_ID>
DB07378

>  <COMMON_NAME>
4-AMINO-2-OCTYLOXY-6-HYDROXYMETHYL-TETRAHYDRO-PYRAN-3,5-DIOL

$$$$
