FII
 OpenBabel10282417072D

 54 53  0  0  0  0  0  0  0  0999 V2000
   -3.4211    3.8711    0.0000 C   0  0  0  0  0  0  0  0  0  0  0  0
   -2.7066    3.4586    0.0000 C   0  0  0  0  0  0  0  0  0  0  0  0
   -1.9922    3.8711    0.0000 C   0  0  0  0  0  0  0  0  0  0  0  0
   -2.7066    2.6336    0.0000 C   0  0  0  0  0  0  0  0  0  0  0  0
   -1.9922    2.2211    0.0000 C   0  0  0  0  0  0  0  0  0  0  0  0
   -1.9922    1.3961    0.0000 C   0  0  0  0  0  0  0  0  0  0  0  0
   -1.2777    0.9836    0.0000 C   0  0  0  0  0  0  0  0  0  0  0  0
   -0.5632    1.3961    0.0000 C   0  0  0  0  0  0  0  0  0  0  0  0
   -1.2777    0.1586    0.0000 C   0  0  0  0  0  0  0  0  0  0  0  0
   -0.5632   -0.2539    0.0000 C   0  0  0  0  0  0  0  0  0  0  0  0
   -0.5632   -1.0789    0.0000 C   0  0  0  0  0  0  0  0  0  0  0  0
    0.1512   -1.4914    0.0000 C   0  0  0  0  0  0  0  0  0  0  0  0
    0.8657   -1.0789    0.0000 C   0  0  0  0  0  0  0  0  0  0  0  0
    0.1512   -2.3164    0.0000 C   0  0  0  0  0  0  0  0  0  0  0  0
    0.8657   -2.7289    0.0000 C   0  0  0  0  0  0  0  0  0  0  0  0
    1.5802   -2.3164    0.0000 O   0  0  0  0  0  0  0  0  0  0  0  0
    2.2947   -2.7289    0.0000 N   0  0  0  0  0  0  0  0  0  0  0  0
    3.0091   -2.3164    0.0000 C   0  0  0  0  0  0  0  0  0  0  0  0
    3.0091   -1.4914    0.0000 O   0  0  0  0  0  0  0  0  0  0  0  0
    3.7236   -2.7289    0.0000 C   0  0  0  0  0  0  0  0  0  0  0  0
    4.4381   -2.3164    0.0000 P   0  0  0  0  0  0  0  0  0  0  0  0
    5.1525   -1.9039    0.0000 O   0  0  0  0  0  0  0  0  0  0  0  0
    4.8506   -3.0309    0.0000 O   0  0  0  0  0  0  0  0  0  0  0  0
    4.0256   -1.6019    0.0000 O   0  0  0  0  0  0  0  0  0  0  0  0
   -3.4211    4.9411    0.0000 H   0  0  0  0  0  0  0  0  0  0  0  0
   -4.3477    3.3361    0.0000 H   0  0  0  0  0  0  0  0  0  0  0  0
   -4.3478    4.4061    0.0000 H   0  0  0  0  0  0  0  0  0  0  0  0
   -1.0655    3.3361    0.0000 H   0  0  0  0  0  0  0  0  0  0  0  0
   -1.9922    4.9411    0.0000 H   0  0  0  0  0  0  0  0  0  0  0  0
   -1.0656    4.4061    0.0000 H   0  0  0  0  0  0  0  0  0  0  0  0
   -3.6003    2.1176    0.0000 H   0  0  0  0  0  0  0  0  0  0  0  0
   -1.0655    2.7561    0.0000 H   0  0  0  0  0  0  0  0  0  0  0  0
   -1.0656    1.6861    0.0000 H   0  0  0  0  0  0  0  0  0  0  0  0
   -2.9188    0.8611    0.0000 H   0  0  0  0  0  0  0  0  0  0  0  0
   -1.9922    0.3261    0.0000 H   0  0  0  0  0  0  0  0  0  0  0  0
    0.3634    0.8611    0.0000 H   0  0  0  0  0  0  0  0  0  0  0  0
   -0.5632    2.4661    0.0000 H   0  0  0  0  0  0  0  0  0  0  0  0
    0.3635    1.9311    0.0000 H   0  0  0  0  0  0  0  0  0  0  0  0
   -2.1714   -0.3574    0.0000 H   0  0  0  0  0  0  0  0  0  0  0  0
    0.3634    0.2811    0.0000 H   0  0  0  0  0  0  0  0  0  0  0  0
    0.3634   -0.7889    0.0000 H   0  0  0  0  0  0  0  0  0  0  0  0
   -1.4899   -1.6139    0.0000 H   0  0  0  0  0  0  0  0  0  0  0  0
   -0.5632   -2.1489    0.0000 H   0  0  0  0  0  0  0  0  0  0  0  0
    1.7923   -1.6139    0.0000 H   0  0  0  0  0  0  0  0  0  0  0  0
    0.8657   -0.0089    0.0000 H   0  0  0  0  0  0  0  0  0  0  0  0
    1.7924   -0.5439    0.0000 H   0  0  0  0  0  0  0  0  0  0  0  0
   -0.7425   -2.8324    0.0000 H   0  0  0  0  0  0  0  0  0  0  0  0
    0.8657   -3.7989    0.0000 H   0  0  0  0  0  0  0  0  0  0  0  0
    1.7923   -3.2639    0.0000 H   0  0  0  0  0  0  0  0  0  0  0  0
    2.2947   -3.7134    0.0000 H   0  0  0  0  0  0  0  0  0  0  0  0
    3.7236   -3.7989    0.0000 H   0  0  0  0  0  0  0  0  0  0  0  0
    4.6502   -3.2639    0.0000 H   0  0  0  0  0  0  0  0  0  0  0  0
    4.3656   -3.8709    0.0000 H   0  0  0  0  0  0  0  0  0  0  0  0
    4.5106   -0.7619    0.0000 H   0  0  0  0  0  0  0  0  0  0  0  0
  1  2  1  0  0  0  0
  1 25  1  0  0  0  0
  1 26  1  0  0  0  0
  1 27  1  0  0  0  0
  2  3  1  0  0  0  0
  2  4  2  0  0  0  0
  3 28  1  0  0  0  0
  3 29  1  0  0  0  0
  3 30  1  0  0  0  0
  4  5  1  0  0  0  0
  4 31  1  0  0  0  0
  5  6  1  0  0  0  0
  5 32  1  0  0  0  0
  5 33  1  0  0  0  0
  6  7  1  0  0  0  0
  6 34  1  0  0  0  0
  6 35  1  0  0  0  0
  7  8  1  0  0  0  0
  7  9  2  0  0  0  0
  8 36  1  0  0  0  0
  8 37  1  0  0  0  0
  8 38  1  0  0  0  0
  9 10  1  0  0  0  0
  9 39  1  0  0  0  0
 10 11  1  0  0  0  0
 10 40  1  0  0  0  0
 10 41  1  0  0  0  0
 11 12  1  0  0  0  0
 11 42  1  0  0  0  0
 11 43  1  0  0  0  0
 12 13  1  0  0  0  0
 12 14  2  0  0  0  0
 13 44  1  0  0  0  0
 13 45  1  0  0  0  0
 13 46  1  0  0  0  0
 14 15  1  0  0  0  0
 14 47  1  0  0  0  0
 15 16  1  0  0  0  0
 15 48  1  0  0  0  0
 15 49  1  0  0  0  0
 16 17  1  0  0  0  0
 17 18  1  0  0  0  0
 17 50  1  0  0  0  0
 18 19  2  0  0  0  0
 18 20  1  0  0  0  0
 20 21  1  0  0  0  0
 20 51  1  0  0  0  0
 20 52  1  0  0  0  0
 21 22  2  0  0  0  0
 21 23  1  0  0  0  0
 21 24  1  0  0  0  0
 23 53  1  0  0  0  0
 24 54  1  0  0  0  0
M  END
>  <DRUGBANK_ID>
DB07771

>  <COMMON_NAME>
[(3,7,11-TRIMETHYL-DODECA-2,6,10-TRIENYLOXYCARBAMOYL)-METHYL]-PHOSPHONIC ACID

$$$$
