F25
 OpenBabel10282417072D

 59 63  0  0  0  0  0  0  0  0999 V2000
   -1.0286    0.0174    0.0000 O   0  0  0  0  0  0  0  0  0  0  0  0
   -0.5437   -0.6500    0.0000 C   0  0  0  0  0  0  0  0  0  0  0  0
   -0.7986   -1.4347    0.0000 N   0  0  0  0  0  0  0  0  0  0  0  0
   -1.5833   -1.6896    0.0000 C   0  0  0  0  0  0  0  0  0  0  0  0
   -2.1963   -1.1376    0.0000 C   0  0  0  0  0  0  0  0  0  0  0  0
   -2.9810   -1.3925    0.0000 C   0  0  0  0  0  0  0  0  0  0  0  0
   -3.5941   -0.8405    0.0000 C   0  0  0  0  0  0  0  0  0  0  0  0
   -3.4225   -0.0335    0.0000 C   0  0  0  0  0  0  0  0  0  0  0  0
   -4.0356    0.5185    0.0000 F   0  0  0  0  0  0  0  0  0  0  0  0
   -2.6379    0.2214    0.0000 C   0  0  0  0  0  0  0  0  0  0  0  0
   -2.0248   -0.3306    0.0000 C   0  0  0  0  0  0  0  0  0  0  0  0
   -0.1312   -1.9196    0.0000 C   0  0  1  0  0  0  0  0  0  0  0  0
    0.5362   -1.4347    0.0000 C   0  0  1  0  0  0  0  0  0  0  0  0
    1.3612   -1.4347    0.0000 C   0  0  1  0  0  0  0  0  0  0  0  0
    1.6162   -0.6500    0.0000 N   0  0  2  0  0  0  0  0  0  0  0  0
    2.4412   -0.6500    0.0000 C   0  0  0  0  0  0  0  0  0  0  0  0
    2.6961   -1.4347    0.0000 C   0  0  0  0  0  0  0  0  0  0  0  0
    2.0287   -1.9196    0.0000 C   0  0  0  0  0  0  0  0  0  0  0  0
    0.9487   -0.1651    0.0000 C   0  0  1  0  0  0  0  0  0  0  0  0
    0.9487    0.6599    0.0000 C   0  0  0  0  0  0  0  0  0  0  0  0
    0.2343    1.0724    0.0000 C   0  0  0  0  0  0  0  0  0  0  0  0
    0.2343    1.8974    0.0000 C   0  0  0  0  0  0  0  0  0  0  0  0
    0.9487    2.3099    0.0000 C   0  0  0  0  0  0  0  0  0  0  0  0
    1.6632    1.8974    0.0000 C   0  0  0  0  0  0  0  0  0  0  0  0
    1.6632    1.0724    0.0000 C   0  0  0  0  0  0  0  0  0  0  0  0
    0.9487    3.1349    0.0000 C   0  0  0  0  0  0  0  0  0  0  0  0
    0.2343    3.5474    0.0000 N   0  0  0  0  0  0  0  0  0  0  0  0
    1.6632    3.5474    0.0000 N   0  0  0  0  0  0  0  0  0  0  0  0
    0.2813   -0.6500    0.0000 C   0  0  1  0  0  0  0  0  0  0  0  0
   -0.1312   -2.7446    0.0000 C   0  0  0  0  0  0  0  0  0  0  0  0
    0.5833   -3.1571    0.0000 F   0  0  0  0  0  0  0  0  0  0  0  0
   -0.8457   -3.1571    0.0000 F   0  0  0  0  0  0  0  0  0  0  0  0
   -0.6515   -2.1847    0.0000 H   0  0  0  0  0  0  0  0  0  0  0  0
    0.7167   -1.9900    0.0000 H   0  0  0  0  0  0  0  0  0  0  0  0
    1.1808   -1.9900    0.0000 H   0  0  0  0  0  0  0  0  0  0  0  0
    1.4690    0.1000    0.0000 H   0  0  0  0  0  0  0  0  0  0  0  0
    0.1009   -0.0947    0.0000 H   0  0  0  0  0  0  0  0  0  0  0  0
   -1.8058   -2.7362    0.0000 H   0  0  0  0  0  0  0  0  0  0  0  0
   -2.6009   -2.0202    0.0000 H   0  0  0  0  0  0  0  0  0  0  0  0
   -3.1956   -2.4019    0.0000 H   0  0  0  0  0  0  0  0  0  0  0  0
   -4.5756   -1.1594    0.0000 H   0  0  0  0  0  0  0  0  0  0  0  0
   -2.4233    1.2308    0.0000 H   0  0  0  0  0  0  0  0  0  0  0  0
   -1.0433   -0.0117    0.0000 H   0  0  0  0  0  0  0  0  0  0  0  0
    3.0702    0.2156    0.0000 H   0  0  0  0  0  0  0  0  0  0  0  0
    3.4980   -0.8174    0.0000 H   0  0  0  0  0  0  0  0  0  0  0  0
    3.7137   -1.7654    0.0000 H   0  0  0  0  0  0  0  0  0  0  0  0
    2.8635   -2.4915    0.0000 H   0  0  0  0  0  0  0  0  0  0  0  0
    2.0287   -2.9896    0.0000 H   0  0  0  0  0  0  0  0  0  0  0  0
    2.9821   -2.4054    0.0000 H   0  0  0  0  0  0  0  0  0  0  0  0
   -0.6594    0.5564    0.0000 H   0  0  0  0  0  0  0  0  0  0  0  0
   -0.6594    2.4134    0.0000 H   0  0  0  0  0  0  0  0  0  0  0  0
    2.5569    2.4134    0.0000 H   0  0  0  0  0  0  0  0  0  0  0  0
    2.5569    0.5564    0.0000 H   0  0  0  0  0  0  0  0  0  0  0  0
    0.9487    4.2049    0.0000 H   0  0  0  0  0  0  0  0  0  0  0  0
    0.2343    4.5674    0.0000 H   0  0  0  0  0  0  0  0  0  0  0  0
   -0.6491    3.0374    0.0000 H   0  0  0  0  0  0  0  0  0  0  0  0
    2.5465    3.0374    0.0000 H   0  0  0  0  0  0  0  0  0  0  0  0
    1.6632    4.5674    0.0000 H   0  0  0  0  0  0  0  0  0  0  0  0
   -0.1312   -3.8146    0.0000 H   0  0  0  0  0  0  0  0  0  0  0  0
  1  2  2  0  0  0  0
  2  3  1  0  0  0  0
  2 29  1  0  0  0  0
  3  4  1  0  0  0  0
  3 12  1  0  0  0  0
  4  5  1  0  0  0  0
  4 38  1  0  0  0  0
  4 39  1  0  0  0  0
  5  6  2  0  0  0  0
  5 11  1  0  0  0  0
  6  7  1  0  0  0  0
  6 40  1  0  0  0  0
  7  8  2  0  0  0  0
  7 41  1  0  0  0  0
  8  9  1  0  0  0  0
  8 10  1  0  0  0  0
 10 11  2  0  0  0  0
 10 42  1  0  0  0  0
 11 43  1  0  0  0  0
 12 13  1  0  0  0  0
 12 30  1  0  0  0  0
 12 33  1  6  0  0  0
 13 14  1  0  0  0  0
 13 29  1  0  0  0  0
 13 34  1  1  0  0  0
 14 15  1  0  0  0  0
 14 18  1  0  0  0  0
 14 35  1  6  0  0  0
 15 16  1  1  0  0  0
 15 19  1  0  0  0  0
 16 17  1  0  0  0  0
 16 44  1  0  0  0  0
 16 45  1  0  0  0  0
 17 18  1  0  0  0  0
 17 46  1  0  0  0  0
 17 47  1  0  0  0  0
 18 48  1  0  0  0  0
 18 49  1  0  0  0  0
 19 20  1  0  0  0  0
 19 29  1  0  0  0  0
 19 36  1  1  0  0  0
 20 21  2  0  0  0  0
 20 25  1  0  0  0  0
 21 22  1  0  0  0  0
 21 50  1  0  0  0  0
 22 23  2  0  0  0  0
 22 51  1  0  0  0  0
 23 24  1  0  0  0  0
 23 26  1  0  0  0  0
 24 25  2  0  0  0  0
 24 52  1  0  0  0  0
 25 53  1  0  0  0  0
 26 27  1  0  0  0  0
 26 28  1  0  0  0  0
 26 54  1  0  0  0  0
 27 55  1  0  0  0  0
 27 56  1  0  0  0  0
 28 57  1  0  0  0  0
 28 58  1  0  0  0  0
 29 37  1  1  0  0  0
 30 31  1  0  0  0  0
 30 32  1  0  0  0  0
 30 59  1  0  0  0  0
M  END
>  <DRUGBANK_ID>
DB07741

>  <COMMON_NAME>
4-(1R,3AS,4R,8AS,8BR)-[1-DIFLUOROMETHYL-2-(4-FLUOROBENZYL)-3-OXODECAHYDROPYRROLO[3,4-A]PYRROLIZIN-4-YL]BENZAMIDINE

$$$$
