
 OpenBabel10282417072D

 54 54  0  0  0  0  0  0  0  0999 V2000
   -1.7861   -5.2057    0.0000 I   0  0  0  0  0  0  0  0  0  0  0  0
   -1.0717   -0.6682    0.0000 S   0  0  0  0  0  0  0  0  0  0  0  0
   -0.3572    2.2192    0.0000 O   0  0  0  0  0  0  0  0  0  0  0  0
    0.3572    1.8067    0.0000 O   0  0  0  0  0  0  0  0  0  0  0  0
   -0.3572   -1.9057    0.0000 O   0  0  0  0  0  0  0  0  0  0  0  0
   -3.2151    4.6942    0.0000 O   0  0  0  0  0  0  0  0  0  0  0  0
   -2.5006   -1.4932    0.0000 O   0  0  0  0  0  0  0  0  0  0  0  0
   -1.7861    4.6942    0.0000 O   0  0  0  0  0  0  0  0  0  0  0  0
    3.2151    0.9817    0.0000 O   0  0  0  0  0  0  0  0  0  0  0  0
    2.5006   -0.2557    0.0000 O   0  0  0  0  0  0  0  0  0  0  0  0
   -1.0717    0.9817    0.0000 N   0  0  0  0  0  0  0  0  0  0  0  0
    1.0717    0.5692    0.0000 N   0  0  0  0  0  0  0  0  0  0  0  0
   -3.2151    3.0442    0.0000 N   0  0  0  0  0  0  0  0  0  0  0  0
   -1.7861   -1.9057    0.0000 N   0  0  0  0  0  0  0  0  0  0  0  0
   -0.3572    0.5692    0.0000 C   0  0  1  0  0  0  0  0  0  0  0  0
   -1.7861    3.0442    0.0000 C   0  0  0  0  0  0  0  0  0  0  0  0
   -1.7861    2.2192    0.0000 C   0  0  0  0  0  0  0  0  0  0  0  0
   -0.3572   -0.2557    0.0000 C   0  0  0  0  0  0  0  0  0  0  0  0
   -2.5006    3.4567    0.0000 C   0  0  1  0  0  0  0  0  0  0  0  0
   -1.0717    1.8067    0.0000 C   0  0  0  0  0  0  0  0  0  0  0  0
    0.3572    0.9817    0.0000 C   0  0  0  0  0  0  0  0  0  0  0  0
   -1.0717   -1.4932    0.0000 C   0  0  1  0  0  0  0  0  0  0  0  0
   -2.5006    4.2817    0.0000 C   0  0  0  0  0  0  0  0  0  0  0  0
    1.7861    0.9817    0.0000 C   0  0  0  0  0  0  0  0  0  0  0  0
   -1.7861   -2.7307    0.0000 C   0  0  0  0  0  0  0  0  0  0  0  0
   -1.0717   -3.1432    0.0000 C   0  0  0  0  0  0  0  0  0  0  0  0
   -2.5006   -3.1432    0.0000 C   0  0  0  0  0  0  0  0  0  0  0  0
    2.5006    0.5692    0.0000 C   0  0  0  0  0  0  0  0  0  0  0  0
   -1.0717   -3.9682    0.0000 C   0  0  0  0  0  0  0  0  0  0  0  0
   -2.5006   -3.9682    0.0000 C   0  0  0  0  0  0  0  0  0  0  0  0
   -1.7861   -4.3807    0.0000 C   0  0  0  0  0  0  0  0  0  0  0  0
   -0.3572   -2.8757    0.0000 H   0  0  0  0  0  0  0  0  0  0  0  0
   -3.2151    5.6312    0.0000 H   0  0  0  0  0  0  0  0  0  0  0  0
   -2.5006   -0.5232    0.0000 H   0  0  0  0  0  0  0  0  0  0  0  0
    4.0266    0.5132    0.0000 H   0  0  0  0  0  0  0  0  0  0  0  0
   -1.9243    0.4894    0.0000 H   0  0  0  0  0  0  0  0  0  0  0  0
    1.0717   -0.4153    0.0000 H   0  0  0  0  0  0  0  0  0  0  0  0
   -4.0984    3.5542    0.0000 H   0  0  0  0  0  0  0  0  0  0  0  0
   -3.2151    2.0242    0.0000 H   0  0  0  0  0  0  0  0  0  0  0  0
   -1.2838    0.0342    0.0000 H   0  0  0  0  0  0  0  0  0  0  0  0
   -0.8595    3.5792    0.0000 H   0  0  0  0  0  0  0  0  0  0  0  0
   -1.7861    4.1142    0.0000 H   0  0  0  0  0  0  0  0  0  0  0  0
   -2.7128    1.6842    0.0000 H   0  0  0  0  0  0  0  0  0  0  0  0
   -1.7861    1.1492    0.0000 H   0  0  0  0  0  0  0  0  0  0  0  0
    0.5694   -0.7907    0.0000 H   0  0  0  0  0  0  0  0  0  0  0  0
    0.5694    0.2793    0.0000 H   0  0  0  0  0  0  0  0  0  0  0  0
   -2.5006    2.3867    0.0000 H   0  0  0  0  0  0  0  0  0  0  0  0
   -0.1451   -0.9582    0.0000 H   0  0  0  0  0  0  0  0  0  0  0  0
    1.7861    2.0517    0.0000 H   0  0  0  0  0  0  0  0  0  0  0  0
    2.7127    1.5167    0.0000 H   0  0  0  0  0  0  0  0  0  0  0  0
   -0.1780   -2.6272    0.0000 H   0  0  0  0  0  0  0  0  0  0  0  0
   -3.3943   -2.6272    0.0000 H   0  0  0  0  0  0  0  0  0  0  0  0
   -0.1780   -4.4842    0.0000 H   0  0  0  0  0  0  0  0  0  0  0  0
   -3.3943   -4.4842    0.0000 H   0  0  0  0  0  0  0  0  0  0  0  0
  1 31  1  0  0  0  0
  2 18  1  0  0  0  0
  2 22  1  0  0  0  0
  3 20  2  0  0  0  0
  4 21  2  0  0  0  0
  5 32  1  0  0  0  0
  6 23  1  0  0  0  0
  6 33  1  0  0  0  0
  7 14  1  0  0  0  0
  7 34  1  0  0  0  0
  8 23  2  0  0  0  0
  9 28  1  0  0  0  0
  9 35  1  0  0  0  0
 10 28  2  0  0  0  0
 11 20  1  0  0  0  0
 11 36  1  0  0  0  0
 12 21  1  0  0  0  0
 12 24  1  0  0  0  0
 12 37  1  0  0  0  0
 13 38  1  0  0  0  0
 13 39  1  0  0  0  0
 14 22  1  0  0  0  0
 14 25  1  0  0  0  0
 15 11  1  0  0  0  0
 15 18  1  0  0  0  0
 15 21  1  0  0  0  0
 15 40  1  1  0  0  0
 16 17  1  0  0  0  0
 16 19  1  0  0  0  0
 16 41  1  0  0  0  0
 16 42  1  0  0  0  0
 17 20  1  0  0  0  0
 17 43  1  0  0  0  0
 17 44  1  0  0  0  0
 18 45  1  0  0  0  0
 18 46  1  0  0  0  0
 19 13  1  0  0  0  0
 19 23  1  0  0  0  0
 19 47  1  1  0  0  0
 22  5  1  0  0  0  0
 22 48  1  6  0  0  0
 24 28  1  0  0  0  0
 24 49  1  0  0  0  0
 24 50  1  0  0  0  0
 25 26  2  0  0  0  0
 25 27  1  0  0  0  0
 26 29  1  0  0  0  0
 26 51  1  0  0  0  0
 27 30  2  0  0  0  0
 27 52  1  0  0  0  0
 29 31  2  0  0  0  0
 29 53  1  0  0  0  0
 30 31  1  0  0  0  0
 30 54  1  0  0  0  0
M  END
>  <DRUGBANK_ID>
DB03330

>  <SECONDARY_ACCESSION_NUMBERS>
EXPT01593

>  <COMMON_NAME>
S-(N-hydroxy-N-iodophenylcarbamoyl)glutathione

>  <SYNONYMS>
(2S)-2-Amino-5-[[(2R)-1-(carboxymethylamino)-3-[(R)-hydroxy-(N-hydroxy-4-iodoanilino)methyl]sulfanyl-1-oxopropan-2-yl]amino]-5-oxopentanoic acid

$$$$
