1338
 OpenBabel10282417072D

105110  0  0  1  0  0  0  0  0999 V2000
    9.3673    1.6979    0.0000 O   0  0  0  0  0  0  0  0  0  0  0  0
    3.8811   -1.8559    0.0000 O   0  0  0  0  0  0  0  0  0  0  0  0
    8.0091    2.1418    0.0000 O   0  0  0  0  0  0  0  0  0  0  0  0
    4.5907   -3.0962    0.0000 O   0  0  0  0  0  0  0  0  0  0  0  0
   10.4176    0.2498    0.0000 N   0  0  0  0  0  0  0  0  0  0  0  0
    3.8943   -0.1303    0.0000 N   0  0  0  0  0  0  0  0  0  0  0  0
   12.0676    0.2498    0.0000 N   0  3  0  0  0  0  0  0  0  0  0  0
    2.4750    0.7112    0.0000 N   0  3  0  0  0  0  0  0  0  0  0  0
    7.6159   -0.5752    0.0000 C   0  0  2  0  0  0  0  0  0  0  0  0
    6.9014   -0.1627    0.0000 C   0  0  1  0  0  0  0  0  0  0  0  0
    8.3305   -0.1627    0.0000 C   0  0  1  0  0  0  0  0  0  0  0  0
    8.3305    0.6623    0.0000 C   0  0  2  0  0  0  0  0  0  0  0  0
    6.1507   -0.5809    0.0000 C   0  0  2  0  0  0  0  0  0  0  0  0
    6.1441   -1.4402    0.0000 C   0  0  1  0  0  0  0  0  0  0  0  0
    6.9014    0.6623    0.0000 C   0  0  0  0  0  0  0  0  0  0  0  0
    7.6159    1.0748    0.0000 C   0  0  0  0  0  0  0  0  0  0  0  0
    9.1111    0.9137    0.0000 C   0  0  2  0  0  0  0  0  0  0  0  0
    9.1111   -0.4141    0.0000 C   0  0  0  0  0  0  0  0  0  0  0  0
    7.6292   -1.4345    0.0000 C   0  0  0  0  0  0  0  0  0  0  0  0
    9.5926    0.2498    0.0000 C   0  0  2  0  0  0  0  0  0  0  0  0
    6.8883   -1.8699    0.0000 C   0  0  0  0  0  0  0  0  0  0  0  0
    5.3860   -0.1155    0.0000 C   0  0  0  0  0  0  0  0  0  0  0  0
    5.3724   -1.8937    0.0000 C   0  0  0  0  0  0  0  0  0  0  0  0
    4.6040   -0.5510    0.0000 C   0  0  1  0  0  0  0  0  0  0  0  0
    8.3305    1.4873    0.0000 C   0  0  0  0  0  0  0  0  0  0  0  0
    6.1570    0.2441    0.0000 C   0  0  0  0  0  0  0  0  0  0  0  0
    4.5971   -1.4462    0.0000 C   0  0  1  0  0  0  0  0  0  0  0  0
   10.8301   -0.4647    0.0000 C   0  0  0  0  0  0  0  0  0  0  0  0
   10.8301    0.9643    0.0000 C   0  0  0  0  0  0  0  0  0  0  0  0
    3.1752   -0.5345    0.0000 C   0  0  0  0  0  0  0  0  0  0  0  0
    3.9039    0.6947    0.0000 C   0  0  0  0  0  0  0  0  0  0  0  0
   11.6551   -0.4647    0.0000 C   0  0  0  0  0  0  0  0  0  0  0  0
   11.6551    0.9643    0.0000 C   0  0  0  0  0  0  0  0  0  0  0  0
    2.4655   -0.1138    0.0000 C   0  0  0  0  0  0  0  0  0  0  0  0
    3.1942    1.1154    0.0000 C   0  0  0  0  0  0  0  0  0  0  0  0
    8.8164    2.3119    0.0000 C   0  0  0  0  0  0  0  0  0  0  0  0
   12.7821   -0.1627    0.0000 C   0  0  0  0  0  0  0  0  0  0  0  0
   12.7821    0.6623    0.0000 C   0  0  0  0  0  0  0  0  0  0  0  0
    3.8778   -2.6809    0.0000 C   0  0  0  0  0  0  0  0  0  0  0  0
    2.0708    1.4304    0.0000 C   0  0  0  0  0  0  0  0  0  0  0  0
    1.6500    0.7207    0.0000 C   0  0  0  0  0  0  0  0  0  0  0  0
    9.0727    3.0962    0.0000 C   0  0  0  0  0  0  0  0  0  0  0  0
    3.1618   -3.0907    0.0000 C   0  0  0  0  0  0  0  0  0  0  0  0
    8.1900   -0.9008    0.0000 H   0  0  0  0  0  0  0  0  0  0  0  0
    7.4730    0.1673    0.0000 H   0  0  0  0  0  0  0  0  0  0  0  0
    8.4003   -0.8190    0.0000 H   0  0  0  0  0  0  0  0  0  0  0  0
    6.1466   -2.1002    0.0000 H   0  0  0  0  0  0  0  0  0  0  0  0
    5.9748    1.1973    0.0000 H   0  0  0  0  0  0  0  0  0  0  0  0
    6.9014    1.7323    0.0000 H   0  0  0  0  0  0  0  0  0  0  0  0
    7.6159    2.1448    0.0000 H   0  0  0  0  0  0  0  0  0  0  0  0
    6.6892    1.6098    0.0000 H   0  0  0  0  0  0  0  0  0  0  0  0
    8.3561    1.6719    0.0000 H   0  0  0  0  0  0  0  0  0  0  0  0
    9.4435   -1.4312    0.0000 H   0  0  0  0  0  0  0  0  0  0  0  0
   10.1681   -0.5801    0.0000 H   0  0  0  0  0  0  0  0  0  0  0  0
    8.5620   -1.9587    0.0000 H   0  0  0  0  0  0  0  0  0  0  0  0
    7.6395   -2.5045    0.0000 H   0  0  0  0  0  0  0  0  0  0  0  0
   10.0788    1.2030    0.0000 H   0  0  0  0  0  0  0  0  0  0  0  0
    6.8924   -2.9399    0.0000 H   0  0  0  0  0  0  0  0  0  0  0  0
    7.8180   -2.3995    0.0000 H   0  0  0  0  0  0  0  0  0  0  0  0
    5.4066    0.9543    0.0000 H   0  0  0  0  0  0  0  0  0  0  0  0
    4.4688    0.4355    0.0000 H   0  0  0  0  0  0  0  0  0  0  0  0
    5.3766   -2.9637    0.0000 H   0  0  0  0  0  0  0  0  0  0  0  0
    4.4468   -2.4306    0.0000 H   0  0  0  0  0  0  0  0  0  0  0  0
    4.6184    0.5189    0.0000 H   0  0  0  0  0  0  0  0  0  0  0  0
    9.2571    2.0223    0.0000 H   0  0  0  0  0  0  0  0  0  0  0  0
    7.4039    2.0223    0.0000 H   0  0  0  0  0  0  0  0  0  0  0  0
    8.3305    2.5573    0.0000 H   0  0  0  0  0  0  0  0  0  0  0  0
    7.0877    0.7720    0.0000 H   0  0  0  0  0  0  0  0  0  0  0  0
    5.2345    0.7862    0.0000 H   0  0  0  0  0  0  0  0  0  0  0  0
    6.1652    1.3141    0.0000 H   0  0  0  0  0  0  0  0  0  0  0  0
    4.5951   -2.5162    0.0000 H   0  0  0  0  0  0  0  0  0  0  0  0
   10.2951   -1.3913    0.0000 H   0  0  0  0  0  0  0  0  0  0  0  0
   11.3651   -1.3913    0.0000 H   0  0  0  0  0  0  0  0  0  0  0  0
   10.2951    1.8909    0.0000 H   0  0  0  0  0  0  0  0  0  0  0  0
   11.3651    1.8909    0.0000 H   0  0  0  0  0  0  0  0  0  0  0  0
    3.1629   -1.6044    0.0000 H   0  0  0  0  0  0  0  0  0  0  0  0
    2.2425   -1.0588    0.0000 H   0  0  0  0  0  0  0  0  0  0  0  0
    4.8367    1.2189    0.0000 H   0  0  0  0  0  0  0  0  0  0  0  0
    3.9162    1.7646    0.0000 H   0  0  0  0  0  0  0  0  0  0  0  0
   12.1901   -1.3913    0.0000 H   0  0  0  0  0  0  0  0  0  0  0  0
   11.1201   -1.3913    0.0000 H   0  0  0  0  0  0  0  0  0  0  0  0
   12.1901    1.8909    0.0000 H   0  0  0  0  0  0  0  0  0  0  0  0
   11.1201    1.8909    0.0000 H   0  0  0  0  0  0  0  0  0  0  0  0
    1.5328   -0.6381    0.0000 H   0  0  0  0  0  0  0  0  0  0  0  0
    2.4532   -1.1837    0.0000 H   0  0  0  0  0  0  0  0  0  0  0  0
    3.2065    2.1853    0.0000 H   0  0  0  0  0  0  0  0  0  0  0  0
    4.1269    1.6397    0.0000 H   0  0  0  0  0  0  0  0  0  0  0  0
   12.7821   -1.2327    0.0000 H   0  0  0  0  0  0  0  0  0  0  0  0
   13.7087    0.3723    0.0000 H   0  0  0  0  0  0  0  0  0  0  0  0
   13.7088   -0.6977    0.0000 H   0  0  0  0  0  0  0  0  0  0  0  0
   13.7087    0.1273    0.0000 H   0  0  0  0  0  0  0  0  0  0  0  0
   12.7821    1.7323    0.0000 H   0  0  0  0  0  0  0  0  0  0  0  0
   13.7088    1.1973    0.0000 H   0  0  0  0  0  0  0  0  0  0  0  0
    2.6165    2.3508    0.0000 H   0  0  0  0  0  0  0  0  0  0  0  0
    1.0009    1.4428    0.0000 H   0  0  0  0  0  0  0  0  0  0  0  0
    1.5466    2.3632    0.0000 H   0  0  0  0  0  0  0  0  0  0  0  0
    1.1257    1.6534    0.0000 H   0  0  0  0  0  0  0  0  0  0  0  0
    1.1044   -0.1997    0.0000 H   0  0  0  0  0  0  0  0  0  0  0  0
    0.5801    0.7330    0.0000 H   0  0  0  0  0  0  0  0  0  0  0  0
   10.1197    3.3169    0.0000 H   0  0  0  0  0  0  0  0  0  0  0  0
    8.3581    3.8926    0.0000 H   0  0  0  0  0  0  0  0  0  0  0  0
    9.4051    4.1133    0.0000 H   0  0  0  0  0  0  0  0  0  0  0  0
    2.2372   -2.5522    0.0000 H   0  0  0  0  0  0  0  0  0  0  0  0
    3.1578   -4.1607    0.0000 H   0  0  0  0  0  0  0  0  0  0  0  0
    2.2331   -3.6222    0.0000 H   0  0  0  0  0  0  0  0  0  0  0  0
  1 36  1  0  0  0  0
  2 39  1  0  0  0  0
  3 36  2  0  0  0  0
  4 39  2  0  0  0  0
  5 28  1  0  0  0  0
  5 29  1  0  0  0  0
  6 30  1  0  0  0  0
  6 31  1  0  0  0  0
  7 32  1  0  0  0  0
  7 33  1  0  0  0  0
  7 37  1  0  0  0  0
  7 38  1  0  0  0  0
  8 34  1  0  0  0  0
  8 35  1  0  0  0  0
  8 40  1  0  0  0  0
  8 41  1  0  0  0  0
  9 10  1  0  0  0  0
  9 11  1  0  0  0  0
  9 19  1  0  0  0  0
  9 44  1  1  0  0  0
 10 13  1  0  0  0  0
 10 15  1  0  0  0  0
 10 45  1  6  0  0  0
 11 12  1  0  0  0  0
 11 18  1  0  0  0  0
 11 46  1  6  0  0  0
 12 16  1  0  0  0  0
 12 17  1  0  0  0  0
 12 25  1  1  0  0  0
 13 14  1  0  0  0  0
 13 22  1  0  0  0  0
 13 26  1  1  0  0  0
 14 21  1  0  0  0  0
 14 23  1  0  0  0  0
 14 47  1  6  0  0  0
 15 16  1  0  0  0  0
 15 48  1  0  0  0  0
 15 49  1  0  0  0  0
 16 50  1  0  0  0  0
 16 51  1  0  0  0  0
 17  1  1  0  0  0  0
 17 20  1  0  0  0  0
 17 52  1  6  0  0  0
 18 20  1  0  0  0  0
 18 53  1  0  0  0  0
 18 54  1  0  0  0  0
 19 21  1  0  0  0  0
 19 55  1  0  0  0  0
 19 56  1  0  0  0  0
 20  5  1  0  0  0  0
 20 57  1  6  0  0  0
 21 58  1  0  0  0  0
 21 59  1  0  0  0  0
 22 24  1  0  0  0  0
 22 60  1  0  0  0  0
 22 61  1  0  0  0  0
 23 27  1  0  0  0  0
 23 62  1  0  0  0  0
 23 63  1  0  0  0  0
 24  6  1  0  0  0  0
 24 27  1  0  0  0  0
 24 64  1  6  0  0  0
 25 65  1  0  0  0  0
 25 66  1  0  0  0  0
 25 67  1  0  0  0  0
 26 68  1  0  0  0  0
 26 69  1  0  0  0  0
 26 70  1  0  0  0  0
 27  2  1  0  0  0  0
 27 71  1  1  0  0  0
 28 32  1  0  0  0  0
 28 72  1  0  0  0  0
 28 73  1  0  0  0  0
 29 33  1  0  0  0  0
 29 74  1  0  0  0  0
 29 75  1  0  0  0  0
 30 34  1  0  0  0  0
 30 76  1  0  0  0  0
 30 77  1  0  0  0  0
 31 35  1  0  0  0  0
 31 78  1  0  0  0  0
 31 79  1  0  0  0  0
 32 80  1  0  0  0  0
 32 81  1  0  0  0  0
 33 82  1  0  0  0  0
 33 83  1  0  0  0  0
 34 84  1  0  0  0  0
 34 85  1  0  0  0  0
 35 86  1  0  0  0  0
 35 87  1  0  0  0  0
 36 42  1  0  0  0  0
 37 88  1  0  0  0  0
 37 89  1  0  0  0  0
 37 90  1  0  0  0  0
 38 91  1  0  0  0  0
 38 92  1  0  0  0  0
 38 93  1  0  0  0  0
 39 43  1  0  0  0  0
 40 94  1  0  0  0  0
 40 95  1  0  0  0  0
 40 96  1  0  0  0  0
 41 97  1  0  0  0  0
 41 98  1  0  0  0  0
 41 99  1  0  0  0  0
 42100  1  0  0  0  0
 42101  1  0  0  0  0
 42102  1  0  0  0  0
 43103  1  0  0  0  0
 43104  1  0  0  0  0
 43105  1  0  0  0  0
M  CHG  2   7   1   8   1
M  END
>  <DRUGBANK_ID>
DB01338

>  <COMMON_NAME>
Pipecuronium

>  <CAS_NUMBER>
68399-58-6

>  <UNII>
1N3O74HM92

>  <SYNONYMS>
Pipecurium; Pipecuronium

$$$$
