
 OpenBabel10282417072D

 45 47  0  0  0  0  0  0  0  0999 V2000
   -1.7950   -1.3190    0.0000 N   0  0  0  0  0  0  0  0  0  0  0  0
   -1.0806   -1.7315    0.0000 C   0  0  0  0  0  0  0  0  0  0  0  0
   -1.0806   -2.5565    0.0000 O   0  0  0  0  0  0  0  0  0  0  0  0
   -0.3660   -1.3190    0.0000 N   0  0  0  0  0  0  0  0  0  0  0  0
   -0.3660   -0.4940    0.0000 C   0  0  0  0  0  0  0  0  0  0  0  0
    0.3484   -0.0815    0.0000 O   0  0  0  0  0  0  0  0  0  0  0  0
   -1.0806   -0.0815    0.0000 C   0  0  2  0  0  0  0  0  0  0  0  0
   -1.7950   -0.4940    0.0000 C   0  0  0  0  0  0  0  0  0  0  0  0
   -2.5095   -0.0815    0.0000 O   0  0  0  0  0  0  0  0  0  0  0  0
   -0.4870    0.4915    0.0000 N   0  0  3  0  0  0  0  0  0  0  0  0
    0.3059    0.2641    0.0000 C   0  0  0  0  0  0  0  0  0  0  0  0
    0.8994    0.8372    0.0000 C   0  0  0  0  0  0  0  0  0  0  0  0
    0.6998    1.6377    0.0000 C   0  0  3  0  0  0  0  0  0  0  0  0
   -0.0932    1.8651    0.0000 C   0  0  0  0  0  0  0  0  0  0  0  0
   -0.6866    1.2920    0.0000 C   0  0  0  0  0  0  0  0  0  0  0  0
    1.2932    2.2108    0.0000 C   0  0  0  0  0  0  0  0  0  0  0  0
    2.0863    1.9833    0.0000 C   0  0  0  0  0  0  0  0  0  0  0  0
    2.6797    2.5564    0.0000 O   0  0  0  0  0  0  0  0  0  0  0  0
   -1.4678    0.6468    0.0000 C   0  0  0  0  0  0  0  0  0  0  0  0
   -1.0307    1.3464    0.0000 C   0  0  0  0  0  0  0  0  0  0  0  0
   -2.2923    0.6756    0.0000 C   0  0  0  0  0  0  0  0  0  0  0  0
   -1.4180    2.0749    0.0000 C   0  0  0  0  0  0  0  0  0  0  0  0
   -2.6797    1.4040    0.0000 C   0  0  0  0  0  0  0  0  0  0  0  0
   -2.2425    2.1037    0.0000 C   0  0  0  0  0  0  0  0  0  0  0  0
   -1.8921   -3.0250    0.0000 H   0  0  0  0  0  0  0  0  0  0  0  0
    0.4866   -1.8113    0.0000 H   0  0  0  0  0  0  0  0  0  0  0  0
    0.5647   -0.7741    0.0000 H   0  0  0  0  0  0  0  0  0  0  0  0
    1.3344   -0.0309    0.0000 H   0  0  0  0  0  0  0  0  0  0  0  0
    1.9279    0.5423    0.0000 H   0  0  0  0  0  0  0  0  0  0  0  0
    1.6691    1.5805    0.0000 H   0  0  0  0  0  0  0  0  0  0  0  0
   -0.0699    0.8944    0.0000 H   0  0  0  0  0  0  0  0  0  0  0  0
   -0.3521    2.9033    0.0000 H   0  0  0  0  0  0  0  0  0  0  0  0
   -1.1218    2.1600    0.0000 H   0  0  0  0  0  0  0  0  0  0  0  0
   -1.7152    1.5869    0.0000 H   0  0  0  0  0  0  0  0  0  0  0  0
   -0.9455    2.3302    0.0000 H   0  0  0  0  0  0  0  0  0  0  0  0
    1.0344    3.2490    0.0000 H   0  0  0  0  0  0  0  0  0  0  0  0
    2.0629    2.9540    0.0000 H   0  0  0  0  0  0  0  0  0  0  0  0
    2.3451    0.9451    0.0000 H   0  0  0  0  0  0  0  0  0  0  0  0
    3.1149    1.6884    0.0000 H   0  0  0  0  0  0  0  0  0  0  0  0
    3.6121    2.2891    0.0000 H   0  0  0  0  0  0  0  0  0  0  0  0
    0.0007    1.3104    0.0000 H   0  0  0  0  0  0  0  0  0  0  0  0
   -2.8391   -0.1996    0.0000 H   0  0  0  0  0  0  0  0  0  0  0  0
   -0.8711    2.9501    0.0000 H   0  0  0  0  0  0  0  0  0  0  0  0
   -3.7111    1.4399    0.0000 H   0  0  0  0  0  0  0  0  0  0  0  0
   -2.7270    3.0149    0.0000 H   0  0  0  0  0  0  0  0  0  0  0  0
  2  1  2  0  0  0  0
  2  3  1  0  0  0  0
  2  4  1  0  0  0  0
  3 25  1  0  0  0  0
  4 26  1  0  0  0  0
  5  4  1  0  0  0  0
  5  6  2  0  0  0  0
  5  7  1  0  0  0  0
  7  8  1  0  0  0  0
  7 10  1  0  0  0  0
  7 19  1  1  0  0  0
  8  1  1  0  0  0  0
  8  9  2  0  0  0  0
 11 10  1  0  0  0  0
 11 12  1  0  0  0  0
 11 27  1  0  0  0  0
 11 28  1  0  0  0  0
 12 13  1  0  0  0  0
 12 29  1  0  0  0  0
 12 30  1  0  0  0  0
 13 14  1  0  0  0  0
 13 16  1  0  0  0  0
 13 31  1  0  0  0  0
 14 15  1  0  0  0  0
 14 32  1  0  0  0  0
 14 33  1  0  0  0  0
 15 10  1  0  0  0  0
 15 34  1  0  0  0  0
 15 35  1  0  0  0  0
 16 17  1  0  0  0  0
 16 36  1  0  0  0  0
 16 37  1  0  0  0  0
 17 18  1  0  0  0  0
 17 38  1  0  0  0  0
 17 39  1  0  0  0  0
 18 40  1  0  0  0  0
 20 19  2  0  0  0  0
 20 22  1  0  0  0  0
 20 41  1  0  0  0  0
 21 19  1  0  0  0  0
 21 23  2  0  0  0  0
 21 42  1  0  0  0  0
 22 24  2  0  0  0  0
 22 43  1  0  0  0  0
 23 24  1  0  0  0  0
 23 44  1  0  0  0  0
 24 45  1  0  0  0  0
M  END
>  <DRUGBANK_ID>
DB03622

>  <SECONDARY_ACCESSION_NUMBERS>
EXPT00635

>  <COMMON_NAME>
5-[4-(2-Hydroxyethyl)-1-piperidinyl]-5-phenyl-2,4,6(1H,3H,5H)-pyrimidinetrione

$$$$
