
 OpenBabel10282417072D

 62 66  0  0  0  0  0  0  0  0999 V2000
   -1.6198   -0.9571    0.0000 C   0  0  0  0  0  0  0  0  0  0  0  0
   -2.3342   -1.3697    0.0000 C   0  0  0  0  0  0  0  0  0  0  0  0
   -1.6198   -2.6071    0.0000 C   0  0  0  0  0  0  0  0  0  0  0  0
   -0.1908   -2.6071    0.0000 C   0  0  0  0  0  0  0  0  0  0  0  0
    0.5235   -2.1946    0.0000 C   0  0  0  0  0  0  0  0  0  0  0  0
   -0.1908   -0.1321    0.0000 C   0  0  0  0  0  0  0  0  0  0  0  0
    2.0226   -1.2120    0.0000 C   0  0  0  0  0  0  0  0  0  0  0  0
    2.5075   -0.5446    0.0000 C   0  0  0  0  0  0  0  0  0  0  0  0
   -2.3342   -2.1946    0.0000 C   0  0  1  0  0  0  0  0  0  0  0  0
   -3.0487   -2.6071    0.0000 O   0  0  0  0  0  0  0  0  0  0  0  0
   -0.9053   -2.1946    0.0000 C   0  0  1  0  0  0  0  0  0  0  0  0
   -0.9053   -3.0197    0.0000 H   0  0  0  0  0  0  0  0  0  0  0  0
   -0.9053   -1.3697    0.0000 C   0  0  2  0  0  0  0  0  0  0  0  0
   -0.9053   -0.5446    0.0000 C   0  0  0  0  0  0  0  0  0  0  0  0
   -0.1908   -0.9571    0.0000 C   0  0  2  0  0  0  0  0  0  0  0  0
   -0.1908   -1.7821    0.0000 H   0  0  0  0  0  0  0  0  0  0  0  0
    1.2380   -0.9571    0.0000 C   0  0  1  0  0  0  0  0  0  0  0  0
    1.2380   -1.7821    0.0000 O   0  0  0  0  0  0  0  0  0  0  0  0
    0.5235    0.2803    0.0000 C   0  0  1  0  0  0  0  0  0  0  0  0
    0.5235    1.1053    0.0000 O   0  0  0  0  0  0  0  0  0  0  0  0
    1.2380   -0.1321    0.0000 C   0  0  1  0  0  0  0  0  0  0  0  0
    1.2380    0.6928    0.0000 C   0  0  0  0  0  0  0  0  0  0  0  0
    3.0272    1.1539    0.0000 C   0  0  0  0  0  0  0  0  0  0  0  0
    1.7689    1.5996    0.0000 C   0  0  0  0  0  0  0  0  0  0  0  0
    2.2362    0.9197    0.0000 C   0  0  0  0  0  0  0  0  0  0  0  0
    3.0488    1.9786    0.0000 O   0  0  0  0  0  0  0  0  0  0  0  0
    2.2712    2.2541    0.0000 C   0  0  0  0  0  0  0  0  0  0  0  0
    1.9952    3.0197    0.0000 O   0  0  0  0  0  0  0  0  0  0  0  0
    2.0226    0.1228    0.0000 C   0  0  1  0  0  0  0  0  0  0  0  0
    2.8195    0.3363    0.0000 H   0  0  0  0  0  0  0  0  0  0  0  0
    0.5235   -1.3697    0.0000 C   0  0  2  0  0  0  0  0  0  0  0  0
    0.5235   -0.5446    0.0000 H   0  0  0  0  0  0  0  0  0  0  0  0
   -1.6198    0.1129    0.0000 H   0  0  0  0  0  0  0  0  0  0  0  0
   -0.6931   -0.4221    0.0000 H   0  0  0  0  0  0  0  0  0  0  0  0
   -3.2609   -0.8348    0.0000 H   0  0  0  0  0  0  0  0  0  0  0  0
   -3.2608   -1.9047    0.0000 H   0  0  0  0  0  0  0  0  0  0  0  0
   -1.6198   -3.6771    0.0000 H   0  0  0  0  0  0  0  0  0  0  0  0
   -0.6932   -3.1421    0.0000 H   0  0  0  0  0  0  0  0  0  0  0  0
   -0.1907   -3.6771    0.0000 H   0  0  0  0  0  0  0  0  0  0  0  0
    0.7359   -3.1420    0.0000 H   0  0  0  0  0  0  0  0  0  0  0  0
    1.4502   -2.7296    0.0000 H   0  0  0  0  0  0  0  0  0  0  0  0
    1.4501   -1.6596    0.0000 H   0  0  0  0  0  0  0  0  0  0  0  0
   -1.1174    0.4029    0.0000 H   0  0  0  0  0  0  0  0  0  0  0  0
   -0.1908    0.9379    0.0000 H   0  0  0  0  0  0  0  0  0  0  0  0
    2.3533   -2.2296    0.0000 H   0  0  0  0  0  0  0  0  0  0  0  0
    3.0794   -1.3794    0.0000 H   0  0  0  0  0  0  0  0  0  0  0  0
    3.5775   -0.5446    0.0000 H   0  0  0  0  0  0  0  0  0  0  0  0
    2.9933   -1.4980    0.0000 H   0  0  0  0  0  0  0  0  0  0  0  0
   -3.2608   -1.6596    0.0000 H   0  0  0  0  0  0  0  0  0  0  0  0
   -3.8887   -2.1221    0.0000 H   0  0  0  0  0  0  0  0  0  0  0  0
    0.0213   -0.0096    0.0000 H   0  0  0  0  0  0  0  0  0  0  0  0
   -1.8319   -0.0096    0.0000 H   0  0  0  0  0  0  0  0  0  0  0  0
   -0.9053    0.5254    0.0000 H   0  0  0  0  0  0  0  0  0  0  0  0
    0.3980   -2.2671    0.0000 H   0  0  0  0  0  0  0  0  0  0  0  0
   -0.4031    0.8153    0.0000 H   0  0  0  0  0  0  0  0  0  0  0  0
    1.3635    1.5903    0.0000 H   0  0  0  0  0  0  0  0  0  0  0  0
    2.1646    1.2278    0.0000 H   0  0  0  0  0  0  0  0  0  0  0  0
    0.3114    1.2278    0.0000 H   0  0  0  0  0  0  0  0  0  0  0  0
    1.2380    1.7628    0.0000 H   0  0  0  0  0  0  0  0  0  0  0  0
    3.8760    0.5025    0.0000 H   0  0  0  0  0  0  0  0  0  0  0  0
    2.8321    0.1018    0.0000 H   0  0  0  0  0  0  0  0  0  0  0  0
    0.7373    1.6266    0.0000 H   0  0  0  0  0  0  0  0  0  0  0  0
  1  2  1  0  0  0  0
  1 13  1  0  0  0  0
  1 33  1  0  0  0  0
  1 34  1  0  0  0  0
  2  9  1  0  0  0  0
  2 35  1  0  0  0  0
  2 36  1  0  0  0  0
  3 11  1  0  0  0  0
  3 37  1  0  0  0  0
  3 38  1  0  0  0  0
  4  5  1  0  0  0  0
  4 39  1  0  0  0  0
  4 40  1  0  0  0  0
  5 31  1  0  0  0  0
  5 41  1  0  0  0  0
  5 42  1  0  0  0  0
  6 15  1  0  0  0  0
  6 43  1  0  0  0  0
  6 44  1  0  0  0  0
  7  8  1  0  0  0  0
  7 45  1  0  0  0  0
  7 46  1  0  0  0  0
  8 47  1  0  0  0  0
  8 48  1  0  0  0  0
  9  3  1  0  0  0  0
  9 10  1  0  0  0  0
  9 49  1  6  0  0  0
 10 50  1  0  0  0  0
 11  4  1  0  0  0  0
 11 12  1  1  0  0  0
 13 11  1  0  0  0  0
 13 14  1  1  0  0  0
 14 51  1  0  0  0  0
 14 52  1  0  0  0  0
 14 53  1  0  0  0  0
 15 13  1  0  0  0  0
 15 31  1  0  0  0  0
 15 16  1  6  0  0  0
 17  7  1  0  0  0  0
 17 18  1  1  0  0  0
 18 54  1  0  0  0  0
 19  6  1  0  0  0  0
 19 21  1  0  0  0  0
 19 20  1  0  0  0  0
 19 55  1  6  0  0  0
 20 56  1  0  0  0  0
 21 17  1  0  0  0  0
 21 22  1  1  0  0  0
 22 57  1  0  0  0  0
 22 58  1  0  0  0  0
 22 59  1  0  0  0  0
 23 26  1  0  0  0  0
 23 25  1  0  0  0  0
 23 60  1  0  0  0  0
 23 61  1  0  0  0  0
 24 25  2  0  0  0  0
 24 62  1  0  0  0  0
 26 27  1  0  0  0  0
 27 24  1  0  0  0  0
 27 28  2  0  0  0  0
 29 21  1  0  0  0  0
 29  8  1  0  0  0  0
 29 25  1  0  0  0  0
 29 30  1  6  0  0  0
 31 17  1  0  0  0  0
 31 32  1  1  0  0  0
M  END
>  <DRUGBANK_ID>
DB03671

>  <SECONDARY_ACCESSION_NUMBERS>
EXPT01244

>  <COMMON_NAME>
Digoxigenin

>  <CAS_NUMBER>
1672-46-4

>  <UNII>
NQ1SX9LNAU

>  <SYNONYMS>
Lanadigenin

$$$$
