
 OpenBabel10282417072D

104107  0  0  0  0  0  0  0  0999 V2000
    2.0882    6.0134    0.0000 S   0  0  0  0  0  0  0  0  0  0  0  0
   -0.6592   -6.0134    0.0000 S   0  0  0  0  0  0  0  0  0  0  0  0
    1.7861    1.0312    0.0000 O   0  0  0  0  0  0  0  0  0  0  0  0
   -0.3572   -1.0312    0.0000 O   0  0  0  0  0  0  0  0  0  0  0  0
    1.0717   -1.0312    0.0000 O   0  0  0  0  0  0  0  0  0  0  0  0
    0.3572    1.0312    0.0000 O   0  0  0  0  0  0  0  0  0  0  0  0
    3.2151    0.2062    0.0000 O   0  0  0  0  0  0  0  0  0  0  0  0
   -1.0717    1.0312    0.0000 O   0  0  0  0  0  0  0  0  0  0  0  0
    2.5007   -2.6813    0.0000 O   0  0  0  0  0  0  0  0  0  0  0  0
   -3.2152   -1.0312    0.0000 O   0  0  0  0  0  0  0  0  0  0  0  0
    2.5007   -1.0312    0.0000 N   0  0  0  0  0  0  0  0  0  0  0  0
   -1.7862   -0.2062    0.0000 N   0  0  0  0  0  0  0  0  0  0  0  0
    3.9296   -2.6813    0.0000 N   0  0  0  0  0  0  0  0  0  0  0  0
   -3.9297    0.2062    0.0000 N   0  0  0  0  0  0  0  0  0  0  0  0
    1.0717   -0.2062    0.0000 C   0  0  2  0  0  0  0  0  0  0  0  0
    0.3572    0.2062    0.0000 C   0  0  2  0  0  0  0  0  0  0  0  0
    1.7861    0.2062    0.0000 C   0  0  2  0  0  0  0  0  0  0  0  0
   -0.3572   -0.2062    0.0000 C   0  0  2  0  0  0  0  0  0  0  0  0
    3.2151   -1.4437    0.0000 C   0  0  1  0  0  0  0  0  0  0  0  0
   -2.5007    0.2062    0.0000 C   0  0  1  0  0  0  0  0  0  0  0  0
    3.9296   -1.0312    0.0000 C   0  0  0  0  0  0  0  0  0  0  0  0
   -2.5007    1.0312    0.0000 C   0  0  0  0  0  0  0  0  0  0  0  0
    2.5007   -0.2062    0.0000 C   0  0  0  0  0  0  0  0  0  0  0  0
   -1.0717    0.2062    0.0000 C   0  0  0  0  0  0  0  0  0  0  0  0
    4.6441   -1.4437    0.0000 C   0  0  0  0  0  0  0  0  0  0  0  0
    3.9296   -0.2062    0.0000 C   0  0  0  0  0  0  0  0  0  0  0  0
   -3.2152    1.4437    0.0000 C   0  0  0  0  0  0  0  0  0  0  0  0
   -1.7862    1.4437    0.0000 C   0  0  0  0  0  0  0  0  0  0  0  0
    3.2151   -2.2688    0.0000 C   0  0  0  0  0  0  0  0  0  0  0  0
   -3.2152   -0.2062    0.0000 C   0  0  0  0  0  0  0  0  0  0  0  0
    2.5007    1.4437    0.0000 C   0  0  0  0  0  0  0  0  0  0  0  0
   -1.0717   -1.4437    0.0000 C   0  0  0  0  0  0  0  0  0  0  0  0
    2.5007    2.2688    0.0000 C   0  0  0  0  0  0  0  0  0  0  0  0
   -1.0717   -2.2688    0.0000 C   0  0  0  0  0  0  0  0  0  0  0  0
    3.2151    2.6813    0.0000 C   0  0  0  0  0  0  0  0  0  0  0  0
    1.7861    2.6813    0.0000 C   0  0  0  0  0  0  0  0  0  0  0  0
   -0.3572   -2.6813    0.0000 C   0  0  0  0  0  0  0  0  0  0  0  0
   -1.7862   -2.6813    0.0000 C   0  0  0  0  0  0  0  0  0  0  0  0
    3.9296   -3.5063    0.0000 C   0  0  0  0  0  0  0  0  0  0  0  0
   -4.6442   -0.2062    0.0000 C   0  0  0  0  0  0  0  0  0  0  0  0
    3.2151    3.5063    0.0000 C   0  0  0  0  0  0  0  0  0  0  0  0
    1.7861    3.5063    0.0000 C   0  0  0  0  0  0  0  0  0  0  0  0
   -0.3572   -3.5063    0.0000 C   0  0  0  0  0  0  0  0  0  0  0  0
   -1.7862   -3.5063    0.0000 C   0  0  0  0  0  0  0  0  0  0  0  0
    2.5007    3.9188    0.0000 C   0  0  0  0  0  0  0  0  0  0  0  0
   -1.0717   -3.9188    0.0000 C   0  0  0  0  0  0  0  0  0  0  0  0
    2.5007    4.7438    0.0000 C   0  0  0  0  0  0  0  0  0  0  0  0
   -1.0717   -4.7438    0.0000 C   0  0  0  0  0  0  0  0  0  0  0  0
    3.1681    5.2288    0.0000 C   0  0  0  0  0  0  0  0  0  0  0  0
   -1.7392   -5.2288    0.0000 C   0  0  0  0  0  0  0  0  0  0  0  0
    1.8332    5.2288    0.0000 C   0  0  0  0  0  0  0  0  0  0  0  0
   -0.4043   -5.2288    0.0000 C   0  0  0  0  0  0  0  0  0  0  0  0
    2.9132    6.0134    0.0000 C   0  0  0  0  0  0  0  0  0  0  0  0
   -1.4842   -6.0134    0.0000 C   0  0  0  0  0  0  0  0  0  0  0  0
    0.2317   -1.5162    0.0000 H   0  0  0  0  0  0  0  0  0  0  0  0
    1.1972    1.5162    0.0000 H   0  0  0  0  0  0  0  0  0  0  0  0
    1.6481   -1.5234    0.0000 H   0  0  0  0  0  0  0  0  0  0  0  0
   -1.7862   -1.1907    0.0000 H   0  0  0  0  0  0  0  0  0  0  0  0
    4.7822   -2.1890    0.0000 H   0  0  0  0  0  0  0  0  0  0  0  0
   -3.9297    1.1907    0.0000 H   0  0  0  0  0  0  0  0  0  0  0  0
    0.1451   -0.7413    0.0000 H   0  0  0  0  0  0  0  0  0  0  0  0
    1.2838    0.7413    0.0000 H   0  0  0  0  0  0  0  0  0  0  0  0
    0.8595    0.7412    0.0000 H   0  0  0  0  0  0  0  0  0  0  0  0
    0.5694   -0.7412    0.0000 H   0  0  0  0  0  0  0  0  0  0  0  0
    3.2151   -0.3737    0.0000 H   0  0  0  0  0  0  0  0  0  0  0  0
   -1.5741    0.7413    0.0000 H   0  0  0  0  0  0  0  0  0  0  0  0
    4.8562   -0.4962    0.0000 H   0  0  0  0  0  0  0  0  0  0  0  0
   -2.5007    2.1012    0.0000 H   0  0  0  0  0  0  0  0  0  0  0  0
    4.6441   -2.5137    0.0000 H   0  0  0  0  0  0  0  0  0  0  0  0
    5.5707   -0.9087    0.0000 H   0  0  0  0  0  0  0  0  0  0  0  0
    5.5708   -1.9787    0.0000 H   0  0  0  0  0  0  0  0  0  0  0  0
    4.8562    0.3288    0.0000 H   0  0  0  0  0  0  0  0  0  0  0  0
    3.0030    0.3288    0.0000 H   0  0  0  0  0  0  0  0  0  0  0  0
    3.9296    0.8638    0.0000 H   0  0  0  0  0  0  0  0  0  0  0  0
   -3.2152    2.5137    0.0000 H   0  0  0  0  0  0  0  0  0  0  0  0
   -4.1418    0.9087    0.0000 H   0  0  0  0  0  0  0  0  0  0  0  0
   -4.1419    1.9787    0.0000 H   0  0  0  0  0  0  0  0  0  0  0  0
   -0.8596    0.9087    0.0000 H   0  0  0  0  0  0  0  0  0  0  0  0
   -1.7862    2.5137    0.0000 H   0  0  0  0  0  0  0  0  0  0  0  0
   -0.8595    1.9787    0.0000 H   0  0  0  0  0  0  0  0  0  0  0  0
    3.4273    0.9087    0.0000 H   0  0  0  0  0  0  0  0  0  0  0  0
    3.4274    1.9787    0.0000 H   0  0  0  0  0  0  0  0  0  0  0  0
   -1.9983   -0.9087    0.0000 H   0  0  0  0  0  0  0  0  0  0  0  0
   -1.9983   -1.9787    0.0000 H   0  0  0  0  0  0  0  0  0  0  0  0
    4.1088    2.1653    0.0000 H   0  0  0  0  0  0  0  0  0  0  0  0
    0.8924    2.1653    0.0000 H   0  0  0  0  0  0  0  0  0  0  0  0
    0.5365   -2.1653    0.0000 H   0  0  0  0  0  0  0  0  0  0  0  0
   -2.6799   -2.1653    0.0000 H   0  0  0  0  0  0  0  0  0  0  0  0
    3.0030   -4.0413    0.0000 H   0  0  0  0  0  0  0  0  0  0  0  0
    4.8562   -4.0413    0.0000 H   0  0  0  0  0  0  0  0  0  0  0  0
    3.9296   -4.5763    0.0000 H   0  0  0  0  0  0  0  0  0  0  0  0
   -5.5708    0.3289    0.0000 H   0  0  0  0  0  0  0  0  0  0  0  0
   -4.6443   -1.2762    0.0000 H   0  0  0  0  0  0  0  0  0  0  0  0
   -5.5709   -0.7411    0.0000 H   0  0  0  0  0  0  0  0  0  0  0  0
    4.1088    4.0223    0.0000 H   0  0  0  0  0  0  0  0  0  0  0  0
    0.8924    4.0223    0.0000 H   0  0  0  0  0  0  0  0  0  0  0  0
    0.5365   -4.0223    0.0000 H   0  0  0  0  0  0  0  0  0  0  0  0
   -2.6799   -4.0223    0.0000 H   0  0  0  0  0  0  0  0  0  0  0  0
    4.1496    4.9099    0.0000 H   0  0  0  0  0  0  0  0  0  0  0  0
   -2.7207   -4.9099    0.0000 H   0  0  0  0  0  0  0  0  0  0  0  0
    0.8517    4.9099    0.0000 H   0  0  0  0  0  0  0  0  0  0  0  0
    0.5772   -4.9099    0.0000 H   0  0  0  0  0  0  0  0  0  0  0  0
    3.5198    6.8483    0.0000 H   0  0  0  0  0  0  0  0  0  0  0  0
   -2.0908   -6.8483    0.0000 H   0  0  0  0  0  0  0  0  0  0  0  0
  1 51  1  0  0  0  0
  1 53  1  0  0  0  0
  2 52  1  0  0  0  0
  2 54  1  0  0  0  0
  3 31  1  0  0  0  0
  4 32  1  0  0  0  0
  5 55  1  0  0  0  0
  6 56  1  0  0  0  0
  7 23  2  0  0  0  0
  8 24  2  0  0  0  0
  9 29  2  0  0  0  0
 10 30  2  0  0  0  0
 11 23  1  0  0  0  0
 11 57  1  0  0  0  0
 12 24  1  0  0  0  0
 12 58  1  0  0  0  0
 13 29  1  0  0  0  0
 13 39  1  0  0  0  0
 13 59  1  0  0  0  0
 14 30  1  0  0  0  0
 14 40  1  0  0  0  0
 14 60  1  0  0  0  0
 15  5  1  0  0  0  0
 15 16  1  0  0  0  0
 15 17  1  0  0  0  0
 15 61  1  1  0  0  0
 16  6  1  0  0  0  0
 16 18  1  0  0  0  0
 16 62  1  1  0  0  0
 17  3  1  0  0  0  0
 17 23  1  0  0  0  0
 17 63  1  6  0  0  0
 18  4  1  0  0  0  0
 18 24  1  0  0  0  0
 18 64  1  6  0  0  0
 19 11  1  0  0  0  0
 19 21  1  0  0  0  0
 19 29  1  0  0  0  0
 19 65  1  6  0  0  0
 20 12  1  0  0  0  0
 20 22  1  0  0  0  0
 20 30  1  0  0  0  0
 20 66  1  1  0  0  0
 21 25  1  0  0  0  0
 21 26  1  0  0  0  0
 21 67  1  0  0  0  0
 22 27  1  0  0  0  0
 22 28  1  0  0  0  0
 22 68  1  0  0  0  0
 25 69  1  0  0  0  0
 25 70  1  0  0  0  0
 25 71  1  0  0  0  0
 26 72  1  0  0  0  0
 26 73  1  0  0  0  0
 26 74  1  0  0  0  0
 27 75  1  0  0  0  0
 27 76  1  0  0  0  0
 27 77  1  0  0  0  0
 28 78  1  0  0  0  0
 28 79  1  0  0  0  0
 28 80  1  0  0  0  0
 31 33  1  0  0  0  0
 31 81  1  0  0  0  0
 31 82  1  0  0  0  0
 32 34  1  0  0  0  0
 32 83  1  0  0  0  0
 32 84  1  0  0  0  0
 33 35  2  0  0  0  0
 33 36  1  0  0  0  0
 34 37  2  0  0  0  0
 34 38  1  0  0  0  0
 35 41  1  0  0  0  0
 35 85  1  0  0  0  0
 36 42  2  0  0  0  0
 36 86  1  0  0  0  0
 37 43  1  0  0  0  0
 37 87  1  0  0  0  0
 38 44  2  0  0  0  0
 38 88  1  0  0  0  0
 39 89  1  0  0  0  0
 39 90  1  0  0  0  0
 39 91  1  0  0  0  0
 40 92  1  0  0  0  0
 40 93  1  0  0  0  0
 40 94  1  0  0  0  0
 41 45  2  0  0  0  0
 41 95  1  0  0  0  0
 42 45  1  0  0  0  0
 42 96  1  0  0  0  0
 43 46  2  0  0  0  0
 43 97  1  0  0  0  0
 44 46  1  0  0  0  0
 44 98  1  0  0  0  0
 45 47  1  0  0  0  0
 46 48  1  0  0  0  0
 47 49  1  0  0  0  0
 47 51  2  0  0  0  0
 48 50  1  0  0  0  0
 48 52  2  0  0  0  0
 49 53  2  0  0  0  0
 49 99  1  0  0  0  0
 50 54  2  0  0  0  0
 50100  1  0  0  0  0
 51101  1  0  0  0  0
 52102  1  0  0  0  0
 53103  1  0  0  0  0
 54104  1  0  0  0  0
M  END
>  <DRUGBANK_ID>
DB04547

>  <SECONDARY_ACCESSION_NUMBERS>
EXPT00662

>  <COMMON_NAME>
Inhibitor BEA409

$$$$
