
 OpenBabel10282417072D

 98 99  0  0  0  0  0  0  0  0999 V2000
   -4.7798    0.4125    0.0000 S   0  0  0  0  0  0  0  0  0  0  0  0
    3.7939    6.1876    0.0000 P   0  0  0  0  0  0  0  0  0  0  0  0
    2.3649   -6.1876    0.0000 P   0  0  0  0  0  0  0  0  0  0  0  0
    4.6189    5.3626    0.0000 F   0  0  0  0  0  0  0  0  0  0  0  0
    2.9689    5.3626    0.0000 F   0  0  0  0  0  0  0  0  0  0  0  0
    1.5399   -5.3626    0.0000 F   0  0  0  0  0  0  0  0  0  0  0  0
    3.1899   -5.3626    0.0000 F   0  0  0  0  0  0  0  0  0  0  0  0
    2.3649    2.8875    0.0000 O   0  0  0  0  0  0  0  0  0  0  0  0
    4.5084    0.8250    0.0000 O   0  0  0  0  0  0  0  0  0  0  0  0
   -2.6364    0.8250    0.0000 O   0  0  0  0  0  0  0  0  0  0  0  0
    3.7939   -2.0625    0.0000 O   0  0  0  0  0  0  0  0  0  0  0  0
    5.9373   -0.8250    0.0000 O   0  0  0  0  0  0  0  0  0  0  0  0
    3.7939    7.0126    0.0000 O   0  0  0  0  0  0  0  0  0  0  0  0
    4.6189    6.1876    0.0000 O   0  0  0  0  0  0  0  0  0  0  0  0
    5.2229    0.4125    0.0000 O   0  0  0  0  0  0  0  0  0  0  0  0
    2.9689    6.1876    0.0000 O   0  0  0  0  0  0  0  0  0  0  0  0
   -4.7798    2.8875    0.0000 O   0  0  0  0  0  0  0  0  0  0  0  0
    2.3649   -7.0126    0.0000 O   0  0  0  0  0  0  0  0  0  0  0  0
    1.5399   -6.1876    0.0000 O   0  0  0  0  0  0  0  0  0  0  0  0
    3.1899   -6.1876    0.0000 O   0  0  0  0  0  0  0  0  0  0  0  0
    3.0794    0.8250    0.0000 N   0  0  0  0  0  0  0  0  0  0  0  0
    1.6504    1.6500    0.0000 N   0  0  0  0  0  0  0  0  0  0  0  0
    3.0794   -0.8250    0.0000 N   0  0  0  0  0  0  0  0  0  0  0  0
   -3.3509    2.0625    0.0000 N   0  0  0  0  0  0  0  0  0  0  0  0
   -5.4944    1.6500    0.0000 N   0  0  0  0  0  0  0  0  0  0  0  0
    3.0794    1.6500    0.0000 C   0  0  1  0  0  0  0  0  0  0  0  0
    3.7939    2.0625    0.0000 C   0  0  0  0  0  0  0  0  0  0  0  0
    0.2214    1.6500    0.0000 C   0  0  0  0  0  0  0  0  0  0  0  0
   -0.4929    2.0625    0.0000 C   0  0  0  0  0  0  0  0  0  0  0  0
    0.9360    2.0625    0.0000 C   0  0  0  0  0  0  0  0  0  0  0  0
    2.3649    2.0625    0.0000 C   0  0  0  0  0  0  0  0  0  0  0  0
   -1.2074    1.6500    0.0000 C   0  0  0  0  0  0  0  0  0  0  0  0
    3.7939    2.8875    0.0000 C   0  0  0  0  0  0  0  0  0  0  0  0
    3.7939   -0.4125    0.0000 C   0  0  3  0  0  0  0  0  0  0  0  0
    3.7939    0.4125    0.0000 C   0  0  0  0  0  0  0  0  0  0  0  0
   -1.9219    2.0625    0.0000 C   0  0  0  0  0  0  0  0  0  0  0  0
    4.5084   -0.8250    0.0000 C   0  0  0  0  0  0  0  0  0  0  0  0
    3.0794    3.3000    0.0000 C   0  0  0  0  0  0  0  0  0  0  0  0
    4.5084    3.3000    0.0000 C   0  0  0  0  0  0  0  0  0  0  0  0
    3.7939    4.5375    0.0000 C   0  0  0  0  0  0  0  0  0  0  0  0
    3.0794    4.1250    0.0000 C   0  0  0  0  0  0  0  0  0  0  0  0
    4.5084    4.1250    0.0000 C   0  0  0  0  0  0  0  0  0  0  0  0
   -2.6364    1.6500    0.0000 C   0  0  0  0  0  0  0  0  0  0  0  0
    3.7939    5.3626    0.0000 C   0  0  0  0  0  0  0  0  0  0  0  0
    3.0794   -1.6500    0.0000 C   0  0  0  0  0  0  0  0  0  0  0  0
    2.3649   -2.0625    0.0000 C   0  0  0  0  0  0  0  0  0  0  0  0
   -4.0654    1.6500    0.0000 C   0  0  3  0  0  0  0  0  0  0  0  0
    5.2229   -0.4125    0.0000 C   0  0  0  0  0  0  0  0  0  0  0  0
    2.3649   -2.8875    0.0000 C   0  0  0  0  0  0  0  0  0  0  0  0
    2.3649   -4.5375    0.0000 C   0  0  0  0  0  0  0  0  0  0  0  0
    3.0794   -3.3000    0.0000 C   0  0  0  0  0  0  0  0  0  0  0  0
    1.6504   -3.3000    0.0000 C   0  0  0  0  0  0  0  0  0  0  0  0
   -4.0654    0.8250    0.0000 C   0  0  0  0  0  0  0  0  0  0  0  0
    3.0794   -4.1250    0.0000 C   0  0  0  0  0  0  0  0  0  0  0  0
    1.6504   -4.1250    0.0000 C   0  0  0  0  0  0  0  0  0  0  0  0
    2.3649   -5.3626    0.0000 C   0  0  0  0  0  0  0  0  0  0  0  0
   -4.7798    2.0625    0.0000 C   0  0  0  0  0  0  0  0  0  0  0  0
   -5.9576    1.0924    0.0000 H   0  0  0  0  0  0  0  0  0  0  0  0
    5.9373   -1.7620    0.0000 H   0  0  0  0  0  0  0  0  0  0  0  0
    4.6339    7.4976    0.0000 H   0  0  0  0  0  0  0  0  0  0  0  0
    5.1039    5.3476    0.0000 H   0  0  0  0  0  0  0  0  0  0  0  0
    1.5249   -7.4976    0.0000 H   0  0  0  0  0  0  0  0  0  0  0  0
    1.0549   -5.3476    0.0000 H   0  0  0  0  0  0  0  0  0  0  0  0
    2.2268    0.3327    0.0000 H   0  0  0  0  0  0  0  0  0  0  0  0
    1.6504    0.6655    0.0000 H   0  0  0  0  0  0  0  0  0  0  0  0
    2.2268   -0.3327    0.0000 H   0  0  0  0  0  0  0  0  0  0  0  0
   -3.3509    3.0470    0.0000 H   0  0  0  0  0  0  0  0  0  0  0  0
   -6.3470    2.1423    0.0000 H   0  0  0  0  0  0  0  0  0  0  0  0
   -5.4945    0.6655    0.0000 H   0  0  0  0  0  0  0  0  0  0  0  0
    4.0060    1.1150    0.0000 H   0  0  0  0  0  0  0  0  0  0  0  0
    4.7205    1.5275    0.0000 H   0  0  0  0  0  0  0  0  0  0  0  0
    4.7205    2.5975    0.0000 H   0  0  0  0  0  0  0  0  0  0  0  0
    0.2213    0.5800    0.0000 H   0  0  0  0  0  0  0  0  0  0  0  0
    1.1480    1.1149    0.0000 H   0  0  0  0  0  0  0  0  0  0  0  0
   -0.4928    3.1325    0.0000 H   0  0  0  0  0  0  0  0  0  0  0  0
   -1.4195    2.5975    0.0000 H   0  0  0  0  0  0  0  0  0  0  0  0
    0.9361    3.1325    0.0000 H   0  0  0  0  0  0  0  0  0  0  0  0
    0.0094    2.5976    0.0000 H   0  0  0  0  0  0  0  0  0  0  0  0
   -1.2074    0.5800    0.0000 H   0  0  0  0  0  0  0  0  0  0  0  0
   -2.1340    1.1150    0.0000 H   0  0  0  0  0  0  0  0  0  0  0  0
    2.8673    0.1225    0.0000 H   0  0  0  0  0  0  0  0  0  0  0  0
   -1.9219    3.1325    0.0000 H   0  0  0  0  0  0  0  0  0  0  0  0
   -2.8485    2.5975    0.0000 H   0  0  0  0  0  0  0  0  0  0  0  0
    4.5084   -1.8950    0.0000 H   0  0  0  0  0  0  0  0  0  0  0  0
    5.4350   -1.3600    0.0000 H   0  0  0  0  0  0  0  0  0  0  0  0
    2.1857    2.7840    0.0000 H   0  0  0  0  0  0  0  0  0  0  0  0
    5.4021    2.7840    0.0000 H   0  0  0  0  0  0  0  0  0  0  0  0
    2.1857    4.6410    0.0000 H   0  0  0  0  0  0  0  0  0  0  0  0
    5.4021    4.6410    0.0000 H   0  0  0  0  0  0  0  0  0  0  0  0
    1.4383   -1.5275    0.0000 H   0  0  0  0  0  0  0  0  0  0  0  0
    1.4383   -2.5975    0.0000 H   0  0  0  0  0  0  0  0  0  0  0  0
   -3.1388    1.1150    0.0000 H   0  0  0  0  0  0  0  0  0  0  0  0
    3.9731   -2.7840    0.0000 H   0  0  0  0  0  0  0  0  0  0  0  0
    0.7567   -2.7840    0.0000 H   0  0  0  0  0  0  0  0  0  0  0  0
   -3.1387    0.2900    0.0000 H   0  0  0  0  0  0  0  0  0  0  0  0
   -3.1388    1.3600    0.0000 H   0  0  0  0  0  0  0  0  0  0  0  0
    3.9731   -4.6410    0.0000 H   0  0  0  0  0  0  0  0  0  0  0  0
    0.7567   -4.6410    0.0000 H   0  0  0  0  0  0  0  0  0  0  0  0
  1 53  1  0  0  0  0
  1 58  1  0  0  0  0
  2 13  1  0  0  0  0
  2 14  1  0  0  0  0
  2 16  2  0  0  0  0
  2 44  1  0  0  0  0
  3 18  1  0  0  0  0
  3 19  1  0  0  0  0
  3 20  2  0  0  0  0
  3 56  1  0  0  0  0
  4 44  1  0  0  0  0
  5 44  1  0  0  0  0
  6 56  1  0  0  0  0
  7 56  1  0  0  0  0
  8 31  2  0  0  0  0
  9 35  2  0  0  0  0
 10 43  2  0  0  0  0
 11 45  2  0  0  0  0
 12 48  1  0  0  0  0
 12 59  1  0  0  0  0
 13 60  1  0  0  0  0
 14 61  1  0  0  0  0
 15 48  2  0  0  0  0
 17 57  2  0  0  0  0
 18 62  1  0  0  0  0
 19 63  1  0  0  0  0
 21 35  1  0  0  0  0
 21 64  1  0  0  0  0
 22 30  1  0  0  0  0
 22 31  1  0  0  0  0
 22 65  1  0  0  0  0
 23 34  1  0  0  0  0
 23 45  1  0  0  0  0
 23 66  1  0  0  0  0
 24 43  1  0  0  0  0
 24 47  1  0  0  0  0
 24 67  1  0  0  0  0
 25 57  1  0  0  0  0
 25 68  1  0  0  0  0
 25 69  1  0  0  0  0
 26 21  1  0  0  0  0
 26 27  1  0  0  0  0
 26 31  1  0  0  0  0
 26 70  1  1  0  0  0
 27 33  1  0  0  0  0
 27 71  1  0  0  0  0
 27 72  1  0  0  0  0
 28 29  1  0  0  0  0
 28 30  1  0  0  0  0
 28 73  1  0  0  0  0
 28 74  1  0  0  0  0
 29 32  1  0  0  0  0
 29 75  1  0  0  0  0
 29 76  1  0  0  0  0
 30 77  1  0  0  0  0
 30 78  1  0  0  0  0
 32 36  1  0  0  0  0
 32 79  1  0  0  0  0
 32 80  1  0  0  0  0
 33 38  2  0  0  0  0
 33 39  1  0  0  0  0
 34 35  1  0  0  0  0
 34 37  1  0  0  0  0
 34 81  1  0  0  0  0
 36 43  1  0  0  0  0
 36 82  1  0  0  0  0
 36 83  1  0  0  0  0
 37 48  1  0  0  0  0
 37 84  1  0  0  0  0
 37 85  1  0  0  0  0
 38 41  1  0  0  0  0
 38 86  1  0  0  0  0
 39 42  2  0  0  0  0
 39 87  1  0  0  0  0
 40 41  2  0  0  0  0
 40 42  1  0  0  0  0
 40 44  1  0  0  0  0
 41 88  1  0  0  0  0
 42 89  1  0  0  0  0
 45 46  1  0  0  0  0
 46 49  1  0  0  0  0
 46 90  1  0  0  0  0
 46 91  1  0  0  0  0
 47 53  1  0  0  0  0
 47 57  1  0  0  0  0
 47 92  1  0  0  0  0
 49 51  2  0  0  0  0
 49 52  1  0  0  0  0
 50 54  2  0  0  0  0
 50 55  1  0  0  0  0
 50 56  1  0  0  0  0
 51 54  1  0  0  0  0
 51 93  1  0  0  0  0
 52 55  2  0  0  0  0
 52 94  1  0  0  0  0
 53 95  1  0  0  0  0
 53 96  1  0  0  0  0
 54 97  1  0  0  0  0
 55 98  1  0  0  0  0
M  END
>  <DRUGBANK_ID>
DB03557

>  <SECONDARY_ACCESSION_NUMBERS>
EXPT02927

>  <COMMON_NAME>
4-[[(2S)-1-[[6-[(1-Amino-1-oxo-3-sulfanylpropan-2-yl)amino]-6-oxohexyl]amino]-3-[4-[difluoro(phosphono)methyl]phenyl]-1-oxopropan-2-yl]amino]-3-[[2-[4-[difluoro(phosphono)methyl]phenyl]acetyl]amino]-4-oxobutanoic acid

$$$$
