704
 OpenBabel10282417072D

 48 53  0  0  1  0  0  0  0  0999 V2000
    1.9356   -0.2231    0.0000 O   0  0  0  0  0  0  0  0  0  0  0  0
    4.4727   -1.7584    0.0000 O   0  0  0  0  0  0  0  0  0  0  0  0
    1.7349   -2.3527    0.0000 O   0  0  0  0  0  0  0  0  0  0  0  0
    1.7349    1.8149    0.0000 O   0  0  0  0  0  0  0  0  0  0  0  0
    5.3440   -1.0939    0.0000 N   0  0  0  0  0  0  0  0  0  0  0  0
    3.2006   -0.6814    0.0000 C   0  0  1  0  0  0  0  0  0  0  0  0
    3.9151   -1.0939    0.0000 C   0  0  1  0  0  0  0  0  0  0  0  0
    4.6296   -0.6814    0.0000 C   0  0  1  0  0  0  0  0  0  0  0  0
    2.4861   -1.0939    0.0000 C   0  0  2  0  0  0  0  0  0  0  0  0
    3.6773   -0.0764    0.0000 C   0  0  0  0  0  0  0  0  0  0  0  0
    3.2006    0.1436    0.0000 C   0  0  0  0  0  0  0  0  0  0  0  0
    3.9151   -1.9190    0.0000 C   0  0  0  0  0  0  0  0  0  0  0  0
    4.8506   -0.0764    0.0000 C   0  0  0  0  0  0  0  0  0  0  0  0
    4.6296    0.1436    0.0000 C   0  0  0  0  0  0  0  0  0  0  0  0
    3.9151    0.5561    0.0000 C   0  0  0  0  0  0  0  0  0  0  0  0
    5.9350   -1.7290    0.0000 C   0  0  0  0  0  0  0  0  0  0  0  0
    3.2006   -2.3315    0.0000 C   0  0  0  0  0  0  0  0  0  0  0  0
    6.7804   -1.5349    0.0000 C   0  0  0  0  0  0  0  0  0  0  0  0
    2.4861   -1.9190    0.0000 C   0  0  0  0  0  0  0  0  0  0  0  0
    2.4861    0.5561    0.0000 C   0  0  0  0  0  0  0  0  0  0  0  0
    7.6097   -1.7894    0.0000 C   0  0  0  0  0  0  0  0  0  0  0  0
    7.4155   -0.9440    0.0000 C   0  0  0  0  0  0  0  0  0  0  0  0
    3.9151    1.3811    0.0000 C   0  0  0  0  0  0  0  0  0  0  0  0
    2.4861    1.3811    0.0000 C   0  0  0  0  0  0  0  0  0  0  0  0
    3.2006    1.7936    0.0000 C   0  0  0  0  0  0  0  0  0  0  0  0
    4.8675   -1.3334    0.0000 H   0  0  0  0  0  0  0  0  0  0  0  0
    1.8196   -1.2870    0.0000 H   0  0  0  0  0  0  0  0  0  0  0  0
    4.1410   -2.6699    0.0000 H   0  0  0  0  0  0  0  0  0  0  0  0
    1.7350    2.7519    0.0000 H   0  0  0  0  0  0  0  0  0  0  0  0
    3.2102    0.8863    0.0000 H   0  0  0  0  0  0  0  0  0  0  0  0
    4.2452    0.8304    0.0000 H   0  0  0  0  0  0  0  0  0  0  0  0
    4.8417   -2.4540    0.0000 H   0  0  0  0  0  0  0  0  0  0  0  0
    3.9151   -2.9890    0.0000 H   0  0  0  0  0  0  0  0  0  0  0  0
    5.4186    0.8304    0.0000 H   0  0  0  0  0  0  0  0  0  0  0  0
    4.3324    0.8597    0.0000 H   0  0  0  0  0  0  0  0  0  0  0  0
    5.5562    0.6786    0.0000 H   0  0  0  0  0  0  0  0  0  0  0  0
    4.6296    1.2136    0.0000 H   0  0  0  0  0  0  0  0  0  0  0  0
    5.6210   -2.7519    0.0000 H   0  0  0  0  0  0  0  0  0  0  0  0
    6.6638   -2.5124    0.0000 H   0  0  0  0  0  0  0  0  0  0  0  0
    3.2006   -3.4015    0.0000 H   0  0  0  0  0  0  0  0  0  0  0  0
    2.2740   -2.8665    0.0000 H   0  0  0  0  0  0  0  0  0  0  0  0
    7.8232   -1.2953    0.0000 H   0  0  0  0  0  0  0  0  0  0  0  0
    8.3386   -2.5727    0.0000 H   0  0  0  0  0  0  0  0  0  0  0  0
    8.5550   -1.2881    0.0000 H   0  0  0  0  0  0  0  0  0  0  0  0
    7.7295    0.0789    0.0000 H   0  0  0  0  0  0  0  0  0  0  0  0
    8.4848   -0.9825    0.0000 H   0  0  0  0  0  0  0  0  0  0  0  0
    4.8088    1.8971    0.0000 H   0  0  0  0  0  0  0  0  0  0  0  0
    3.2006    2.8256    0.0000 H   0  0  0  0  0  0  0  0  0  0  0  0
  1  9  1  0  0  0  0
  1 20  1  0  0  0  0
  2 28  1  0  0  0  0
  3 19  2  0  0  0  0
  4 24  1  0  0  0  0
  4 29  1  0  0  0  0
  5  8  1  0  0  0  0
  5 13  1  0  0  0  0
  5 16  1  0  0  0  0
  6  7  1  0  0  0  0
  6  9  1  0  0  0  0
  6 10  1  0  0  0  0
  6 11  1  6  0  0  0
  7  2  1  1  0  0  0
  7  8  1  0  0  0  0
  7 12  1  0  0  0  0
  8 14  1  0  0  0  0
  8 26  1  6  0  0  0
  9 19  1  0  0  0  0
  9 27  1  1  0  0  0
 10 13  1  0  0  0  0
 10 30  1  0  0  0  0
 10 31  1  0  0  0  0
 11 15  2  0  0  0  0
 11 20  1  0  0  0  0
 12 17  1  0  0  0  0
 12 32  1  0  0  0  0
 12 33  1  0  0  0  0
 13 34  1  0  0  0  0
 13 35  1  0  0  0  0
 14 15  1  0  0  0  0
 14 36  1  0  0  0  0
 14 37  1  0  0  0  0
 15 23  1  0  0  0  0
 16 18  1  0  0  0  0
 16 38  1  0  0  0  0
 16 39  1  0  0  0  0
 17 19  1  0  0  0  0
 17 40  1  0  0  0  0
 17 41  1  0  0  0  0
 18 21  1  0  0  0  0
 18 22  1  0  0  0  0
 18 42  1  0  0  0  0
 20 24  2  0  0  0  0
 21 22  1  0  0  0  0
 21 43  1  0  0  0  0
 21 44  1  0  0  0  0
 22 45  1  0  0  0  0
 22 46  1  0  0  0  0
 23 25  2  0  0  0  0
 23 47  1  0  0  0  0
 24 25  1  0  0  0  0
 25 48  1  0  0  0  0
M  END
>  <DRUGBANK_ID>
DB00704

>  <SECONDARY_ACCESSION_NUMBERS>
APRD00005; DB05067

>  <COMMON_NAME>
Naltrexone

>  <CAS_NUMBER>
16590-41-3

>  <UNII>
5S6W795CQM

>  <SYNONYMS>
17-(Cyclopropylmethyl)-4,5-epoxy-3,14-dihydroxymorphinan-6-one; 17-(Cyclopropylmethyl)-4,5Î±-epoxy-3,14-dihydroxymorphinan-6-one; N-Cyclopropylmethyl-14-hydroxydihydromorphinone; N-Cyclopropylmethylnoroxymorphone; Naltrexon; Naltrexona; Naltrexone; Naltrexonum

$$$$
