
 OpenBabel10282417072D

 35 45  0  0  0  0  0  0  0  0999 V2000
    0.8273   -3.3666    0.0000 C   0  0  0  0  0  0  0  0  0  0  0  0
    0.0258   -3.7512    0.0000 C   0  0  0  0  0  0  0  0  0  0  0  0
    1.7019   -3.7261    0.0000 C   0  0  0  0  0  0  0  0  0  0  0  0
    0.8134   -2.4355    0.0000 Fe  0  0  0  0  0  0  0  0  0  0  0  0
    0.4677   -4.2413    0.0000 C   0  0  0  0  0  0  0  0  0  0  0  0
    1.2127   -4.2302    0.0000 C   0  0  0  0  0  0  0  0  0  0  0  0
    0.7975   -1.3802    0.0000 C   0  0  0  0  0  0  0  0  0  0  0  0
    1.6601   -0.9326    0.0000 C   0  0  0  0  0  0  0  0  0  0  0  0
    1.1560   -0.4434    0.0000 C   0  0  0  0  0  0  0  0  0  0  0  0
    0.4111   -0.4546    0.0000 C   0  0  0  0  0  0  0  0  0  0  0  0
    0.0451   -0.8947    0.0000 C   0  0  0  0  0  0  0  0  0  0  0  0
    3.9641   -0.2318    0.0000 O   0  0  0  0  0  0  0  0  0  0  0  0
    4.2064   -1.0205    0.0000 C   0  0  0  0  0  0  0  0  0  0  0  0
    4.9869   -1.2880    0.0000 C   0  0  0  0  0  0  0  0  0  0  0  0
    4.9736   -2.1128    0.0000 C   0  0  0  0  0  0  0  0  0  0  0  0
    4.1850   -2.3551    0.0000 C   0  0  0  0  0  0  0  0  0  0  0  0
    3.9175   -3.1356    0.0000 O   0  0  0  0  0  0  0  0  0  0  0  0
    3.7109   -1.6800    0.0000 N   0  0  0  0  0  0  0  0  0  0  0  0
    2.8860   -1.6668    0.0000 C   0  0  0  0  0  0  0  0  0  0  0  0
    2.4850   -0.9458    0.0000 C   0  0  0  0  0  0  0  0  0  0  0  0
    1.7117   -2.7643    0.0000 H   0  0  0  0  0  0  0  0  0  0  0  0
    1.0908   -3.6474    0.0000 H   0  0  0  0  0  0  0  0  0  0  0  0
    0.6356   -3.6366    0.0000 H   0  0  0  0  0  0  0  0  0  0  0  0
    1.2873   -3.5534    0.0000 H   0  0  0  0  0  0  0  0  0  0  0  0
    0.3730   -3.5670    0.0000 H   0  0  0  0  0  0  0  0  0  0  0  0
    0.8480   -0.3114    0.0000 H   0  0  0  0  0  0  0  0  0  0  0  0
    0.7614   -1.4380    0.0000 H   0  0  0  0  0  0  0  0  0  0  0  0
    0.8727   -1.4199    0.0000 H   0  0  0  0  0  0  0  0  0  0  0  0
    1.1028   -0.7327    0.0000 H   0  0  0  0  0  0  0  0  0  0  0  0
    5.8314   -0.6949    0.0000 H   0  0  0  0  0  0  0  0  0  0  0  0
    5.7986   -2.7328    0.0000 H   0  0  0  0  0  0  0  0  0  0  0  0
    2.3362   -2.5848    0.0000 H   0  0  0  0  0  0  0  0  0  0  0  0
    1.8161   -1.6497    0.0000 H   0  0  0  0  0  0  0  0  0  0  0  0
    3.0348   -0.0278    0.0000 H   0  0  0  0  0  0  0  0  0  0  0  0
    1.9649   -0.0107    0.0000 H   0  0  0  0  0  0  0  0  0  0  0  0
  1  3  1  0  0  0  0
  1 21  1  0  0  0  0
  2  1  1  0  0  0  0
  2  5  1  0  0  0  0
  2 22  1  0  0  0  0
  3  4  1  0  0  0  0
  3 23  1  0  0  0  0
  4  1  1  0  0  0  0
  4  2  1  0  0  0  0
  4  6  1  0  0  0  0
  4  7  1  0  0  0  0
  4  8  1  0  0  0  0
  4  9  1  0  0  0  0
  5  4  1  0  0  0  0
  5  6  1  0  0  0  0
  5 24  1  0  0  0  0
  6  3  1  0  0  0  0
  6 25  1  0  0  0  0
  7 11  1  0  0  0  0
  7 26  1  0  0  0  0
  8  7  1  0  0  0  0
  8  9  1  0  0  0  0
  9 10  1  0  0  0  0
  9 27  1  0  0  0  0
 10  4  1  0  0  0  0
 10 11  1  0  0  0  0
 10 28  1  0  0  0  0
 11  4  1  0  0  0  0
 11 29  1  0  0  0  0
 12 13  2  0  0  0  0
 13 14  1  0  0  0  0
 13 18  1  0  0  0  0
 14 15  2  0  0  0  0
 14 30  1  0  0  0  0
 15 16  1  0  0  0  0
 15 31  1  0  0  0  0
 16 17  2  0  0  0  0
 16 18  1  0  0  0  0
 18 19  1  0  0  0  0
 19 20  1  0  0  0  0
 19 32  1  0  0  0  0
 19 33  1  0  0  0  0
 20  8  1  0  0  0  0
 20 34  1  0  0  0  0
 20 35  1  0  0  0  0
M  END
>  <DRUGBANK_ID>
DB01703

>  <SECONDARY_ACCESSION_NUMBERS>
EXPT01419

>  <COMMON_NAME>
N-(2-ferrocenylethyl)maleimide

$$$$
