
 OpenBabel10282417072D

 30 30  0  0  0  0  0  0  0  0999 V2000
   -0.3572    0.6187    0.0000 O   0  0  0  0  0  0  0  0  0  0  0  0
   -0.3572   -1.8563    0.0000 O   0  0  0  0  0  0  0  0  0  0  0  0
   -1.7863   -1.0313    0.0000 O   0  0  0  0  0  0  0  0  0  0  0  0
    1.0717   -1.0313    0.0000 O   0  0  0  0  0  0  0  0  0  0  0  0
   -1.7863    1.4438    0.0000 O   0  0  0  0  0  0  0  0  0  0  0  0
    0.3572    1.8563    0.0000 O   0  0  0  0  0  0  0  0  0  0  0  0
    1.0717    0.6187    0.0000 N   0  0  0  0  0  0  0  0  0  0  0  0
   -0.3572   -1.0313    0.0000 C   0  0  1  0  0  0  0  0  0  0  0  0
   -1.0717   -0.6187    0.0000 C   0  0  1  0  0  0  0  0  0  0  0  0
    0.3572   -0.6187    0.0000 C   0  0  2  0  0  0  0  0  0  0  0  0
   -1.0717    0.2062    0.0000 C   0  0  1  0  0  0  0  0  0  0  0  0
    0.3572    0.2062    0.0000 C   0  0  1  0  0  0  0  0  0  0  0  0
   -1.7863    0.6187    0.0000 C   0  0  0  0  0  0  0  0  0  0  0  0
    1.0717    1.4438    0.0000 C   0  0  0  0  0  0  0  0  0  0  0  0
    1.7863    1.8563    0.0000 C   0  0  0  0  0  0  0  0  0  0  0  0
    1.5148    0.3630    0.0000 H   0  0  0  0  0  0  0  0  0  0  0  0
   -1.1972   -2.3413    0.0000 H   0  0  0  0  0  0  0  0  0  0  0  0
   -2.6264   -0.5463    0.0000 H   0  0  0  0  0  0  0  0  0  0  0  0
    1.0716   -2.0013    0.0000 H   0  0  0  0  0  0  0  0  0  0  0  0
   -0.9463    1.9288    0.0000 H   0  0  0  0  0  0  0  0  0  0  0  0
   -1.2839   -1.5663    0.0000 H   0  0  0  0  0  0  0  0  0  0  0  0
   -1.0717   -1.6887    0.0000 H   0  0  0  0  0  0  0  0  0  0  0  0
    0.3572   -1.6887    0.0000 H   0  0  0  0  0  0  0  0  0  0  0  0
   -1.0717    1.2762    0.0000 H   0  0  0  0  0  0  0  0  0  0  0  0
    0.3572    1.2762    0.0000 H   0  0  0  0  0  0  0  0  0  0  0  0
   -2.7129    0.0837    0.0000 H   0  0  0  0  0  0  0  0  0  0  0  0
   -1.7862   -0.4513    0.0000 H   0  0  0  0  0  0  0  0  0  0  0  0
    2.7129    1.3212    0.0000 H   0  0  0  0  0  0  0  0  0  0  0  0
    1.7864    2.9263    0.0000 H   0  0  0  0  0  0  0  0  0  0  0  0
    2.7130    2.3912    0.0000 H   0  0  0  0  0  0  0  0  0  0  0  0
  1 11  1  0  0  0  0
  1 12  1  0  0  0  0
  2 17  1  0  0  0  0
  3 18  1  0  0  0  0
  4 19  1  0  0  0  0
  5 13  1  0  0  0  0
  5 20  1  0  0  0  0
  6 14  2  0  0  0  0
  7 14  1  0  0  0  0
  7 16  1  0  0  0  0
  8  2  1  0  0  0  0
  8  9  1  0  0  0  0
  8 10  1  0  0  0  0
  8 21  1  6  0  0  0
  9  3  1  0  0  0  0
  9 11  1  0  0  0  0
  9 22  1  1  0  0  0
 10  4  1  0  0  0  0
 10 12  1  0  0  0  0
 10 23  1  1  0  0  0
 11 13  1  0  0  0  0
 11 24  1  6  0  0  0
 12  7  1  0  0  0  0
 12 25  1  6  0  0  0
 13 26  1  0  0  0  0
 13 27  1  0  0  0  0
 14 15  1  0  0  0  0
 15 28  1  0  0  0  0
 15 29  1  0  0  0  0
 15 30  1  0  0  0  0
M  END
>  <DRUGBANK_ID>
DB02320

>  <SECONDARY_ACCESSION_NUMBERS>
EXPT02300

>  <COMMON_NAME>
N-beta-D-glucopyranosylacetamide

>  <CAS_NUMBER>
6983-36-4

>  <SYNONYMS>
1-N-acetyl-beta-D-glucosamine

$$$$
