3468
 OpenBabel10282417072D

 58 60  0  0  0  0  0  0  0  0999 V2000
    8.0804    2.2688    0.0000 N   0  0  0  0  0  0  0  0  0  0  0  0
    2.3645    2.2688    0.0000 N   0  0  0  0  0  0  0  0  0  0  0  0
    5.2224   -2.6813    0.0000 N   0  3  0  0  0  0  0  0  0  0  0  0
    5.2224    0.6188    0.0000 C   0  0  0  0  0  0  0  0  0  0  0  0
    5.9370    1.0313    0.0000 C   0  0  0  0  0  0  0  0  0  0  0  0
    4.5080    1.0313    0.0000 C   0  0  0  0  0  0  0  0  0  0  0  0
    5.2224   -0.2063    0.0000 C   0  0  0  0  0  0  0  0  0  0  0  0
    5.9370    1.8563    0.0000 C   0  0  0  0  0  0  0  0  0  0  0  0
    3.7935    0.6188    0.0000 C   0  0  0  0  0  0  0  0  0  0  0  0
    6.6515    0.6188    0.0000 C   0  0  0  0  0  0  0  0  0  0  0  0
    4.5080    1.8563    0.0000 C   0  0  0  0  0  0  0  0  0  0  0  0
    5.9370   -0.6188    0.0000 C   0  0  0  0  0  0  0  0  0  0  0  0
    4.5080   -0.6188    0.0000 C   0  0  0  0  0  0  0  0  0  0  0  0
    7.3659    1.8563    0.0000 C   0  0  0  0  0  0  0  0  0  0  0  0
    3.0790    1.8563    0.0000 C   0  0  0  0  0  0  0  0  0  0  0  0
    5.2224   -1.8563    0.0000 C   0  0  0  0  0  0  0  0  0  0  0  0
    6.6515    2.2688    0.0000 C   0  0  0  0  0  0  0  0  0  0  0  0
    3.0790    1.0313    0.0000 C   0  0  0  0  0  0  0  0  0  0  0  0
    7.3659    1.0313    0.0000 C   0  0  0  0  0  0  0  0  0  0  0  0
    3.7935    2.2688    0.0000 C   0  0  0  0  0  0  0  0  0  0  0  0
    5.9370   -1.4438    0.0000 C   0  0  0  0  0  0  0  0  0  0  0  0
    4.5080   -1.4438    0.0000 C   0  0  0  0  0  0  0  0  0  0  0  0
    2.3645    3.0938    0.0000 C   0  0  0  0  0  0  0  0  0  0  0  0
    1.6500    1.8563    0.0000 C   0  0  0  0  0  0  0  0  0  0  0  0
    8.0804    3.0938    0.0000 C   0  0  0  0  0  0  0  0  0  0  0  0
    8.7949    1.8563    0.0000 C   0  0  0  0  0  0  0  0  0  0  0  0
    4.5080   -3.0938    0.0000 C   0  0  0  0  0  0  0  0  0  0  0  0
    5.9370   -3.0938    0.0000 C   0  0  0  0  0  0  0  0  0  0  0  0
    5.0433    2.3723    0.0000 H   0  0  0  0  0  0  0  0  0  0  0  0
    3.7935   -0.4132    0.0000 H   0  0  0  0  0  0  0  0  0  0  0  0
    6.6515   -0.4132    0.0000 H   0  0  0  0  0  0  0  0  0  0  0  0
    5.4017    2.3723    0.0000 H   0  0  0  0  0  0  0  0  0  0  0  0
    6.8307   -0.1028    0.0000 H   0  0  0  0  0  0  0  0  0  0  0  0
    3.6143   -0.1028    0.0000 H   0  0  0  0  0  0  0  0  0  0  0  0
    6.6515    3.3008    0.0000 H   0  0  0  0  0  0  0  0  0  0  0  0
    2.1853    0.5153    0.0000 H   0  0  0  0  0  0  0  0  0  0  0  0
    8.2596    0.5153    0.0000 H   0  0  0  0  0  0  0  0  0  0  0  0
    3.7935    3.3008    0.0000 H   0  0  0  0  0  0  0  0  0  0  0  0
    6.8307   -1.9598    0.0000 H   0  0  0  0  0  0  0  0  0  0  0  0
    3.6143   -1.9598    0.0000 H   0  0  0  0  0  0  0  0  0  0  0  0
    3.2911    3.6288    0.0000 H   0  0  0  0  0  0  0  0  0  0  0  0
    1.4379    3.6288    0.0000 H   0  0  0  0  0  0  0  0  0  0  0  0
    2.3645    4.1638    0.0000 H   0  0  0  0  0  0  0  0  0  0  0  0
    0.7234    2.3913    0.0000 H   0  0  0  0  0  0  0  0  0  0  0  0
    1.6500    0.7863    0.0000 H   0  0  0  0  0  0  0  0  0  0  0  0
    0.7233    1.3213    0.0000 H   0  0  0  0  0  0  0  0  0  0  0  0
    9.0070    3.6288    0.0000 H   0  0  0  0  0  0  0  0  0  0  0  0
    7.1538    3.6288    0.0000 H   0  0  0  0  0  0  0  0  0  0  0  0
    8.0804    4.1638    0.0000 H   0  0  0  0  0  0  0  0  0  0  0  0
    8.7949    0.7863    0.0000 H   0  0  0  0  0  0  0  0  0  0  0  0
    9.7215    2.3913    0.0000 H   0  0  0  0  0  0  0  0  0  0  0  0
    9.7216    1.3213    0.0000 H   0  0  0  0  0  0  0  0  0  0  0  0
    3.5813   -2.5588    0.0000 H   0  0  0  0  0  0  0  0  0  0  0  0
    4.5080   -4.1638    0.0000 H   0  0  0  0  0  0  0  0  0  0  0  0
    3.5814   -3.6288    0.0000 H   0  0  0  0  0  0  0  0  0  0  0  0
    5.9371   -4.1638    0.0000 H   0  0  0  0  0  0  0  0  0  0  0  0
    6.8636   -2.5587    0.0000 H   0  0  0  0  0  0  0  0  0  0  0  0
    6.8637   -3.6287    0.0000 H   0  0  0  0  0  0  0  0  0  0  0  0
  1 14  1  0  0  0  0
  1 25  1  0  0  0  0
  1 26  1  0  0  0  0
  2 15  1  0  0  0  0
  2 23  1  0  0  0  0
  2 24  1  0  0  0  0
  3 16  2  0  0  0  0
  3 27  1  0  0  0  0
  3 28  1  0  0  0  0
  4  5  1  0  0  0  0
  4  6  1  0  0  0  0
  4  7  2  0  0  0  0
  5  8  2  0  0  0  0
  5 10  1  0  0  0  0
  6  9  2  0  0  0  0
  6 11  1  0  0  0  0
  7 12  1  0  0  0  0
  7 13  1  0  0  0  0
  8 17  1  0  0  0  0
  8 29  1  0  0  0  0
  9 18  1  0  0  0  0
  9 30  1  0  0  0  0
 10 19  2  0  0  0  0
 10 31  1  0  0  0  0
 11 20  2  0  0  0  0
 11 32  1  0  0  0  0
 12 21  2  0  0  0  0
 12 33  1  0  0  0  0
 13 22  2  0  0  0  0
 13 34  1  0  0  0  0
 14 17  2  0  0  0  0
 14 19  1  0  0  0  0
 15 18  2  0  0  0  0
 15 20  1  0  0  0  0
 16 21  1  0  0  0  0
 16 22  1  0  0  0  0
 17 35  1  0  0  0  0
 18 36  1  0  0  0  0
 19 37  1  0  0  0  0
 20 38  1  0  0  0  0
 21 39  1  0  0  0  0
 22 40  1  0  0  0  0
 23 41  1  0  0  0  0
 23 42  1  0  0  0  0
 23 43  1  0  0  0  0
 24 44  1  0  0  0  0
 24 45  1  0  0  0  0
 24 46  1  0  0  0  0
 25 47  1  0  0  0  0
 25 48  1  0  0  0  0
 25 49  1  0  0  0  0
 26 50  1  0  0  0  0
 26 51  1  0  0  0  0
 26 52  1  0  0  0  0
 27 53  1  0  0  0  0
 27 54  1  0  0  0  0
 27 55  1  0  0  0  0
 28 56  1  0  0  0  0
 28 57  1  0  0  0  0
 28 58  1  0  0  0  0
M  CHG  1   3   1
M  END
>  <DRUGBANK_ID>
DB00406

>  <SECONDARY_ACCESSION_NUMBERS>
APRD00998

>  <COMMON_NAME>
Gentian violet cation

>  <CAS_NUMBER>
7438-46-2

>  <UNII>
3GVJ31T6YY

>  <SYNONYMS>
Crystal Violet; Crystal violet carbocation; Crystal violet ion(1); Crystal violet(1+); Gentian violet carbocation; Gentian violet cation; Gentian violet(1+); Methylrosaniline; Methylrosanilinium

$$$$
