
 OpenBabel10282417072D

 84 87  0  0  1  0  0  0  0  0999 V2000
    1.2202   -0.7899    0.0000 H   0  0  0  0  0  0  0  0  0  0  0  0
    0.4580   -1.1056    0.0000 C   0  0  1  0  0  0  0  0  0  0  0  0
   -0.3266   -1.3606    0.0000 C   0  0  0  0  0  0  0  0  0  0  0  0
   -0.8116   -0.6931    0.0000 C   0  0  0  0  0  0  0  0  0  0  0  0
   -0.3266   -0.0257    0.0000 C   0  0  2  0  0  0  0  0  0  0  0  0
    0.4580   -0.2806    0.0000 N   0  0  0  0  0  0  0  0  0  0  0  0
    1.0413    0.3027    0.0000 C   0  0  0  0  0  0  0  0  0  0  0  0
    0.7256    1.0649    0.0000 O   0  0  0  0  0  0  0  0  0  0  0  0
    1.8663    0.3027    0.0000 C   0  0  2  0  0  0  0  0  0  0  0  0
    2.4497   -0.2806    0.0000 C   0  0  0  0  0  0  0  0  0  0  0  0
    2.4497   -1.1056    0.0000 N   0  0  0  0  0  0  0  0  0  0  0  0
    1.8663   -1.6890    0.0000 C   0  0  0  0  0  0  0  0  0  0  0  0
    1.0413   -1.6890    0.0000 C   0  0  0  0  0  0  0  0  0  0  0  0
    3.2119   -1.4214    0.0000 C   0  0  0  0  0  0  0  0  0  0  0  0
    3.8664   -0.9191    0.0000 O   0  0  0  0  0  0  0  0  0  0  0  0
    3.3196   -2.2393    0.0000 C   0  0  0  0  0  0  0  0  0  0  0  0
    4.0818   -2.5550    0.0000 C   0  0  0  0  0  0  0  0  0  0  0  0
    4.1895   -3.3730    0.0000 C   0  0  0  0  0  0  0  0  0  0  0  0
    4.7363   -2.0528    0.0000 C   0  0  0  0  0  0  0  0  0  0  0  0
    2.1821    1.0649    0.0000 N   0  0  0  0  0  0  0  0  0  0  0  0
    1.6798    1.7194    0.0000 C   0  0  0  0  0  0  0  0  0  0  0  0
    0.8619    1.6117    0.0000 O   0  0  0  0  0  0  0  0  0  0  0  0
    1.9955    2.4816    0.0000 C   0  0  2  0  0  0  0  0  0  0  0  0
    2.8135    2.5893    0.0000 C   0  0  0  0  0  0  0  0  0  0  0  0
    1.4933    3.1362    0.0000 N   0  0  0  0  0  0  0  0  0  0  0  0
    0.6754    3.0285    0.0000 C   0  0  0  0  0  0  0  0  0  0  0  0
   -0.5816    0.7589    0.0000 C   0  0  0  0  0  0  0  0  0  0  0  0
   -0.0296    1.3720    0.0000 O   0  0  0  0  0  0  0  0  0  0  0  0
   -1.3886    0.9304    0.0000 N   0  0  0  0  0  0  0  0  0  0  0  0
   -1.6435    1.7151    0.0000 C   0  0  0  0  0  0  0  0  0  0  0  0
   -2.4505    1.8866    0.0000 C   0  0  0  0  0  0  0  0  0  0  0  0
   -3.0025    1.2735    0.0000 C   0  0  0  0  0  0  0  0  0  0  0  0
   -3.8095    1.4450    0.0000 C   0  0  0  0  0  0  0  0  0  0  0  0
   -4.0644    2.2296    0.0000 C   0  0  0  0  0  0  0  0  0  0  0  0
   -3.5124    2.8427    0.0000 C   0  0  0  0  0  0  0  0  0  0  0  0
   -2.7054    2.6712    0.0000 C   0  0  0  0  0  0  0  0  0  0  0  0
   -1.0915    2.3282    0.0000 C   0  0  0  0  0  0  0  0  0  0  0  0
   -1.3464    3.1128    0.0000 C   0  0  0  0  0  0  0  0  0  0  0  0
   -0.7944    3.7259    0.0000 C   0  0  0  0  0  0  0  0  0  0  0  0
    0.0126    3.5543    0.0000 C   0  0  0  0  0  0  0  0  0  0  0  0
    0.2675    2.7697    0.0000 C   0  0  0  0  0  0  0  0  0  0  0  0
   -0.2845    2.1566    0.0000 C   0  0  0  0  0  0  0  0  0  0  0  0
   -0.6572   -2.3782    0.0000 H   0  0  0  0  0  0  0  0  0  0  0  0
   -1.3834   -1.5280    0.0000 H   0  0  0  0  0  0  0  0  0  0  0  0
   -1.8816   -0.6931    0.0000 H   0  0  0  0  0  0  0  0  0  0  0  0
   -1.2973    0.2603    0.0000 H   0  0  0  0  0  0  0  0  0  0  0  0
   -1.3834    0.1417    0.0000 H   0  0  0  0  0  0  0  0  0  0  0  0
    1.2719    1.1924    0.0000 H   0  0  0  0  0  0  0  0  0  0  0  0
    3.4382    0.1289    0.0000 H   0  0  0  0  0  0  0  0  0  0  0  0
    3.3394   -0.8750    0.0000 H   0  0  0  0  0  0  0  0  0  0  0  0
    2.2758   -2.6776    0.0000 H   0  0  0  0  0  0  0  0  0  0  0  0
    1.2718   -2.5787    0.0000 H   0  0  0  0  0  0  0  0  0  0  0  0
    0.6318   -2.6775    0.0000 H   0  0  0  0  0  0  0  0  0  0  0  0
   -0.0082   -1.8977    0.0000 H   0  0  0  0  0  0  0  0  0  0  0  0
    2.4707   -2.8907    0.0000 H   0  0  0  0  0  0  0  0  0  0  0  0
    3.4593   -3.3001    0.0000 H   0  0  0  0  0  0  0  0  0  0  0  0
    5.0704   -2.9645    0.0000 H   0  0  0  0  0  0  0  0  0  0  0  0
    3.3406   -4.0244    0.0000 H   0  0  0  0  0  0  0  0  0  0  0  0
    5.1781   -3.7825    0.0000 H   0  0  0  0  0  0  0  0  0  0  0  0
    4.3292   -4.4338    0.0000 H   0  0  0  0  0  0  0  0  0  0  0  0
    5.7248   -2.4623    0.0000 H   0  0  0  0  0  0  0  0  0  0  0  0
    4.5967   -0.9920    0.0000 H   0  0  0  0  0  0  0  0  0  0  0  0
    5.5852   -1.4014    0.0000 H   0  0  0  0  0  0  0  0  0  0  0  0
    3.1582    1.1934    0.0000 H   0  0  0  0  0  0  0  0  0  0  0  0
    2.6469    1.6327    0.0000 H   0  0  0  0  0  0  0  0  0  0  0  0
    3.4649    1.7404    0.0000 H   0  0  0  0  0  0  0  0  0  0  0  0
    3.2230    3.5779    0.0000 H   0  0  0  0  0  0  0  0  0  0  0  0
    3.8743    2.7290    0.0000 H   0  0  0  0  0  0  0  0  0  0  0  0
    1.8837    4.0785    0.0000 H   0  0  0  0  0  0  0  0  0  0  0  0
    0.0240    3.8774    0.0000 H   0  0  0  0  0  0  0  0  0  0  0  0
    0.2660    2.0399    0.0000 H   0  0  0  0  0  0  0  0  0  0  0  0
   -0.3854    2.8888    0.0000 H   0  0  0  0  0  0  0  0  0  0  0  0
   -2.0474    0.1988    0.0000 H   0  0  0  0  0  0  0  0  0  0  0  0
   -1.9742    2.7327    0.0000 H   0  0  0  0  0  0  0  0  0  0  0  0
   -2.6836    0.2920    0.0000 H   0  0  0  0  0  0  0  0  0  0  0  0
   -4.5000    0.6781    0.0000 H   0  0  0  0  0  0  0  0  0  0  0  0
   -5.0738    2.4442    0.0000 H   0  0  0  0  0  0  0  0  0  0  0  0
   -3.8313    3.8242    0.0000 H   0  0  0  0  0  0  0  0  0  0  0  0
   -2.0149    3.4381    0.0000 H   0  0  0  0  0  0  0  0  0  0  0  0
   -2.3558    3.3274    0.0000 H   0  0  0  0  0  0  0  0  0  0  0  0
   -1.1133    4.7074    0.0000 H   0  0  0  0  0  0  0  0  0  0  0  0
    0.7032    4.3212    0.0000 H   0  0  0  0  0  0  0  0  0  0  0  0
    1.2769    2.5551    0.0000 H   0  0  0  0  0  0  0  0  0  0  0  0
    0.0344    1.1751    0.0000 H   0  0  0  0  0  0  0  0  0  0  0  0
  2  1  1  6  0  0  0
  2  3  1  0  0  0  0
  2  6  1  0  0  0  0
  2 13  1  0  0  0  0
  3  4  1  0  0  0  0
  3 43  1  0  0  0  0
  3 44  1  0  0  0  0
  4 45  1  0  0  0  0
  4 46  1  0  0  0  0
  5  4  1  0  0  0  0
  5  6  1  0  0  0  0
  5 27  1  0  0  0  0
  5 47  1  6  0  0  0
  6  7  1  0  0  0  0
  7  8  2  0  0  0  0
  9  7  1  0  0  0  0
  9 10  1  0  0  0  0
  9 20  1  0  0  0  0
  9 48  1  6  0  0  0
 10 11  1  0  0  0  0
 10 49  1  0  0  0  0
 10 50  1  0  0  0  0
 11 12  1  0  0  0  0
 11 14  1  0  0  0  0
 12 13  1  0  0  0  0
 12 51  1  0  0  0  0
 12 52  1  0  0  0  0
 13 53  1  0  0  0  0
 13 54  1  0  0  0  0
 14 15  2  0  0  0  0
 14 16  1  0  0  0  0
 16 17  1  0  0  0  0
 16 55  1  0  0  0  0
 16 56  1  0  0  0  0
 17 18  1  0  0  0  0
 17 19  1  0  0  0  0
 17 57  1  0  0  0  0
 18 58  1  0  0  0  0
 18 59  1  0  0  0  0
 18 60  1  0  0  0  0
 19 61  1  0  0  0  0
 19 62  1  0  0  0  0
 19 63  1  0  0  0  0
 20 21  1  0  0  0  0
 20 64  1  0  0  0  0
 21 22  2  0  0  0  0
 23 21  1  0  0  0  0
 23 24  1  0  0  0  0
 23 25  1  0  0  0  0
 23 65  1  6  0  0  0
 24 66  1  0  0  0  0
 24 67  1  0  0  0  0
 24 68  1  0  0  0  0
 25 26  1  0  0  0  0
 25 69  1  0  0  0  0
 26 70  1  0  0  0  0
 26 71  1  0  0  0  0
 26 72  1  0  0  0  0
 27 28  2  0  0  0  0
 27 29  1  0  0  0  0
 29 30  1  0  0  0  0
 29 73  1  0  0  0  0
 30 31  1  0  0  0  0
 30 37  1  0  0  0  0
 30 74  1  0  0  0  0
 31 32  2  0  0  0  0
 31 36  1  0  0  0  0
 32 33  1  0  0  0  0
 32 75  1  0  0  0  0
 33 34  2  0  0  0  0
 33 76  1  0  0  0  0
 34 35  1  0  0  0  0
 34 77  1  0  0  0  0
 35 36  2  0  0  0  0
 35 78  1  0  0  0  0
 36 79  1  0  0  0  0
 37 38  2  0  0  0  0
 37 42  1  0  0  0  0
 38 39  1  0  0  0  0
 38 80  1  0  0  0  0
 39 40  2  0  0  0  0
 39 81  1  0  0  0  0
 40 41  1  0  0  0  0
 40 82  1  0  0  0  0
 41 42  2  0  0  0  0
 41 83  1  0  0  0  0
 42 84  1  0  0  0  0
M  END
>  <DRUGBANK_ID>
DB16305

>  <COMMON_NAME>
Xevinapant

>  <CAS_NUMBER>
1071992-99-8

>  <UNII>
N65WC8PXDD

>  <SYNONYMS>
(5S,8S, 10aR)-N-benzhydryl-5-((S)-2-(methylamino)propanamido)-3-(3-methylbutanoyl)-6-oxodecahydropyrrolo[1,2-a][1,5] diazocine-8-carboxyamide; Iap inhibitor at-406; PYRROLO(1,2-A)(1,5)DIAZOCINE-8-CARBOXAMIDE, N-(DIPHENYLMETHYL)DECAHYDRO-5-(((2S)-2-(METHYLAMINO)-1-OXOPROPYL)AMINO)-3-(3-METHYL-1-OXOBUTYL)-6-OXO-, (5S,8S,10AR)-; Xevinapant

$$$$
