[NO NAME]
 OpenBabel10282417072D
Created with ChemWriter - http://chemwriter.com
 64 65  0  0  0  0  0  0  0  0999 V2000
    3.8861    1.4562    0.0000 C   0  0  0  0  0  0  0  0  0  0  0  0
    4.6006    1.8687    0.0000 N   0  0  0  0  0  0  0  0  0  0  0  0
    5.3151    1.4562    0.0000 C   0  0  0  0  0  0  0  0  0  0  0  0
    5.3151    0.6312    0.0000 N   0  0  0  0  0  0  0  0  0  0  0  0
    6.0296    1.8687    0.0000 N   0  0  0  0  0  0  0  0  0  0  0  0
    6.7440    1.4562    0.0000 C   0  0  0  0  0  0  0  0  0  0  0  0
    6.7440    0.6312    0.0000 N   0  0  0  0  0  0  0  0  0  0  0  0
    7.4585    1.8687    0.0000 N   0  0  0  0  0  0  0  0  0  0  0  0
    8.1730    1.4562    0.0000 C   0  0  0  0  0  0  0  0  0  0  0  0
    8.8752    1.8893    0.0000 C   0  0  0  0  0  0  0  0  0  0  0  0
    8.1969    0.6316    0.0000 C   0  0  0  0  0  0  0  0  0  0  0  0
    8.9231    0.2400    0.0000 C   0  0  0  0  0  0  0  0  0  0  0  0
    9.6013    1.4978    0.0000 C   0  0  0  0  0  0  0  0  0  0  0  0
    9.6253    0.6731    0.0000 C   0  0  0  0  0  0  0  0  0  0  0  0
   10.3397    0.2606    0.0000 Cl  0  0  0  0  0  0  0  0  0  0  0  0
    3.8861    0.6312    0.0000 C   0  0  0  0  0  0  0  0  0  0  0  0
    3.1716    0.2187    0.0000 C   0  0  0  0  0  0  0  0  0  0  0  0
    3.1716   -0.6063    0.0000 C   0  0  0  0  0  0  0  0  0  0  0  0
    3.8861   -1.0188    0.0000 C   0  0  0  0  0  0  0  0  0  0  0  0
    3.8861   -1.8438    0.0000 C   0  0  0  0  0  0  0  0  0  0  0  0
    4.6006   -2.2563    0.0000 N   0  0  0  0  0  0  0  0  0  0  0  0
    5.3150   -1.8438    0.0000 C   0  0  0  0  0  0  0  0  0  0  0  0
    5.3150   -1.0188    0.0000 N   0  0  0  0  0  0  0  0  0  0  0  0
    6.0295   -2.2563    0.0000 N   0  0  0  0  0  0  0  0  0  0  0  0
    6.7440   -1.8438    0.0000 C   0  0  0  0  0  0  0  0  0  0  0  0
    6.7440   -1.0188    0.0000 N   0  0  0  0  0  0  0  0  0  0  0  0
    7.4585   -2.2563    0.0000 N   0  0  0  0  0  0  0  0  0  0  0  0
    8.1729   -1.8438    0.0000 C   0  0  0  0  0  0  0  0  0  0  0  0
    8.8874   -0.6063    0.0000 C   0  0  0  0  0  0  0  0  0  0  0  0
    8.1729   -1.0188    0.0000 C   0  0  0  0  0  0  0  0  0  0  0  0
    8.8874   -2.2563    0.0000 C   0  0  0  0  0  0  0  0  0  0  0  0
    9.6019   -1.8438    0.0000 C   0  0  0  0  0  0  0  0  0  0  0  0
    9.6019   -1.0188    0.0000 C   0  0  0  0  0  0  0  0  0  0  0  0
   10.3163   -0.6063    0.0000 Cl  0  0  0  0  0  0  0  0  0  0  0  0
    2.9595    1.9912    0.0000 H   0  0  0  0  0  0  0  0  0  0  0  0
    2.9595    0.9212    0.0000 H   0  0  0  0  0  0  0  0  0  0  0  0
    4.6006    2.8532    0.0000 H   0  0  0  0  0  0  0  0  0  0  0  0
    4.4625    0.1389    0.0000 H   0  0  0  0  0  0  0  0  0  0  0  0
    6.0296    2.8532    0.0000 H   0  0  0  0  0  0  0  0  0  0  0  0
    5.8914    0.1389    0.0000 H   0  0  0  0  0  0  0  0  0  0  0  0
    7.4585    2.8532    0.0000 H   0  0  0  0  0  0  0  0  0  0  0  0
    8.8452    2.9209    0.0000 H   0  0  0  0  0  0  0  0  0  0  0  0
    7.3185    0.0899    0.0000 H   0  0  0  0  0  0  0  0  0  0  0  0
    8.9531   -0.7916    0.0000 H   0  0  0  0  0  0  0  0  0  0  0  0
   10.4796    2.0396    0.0000 H   0  0  0  0  0  0  0  0  0  0  0  0
    4.8127    0.0962    0.0000 H   0  0  0  0  0  0  0  0  0  0  0  0
    3.8861   -0.4388    0.0000 H   0  0  0  0  0  0  0  0  0  0  0  0
    2.2450    0.7537    0.0000 H   0  0  0  0  0  0  0  0  0  0  0  0
    2.2450   -0.3163    0.0000 H   0  0  0  0  0  0  0  0  0  0  0  0
    2.2450   -1.1413    0.0000 H   0  0  0  0  0  0  0  0  0  0  0  0
    3.1716   -1.6763    0.0000 H   0  0  0  0  0  0  0  0  0  0  0  0
    4.8127   -0.4838    0.0000 H   0  0  0  0  0  0  0  0  0  0  0  0
    4.8127   -1.5538    0.0000 H   0  0  0  0  0  0  0  0  0  0  0  0
    2.9595   -2.3788    0.0000 H   0  0  0  0  0  0  0  0  0  0  0  0
    3.8861   -2.9138    0.0000 H   0  0  0  0  0  0  0  0  0  0  0  0
    4.6006   -3.2408    0.0000 H   0  0  0  0  0  0  0  0  0  0  0  0
    6.1676   -0.5265    0.0000 H   0  0  0  0  0  0  0  0  0  0  0  0
    6.0295   -3.2408    0.0000 H   0  0  0  0  0  0  0  0  0  0  0  0
    7.5966   -0.5265    0.0000 H   0  0  0  0  0  0  0  0  0  0  0  0
    7.4585   -3.2408    0.0000 H   0  0  0  0  0  0  0  0  0  0  0  0
    8.8874    0.4257    0.0000 H   0  0  0  0  0  0  0  0  0  0  0  0
    7.2792   -0.5028    0.0000 H   0  0  0  0  0  0  0  0  0  0  0  0
    8.8874   -3.2883    0.0000 H   0  0  0  0  0  0  0  0  0  0  0  0
   10.4956   -2.3598    0.0000 H   0  0  0  0  0  0  0  0  0  0  0  0
  1  2  1  0  0  0  0
  1 16  1  0  0  0  0
  1 35  1  0  0  0  0
  1 36  1  0  0  0  0
  2  3  1  0  0  0  0
  2 37  1  0  0  0  0
  3  5  1  0  0  0  0
  3  4  2  0  0  0  0
  4 38  1  0  0  0  0
  5  6  1  0  0  0  0
  5 39  1  0  0  0  0
  6  8  1  0  0  0  0
  6  7  2  0  0  0  0
  7 40  1  0  0  0  0
  8  9  1  0  0  0  0
  8 41  1  0  0  0  0
  9 11  1  0  0  0  0
 10  9  2  0  0  0  0
 10 13  1  0  0  0  0
 10 42  1  0  0  0  0
 11 12  2  0  0  0  0
 11 43  1  0  0  0  0
 12 14  1  0  0  0  0
 12 44  1  0  0  0  0
 13 45  1  0  0  0  0
 14 13  2  0  0  0  0
 14 15  1  0  0  0  0
 16 17  1  0  0  0  0
 16 46  1  0  0  0  0
 16 47  1  0  0  0  0
 17 18  1  0  0  0  0
 17 48  1  0  0  0  0
 17 49  1  0  0  0  0
 18 19  1  0  0  0  0
 18 50  1  0  0  0  0
 18 51  1  0  0  0  0
 19 20  1  0  0  0  0
 19 52  1  0  0  0  0
 19 53  1  0  0  0  0
 20 21  1  0  0  0  0
 20 54  1  0  0  0  0
 20 55  1  0  0  0  0
 21 22  1  0  0  0  0
 21 56  1  0  0  0  0
 22 23  2  0  0  0  0
 22 24  1  0  0  0  0
 23 57  1  0  0  0  0
 24 25  1  0  0  0  0
 24 58  1  0  0  0  0
 25 26  2  0  0  0  0
 25 27  1  0  0  0  0
 26 59  1  0  0  0  0
 27 28  1  0  0  0  0
 27 60  1  0  0  0  0
 28 31  1  0  0  0  0
 29 30  1  0  0  0  0
 29 33  2  0  0  0  0
 29 61  1  0  0  0  0
 30 28  2  0  0  0  0
 30 62  1  0  0  0  0
 31 32  2  0  0  0  0
 31 63  1  0  0  0  0
 32 33  1  0  0  0  0
 32 64  1  0  0  0  0
 33 34  1  0  0  0  0
M  END
>  <DRUGBANK_ID>
DB00878

>  <SECONDARY_ACCESSION_NUMBERS>
APRD00545

>  <COMMON_NAME>
Chlorhexidine

>  <CAS_NUMBER>
55-56-1

>  <UNII>
R4KO0DY52L

>  <SYNONYMS>
1,1'-Hexamethylene bis(5-(p-chlorophenyl)biguanide); Chlorhexidin; Chlorhexidine; Chlorhexidinum; Cloresidina; Clorhexidina; N,N'-Bis(4-chlorophenyl)-3,12-diimino-2,4,11,13-tetraazatetradecanediimidamide

$$$$
