
 OpenBabel10282417072D

 40 43  0  0  0  0  0  0  0  0999 V2000
    3.2789    2.0625    0.0000 O   0  0  0  0  0  0  0  0  0  0  0  0
    3.2789    1.2375    0.0000 C   0  0  0  0  0  0  0  0  0  0  0  0
    3.9934    0.8250    0.0000 N   0  0  0  0  0  0  0  0  0  0  0  0
    3.9934    0.0000    0.0000 C   0  0  0  0  0  0  0  0  0  0  0  0
    4.7079   -0.4125    0.0000 C   0  0  0  0  0  0  0  0  0  0  0  0
    5.4223   -0.0000    0.0000 C   0  0  0  0  0  0  0  0  0  0  0  0
    5.4223    0.8250    0.0000 N   0  0  0  0  0  0  0  0  0  0  0  0
    6.1368    1.2375    0.0000 C   0  0  0  0  0  0  0  0  0  0  0  0
    6.8513    0.8250    0.0000 C   0  0  0  0  0  0  0  0  0  0  0  0
    6.8513   -0.0000    0.0000 C   0  0  0  0  0  0  0  0  0  0  0  0
    6.1368   -0.4125    0.0000 C   0  0  0  0  0  0  0  0  0  0  0  0
    3.2789   -0.4125    0.0000 N   0  0  0  0  0  0  0  0  0  0  0  0
    2.5645    0.0000    0.0000 C   0  0  0  0  0  0  0  0  0  0  0  0
    2.5645    0.8250    0.0000 C   0  0  0  0  0  0  0  0  0  0  0  0
    1.7798    1.0799    0.0000 C   0  0  0  0  0  0  0  0  0  0  0  0
    1.2949    0.4125    0.0000 N   0  0  0  0  0  0  0  0  0  0  0  0
    1.7798   -0.2549    0.0000 N   0  0  0  0  0  0  0  0  0  0  0  0
    1.5249   -1.0396    0.0000 C   0  0  0  0  0  0  0  0  0  0  0  0
    2.0769   -1.6527    0.0000 C   0  0  0  0  0  0  0  0  0  0  0  0
    1.8220   -2.4373    0.0000 C   0  0  0  0  0  0  0  0  0  0  0  0
    1.0150   -2.6088    0.0000 O   0  0  0  0  0  0  0  0  0  0  0  0
    0.4630   -1.9957    0.0000 C   0  0  0  0  0  0  0  0  0  0  0  0
    0.7179   -1.2111    0.0000 C   0  0  0  0  0  0  0  0  0  0  0  0
    4.8460    1.3173    0.0000 H   0  0  0  0  0  0  0  0  0  0  0  0
    4.7079   -1.4825    0.0000 H   0  0  0  0  0  0  0  0  0  0  0  0
    5.6346   -0.9475    0.0000 H   0  0  0  0  0  0  0  0  0  0  0  0
    6.1368    2.2695    0.0000 H   0  0  0  0  0  0  0  0  0  0  0  0
    7.7450    1.3410    0.0000 H   0  0  0  0  0  0  0  0  0  0  0  0
    7.7450   -0.5160    0.0000 H   0  0  0  0  0  0  0  0  0  0  0  0
    6.1368   -1.4445    0.0000 H   0  0  0  0  0  0  0  0  0  0  0  0
    1.4609    2.0614    0.0000 H   0  0  0  0  0  0  0  0  0  0  0  0
    1.1942   -2.0572    0.0000 H   0  0  0  0  0  0  0  0  0  0  0  0
    3.1235   -1.4302    0.0000 H   0  0  0  0  0  0  0  0  0  0  0  0
    2.7929   -2.4479    0.0000 H   0  0  0  0  0  0  0  0  0  0  0  0
    2.5380   -3.2325    0.0000 H   0  0  0  0  0  0  0  0  0  0  0  0
    1.4913   -3.4549    0.0000 H   0  0  0  0  0  0  0  0  0  0  0  0
   -0.5836   -2.2182    0.0000 H   0  0  0  0  0  0  0  0  0  0  0  0
   -0.2530   -1.2005    0.0000 H   0  0  0  0  0  0  0  0  0  0  0  0
    0.0019   -0.4159    0.0000 H   0  0  0  0  0  0  0  0  0  0  0  0
    1.0486   -0.1935    0.0000 H   0  0  0  0  0  0  0  0  0  0  0  0
  1  2  2  0  0  0  0
  2  3  1  0  0  0  0
  2 14  1  0  0  0  0
  3  4  1  0  0  0  0
  3 24  1  0  0  0  0
  4  5  1  0  0  0  0
  4 12  2  0  0  0  0
  5  6  1  0  0  0  0
  5 25  1  0  0  0  0
  5 26  1  0  0  0  0
  6  7  2  0  0  0  0
  6 11  1  0  0  0  0
  7  8  1  0  0  0  0
  8  9  2  0  0  0  0
  8 27  1  0  0  0  0
  9 10  1  0  0  0  0
  9 28  1  0  0  0  0
 10 11  2  0  0  0  0
 10 29  1  0  0  0  0
 11 30  1  0  0  0  0
 12 13  1  0  0  0  0
 13 14  2  0  0  0  0
 13 17  1  0  0  0  0
 14 15  1  0  0  0  0
 15 16  2  0  0  0  0
 15 31  1  0  0  0  0
 16 17  1  0  0  0  0
 17 18  1  0  0  0  0
 18 19  1  0  0  0  0
 18 23  1  0  0  0  0
 18 32  1  0  0  0  0
 19 20  1  0  0  0  0
 19 33  1  0  0  0  0
 19 34  1  0  0  0  0
 20 21  1  0  0  0  0
 20 35  1  0  0  0  0
 20 36  1  0  0  0  0
 21 22  1  0  0  0  0
 22 23  1  0  0  0  0
 22 37  1  0  0  0  0
 22 38  1  0  0  0  0
 23 39  1  0  0  0  0
 23 40  1  0  0  0  0
M  END
>  <DRUGBANK_ID>
DB16274

>  <COMMON_NAME>
Osoresnontrine

>  <CAS_NUMBER>
1189767-28-9

>  <UNII>
O9OC34WOAY

>  <SYNONYMS>
Osoresnontrine

$$$$
