8MR
 OpenBabel10282417072D

 31 31  0  0  0  0  0  0  0  0999 V2000
   -1.3926   -2.3639    0.0000 C   0  0  0  0  0  0  0  0  0  0  0  0
   -0.6781   -1.9514    0.0000 O   0  0  0  0  0  0  0  0  0  0  0  0
   -0.6781   -1.1264    0.0000 C   0  0  0  0  0  0  0  0  0  0  0  0
    0.0363   -0.7139    0.0000 C   0  0  0  0  0  0  0  0  0  0  0  0
    0.0363    0.1111    0.0000 C   0  0  0  0  0  0  0  0  0  0  0  0
   -1.3926   -0.7139    0.0000 C   0  0  0  0  0  0  0  0  0  0  0  0
   -1.3926    0.1111    0.0000 C   0  0  0  0  0  0  0  0  0  0  0  0
   -0.6781    0.5236    0.0000 C   0  0  0  0  0  0  0  0  0  0  0  0
   -0.6781    1.3486    0.0000 S   0  0  0  0  0  0  0  0  0  0  0  0
    0.1469    1.3486    0.0000 O   0  0  0  0  0  0  0  0  0  0  0  0
   -1.5031    1.3486    0.0000 O   0  0  0  0  0  0  0  0  0  0  0  0
   -0.6781    2.1736    0.0000 C   0  0  1  0  0  0  0  0  0  0  0  0
    0.0363    2.5861    0.0000 C   0  0  0  0  0  0  0  0  0  0  0  0
    0.7508    2.1736    0.0000 F   0  0  0  0  0  0  0  0  0  0  0  0
    0.0363    3.4111    0.0000 F   0  0  0  0  0  0  0  0  0  0  0  0
   -1.3926    2.5861    0.0000 C   0  0  0  0  0  0  0  0  0  0  0  0
   -1.3926    3.4111    0.0000 C   0  0  0  0  0  0  0  0  0  0  0  0
   -2.1071    3.8236    0.0000 O   0  0  0  0  0  0  0  0  0  0  0  0
   -0.6781    3.8236    0.0000 O   0  0  0  0  0  0  0  0  0  0  0  0
   -1.1838    1.8816    0.0000 H   0  0  0  0  0  0  0  0  0  0  0  0
   -2.3192   -1.8289    0.0000 H   0  0  0  0  0  0  0  0  0  0  0  0
   -1.3926   -3.4339    0.0000 H   0  0  0  0  0  0  0  0  0  0  0  0
   -2.3193   -2.8989    0.0000 H   0  0  0  0  0  0  0  0  0  0  0  0
    0.9300   -1.2299    0.0000 H   0  0  0  0  0  0  0  0  0  0  0  0
    0.9300    0.6271    0.0000 H   0  0  0  0  0  0  0  0  0  0  0  0
   -2.2863   -1.2299    0.0000 H   0  0  0  0  0  0  0  0  0  0  0  0
   -2.2863    0.6271    0.0000 H   0  0  0  0  0  0  0  0  0  0  0  0
    0.9629    3.1211    0.0000 H   0  0  0  0  0  0  0  0  0  0  0  0
   -2.3192    2.0511    0.0000 H   0  0  0  0  0  0  0  0  0  0  0  0
   -2.3192    3.1211    0.0000 H   0  0  0  0  0  0  0  0  0  0  0  0
    0.1334    3.3551    0.0000 H   0  0  0  0  0  0  0  0  0  0  0  0
  1  2  1  0  0  0  0
  1 21  1  0  0  0  0
  1 22  1  0  0  0  0
  1 23  1  0  0  0  0
  2  3  1  0  0  0  0
  3  6  1  0  0  0  0
  3  4  2  0  0  0  0
  4  5  1  0  0  0  0
  4 24  1  0  0  0  0
  5  8  2  0  0  0  0
  5 25  1  0  0  0  0
  6  7  2  0  0  0  0
  6 26  1  0  0  0  0
  7  8  1  0  0  0  0
  7 27  1  0  0  0  0
  8  9  1  0  0  0  0
  9 10  2  0  0  0  0
  9 11  2  0  0  0  0
 12  9  1  0  0  0  0
 12 16  1  0  0  0  0
 12 13  1  0  0  0  0
 12 20  1  1  0  0  0
 13 15  1  0  0  0  0
 13 14  1  0  0  0  0
 13 28  1  0  0  0  0
 16 17  1  0  0  0  0
 16 29  1  0  0  0  0
 16 30  1  0  0  0  0
 17 18  2  0  0  0  0
 17 19  1  0  0  0  0
 19 31  1  0  0  0  0
M  END
>  <DRUGBANK_ID>
DB07285

>  <COMMON_NAME>
(3R)-4,4-DIFLUORO-3-[(4-METHOXYPHENYL)SULFONYL]BUTANOIC ACID

$$$$
