
 OpenBabel10282417072D

106107  0  0  0  0  0  0  0  0999 V2000
    3.2148   -0.2716    0.0000 O   0  0  0  0  0  0  0  0  0  0  0  0
    3.2148   -1.0955    0.0000 C   0  0  0  0  0  0  0  0  0  0  0  0
    3.9298   -1.5073    0.0000 N   0  0  0  0  0  0  0  0  0  0  0  0
    4.6400   -1.0955    0.0000 C   0  0  0  0  0  0  0  0  0  0  0  0
    4.6400   -0.2716    0.0000 C   0  0  0  0  0  0  0  0  0  0  0  0
    5.3548    0.1401    0.0000 C   0  0  0  0  0  0  0  0  0  0  0  0
    5.3548    0.9640    0.0000 C   0  0  0  0  0  0  0  0  0  0  0  0
    4.6400    1.3805    0.0000 N   0  0  0  0  0  0  0  0  0  0  0  0
    4.6400    2.2043    0.0000 N   0  0  0  0  0  0  0  0  0  0  0  0
    3.9296    2.6161    0.0000 C   0  0  0  0  0  0  0  0  0  0  0  0
    3.2148    2.2043    0.0000 N   0  0  0  0  0  0  0  0  0  0  0  0
    3.9296    3.4399    0.0000 N   0  0  0  0  0  0  0  0  0  0  0  0
    6.0698    1.3805    0.0000 C   0  0  0  0  0  0  0  0  0  0  0  0
    6.0698   -0.2716    0.0000 C   0  0  0  0  0  0  0  0  0  0  0  0
    6.0698   -1.0955    0.0000 C   0  0  0  0  0  0  0  0  0  0  0  0
    6.7847   -1.5072    0.0000 C   0  0  0  0  0  0  0  0  0  0  0  0
    6.7847   -2.3311    0.0000 N   0  0  0  0  0  0  0  0  0  0  0  0
    7.4996   -2.7431    0.0000 N   0  0  0  0  0  0  0  0  0  0  0  0
    7.4996   -3.5715    0.0000 C   0  0  0  0  0  0  0  0  0  0  0  0
    6.7847   -3.9834    0.0000 N   0  0  0  0  0  0  0  0  0  0  0  0
    8.2099   -3.9834    0.0000 N   0  0  0  0  0  0  0  0  0  0  0  0
    7.4996   -1.0955    0.0000 C   0  0  0  0  0  0  0  0  0  0  0  0
    5.3548   -1.5073    0.0000 C   0  0  0  0  0  0  0  0  0  0  0  0
    2.4999   -1.5073    0.0000 C   0  0  0  0  0  0  0  0  0  0  0  0
    1.7849   -1.0955    0.0000 C   0  0  0  0  0  0  0  0  0  0  0  0
    1.0701   -1.5073    0.0000 C   0  0  0  0  0  0  0  0  0  0  0  0
    0.3598   -1.0955    0.0000 C   0  0  0  0  0  0  0  0  0  0  0  0
   -0.3551   -1.5073    0.0000 C   0  0  0  0  0  0  0  0  0  0  0  0
   -1.0698   -1.0955    0.0000 C   0  0  0  0  0  0  0  0  0  0  0  0
   -1.7849   -1.5073    0.0000 C   0  0  0  0  0  0  0  0  0  0  0  0
   -2.4999   -1.0955    0.0000 C   0  0  0  0  0  0  0  0  0  0  0  0
   -3.2146   -1.5073    0.0000 C   0  0  0  0  0  0  0  0  0  0  0  0
   -3.2146   -2.3312    0.0000 O   0  0  0  0  0  0  0  0  0  0  0  0
   -3.9250   -1.0955    0.0000 N   0  0  0  0  0  0  0  0  0  0  0  0
   -4.6399   -1.5073    0.0000 C   0  0  0  0  0  0  0  0  0  0  0  0
   -4.6399   -2.3312    0.0000 C   0  0  0  0  0  0  0  0  0  0  0  0
   -5.3547   -2.7431    0.0000 C   0  0  0  0  0  0  0  0  0  0  0  0
   -5.3547   -3.5715    0.0000 C   0  0  0  0  0  0  0  0  0  0  0  0
   -4.6399   -3.9834    0.0000 N   0  0  0  0  0  0  0  0  0  0  0  0
   -4.6399   -4.8073    0.0000 N   0  0  0  0  0  0  0  0  0  0  0  0
   -3.9250   -5.2191    0.0000 C   0  0  0  0  0  0  0  0  0  0  0  0
   -3.2146   -4.8073    0.0000 N   0  0  0  0  0  0  0  0  0  0  0  0
   -3.9250   -6.0429    0.0000 N   0  0  0  0  0  0  0  0  0  0  0  0
   -6.0696   -3.9834    0.0000 C   0  0  0  0  0  0  0  0  0  0  0  0
   -6.0696   -2.3312    0.0000 C   0  0  0  0  0  0  0  0  0  0  0  0
   -6.0696   -1.5073    0.0000 C   0  0  0  0  0  0  0  0  0  0  0  0
   -6.7846   -1.0955    0.0000 C   0  0  0  0  0  0  0  0  0  0  0  0
   -6.7846   -0.2716    0.0000 N   0  0  0  0  0  0  0  0  0  0  0  0
   -7.4996    0.1401    0.0000 N   0  0  0  0  0  0  0  0  0  0  0  0
   -7.4996    0.9640    0.0000 C   0  0  0  0  0  0  0  0  0  0  0  0
   -6.7846    1.3805    0.0000 N   0  0  0  0  0  0  0  0  0  0  0  0
   -8.2099    1.3805    0.0000 N   0  0  0  0  0  0  0  0  0  0  0  0
   -7.4996   -1.5073    0.0000 C   0  0  0  0  0  0  0  0  0  0  0  0
   -5.3547   -1.0955    0.0000 C   0  0  0  0  0  0  0  0  0  0  0  0
    3.9312   -2.4918    0.0000 H   0  0  0  0  0  0  0  0  0  0  0  0
    3.7465    0.2449    0.0000 H   0  0  0  0  0  0  0  0  0  0  0  0
    5.4930    2.6958    0.0000 H   0  0  0  0  0  0  0  0  0  0  0  0
    2.3627    2.6973    0.0000 H   0  0  0  0  0  0  0  0  0  0  0  0
    3.2139    1.2198    0.0000 H   0  0  0  0  0  0  0  0  0  0  0  0
    4.7822    3.9322    0.0000 H   0  0  0  0  0  0  0  0  0  0  0  0
    6.9985    0.8491    0.0000 H   0  0  0  0  0  0  0  0  0  0  0  0
    6.0657    2.4505    0.0000 H   0  0  0  0  0  0  0  0  0  0  0  0
    6.9944    1.9191    0.0000 H   0  0  0  0  0  0  0  0  0  0  0  0
    6.9632    0.2449    0.0000 H   0  0  0  0  0  0  0  0  0  0  0  0
    8.3520   -2.2505    0.0000 H   0  0  0  0  0  0  0  0  0  0  0  0
    5.9325   -3.4904    0.0000 H   0  0  0  0  0  0  0  0  0  0  0  0
    6.7838   -4.9679    0.0000 H   0  0  0  0  0  0  0  0  0  0  0  0
    8.2080   -4.9679    0.0000 H   0  0  0  0  0  0  0  0  0  0  0  0
    8.4257   -1.6315    0.0000 H   0  0  0  0  0  0  0  0  0  0  0  0
    7.5008   -0.0255    0.0000 H   0  0  0  0  0  0  0  0  0  0  0  0
    8.4268   -0.5615    0.0000 H   0  0  0  0  0  0  0  0  0  0  0  0
    5.3547   -2.5393    0.0000 H   0  0  0  0  0  0  0  0  0  0  0  0
    2.4999   -2.5773    0.0000 H   0  0  0  0  0  0  0  0  0  0  0  0
    1.5735   -2.0428    0.0000 H   0  0  0  0  0  0  0  0  0  0  0  0
    1.7848   -0.0255    0.0000 H   0  0  0  0  0  0  0  0  0  0  0  0
    0.8585   -0.5601    0.0000 H   0  0  0  0  0  0  0  0  0  0  0  0
    1.0686   -2.5773    0.0000 H   0  0  0  0  0  0  0  0  0  0  0  0
    0.1426   -2.0408    0.0000 H   0  0  0  0  0  0  0  0  0  0  0  0
    0.3613   -0.0255    0.0000 H   0  0  0  0  0  0  0  0  0  0  0  0
   -0.5662   -0.5594    0.0000 H   0  0  0  0  0  0  0  0  0  0  0  0
   -0.3552   -2.5773    0.0000 H   0  0  0  0  0  0  0  0  0  0  0  0
   -1.2815   -2.0427    0.0000 H   0  0  0  0  0  0  0  0  0  0  0  0
   -1.0697   -0.0255    0.0000 H   0  0  0  0  0  0  0  0  0  0  0  0
   -1.9961   -0.5599    0.0000 H   0  0  0  0  0  0  0  0  0  0  0  0
   -1.7849   -2.5773    0.0000 H   0  0  0  0  0  0  0  0  0  0  0  0
   -2.7113   -2.0428    0.0000 H   0  0  0  0  0  0  0  0  0  0  0  0
   -2.5000   -0.0255    0.0000 H   0  0  0  0  0  0  0  0  0  0  0  0
   -3.4263   -0.5601    0.0000 H   0  0  0  0  0  0  0  0  0  0  0  0
   -3.9237   -0.1110    0.0000 H   0  0  0  0  0  0  0  0  0  0  0  0
   -3.7464   -2.8476    0.0000 H   0  0  0  0  0  0  0  0  0  0  0  0
   -5.4923   -5.3000    0.0000 H   0  0  0  0  0  0  0  0  0  0  0  0
   -2.3611   -5.2981    0.0000 H   0  0  0  0  0  0  0  0  0  0  0  0
   -3.2163   -3.8228    0.0000 H   0  0  0  0  0  0  0  0  0  0  0  0
   -4.7776   -6.5352    0.0000 H   0  0  0  0  0  0  0  0  0  0  0  0
   -6.9958   -3.4476    0.0000 H   0  0  0  0  0  0  0  0  0  0  0  0
   -6.0706   -5.0534    0.0000 H   0  0  0  0  0  0  0  0  0  0  0  0
   -6.9967   -4.5176    0.0000 H   0  0  0  0  0  0  0  0  0  0  0  0
   -6.9631   -2.8476    0.0000 H   0  0  0  0  0  0  0  0  0  0  0  0
   -8.3519   -0.3526    0.0000 H   0  0  0  0  0  0  0  0  0  0  0  0
   -5.9301    0.8916    0.0000 H   0  0  0  0  0  0  0  0  0  0  0  0
   -6.7884    2.3650    0.0000 H   0  0  0  0  0  0  0  0  0  0  0  0
   -8.2033    2.3650    0.0000 H   0  0  0  0  0  0  0  0  0  0  0  0
   -8.4257   -0.9713    0.0000 H   0  0  0  0  0  0  0  0  0  0  0  0
   -7.5007   -2.5773    0.0000 H   0  0  0  0  0  0  0  0  0  0  0  0
   -8.4268   -2.0413    0.0000 H   0  0  0  0  0  0  0  0  0  0  0  0
   -5.3547   -0.0635    0.0000 H   0  0  0  0  0  0  0  0  0  0  0  0
  2  1  2  0  0  0  0
  2  3  1  0  0  0  0
  3 55  1  0  0  0  0
  4  3  1  0  0  0  0
  5  4  1  0  0  0  0
  5  6  2  0  0  0  0
  5 56  1  0  0  0  0
  7  6  1  0  0  0  0
  7  8  2  0  0  0  0
  8  9  1  0  0  0  0
  9 57  1  0  0  0  0
 10  9  1  0  0  0  0
 10 11  1  0  0  0  0
 10 12  2  0  0  0  0
 11 58  1  0  0  0  0
 11 59  1  0  0  0  0
 12 60  1  0  0  0  0
 13  7  1  0  0  0  0
 13 61  1  0  0  0  0
 13 62  1  0  0  0  0
 13 63  1  0  0  0  0
 14  6  1  0  0  0  0
 14 15  2  0  0  0  0
 14 64  1  0  0  0  0
 16 15  1  0  0  0  0
 16 17  2  0  0  0  0
 17 18  1  0  0  0  0
 18 65  1  0  0  0  0
 19 18  1  0  0  0  0
 19 20  1  0  0  0  0
 19 21  2  0  0  0  0
 20 66  1  0  0  0  0
 20 67  1  0  0  0  0
 21 68  1  0  0  0  0
 22 16  1  0  0  0  0
 22 69  1  0  0  0  0
 22 70  1  0  0  0  0
 22 71  1  0  0  0  0
 23 15  1  0  0  0  0
 23  4  2  0  0  0  0
 23 72  1  0  0  0  0
 24  2  1  0  0  0  0
 24 73  1  0  0  0  0
 24 74  1  0  0  0  0
 25 24  1  0  0  0  0
 25 75  1  0  0  0  0
 25 76  1  0  0  0  0
 26 25  1  0  0  0  0
 26 77  1  0  0  0  0
 26 78  1  0  0  0  0
 27 26  1  0  0  0  0
 27 79  1  0  0  0  0
 27 80  1  0  0  0  0
 28 27  1  0  0  0  0
 28 29  1  0  0  0  0
 28 81  1  0  0  0  0
 28 82  1  0  0  0  0
 29 30  1  0  0  0  0
 29 83  1  0  0  0  0
 29 84  1  0  0  0  0
 30 31  1  0  0  0  0
 30 85  1  0  0  0  0
 30 86  1  0  0  0  0
 31 32  1  0  0  0  0
 31 87  1  0  0  0  0
 31 88  1  0  0  0  0
 32 33  2  0  0  0  0
 32 34  1  0  0  0  0
 34 89  1  0  0  0  0
 35 34  1  0  0  0  0
 36 35  1  0  0  0  0
 36 37  2  0  0  0  0
 36 90  1  0  0  0  0
 38 37  1  0  0  0  0
 38 39  2  0  0  0  0
 39 40  1  0  0  0  0
 40 91  1  0  0  0  0
 41 40  1  0  0  0  0
 41 42  1  0  0  0  0
 41 43  2  0  0  0  0
 42 92  1  0  0  0  0
 42 93  1  0  0  0  0
 43 94  1  0  0  0  0
 44 38  1  0  0  0  0
 44 95  1  0  0  0  0
 44 96  1  0  0  0  0
 44 97  1  0  0  0  0
 45 37  1  0  0  0  0
 45 46  2  0  0  0  0
 45 98  1  0  0  0  0
 47 46  1  0  0  0  0
 47 48  2  0  0  0  0
 48 49  1  0  0  0  0
 49 99  1  0  0  0  0
 50 49  1  0  0  0  0
 50 51  1  0  0  0  0
 50 52  2  0  0  0  0
 51100  1  0  0  0  0
 51101  1  0  0  0  0
 52102  1  0  0  0  0
 53 47  1  0  0  0  0
 53103  1  0  0  0  0
 53104  1  0  0  0  0
 53105  1  0  0  0  0
 54 46  1  0  0  0  0
 54 35  2  0  0  0  0
 54106  1  0  0  0  0
M  END
>  <DRUGBANK_ID>
DB12094

>  <COMMON_NAME>
Semapimod

>  <CAS_NUMBER>
352513-83-8

>  <UNII>
9SGW2H1K8P

>  <SYNONYMS>
Semapimod

$$$$
