
 OpenBabel10282417072D

 59 62  0  0  0  0  0  0  0  0999 V2000
    0.6594    0.2622    0.0000 C   0  0  2  0  0  0  0  0  0  0  0  0
    1.5684    0.5768    0.0000 C   0  0  1  0  0  0  0  0  0  0  0  0
   -0.0524   -0.8914    0.0000 C   0  0  1  0  0  0  0  0  0  0  0  0
    0.6594   -0.5259    0.0000 C   0  0  2  0  0  0  0  0  0  0  0  0
   -0.7421   -0.5387    0.0000 C   0  0  1  0  0  0  0  0  0  0  0  0
   -1.4541   -1.7559    0.0000 C   0  0  0  0  0  0  0  0  0  0  0  0
   -0.0619    0.6626    0.0000 C   0  0  0  0  0  0  0  0  0  0  0  0
   -1.4541   -0.9645    0.0000 C   0  0  2  0  0  0  0  0  0  0  0  0
   -0.7421    0.2622    0.0000 C   0  0  2  0  0  0  0  0  0  0  0  0
   -2.1628   -2.1596    0.0000 C   0  0  0  0  0  0  0  0  0  0  0  0
    2.0642   -0.0524    0.0000 C   0  0  0  0  0  0  0  0  0  0  0  0
    2.4933    0.8628    0.0000 O   0  0  0  0  0  0  0  0  0  0  0  0
    1.6447   -0.7771    0.0000 C   0  0  0  0  0  0  0  0  0  0  0  0
   -0.0524   -1.7464    0.0000 C   0  0  0  0  0  0  0  0  0  0  0  0
    1.7019    1.4731    0.0000 C   0  0  0  0  0  0  0  0  0  0  0  0
   -2.1724   -0.5482    0.0000 C   0  0  0  0  0  0  0  0  0  0  0  0
    3.2084    0.4147    0.0000 C   0  0  0  0  0  0  0  0  0  0  0  0
   -0.7326   -2.1501    0.0000 C   0  0  0  0  0  0  0  0  0  0  0  0
   -2.8843   -1.7782    0.0000 C   0  0  0  0  0  0  0  0  0  0  0  0
    3.3991   -0.2050    0.0000 O   0  0  0  0  0  0  0  0  0  0  0  0
    2.7127    1.9212    0.0000 O   0  0  0  0  0  0  0  0  0  0  0  0
   -3.6089   -2.1978    0.0000 O   0  0  0  0  0  0  0  0  0  0  0  0
    0.6499    1.2093    0.0000 C   0  0  0  0  0  0  0  0  0  0  0  0
   -2.8843   -0.9645    0.0000 C   0  0  0  0  0  0  0  0  0  0  0  0
   -1.6575    0.8628    0.0000 C   0  0  0  0  0  0  0  0  0  0  0  0
    3.6089    1.2729    0.0000 C   0  0  0  0  0  0  0  0  0  0  0  0
    1.1266    2.1978    0.0000 C   0  0  0  0  0  0  0  0  0  0  0  0
    1.1013   -1.5017    0.0000 H   0  0  0  0  0  0  0  0  0  0  0  0
   -0.0524   -0.0048    0.0000 H   0  0  0  0  0  0  0  0  0  0  0  0
   -0.7421   -1.3936    0.0000 H   0  0  0  0  0  0  0  0  0  0  0  0
   -1.5017   -0.0524    0.0000 H   0  0  0  0  0  0  0  0  0  0  0  0
   -0.0754    1.7325    0.0000 H   0  0  0  0  0  0  0  0  0  0  0  0
   -0.9941    1.1878    0.0000 H   0  0  0  0  0  0  0  0  0  0  0  0
   -1.6836   -0.2461    0.0000 H   0  0  0  0  0  0  0  0  0  0  0  0
   -2.1465   -3.1915    0.0000 H   0  0  0  0  0  0  0  0  0  0  0  0
    3.1315    0.0238    0.0000 H   0  0  0  0  0  0  0  0  0  0  0  0
    2.6314   -0.9597    0.0000 H   0  0  0  0  0  0  0  0  0  0  0  0
    2.0596   -1.7634    0.0000 H   0  0  0  0  0  0  0  0  0  0  0  0
    2.7126   -0.8447    0.0000 H   0  0  0  0  0  0  0  0  0  0  0  0
    0.8774   -2.2758    0.0000 H   0  0  0  0  0  0  0  0  0  0  0  0
   -0.0427   -2.8164    0.0000 H   0  0  0  0  0  0  0  0  0  0  0  0
   -2.1745    0.5218    0.0000 H   0  0  0  0  0  0  0  0  0  0  0  0
   -3.1010   -0.0167    0.0000 H   0  0  0  0  0  0  0  0  0  0  0  0
   -0.7136   -3.2199    0.0000 H   0  0  0  0  0  0  0  0  0  0  0  0
   -1.6480   -2.7041    0.0000 H   0  0  0  0  0  0  0  0  0  0  0  0
    1.5711    1.7536    0.0000 H   0  0  0  0  0  0  0  0  0  0  0  0
   -0.2821    1.7350    0.0000 H   0  0  0  0  0  0  0  0  0  0  0  0
    0.6392    2.2792    0.0000 H   0  0  0  0  0  0  0  0  0  0  0  0
   -3.8124   -0.4321    0.0000 H   0  0  0  0  0  0  0  0  0  0  0  0
   -2.8888    0.1055    0.0000 H   0  0  0  0  0  0  0  0  0  0  0  0
   -1.5965    1.9311    0.0000 H   0  0  0  0  0  0  0  0  0  0  0  0
   -2.6131    0.3815    0.0000 H   0  0  0  0  0  0  0  0  0  0  0  0
   -2.5521    1.4498    0.0000 H   0  0  0  0  0  0  0  0  0  0  0  0
    4.6749    1.3658    0.0000 H   0  0  0  0  0  0  0  0  0  0  0  0
    2.9954    2.1496    0.0000 H   0  0  0  0  0  0  0  0  0  0  0  0
    4.0614    2.2425    0.0000 H   0  0  0  0  0  0  0  0  0  0  0  0
    1.5197    3.1930    0.0000 H   0  0  0  0  0  0  0  0  0  0  0  0
    0.0682    2.0407    0.0000 H   0  0  0  0  0  0  0  0  0  0  0  0
    0.4613    3.0358    0.0000 H   0  0  0  0  0  0  0  0  0  0  0  0
  1 23  1  1  0  0  0
  2  1  1  0  0  0  0
  2 12  1  6  0  0  0
  2 15  1  0  0  0  0
  3  4  1  0  0  0  0
  3 29  1  1  0  0  0
  3  5  1  0  0  0  0
  4  1  1  0  0  0  0
  4 28  1  6  0  0  0
  5  9  1  0  0  0  0
  5 30  1  6  0  0  0
  6  8  1  0  0  0  0
  7  1  1  0  0  0  0
  7 32  1  0  0  0  0
  7 33  1  0  0  0  0
  8  5  1  0  0  0  0
  8 31  1  1  0  0  0
  9  7  1  0  0  0  0
  9 25  1  0  0  0  0
  9 34  1  6  0  0  0
 10  6  2  0  0  0  0
 10 19  1  0  0  0  0
 10 35  1  0  0  0  0
 11  2  1  0  0  0  0
 11 13  1  0  0  0  0
 11 36  1  0  0  0  0
 11 37  1  0  0  0  0
 13  4  1  0  0  0  0
 13 38  1  0  0  0  0
 13 39  1  0  0  0  0
 14  3  1  0  0  0  0
 14 40  1  0  0  0  0
 14 41  1  0  0  0  0
 16  8  1  0  0  0  0
 16 42  1  0  0  0  0
 16 43  1  0  0  0  0
 17 12  1  0  0  0  0
 18 14  1  0  0  0  0
 18  6  1  0  0  0  0
 18 44  1  0  0  0  0
 18 45  1  0  0  0  0
 19 24  1  0  0  0  0
 20 17  2  0  0  0  0
 21 15  2  0  0  0  0
 22 19  2  0  0  0  0
 23 46  1  0  0  0  0
 23 47  1  0  0  0  0
 23 48  1  0  0  0  0
 24 16  1  0  0  0  0
 24 49  1  0  0  0  0
 24 50  1  0  0  0  0
 25 51  1  0  0  0  0
 25 52  1  0  0  0  0
 25 53  1  0  0  0  0
 26 17  1  0  0  0  0
 26 54  1  0  0  0  0
 26 55  1  0  0  0  0
 26 56  1  0  0  0  0
 27 15  1  0  0  0  0
 27 57  1  0  0  0  0
 27 58  1  0  0  0  0
 27 59  1  0  0  0  0
M  END
>  <DRUGBANK_ID>
DB11440

>  <COMMON_NAME>
Norgestomet

>  <CAS_NUMBER>
25092-41-5

>  <UNII>
3L33UD42X4

>  <SYNONYMS>
Norgestomet

$$$$
