
 OpenBabel10282417072D

 41 44  0  0  0  0  0  0  0  0999 V2000
   -1.6504    2.4165    0.0000 F   0  0  0  0  0  0  0  0  0  0  0  0
   -4.1254    0.9875    0.0000 F   0  0  0  0  0  0  0  0  0  0  0  0
   -0.1360    0.9889    0.0000 O   0  0  0  0  0  0  0  0  0  0  0  0
    2.8176   -0.7061    0.0000 O   0  0  0  0  0  0  0  0  0  0  0  0
   -0.1552   -1.9304    0.0000 N   0  0  0  0  0  0  0  0  0  0  0  0
   -1.6504   -2.0914    0.0000 N   0  0  0  0  0  0  0  0  0  0  0  0
   -0.9359   -0.8539    0.0000 C   0  0  0  0  0  0  0  0  0  0  0  0
   -0.1552   -0.6025    0.0000 C   0  0  0  0  0  0  0  0  0  0  0  0
   -1.6504   -0.4413    0.0000 C   0  0  0  0  0  0  0  0  0  0  0  0
   -0.9359   -1.6789    0.0000 C   0  0  0  0  0  0  0  0  0  0  0  0
    0.3261   -1.2663    0.0000 C   0  0  0  0  0  0  0  0  0  0  0  0
   -2.0628    0.2730    0.0000 C   0  0  0  0  0  0  0  0  0  0  0  0
    0.1010    0.1816    0.0000 C   0  0  0  0  0  0  0  0  0  0  0  0
   -2.3648   -0.8539    0.0000 C   0  0  0  0  0  0  0  0  0  0  0  0
    0.9083    0.3517    0.0000 C   0  0  0  0  0  0  0  0  0  0  0  0
   -2.3648   -1.6789    0.0000 C   0  0  0  0  0  0  0  0  0  0  0  0
   -2.8879    0.2730    0.0000 C   0  0  0  0  0  0  0  0  0  0  0  0
   -1.6504    0.9875    0.0000 C   0  0  0  0  0  0  0  0  0  0  0  0
    1.4593   -0.2622    0.0000 C   0  0  0  0  0  0  0  0  0  0  0  0
    1.1646    1.1360    0.0000 C   0  0  0  0  0  0  0  0  0  0  0  0
   -2.0628    1.7020    0.0000 C   0  0  0  0  0  0  0  0  0  0  0  0
   -3.3004    0.9875    0.0000 C   0  0  0  0  0  0  0  0  0  0  0  0
    2.2666   -0.0920    0.0000 C   0  0  0  0  0  0  0  0  0  0  0  0
   -2.8879    1.7020    0.0000 C   0  0  0  0  0  0  0  0  0  0  0  0
    1.9719    1.3061    0.0000 C   0  0  0  0  0  0  0  0  0  0  0  0
    2.5229    0.6921    0.0000 C   0  0  0  0  0  0  0  0  0  0  0  0
    3.6249   -0.5360    0.0000 C   0  0  0  0  0  0  0  0  0  0  0  0
    0.1508   -2.8662    0.0000 H   0  0  0  0  0  0  0  0  0  0  0  0
    1.3581   -1.2662    0.0000 H   0  0  0  0  0  0  0  0  0  0  0  0
   -3.2586   -0.3380    0.0000 H   0  0  0  0  0  0  0  0  0  0  0  0
   -3.2585   -2.1949    0.0000 H   0  0  0  0  0  0  0  0  0  0  0  0
   -3.4039   -0.6207    0.0000 H   0  0  0  0  0  0  0  0  0  0  0  0
   -0.6184    0.9875    0.0000 H   0  0  0  0  0  0  0  0  0  0  0  0
    1.1388   -1.2432    0.0000 H   0  0  0  0  0  0  0  0  0  0  0  0
    0.4754    1.9041    0.0000 H   0  0  0  0  0  0  0  0  0  0  0  0
   -3.4039    2.5957    0.0000 H   0  0  0  0  0  0  0  0  0  0  0  0
    2.2925    2.2870    0.0000 H   0  0  0  0  0  0  0  0  0  0  0  0
    3.5327    0.9049    0.0000 H   0  0  0  0  0  0  0  0  0  0  0  0
    4.3395   -1.3324    0.0000 H   0  0  0  0  0  0  0  0  0  0  0  0
    3.9574    0.4810    0.0000 H   0  0  0  0  0  0  0  0  0  0  0  0
    4.6719   -0.3154    0.0000 H   0  0  0  0  0  0  0  0  0  0  0  0
  1 21  1  0  0  0  0
  2 22  1  0  0  0  0
  3 13  2  0  0  0  0
  4 23  1  0  0  0  0
  4 27  1  0  0  0  0
  5 10  1  0  0  0  0
  5 11  1  0  0  0  0
  5 28  1  0  0  0  0
  6 10  2  0  0  0  0
  6 16  1  0  0  0  0
  7  8  1  0  0  0  0
  7  9  2  0  0  0  0
  7 10  1  0  0  0  0
  8 11  2  0  0  0  0
  8 13  1  0  0  0  0
  9 12  1  0  0  0  0
  9 14  1  0  0  0  0
 11 29  1  0  0  0  0
 12 17  2  0  0  0  0
 12 18  1  0  0  0  0
 13 15  1  0  0  0  0
 14 16  2  0  0  0  0
 14 30  1  0  0  0  0
 15 19  2  0  0  0  0
 15 20  1  0  0  0  0
 16 31  1  0  0  0  0
 17 22  1  0  0  0  0
 17 32  1  0  0  0  0
 18 21  2  0  0  0  0
 18 33  1  0  0  0  0
 19 23  1  0  0  0  0
 19 34  1  0  0  0  0
 20 25  2  0  0  0  0
 20 35  1  0  0  0  0
 21 24  1  0  0  0  0
 22 24  2  0  0  0  0
 23 26  2  0  0  0  0
 24 36  1  0  0  0  0
 25 26  1  0  0  0  0
 25 37  1  0  0  0  0
 26 38  1  0  0  0  0
 27 39  1  0  0  0  0
 27 40  1  0  0  0  0
 27 41  1  0  0  0  0
M  END
>  <DRUGBANK_ID>
DB07840

>  <COMMON_NAME>
(E)-[4-(3,5-Difluorophenyl)-3H-pyrrolo[2,3-b]pyridin-3-ylidene](3-methoxyphenyl)methanol

$$$$
