
 OpenBabel10282417072D

 61 64  0  0  0  0  0  0  0  0999 V2000
    0.4104   -2.9203    0.0000 O   0  0  0  0  0  0  0  0  0  0  0  0
    0.8314   -2.2047    0.0000 C   0  0  0  0  0  0  0  0  0  0  0  0
    0.4104   -1.4891    0.0000 C   0  0  0  0  0  0  0  0  0  0  0  0
    0.8314   -0.7735    0.0000 C   0  0  0  0  0  0  0  0  0  0  0  0
    0.4104   -0.0579    0.0000 C   0  0  0  0  0  0  0  0  0  0  0  0
   -0.4104   -0.0579    0.0000 C   0  0  0  0  0  0  0  0  0  0  0  0
   -0.8314   -0.7735    0.0000 C   0  0  0  0  0  0  0  0  0  0  0  0
   -1.6521   -0.7735    0.0000 C   0  0  0  0  0  0  0  0  0  0  0  0
   -2.0626   -0.0579    0.0000 C   0  0  0  0  0  0  0  0  0  0  0  0
   -2.8940   -0.0579    0.0000 C   0  0  0  0  0  0  0  0  0  0  0  0
   -3.3044   -0.7735    0.0000 C   0  0  0  0  0  0  0  0  0  0  0  0
   -2.8940   -1.4891    0.0000 C   0  0  0  0  0  0  0  0  0  0  0  0
   -2.0626   -1.4891    0.0000 C   0  0  0  0  0  0  0  0  0  0  0  0
   -4.1357   -0.7735    0.0000 O   0  0  0  0  0  0  0  0  0  0  0  0
   -4.5462   -1.4891    0.0000 C   0  0  0  0  0  0  0  0  0  0  0  0
   -5.2619   -1.0786    0.0000 F   0  0  0  0  0  0  0  0  0  0  0  0
   -3.8306   -1.8995    0.0000 F   0  0  0  0  0  0  0  0  0  0  0  0
   -4.9566   -2.2047    0.0000 F   0  0  0  0  0  0  0  0  0  0  0  0
   -0.4104   -1.4891    0.0000 C   0  0  0  0  0  0  0  0  0  0  0  0
   -0.8314   -2.2047    0.0000 C   0  0  0  0  0  0  0  0  0  0  0  0
    1.6521   -2.2047    0.0000 N   0  0  0  0  0  0  0  0  0  0  0  0
    2.0626   -1.4891    0.0000 C   0  0  0  0  0  0  0  0  0  0  0  0
    2.8940   -1.4891    0.0000 C   0  0  0  0  0  0  0  0  0  0  0  0
    3.3044   -0.7735    0.0000 C   0  0  0  0  0  0  0  0  0  0  0  0
    2.8940   -0.0579    0.0000 C   0  0  0  0  0  0  0  0  0  0  0  0
    2.0626   -0.0579    0.0000 N   0  0  0  0  0  0  0  0  0  0  0  0
    1.6521   -0.7735    0.0000 C   0  0  0  0  0  0  0  0  0  0  0  0
    3.3044    0.6578    0.0000 N   0  0  0  0  0  0  0  0  0  0  0  0
    4.1358    0.6578    0.0000 C   0  0  0  0  0  0  0  0  0  0  0  0
    4.5462    1.3734    0.0000 C   0  0  1  0  0  0  0  0  0  0  0  0
    5.2619    0.9629    0.0000 H   0  0  0  0  0  0  0  0  0  0  0  0
    4.1358    2.0889    0.0000 O   0  0  0  0  0  0  0  0  0  0  0  0
    3.3044    2.0889    0.0000 C   0  0  1  0  0  0  0  0  0  0  0  0
    3.3044    2.9203    0.0000 H   0  0  0  0  0  0  0  0  0  0  0  0
    2.8940    1.3734    0.0000 C   0  0  0  0  0  0  0  0  0  0  0  0
    2.5888    2.4993    0.0000 C   0  0  0  0  0  0  0  0  0  0  0  0
    5.2619    1.7838    0.0000 C   0  0  0  0  0  0  0  0  0  0  0  0
    1.8634   -0.7735    0.0000 H   0  0  0  0  0  0  0  0  0  0  0  0
    0.9227    0.8379    0.0000 H   0  0  0  0  0  0  0  0  0  0  0  0
   -0.9227    0.8379    0.0000 H   0  0  0  0  0  0  0  0  0  0  0  0
   -1.5454    0.8351    0.0000 H   0  0  0  0  0  0  0  0  0  0  0  0
   -3.4113    0.8351    0.0000 H   0  0  0  0  0  0  0  0  0  0  0  0
   -3.4113   -2.3821    0.0000 H   0  0  0  0  0  0  0  0  0  0  0  0
   -1.5454   -2.3821    0.0000 H   0  0  0  0  0  0  0  0  0  0  0  0
   -1.9014   -2.1959    0.0000 H   0  0  0  0  0  0  0  0  0  0  0  0
   -0.3040   -3.1357    0.0000 H   0  0  0  0  0  0  0  0  0  0  0  0
   -1.3740   -3.1269    0.0000 H   0  0  0  0  0  0  0  0  0  0  0  0
    2.1455   -3.0566    0.0000 H   0  0  0  0  0  0  0  0  0  0  0  0
    3.4113   -2.3821    0.0000 H   0  0  0  0  0  0  0  0  0  0  0  0
    4.3364   -0.7735    0.0000 H   0  0  0  0  0  0  0  0  0  0  0  0
    0.6201   -0.7735    0.0000 H   0  0  0  0  0  0  0  0  0  0  0  0
    4.6721   -0.2681    0.0000 H   0  0  0  0  0  0  0  0  0  0  0  0
    5.2058    0.6601    0.0000 H   0  0  0  0  0  0  0  0  0  0  0  0
    1.8240    1.3734    0.0000 H   0  0  0  0  0  0  0  0  0  0  0  0
    2.3577    2.2993    0.0000 H   0  0  0  0  0  0  0  0  0  0  0  0
    2.5857    3.5693    0.0000 H   0  0  0  0  0  0  0  0  0  0  0  0
    1.6637    1.9616    0.0000 H   0  0  0  0  0  0  0  0  0  0  0  0
    1.6606    3.0316    0.0000 H   0  0  0  0  0  0  0  0  0  0  0  0
    6.1870    1.2461    0.0000 H   0  0  0  0  0  0  0  0  0  0  0  0
    5.2651    2.8538    0.0000 H   0  0  0  0  0  0  0  0  0  0  0  0
    6.1901    2.3161    0.0000 H   0  0  0  0  0  0  0  0  0  0  0  0
  1  2  2  0  0  0  0
  2  3  1  0  0  0  0
  2 21  1  0  0  0  0
  3  4  2  0  0  0  0
  3 19  1  0  0  0  0
  4  5  1  0  0  0  0
  4 38  1  0  0  0  0
  5  6  2  0  0  0  0
  5 39  1  0  0  0  0
  6  7  1  0  0  0  0
  6 40  1  0  0  0  0
  7  8  1  0  0  0  0
  7 19  2  0  0  0  0
  8  9  2  0  0  0  0
  8 13  1  0  0  0  0
  9 10  1  0  0  0  0
  9 41  1  0  0  0  0
 10 11  2  0  0  0  0
 10 42  1  0  0  0  0
 11 12  1  0  0  0  0
 11 14  1  0  0  0  0
 12 13  2  0  0  0  0
 12 43  1  0  0  0  0
 13 44  1  0  0  0  0
 14 15  1  0  0  0  0
 15 16  1  0  0  0  0
 15 17  1  0  0  0  0
 15 18  1  0  0  0  0
 19 20  1  0  0  0  0
 20 45  1  0  0  0  0
 20 46  1  0  0  0  0
 20 47  1  0  0  0  0
 21 22  1  0  0  0  0
 21 48  1  0  0  0  0
 22 23  2  0  0  0  0
 22 27  1  0  0  0  0
 23 24  1  0  0  0  0
 23 49  1  0  0  0  0
 24 25  2  0  0  0  0
 24 50  1  0  0  0  0
 25 26  1  0  0  0  0
 25 28  1  0  0  0  0
 26 27  2  0  0  0  0
 27 51  1  0  0  0  0
 28 29  1  0  0  0  0
 28 35  1  0  0  0  0
 29 30  1  0  0  0  0
 29 52  1  0  0  0  0
 29 53  1  0  0  0  0
 30 31  1  6  0  0  0
 30 32  1  0  0  0  0
 30 37  1  0  0  0  0
 32 33  1  0  0  0  0
 33 34  1  6  0  0  0
 33 35  1  0  0  0  0
 33 36  1  0  0  0  0
 35 54  1  0  0  0  0
 35 55  1  0  0  0  0
 36 56  1  0  0  0  0
 36 57  1  0  0  0  0
 36 58  1  0  0  0  0
 37 59  1  0  0  0  0
 37 60  1  0  0  0  0
 37 61  1  0  0  0  0
M  END
>  <DRUGBANK_ID>
DB09143

>  <COMMON_NAME>
Sonidegib

>  <CAS_NUMBER>
956697-53-3

>  <UNII>
0RLU3VTK5M

>  <SYNONYMS>
Erismodegib; N-[6-(cis-2,6-dimethylmorpholin-4-yl)pyridin-3-yl]-2-methyl-4'-(trifluoromethoxy)[1,1'-biphenyl]-3-carboxamide; Sonidegib

$$$$
