
 OpenBabel10282417072D

 32 34  0  0  1  0  0  0  0  0999 V2000
    3.8486    1.2172    0.0000 S   0  0  0  0  0  0  0  0  0  0  0  0
    3.5937    2.0019    0.0000 O   0  0  0  0  0  0  0  0  0  0  0  0
    4.5161    1.7021    0.0000 O   0  0  0  0  0  0  0  0  0  0  0  0
    1.6500   -0.4507    0.0000 O   0  0  0  0  0  0  0  0  0  0  0  0
    3.5516   -1.5154    0.0000 O   0  0  0  0  0  0  0  0  0  0  0  0
    4.9105   -1.0738    0.0000 O   0  0  0  0  0  0  0  0  0  0  0  0
    3.0640    0.1373    0.0000 N   0  0  0  0  0  0  0  0  0  0  0  0
    5.7547    0.4005    0.0000 N   0  0  0  0  0  0  0  0  0  0  0  0
    6.4692   -0.0120    0.0000 N   0  0  0  0  0  0  0  0  0  0  0  0
    7.0822    0.5400    0.0000 N   0  0  0  0  0  0  0  0  0  0  0  0
    4.3336    0.5498    0.0000 C   0  0  2  0  0  0  0  0  0  0  0  0
    3.0640    0.9623    0.0000 C   0  0  1  0  0  0  0  0  0  0  0  0
    3.8486   -0.1176    0.0000 C   0  0  2  0  0  0  0  0  0  0  0  0
    2.2322    0.9657    0.0000 C   0  0  0  0  0  0  0  0  0  0  0  0
    2.2322    0.1339    0.0000 C   0  0  0  0  0  0  0  0  0  0  0  0
    5.0010    0.0648    0.0000 C   0  0  0  0  0  0  0  0  0  0  0  0
    5.0010    1.0347    0.0000 C   0  0  0  0  0  0  0  0  0  0  0  0
    4.1036   -0.9023    0.0000 C   0  0  0  0  0  0  0  0  0  0  0  0
    5.9263    1.2074    0.0000 C   0  0  0  0  0  0  0  0  0  0  0  0
    6.7467    1.2936    0.0000 C   0  0  0  0  0  0  0  0  0  0  0  0
    2.9557    1.6551    0.0000 H   0  0  0  0  0  0  0  0  0  0  0  0
    2.6351   -1.3206    0.0000 H   0  0  0  0  0  0  0  0  0  0  0  0
    3.0920   -0.8742    0.0000 H   0  0  0  0  0  0  0  0  0  0  0  0
    1.4771    1.7238    0.0000 H   0  0  0  0  0  0  0  0  0  0  0  0
    1.2432    0.5572    0.0000 H   0  0  0  0  0  0  0  0  0  0  0  0
    4.8892   -0.9993    0.0000 H   0  0  0  0  0  0  0  0  0  0  0  0
    4.0235   -0.3704    0.0000 H   0  0  0  0  0  0  0  0  0  0  0  0
    5.9785    0.5995    0.0000 H   0  0  0  0  0  0  0  0  0  0  0  0
    4.8891    2.0988    0.0000 H   0  0  0  0  0  0  0  0  0  0  0  0
    5.8666    1.6636    0.0000 H   0  0  0  0  0  0  0  0  0  0  0  0
    5.2358    1.9744    0.0000 H   0  0  0  0  0  0  0  0  0  0  0  0
    7.2627    2.1873    0.0000 H   0  0  0  0  0  0  0  0  0  0  0  0
  1  2  2  0  0  0  0
  1  3  2  0  0  0  0
  1 11  1  0  0  0  0
  1 12  1  0  0  0  0
  4 15  2  0  0  0  0
  5 18  1  0  0  0  0
  5 22  1  0  0  0  0
  6 18  2  0  0  0  0
  7 12  1  0  0  0  0
  7 13  1  0  0  0  0
  7 15  1  0  0  0  0
  8  9  1  0  0  0  0
  8 16  1  0  0  0  0
  8 19  1  0  0  0  0
  9 10  2  0  0  0  0
 10 20  1  0  0  0  0
 11 13  1  0  0  0  0
 11 16  1  1  0  0  0
 11 17  1  0  0  0  0
 12 14  1  0  0  0  0
 12 21  1  6  0  0  0
 13 18  1  0  0  0  0
 13 23  1  1  0  0  0
 14 15  1  0  0  0  0
 14 24  1  0  0  0  0
 14 25  1  0  0  0  0
 16 26  1  0  0  0  0
 16 27  1  0  0  0  0
 17 28  1  0  0  0  0
 17 29  1  0  0  0  0
 17 30  1  0  0  0  0
 19 20  2  0  0  0  0
 19 31  1  0  0  0  0
 20 32  1  0  0  0  0
M  END
>  <DRUGBANK_ID>
DB01606

>  <SECONDARY_ACCESSION_NUMBERS>
EXPT03012

>  <COMMON_NAME>
Tazobactam

>  <CAS_NUMBER>
89786-04-9

>  <UNII>
SE10G96M8W

>  <SYNONYMS>
Tazobactam; Tazobactamum

$$$$
