
 OpenBabel10282417072D

 37 39  0  0  0  0  0  0  0  0999 V2000
   -1.6689   -1.3136    0.0000 N   0  0  0  0  0  0  0  0  0  0  0  0
   -0.8483   -1.2274    0.0000 C   0  0  0  0  0  0  0  0  0  0  0  0
   -0.3634   -1.8948    0.0000 N   0  0  0  0  0  0  0  0  0  0  0  0
   -0.5129   -0.4736    0.0000 N   0  0  0  0  0  0  0  0  0  0  0  0
   -0.9977    0.1937    0.0000 C   0  0  0  0  0  0  0  0  0  0  0  0
   -1.8183    0.1075    0.0000 C   0  0  0  0  0  0  0  0  0  0  0  0
   -2.1537   -0.6462    0.0000 C   0  0  0  0  0  0  0  0  0  0  0  0
   -2.9742   -0.7324    0.0000 Cl  0  0  0  0  0  0  0  0  0  0  0  0
   -2.1538    0.8611    0.0000 N   0  0  0  0  0  0  0  0  0  0  0  0
   -1.5407    1.4131    0.0000 C   0  0  0  0  0  0  0  0  0  0  0  0
   -0.8263    1.0006    0.0000 N   0  0  0  0  0  0  0  0  0  0  0  0
    2.8559    1.8580    0.0000 C   0  0  0  0  0  0  0  0  0  0  0  0
    2.5972   -0.6033    0.0000 C   0  0  0  0  0  0  0  0  0  0  0  0
    1.4347    2.0074    0.0000 C   0  0  0  0  0  0  0  0  0  0  0  0
    1.1760   -0.4539    0.0000 C   0  0  0  0  0  0  0  0  0  0  0  0
   -0.0725    1.3362    0.0000 C   0  0  0  0  0  0  0  0  0  0  0  0
    0.5087    0.0308    0.0000 N   0  0  0  0  0  0  0  0  0  0  0  0
    2.7697    1.0376    0.0000 O   0  0  0  0  0  0  0  0  0  0  0  0
    1.9297   -0.1185    0.0000 C   0  0  0  0  0  0  0  0  0  0  0  0
    1.3484    1.1869    0.0000 C   0  0  0  0  0  0  0  0  0  0  0  0
    0.5948    0.8513    0.0000 C   0  0  0  0  0  0  0  0  0  0  0  0
    2.0159    0.7020    0.0000 C   0  0  0  0  0  0  0  0  0  0  0  0
   -0.7638   -2.7942    0.0000 H   0  0  0  0  0  0  0  0  0  0  0  0
    0.6157   -1.7919    0.0000 H   0  0  0  0  0  0  0  0  0  0  0  0
   -1.6485    2.4395    0.0000 H   0  0  0  0  0  0  0  0  0  0  0  0
    3.8334    2.2932    0.0000 H   0  0  0  0  0  0  0  0  0  0  0  0
    1.9902    2.4869    0.0000 H   0  0  0  0  0  0  0  0  0  0  0  0
    2.9677    2.9221    0.0000 H   0  0  0  0  0  0  0  0  0  0  0  0
    2.4855   -1.6675    0.0000 H   0  0  0  0  0  0  0  0  0  0  0  0
    3.5746   -0.1679    0.0000 H   0  0  0  0  0  0  0  0  0  0  0  0
    3.4630   -1.2321    0.0000 H   0  0  0  0  0  0  0  0  0  0  0  0
    2.4122    2.4425    0.0000 H   0  0  0  0  0  0  0  0  0  0  0  0
    0.5691    2.6364    0.0000 H   0  0  0  0  0  0  0  0  0  0  0  0
    1.5466    3.0715    0.0000 H   0  0  0  0  0  0  0  0  0  0  0  0
    1.0681   -1.4802    0.0000 H   0  0  0  0  0  0  0  0  0  0  0  0
    0.0394    2.4003    0.0000 H   0  0  0  0  0  0  0  0  0  0  0  0
    0.9050    1.7713    0.0000 H   0  0  0  0  0  0  0  0  0  0  0  0
  2  1  2  0  0  0  0
  2  3  1  0  0  0  0
  2  4  1  0  0  0  0
  3 23  1  0  0  0  0
  3 24  1  0  0  0  0
  5  4  2  0  0  0  0
  5  6  1  0  0  0  0
  5 11  1  0  0  0  0
  6  7  2  0  0  0  0
  6  9  1  0  0  0  0
  7  1  1  0  0  0  0
  7  8  1  0  0  0  0
 10  9  2  0  0  0  0
 10 11  1  0  0  0  0
 10 25  1  0  0  0  0
 12 18  1  0  0  0  0
 12 26  1  0  0  0  0
 12 27  1  0  0  0  0
 12 28  1  0  0  0  0
 13 19  1  0  0  0  0
 13 29  1  0  0  0  0
 13 30  1  0  0  0  0
 13 31  1  0  0  0  0
 14 20  1  0  0  0  0
 14 32  1  0  0  0  0
 14 33  1  0  0  0  0
 14 34  1  0  0  0  0
 15 17  2  0  0  0  0
 15 19  1  0  0  0  0
 15 35  1  0  0  0  0
 16 11  1  0  0  0  0
 16 21  1  0  0  0  0
 16 36  1  0  0  0  0
 16 37  1  0  0  0  0
 19 22  2  0  0  0  0
 20 21  2  0  0  0  0
 20 22  1  0  0  0  0
 21 17  1  0  0  0  0
 22 18  1  0  0  0  0
M  END
>  <DRUGBANK_ID>
DB12359

>  <COMMON_NAME>
BIIB021

>  <CAS_NUMBER>
848695-25-0

>  <UNII>
851B9FQ7Q0

$$$$
