288
 OpenBabel10282417072D

 49 51  0  0  0  0  0  0  0  0999 V2000
   -3.6758    1.5608    0.0000 C   0  0  0  0  0  0  0  0  0  0  0  0
   -3.6758    0.7358    0.0000 C   0  0  0  0  0  0  0  0  0  0  0  0
   -2.8912    1.8158    0.0000 C   0  0  0  0  0  0  0  0  0  0  0  0
   -4.3903    1.9733    0.0000 C   0  0  0  0  0  0  0  0  0  0  0  0
   -2.8912    0.4809    0.0000 N   0  0  0  0  0  0  0  0  0  0  0  0
   -4.3903    0.3233    0.0000 C   0  0  0  0  0  0  0  0  0  0  0  0
   -2.4062    1.1483    0.0000 C   0  0  0  0  0  0  0  0  0  0  0  0
   -5.1047    1.5608    0.0000 C   0  0  0  0  0  0  0  0  0  0  0  0
   -5.1047    0.7358    0.0000 C   0  0  0  0  0  0  0  0  0  0  0  0
   -1.5812    1.1483    0.0000 C   0  0  0  0  0  0  0  0  0  0  0  0
   -5.8192    1.9733    0.0000 Cl  0  0  0  0  0  0  0  0  0  0  0  0
   -1.1687    0.4338    0.0000 N   0  0  0  0  0  0  0  0  0  0  0  0
   -1.1687    1.8628    0.0000 O   0  0  0  0  0  0  0  0  0  0  0  0
   -0.3437    0.4338    0.0000 C   0  0  0  0  0  0  0  0  0  0  0  0
    0.0688   -0.2806    0.0000 C   0  0  2  0  0  0  0  0  0  0  0  0
    0.8938   -0.2806    0.0000 N   0  0  0  0  0  0  0  0  0  0  0  0
   -0.3437   -0.9951    0.0000 O   0  0  0  0  0  0  0  0  0  0  0  0
    1.3063   -0.9951    0.0000 C   0  0  0  0  0  0  0  0  0  0  0  0
    1.3063    0.4338    0.0000 C   0  0  0  0  0  0  0  0  0  0  0  0
    2.1267   -1.0813    0.0000 C   0  0  0  0  0  0  0  0  0  0  0  0
    0.9707   -1.7488    0.0000 C   0  0  0  0  0  0  0  0  0  0  0  0
    0.8938    1.1483    0.0000 C   0  0  0  0  0  0  0  0  0  0  0  0
    2.2983   -1.8883    0.0000 C   0  0  0  0  0  0  0  0  0  0  0  0
    1.5838   -2.3008    0.0000 C   0  0  0  0  0  0  0  0  0  0  0  0
    1.3063    1.8628    0.0000 O   0  0  0  0  0  0  0  0  0  0  0  0
    0.3607    0.2251    0.0000 H   0  0  0  0  0  0  0  0  0  0  0  0
   -2.5723    2.7973    0.0000 H   0  0  0  0  0  0  0  0  0  0  0  0
   -4.3903    3.0053    0.0000 H   0  0  0  0  0  0  0  0  0  0  0  0
   -2.5870   -0.4554    0.0000 H   0  0  0  0  0  0  0  0  0  0  0  0
   -4.3903   -0.7087    0.0000 H   0  0  0  0  0  0  0  0  0  0  0  0
   -5.9984    0.2198    0.0000 H   0  0  0  0  0  0  0  0  0  0  0  0
   -1.6610   -0.4188    0.0000 H   0  0  0  0  0  0  0  0  0  0  0  0
    0.1913    1.3605    0.0000 H   0  0  0  0  0  0  0  0  0  0  0  0
    0.7263    0.4338    0.0000 H   0  0  0  0  0  0  0  0  0  0  0  0
   -1.3137   -0.9951    0.0000 H   0  0  0  0  0  0  0  0  0  0  0  0
    1.8413   -1.9217    0.0000 H   0  0  0  0  0  0  0  0  0  0  0  0
    2.3763    0.4338    0.0000 H   0  0  0  0  0  0  0  0  0  0  0  0
    1.8413    1.3604    0.0000 H   0  0  0  0  0  0  0  0  0  0  0  0
    2.8426   -0.2861    0.0000 H   0  0  0  0  0  0  0  0  0  0  0  0
    3.1603   -1.3582    0.0000 H   0  0  0  0  0  0  0  0  0  0  0  0
   -0.0759   -1.9713    0.0000 H   0  0  0  0  0  0  0  0  0  0  0  0
    0.6938   -2.7823    0.0000 H   0  0  0  0  0  0  0  0  0  0  0  0
   -0.1762    1.1483    0.0000 H   0  0  0  0  0  0  0  0  0  0  0  0
    0.3588    2.0749    0.0000 H   0  0  0  0  0  0  0  0  0  0  0  0
    3.2758   -2.3235    0.0000 H   0  0  0  0  0  0  0  0  0  0  0  0
    2.3543   -2.9568    0.0000 H   0  0  0  0  0  0  0  0  0  0  0  0
    1.4720   -3.3649    0.0000 H   0  0  0  0  0  0  0  0  0  0  0  0
    2.4812   -2.8836    0.0000 H   0  0  0  0  0  0  0  0  0  0  0  0
    2.2763    1.8628    0.0000 H   0  0  0  0  0  0  0  0  0  0  0  0
  1  2  1  0  0  0  0
  1  3  1  0  0  0  0
  1  4  2  0  0  0  0
  2  5  1  0  0  0  0
  2  6  2  0  0  0  0
  3  7  2  0  0  0  0
  3 27  1  0  0  0  0
  4  8  1  0  0  0  0
  4 28  1  0  0  0  0
  5  7  1  0  0  0  0
  5 29  1  0  0  0  0
  6  9  1  0  0  0  0
  6 30  1  0  0  0  0
  7 10  1  0  0  0  0
  8  9  2  0  0  0  0
  8 11  1  0  0  0  0
  9 31  1  0  0  0  0
 10 12  1  0  0  0  0
 10 13  2  0  0  0  0
 12 14  1  0  0  0  0
 12 32  1  0  0  0  0
 14 15  1  0  0  0  0
 14 33  1  0  0  0  0
 14 34  1  0  0  0  0
 15 16  1  0  0  0  0
 15 17  1  0  0  0  0
 15 26  1  1  0  0  0
 16 18  1  0  0  0  0
 16 19  1  0  0  0  0
 17 35  1  0  0  0  0
 18 20  1  0  0  0  0
 18 21  1  0  0  0  0
 18 36  1  0  0  0  0
 19 22  1  0  0  0  0
 19 37  1  0  0  0  0
 19 38  1  0  0  0  0
 20 23  1  0  0  0  0
 20 39  1  0  0  0  0
 20 40  1  0  0  0  0
 21 24  1  0  0  0  0
 21 41  1  0  0  0  0
 21 42  1  0  0  0  0
 22 25  1  0  0  0  0
 22 43  1  0  0  0  0
 22 44  1  0  0  0  0
 23 24  1  0  0  0  0
 23 45  1  0  0  0  0
 23 46  1  0  0  0  0
 24 47  1  0  0  0  0
 24 48  1  0  0  0  0
 25 49  1  0  0  0  0
M  END
>  <DRUGBANK_ID>
DB03288

>  <SECONDARY_ACCESSION_NUMBERS>
EXPT00098

>  <COMMON_NAME>
5-Chloro-1h-Indole-2-Carboxylic Acid{[Cyclopentyl-(2-Hydroxy-Ethyl)-Carbamoyl]-Methyl}-Amide

$$$$
