
 OpenBabel10282417072D

229234  0  0  1  0  0  0  0  0999 V2000
    0.1989   -3.7212    0.0000 O   0  0  0  0  0  0  0  0  0  0  0  0
   -0.0366   -4.8199    0.0000 O   0  0  0  0  0  0  0  0  0  0  0  0
   -1.6127   -7.3426    0.0000 O   0  0  0  0  0  0  0  0  0  0  0  0
   -0.2046   -0.7740    0.0000 O   0  0  0  0  0  0  0  0  0  0  0  0
    2.7246   -0.2573    0.0000 O   0  0  0  0  0  0  0  0  0  0  0  0
    3.4789    0.0769    0.0000 O   0  0  0  0  0  0  0  0  0  0  0  0
    5.8294    1.8999    0.0000 O   0  0  0  0  0  0  0  0  0  0  0  0
    6.5836    2.2342    0.0000 O   0  0  0  0  0  0  0  0  0  0  0  0
    9.5129    2.7508    0.0000 O   0  0  0  0  0  0  0  0  0  0  0  0
   11.4252    0.4723    0.0000 O   0  0  0  0  0  0  0  0  0  0  0  0
   13.7756    2.2954    0.0000 O   0  0  0  0  0  0  0  0  0  0  0  0
   14.9334   -0.3174    0.0000 O   0  0  0  0  0  0  0  0  0  0  0  0
   11.2498   -1.1683    0.0000 O   0  0  0  0  0  0  0  0  0  0  0  0
    9.8289   -1.0165    0.0000 O   0  0  0  0  0  0  0  0  0  0  0  0
   15.6877    0.0167    0.0000 O   0  0  0  0  0  0  0  0  0  0  0  0
   16.3544   -0.4692    0.0000 O   0  0  0  0  0  0  0  0  0  0  0  0
   19.1961   -0.7728    0.0000 O   0  0  0  0  0  0  0  0  0  0  0  0
   19.6344    3.3287    0.0000 O   0  0  0  0  0  0  0  0  0  0  0  0
   19.1084   -1.5932    0.0000 O   0  0  0  0  0  0  0  0  0  0  0  0
   -1.2219   -3.5693    0.0000 N   0  0  0  0  0  0  0  0  0  0  0  0
   -1.1001   -5.7743    0.0000 N   0  0  0  0  0  0  0  0  0  0  0  0
    0.3742   -2.0805    0.0000 N   0  0  0  0  0  0  0  0  0  0  0  0
   -0.2545   -7.7865    0.0000 N   0  0  0  0  0  0  0  0  0  0  0  0
   -3.3094   -2.9314    0.0000 N   0  0  0  0  0  0  0  0  0  0  0  0
    1.3038   -0.1056    0.0000 N   0  0  0  0  0  0  0  0  0  0  0  0
    2.9000    1.3832    0.0000 N   0  0  0  0  0  0  0  0  0  0  0  0
    4.9874    0.7453    0.0000 N   0  0  0  0  0  0  0  0  0  0  0  0
   -0.6400    1.3466    0.0000 N   0  0  0  0  0  0  0  0  0  0  0  0
    7.1625    0.9277    0.0000 N   0  0  0  0  0  0  0  0  0  0  0  0
    8.6711    1.5963    0.0000 N   0  0  0  0  0  0  0  0  0  0  0  0
   10.8462    1.7787    0.0000 N   0  0  0  0  0  0  0  0  0  0  0  0
    3.1629    3.8443    0.0000 N   0  0  0  0  0  0  0  0  0  0  0  0
   12.9336    1.1408    0.0000 N   0  0  0  0  0  0  0  0  0  0  0  0
    7.4269    4.2138    0.0000 N   0  0  0  0  0  0  0  0  0  0  0  0
   15.1088    1.3232    0.0000 N   0  0  0  0  0  0  0  0  0  0  0  0
    6.1567    3.8034    0.0000 N   0  0  0  0  0  0  0  0  0  0  0  0
   17.1963    0.6854    0.0000 N   0  0  0  0  0  0  0  0  0  0  0  0
    4.0048    4.9989    0.0000 N   0  0  0  0  0  0  0  0  0  0  0  0
    2.5840    5.1507    0.0000 N   0  0  0  0  0  0  0  0  0  0  0  0
   17.6876   -1.4414    0.0000 N   0  0  0  0  0  0  0  0  0  0  0  0
   -1.3949   -4.3760    0.0000 C   0  0  1  0  0  0  0  0  0  0  0  0
   -2.2154   -4.4608    0.0000 C   0  0  0  0  0  0  0  0  0  0  0  0
   -2.5498   -3.7066    0.0000 C   0  0  0  0  0  0  0  0  0  0  0  0
   -1.9357   -3.1557    0.0000 C   0  0  0  0  0  0  0  0  0  0  0  0
   -0.4676   -3.2351    0.0000 C   0  0  0  0  0  0  0  0  0  0  0  0
   -0.8438   -4.9900    0.0000 C   0  0  0  0  0  0  0  0  0  0  0  0
   -0.3799   -2.4147    0.0000 C   0  0  2  0  0  0  0  0  0  0  0  0
   -1.0466   -1.9286    0.0000 C   0  0  0  0  0  0  0  0  0  0  0  0
   -0.5492   -6.3883    0.0000 C   0  0  1  0  0  0  0  0  0  0  0  0
   -1.8009   -2.2629    0.0000 C   0  0  0  0  0  0  0  0  0  0  0  0
    0.2580   -6.2182    0.0000 C   0  0  0  0  0  0  0  0  0  0  0  0
   -2.4675   -1.7769    0.0000 C   0  0  0  0  0  0  0  0  0  0  0  0
   -0.8055   -7.1724    0.0000 C   0  0  0  0  0  0  0  0  0  0  0  0
    0.5143   -5.4339    0.0000 C   0  0  0  0  0  0  0  0  0  0  0  0
    0.8090   -6.8322    0.0000 C   0  0  0  0  0  0  0  0  0  0  0  0
    0.4619   -1.2601    0.0000 C   0  0  0  0  0  0  0  0  0  0  0  0
   -3.2216   -2.1112    0.0000 C   0  0  0  0  0  0  0  0  0  0  0  0
    1.2162   -0.9259    0.0000 C   0  0  0  0  0  0  0  0  0  0  0  0
    2.1457    1.0490    0.0000 C   0  0  2  0  0  0  0  0  0  0  0  0
    2.0580    0.2287    0.0000 C   0  0  0  0  0  0  0  0  0  0  0  0
    1.4791    1.5350    0.0000 C   0  0  0  0  0  0  0  0  0  0  0  0
    0.6587    1.6227    0.0000 C   0  0  0  0  0  0  0  0  0  0  0  0
    4.3208    1.2314    0.0000 C   0  0  2  0  0  0  0  0  0  0  0  0
    3.5665    0.8971    0.0000 C   0  0  0  0  0  0  0  0  0  0  0  0
    4.4085    2.0517    0.0000 C   0  0  0  0  0  0  0  0  0  0  0  0
    0.2505    2.3341    0.0000 C   0  0  0  0  0  0  0  0  0  0  0  0
    0.1094    1.0137    0.0000 C   0  0  0  0  0  0  0  0  0  0  0  0
   -0.5564    2.1625    0.0000 C   0  0  0  0  0  0  0  0  0  0  0  0
    3.7419    2.5378    0.0000 C   0  0  0  0  0  0  0  0  0  0  0  0
    6.4082    0.5935    0.0000 C   0  0  1  0  0  0  0  0  0  0  0  0
    5.7417    1.0795    0.0000 C   0  0  0  0  0  0  0  0  0  0  0  0
    0.5054    3.1186    0.0000 C   0  0  0  0  0  0  0  0  0  0  0  0
    3.8295    3.3582    0.0000 C   0  0  0  0  0  0  0  0  0  0  0  0
    6.3207   -0.2267    0.0000 C   0  0  0  0  0  0  0  0  0  0  0  0
    8.0045    2.0823    0.0000 C   0  0  2  0  0  0  0  0  0  0  0  0
   -1.1084    2.7756    0.0000 C   0  0  0  0  0  0  0  0  0  0  0  0
   10.0919    1.4445    0.0000 C   0  0  1  0  0  0  0  0  0  0  0  0
   12.2671    1.6268    0.0000 C   0  0  1  0  0  0  0  0  0  0  0  0
    7.2502    1.7481    0.0000 C   0  0  0  0  0  0  0  0  0  0  0  0
   -0.0465    3.7317    0.0000 C   0  0  0  0  0  0  0  0  0  0  0  0
   12.3547    2.4472    0.0000 C   0  0  0  0  0  0  0  0  0  0  0  0
    8.0921    2.9027    0.0000 C   0  0  0  0  0  0  0  0  0  0  0  0
   -0.8535    3.5602    0.0000 C   0  0  0  0  0  0  0  0  0  0  0  0
   10.0042    0.6241    0.0000 C   0  0  0  0  0  0  0  0  0  0  0  0
    9.4254    1.9305    0.0000 C   0  0  0  0  0  0  0  0  0  0  0  0
    6.9872   -0.7129    0.0000 C   0  0  0  0  0  0  0  0  0  0  0  0
   11.5128    1.2926    0.0000 C   0  0  0  0  0  0  0  0  0  0  0  0
   13.1090    2.7815    0.0000 C   0  0  0  0  0  0  0  0  0  0  0  0
    7.4255    3.3888    0.0000 C   0  0  0  0  0  0  0  0  0  0  0  0
   10.6709    0.1380    0.0000 C   0  0  0  0  0  0  0  0  0  0  0  0
   13.1966    3.6018    0.0000 C   0  0  0  0  0  0  0  0  0  0  0  0
   14.3546    0.9890    0.0000 C   0  0  2  0  0  0  0  0  0  0  0  0
   13.6879    1.4751    0.0000 C   0  0  0  0  0  0  0  0  0  0  0  0
    7.7415   -0.3786    0.0000 C   0  0  0  0  0  0  0  0  0  0  0  0
    6.8996   -1.5331    0.0000 C   0  0  0  0  0  0  0  0  0  0  0  0
    3.2505    4.6646    0.0000 C   0  0  0  0  0  0  0  0  0  0  0  0
   13.9509    3.9360    0.0000 C   0  0  0  0  0  0  0  0  0  0  0  0
    6.6405    3.1352    0.0000 C   0  0  0  0  0  0  0  0  0  0  0  0
   14.2669    0.1686    0.0000 C   0  0  0  0  0  0  0  0  0  0  0  0
   16.5297    1.1714    0.0000 C   0  0  2  0  0  0  0  0  0  0  0  0
    8.4081   -0.8647    0.0000 C   0  0  0  0  0  0  0  0  0  0  0  0
    7.5662   -2.0193    0.0000 C   0  0  0  0  0  0  0  0  0  0  0  0
   10.5832   -0.6822    0.0000 C   0  0  0  0  0  0  0  0  0  0  0  0
   15.7754    0.8372    0.0000 C   0  0  0  0  0  0  0  0  0  0  0  0
   16.6173    1.9917    0.0000 C   0  0  0  0  0  0  0  0  0  0  0  0
    8.3205   -1.6850    0.0000 C   0  0  0  0  0  0  0  0  0  0  0  0
    6.6428    4.4701    0.0000 C   0  0  0  0  0  0  0  0  0  0  0  0
   17.3716    2.3260    0.0000 C   0  0  0  0  0  0  0  0  0  0  0  0
   17.1086   -0.1349    0.0000 C   0  0  0  0  0  0  0  0  0  0  0  0
   17.7752   -0.6210    0.0000 C   0  0  2  0  0  0  0  0  0  0  0  0
   18.0381    1.8398    0.0000 C   0  0  0  0  0  0  0  0  0  0  0  0
   17.4592    3.1463    0.0000 C   0  0  0  0  0  0  0  0  0  0  0  0
   18.5294   -0.2867    0.0000 C   0  0  0  0  0  0  0  0  0  0  0  0
   18.7924    2.1741    0.0000 C   0  0  0  0  0  0  0  0  0  0  0  0
   18.2134    3.4806    0.0000 C   0  0  0  0  0  0  0  0  0  0  0  0
   18.8801    2.9945    0.0000 C   0  0  0  0  0  0  0  0  0  0  0  0
   18.3541   -1.9275    0.0000 C   0  0  0  0  0  0  0  0  0  0  0  0
   18.2666   -2.7477    0.0000 C   0  0  0  0  0  0  0  0  0  0  0  0
   14.8303   -1.2819    0.0000 H   0  0  0  0  0  0  0  0  0  0  0  0
   11.1502   -2.1000    0.0000 H   0  0  0  0  0  0  0  0  0  0  0  0
   19.0931   -1.7373    0.0000 H   0  0  0  0  0  0  0  0  0  0  0  0
   20.3914    2.7766    0.0000 H   0  0  0  0  0  0  0  0  0  0  0  0
   -2.0634   -5.9773    0.0000 H   0  0  0  0  0  0  0  0  0  0  0  0
    1.1697   -2.6606    0.0000 H   0  0  0  0  0  0  0  0  0  0  0  0
   -0.5604   -8.7223    0.0000 H   0  0  0  0  0  0  0  0  0  0  0  0
    0.7088   -7.5835    0.0000 H   0  0  0  0  0  0  0  0  0  0  0  0
   -4.2420   -3.3445    0.0000 H   0  0  0  0  0  0  0  0  0  0  0  0
   -2.4854   -3.5325    0.0000 H   0  0  0  0  0  0  0  0  0  0  0  0
    0.5083    0.4744    0.0000 H   0  0  0  0  0  0  0  0  0  0  0  0
    3.0047    2.3621    0.0000 H   0  0  0  0  0  0  0  0  0  0  0  0
    4.8827   -0.2336    0.0000 H   0  0  0  0  0  0  0  0  0  0  0  0
   -1.4918    0.8529    0.0000 H   0  0  0  0  0  0  0  0  0  0  0  0
    7.9579    0.3476    0.0000 H   0  0  0  0  0  0  0  0  0  0  0  0
    8.5665    0.6174    0.0000 H   0  0  0  0  0  0  0  0  0  0  0  0
   10.9509    2.7576    0.0000 H   0  0  0  0  0  0  0  0  0  0  0  0
    2.2628    3.4454    0.0000 H   0  0  0  0  0  0  0  0  0  0  0  0
   12.8290    0.1619    0.0000 H   0  0  0  0  0  0  0  0  0  0  0  0
    8.2244    4.7911    0.0000 H   0  0  0  0  0  0  0  0  0  0  0  0
   15.2134    2.3021    0.0000 H   0  0  0  0  0  0  0  0  0  0  0  0
   18.0964    1.0843    0.0000 H   0  0  0  0  0  0  0  0  0  0  0  0
    4.8003    4.4189    0.0000 H   0  0  0  0  0  0  0  0  0  0  0  0
    4.1094    5.9778    0.0000 H   0  0  0  0  0  0  0  0  0  0  0  0
    2.6887    6.1296    0.0000 H   0  0  0  0  0  0  0  0  0  0  0  0
   16.7875   -1.8403    0.0000 H   0  0  0  0  0  0  0  0  0  0  0  0
   -0.3609   -4.1008    0.0000 H   0  0  0  0  0  0  0  0  0  0  0  0
   -2.7519   -5.3866    0.0000 H   0  0  0  0  0  0  0  0  0  0  0  0
   -3.2838   -4.4031    0.0000 H   0  0  0  0  0  0  0  0  0  0  0  0
   -3.5960   -3.4824    0.0000 H   0  0  0  0  0  0  0  0  0  0  0  0
   -2.8249   -2.6726    0.0000 H   0  0  0  0  0  0  0  0  0  0  0  0
   -2.0457   -2.0914    0.0000 H   0  0  0  0  0  0  0  0  0  0  0  0
   -2.9340   -2.7705    0.0000 H   0  0  0  0  0  0  0  0  0  0  0  0
    0.4846   -3.0451    0.0000 H   0  0  0  0  0  0  0  0  0  0  0  0
   -0.9330   -0.8647    0.0000 H   0  0  0  0  0  0  0  0  0  0  0  0
   -1.9112   -1.2982    0.0000 H   0  0  0  0  0  0  0  0  0  0  0  0
   -0.2168   -5.3713    0.0000 H   0  0  0  0  0  0  0  0  0  0  0  0
   -1.9145   -3.3268    0.0000 H   0  0  0  0  0  0  0  0  0  0  0  0
   -2.7791   -2.6965    0.0000 H   0  0  0  0  0  0  0  0  0  0  0  0
    1.3050   -5.9975    0.0000 H   0  0  0  0  0  0  0  0  0  0  0  0
   -2.3539   -0.7129    0.0000 H   0  0  0  0  0  0  0  0  0  0  0  0
   -3.3321   -1.1466    0.0000 H   0  0  0  0  0  0  0  0  0  0  0  0
    1.5613   -5.2132    0.0000 H   0  0  0  0  0  0  0  0  0  0  0  0
   -0.2003   -4.6375    0.0000 H   0  0  0  0  0  0  0  0  0  0  0  0
    0.8467   -4.4168    0.0000 H   0  0  0  0  0  0  0  0  0  0  0  0
    0.4767   -7.8493    0.0000 H   0  0  0  0  0  0  0  0  0  0  0  0
    1.8560   -6.6115    0.0000 H   0  0  0  0  0  0  0  0  0  0  0  0
    1.5236   -7.6286    0.0000 H   0  0  0  0  0  0  0  0  0  0  0  0
   -4.0861   -1.4807    0.0000 H   0  0  0  0  0  0  0  0  0  0  0  0
   -3.1080   -1.0473    0.0000 H   0  0  0  0  0  0  0  0  0  0  0  0
    2.0808   -1.5563    0.0000 H   0  0  0  0  0  0  0  0  0  0  0  0
    1.1025   -1.9898    0.0000 H   0  0  0  0  0  0  0  0  0  0  0  0
    3.0102    0.4185    0.0000 H   0  0  0  0  0  0  0  0  0  0  0  0
    1.8643    2.5333    0.0000 H   0  0  0  0  0  0  0  0  0  0  0  0
    0.9216    2.4483    0.0000 H   0  0  0  0  0  0  0  0  0  0  0  0
    4.2071    0.1675    0.0000 H   0  0  0  0  0  0  0  0  0  0  0  0
    5.3868    2.4852    0.0000 H   0  0  0  0  0  0  0  0  0  0  0  0
    4.5222    3.1156    0.0000 H   0  0  0  0  0  0  0  0  0  0  0  0
    0.3240    0.0042    0.0000 H   0  0  0  0  0  0  0  0  0  0  0  0
    2.7637    2.1043    0.0000 H   0  0  0  0  0  0  0  0  0  0  0  0
    2.8773    3.1682    0.0000 H   0  0  0  0  0  0  0  0  0  0  0  0
    6.5219    1.6574    0.0000 H   0  0  0  0  0  0  0  0  0  0  0  0
    1.5149    3.3331    0.0000 H   0  0  0  0  0  0  0  0  0  0  0  0
    4.8077    3.7917    0.0000 H   0  0  0  0  0  0  0  0  0  0  0  0
    4.6941    2.7278    0.0000 H   0  0  0  0  0  0  0  0  0  0  0  0
    5.3425   -0.6602    0.0000 H   0  0  0  0  0  0  0  0  0  0  0  0
    6.2069   -1.2906    0.0000 H   0  0  0  0  0  0  0  0  0  0  0  0
    7.8908    1.0184    0.0000 H   0  0  0  0  0  0  0  0  0  0  0  0
   -2.1178    2.5610    0.0000 H   0  0  0  0  0  0  0  0  0  0  0  0
   10.9564    0.8140    0.0000 H   0  0  0  0  0  0  0  0  0  0  0  0
   13.2453    2.0604    0.0000 H   0  0  0  0  0  0  0  0  0  0  0  0
    0.2725    4.7132    0.0000 H   0  0  0  0  0  0  0  0  0  0  0  0
   11.4901    3.0776    0.0000 H   0  0  0  0  0  0  0  0  0  0  0  0
   12.4683    3.5111    0.0000 H   0  0  0  0  0  0  0  0  0  0  0  0
    9.0703    3.3362    0.0000 H   0  0  0  0  0  0  0  0  0  0  0  0
    8.2058    3.9666    0.0000 H   0  0  0  0  0  0  0  0  0  0  0  0
   -1.5440    4.3271    0.0000 H   0  0  0  0  0  0  0  0  0  0  0  0
    9.0260    0.1906    0.0000 H   0  0  0  0  0  0  0  0  0  0  0  0
    9.8905   -0.4398    0.0000 H   0  0  0  0  0  0  0  0  0  0  0  0
   13.9736    2.1511    0.0000 H   0  0  0  0  0  0  0  0  0  0  0  0
   14.0872    3.2151    0.0000 H   0  0  0  0  0  0  0  0  0  0  0  0
   11.6491    0.5715    0.0000 H   0  0  0  0  0  0  0  0  0  0  0  0
   11.5354   -0.4925    0.0000 H   0  0  0  0  0  0  0  0  0  0  0  0
   12.3320    4.2322    0.0000 H   0  0  0  0  0  0  0  0  0  0  0  0
   13.3103    4.6657    0.0000 H   0  0  0  0  0  0  0  0  0  0  0  0
   14.4683    2.0529    0.0000 H   0  0  0  0  0  0  0  0  0  0  0  0
    7.8511    0.6476    0.0000 H   0  0  0  0  0  0  0  0  0  0  0  0
    5.9561   -1.9512    0.0000 H   0  0  0  0  0  0  0  0  0  0  0  0
   14.8154    3.3055    0.0000 H   0  0  0  0  0  0  0  0  0  0  0  0
   14.0647    4.9999    0.0000 H   0  0  0  0  0  0  0  0  0  0  0  0
   14.9292    4.3694    0.0000 H   0  0  0  0  0  0  0  0  0  0  0  0
    6.3200    2.1542    0.0000 H   0  0  0  0  0  0  0  0  0  0  0  0
   13.2886   -0.2649    0.0000 H   0  0  0  0  0  0  0  0  0  0  0  0
   13.4024    0.7991    0.0000 H   0  0  0  0  0  0  0  0  0  0  0  0
   16.4160    0.1075    0.0000 H   0  0  0  0  0  0  0  0  0  0  0  0
    9.3516   -0.4466    0.0000 H   0  0  0  0  0  0  0  0  0  0  0  0
    7.4565   -3.0455    0.0000 H   0  0  0  0  0  0  0  0  0  0  0  0
   15.7527    2.6221    0.0000 H   0  0  0  0  0  0  0  0  0  0  0  0
   16.7309    3.0556    0.0000 H   0  0  0  0  0  0  0  0  0  0  0  0
    9.1544   -2.2930    0.0000 H   0  0  0  0  0  0  0  0  0  0  0  0
    6.3256    5.4521    0.0000 H   0  0  0  0  0  0  0  0  0  0  0  0
   16.7970   -1.0545    0.0000 H   0  0  0  0  0  0  0  0  0  0  0  0
   17.9284    0.8137    0.0000 H   0  0  0  0  0  0  0  0  0  0  0  0
   16.6253    3.7543    0.0000 H   0  0  0  0  0  0  0  0  0  0  0  0
   18.6430    0.7773    0.0000 H   0  0  0  0  0  0  0  0  0  0  0  0
   17.6648    0.3437    0.0000 H   0  0  0  0  0  0  0  0  0  0  0  0
   19.6263    1.5661    0.0000 H   0  0  0  0  0  0  0  0  0  0  0  0
   18.3230    4.5068    0.0000 H   0  0  0  0  0  0  0  0  0  0  0  0
   17.2884   -3.1814    0.0000 H   0  0  0  0  0  0  0  0  0  0  0  0
   19.1313   -3.3780    0.0000 H   0  0  0  0  0  0  0  0  0  0  0  0
   18.1531   -3.8117    0.0000 H   0  0  0  0  0  0  0  0  0  0  0  0
  1 45  2  0  0  0  0
  2 46  2  0  0  0  0
  3 53  2  0  0  0  0
  4 56  2  0  0  0  0
  5 60  2  0  0  0  0
  6 64  2  0  0  0  0
  7 71  2  0  0  0  0
  8 79  2  0  0  0  0
  9 85  2  0  0  0  0
 10 87  2  0  0  0  0
 11 93  2  0  0  0  0
 12 99  1  0  0  0  0
 12119  1  0  0  0  0
 13103  1  0  0  0  0
 13120  1  0  0  0  0
 14103  2  0  0  0  0
 15104  2  0  0  0  0
 16109  2  0  0  0  0
 17113  1  0  0  0  0
 17121  1  0  0  0  0
 18116  1  0  0  0  0
 18122  1  0  0  0  0
 19117  2  0  0  0  0
 20 41  1  0  0  0  0
 20 44  1  0  0  0  0
 20 45  1  0  0  0  0
 21 46  1  0  0  0  0
 21123  1  0  0  0  0
 22 56  1  0  0  0  0
 22124  1  0  0  0  0
 23 53  1  0  0  0  0
 23125  1  0  0  0  0
 23126  1  0  0  0  0
 24 57  1  0  0  0  0
 24127  1  0  0  0  0
 24128  1  0  0  0  0
 25 58  1  0  0  0  0
 25 60  1  0  0  0  0
 25129  1  0  0  0  0
 26 64  1  0  0  0  0
 26130  1  0  0  0  0
 27 71  1  0  0  0  0
 27131  1  0  0  0  0
 28 67  1  0  0  0  0
 28 68  1  0  0  0  0
 28132  1  0  0  0  0
 29 79  1  0  0  0  0
 29133  1  0  0  0  0
 30 85  1  0  0  0  0
 30134  1  0  0  0  0
 31 87  1  0  0  0  0
 31135  1  0  0  0  0
 32 73  1  0  0  0  0
 32 96  1  0  0  0  0
 32136  1  0  0  0  0
 33 93  1  0  0  0  0
 33137  1  0  0  0  0
 34 89  1  0  0  0  0
 34107  1  0  0  0  0
 34138  1  0  0  0  0
 35104  1  0  0  0  0
 35139  1  0  0  0  0
 36 98  1  0  0  0  0
 36107  2  0  0  0  0
 37109  1  0  0  0  0
 37140  1  0  0  0  0
 38 96  1  0  0  0  0
 38141  1  0  0  0  0
 38142  1  0  0  0  0
 39 96  2  0  0  0  0
 39143  1  0  0  0  0
 40117  1  0  0  0  0
 40144  1  0  0  0  0
 41 42  1  0  0  0  0
 41 46  1  0  0  0  0
 41145  1  1  0  0  0
 42 43  1  0  0  0  0
 42146  1  0  0  0  0
 42147  1  0  0  0  0
 43 44  1  0  0  0  0
 43148  1  0  0  0  0
 43149  1  0  0  0  0
 44150  1  0  0  0  0
 44151  1  0  0  0  0
 45 47  1  0  0  0  0
 47 22  1  0  0  0  0
 47 48  1  0  0  0  0
 47152  1  1  0  0  0
 48 50  1  0  0  0  0
 48153  1  0  0  0  0
 48154  1  0  0  0  0
 49 21  1  0  0  0  0
 49 51  1  0  0  0  0
 49 53  1  0  0  0  0
 49155  1  6  0  0  0
 50 52  1  0  0  0  0
 50156  1  0  0  0  0
 50157  1  0  0  0  0
 51 54  1  0  0  0  0
 51 55  1  0  0  0  0
 51158  1  0  0  0  0
 52 57  1  0  0  0  0
 52159  1  0  0  0  0
 52160  1  0  0  0  0
 54161  1  0  0  0  0
 54162  1  0  0  0  0
 54163  1  0  0  0  0
 55164  1  0  0  0  0
 55165  1  0  0  0  0
 55166  1  0  0  0  0
 56 58  1  0  0  0  0
 57167  1  0  0  0  0
 57168  1  0  0  0  0
 58169  1  0  0  0  0
 58170  1  0  0  0  0
 59 26  1  0  0  0  0
 59 60  1  0  0  0  0
 59 61  1  0  0  0  0
 59171  1  1  0  0  0
 61 62  1  0  0  0  0
 61172  1  0  0  0  0
 61173  1  0  0  0  0
 62 66  1  0  0  0  0
 62 67  2  0  0  0  0
 63 27  1  0  0  0  0
 63 64  1  0  0  0  0
 63 65  1  0  0  0  0
 63174  1  1  0  0  0
 65 69  1  0  0  0  0
 65175  1  0  0  0  0
 65176  1  0  0  0  0
 66 68  1  0  0  0  0
 66 72  2  0  0  0  0
 67177  1  0  0  0  0
 68 76  2  0  0  0  0
 69 73  1  0  0  0  0
 69178  1  0  0  0  0
 69179  1  0  0  0  0
 70 29  1  0  0  0  0
 70 71  1  0  0  0  0
 70 74  1  0  0  0  0
 70180  1  1  0  0  0
 72 80  1  0  0  0  0
 72181  1  0  0  0  0
 73182  1  0  0  0  0
 73183  1  0  0  0  0
 74 86  1  0  0  0  0
 74184  1  0  0  0  0
 74185  1  0  0  0  0
 75 30  1  0  0  0  0
 75 79  1  0  0  0  0
 75 82  1  0  0  0  0
 75186  1  1  0  0  0
 76 83  1  0  0  0  0
 76187  1  0  0  0  0
 77 31  1  0  0  0  0
 77 84  1  0  0  0  0
 77 85  1  0  0  0  0
 77188  1  6  0  0  0
 78 33  1  0  0  0  0
 78 81  1  0  0  0  0
 78 87  1  0  0  0  0
 78189  1  1  0  0  0
 80 83  2  0  0  0  0
 80190  1  0  0  0  0
 81 88  1  0  0  0  0
 81191  1  0  0  0  0
 81192  1  0  0  0  0
 82 89  1  0  0  0  0
 82193  1  0  0  0  0
 82194  1  0  0  0  0
 83195  1  0  0  0  0
 84 90  1  0  0  0  0
 84196  1  0  0  0  0
 84197  1  0  0  0  0
 86 94  2  0  0  0  0
 86 95  1  0  0  0  0
 88 91  1  0  0  0  0
 88198  1  0  0  0  0
 88199  1  0  0  0  0
 89 98  2  0  0  0  0
 90103  1  0  0  0  0
 90200  1  0  0  0  0
 90201  1  0  0  0  0
 91 97  1  0  0  0  0
 91202  1  0  0  0  0
 91203  1  0  0  0  0
 92 35  1  0  0  0  0
 92 93  1  0  0  0  0
 92 99  1  0  0  0  0
 92204  1  6  0  0  0
 94101  1  0  0  0  0
 94205  1  0  0  0  0
 95102  2  0  0  0  0
 95206  1  0  0  0  0
 97207  1  0  0  0  0
 97208  1  0  0  0  0
 97209  1  0  0  0  0
 98210  1  0  0  0  0
 99211  1  0  0  0  0
 99212  1  0  0  0  0
100 37  1  0  0  0  0
100104  1  0  0  0  0
100105  1  0  0  0  0
100213  1  1  0  0  0
101106  2  0  0  0  0
101214  1  0  0  0  0
102106  1  0  0  0  0
102215  1  0  0  0  0
105108  1  0  0  0  0
105216  1  0  0  0  0
105217  1  0  0  0  0
106218  1  0  0  0  0
107219  1  0  0  0  0
108111  2  0  0  0  0
108112  1  0  0  0  0
109110  1  0  0  0  0
110 40  1  0  0  0  0
110113  1  0  0  0  0
110220  1  1  0  0  0
111114  1  0  0  0  0
111221  1  0  0  0  0
112115  2  0  0  0  0
112222  1  0  0  0  0
113223  1  0  0  0  0
113224  1  0  0  0  0
114116  2  0  0  0  0
114225  1  0  0  0  0
115116  1  0  0  0  0
115226  1  0  0  0  0
117118  1  0  0  0  0
118227  1  0  0  0  0
118228  1  0  0  0  0
118229  1  0  0  0  0
M  END
>  <DRUGBANK_ID>
DB04931

>  <COMMON_NAME>
Afamelanotide

>  <CAS_NUMBER>
75921-69-6

>  <UNII>
QW68W3J66U

>  <SYNONYMS>
Afamelanotide; Melanotan 1; Melanotan I; Melanotan-1; MT-I

$$$$
