
 OpenBabel10282417072D

 53 55  0  0  1  0  0  0  0  0999 V2000
   -0.1712   -0.6979    0.0000 C   0  0  0  0  0  0  0  0  0  0  0  0
    0.6538   -0.6979    0.0000 C   0  0  0  0  0  0  0  0  0  0  0  0
    1.1387   -0.0305    0.0000 C   0  0  0  0  0  0  0  0  0  0  0  0
    1.9233   -0.2854    0.0000 C   0  0  0  0  0  0  0  0  0  0  0  0
    2.6378    0.1271    0.0000 N   0  0  0  0  0  0  0  0  0  0  0  0
    3.3523   -0.2854    0.0000 C   0  0  0  0  0  0  0  0  0  0  0  0
    3.3523   -1.1104    0.0000 C   0  0  0  0  0  0  0  0  0  0  0  0
    2.6378   -1.5229    0.0000 C   0  0  0  0  0  0  0  0  0  0  0  0
    1.9233   -1.1104    0.0000 N   0  0  0  0  0  0  0  0  0  0  0  0
    1.1387   -1.3654    0.0000 N   0  0  0  0  0  0  0  0  0  0  0  0
    4.0668   -1.5229    0.0000 C   0  0  0  0  0  0  0  0  0  0  0  0
    4.7812   -1.1104    0.0000 O   0  0  0  0  0  0  0  0  0  0  0  0
    4.0668   -2.3479    0.0000 N   0  0  0  0  0  0  0  0  0  0  0  0
    4.7812   -2.7604    0.0000 C   0  0  0  0  0  0  0  0  0  0  0  0
    4.7812   -3.5854    0.0000 C   0  0  0  0  0  0  0  0  0  0  0  0
    3.9562   -3.5854    0.0000 C   0  0  0  0  0  0  0  0  0  0  0  0
    5.6062   -3.5854    0.0000 C   0  0  0  0  0  0  0  0  0  0  0  0
    4.7812   -4.4104    0.0000 N   0  0  0  0  0  0  0  0  0  0  0  0
    5.4957   -4.8229    0.0000 C   0  0  0  0  0  0  0  0  0  0  0  0
    5.4957   -5.6479    0.0000 C   0  0  0  0  0  0  0  0  0  0  0  0
    4.7812   -6.0604    0.0000 O   0  0  0  0  0  0  0  0  0  0  0  0
    6.2102   -6.0604    0.0000 N   0  0  0  0  0  0  0  0  0  0  0  0
    6.9638   -5.7249    0.0000 C   0  0  0  0  0  0  0  0  0  0  0  0
    7.5159   -6.3380    0.0000 C   0  0  0  0  0  0  0  0  0  0  0  0
    7.1034   -7.0525    0.0000 C   0  0  0  0  0  0  0  0  0  0  0  0
    6.2964   -6.8809    0.0000 C   0  0  1  0  0  0  0  0  0  0  0  0
    5.6833   -7.4330    0.0000 C   0  0  0  0  0  0  0  0  0  0  0  0
    5.0702   -7.9850    0.0000 N   0  0  0  0  0  0  0  0  0  0  0  0
   -0.7062    0.2287    0.0000 H   0  0  0  0  0  0  0  0  0  0  0  0
   -0.7062   -1.6245    0.0000 H   0  0  0  0  0  0  0  0  0  0  0  0
   -1.2412   -0.6979    0.0000 H   0  0  0  0  0  0  0  0  0  0  0  0
    0.8198    0.9510    0.0000 H   0  0  0  0  0  0  0  0  0  0  0  0
    4.2460    0.2306    0.0000 H   0  0  0  0  0  0  0  0  0  0  0  0
    2.6378   -2.5549    0.0000 H   0  0  0  0  0  0  0  0  0  0  0  0
    3.2142   -2.8401    0.0000 H   0  0  0  0  0  0  0  0  0  0  0  0
    5.7079   -2.2254    0.0000 H   0  0  0  0  0  0  0  0  0  0  0  0
    5.7078   -3.2954    0.0000 H   0  0  0  0  0  0  0  0  0  0  0  0
    3.4212   -2.6588    0.0000 H   0  0  0  0  0  0  0  0  0  0  0  0
    3.4212   -4.5120    0.0000 H   0  0  0  0  0  0  0  0  0  0  0  0
    2.8862   -3.5854    0.0000 H   0  0  0  0  0  0  0  0  0  0  0  0
    6.1412   -4.5120    0.0000 H   0  0  0  0  0  0  0  0  0  0  0  0
    6.1412   -2.6588    0.0000 H   0  0  0  0  0  0  0  0  0  0  0  0
    6.6762   -3.5854    0.0000 H   0  0  0  0  0  0  0  0  0  0  0  0
    3.8979   -4.9204    0.0000 H   0  0  0  0  0  0  0  0  0  0  0  0
    6.4223   -4.2879    0.0000 H   0  0  0  0  0  0  0  0  0  0  0  0
    6.4223   -5.3579    0.0000 H   0  0  0  0  0  0  0  0  0  0  0  0
    7.1863   -4.6783    0.0000 H   0  0  0  0  0  0  0  0  0  0  0  0
    7.9973   -5.4479    0.0000 H   0  0  0  0  0  0  0  0  0  0  0  0
    8.5800   -6.2261    0.0000 H   0  0  0  0  0  0  0  0  0  0  0  0
    8.0987   -7.2354    0.0000 H   0  0  0  0  0  0  0  0  0  0  0  0
    7.5386   -8.0300    0.0000 H   0  0  0  0  0  0  0  0  0  0  0  0
    6.4300   -7.8840    0.0000 H   0  0  0  0  0  0  0  0  0  0  0  0
    6.5733   -7.9144    0.0000 H   0  0  0  0  0  0  0  0  0  0  0  0
  1  2  1  0  0  0  0
  1 29  1  0  0  0  0
  1 30  1  0  0  0  0
  1 31  1  0  0  0  0
  2  3  1  0  0  0  0
  2 10  2  0  0  0  0
  3  4  2  0  0  0  0
  3 32  1  0  0  0  0
  4  5  1  0  0  0  0
  4  9  1  0  0  0  0
  5  6  2  0  0  0  0
  6  7  1  0  0  0  0
  6 33  1  0  0  0  0
  7  8  2  0  0  0  0
  7 11  1  0  0  0  0
  8  9  1  0  0  0  0
  8 34  1  0  0  0  0
  9 10  1  0  0  0  0
 11 12  2  0  0  0  0
 11 13  1  0  0  0  0
 13 14  1  0  0  0  0
 13 35  1  0  0  0  0
 14 15  1  0  0  0  0
 14 36  1  0  0  0  0
 14 37  1  0  0  0  0
 15 16  1  0  0  0  0
 15 17  1  0  0  0  0
 15 18  1  0  0  0  0
 16 38  1  0  0  0  0
 16 39  1  0  0  0  0
 16 40  1  0  0  0  0
 17 41  1  0  0  0  0
 17 42  1  0  0  0  0
 17 43  1  0  0  0  0
 18 19  1  0  0  0  0
 18 44  1  0  0  0  0
 19 20  1  0  0  0  0
 19 45  1  0  0  0  0
 19 46  1  0  0  0  0
 20 21  2  0  0  0  0
 20 22  1  0  0  0  0
 22 23  1  0  0  0  0
 22 26  1  0  0  0  0
 23 24  1  0  0  0  0
 23 47  1  0  0  0  0
 23 48  1  0  0  0  0
 24 25  1  0  0  0  0
 24 49  1  0  0  0  0
 24 50  1  0  0  0  0
 25 26  1  0  0  0  0
 25 51  1  0  0  0  0
 25 52  1  0  0  0  0
 26 27  1  0  0  0  0
 26 53  1  6  0  0  0
 27 28  3  0  0  0  0
M  END
>  <DRUGBANK_ID>
DB12417

>  <COMMON_NAME>
Anagliptin

>  <CAS_NUMBER>
739366-20-2

>  <UNII>
K726J96838

>  <SYNONYMS>
Anagliptin

$$$$
