
 OpenBabel10282417072D

 63 66  0  0  1  0  0  0  0  0999 V2000
   19.1384   -6.1910    0.0000 P   0  0  1  0  0  0  0  0  0  0  0  0
   17.7171   -6.3380    0.0000 P   0  0  2  0  0  0  0  0  0  0  0  0
   15.6260   -7.7936    0.0000 O   0  0  0  0  0  0  0  0  0  0  0  0
   20.4750   -5.2235    0.0000 O   0  0  0  0  0  0  0  0  0  0  0  0
   14.5897   -5.9273    0.0000 O   0  0  0  0  0  0  0  0  0  0  0  0
   13.5322   -7.3775    0.0000 O   0  0  0  0  0  0  0  0  0  0  0  0
   17.0488   -6.8218    0.0000 O   0  0  0  0  0  0  0  0  0  0  0  0
   19.8915   -6.5279    0.0000 O   0  0  0  0  0  0  0  0  0  0  0  0
   22.7342   -6.2341    0.0000 O   0  0  0  0  0  0  0  0  0  0  0  0
   22.5646   -4.5929    0.0000 O   0  0  0  0  0  0  0  0  0  0  0  0
   21.3977   -7.2017    0.0000 O   0  0  0  0  0  0  0  0  0  0  0  0
   18.3854   -5.8543    0.0000 O   0  0  0  0  0  0  0  0  0  0  0  0
   21.7267   -3.4354    0.0000 O   0  0  0  0  0  0  0  0  0  0  0  0
   19.4753   -5.4380    0.0000 O   0  0  0  0  0  0  0  0  0  0  0  0
   18.2008   -7.0062    0.0000 O   0  0  0  0  0  0  0  0  0  0  0  0
   18.8015   -6.9441    0.0000 O   0  0  0  0  0  0  0  0  0  0  0  0
   17.2333   -5.6697    0.0000 O   0  0  0  0  0  0  0  0  0  0  0  0
   14.5846   -8.8314    0.0000 N   0  0  0  0  0  0  0  0  0  0  0  0
   14.5846  -10.1592    0.0000 N   0  0  0  0  0  0  0  0  0  0  0  0
   13.0896   -8.6703    0.0000 N   0  0  0  0  0  0  0  0  0  0  0  0
   12.3750   -9.9078    0.0000 N   0  0  0  0  0  0  0  0  0  0  0  0
   13.0896  -11.1452    0.0000 N   0  0  0  0  0  0  0  0  0  0  0  0
   14.8432   -6.7124    0.0000 C   0  0  1  0  0  0  0  0  0  0  0  0
   14.3571   -7.3790    0.0000 C   0  0  2  0  0  0  0  0  0  0  0  0
   15.6275   -6.9686    0.0000 C   0  0  1  0  0  0  0  0  0  0  0  0
   14.8410   -8.0472    0.0000 C   0  0  1  0  0  0  0  0  0  0  0  0
   21.9812   -5.8973    0.0000 C   0  0  1  0  0  0  0  0  0  0  0  0
   21.8964   -5.0766    0.0000 C   0  0  1  0  0  0  0  0  0  0  0  0
   21.3129   -6.3810    0.0000 C   0  0  2  0  0  0  0  0  0  0  0  0
   21.1432   -4.7398    0.0000 C   0  0  1  0  0  0  0  0  0  0  0  0
   16.2957   -6.4848    0.0000 C   0  0  0  0  0  0  0  0  0  0  0  0
   20.5599   -6.0441    0.0000 C   0  0  2  0  0  0  0  0  0  0  0  0
   21.0584   -3.9192    0.0000 C   0  0  0  0  0  0  0  0  0  0  0  0
   13.8040   -9.0828    0.0000 C   0  0  0  0  0  0  0  0  0  0  0  0
   15.0661   -9.4953    0.0000 C   0  0  0  0  0  0  0  0  0  0  0  0
   13.8040   -9.9078    0.0000 C   0  0  0  0  0  0  0  0  0  0  0  0
   13.0896  -10.3203    0.0000 C   0  0  0  0  0  0  0  0  0  0  0  0
   12.3750   -9.0828    0.0000 C   0  0  0  0  0  0  0  0  0  0  0  0
   15.2401   -5.2076    0.0000 H   0  0  0  0  0  0  0  0  0  0  0  0
   13.0487   -6.5366    0.0000 H   0  0  0  0  0  0  0  0  0  0  0  0
   22.8339   -7.1990    0.0000 H   0  0  0  0  0  0  0  0  0  0  0  0
   23.4501   -4.9890    0.0000 H   0  0  0  0  0  0  0  0  0  0  0  0
   20.6120   -7.7705    0.0000 H   0  0  0  0  0  0  0  0  0  0  0  0
   22.6122   -3.8315    0.0000 H   0  0  0  0  0  0  0  0  0  0  0  0
   20.4402   -5.3384    0.0000 H   0  0  0  0  0  0  0  0  0  0  0  0
   17.8047   -7.8917    0.0000 H   0  0  0  0  0  0  0  0  0  0  0  0
   12.2370  -11.6375    0.0000 H   0  0  0  0  0  0  0  0  0  0  0  0
   13.9422  -11.6375    0.0000 H   0  0  0  0  0  0  0  0  0  0  0  0
   13.7867   -6.5431    0.0000 H   0  0  0  0  0  0  0  0  0  0  0  0
   13.8730   -6.4248    0.0000 H   0  0  0  0  0  0  0  0  0  0  0  0
   16.5800   -7.4560    0.0000 H   0  0  0  0  0  0  0  0  0  0  0  0
   15.5963   -8.8051    0.0000 H   0  0  0  0  0  0  0  0  0  0  0  0
   22.8479   -5.2699    0.0000 H   0  0  0  0  0  0  0  0  0  0  0  0
   22.8731   -5.5135    0.0000 H   0  0  0  0  0  0  0  0  0  0  0  0
   22.2896   -6.8180    0.0000 H   0  0  0  0  0  0  0  0  0  0  0  0
   20.1665   -4.3029    0.0000 H   0  0  0  0  0  0  0  0  0  0  0  0
   16.1857   -5.4205    0.0000 H   0  0  0  0  0  0  0  0  0  0  0  0
   15.3189   -6.0479    0.0000 H   0  0  0  0  0  0  0  0  0  0  0  0
   19.5832   -5.6072    0.0000 H   0  0  0  0  0  0  0  0  0  0  0  0
   20.0817   -3.4823    0.0000 H   0  0  0  0  0  0  0  0  0  0  0  0
   20.1917   -4.5466    0.0000 H   0  0  0  0  0  0  0  0  0  0  0  0
   16.0981   -9.4953    0.0000 H   0  0  0  0  0  0  0  0  0  0  0  0
   11.4813   -8.5668    0.0000 H   0  0  0  0  0  0  0  0  0  0  0  0
  1  8  1  0  0  0  0
  1 12  1  0  0  0  0
  1 14  1  0  0  0  0
  1 16  2  6  0  0  0
  2  7  1  0  0  0  0
  2 12  1  0  0  0  0
  2 15  1  0  0  0  0
  2 17  2  1  0  0  0
  3 25  1  0  0  0  0
  3 26  1  0  0  0  0
  4 30  1  0  0  0  0
  4 32  1  0  0  0  0
  5 39  1  0  0  0  0
  6 40  1  0  0  0  0
  7 31  1  0  0  0  0
  9 41  1  0  0  0  0
 10 42  1  0  0  0  0
 11 43  1  0  0  0  0
 13 33  1  0  0  0  0
 13 44  1  0  0  0  0
 14 45  1  0  0  0  0
 15 46  1  0  0  0  0
 18 34  1  0  0  0  0
 18 35  1  0  0  0  0
 19 35  2  0  0  0  0
 19 36  1  0  0  0  0
 20 34  2  0  0  0  0
 20 38  1  0  0  0  0
 21 37  1  0  0  0  0
 21 38  2  0  0  0  0
 22 37  1  0  0  0  0
 22 47  1  0  0  0  0
 22 48  1  0  0  0  0
 23  5  1  0  0  0  0
 23 24  1  0  0  0  0
 23 25  1  0  0  0  0
 23 49  1  1  0  0  0
 24  6  1  0  0  0  0
 24 26  1  0  0  0  0
 24 50  1  1  0  0  0
 25 31  1  0  0  0  0
 25 51  1  6  0  0  0
 26 18  1  0  0  0  0
 26 52  1  6  0  0  0
 27  9  1  0  0  0  0
 27 28  1  0  0  0  0
 27 29  1  0  0  0  0
 27 53  1  1  0  0  0
 28 10  1  0  0  0  0
 28 30  1  0  0  0  0
 28 54  1  6  0  0  0
 29 11  1  0  0  0  0
 29 32  1  0  0  0  0
 29 55  1  6  0  0  0
 30 33  1  0  0  0  0
 30 56  1  1  0  0  0
 31 57  1  0  0  0  0
 31 58  1  0  0  0  0
 32  8  1  0  0  0  0
 32 59  1  6  0  0  0
 33 60  1  0  0  0  0
 33 61  1  0  0  0  0
 34 36  1  0  0  0  0
 35 62  1  0  0  0  0
 36 37  2  0  0  0  0
 38 63  1  0  0  0  0
M  END
>  <DRUGBANK_ID>
DB01774

>  <SECONDARY_ACCESSION_NUMBERS>
EXPT00437

>  <COMMON_NAME>
Adenosine-5'-Monophosphate Glucopyranosyl-Monophosphate Ester

$$$$
