
 OpenBabel10282417072D

 61 62  0  0  1  0  0  0  0  0999 V2000
   -0.7145    0.4125    0.0000 N   0  0  0  0  0  0  0  0  0  0  0  0
   -0.7145   -0.4125    0.0000 C   0  0  0  0  0  0  0  0  0  0  0  0
    0.0000    0.8250    0.0000 C   0  0  0  0  0  0  0  0  0  0  0  0
    0.7145    0.4125    0.0000 C   0  0  0  0  0  0  0  0  0  0  0  0
    0.7145   -0.4125    0.0000 C   0  0  0  0  0  0  0  0  0  0  0  0
    0.0000   -0.8250    0.0000 N   0  0  0  0  0  0  0  0  0  0  0  0
   -1.4289   -0.8250    0.0000 N   0  0  0  0  0  0  0  0  0  0  0  0
    1.4289   -0.8250    0.0000 C   0  0  0  0  0  0  0  0  0  0  0  0
    1.4289   -1.6500    0.0000 C   0  0  0  0  0  0  0  0  0  0  0  0
    2.1434   -0.4125    0.0000 C   0  0  0  0  0  0  0  0  0  0  0  0
    0.0000    1.6500    0.0000 C   0  0  0  0  0  0  0  0  0  0  0  0
   -0.7145    2.0625    0.0000 C   0  0  0  0  0  0  0  0  0  0  0  0
   -0.7145    2.8875    0.0000 C   0  0  0  0  0  0  0  0  0  0  0  0
    0.0000    3.3000    0.0000 C   0  0  0  0  0  0  0  0  0  0  0  0
    0.7145    2.8875    0.0000 C   0  0  0  0  0  0  0  0  0  0  0  0
    0.7145    2.0625    0.0000 C   0  0  0  0  0  0  0  0  0  0  0  0
    0.0000    4.1250    0.0000 F   0  0  0  0  0  0  0  0  0  0  0  0
    1.4289    0.8250    0.0000 C   0  0  0  0  0  0  0  0  0  0  0  0
    2.1473    0.4193    0.0000 C   0  0  0  0  0  0  0  0  0  0  0  0
    2.8578    0.8385    0.0000 C   0  0  2  0  0  0  0  0  0  0  0  0
    3.5762    0.4328    0.0000 C   0  0  0  0  0  0  0  0  0  0  0  0
    4.2867    0.8521    0.0000 C   0  0  2  0  0  0  0  0  0  0  0  0
    5.0050    0.4464    0.0000 C   0  0  0  0  0  0  0  0  0  0  0  0
    5.7156    0.8656    0.0000 C   0  0  0  0  0  0  0  0  0  0  0  0
    5.7078    1.6906    0.0000 O   0  0  0  0  0  0  0  0  0  0  0  0
    6.4339    0.4599    0.0000 O   0  0  0  0  0  0  0  0  0  0  0  0
    4.2789    1.6770    0.0000 O   0  0  0  0  0  0  0  0  0  0  0  0
    2.8500    1.6635    0.0000 O   0  0  0  0  0  0  0  0  0  0  0  0
   -1.4289   -2.4750    0.0000 C   0  0  0  0  0  0  0  0  0  0  0  0
   -0.6039   -1.6500    0.0000 O   0  0  0  0  0  0  0  0  0  0  0  0
   -1.4289   -1.6500    0.0000 S   0  0  0  0  0  0  0  0  0  0  0  0
   -2.2539   -1.6500    0.0000 O   0  0  0  0  0  0  0  0  0  0  0  0
   -2.1434   -0.4125    0.0000 C   0  0  0  0  0  0  0  0  0  0  0  0
    2.3555   -1.3600    0.0000 H   0  0  0  0  0  0  0  0  0  0  0  0
    0.5023   -2.1850    0.0000 H   0  0  0  0  0  0  0  0  0  0  0  0
    2.3555   -2.1850    0.0000 H   0  0  0  0  0  0  0  0  0  0  0  0
    1.4289   -2.7200    0.0000 H   0  0  0  0  0  0  0  0  0  0  0  0
    3.0700   -0.9475    0.0000 H   0  0  0  0  0  0  0  0  0  0  0  0
    2.1434    0.6575    0.0000 H   0  0  0  0  0  0  0  0  0  0  0  0
    3.0701    0.1225    0.0000 H   0  0  0  0  0  0  0  0  0  0  0  0
   -1.6082    1.5465    0.0000 H   0  0  0  0  0  0  0  0  0  0  0  0
   -1.6082    3.4035    0.0000 H   0  0  0  0  0  0  0  0  0  0  0  0
    1.6082    3.4035    0.0000 H   0  0  0  0  0  0  0  0  0  0  0  0
    1.6082    1.5465    0.0000 H   0  0  0  0  0  0  0  0  0  0  0  0
    1.4240    1.8570    0.0000 H   0  0  0  0  0  0  0  0  0  0  0  0
    2.1571   -0.6127    0.0000 H   0  0  0  0  0  0  0  0  0  0  0  0
    1.9261    1.3647    0.0000 H   0  0  0  0  0  0  0  0  0  0  0  0
    3.5864   -0.6372    0.0000 H   0  0  0  0  0  0  0  0  0  0  0  0
    4.5079   -0.0933    0.0000 H   0  0  0  0  0  0  0  0  0  0  0  0
    3.3550    1.3783    0.0000 H   0  0  0  0  0  0  0  0  0  0  0  0
    5.0151   -0.6236    0.0000 H   0  0  0  0  0  0  0  0  0  0  0  0
    5.9366   -0.0799    0.0000 H   0  0  0  0  0  0  0  0  0  0  0  0
    6.4428   -0.4771    0.0000 H   0  0  0  0  0  0  0  0  0  0  0  0
    5.1143    2.1699    0.0000 H   0  0  0  0  0  0  0  0  0  0  0  0
    3.6854    2.1564    0.0000 H   0  0  0  0  0  0  0  0  0  0  0  0
   -2.3555   -3.0100    0.0000 H   0  0  0  0  0  0  0  0  0  0  0  0
   -0.5023   -3.0100    0.0000 H   0  0  0  0  0  0  0  0  0  0  0  0
   -1.4289   -3.5450    0.0000 H   0  0  0  0  0  0  0  0  0  0  0  0
   -2.1434    0.6575    0.0000 H   0  0  0  0  0  0  0  0  0  0  0  0
   -3.0700   -0.9475    0.0000 H   0  0  0  0  0  0  0  0  0  0  0  0
   -3.0701    0.1225    0.0000 H   0  0  0  0  0  0  0  0  0  0  0  0
  1  2  2  0  0  0  0
  2  7  1  0  0  0  0
  2  6  1  0  0  0  0
  3  1  1  0  0  0  0
  3 11  1  0  0  0  0
  3  4  2  0  0  0  0
  4 18  1  0  0  0  0
  4  5  1  0  0  0  0
  5  8  1  0  0  0  0
  5  6  2  0  0  0  0
  7 31  1  0  0  0  0
  7 33  1  0  0  0  0
  8  9  1  0  0  0  0
  8 10  1  0  0  0  0
  8 34  1  0  0  0  0
  9 35  1  0  0  0  0
  9 36  1  0  0  0  0
  9 37  1  0  0  0  0
 10 38  1  0  0  0  0
 10 39  1  0  0  0  0
 10 40  1  0  0  0  0
 11 12  2  0  0  0  0
 11 16  1  0  0  0  0
 12 13  1  0  0  0  0
 12 41  1  0  0  0  0
 13 14  2  0  0  0  0
 13 42  1  0  0  0  0
 14 17  1  0  0  0  0
 15 14  1  0  0  0  0
 15 43  1  0  0  0  0
 16 15  2  0  0  0  0
 16 44  1  0  0  0  0
 18 19  2  0  0  0  0
 18 45  1  0  0  0  0
 19 20  1  0  0  0  0
 19 46  1  0  0  0  0
 20 21  1  0  0  0  0
 20 28  1  0  0  0  0
 20 47  1  6  0  0  0
 21 22  1  0  0  0  0
 21 48  1  0  0  0  0
 21 49  1  0  0  0  0
 22 23  1  0  0  0  0
 22 27  1  0  0  0  0
 22 50  1  6  0  0  0
 23 24  1  0  0  0  0
 23 51  1  0  0  0  0
 23 52  1  0  0  0  0
 24 25  2  0  0  0  0
 24 26  1  0  0  0  0
 26 53  1  0  0  0  0
 27 54  1  0  0  0  0
 28 55  1  0  0  0  0
 29 56  1  0  0  0  0
 29 57  1  0  0  0  0
 29 58  1  0  0  0  0
 31 29  1  0  0  0  0
 31 30  2  0  0  0  0
 31 32  2  0  0  0  0
 33 59  1  0  0  0  0
 33 60  1  0  0  0  0
 33 61  1  0  0  0  0
M  END
>  <DRUGBANK_ID>
DB01098

>  <SECONDARY_ACCESSION_NUMBERS>
APRD00546

>  <COMMON_NAME>
Rosuvastatin

>  <CAS_NUMBER>
287714-41-4

>  <UNII>
413KH5ZJ73

>  <SYNONYMS>
(3R,5S,6E)-7-(4-(4-fluorophenyl)-6-(1-methylethyl)-2-(ethyl(methylsulfonyl)amino)-5-pyrimidinyl)-3,5-dihydroxy-6-heptenoic acid; (3R,5S,6E)-7-{4-(4-fluorophenyl)-6-isopropyl-2-[methyl(methylsulfonyl)amino]pyrimidin-5-yl}-3,5-dihydroxyhept-6-enoic acid; Rosuvastatin; Rosuvastatina

$$$$
