
 OpenBabel10282417072D

 27 28  0  0  1  0  0  0  0  0999 V2000
    1.6436    0.3570    0.0000 C   0  0  0  0  0  0  0  0  0  0  0  0
    0.2526    0.2537    0.0000 C   0  0  0  0  0  0  0  0  0  0  0  0
    0.9094   -2.4949    0.0000 C   0  0  0  0  0  0  0  0  0  0  0  0
    1.9362   -1.4148    0.0000 C   0  0  0  0  0  0  0  0  0  0  0  0
    1.6411   -2.0402    0.0000 C   0  0  0  0  0  0  0  0  0  0  0  0
    0.5004   -1.3997    0.0000 C   0  0  0  0  0  0  0  0  0  0  0  0
    1.1407   -0.9495    0.0000 C   0  0  2  0  0  0  0  0  0  0  0  0
    0.9807   -0.1341    0.0000 C   0  0  0  0  0  0  0  0  0  0  0  0
    0.9106   -1.6699    0.0000 C   0  0  1  0  0  0  0  0  0  0  0  0
    0.1351   -2.0602    0.0000 N   0  0  0  0  0  0  0  0  0  0  0  0
    1.3902   -0.1631    0.0000 H   0  0  0  0  0  0  0  0  0  0  0  0
    2.6251   -0.0691    0.0000 H   0  0  0  0  0  0  0  0  0  0  0  0
    1.5219    1.4201    0.0000 H   0  0  0  0  0  0  0  0  0  0  0  0
    2.5034    0.9939    0.0000 H   0  0  0  0  0  0  0  0  0  0  0  0
    0.2160    1.3231    0.0000 H   0  0  0  0  0  0  0  0  0  0  0  0
   -0.6552   -0.3127    0.0000 H   0  0  0  0  0  0  0  0  0  0  0  0
   -0.6918    0.7567    0.0000 H   0  0  0  0  0  0  0  0  0  0  0  0
   -0.0180   -3.0286    0.0000 H   0  0  0  0  0  0  0  0  0  0  0  0
    1.8353   -3.0312    0.0000 H   0  0  0  0  0  0  0  0  0  0  0  0
    0.9078   -3.5649    0.0000 H   0  0  0  0  0  0  0  0  0  0  0  0
    2.9583   -1.0983    0.0000 H   0  0  0  0  0  0  0  0  0  0  0  0
    2.0584   -0.3518    0.0000 H   0  0  0  0  0  0  0  0  0  0  0  0
    1.9882   -3.0523    0.0000 H   0  0  0  0  0  0  0  0  0  0  0  0
    0.8339   -2.7425    0.0000 H   0  0  0  0  0  0  0  0  0  0  0  0
   -0.2958   -0.6849    0.0000 H   0  0  0  0  0  0  0  0  0  0  0  0
   -0.5547   -1.5776    0.0000 H   0  0  0  0  0  0  0  0  0  0  0  0
   -0.6000   -2.7673    0.0000 H   0  0  0  0  0  0  0  0  0  0  0  0
  1 12  1  0  0  0  0
  1 13  1  0  0  0  0
  1 14  1  0  0  0  0
  2 15  1  0  0  0  0
  2 16  1  0  0  0  0
  2 17  1  0  0  0  0
  3 18  1  0  0  0  0
  3 19  1  0  0  0  0
  3 20  1  0  0  0  0
  4 21  1  0  0  0  0
  4 22  1  0  0  0  0
  5  4  1  0  0  0  0
  5 23  1  0  0  0  0
  5 24  1  0  0  0  0
  6 25  1  0  0  0  0
  6 26  1  0  0  0  0
  7  4  1  0  0  0  0
  7  6  1  0  0  0  0
  7 11  1  1  0  0  0
  8  1  1  0  0  0  0
  8  2  1  0  0  0  0
  8  7  1  0  0  0  0
  9  3  1  6  0  0  0
  9  5  1  0  0  0  0
  9  8  1  0  0  0  0
 10  6  1  0  0  0  0
 10  9  1  0  0  0  0
 10 27  1  0  0  0  0
M  END
>  <DRUGBANK_ID>
DB02409

>  <SECONDARY_ACCESSION_NUMBERS>
EXPT00106

>  <COMMON_NAME>
(1r,4s)-2-Azabornane

$$$$
