
 OpenBabel10282417072D

 62 65  0  0  0  0  0  0  0  0999 V2000
   -2.7392    1.1791    0.0000 N   0  0  0  0  0  0  0  0  0  0  0  0
   -2.0262    1.5940    0.0000 C   0  0  0  0  0  0  0  0  0  0  0  0
   -1.3103    1.1849    0.0000 C   0  0  0  0  0  0  0  0  0  0  0  0
   -0.5972    1.5999    0.0000 C   0  0  0  0  0  0  0  0  0  0  0  0
    0.1186    1.1907    0.0000 N   0  0  0  0  0  0  0  0  0  0  0  0
    0.1204    0.3652    0.0000 C   0  0  0  0  0  0  0  0  0  0  0  0
    0.8321   -0.0437    0.0000 C   0  0  0  0  0  0  0  0  0  0  0  0
    1.5468    0.3681    0.0000 C   0  0  0  0  0  0  0  0  0  0  0  0
    1.5451    1.1937    0.0000 C   0  0  0  0  0  0  0  0  0  0  0  0
    0.8287    1.6073    0.0000 C   0  0  0  0  0  0  0  0  0  0  0  0
   -4.3053   -0.9919    0.0000 C   0  0  0  0  0  0  0  0  0  0  0  0
   -3.8948   -1.7062    0.0000 C   0  0  0  0  0  0  0  0  0  0  0  0
   -3.0692   -1.7077    0.0000 C   0  0  0  0  0  0  0  0  0  0  0  0
   -2.6561   -0.9893    0.0000 C   0  0  0  0  0  0  0  0  0  0  0  0
   -3.0670   -0.2788    0.0000 C   0  0  0  0  0  0  0  0  0  0  0  0
   -3.8902   -0.2781    0.0000 C   0  0  0  0  0  0  0  0  0  0  0  0
   -4.4086    0.3685    0.0000 S   0  0  0  0  0  0  0  0  0  0  0  0
   -2.5512    0.3699    0.0000 C   0  0  0  0  0  0  0  0  0  0  0  0
   -4.2300    1.1748    0.0000 C   0  0  0  0  0  0  0  0  0  0  0  0
   -3.4855    1.5324    0.0000 C   0  0  0  0  0  0  0  0  0  0  0  0
   -2.0291    2.4210    0.0000 O   0  0  0  0  0  0  0  0  0  0  0  0
    2.2654   -0.0363    0.0000 C   0  0  0  0  0  0  0  0  0  0  0  0
    2.9784    0.3786    0.0000 C   0  0  0  0  0  0  0  0  0  0  0  0
    2.9735    1.2053    0.0000 C   0  0  0  0  0  0  0  0  0  0  0  0
    3.6964   -0.0275    0.0000 C   0  0  0  0  0  0  0  0  0  0  0  0
    4.4086    0.3920    0.0000 C   0  0  0  0  0  0  0  0  0  0  0  0
    4.3983    1.2218    0.0000 C   0  0  0  0  0  0  0  0  0  0  0  0
    3.6797    1.6243    0.0000 C   0  0  0  0  0  0  0  0  0  0  0  0
   -2.6573   -2.4210    0.0000 O   0  0  0  0  0  0  0  0  0  0  0  0
   -1.8333   -2.4210    0.0000 C   0  0  0  0  0  0  0  0  0  0  0  0
   -1.3061    0.1149    0.0000 H   0  0  0  0  0  0  0  0  0  0  0  0
   -0.3817    0.6533    0.0000 H   0  0  0  0  0  0  0  0  0  0  0  0
   -0.6013    2.6699    0.0000 H   0  0  0  0  0  0  0  0  0  0  0  0
   -1.5258    2.1315    0.0000 H   0  0  0  0  0  0  0  0  0  0  0  0
   -0.8051   -0.1718    0.0000 H   0  0  0  0  0  0  0  0  0  0  0  0
   -0.8074    0.8982    0.0000 H   0  0  0  0  0  0  0  0  0  0  0  0
    0.8328   -1.1137    0.0000 H   0  0  0  0  0  0  0  0  0  0  0  0
    1.7587   -0.5788    0.0000 H   0  0  0  0  0  0  0  0  0  0  0  0
    2.4699    0.9091    0.0000 H   0  0  0  0  0  0  0  0  0  0  0  0
    2.4712    1.7297    0.0000 H   0  0  0  0  0  0  0  0  0  0  0  0
    1.5445    2.2637    0.0000 H   0  0  0  0  0  0  0  0  0  0  0  0
    0.8250    2.6773    0.0000 H   0  0  0  0  0  0  0  0  0  0  0  0
    1.7544    2.1439    0.0000 H   0  0  0  0  0  0  0  0  0  0  0  0
   -5.3373   -0.9893    0.0000 H   0  0  0  0  0  0  0  0  0  0  0  0
   -4.4125   -2.5990    0.0000 H   0  0  0  0  0  0  0  0  0  0  0  0
   -1.6241   -0.9880    0.0000 H   0  0  0  0  0  0  0  0  0  0  0  0
   -1.5074    0.1346    0.0000 H   0  0  0  0  0  0  0  0  0  0  0  0
   -1.7971    1.1290    0.0000 H   0  0  0  0  0  0  0  0  0  0  0  0
   -5.0684    1.8397    0.0000 H   0  0  0  0  0  0  0  0  0  0  0  0
   -4.1111    2.2382    0.0000 H   0  0  0  0  0  0  0  0  0  0  0  0
   -3.4885    2.6024    0.0000 H   0  0  0  0  0  0  0  0  0  0  0  0
   -2.5822    2.1060    0.0000 H   0  0  0  0  0  0  0  0  0  0  0  0
    2.2731   -1.1063    0.0000 H   0  0  0  0  0  0  0  0  0  0  0  0
    3.1949   -0.5664    0.0000 H   0  0  0  0  0  0  0  0  0  0  0  0
    2.0752    1.7133    0.0000 H   0  0  0  0  0  0  0  0  0  0  0  0
    3.7055   -1.0595    0.0000 H   0  0  0  0  0  0  0  0  0  0  0  0
    5.3077   -0.1145    0.0000 H   0  0  0  0  0  0  0  0  0  0  0  0
    5.2854    1.7491    0.0000 H   0  0  0  0  0  0  0  0  0  0  0  0
    3.6668    2.6562    0.0000 H   0  0  0  0  0  0  0  0  0  0  0  0
   -1.2983   -3.3476    0.0000 H   0  0  0  0  0  0  0  0  0  0  0  0
   -1.2983   -1.4944    0.0000 H   0  0  0  0  0  0  0  0  0  0  0  0
   -0.7633   -2.4210    0.0000 H   0  0  0  0  0  0  0  0  0  0  0  0
  1 20  1  0  0  0  0
  1  2  1  0  0  0  0
  2 21  2  0  0  0  0
  2  3  1  0  0  0  0
  3  4  1  0  0  0  0
  3 31  1  0  0  0  0
  3 32  1  0  0  0  0
  4  5  1  0  0  0  0
  4 33  1  0  0  0  0
  4 34  1  0  0  0  0
  5 10  1  0  0  0  0
  5  6  1  0  0  0  0
  6  7  1  0  0  0  0
  6 35  1  0  0  0  0
  6 36  1  0  0  0  0
  7  8  1  0  0  0  0
  7 37  1  0  0  0  0
  7 38  1  0  0  0  0
  8  9  1  0  0  0  0
  8 22  1  0  0  0  0
  8 39  1  0  0  0  0
  9 10  1  0  0  0  0
  9 40  1  0  0  0  0
  9 41  1  0  0  0  0
 10 42  1  0  0  0  0
 10 43  1  0  0  0  0
 11 12  1  0  0  0  0
 11 44  1  0  0  0  0
 12 13  2  0  0  0  0
 12 45  1  0  0  0  0
 13 29  1  0  0  0  0
 13 14  1  0  0  0  0
 14 15  2  0  0  0  0
 14 46  1  0  0  0  0
 15 16  1  0  0  0  0
 15 18  1  0  0  0  0
 16 17  1  0  0  0  0
 16 11  2  0  0  0  0
 17 19  1  0  0  0  0
 18  1  1  0  0  0  0
 18 47  1  0  0  0  0
 18 48  1  0  0  0  0
 19 20  1  0  0  0  0
 19 49  1  0  0  0  0
 19 50  1  0  0  0  0
 20 51  1  0  0  0  0
 20 52  1  0  0  0  0
 22 23  1  0  0  0  0
 22 53  1  0  0  0  0
 22 54  1  0  0  0  0
 23 25  1  0  0  0  0
 24 23  2  0  0  0  0
 24 55  1  0  0  0  0
 25 26  2  0  0  0  0
 25 56  1  0  0  0  0
 26 27  1  0  0  0  0
 26 57  1  0  0  0  0
 27 28  2  0  0  0  0
 27 58  1  0  0  0  0
 28 24  1  0  0  0  0
 28 59  1  0  0  0  0
 29 30  1  0  0  0  0
 30 60  1  0  0  0  0
 30 61  1  0  0  0  0
 30 62  1  0  0  0  0
M  END
>  <DRUGBANK_ID>
DB02929

>  <SECONDARY_ACCESSION_NUMBERS>
EXPT01958

>  <COMMON_NAME>
K201 free base

>  <CAS_NUMBER>
145903-06-6

>  <UNII>
EBY0ENK2GQ

$$$$
