ANM
 OpenBabel10282417072D

 38 39  0  0  0  0  0  0  0  0999 V2000
   -1.3709   -1.4853    0.0000 C   0  0  0  0  0  0  0  0  0  0  0  0
    1.1358    0.6557    0.0000 C   0  0  2  0  0  0  0  0  0  0  0  0
    1.8032    0.1708    0.0000 C   0  0  2  0  0  0  0  0  0  0  0  0
    1.5483   -0.6139    0.0000 C   0  0  0  0  0  0  0  0  0  0  0  0
    1.8503    1.8932    0.0000 C   0  0  0  0  0  0  0  0  0  0  0  0
    1.8503    2.7182    0.0000 C   0  0  0  0  0  0  0  0  0  0  0  0
   -2.1555   -1.2304    0.0000 C   0  0  0  0  0  0  0  0  0  0  0  0
   -2.3271   -0.4234    0.0000 C   0  0  0  0  0  0  0  0  0  0  0  0
   -1.7140    0.1286    0.0000 C   0  0  0  0  0  0  0  0  0  0  0  0
   -0.9293   -0.1263    0.0000 C   0  0  0  0  0  0  0  0  0  0  0  0
   -0.7578   -0.9333    0.0000 C   0  0  0  0  0  0  0  0  0  0  0  0
   -2.5971   -2.5894    0.0000 C   0  0  0  0  0  0  0  0  0  0  0  0
   -0.3163    0.4257    0.0000 C   0  0  0  0  0  0  0  0  0  0  0  0
    0.4684    0.1708    0.0000 C   0  0  1  0  0  0  0  0  0  0  0  0
    0.7233   -0.6139    0.0000 N   0  0  0  0  0  0  0  0  0  0  0  0
   -2.7686   -1.7824    0.0000 O   0  0  0  0  0  0  0  0  0  0  0  0
    1.1358    1.4807    0.0000 O   0  0  0  0  0  0  0  0  0  0  0  0
    2.5648    1.4807    0.0000 O   0  0  0  0  0  0  0  0  0  0  0  0
    2.5879    0.4257    0.0000 O   0  0  0  0  0  0  0  0  0  0  0  0
    1.6561    0.9208    0.0000 H   0  0  0  0  0  0  0  0  0  0  0  0
    1.8946    0.7475    0.0000 H   0  0  0  0  0  0  0  0  0  0  0  0
    0.3770    0.7475    0.0000 H   0  0  0  0  0  0  0  0  0  0  0  0
   -1.1563   -2.4947    0.0000 H   0  0  0  0  0  0  0  0  0  0  0  0
    2.1773   -1.4795    0.0000 H   0  0  0  0  0  0  0  0  0  0  0  0
    1.0625   -1.5673    0.0000 H   0  0  0  0  0  0  0  0  0  0  0  0
    2.7769    3.2532    0.0000 H   0  0  0  0  0  0  0  0  0  0  0  0
    0.9237    3.2532    0.0000 H   0  0  0  0  0  0  0  0  0  0  0  0
    1.8503    3.7882    0.0000 H   0  0  0  0  0  0  0  0  0  0  0  0
   -3.3086   -0.1045    0.0000 H   0  0  0  0  0  0  0  0  0  0  0  0
   -1.9286    1.1380    0.0000 H   0  0  0  0  0  0  0  0  0  0  0  0
    0.2237   -1.2522    0.0000 H   0  0  0  0  0  0  0  0  0  0  0  0
   -3.3923   -3.3053    0.0000 H   0  0  0  0  0  0  0  0  0  0  0  0
   -1.5795   -2.9201    0.0000 H   0  0  0  0  0  0  0  0  0  0  0  0
   -2.3747   -3.6360    0.0000 H   0  0  0  0  0  0  0  0  0  0  0  0
   -0.5388    1.4723    0.0000 H   0  0  0  0  0  0  0  0  0  0  0  0
    0.4788    1.1417    0.0000 H   0  0  0  0  0  0  0  0  0  0  0  0
    0.1237   -1.4391    0.0000 H   0  0  0  0  0  0  0  0  0  0  0  0
    3.3087   -0.2234    0.0000 H   0  0  0  0  0  0  0  0  0  0  0  0
  1  7  2  0  0  0  0
  1 11  1  0  0  0  0
  1 23  1  0  0  0  0
  2  3  1  0  0  0  0
  2 14  1  0  0  0  0
  2 17  1  0  0  0  0
  2 20  1  1  0  0  0
  3  4  1  0  0  0  0
  3 19  1  0  0  0  0
  3 21  1  6  0  0  0
  4 15  1  0  0  0  0
  4 24  1  0  0  0  0
  4 25  1  0  0  0  0
  5  6  1  0  0  0  0
  5 17  1  0  0  0  0
  5 18  2  0  0  0  0
  6 26  1  0  0  0  0
  6 27  1  0  0  0  0
  6 28  1  0  0  0  0
  7  8  1  0  0  0  0
  7 16  1  0  0  0  0
  8  9  2  0  0  0  0
  8 29  1  0  0  0  0
  9 10  1  0  0  0  0
  9 30  1  0  0  0  0
 10 11  2  0  0  0  0
 10 13  1  0  0  0  0
 11 31  1  0  0  0  0
 12 16  1  0  0  0  0
 12 32  1  0  0  0  0
 12 33  1  0  0  0  0
 12 34  1  0  0  0  0
 13 35  1  0  0  0  0
 13 36  1  0  0  0  0
 14 13  1  0  0  0  0
 14 15  1  0  0  0  0
 14 22  1  1  0  0  0
 15 37  1  0  0  0  0
 19 38  1  0  0  0  0
M  END
>  <DRUGBANK_ID>
DB07374

>  <COMMON_NAME>
Anisomycin

>  <CAS_NUMBER>
22862-76-6

>  <UNII>
6C74YM2NGI

$$$$
