
 OpenBabel10282417072D

 33 32  0  0  0  0  0  0  0  0999 V2000
   -1.7312    0.0000    0.0000 C   0  0  0  0  0  0  0  0  0  0  0  0
   -1.7312    0.8250    0.0000 P   0  0  0  0  0  0  0  0  0  0  0  0
   -1.7312   -0.8250    0.0000 P   0  0  0  0  0  0  0  0  0  0  0  0
   -0.9437    0.8916    0.0000 O   0  0  0  0  0  0  0  0  0  0  0  0
   -1.7354   -1.6500    0.0000 O   0  0  0  0  0  0  0  0  0  0  0  0
   -2.5562    0.0041    0.0000 O   0  0  0  0  0  0  0  0  0  0  0  0
    2.5562    0.0000    0.0000 N   0  0  0  0  0  0  0  0  0  0  0  0
   -1.7354    1.6499    0.0000 O   0  0  0  0  0  0  0  0  0  0  0  0
   -0.9062   -0.8250    0.0000 O   0  0  0  0  0  0  0  0  0  0  0  0
   -2.5562   -0.8207    0.0000 O   0  0  0  0  0  0  0  0  0  0  0  0
   -2.5562    0.8250    0.0000 O   0  0  0  0  0  0  0  0  0  0  0  0
   -1.0187    0.4124    0.0000 C   0  0  0  0  0  0  0  0  0  0  0  0
    1.8437    0.4124    0.0000 C   0  0  0  0  0  0  0  0  0  0  0  0
   -0.3062    0.0000    0.0000 C   0  0  0  0  0  0  0  0  0  0  0  0
    1.1270    0.0000    0.0000 C   0  0  0  0  0  0  0  0  0  0  0  0
    0.4145    0.4124    0.0000 C   0  0  0  0  0  0  0  0  0  0  0  0
   -3.0370    0.8465    0.0000 H   0  0  0  0  0  0  0  0  0  0  0  0
    2.5551   -1.0200    0.0000 H   0  0  0  0  0  0  0  0  0  0  0  0
    3.4401    0.5090    0.0000 H   0  0  0  0  0  0  0  0  0  0  0  0
   -0.8978    2.1392    0.0000 H   0  0  0  0  0  0  0  0  0  0  0  0
   -0.4212   -1.6650    0.0000 H   0  0  0  0  0  0  0  0  0  0  0  0
   -3.0368    0.0219    0.0000 H   0  0  0  0  0  0  0  0  0  0  0  0
   -3.0412    1.6650    0.0000 H   0  0  0  0  0  0  0  0  0  0  0  0
   -1.0187    1.4824    0.0000 H   0  0  0  0  0  0  0  0  0  0  0  0
   -0.0918    0.9469    0.0000 H   0  0  0  0  0  0  0  0  0  0  0  0
    1.8451    1.4824    0.0000 H   0  0  0  0  0  0  0  0  0  0  0  0
    0.9178    0.9487    0.0000 H   0  0  0  0  0  0  0  0  0  0  0  0
   -0.3088   -1.0700    0.0000 H   0  0  0  0  0  0  0  0  0  0  0  0
    0.6187   -0.5379    0.0000 H   0  0  0  0  0  0  0  0  0  0  0  0
    1.1256   -1.0700    0.0000 H   0  0  0  0  0  0  0  0  0  0  0  0
    0.1997   -0.5339    0.0000 H   0  0  0  0  0  0  0  0  0  0  0  0
    0.4171    1.4824    0.0000 H   0  0  0  0  0  0  0  0  0  0  0  0
   -0.5104    0.9503    0.0000 H   0  0  0  0  0  0  0  0  0  0  0  0
  2  1  1  0  0  0  0
  3  1  1  0  0  0  0
  4  2  2  0  0  0  0
  5  3  2  0  0  0  0
  6  1  1  0  0  0  0
  6 17  1  0  0  0  0
  7 13  1  0  0  0  0
  7 18  1  0  0  0  0
  7 19  1  0  0  0  0
  8  2  1  0  0  0  0
  8 20  1  0  0  0  0
  9  3  1  0  0  0  0
  9 21  1  0  0  0  0
 10  3  1  0  0  0  0
 10 22  1  0  0  0  0
 11  2  1  0  0  0  0
 11 23  1  0  0  0  0
 12  1  1  0  0  0  0
 12 24  1  0  0  0  0
 12 25  1  0  0  0  0
 13 15  1  0  0  0  0
 13 26  1  0  0  0  0
 13 27  1  0  0  0  0
 14 12  1  0  0  0  0
 14 28  1  0  0  0  0
 14 29  1  0  0  0  0
 15 16  1  0  0  0  0
 15 30  1  0  0  0  0
 15 31  1  0  0  0  0
 16 14  1  0  0  0  0
 16 32  1  0  0  0  0
 16 33  1  0  0  0  0
M  END
>  <DRUGBANK_ID>
DB11620

>  <COMMON_NAME>
Neridronic Acid

>  <CAS_NUMBER>
79778-41-9

>  <UNII>
8U27U3RIN4

>  <SYNONYMS>
(6-amino-1-hydroxyhexylidene)diphosphonic acid; Neridronate; Neridronic Acid

$$$$
