
 OpenBabel10282417072D

 22 22  0  0  0  0  0  0  0  0999 V2000
    0.0059   -1.5764    0.0000 C   0  0  0  0  0  0  0  0  0  0  0  0
   -0.3297   -0.8227    0.0000 C   0  0  0  0  0  0  0  0  0  0  0  0
    0.1553   -0.1553    0.0000 N   0  0  0  0  0  0  0  0  0  0  0  0
   -0.0997    0.6294    0.0000 C   0  0  0  0  0  0  0  0  0  0  0  0
   -0.8843    0.8843    0.0000 O   0  0  0  0  0  0  0  0  0  0  0  0
    0.5678    1.1143    0.0000 C   0  0  0  0  0  0  0  0  0  0  0  0
    1.2352    0.6294    0.0000 O   0  0  0  0  0  0  0  0  0  0  0  0
    0.9803   -0.1553    0.0000 C   0  0  0  0  0  0  0  0  0  0  0  0
    1.4652   -0.8227    0.0000 O   0  0  0  0  0  0  0  0  0  0  0  0
    0.1628    1.8330    0.0000 C   0  0  0  0  0  0  0  0  0  0  0  0
    0.9728    1.8330    0.0000 C   0  0  0  0  0  0  0  0  0  0  0  0
   -0.6230   -2.4421    0.0000 H   0  0  0  0  0  0  0  0  0  0  0  0
    1.0700   -1.6882    0.0000 H   0  0  0  0  0  0  0  0  0  0  0  0
    0.4411   -2.5539    0.0000 H   0  0  0  0  0  0  0  0  0  0  0  0
   -1.3938   -0.7108    0.0000 H   0  0  0  0  0  0  0  0  0  0  0  0
   -0.7648    0.1548    0.0000 H   0  0  0  0  0  0  0  0  0  0  0  0
    0.7074    2.7540    0.0000 H   0  0  0  0  0  0  0  0  0  0  0  0
   -0.9071    1.8442    0.0000 H   0  0  0  0  0  0  0  0  0  0  0  0
   -0.3625    2.7652    0.0000 H   0  0  0  0  0  0  0  0  0  0  0  0
    2.0427    1.8442    0.0000 H   0  0  0  0  0  0  0  0  0  0  0  0
    0.4282    2.7540    0.0000 H   0  0  0  0  0  0  0  0  0  0  0  0
    1.4981    2.7652    0.0000 H   0  0  0  0  0  0  0  0  0  0  0  0
  1  2  1  0  0  0  0
  1 12  1  0  0  0  0
  1 13  1  0  0  0  0
  1 14  1  0  0  0  0
  2  3  1  0  0  0  0
  2 15  1  0  0  0  0
  2 16  1  0  0  0  0
  3  4  1  0  0  0  0
  3  8  1  0  0  0  0
  4  5  2  0  0  0  0
  4  6  1  0  0  0  0
  6  7  1  0  0  0  0
  6 10  1  0  0  0  0
  6 11  1  0  0  0  0
  7  8  1  0  0  0  0
  8  9  2  0  0  0  0
 10 17  1  0  0  0  0
 10 18  1  0  0  0  0
 10 19  1  0  0  0  0
 11 20  1  0  0  0  0
 11 21  1  0  0  0  0
 11 22  1  0  0  0  0
M  END
>  <DRUGBANK_ID>
DB13799

>  <COMMON_NAME>
Ethadione

>  <CAS_NUMBER>
520-77-4

>  <UNII>
I0F8O700BB

$$$$
