
 OpenBabel10282417072D

 31 30  0  0  1  0  0  0  0  0999 V2000
    1.9520   -1.7309    0.0000 C   0  0  0  0  0  0  0  0  0  0  0  0
   -0.6039    0.0000    0.0000 C   0  0  0  0  0  0  0  0  0  0  0  0
    1.5395   -1.0164    0.0000 C   0  0  0  0  0  0  0  0  0  0  0  0
    0.1105    0.4125    0.0000 C   0  0  0  0  0  0  0  0  0  0  0  0
    1.5395    1.8414    0.0000 C   0  0  0  0  0  0  0  0  0  0  0  0
    1.1270    2.5559    0.0000 C   0  0  1  0  0  0  0  0  0  0  0  0
    1.5395    3.2704    0.0000 C   0  0  0  0  0  0  0  0  0  0  0  0
    0.3020    2.5559    0.0000 N   0  0  0  0  0  0  0  0  0  0  0  0
    1.1270    3.9849    0.0000 O   0  0  0  0  0  0  0  0  0  0  0  0
    2.3645    3.2704    0.0000 O   0  0  0  0  0  0  0  0  0  0  0  0
    2.2539    0.8250    0.0000 O   0  0  0  0  0  0  0  0  0  0  0  0
    1.9520   -0.3020    0.0000 O   0  0  0  0  0  0  0  0  0  0  0  0
    0.8250    0.0000    0.0000 O   0  0  0  0  0  0  0  0  0  0  0  0
    1.1270    1.1270    0.0000 O   0  0  0  0  0  0  0  0  0  0  0  0
    1.5395    0.4125    0.0000 P   0  0  0  0  0  0  0  0  0  0  0  0
    1.9520    2.5559    0.0000 H   0  0  0  0  0  0  0  0  0  0  0  0
    1.4170   -2.6575    0.0000 H   0  0  0  0  0  0  0  0  0  0  0  0
    3.0220   -1.7309    0.0000 H   0  0  0  0  0  0  0  0  0  0  0  0
    2.4870   -2.6576    0.0000 H   0  0  0  0  0  0  0  0  0  0  0  0
   -1.5306    0.5350    0.0000 H   0  0  0  0  0  0  0  0  0  0  0  0
   -0.6039   -1.0700    0.0000 H   0  0  0  0  0  0  0  0  0  0  0  0
   -1.5305   -0.5350    0.0000 H   0  0  0  0  0  0  0  0  0  0  0  0
    0.4695   -1.0164    0.0000 H   0  0  0  0  0  0  0  0  0  0  0  0
    1.0045   -0.0897    0.0000 H   0  0  0  0  0  0  0  0  0  0  0  0
    0.1105    1.4825    0.0000 H   0  0  0  0  0  0  0  0  0  0  0  0
    1.0371    0.9475    0.0000 H   0  0  0  0  0  0  0  0  0  0  0  0
    2.6095    1.8414    0.0000 H   0  0  0  0  0  0  0  0  0  0  0  0
    2.0745    0.9147    0.0000 H   0  0  0  0  0  0  0  0  0  0  0  0
   -0.2080    3.4392    0.0000 H   0  0  0  0  0  0  0  0  0  0  0  0
   -0.2080    1.6726    0.0000 H   0  0  0  0  0  0  0  0  0  0  0  0
    2.8330    2.4589    0.0000 H   0  0  0  0  0  0  0  0  0  0  0  0
  1 17  1  0  0  0  0
  1 18  1  0  0  0  0
  1 19  1  0  0  0  0
  2 20  1  0  0  0  0
  2 21  1  0  0  0  0
  2 22  1  0  0  0  0
  3  1  1  0  0  0  0
  3 23  1  0  0  0  0
  3 24  1  0  0  0  0
  4  2  1  0  0  0  0
  4 25  1  0  0  0  0
  4 26  1  0  0  0  0
  5 27  1  0  0  0  0
  5 28  1  0  0  0  0
  6  5  1  0  0  0  0
  6  8  1  0  0  0  0
  6 16  1  1  0  0  0
  7  6  1  0  0  0  0
  8 29  1  0  0  0  0
  8 30  1  0  0  0  0
  9  7  2  0  0  0  0
 10  7  1  0  0  0  0
 10 31  1  0  0  0  0
 12  3  1  0  0  0  0
 13  4  1  0  0  0  0
 14  5  1  0  0  0  0
 15 11  2  0  0  0  0
 15 12  1  0  0  0  0
 15 13  1  0  0  0  0
 15 14  1  0  0  0  0
M  END
>  <DRUGBANK_ID>
DB02364

>  <SECONDARY_ACCESSION_NUMBERS>
EXPT02876

>  <COMMON_NAME>
2-Amino-3-(Diethoxy-Phosphoryloxy)-Propionic Acid

$$$$
