
 OpenBabel10282417072D

 65 69  0  0  0  0  0  0  0  0999 V2000
    4.8735   -1.6474    0.0000 C   0  0  0  0  0  0  0  0  0  0  0  0
   -0.0757    0.4542    0.0000 C   0  0  0  0  0  0  0  0  0  0  0  0
    2.4689   -2.1303    0.0000 C   0  0  0  0  0  0  0  0  0  0  0  0
    1.6568   -1.9851    0.0000 C   0  0  0  0  0  0  0  0  0  0  0  0
   -0.0868   -1.5703    0.0000 C   0  0  0  0  0  0  0  0  0  0  0  0
   -0.7697   -1.1073    0.0000 C   0  0  0  0  0  0  0  0  0  0  0  0
    3.2523   -0.0930    0.0000 C   0  0  0  0  0  0  0  0  0  0  0  0
    1.6280    0.1973    0.0000 C   0  0  0  0  0  0  0  0  0  0  0  0
    4.0644   -0.2382    0.0000 C   0  0  0  0  0  0  0  0  0  0  0  0
    0.8159    0.3426    0.0000 C   0  0  0  0  0  0  0  0  0  0  0  0
    3.8129   -1.6448    0.0000 C   0  0  0  0  0  0  0  0  0  0  0  0
   -4.2677    1.8533    0.0000 C   0  0  0  0  0  0  0  0  0  0  0  0
   -2.8238    2.1303    0.0000 C   0  0  0  0  0  0  0  0  0  0  0  0
   -3.1949    0.8480    0.0000 C   0  0  0  0  0  0  0  0  0  0  0  0
   -1.8640    0.2235    0.0000 C   0  0  0  0  0  0  0  0  0  0  0  0
   -3.4752    1.6240    0.0000 C   0  0  0  0  0  0  0  0  0  0  0  0
    3.0008   -1.4996    0.0000 C   0  0  2  0  0  0  0  0  0  0  0  0
    2.7205   -0.7237    0.0000 C   0  0  1  0  0  0  0  0  0  0  0  0
    1.9083   -0.5785    0.0000 C   0  0  2  0  0  0  0  0  0  0  0  0
    1.3765   -1.2092    0.0000 C   0  0  2  0  0  0  0  0  0  0  0  0
    0.5644   -1.0640    0.0000 C   0  0  1  0  0  0  0  0  0  0  0  0
   -0.5404   -0.3149    0.0000 C   0  0  2  0  0  0  0  0  0  0  0  0
   -1.0467    0.3364    0.0000 C   0  0  0  0  0  0  0  0  0  0  0  0
    4.3447   -1.0141    0.0000 C   0  0  1  0  0  0  0  0  0  0  0  0
    0.2841   -0.2880    0.0000 C   0  0  2  0  0  0  0  0  0  0  0  0
   -5.0602    2.0826    0.0000 N   0  0  0  0  0  0  0  0  0  0  0  0
   -2.1410    1.6673    0.0000 N   0  0  0  0  0  0  0  0  0  0  0  0
   -2.3703    0.8749    0.0000 N   0  0  0  0  0  0  0  0  0  0  0  0
   -0.7358    1.1006    0.0000 O   0  0  0  0  0  0  0  0  0  0  0  0
    5.0602   -0.6033    0.0000 O   0  0  0  0  0  0  0  0  0  0  0  0
    3.5326   -0.8689    0.0000 H   0  0  0  0  0  0  0  0  0  0  0  0
    2.4402    0.0521    0.0000 H   0  0  0  0  0  0  0  0  0  0  0  0
    1.0962   -0.4333    0.0000 H   0  0  0  0  0  0  0  0  0  0  0  0
    0.8447   -1.8399    0.0000 H   0  0  0  0  0  0  0  0  0  0  0  0
   -0.2280   -0.8347    0.0000 H   0  0  0  0  0  0  0  0  0  0  0  0
   -1.3506   -0.4703    0.0000 H   0  0  0  0  0  0  0  0  0  0  0  0
    4.5051   -2.6520    0.0000 H   0  0  0  0  0  0  0  0  0  0  0  0
    5.9277   -1.4641    0.0000 H   0  0  0  0  0  0  0  0  0  0  0  0
    5.5593   -2.4687    0.0000 H   0  0  0  0  0  0  0  0  0  0  0  0
    0.5248    1.3398    0.0000 H   0  0  0  0  0  0  0  0  0  0  0  0
   -1.1429    0.5314    0.0000 H   0  0  0  0  0  0  0  0  0  0  0  0
   -0.5425    1.4170    0.0000 H   0  0  0  0  0  0  0  0  0  0  0  0
    2.8324   -3.1367    0.0000 H   0  0  0  0  0  0  0  0  0  0  0  0
    3.5222   -2.3187    0.0000 H   0  0  0  0  0  0  0  0  0  0  0  0
    0.9671   -2.8031    0.0000 H   0  0  0  0  0  0  0  0  0  0  0  0
    0.6035   -1.7968    0.0000 H   0  0  0  0  0  0  0  0  0  0  0  0
   -0.0520   -2.6397    0.0000 H   0  0  0  0  0  0  0  0  0  0  0  0
    0.8819   -2.0248    0.0000 H   0  0  0  0  0  0  0  0  0  0  0  0
   -1.7760   -1.4708    0.0000 H   0  0  0  0  0  0  0  0  0  0  0  0
   -1.5505   -0.3757    0.0000 H   0  0  0  0  0  0  0  0  0  0  0  0
    2.8887    0.9133    0.0000 H   0  0  0  0  0  0  0  0  0  0  0  0
    2.1990    0.0953    0.0000 H   0  0  0  0  0  0  0  0  0  0  0  0
    2.3178    1.0153    0.0000 H   0  0  0  0  0  0  0  0  0  0  0  0
    2.6813    0.0090    0.0000 H   0  0  0  0  0  0  0  0  0  0  0  0
    4.7541    0.5798    0.0000 H   0  0  0  0  0  0  0  0  0  0  0  0
    5.1177   -0.4265    0.0000 H   0  0  0  0  0  0  0  0  0  0  0  0
    0.4524    1.3490    0.0000 H   0  0  0  0  0  0  0  0  0  0  0  0
   -0.2374    0.5310    0.0000 H   0  0  0  0  0  0  0  0  0  0  0  0
    4.1765   -2.6511    0.0000 H   0  0  0  0  0  0  0  0  0  0  0  0
    4.8662   -1.8331    0.0000 H   0  0  0  0  0  0  0  0  0  0  0  0
   -2.8573    3.1618    0.0000 H   0  0  0  0  0  0  0  0  0  0  0  0
   -3.7740   -0.0062    0.0000 H   0  0  0  0  0  0  0  0  0  0  0  0
   -2.2672   -0.7676    0.0000 H   0  0  0  0  0  0  0  0  0  0  0  0
   -2.9240    0.0772    0.0000 H   0  0  0  0  0  0  0  0  0  0  0  0
    5.8991   -1.0903    0.0000 H   0  0  0  0  0  0  0  0  0  0  0  0
  1 37  1  0  0  0  0
  1 38  1  0  0  0  0
  1 39  1  0  0  0  0
  2 40  1  0  0  0  0
  2 41  1  0  0  0  0
  2 42  1  0  0  0  0
  3 43  1  0  0  0  0
  3 44  1  0  0  0  0
  4  3  1  0  0  0  0
  4 45  1  0  0  0  0
  4 46  1  0  0  0  0
  5 47  1  0  0  0  0
  5 48  1  0  0  0  0
  6  5  1  0  0  0  0
  6 49  1  0  0  0  0
  6 50  1  0  0  0  0
  7 51  1  0  0  0  0
  7 52  1  0  0  0  0
  8 53  1  0  0  0  0
  8 54  1  0  0  0  0
  9  7  1  0  0  0  0
  9 55  1  0  0  0  0
  9 56  1  0  0  0  0
 10  8  1  0  0  0  0
 10 57  1  0  0  0  0
 10 58  1  0  0  0  0
 11 59  1  0  0  0  0
 11 60  1  0  0  0  0
 13 61  1  0  0  0  0
 14 62  1  0  0  0  0
 15 63  1  0  0  0  0
 15 64  1  0  0  0  0
 16 12  1  0  0  0  0
 16 13  1  0  0  0  0
 16 14  2  0  0  0  0
 17  3  1  0  0  0  0
 17 11  1  0  0  0  0
 17 31  1  6  0  0  0
 18  7  1  0  0  0  0
 18 17  1  0  0  0  0
 18 19  1  0  0  0  0
 18 32  1  6  0  0  0
 19  8  1  0  0  0  0
 19 20  1  0  0  0  0
 19 33  1  1  0  0  0
 20  4  1  0  0  0  0
 20 21  1  0  0  0  0
 20 34  1  6  0  0  0
 21  5  1  0  0  0  0
 21 25  1  0  0  0  0
 21 35  1  1  0  0  0
 22  6  1  0  0  0  0
 22 23  1  0  0  0  0
 22 36  1  1  0  0  0
 23 15  1  0  0  0  0
 24  1  1  0  0  0  0
 24  9  1  0  0  0  0
 24 11  1  0  0  0  0
 24 30  1  1  0  0  0
 25  2  1  6  0  0  0
 25 10  1  0  0  0  0
 25 22  1  0  0  0  0
 26 12  3  0  0  0  0
 27 13  2  0  0  0  0
 28 14  1  0  0  0  0
 28 15  1  0  0  0  0
 28 27  1  0  0  0  0
 29 23  2  0  0  0  0
 30 65  1  0  0  0  0
M  END
>  <DRUGBANK_ID>
DB15490

>  <COMMON_NAME>
Zuranolone

>  <CAS_NUMBER>
1632051-40-1

>  <UNII>
7ZW49N180B

>  <SYNONYMS>
Zuranolone

$$$$
