FR4
 OpenBabel10282417072D

 60 63  0  0  0  0  0  0  0  0999 V2000
   -3.3771    1.2095    0.0000 C   0  0  0  0  0  0  0  0  0  0  0  0
   -3.0416    0.4558    0.0000 N   0  0  0  0  0  0  0  0  0  0  0  0
   -3.6547   -0.0962    0.0000 C   0  0  0  0  0  0  0  0  0  0  0  0
   -4.3691    0.3163    0.0000 N   0  0  0  0  0  0  0  0  0  0  0  0
   -4.1976    1.1232    0.0000 C   0  0  0  0  0  0  0  0  0  0  0  0
   -4.7497    1.7363    0.0000 C   0  0  0  0  0  0  0  0  0  0  0  0
   -5.5566    1.5648    0.0000 O   0  0  0  0  0  0  0  0  0  0  0  0
   -4.4947    2.5209    0.0000 N   0  0  0  0  0  0  0  0  0  0  0  0
   -2.2346    0.2843    0.0000 C   0  0  1  0  0  0  0  0  0  0  0  0
   -1.6826    0.8974    0.0000 C   0  0  0  0  0  0  0  0  0  0  0  0
   -0.8756    0.7258    0.0000 O   0  0  0  0  0  0  0  0  0  0  0  0
   -1.9797   -0.5004    0.0000 C   0  0  0  0  0  0  0  0  0  0  0  0
   -1.1727   -0.6719    0.0000 C   0  0  0  0  0  0  0  0  0  0  0  0
   -0.9178   -1.4565    0.0000 N   0  0  0  0  0  0  0  0  0  0  0  0
   -1.4027   -2.1239    0.0000 C   0  0  0  0  0  0  0  0  0  0  0  0
   -0.9178   -2.7914    0.0000 C   0  0  0  0  0  0  0  0  0  0  0  0
   -0.1331   -2.5364    0.0000 C   0  0  0  0  0  0  0  0  0  0  0  0
   -0.1331   -1.7114    0.0000 C   0  0  0  0  0  0  0  0  0  0  0  0
    0.5813   -2.9489    0.0000 C   0  0  0  0  0  0  0  0  0  0  0  0
    1.2958   -2.5364    0.0000 C   0  0  0  0  0  0  0  0  0  0  0  0
    1.2958   -1.7114    0.0000 C   0  0  0  0  0  0  0  0  0  0  0  0
    0.5813   -1.2989    0.0000 C   0  0  0  0  0  0  0  0  0  0  0  0
    2.0103   -1.2989    0.0000 N   0  0  0  0  0  0  0  0  0  0  0  0
    2.0103   -0.4739    0.0000 C   0  0  0  0  0  0  0  0  0  0  0  0
    1.2958   -0.0614    0.0000 O   0  0  0  0  0  0  0  0  0  0  0  0
    2.7247   -0.0614    0.0000 C   0  0  0  0  0  0  0  0  0  0  0  0
    2.7247    0.7636    0.0000 C   0  0  0  0  0  0  0  0  0  0  0  0
    4.1537    0.7636    0.0000 C   0  0  0  0  0  0  0  0  0  0  0  0
    3.4392    1.1761    0.0000 C   0  0  0  0  0  0  0  0  0  0  0  0
    3.4392    2.0011    0.0000 C   0  0  0  0  0  0  0  0  0  0  0  0
    4.1537    2.4136    0.0000 C   0  0  0  0  0  0  0  0  0  0  0  0
    4.8682    2.0011    0.0000 C   0  0  0  0  0  0  0  0  0  0  0  0
    4.8682    1.1761    0.0000 C   0  0  0  0  0  0  0  0  0  0  0  0
   -2.4151    0.8396    0.0000 H   0  0  0  0  0  0  0  0  0  0  0  0
   -2.8611    2.1032    0.0000 H   0  0  0  0  0  0  0  0  0  0  0  0
   -3.5469   -1.1226    0.0000 H   0  0  0  0  0  0  0  0  0  0  0  0
   -3.5317    2.7255    0.0000 H   0  0  0  0  0  0  0  0  0  0  0  0
   -5.1534    3.2526    0.0000 H   0  0  0  0  0  0  0  0  0  0  0  0
   -2.0132    1.9150    0.0000 H   0  0  0  0  0  0  0  0  0  0  0  0
   -0.9666    1.6925    0.0000 H   0  0  0  0  0  0  0  0  0  0  0  0
   -0.5759   -0.1967    0.0000 H   0  0  0  0  0  0  0  0  0  0  0  0
   -2.6957   -1.2956    0.0000 H   0  0  0  0  0  0  0  0  0  0  0  0
   -1.6490   -1.5180    0.0000 H   0  0  0  0  0  0  0  0  0  0  0  0
   -0.4567    0.1233    0.0000 H   0  0  0  0  0  0  0  0  0  0  0  0
   -0.1261   -0.8944    0.0000 H   0  0  0  0  0  0  0  0  0  0  0  0
   -2.4347   -2.1239    0.0000 H   0  0  0  0  0  0  0  0  0  0  0  0
   -1.2367   -3.7729    0.0000 H   0  0  0  0  0  0  0  0  0  0  0  0
    0.5813   -3.9809    0.0000 H   0  0  0  0  0  0  0  0  0  0  0  0
    2.1895   -3.0524    0.0000 H   0  0  0  0  0  0  0  0  0  0  0  0
    0.5813   -0.2669    0.0000 H   0  0  0  0  0  0  0  0  0  0  0  0
    2.8629   -1.7912    0.0000 H   0  0  0  0  0  0  0  0  0  0  0  0
    3.6514   -0.5964    0.0000 H   0  0  0  0  0  0  0  0  0  0  0  0
    3.6513    0.4736    0.0000 H   0  0  0  0  0  0  0  0  0  0  0  0
    1.7981    1.2986    0.0000 H   0  0  0  0  0  0  0  0  0  0  0  0
    2.7247    1.8336    0.0000 H   0  0  0  0  0  0  0  0  0  0  0  0
    4.1537   -0.2684    0.0000 H   0  0  0  0  0  0  0  0  0  0  0  0
    2.5455    2.5171    0.0000 H   0  0  0  0  0  0  0  0  0  0  0  0
    4.1537    3.4456    0.0000 H   0  0  0  0  0  0  0  0  0  0  0  0
    5.7619    2.5171    0.0000 H   0  0  0  0  0  0  0  0  0  0  0  0
    5.7619    0.6601    0.0000 H   0  0  0  0  0  0  0  0  0  0  0  0
  1  2  1  0  0  0  0
  1  5  2  0  0  0  0
  1 35  1  0  0  0  0
  2  3  1  0  0  0  0
  3  4  2  0  0  0  0
  3 36  1  0  0  0  0
  4  5  1  0  0  0  0
  5  6  1  0  0  0  0
  6  7  2  0  0  0  0
  6  8  1  0  0  0  0
  8 37  1  0  0  0  0
  8 38  1  0  0  0  0
  9  2  1  0  0  0  0
  9 10  1  0  0  0  0
  9 12  1  0  0  0  0
  9 34  1  6  0  0  0
 10 11  1  0  0  0  0
 10 39  1  0  0  0  0
 10 40  1  0  0  0  0
 11 41  1  0  0  0  0
 12 13  1  0  0  0  0
 12 42  1  0  0  0  0
 12 43  1  0  0  0  0
 13 14  1  0  0  0  0
 13 44  1  0  0  0  0
 13 45  1  0  0  0  0
 14 15  1  0  0  0  0
 14 18  1  0  0  0  0
 15 16  2  0  0  0  0
 15 46  1  0  0  0  0
 16 17  1  0  0  0  0
 16 47  1  0  0  0  0
 17 18  2  0  0  0  0
 17 19  1  0  0  0  0
 18 22  1  0  0  0  0
 19 20  2  0  0  0  0
 19 48  1  0  0  0  0
 20 21  1  0  0  0  0
 20 49  1  0  0  0  0
 21 22  2  0  0  0  0
 21 23  1  0  0  0  0
 22 50  1  0  0  0  0
 23 24  1  0  0  0  0
 23 51  1  0  0  0  0
 24 25  2  0  0  0  0
 24 26  1  0  0  0  0
 26 27  1  0  0  0  0
 26 52  1  0  0  0  0
 26 53  1  0  0  0  0
 27 29  1  0  0  0  0
 27 54  1  0  0  0  0
 27 55  1  0  0  0  0
 28 29  2  0  0  0  0
 28 33  1  0  0  0  0
 28 56  1  0  0  0  0
 29 30  1  0  0  0  0
 30 31  2  0  0  0  0
 30 57  1  0  0  0  0
 31 32  1  0  0  0  0
 31 58  1  0  0  0  0
 32 33  2  0  0  0  0
 32 59  1  0  0  0  0
 33 60  1  0  0  0  0
M  END
>  <DRUGBANK_ID>
DB07783

>  <COMMON_NAME>
1-((1R)-1-(HYDROXYMETHYL)-3-{6-[(3-PHENYLPROPANOYL)AMINO]-1H-INDOL-1-YL}PROPYL)-1H-IMIDAZOLE-4-CARBOXAMIDE

$$$$
