BAI
 OpenBabel10282417072D

 36 39  0  0  0  0  0  0  0  0999 V2000
   -0.5212   -1.7438    0.0000 C   0  0  0  0  0  0  0  0  0  0  0  0
   -1.2357   -1.3313    0.0000 C   0  0  0  0  0  0  0  0  0  0  0  0
   -1.2357   -0.5063    0.0000 C   0  0  0  0  0  0  0  0  0  0  0  0
   -0.5212   -0.0938    0.0000 C   0  0  0  0  0  0  0  0  0  0  0  0
    0.1933   -0.5063    0.0000 C   0  0  0  0  0  0  0  0  0  0  0  0
    0.1933   -1.3313    0.0000 C   0  0  0  0  0  0  0  0  0  0  0  0
   -0.5212   -2.5688    0.0000 C   0  0  0  0  0  0  0  0  0  0  0  0
    0.4708    0.7994    0.0000 C   0  0  0  0  0  0  0  0  0  0  0  0
    0.8833    1.5139    0.0000 C   0  0  0  0  0  0  0  0  0  0  0  0
   -1.2357   -2.9813    0.0000 N   0  0  0  0  0  0  0  0  0  0  0  0
    0.1933   -2.9813    0.0000 N   0  0  0  0  0  0  0  0  0  0  0  0
   -0.3497    0.7132    0.0000 N   0  0  0  0  0  0  0  0  0  0  0  0
    0.8064    0.0457    0.0000 N   0  0  0  0  0  0  0  0  0  0  0  0
    4.4068    1.9264    0.0000 C   0  0  0  0  0  0  0  0  0  0  0  0
    4.4068    1.1014    0.0000 C   0  0  0  0  0  0  0  0  0  0  0  0
    3.6923    0.6889    0.0000 C   0  0  0  0  0  0  0  0  0  0  0  0
    2.9778    1.1014    0.0000 C   0  0  0  0  0  0  0  0  0  0  0  0
    2.9778    1.9264    0.0000 C   0  0  0  0  0  0  0  0  0  0  0  0
    3.6923    2.3389    0.0000 C   0  0  0  0  0  0  0  0  0  0  0  0
    1.7083    1.5139    0.0000 C   0  0  0  0  0  0  0  0  0  0  0  0
    2.1932    0.8464    0.0000 N   0  0  0  0  0  0  0  0  0  0  0  0
    2.1932    2.1813    0.0000 N   0  0  0  0  0  0  0  0  0  0  0  0
   -2.1294   -1.8473    0.0000 H   0  0  0  0  0  0  0  0  0  0  0  0
   -2.1294    0.0097    0.0000 H   0  0  0  0  0  0  0  0  0  0  0  0
    1.0870   -1.8473    0.0000 H   0  0  0  0  0  0  0  0  0  0  0  0
    0.3483    2.4405    0.0000 H   0  0  0  0  0  0  0  0  0  0  0  0
    1.4183    2.4405    0.0000 H   0  0  0  0  0  0  0  0  0  0  0  0
   -2.0883   -2.4890    0.0000 H   0  0  0  0  0  0  0  0  0  0  0  0
   -1.2357   -3.9658    0.0000 H   0  0  0  0  0  0  0  0  0  0  0  0
    0.1933   -3.9658    0.0000 H   0  0  0  0  0  0  0  0  0  0  0  0
   -1.0085    1.4448    0.0000 H   0  0  0  0  0  0  0  0  0  0  0  0
    5.3005    2.4424    0.0000 H   0  0  0  0  0  0  0  0  0  0  0  0
    5.3005    0.5854    0.0000 H   0  0  0  0  0  0  0  0  0  0  0  0
    3.6923   -0.3431    0.0000 H   0  0  0  0  0  0  0  0  0  0  0  0
    3.6923    3.3709    0.0000 H   0  0  0  0  0  0  0  0  0  0  0  0
    1.8890   -0.0899    0.0000 H   0  0  0  0  0  0  0  0  0  0  0  0
  1  2  1  0  0  0  0
  1  6  2  0  0  0  0
  1  7  1  0  0  0  0
  2  3  2  0  0  0  0
  2 23  1  0  0  0  0
  3  4  1  0  0  0  0
  3 24  1  0  0  0  0
  4  5  2  0  0  0  0
  4 12  1  0  0  0  0
  5  6  1  0  0  0  0
  5 13  1  0  0  0  0
  6 25  1  0  0  0  0
  7 10  1  0  0  0  0
  7 11  2  0  0  0  0
  8  9  1  0  0  0  0
  8 12  1  0  0  0  0
  8 13  2  0  0  0  0
  9 20  1  0  0  0  0
  9 26  1  0  0  0  0
  9 27  1  0  0  0  0
 10 28  1  0  0  0  0
 10 29  1  0  0  0  0
 11 30  1  0  0  0  0
 12 31  1  0  0  0  0
 14 15  1  0  0  0  0
 14 19  2  0  0  0  0
 14 32  1  0  0  0  0
 15 16  2  0  0  0  0
 15 33  1  0  0  0  0
 16 17  1  0  0  0  0
 16 34  1  0  0  0  0
 17 18  2  0  0  0  0
 17 21  1  0  0  0  0
 18 19  1  0  0  0  0
 18 22  1  0  0  0  0
 19 35  1  0  0  0  0
 20 21  1  0  0  0  0
 20 22  2  0  0  0  0
 21 36  1  0  0  0  0
M  END
>  <DRUGBANK_ID>
DB01767

>  <SECONDARY_ACCESSION_NUMBERS>
EXPT00622

>  <COMMON_NAME>
Hemi-Babim

$$$$
