
 OpenBabel10282417072D

 28 29  0  0  0  0  0  0  0  0999 V2000
   -2.3312    0.1673    0.0000 C   0  0  0  0  0  0  0  0  0  0  0  0
   -2.3312   -0.6577    0.0000 C   0  0  0  0  0  0  0  0  0  0  0  0
   -1.6167   -1.0703    0.0000 C   0  0  0  0  0  0  0  0  0  0  0  0
   -0.9021   -0.6577    0.0000 C   0  0  0  0  0  0  0  0  0  0  0  0
   -0.9021    0.1673    0.0000 C   0  0  0  0  0  0  0  0  0  0  0  0
   -1.6167    0.5798    0.0000 C   0  0  0  0  0  0  0  0  0  0  0  0
   -1.6167   -1.8952    0.0000 C   0  0  0  0  0  0  0  0  0  0  0  0
   -0.1765    0.5863    0.0000 N   0  0  0  0  0  0  0  0  0  0  0  0
    0.6028    0.3380    0.0000 C   0  0  0  0  0  0  0  0  0  0  0  0
    1.0810    1.0029    0.0000 C   0  0  3  0  0  0  0  0  0  0  0  0
    0.5965    1.6633    0.0000 O   0  0  0  0  0  0  0  0  0  0  0  0
   -0.1812    1.4065    0.0000 C   0  0  0  0  0  0  0  0  0  0  0  0
   -0.8607    1.8952    0.0000 O   0  0  0  0  0  0  0  0  0  0  0  0
    1.9197    1.0068    0.0000 C   0  0  0  0  0  0  0  0  0  0  0  0
    2.3312    0.3018    0.0000 O   0  0  0  0  0  0  0  0  0  0  0  0
   -3.2249    0.6833    0.0000 H   0  0  0  0  0  0  0  0  0  0  0  0
   -3.2250   -1.1737    0.0000 H   0  0  0  0  0  0  0  0  0  0  0  0
   -0.0084   -1.1737    0.0000 H   0  0  0  0  0  0  0  0  0  0  0  0
   -1.6167    1.6118    0.0000 H   0  0  0  0  0  0  0  0  0  0  0  0
   -2.5433   -2.4302    0.0000 H   0  0  0  0  0  0  0  0  0  0  0  0
   -0.6901   -2.4302    0.0000 H   0  0  0  0  0  0  0  0  0  0  0  0
   -1.6167   -2.9652    0.0000 H   0  0  0  0  0  0  0  0  0  0  0  0
    0.9388   -0.6779    0.0000 H   0  0  0  0  0  0  0  0  0  0  0  0
    1.6605    0.1759    0.0000 H   0  0  0  0  0  0  0  0  0  0  0  0
    0.0110    0.9978    0.0000 H   0  0  0  0  0  0  0  0  0  0  0  0
    2.4503    1.9359    0.0000 H   0  0  0  0  0  0  0  0  0  0  0  0
    2.9897    1.0118    0.0000 H   0  0  0  0  0  0  0  0  0  0  0  0
    1.8502   -0.5405    0.0000 H   0  0  0  0  0  0  0  0  0  0  0  0
  1  2  2  0  0  0  0
  1  6  1  0  0  0  0
  1 16  1  0  0  0  0
  2  3  1  0  0  0  0
  2 17  1  0  0  0  0
  3  4  2  0  0  0  0
  3  7  1  0  0  0  0
  4  5  1  0  0  0  0
  4 18  1  0  0  0  0
  5  6  2  0  0  0  0
  5  8  1  0  0  0  0
  6 19  1  0  0  0  0
  7 20  1  0  0  0  0
  7 21  1  0  0  0  0
  7 22  1  0  0  0  0
  8  9  1  0  0  0  0
  8 12  1  0  0  0  0
  9 10  1  0  0  0  0
  9 23  1  0  0  0  0
  9 24  1  0  0  0  0
 10 11  1  0  0  0  0
 10 14  1  0  0  0  0
 10 25  1  0  0  0  0
 11 12  1  0  0  0  0
 12 13  2  0  0  0  0
 14 15  1  0  0  0  0
 14 26  1  0  0  0  0
 14 27  1  0  0  0  0
 15 28  1  0  0  0  0
M  END
>  <DRUGBANK_ID>
DB09245

>  <COMMON_NAME>
Toloxatone

>  <CAS_NUMBER>
29218-27-7

>  <UNII>
5T206015T5

>  <SYNONYMS>
Toloxatone

$$$$
