
 OpenBabel10282417072D

 42 44  0  0  0  0  0  0  0  0999 V2000
   -0.2849    0.1127    0.0000 C   0  0  0  0  0  0  0  0  0  0  0  0
   -1.0009    0.4396    0.0000 C   0  0  0  0  0  0  0  0  0  0  0  0
    0.4175    0.4396    0.0000 C   0  0  0  0  0  0  0  0  0  0  0  0
   -0.7224    1.9553    0.0000 S   0  0  0  0  0  0  0  0  0  0  0  0
   -1.2130    1.2615    0.0000 C   0  0  0  0  0  0  0  0  0  0  0  0
   -0.2849   -0.7092    0.0000 C   0  0  0  0  0  0  0  0  0  0  0  0
    0.6517    1.2925    0.0000 C   0  0  0  0  0  0  0  0  0  0  0  0
    0.1790    1.9553    0.0000 C   0  0  0  0  0  0  0  0  0  0  0  0
    1.8626   -1.1334    0.0000 N   0  0  0  0  0  0  0  0  0  0  0  0
    0.4441   -1.1334    0.0000 C   0  0  0  0  0  0  0  0  0  0  0  0
    1.0097   -0.1171    0.0000 C   0  0  0  0  0  0  0  0  0  0  0  0
   -1.5974   -0.1392    0.0000 C   0  0  0  0  0  0  0  0  0  0  0  0
    1.1555   -0.7269    0.0000 C   0  0  0  0  0  0  0  0  0  0  0  0
   -2.0129    1.4782    0.0000 C   0  0  0  0  0  0  0  0  0  0  0  0
    1.4339    1.5002    0.0000 C   0  0  0  0  0  0  0  0  0  0  0  0
    2.5917   -0.7269    0.0000 C   0  0  0  0  0  0  0  0  0  0  0  0
    1.8626   -1.9553    0.0000 C   0  0  0  0  0  0  0  0  0  0  0  0
    1.7963    0.0994    0.0000 C   0  0  0  0  0  0  0  0  0  0  0  0
   -2.3840    0.0861    0.0000 C   0  0  0  0  0  0  0  0  0  0  0  0
   -2.5917    0.8903    0.0000 C   0  0  0  0  0  0  0  0  0  0  0  0
    2.0172    0.9036    0.0000 C   0  0  0  0  0  0  0  0  0  0  0  0
   -1.1795   -1.2237    0.0000 H   0  0  0  0  0  0  0  0  0  0  0  0
    0.6690    2.9065    0.0000 H   0  0  0  0  0  0  0  0  0  0  0  0
   -0.3781    2.8689    0.0000 H   0  0  0  0  0  0  0  0  0  0  0  0
    0.4399   -2.2034    0.0000 H   0  0  0  0  0  0  0  0  0  0  0  0
    1.3685   -1.6723    0.0000 H   0  0  0  0  0  0  0  0  0  0  0  0
    0.7614   -1.1188    0.0000 H   0  0  0  0  0  0  0  0  0  0  0  0
   -1.3464   -1.1402    0.0000 H   0  0  0  0  0  0  0  0  0  0  0  0
    1.1569    0.3431    0.0000 H   0  0  0  0  0  0  0  0  0  0  0  0
    0.2304   -0.1892    0.0000 H   0  0  0  0  0  0  0  0  0  0  0  0
   -2.2825    2.4744    0.0000 H   0  0  0  0  0  0  0  0  0  0  0  0
    1.7077    2.4952    0.0000 H   0  0  0  0  0  0  0  0  0  0  0  0
    3.5102   -1.2757    0.0000 H   0  0  0  0  0  0  0  0  0  0  0  0
    2.6077    0.3430    0.0000 H   0  0  0  0  0  0  0  0  0  0  0  0
    3.5263   -0.2058    0.0000 H   0  0  0  0  0  0  0  0  0  0  0  0
    0.9360   -2.4903    0.0000 H   0  0  0  0  0  0  0  0  0  0  0  0
    2.7892   -2.4903    0.0000 H   0  0  0  0  0  0  0  0  0  0  0  0
    1.8626   -3.0253    0.0000 H   0  0  0  0  0  0  0  0  0  0  0  0
    2.5262   -0.6301    0.0000 H   0  0  0  0  0  0  0  0  0  0  0  0
   -3.1232   -0.6340    0.0000 H   0  0  0  0  0  0  0  0  0  0  0  0
   -3.5884    1.1580    0.0000 H   0  0  0  0  0  0  0  0  0  0  0  0
    3.0163    1.1619    0.0000 H   0  0  0  0  0  0  0  0  0  0  0  0
  2  1  1  0  0  0  0
  3  1  1  0  0  0  0
  4  5  1  0  0  0  0
  4  8  1  0  0  0  0
  5  2  1  0  0  0  0
  6  1  2  0  0  0  0
  6 22  1  0  0  0  0
  7  3  1  0  0  0  0
  8  7  1  0  0  0  0
  8 23  1  0  0  0  0
  8 24  1  0  0  0  0
  9 13  1  0  0  0  0
 10  6  1  0  0  0  0
 10 25  1  0  0  0  0
 10 26  1  0  0  0  0
 11  3  2  0  0  0  0
 11 27  1  0  0  0  0
 12  2  2  0  0  0  0
 12 28  1  0  0  0  0
 13 10  1  0  0  0  0
 13 29  1  0  0  0  0
 13 30  1  0  0  0  0
 14  5  2  0  0  0  0
 14 31  1  0  0  0  0
 15  7  2  0  0  0  0
 15 32  1  0  0  0  0
 16  9  1  0  0  0  0
 16 33  1  0  0  0  0
 16 34  1  0  0  0  0
 16 35  1  0  0  0  0
 17  9  1  0  0  0  0
 17 36  1  0  0  0  0
 17 37  1  0  0  0  0
 17 38  1  0  0  0  0
 18 11  1  0  0  0  0
 18 39  1  0  0  0  0
 19 12  1  0  0  0  0
 19 40  1  0  0  0  0
 20 19  2  0  0  0  0
 20 14  1  0  0  0  0
 20 41  1  0  0  0  0
 21 18  2  0  0  0  0
 21 15  1  0  0  0  0
 21 42  1  0  0  0  0
M  END
>  <DRUGBANK_ID>
DB09167

>  <COMMON_NAME>
Dosulepin

>  <CAS_NUMBER>
113-53-1

>  <UNII>
W13O82Z7HL

>  <SYNONYMS>
(3E)-3-dibenzo[b,e]thiepin-11(6H)-ylidene-N,N-dimethylpropan-1-amine; 11-(3-Dimethylaminopropylidene)-6,11-dihydrodibenzo(b,e)thiepin; Dosulepin; Dosulepina; Dosul√©pine; Dosulepinum; Dothiepin; trans-dothiepin

$$$$
