
 OpenBabel10282417072D

139138  0  0  1  0  0  0  0  0999 V2000
    9.2961   -5.7158    0.0000 C   0  0  0  0  0  0  0  0  0  0  0  0
   10.0105   -4.4783    0.0000 C   0  0  0  0  0  0  0  0  0  0  0  0
   34.3025   -5.3033    0.0000 C   0  0  0  0  0  0  0  0  0  0  0  0
   33.5881   -6.5408    0.0000 C   0  0  0  0  0  0  0  0  0  0  0  0
   12.8684   -4.4783    0.0000 C   0  0  0  0  0  0  0  0  0  0  0  0
   30.7302   -6.5408    0.0000 C   0  0  0  0  0  0  0  0  0  0  0  0
   15.7263   -4.4783    0.0000 C   0  0  0  0  0  0  0  0  0  0  0  0
   27.8723   -6.5408    0.0000 C   0  0  0  0  0  0  0  0  0  0  0  0
   18.5842   -4.4783    0.0000 C   0  0  0  0  0  0  0  0  0  0  0  0
   25.0144   -6.5408    0.0000 C   0  0  0  0  0  0  0  0  0  0  0  0
   11.4395   -5.3033    0.0000 C   0  0  0  0  0  0  0  0  0  0  0  0
   32.1591   -5.7158    0.0000 C   0  0  0  0  0  0  0  0  0  0  0  0
   14.2974   -5.3033    0.0000 C   0  0  0  0  0  0  0  0  0  0  0  0
   29.3012   -5.7158    0.0000 C   0  0  0  0  0  0  0  0  0  0  0  0
   17.1552   -5.3033    0.0000 C   0  0  0  0  0  0  0  0  0  0  0  0
   26.4434   -5.7158    0.0000 C   0  0  0  0  0  0  0  0  0  0  0  0
   10.7250   -5.7158    0.0000 C   0  0  0  0  0  0  0  0  0  0  0  0
   32.8736   -5.3033    0.0000 C   0  0  0  0  0  0  0  0  0  0  0  0
   12.1539   -5.7158    0.0000 C   0  0  0  0  0  0  0  0  0  0  0  0
   31.4447   -5.3033    0.0000 C   0  0  0  0  0  0  0  0  0  0  0  0
   13.5829   -5.7158    0.0000 C   0  0  0  0  0  0  0  0  0  0  0  0
   30.0157   -5.3033    0.0000 C   0  0  0  0  0  0  0  0  0  0  0  0
   15.0118   -5.7158    0.0000 C   0  0  0  0  0  0  0  0  0  0  0  0
   28.5868   -5.3033    0.0000 C   0  0  0  0  0  0  0  0  0  0  0  0
   16.4408   -5.7158    0.0000 C   0  0  0  0  0  0  0  0  0  0  0  0
   27.1578   -5.3033    0.0000 C   0  0  0  0  0  0  0  0  0  0  0  0
   17.8697   -5.7158    0.0000 C   0  0  0  0  0  0  0  0  0  0  0  0
   25.7289   -5.3033    0.0000 C   0  0  0  0  0  0  0  0  0  0  0  0
   19.2987   -5.7158    0.0000 C   0  0  0  0  0  0  0  0  0  0  0  0
   24.2999   -5.3033    0.0000 C   0  0  0  0  0  0  0  0  0  0  0  0
   20.0131   -5.3033    0.0000 C   0  0  0  0  0  0  0  0  0  0  0  0
   23.5855   -5.7158    0.0000 C   0  0  0  0  0  0  0  0  0  0  0  0
   21.4421   -5.3033    0.0000 C   0  0  0  0  0  0  0  0  0  0  0  0
   22.1565   -6.5408    0.0000 C   0  0  0  0  0  0  0  0  0  0  0  0
   10.0105   -5.3033    0.0000 C   0  0  0  0  0  0  0  0  0  0  0  0
   33.5881   -5.7158    0.0000 C   0  0  0  0  0  0  0  0  0  0  0  0
   12.8684   -5.3033    0.0000 C   0  0  2  0  0  0  0  0  0  0  0  0
   30.7302   -5.7158    0.0000 C   0  0  2  0  0  0  0  0  0  0  0  0
   15.7263   -5.3033    0.0000 C   0  0  2  0  0  0  0  0  0  0  0  0
   27.8723   -5.7158    0.0000 C   0  0  2  0  0  0  0  0  0  0  0  0
   18.5842   -5.3033    0.0000 C   0  0  2  0  0  0  0  0  0  0  0  0
   25.0144   -5.7158    0.0000 C   0  0  2  0  0  0  0  0  0  0  0  0
   22.1565   -5.7158    0.0000 C   0  0  1  0  0  0  0  0  0  0  0  0
   22.0460   -7.7783    0.0000 O   0  0  0  0  0  0  0  0  0  0  0  0
   23.6960   -7.7783    0.0000 O   0  0  0  0  0  0  0  0  0  0  0  0
   22.8710   -8.6033    0.0000 O   0  0  0  0  0  0  0  0  0  0  0  0
   20.7276   -5.7158    0.0000 O   0  0  0  0  0  0  0  0  0  0  0  0
   22.8710   -5.3033    0.0000 O   0  0  0  0  0  0  0  0  0  0  0  0
   22.8710   -6.9533    0.0000 O   0  0  0  0  0  0  0  0  0  0  0  0
   22.8710   -7.7783    0.0000 P   0  0  0  0  0  0  0  0  0  0  0  0
   12.1539   -4.8908    0.0000 H   0  0  0  0  0  0  0  0  0  0  0  0
   31.4447   -6.1283    0.0000 H   0  0  0  0  0  0  0  0  0  0  0  0
   15.0118   -4.8908    0.0000 H   0  0  0  0  0  0  0  0  0  0  0  0
   28.5868   -6.1283    0.0000 H   0  0  0  0  0  0  0  0  0  0  0  0
   17.8697   -4.8908    0.0000 H   0  0  0  0  0  0  0  0  0  0  0  0
   25.7289   -6.1283    0.0000 H   0  0  0  0  0  0  0  0  0  0  0  0
   21.4421   -6.1283    0.0000 H   0  0  0  0  0  0  0  0  0  0  0  0
    8.3694   -5.1808    0.0000 H   0  0  0  0  0  0  0  0  0  0  0  0
    9.2961   -6.7858    0.0000 H   0  0  0  0  0  0  0  0  0  0  0  0
    8.3695   -6.2508    0.0000 H   0  0  0  0  0  0  0  0  0  0  0  0
   10.9371   -3.9433    0.0000 H   0  0  0  0  0  0  0  0  0  0  0  0
    9.0839   -3.9433    0.0000 H   0  0  0  0  0  0  0  0  0  0  0  0
   10.0105   -3.4083    0.0000 H   0  0  0  0  0  0  0  0  0  0  0  0
   35.2292   -5.8383    0.0000 H   0  0  0  0  0  0  0  0  0  0  0  0
   34.3025   -4.2333    0.0000 H   0  0  0  0  0  0  0  0  0  0  0  0
   35.2291   -4.7683    0.0000 H   0  0  0  0  0  0  0  0  0  0  0  0
   32.6615   -7.0758    0.0000 H   0  0  0  0  0  0  0  0  0  0  0  0
   34.5147   -7.0758    0.0000 H   0  0  0  0  0  0  0  0  0  0  0  0
   33.5881   -7.6108    0.0000 H   0  0  0  0  0  0  0  0  0  0  0  0
   13.7950   -3.9433    0.0000 H   0  0  0  0  0  0  0  0  0  0  0  0
   11.9418   -3.9433    0.0000 H   0  0  0  0  0  0  0  0  0  0  0  0
   12.8684   -3.4083    0.0000 H   0  0  0  0  0  0  0  0  0  0  0  0
   29.8036   -7.0758    0.0000 H   0  0  0  0  0  0  0  0  0  0  0  0
   31.6568   -7.0758    0.0000 H   0  0  0  0  0  0  0  0  0  0  0  0
   30.7302   -7.6108    0.0000 H   0  0  0  0  0  0  0  0  0  0  0  0
   16.6529   -3.9433    0.0000 H   0  0  0  0  0  0  0  0  0  0  0  0
   14.7997   -3.9433    0.0000 H   0  0  0  0  0  0  0  0  0  0  0  0
   15.7263   -3.4083    0.0000 H   0  0  0  0  0  0  0  0  0  0  0  0
   26.9457   -7.0758    0.0000 H   0  0  0  0  0  0  0  0  0  0  0  0
   28.7989   -7.0758    0.0000 H   0  0  0  0  0  0  0  0  0  0  0  0
   27.8723   -7.6108    0.0000 H   0  0  0  0  0  0  0  0  0  0  0  0
   19.5108   -3.9433    0.0000 H   0  0  0  0  0  0  0  0  0  0  0  0
   17.6576   -3.9433    0.0000 H   0  0  0  0  0  0  0  0  0  0  0  0
   18.5842   -3.4083    0.0000 H   0  0  0  0  0  0  0  0  0  0  0  0
   24.0878   -7.0758    0.0000 H   0  0  0  0  0  0  0  0  0  0  0  0
   25.9410   -7.0758    0.0000 H   0  0  0  0  0  0  0  0  0  0  0  0
   25.0144   -7.6108    0.0000 H   0  0  0  0  0  0  0  0  0  0  0  0
   11.4395   -4.2333    0.0000 H   0  0  0  0  0  0  0  0  0  0  0  0
   12.3662   -4.7683    0.0000 H   0  0  0  0  0  0  0  0  0  0  0  0
   32.1591   -6.7858    0.0000 H   0  0  0  0  0  0  0  0  0  0  0  0
   31.2324   -6.2508    0.0000 H   0  0  0  0  0  0  0  0  0  0  0  0
   14.2974   -4.2333    0.0000 H   0  0  0  0  0  0  0  0  0  0  0  0
   15.2241   -4.7683    0.0000 H   0  0  0  0  0  0  0  0  0  0  0  0
   29.3012   -6.7858    0.0000 H   0  0  0  0  0  0  0  0  0  0  0  0
   28.3745   -6.2508    0.0000 H   0  0  0  0  0  0  0  0  0  0  0  0
   17.1552   -4.2333    0.0000 H   0  0  0  0  0  0  0  0  0  0  0  0
   18.0818   -4.7683    0.0000 H   0  0  0  0  0  0  0  0  0  0  0  0
   26.4434   -6.7858    0.0000 H   0  0  0  0  0  0  0  0  0  0  0  0
   25.5168   -6.2508    0.0000 H   0  0  0  0  0  0  0  0  0  0  0  0
   10.7250   -6.7858    0.0000 H   0  0  0  0  0  0  0  0  0  0  0  0
    9.7984   -6.2508    0.0000 H   0  0  0  0  0  0  0  0  0  0  0  0
   32.8736   -4.2333    0.0000 H   0  0  0  0  0  0  0  0  0  0  0  0
   33.8002   -4.7683    0.0000 H   0  0  0  0  0  0  0  0  0  0  0  0
   12.1539   -6.7858    0.0000 H   0  0  0  0  0  0  0  0  0  0  0  0
   13.0805   -6.2508    0.0000 H   0  0  0  0  0  0  0  0  0  0  0  0
   31.4447   -4.2333    0.0000 H   0  0  0  0  0  0  0  0  0  0  0  0
   30.5181   -4.7683    0.0000 H   0  0  0  0  0  0  0  0  0  0  0  0
   13.5829   -6.7858    0.0000 H   0  0  0  0  0  0  0  0  0  0  0  0
   12.6563   -6.2508    0.0000 H   0  0  0  0  0  0  0  0  0  0  0  0
   30.0157   -4.2333    0.0000 H   0  0  0  0  0  0  0  0  0  0  0  0
   30.9423   -4.7683    0.0000 H   0  0  0  0  0  0  0  0  0  0  0  0
   15.0118   -6.7858    0.0000 H   0  0  0  0  0  0  0  0  0  0  0  0
   15.9384   -6.2508    0.0000 H   0  0  0  0  0  0  0  0  0  0  0  0
   28.5868   -4.2333    0.0000 H   0  0  0  0  0  0  0  0  0  0  0  0
   27.6602   -4.7683    0.0000 H   0  0  0  0  0  0  0  0  0  0  0  0
   16.4408   -6.7858    0.0000 H   0  0  0  0  0  0  0  0  0  0  0  0
   15.5142   -6.2508    0.0000 H   0  0  0  0  0  0  0  0  0  0  0  0
   27.1578   -4.2333    0.0000 H   0  0  0  0  0  0  0  0  0  0  0  0
   28.0844   -4.7683    0.0000 H   0  0  0  0  0  0  0  0  0  0  0  0
   17.8697   -6.7858    0.0000 H   0  0  0  0  0  0  0  0  0  0  0  0
   18.7963   -6.2508    0.0000 H   0  0  0  0  0  0  0  0  0  0  0  0
   25.7289   -4.2333    0.0000 H   0  0  0  0  0  0  0  0  0  0  0  0
   24.8023   -4.7683    0.0000 H   0  0  0  0  0  0  0  0  0  0  0  0
   19.2987   -6.7858    0.0000 H   0  0  0  0  0  0  0  0  0  0  0  0
   18.3721   -6.2508    0.0000 H   0  0  0  0  0  0  0  0  0  0  0  0
   24.2999   -4.2333    0.0000 H   0  0  0  0  0  0  0  0  0  0  0  0
   25.2265   -4.7683    0.0000 H   0  0  0  0  0  0  0  0  0  0  0  0
   20.0131   -4.2333    0.0000 H   0  0  0  0  0  0  0  0  0  0  0  0
   20.9397   -4.7683    0.0000 H   0  0  0  0  0  0  0  0  0  0  0  0
   23.5855   -6.7858    0.0000 H   0  0  0  0  0  0  0  0  0  0  0  0
   22.6589   -6.2508    0.0000 H   0  0  0  0  0  0  0  0  0  0  0  0
   21.4421   -4.2333    0.0000 H   0  0  0  0  0  0  0  0  0  0  0  0
   20.5155   -4.7683    0.0000 H   0  0  0  0  0  0  0  0  0  0  0  0
   21.2299   -7.0758    0.0000 H   0  0  0  0  0  0  0  0  0  0  0  0
   22.1565   -7.6108    0.0000 H   0  0  0  0  0  0  0  0  0  0  0  0
   10.9371   -4.7683    0.0000 H   0  0  0  0  0  0  0  0  0  0  0  0
   32.6615   -6.2508    0.0000 H   0  0  0  0  0  0  0  0  0  0  0  0
   21.5610   -6.9383    0.0000 H   0  0  0  0  0  0  0  0  0  0  0  0
   24.1810   -8.6183    0.0000 H   0  0  0  0  0  0  0  0  0  0  0  0
  1 58  1  0  0  0  0
  1 59  1  0  0  0  0
  1 60  1  0  0  0  0
  2 61  1  0  0  0  0
  2 62  1  0  0  0  0
  2 63  1  0  0  0  0
  3 64  1  0  0  0  0
  3 65  1  0  0  0  0
  3 66  1  0  0  0  0
  4 67  1  0  0  0  0
  4 68  1  0  0  0  0
  4 69  1  0  0  0  0
  5 70  1  0  0  0  0
  5 71  1  0  0  0  0
  5 72  1  0  0  0  0
  6 73  1  0  0  0  0
  6 74  1  0  0  0  0
  6 75  1  0  0  0  0
  7 76  1  0  0  0  0
  7 77  1  0  0  0  0
  7 78  1  0  0  0  0
  8 79  1  0  0  0  0
  8 80  1  0  0  0  0
  8 81  1  0  0  0  0
  9 82  1  0  0  0  0
  9 83  1  0  0  0  0
  9 84  1  0  0  0  0
 10 85  1  0  0  0  0
 10 86  1  0  0  0  0
 10 87  1  0  0  0  0
 11 88  1  0  0  0  0
 11 89  1  0  0  0  0
 12 90  1  0  0  0  0
 12 91  1  0  0  0  0
 13 92  1  0  0  0  0
 13 93  1  0  0  0  0
 14 94  1  0  0  0  0
 14 95  1  0  0  0  0
 15 96  1  0  0  0  0
 15 97  1  0  0  0  0
 16 98  1  0  0  0  0
 16 99  1  0  0  0  0
 17 11  1  0  0  0  0
 17100  1  0  0  0  0
 17101  1  0  0  0  0
 18 12  1  0  0  0  0
 18102  1  0  0  0  0
 18103  1  0  0  0  0
 19 11  1  0  0  0  0
 19104  1  0  0  0  0
 19105  1  0  0  0  0
 20 12  1  0  0  0  0
 20106  1  0  0  0  0
 20107  1  0  0  0  0
 21 13  1  0  0  0  0
 21108  1  0  0  0  0
 21109  1  0  0  0  0
 22 14  1  0  0  0  0
 22110  1  0  0  0  0
 22111  1  0  0  0  0
 23 13  1  0  0  0  0
 23112  1  0  0  0  0
 23113  1  0  0  0  0
 24 14  1  0  0  0  0
 24114  1  0  0  0  0
 24115  1  0  0  0  0
 25 15  1  0  0  0  0
 25116  1  0  0  0  0
 25117  1  0  0  0  0
 26 16  1  0  0  0  0
 26118  1  0  0  0  0
 26119  1  0  0  0  0
 27 15  1  0  0  0  0
 27120  1  0  0  0  0
 27121  1  0  0  0  0
 28 16  1  0  0  0  0
 28122  1  0  0  0  0
 28123  1  0  0  0  0
 29124  1  0  0  0  0
 29125  1  0  0  0  0
 30126  1  0  0  0  0
 30127  1  0  0  0  0
 31 29  1  0  0  0  0
 31128  1  0  0  0  0
 31129  1  0  0  0  0
 32 30  1  0  0  0  0
 32130  1  0  0  0  0
 32131  1  0  0  0  0
 33132  1  0  0  0  0
 33133  1  0  0  0  0
 34134  1  0  0  0  0
 34135  1  0  0  0  0
 35  1  1  0  0  0  0
 35  2  1  0  0  0  0
 35 17  1  0  0  0  0
 35136  1  0  0  0  0
 36  3  1  0  0  0  0
 36  4  1  0  0  0  0
 36 18  1  0  0  0  0
 36137  1  0  0  0  0
 37  5  1  0  0  0  0
 37 19  1  0  0  0  0
 37 21  1  0  0  0  0
 37 51  1  6  0  0  0
 38  6  1  0  0  0  0
 38 20  1  0  0  0  0
 38 22  1  0  0  0  0
 38 52  1  6  0  0  0
 39  7  1  0  0  0  0
 39 23  1  0  0  0  0
 39 25  1  0  0  0  0
 39 53  1  6  0  0  0
 40  8  1  0  0  0  0
 40 24  1  0  0  0  0
 40 26  1  0  0  0  0
 40 54  1  6  0  0  0
 41  9  1  0  0  0  0
 41 27  1  0  0  0  0
 41 29  1  0  0  0  0
 41 55  1  6  0  0  0
 42 10  1  0  0  0  0
 42 28  1  0  0  0  0
 42 30  1  0  0  0  0
 42 56  1  6  0  0  0
 43 33  1  0  0  0  0
 43 34  1  0  0  0  0
 43 48  1  0  0  0  0
 43 57  1  1  0  0  0
 44138  1  0  0  0  0
 45139  1  0  0  0  0
 47 31  1  0  0  0  0
 47 33  1  0  0  0  0
 48 32  1  0  0  0  0
 49 34  1  0  0  0  0
 50 44  1  0  0  0  0
 50 45  1  0  0  0  0
 50 46  2  0  0  0  0
 50 49  1  0  0  0  0
M  END
>  <DRUGBANK_ID>
DB03402

>  <SECONDARY_ACCESSION_NUMBERS>
EXPT01989

>  <COMMON_NAME>
1,2-Di-1-(3,7,11,15-Tetramethyl-Hexadecane)-Sn-Glycero-3-Phosphate

$$$$
