
 OpenBabel10282417072D

 33 30  0  0  0  0  0  0  0  0999 V2000
   -1.0992   -2.0625    0.0000 P   0  0  0  0  0  0  0  0  0  0  0  0
   -1.0992    2.0625    0.0000 P   0  0  0  0  0  0  0  0  0  0  0  0
   -1.8137   -3.3000    0.0000 Na  0  3  0  0  0  0  0  0  0  0  0  0
    0.1382   -2.7770    0.0000 Na  0  3  0  0  0  0  0  0  0  0  0  0
   -1.8137    3.3000    0.0000 Na  0  3  0  0  0  0  0  0  0  0  0  0
    0.1382    2.7770    0.0000 Na  0  3  0  0  0  0  0  0  0  0  0  0
   -0.3848   -1.6500    0.0000 O   0  0  0  0  0  0  0  0  0  0  0  0
   -0.3848    1.6500    0.0000 O   0  0  0  0  0  0  0  0  0  0  0  0
   -1.8137   -2.4750    0.0000 O   0  5  0  0  0  0  0  0  0  0  0  0
   -0.6867   -2.7770    0.0000 O   0  5  0  0  0  0  0  0  0  0  0  0
   -1.5118   -1.3480    0.0000 O   0  0  0  0  0  0  0  0  0  0  0  0
   -1.8137    2.4750    0.0000 O   0  5  0  0  0  0  0  0  0  0  0  0
   -0.6867    2.7770    0.0000 O   0  5  0  0  0  0  0  0  0  0  0  0
   -1.5118    1.3480    0.0000 O   0  0  0  0  0  0  0  0  0  0  0  0
    0.3297   -0.4125    0.0000 C   0  0  0  0  0  0  0  0  0  0  0  0
    0.3297    0.4125    0.0000 C   0  0  0  0  0  0  0  0  0  0  0  0
   -0.3848   -0.8250    0.0000 C   0  0  0  0  0  0  0  0  0  0  0  0
   -1.0992   -0.4125    0.0000 C   0  0  0  0  0  0  0  0  0  0  0  0
   -0.3848    0.8250    0.0000 C   0  0  0  0  0  0  0  0  0  0  0  0
   -1.0992    0.4125    0.0000 C   0  0  0  0  0  0  0  0  0  0  0  0
    1.0672   -0.8536    0.0000 C   0  0  0  0  0  0  0  0  0  0  0  0
    1.0672    0.8536    0.0000 C   0  0  0  0  0  0  0  0  0  0  0  0
   -1.8137   -0.8250    0.0000 C   0  0  0  0  0  0  0  0  0  0  0  0
    1.8147   -0.4296    0.0000 C   0  0  0  0  0  0  0  0  0  0  0  0
    1.8147    0.4296    0.0000 C   0  0  0  0  0  0  0  0  0  0  0  0
   -1.9929    0.9285    0.0000 H   0  0  0  0  0  0  0  0  0  0  0  0
    1.0553   -1.8855    0.0000 H   0  0  0  0  0  0  0  0  0  0  0  0
    1.0553    1.8855    0.0000 H   0  0  0  0  0  0  0  0  0  0  0  0
   -2.7403   -0.2900    0.0000 H   0  0  0  0  0  0  0  0  0  0  0  0
   -1.8137   -1.8950    0.0000 H   0  0  0  0  0  0  0  0  0  0  0  0
   -2.7404   -1.3600    0.0000 H   0  0  0  0  0  0  0  0  0  0  0  0
    2.7065   -0.9490    0.0000 H   0  0  0  0  0  0  0  0  0  0  0  0
    2.7065    0.9490    0.0000 H   0  0  0  0  0  0  0  0  0  0  0  0
  1  7  1  0  0  0  0
  1  9  1  0  0  0  0
  1 10  1  0  0  0  0
  1 11  2  0  0  0  0
  2  8  1  0  0  0  0
  2 12  1  0  0  0  0
  2 13  1  0  0  0  0
  2 14  2  0  0  0  0
  7 17  1  0  0  0  0
  8 19  1  0  0  0  0
 15 16  1  0  0  0  0
 15 17  1  0  0  0  0
 15 21  2  0  0  0  0
 16 19  1  0  0  0  0
 16 22  2  0  0  0  0
 17 18  2  0  0  0  0
 18 20  1  0  0  0  0
 18 23  1  0  0  0  0
 19 20  2  0  0  0  0
 20 26  1  0  0  0  0
 21 24  1  0  0  0  0
 21 27  1  0  0  0  0
 22 25  1  0  0  0  0
 22 28  1  0  0  0  0
 23 29  1  0  0  0  0
 23 30  1  0  0  0  0
 23 31  1  0  0  0  0
 24 25  2  0  0  0  0
 24 32  1  0  0  0  0
 25 33  1  0  0  0  0
M  CHG  8   3   1   4   1   5   1   6   1   9  -1  10  -1  12  -1  13  -1
M  END
>  <DRUGBANK_ID>
DB09332

>  <COMMON_NAME>
Kappadione

>  <CAS_NUMBER>
131-13-5

>  <UNII>
R2L46WE615

>  <SYNONYMS>
Menadiol sodium diphosphate

$$$$
