FDN
 OpenBabel10282417072D

 35 37  0  0  0  0  0  0  0  0999 V2000
    0.3443    1.8972    0.0000 F   0  0  0  0  0  0  0  0  0  0  0  0
    1.1512    1.7257    0.0000 C   0  0  0  0  0  0  0  0  0  0  0  0
    1.7033    2.3388    0.0000 C   0  0  0  0  0  0  0  0  0  0  0  0
    2.5102    2.1673    0.0000 C   0  0  0  0  0  0  0  0  0  0  0  0
    3.0623    2.7803    0.0000 F   0  0  0  0  0  0  0  0  0  0  0  0
    2.7652    1.3826    0.0000 C   0  0  0  0  0  0  0  0  0  0  0  0
    2.2132    0.7695    0.0000 C   0  0  0  0  0  0  0  0  0  0  0  0
    1.4062    0.9411    0.0000 C   0  0  0  0  0  0  0  0  0  0  0  0
    0.8541    0.3280    0.0000 C   0  0  2  0  0  0  0  0  0  0  0  0
    0.3021    0.9411    0.0000 C   0  0  0  0  0  0  0  0  0  0  0  0
    1.5216   -0.1570    0.0000 O   0  0  0  0  0  0  0  0  0  0  0  0
    1.2666   -0.9416    0.0000 C   0  0  0  0  0  0  0  0  0  0  0  0
    1.7516   -1.6090    0.0000 O   0  0  0  0  0  0  0  0  0  0  0  0
    0.4416   -0.9416    0.0000 N   0  0  0  0  0  0  0  0  0  0  0  0
    0.1867   -0.1570    0.0000 C   0  0  0  0  0  0  0  0  0  0  0  0
   -0.5979    0.0980    0.0000 O   0  0  0  0  0  0  0  0  0  0  0  0
   -0.0433   -1.6090    0.0000 N   0  0  0  0  0  0  0  0  0  0  0  0
   -0.8638   -1.5228    0.0000 C   0  0  0  0  0  0  0  0  0  0  0  0
   -1.3487   -2.1902    0.0000 C   0  0  0  0  0  0  0  0  0  0  0  0
   -2.1692   -2.1040    0.0000 C   0  0  0  0  0  0  0  0  0  0  0  0
   -2.5047   -1.3503    0.0000 C   0  0  0  0  0  0  0  0  0  0  0  0
   -2.0198   -0.6829    0.0000 C   0  0  0  0  0  0  0  0  0  0  0  0
   -1.1993   -0.7691    0.0000 C   0  0  0  0  0  0  0  0  0  0  0  0
    1.3844    3.3203    0.0000 H   0  0  0  0  0  0  0  0  0  0  0  0
    3.7747    1.1681    0.0000 H   0  0  0  0  0  0  0  0  0  0  0  0
    2.5321   -0.2120    0.0000 H   0  0  0  0  0  0  0  0  0  0  0  0
    0.6328    1.9587    0.0000 H   0  0  0  0  0  0  0  0  0  0  0  0
   -0.7445    0.7187    0.0000 H   0  0  0  0  0  0  0  0  0  0  0  0
   -0.4138    1.7363    0.0000 H   0  0  0  0  0  0  0  0  0  0  0  0
    0.3572   -2.5084    0.0000 H   0  0  0  0  0  0  0  0  0  0  0  0
   -0.9289   -3.1330    0.0000 H   0  0  0  0  0  0  0  0  0  0  0  0
   -2.7758   -2.9389    0.0000 H   0  0  0  0  0  0  0  0  0  0  0  0
   -3.5310   -1.2424    0.0000 H   0  0  0  0  0  0  0  0  0  0  0  0
   -2.4396    0.2599    0.0000 H   0  0  0  0  0  0  0  0  0  0  0  0
   -0.5927    0.0658    0.0000 H   0  0  0  0  0  0  0  0  0  0  0  0
  1  2  1  0  0  0  0
  2  3  2  0  0  0  0
  2  8  1  0  0  0  0
  3  4  1  0  0  0  0
  3 24  1  0  0  0  0
  4  5  1  0  0  0  0
  4  6  2  0  0  0  0
  6  7  1  0  0  0  0
  6 25  1  0  0  0  0
  7  8  2  0  0  0  0
  7 26  1  0  0  0  0
  9  8  1  0  0  0  0
  9 10  1  1  0  0  0
  9 11  1  0  0  0  0
  9 15  1  0  0  0  0
 10 27  1  0  0  0  0
 10 28  1  0  0  0  0
 10 29  1  0  0  0  0
 11 12  1  0  0  0  0
 12 13  2  0  0  0  0
 12 14  1  0  0  0  0
 14 15  1  0  0  0  0
 14 17  1  0  0  0  0
 15 16  2  0  0  0  0
 17 18  1  0  0  0  0
 17 30  1  0  0  0  0
 18 19  1  0  0  0  0
 18 23  2  0  0  0  0
 19 20  2  0  0  0  0
 19 31  1  0  0  0  0
 20 21  1  0  0  0  0
 20 32  1  0  0  0  0
 21 22  2  0  0  0  0
 21 33  1  0  0  0  0
 22 23  1  0  0  0  0
 22 34  1  0  0  0  0
 23 35  1  0  0  0  0
M  END
>  <DRUGBANK_ID>
DB07763

>  <COMMON_NAME>
(5S)-3-ANILINO-5-(2,4-DIFLUOROPHENYL)-5-METHYL-1,3-OXAZOLIDINE-2,4-DIONE

$$$$
