
 OpenBabel10282417072D

 63 66  0  0  0  0  0  0  0  0999 V2000
   -5.0013    6.1875    0.0000 C   0  0  0  0  0  0  0  0  0  0  0  0
   -7.8592    8.6625    0.0000 C   0  0  0  0  0  0  0  0  0  0  0  0
   -5.7158    4.9500    0.0000 C   0  0  0  0  0  0  0  0  0  0  0  0
   -8.5737    8.2500    0.0000 C   0  0  0  0  0  0  0  0  0  0  0  0
   -6.4302    4.5375    0.0000 C   0  0  0  0  0  0  0  0  0  0  0  0
   -7.1447    8.2500    0.0000 C   0  0  0  0  0  0  0  0  0  0  0  0
   -5.7158    5.7750    0.0000 C   0  0  0  0  0  0  0  0  0  0  0  0
   -8.5737    7.4250    0.0000 C   0  0  0  0  0  0  0  0  0  0  0  0
   -7.1447    4.9500    0.0000 C   0  0  0  0  0  0  0  0  0  0  0  0
   -2.1434    7.0125    0.0000 C   0  0  0  0  0  0  0  0  0  0  0  0
   -2.8579    5.7750    0.0000 C   0  0  0  0  0  0  0  0  0  0  0  0
   -2.8579    7.4250    0.0000 C   0  0  0  0  0  0  0  0  0  0  0  0
   -3.5724    6.1875    0.0000 C   0  0  0  0  0  0  0  0  0  0  0  0
   -1.4289    5.7750    0.0000 C   0  0  0  0  0  0  0  0  0  0  0  0
    1.4289    5.7750    0.0000 C   0  0  0  0  0  0  0  0  0  0  0  0
   -0.7145    6.1875    0.0000 C   0  0  0  0  0  0  0  0  0  0  0  0
    0.7145    6.1875    0.0000 C   0  0  0  0  0  0  0  0  0  0  0  0
   -4.2868    7.4250    0.0000 C   0  0  0  0  0  0  0  0  0  0  0  0
   -5.7158    7.4250    0.0000 C   0  0  0  0  0  0  0  0  0  0  0  0
   -5.0013    7.0125    0.0000 C   0  0  3  0  0  0  0  0  0  0  0  0
   -7.1447    7.4250    0.0000 C   0  0  0  0  0  0  0  0  0  0  0  0
   -6.4302    6.1875    0.0000 C   0  0  0  0  0  0  0  0  0  0  0  0
   -7.8592    7.0125    0.0000 C   0  0  0  0  0  0  0  0  0  0  0  0
   -7.1447    5.7750    0.0000 C   0  0  0  0  0  0  0  0  0  0  0  0
   -2.1434    6.1875    0.0000 N   0  0  0  0  0  0  0  0  0  0  0  0
   -3.5724    7.0125    0.0000 N   0  0  0  0  0  0  0  0  0  0  0  0
   -6.4302    7.0125    0.0000 N   0  0  0  0  0  0  0  0  0  0  0  0
    2.1434    6.1875    0.0000 O   0  0  0  0  0  0  0  0  0  0  0  0
    0.0000    5.7750    0.0000 O   0  0  0  0  0  0  0  0  0  0  0  0
   -7.8592    6.1875    0.0000 S   0  0  0  0  0  0  0  0  0  0  0  0
   -5.9279    5.6525    0.0000 H   0  0  0  0  0  0  0  0  0  0  0  0
   -4.0747    5.6525    0.0000 H   0  0  0  0  0  0  0  0  0  0  0  0
   -5.0013    5.1175    0.0000 H   0  0  0  0  0  0  0  0  0  0  0  0
   -7.8592    9.6945    0.0000 H   0  0  0  0  0  0  0  0  0  0  0  0
   -4.8221    4.4340    0.0000 H   0  0  0  0  0  0  0  0  0  0  0  0
   -9.4674    8.7660    0.0000 H   0  0  0  0  0  0  0  0  0  0  0  0
   -6.4302    3.5055    0.0000 H   0  0  0  0  0  0  0  0  0  0  0  0
   -6.2510    8.7660    0.0000 H   0  0  0  0  0  0  0  0  0  0  0  0
   -4.8221    6.2910    0.0000 H   0  0  0  0  0  0  0  0  0  0  0  0
   -9.4674    6.9090    0.0000 H   0  0  0  0  0  0  0  0  0  0  0  0
   -8.0384    4.4340    0.0000 H   0  0  0  0  0  0  0  0  0  0  0  0
   -1.2168    7.5475    0.0000 H   0  0  0  0  0  0  0  0  0  0  0  0
   -1.2168    6.4775    0.0000 H   0  0  0  0  0  0  0  0  0  0  0  0
   -2.8579    4.7050    0.0000 H   0  0  0  0  0  0  0  0  0  0  0  0
   -1.9313    5.2400    0.0000 H   0  0  0  0  0  0  0  0  0  0  0  0
   -2.8579    8.4950    0.0000 H   0  0  0  0  0  0  0  0  0  0  0  0
   -3.7845    7.9600    0.0000 H   0  0  0  0  0  0  0  0  0  0  0  0
   -4.4990    5.6525    0.0000 H   0  0  0  0  0  0  0  0  0  0  0  0
   -4.4990    6.7225    0.0000 H   0  0  0  0  0  0  0  0  0  0  0  0
   -1.4289    4.7050    0.0000 H   0  0  0  0  0  0  0  0  0  0  0  0
   -2.3555    5.2400    0.0000 H   0  0  0  0  0  0  0  0  0  0  0  0
    1.4289    4.7050    0.0000 H   0  0  0  0  0  0  0  0  0  0  0  0
    2.3555    5.2400    0.0000 H   0  0  0  0  0  0  0  0  0  0  0  0
   -0.7145    7.2575    0.0000 H   0  0  0  0  0  0  0  0  0  0  0  0
    0.2121    6.7225    0.0000 H   0  0  0  0  0  0  0  0  0  0  0  0
    0.7145    7.2575    0.0000 H   0  0  0  0  0  0  0  0  0  0  0  0
   -0.2121    6.7225    0.0000 H   0  0  0  0  0  0  0  0  0  0  0  0
   -4.2868    8.4950    0.0000 H   0  0  0  0  0  0  0  0  0  0  0  0
   -3.3601    7.9600    0.0000 H   0  0  0  0  0  0  0  0  0  0  0  0
   -5.7158    8.4950    0.0000 H   0  0  0  0  0  0  0  0  0  0  0  0
   -6.6425    7.9600    0.0000 H   0  0  0  0  0  0  0  0  0  0  0  0
   -4.0747    6.4775    0.0000 H   0  0  0  0  0  0  0  0  0  0  0  0
    2.9834    5.7025    0.0000 H   0  0  0  0  0  0  0  0  0  0  0  0
  1 31  1  0  0  0  0
  1 32  1  0  0  0  0
  1 33  1  0  0  0  0
  2 34  1  0  0  0  0
  3 35  1  0  0  0  0
  4  2  2  0  0  0  0
  4 36  1  0  0  0  0
  5  3  2  0  0  0  0
  5 37  1  0  0  0  0
  6  2  1  0  0  0  0
  6 38  1  0  0  0  0
  7  3  1  0  0  0  0
  7 39  1  0  0  0  0
  8  4  1  0  0  0  0
  8 40  1  0  0  0  0
  9  5  1  0  0  0  0
  9 41  1  0  0  0  0
 10 42  1  0  0  0  0
 10 43  1  0  0  0  0
 11 44  1  0  0  0  0
 11 45  1  0  0  0  0
 12 10  1  0  0  0  0
 12 46  1  0  0  0  0
 12 47  1  0  0  0  0
 13 11  1  0  0  0  0
 13 48  1  0  0  0  0
 13 49  1  0  0  0  0
 14 50  1  0  0  0  0
 14 51  1  0  0  0  0
 15 52  1  0  0  0  0
 15 53  1  0  0  0  0
 16 14  1  0  0  0  0
 16 54  1  0  0  0  0
 16 55  1  0  0  0  0
 17 15  1  0  0  0  0
 17 56  1  0  0  0  0
 17 57  1  0  0  0  0
 18 58  1  0  0  0  0
 18 59  1  0  0  0  0
 19 60  1  0  0  0  0
 19 61  1  0  0  0  0
 20  1  1  0  0  0  0
 20 18  1  0  0  0  0
 20 19  1  0  0  0  0
 20 62  1  0  0  0  0
 21  6  2  0  0  0  0
 22  7  2  0  0  0  0
 23  8  2  0  0  0  0
 23 21  1  0  0  0  0
 24  9  2  0  0  0  0
 24 22  1  0  0  0  0
 25 10  1  0  0  0  0
 25 11  1  0  0  0  0
 25 14  1  0  0  0  0
 26 12  1  0  0  0  0
 26 13  1  0  0  0  0
 26 18  1  0  0  0  0
 27 19  1  0  0  0  0
 27 21  1  0  0  0  0
 27 22  1  0  0  0  0
 28 15  1  0  0  0  0
 28 63  1  0  0  0  0
 29 16  1  0  0  0  0
 29 17  1  0  0  0  0
 30 23  1  0  0  0  0
 30 24  1  0  0  0  0
M  END
>  <DRUGBANK_ID>
DB13784

>  <COMMON_NAME>
Dixyrazine

>  <CAS_NUMBER>
2470-73-7

>  <UNII>
7H368W3AYC

$$$$
