
 OpenBabel10282417072D

 65 69  0  0  0  0  0  0  0  0999 V2000
    4.1182    2.3871    0.0000 O   0  0  0  0  0  0  0  0  0  0  0  0
    4.9183    2.5997    0.0000 S   0  0  0  0  0  0  0  0  0  0  0  0
    4.3342    3.1863    0.0000 O   0  0  0  0  0  0  0  0  0  0  0  0
    0.6387   -2.3613    0.0000 C   0  0  0  0  0  0  0  0  0  0  0  0
    1.3552   -1.9480    0.0000 C   0  0  0  0  0  0  0  0  0  0  0  0
    1.3524   -1.1173    0.0000 C   0  0  0  0  0  0  0  0  0  0  0  0
    0.6369   -0.7083    0.0000 C   0  0  0  0  0  0  0  0  0  0  0  0
   -0.0760   -1.9484    0.0000 C   0  0  0  0  0  0  0  0  0  0  0  0
   -0.0764   -1.1209    0.0000 C   0  0  0  0  0  0  0  0  0  0  0  0
   -0.7891   -0.7100    0.0000 C   0  0  0  0  0  0  0  0  0  0  0  0
   -1.5062   -1.1216    0.0000 C   0  0  0  0  0  0  0  0  0  0  0  0
   -1.5058   -1.9492    0.0000 N   0  0  0  0  0  0  0  0  0  0  0  0
   -0.7883   -2.3648    0.0000 C   0  0  0  0  0  0  0  0  0  0  0  0
   -2.2205   -2.3613    0.0000 C   0  0  0  0  0  0  0  0  0  0  0  0
   -2.9347   -1.9484    0.0000 C   0  0  0  0  0  0  0  0  0  0  0  0
   -2.2209   -3.1863    0.0000 O   0  0  0  0  0  0  0  0  0  0  0  0
   -2.9303   -1.1246    0.0000 C   0  0  0  0  0  0  0  0  0  0  0  0
   -3.6437   -0.7119    0.0000 C   0  0  0  0  0  0  0  0  0  0  0  0
   -3.6432   -2.3624    0.0000 C   0  0  0  0  0  0  0  0  0  0  0  0
    0.6348    0.1167    0.0000 Cl  0  0  0  0  0  0  0  0  0  0  0  0
    2.0704   -2.3593    0.0000 Cl  0  0  0  0  0  0  0  0  0  0  0  0
    2.0653   -0.7021    0.0000 C   0  0  0  0  0  0  0  0  0  0  0  0
    2.7813   -1.1121    0.0000 N   0  0  0  0  0  0  0  0  0  0  0  0
    2.0622    0.1226    0.0000 O   0  0  0  0  0  0  0  0  0  0  0  0
    3.4942   -0.6968    0.0000 C   0  0  1  0  0  0  0  0  0  0  0  0
    3.4967    0.1292    0.0000 C   0  0  0  0  0  0  0  0  0  0  0  0
    4.2102   -1.1067    0.0000 C   0  0  0  0  0  0  0  0  0  0  0  0
    4.2133   -1.9317    0.0000 O   0  0  0  0  0  0  0  0  0  0  0  0
    4.9231   -0.6915    0.0000 O   0  0  0  0  0  0  0  0  0  0  0  0
    4.2124    0.5396    0.0000 C   0  0  0  0  0  0  0  0  0  0  0  0
    4.9224    0.1207    0.0000 C   0  0  0  0  0  0  0  0  0  0  0  0
    5.6377    0.5304    0.0000 C   0  0  0  0  0  0  0  0  0  0  0  0
    5.6407    1.3563    0.0000 C   0  0  0  0  0  0  0  0  0  0  0  0
    4.9223    1.7708    0.0000 C   0  0  0  0  0  0  0  0  0  0  0  0
    4.2100    1.3586    0.0000 C   0  0  0  0  0  0  0  0  0  0  0  0
   -4.3572   -1.9534    0.0000 C   0  0  0  0  0  0  0  0  0  0  0  0
   -4.3627   -1.1211    0.0000 C   0  0  0  0  0  0  0  0  0  0  0  0
   -5.1559   -0.8693    0.0000 C   0  0  0  0  0  0  0  0  0  0  0  0
   -5.6407   -1.5457    0.0000 C   0  0  0  0  0  0  0  0  0  0  0  0
   -5.1469   -2.2157    0.0000 O   0  0  0  0  0  0  0  0  0  0  0  0
    5.6362    3.0086    0.0000 C   0  0  0  0  0  0  0  0  0  0  0  0
    0.6384   -3.3933    0.0000 H   0  0  0  0  0  0  0  0  0  0  0  0
   -0.7881    0.3600    0.0000 H   0  0  0  0  0  0  0  0  0  0  0  0
   -1.7148   -0.1734    0.0000 H   0  0  0  0  0  0  0  0  0  0  0  0
   -2.4323   -0.5857    0.0000 H   0  0  0  0  0  0  0  0  0  0  0  0
   -2.4330   -1.6563    0.0000 H   0  0  0  0  0  0  0  0  0  0  0  0
   -0.7862   -3.4348    0.0000 H   0  0  0  0  0  0  0  0  0  0  0  0
   -1.7148   -2.9001    0.0000 H   0  0  0  0  0  0  0  0  0  0  0  0
   -2.0350   -0.6114    0.0000 H   0  0  0  0  0  0  0  0  0  0  0  0
   -3.6401    0.3201    0.0000 H   0  0  0  0  0  0  0  0  0  0  0  0
   -3.6388   -3.3944    0.0000 H   0  0  0  0  0  0  0  0  0  0  0  0
    2.7850   -2.0966    0.0000 H   0  0  0  0  0  0  0  0  0  0  0  0
    2.5673   -0.1622    0.0000 H   0  0  0  0  0  0  0  0  0  0  0  0
    2.5717    0.6670    0.0000 H   0  0  0  0  0  0  0  0  0  0  0  0
    3.4999    1.1992    0.0000 H   0  0  0  0  0  0  0  0  0  0  0  0
    3.4036   -2.4032    0.0000 H   0  0  0  0  0  0  0  0  0  0  0  0
    4.9158   -0.9113    0.0000 H   0  0  0  0  0  0  0  0  0  0  0  0
    6.5296    0.0112    0.0000 H   0  0  0  0  0  0  0  0  0  0  0  0
    6.5353    1.8708    0.0000 H   0  0  0  0  0  0  0  0  0  0  0  0
    3.3152    1.8728    0.0000 H   0  0  0  0  0  0  0  0  0  0  0  0
   -5.4813    0.1101    0.0000 H   0  0  0  0  0  0  0  0  0  0  0  0
   -6.6727   -1.5525    0.0000 H   0  0  0  0  0  0  0  0  0  0  0  0
    6.5597    2.4682    0.0000 H   0  0  0  0  0  0  0  0  0  0  0  0
    5.6425    4.0786    0.0000 H   0  0  0  0  0  0  0  0  0  0  0  0
    6.5660    3.5382    0.0000 H   0  0  0  0  0  0  0  0  0  0  0  0
  2  1  2  0  0  0  0
  2 41  1  0  0  0  0
  3  2  2  0  0  0  0
  4  5  2  0  0  0  0
  4 42  1  0  0  0  0
  5  6  1  0  0  0  0
  5 21  1  0  0  0  0
  6  7  2  0  0  0  0
  6 22  1  0  0  0  0
  7  9  1  0  0  0  0
  7 20  1  0  0  0  0
  8  4  1  0  0  0  0
  8  9  2  0  0  0  0
  8 13  1  0  0  0  0
  9 10  1  0  0  0  0
 10 11  1  0  0  0  0
 10 43  1  0  0  0  0
 10 44  1  0  0  0  0
 11 12  1  0  0  0  0
 11 45  1  0  0  0  0
 11 46  1  0  0  0  0
 12 13  1  0  0  0  0
 12 14  1  0  0  0  0
 13 47  1  0  0  0  0
 13 48  1  0  0  0  0
 14 15  1  0  0  0  0
 14 16  2  0  0  0  0
 15 17  2  0  0  0  0
 17 18  1  0  0  0  0
 17 49  1  0  0  0  0
 18 37  2  0  0  0  0
 18 50  1  0  0  0  0
 19 15  1  0  0  0  0
 19 51  1  0  0  0  0
 22 23  1  0  0  0  0
 22 24  2  0  0  0  0
 23 25  1  0  0  0  0
 23 52  1  0  0  0  0
 25 26  1  0  0  0  0
 25 27  1  0  0  0  0
 25 53  1  6  0  0  0
 26 30  1  0  0  0  0
 26 54  1  0  0  0  0
 26 55  1  0  0  0  0
 27 28  1  0  0  0  0
 27 29  2  0  0  0  0
 28 56  1  0  0  0  0
 30 31  2  0  0  0  0
 31 32  1  0  0  0  0
 31 57  1  0  0  0  0
 32 33  2  0  0  0  0
 32 58  1  0  0  0  0
 33 34  1  0  0  0  0
 33 59  1  0  0  0  0
 34 35  2  0  0  0  0
 34  2  1  0  0  0  0
 35 30  1  0  0  0  0
 35 60  1  0  0  0  0
 36 19  2  0  0  0  0
 36 37  1  0  0  0  0
 37 38  1  0  0  0  0
 38 39  2  0  0  0  0
 38 61  1  0  0  0  0
 39 40  1  0  0  0  0
 39 62  1  0  0  0  0
 40 36  1  0  0  0  0
 41 63  1  0  0  0  0
 41 64  1  0  0  0  0
 41 65  1  0  0  0  0
M  END
>  <DRUGBANK_ID>
DB11611

>  <COMMON_NAME>
Lifitegrast

>  <CAS_NUMBER>
1025967-78-5

>  <UNII>
038E5L962W

>  <SYNONYMS>
Lifitegrast

$$$$
