JTP
 OpenBabel10282417072D

 63 67  0  0  0  0  0  0  0  0999 V2000
    5.8778   -2.1170    0.0000 C   0  0  0  0  0  0  0  0  0  0  0  0
    6.2510   -1.3813    0.0000 C   0  0  0  0  0  0  0  0  0  0  0  0
    5.5152   -1.0081    0.0000 N   0  0  0  0  0  0  0  0  0  0  0  0
    4.8241   -1.4587    0.0000 C   0  0  0  0  0  0  0  0  0  0  0  0
    4.0883   -1.0856    0.0000 C   0  0  0  0  0  0  0  0  0  0  0  0
    4.0436   -0.2618    0.0000 C   0  0  0  0  0  0  0  0  0  0  0  0
    3.3078    0.1114    0.0000 C   0  0  0  0  0  0  0  0  0  0  0  0
    2.6168   -0.3393    0.0000 C   0  0  0  0  0  0  0  0  0  0  0  0
    2.6615   -1.1631    0.0000 C   0  0  0  0  0  0  0  0  0  0  0  0
    1.8919   -1.4602    0.0000 N   0  0  0  0  0  0  0  0  0  0  0  0
    1.3715   -0.8200    0.0000 C   0  0  0  0  0  0  0  0  0  0  0  0
    0.5465   -0.8277    0.0000 C   0  0  0  0  0  0  0  0  0  0  0  0
    0.0382   -1.4775    0.0000 C   0  0  0  0  0  0  0  0  0  0  0  0
   -0.7787   -1.3622    0.0000 C   0  0  0  0  0  0  0  0  0  0  0  0
   -1.0873   -0.5971    0.0000 C   0  0  0  0  0  0  0  0  0  0  0  0
   -0.5790    0.0527    0.0000 C   0  0  0  0  0  0  0  0  0  0  0  0
    0.2379   -0.0626    0.0000 C   0  0  0  0  0  0  0  0  0  0  0  0
    0.2293   -2.2801    0.0000 O   0  0  0  0  0  0  0  0  0  0  0  0
    0.9759   -2.6311    0.0000 C   0  0  0  0  0  0  0  0  0  0  0  0
    1.7158   -2.2662    0.0000 C   0  0  0  0  0  0  0  0  0  0  0  0
    1.8195   -0.1273    0.0000 C   0  0  0  0  0  0  0  0  0  0  0  0
    1.5224    0.6424    0.0000 C   0  0  0  0  0  0  0  0  0  0  0  0
    2.0403    1.2845    0.0000 C   0  0  0  0  0  0  0  0  0  0  0  0
    1.7432    2.0542    0.0000 C   0  0  0  0  0  0  0  0  0  0  0  0
    0.9281    2.1817    0.0000 C   0  0  0  0  0  0  0  0  0  0  0  0
    0.4102    1.5395    0.0000 C   0  0  0  0  0  0  0  0  0  0  0  0
    0.7073    0.7699    0.0000 C   0  0  0  0  0  0  0  0  0  0  0  0
    3.3973   -1.5362    0.0000 C   0  0  0  0  0  0  0  0  0  0  0  0
    4.8689   -2.2825    0.0000 O   0  0  0  0  0  0  0  0  0  0  0  0
    6.9868   -1.7544    0.0000 C   0  0  0  0  0  0  0  0  0  0  0  0
    7.6778   -1.3038    0.0000 O   0  0  0  0  0  0  0  0  0  0  0  0
    7.0315   -2.5782    0.0000 O   0  0  0  0  0  0  0  0  0  0  0  0
    6.6241   -0.6455    0.0000 C   0  0  0  0  0  0  0  0  0  0  0  0
    4.8094   -2.1749    0.0000 H   0  0  0  0  0  0  0  0  0  0  0  0
    6.4622   -3.0133    0.0000 H   0  0  0  0  0  0  0  0  0  0  0  0
    5.3937   -3.0712    0.0000 H   0  0  0  0  0  0  0  0  0  0  0  0
    5.4619   -0.0250    0.0000 H   0  0  0  0  0  0  0  0  0  0  0  0
    4.9081    0.3019    0.0000 H   0  0  0  0  0  0  0  0  0  0  0  0
    3.2518    1.1419    0.0000 H   0  0  0  0  0  0  0  0  0  0  0  0
   -1.4145   -2.1751    0.0000 H   0  0  0  0  0  0  0  0  0  0  0  0
   -2.1092   -0.4529    0.0000 H   0  0  0  0  0  0  0  0  0  0  0  0
   -0.9650    1.0098    0.0000 H   0  0  0  0  0  0  0  0  0  0  0  0
    0.8737    0.7503    0.0000 H   0  0  0  0  0  0  0  0  0  0  0  0
    0.9859   -3.7011    0.0000 H   0  0  0  0  0  0  0  0  0  0  0  0
    1.8872   -3.1919    0.0000 H   0  0  0  0  0  0  0  0  0  0  0  0
    2.5585   -2.9255    0.0000 H   0  0  0  0  0  0  0  0  0  0  0  0
    1.6059   -3.3305    0.0000 H   0  0  0  0  0  0  0  0  0  0  0  0
    1.1370    1.6406    0.0000 H   0  0  0  0  0  0  0  0  0  0  0  0
    3.0974    1.1191    0.0000 H   0  0  0  0  0  0  0  0  0  0  0  0
    2.7121    2.1173    0.0000 H   0  0  0  0  0  0  0  0  0  0  0  0
    2.4150    2.8870    0.0000 H   0  0  0  0  0  0  0  0  0  0  0  0
    1.3578    3.0524    0.0000 H   0  0  0  0  0  0  0  0  0  0  0  0
    0.5427    3.1799    0.0000 H   0  0  0  0  0  0  0  0  0  0  0  0
   -0.1291    2.3470    0.0000 H   0  0  0  0  0  0  0  0  0  0  0  0
   -0.6470    1.7048    0.0000 H   0  0  0  0  0  0  0  0  0  0  0  0
   -0.2616    0.7067    0.0000 H   0  0  0  0  0  0  0  0  0  0  0  0
    0.0355   -0.0629    0.0000 H   0  0  0  0  0  0  0  0  0  0  0  0
   -0.3498    0.9353    0.0000 H   0  0  0  0  0  0  0  0  0  0  0  0
    3.4533   -2.5667    0.0000 H   0  0  0  0  0  0  0  0  0  0  0  0
    6.2466   -3.0900    0.0000 H   0  0  0  0  0  0  0  0  0  0  0  0
    7.6925   -0.5874    0.0000 H   0  0  0  0  0  0  0  0  0  0  0  0
    6.0396    0.2507    0.0000 H   0  0  0  0  0  0  0  0  0  0  0  0
    7.1080    0.3088    0.0000 H   0  0  0  0  0  0  0  0  0  0  0  0
  1  2  1  0  0  0  0
  1 34  1  0  0  0  0
  1 35  1  0  0  0  0
  1 36  1  0  0  0  0
  2 33  1  0  0  0  0
  2  3  1  0  0  0  0
  2 30  1  0  0  0  0
  3  4  1  0  0  0  0
  3 37  1  0  0  0  0
  4 29  2  0  0  0  0
  4  5  1  0  0  0  0
  5  6  2  0  0  0  0
  5 28  1  0  0  0  0
  6  7  1  0  0  0  0
  6 38  1  0  0  0  0
  7  8  2  0  0  0  0
  7 39  1  0  0  0  0
  8  9  1  0  0  0  0
  8 21  1  0  0  0  0
  9 28  2  0  0  0  0
  9 10  1  0  0  0  0
 10 20  1  0  0  0  0
 10 11  1  0  0  0  0
 11 12  1  0  0  0  0
 11 21  2  0  0  0  0
 12 17  1  0  0  0  0
 12 13  2  0  0  0  0
 13 18  1  0  0  0  0
 13 14  1  0  0  0  0
 14 15  2  0  0  0  0
 14 40  1  0  0  0  0
 15 16  1  0  0  0  0
 15 41  1  0  0  0  0
 16 17  2  0  0  0  0
 16 42  1  0  0  0  0
 17 43  1  0  0  0  0
 18 19  1  0  0  0  0
 19 20  1  0  0  0  0
 19 44  1  0  0  0  0
 19 45  1  0  0  0  0
 20 46  1  0  0  0  0
 20 47  1  0  0  0  0
 21 22  1  0  0  0  0
 22 27  1  0  0  0  0
 22 23  1  0  0  0  0
 22 48  1  0  0  0  0
 23 24  1  0  0  0  0
 23 49  1  0  0  0  0
 23 50  1  0  0  0  0
 24 25  1  0  0  0  0
 24 51  1  0  0  0  0
 24 52  1  0  0  0  0
 25 26  1  0  0  0  0
 25 53  1  0  0  0  0
 25 54  1  0  0  0  0
 26 27  1  0  0  0  0
 26 55  1  0  0  0  0
 26 56  1  0  0  0  0
 27 57  1  0  0  0  0
 27 58  1  0  0  0  0
 28 59  1  0  0  0  0
 30 31  2  0  0  0  0
 30 32  1  0  0  0  0
 32 60  1  0  0  0  0
 33 61  1  0  0  0  0
 33 62  1  0  0  0  0
 33 63  1  0  0  0  0
M  END
>  <DRUGBANK_ID>
DB08031

>  <COMMON_NAME>
N-[(13-CYCLOHEXYL-6,7-DIHYDROINDOLO[1,2-D][1,4]BENZOXAZEPIN-10-YL)CARBONYL]-2-METHYL-L-ALANINE

$$$$
