
 OpenBabel10282417072D

 51 52  0  0  0  0  0  0  0  0999 V2000
   -1.2546    1.5523    0.0000 C   0  0  0  0  0  0  0  0  0  0  0  0
   -0.1769    0.7721    0.0000 C   0  0  0  0  0  0  0  0  0  0  0  0
    0.0803    1.5523    0.0000 C   0  0  0  0  0  0  0  0  0  0  0  0
   -0.5872    2.0428    0.0000 N   0  0  0  0  0  0  0  0  0  0  0  0
   -1.0053    0.7721    0.0000 N   0  0  0  0  0  0  0  0  0  0  0  0
   -1.4879    0.1045    0.0000 C   0  0  0  0  0  0  0  0  0  0  0  0
   -2.3083    0.1850    0.0000 C   0  0  0  0  0  0  0  0  0  0  0  0
   -3.5790    0.8445    0.0000 C   0  0  0  0  0  0  0  0  0  0  0  0
   -3.9571    0.1126    0.0000 C   0  0  0  0  0  0  0  0  0  0  0  0
   -3.5148   -0.5791    0.0000 C   0  0  0  0  0  0  0  0  0  0  0  0
   -2.6943   -0.5469    0.0000 C   0  0  0  0  0  0  0  0  0  0  0  0
   -2.7507    0.8847    0.0000 C   0  0  0  0  0  0  0  0  0  0  0  0
    0.3056    0.1045    0.0000 C   0  0  0  0  0  0  0  0  0  0  0  0
    1.1340    0.1045    0.0000 C   0  0  2  0  0  0  0  0  0  0  0  0
    0.7641    1.4799    0.0000 O   0  0  0  0  0  0  0  0  0  0  0  0
    1.5442   -0.6113    0.0000 N   0  0  0  0  0  0  0  0  0  0  0  0
    2.3726   -0.6113    0.0000 C   0  0  2  0  0  0  0  0  0  0  0  0
    2.7828   -1.3270    0.0000 C   0  0  0  0  0  0  0  0  0  0  0  0
    2.3726   -2.0428    0.0000 O   0  0  0  0  0  0  0  0  0  0  0  0
    3.6112   -1.3270    0.0000 O   0  0  0  0  0  0  0  0  0  0  0  0
   -4.0215    1.5441    0.0000 Cl  0  0  0  0  0  0  0  0  0  0  0  0
   -3.8927   -1.3110    0.0000 Cl  0  0  0  0  0  0  0  0  0  0  0  0
    1.3431    0.9008    0.0000 C   0  0  0  0  0  0  0  0  0  0  0  0
    2.7828    0.1045    0.0000 C   0  0  0  0  0  0  0  0  0  0  0  0
    3.6112    0.1045    0.0000 C   0  0  0  0  0  0  0  0  0  0  0  0
    4.0215    0.8203    0.0000 C   0  0  0  0  0  0  0  0  0  0  0  0
    4.0215   -0.6113    0.0000 C   0  0  0  0  0  0  0  0  0  0  0  0
    2.1393    1.1099    0.0000 O   0  0  0  0  0  0  0  0  0  0  0  0
   -2.2362    1.8709    0.0000 H   0  0  0  0  0  0  0  0  0  0  0  0
    1.0633    1.8664    0.0000 H   0  0  0  0  0  0  0  0  0  0  0  0
   -1.0481   -0.8710    0.0000 H   0  0  0  0  0  0  0  0  0  0  0  0
   -2.1118   -0.7648    0.0000 H   0  0  0  0  0  0  0  0  0  0  0  0
   -4.9880    0.0651    0.0000 H   0  0  0  0  0  0  0  0  0  0  0  0
   -2.1441   -1.4200    0.0000 H   0  0  0  0  0  0  0  0  0  0  0  0
   -2.2748    1.8004    0.0000 H   0  0  0  0  0  0  0  0  0  0  0  0
   -0.1814   -0.8483    0.0000 H   0  0  0  0  0  0  0  0  0  0  0  0
    0.8641   -0.8082    0.0000 H   0  0  0  0  0  0  0  0  0  0  0  0
    0.4805    0.9518    0.0000 H   0  0  0  0  0  0  0  0  0  0  0  0
    1.0328   -1.4938    0.0000 H   0  0  0  0  0  0  0  0  0  0  0  0
    1.8361    0.3145    0.0000 H   0  0  0  0  0  0  0  0  0  0  0  0
    4.0797   -2.1385    0.0000 H   0  0  0  0  0  0  0  0  0  0  0  0
    2.2463    1.0303    0.0000 H   0  0  0  0  0  0  0  0  0  0  0  0
    3.3171    1.0316    0.0000 H   0  0  0  0  0  0  0  0  0  0  0  0
    4.6812    0.1045    0.0000 H   0  0  0  0  0  0  0  0  0  0  0  0
    5.0915    0.8236    0.0000 H   0  0  0  0  0  0  0  0  0  0  0  0
    3.4836    1.7453    0.0000 H   0  0  0  0  0  0  0  0  0  0  0  0
    4.5536    1.7486    0.0000 H   0  0  0  0  0  0  0  0  0  0  0  0
    3.4836   -1.5363    0.0000 H   0  0  0  0  0  0  0  0  0  0  0  0
    5.0915   -0.6146    0.0000 H   0  0  0  0  0  0  0  0  0  0  0  0
    4.5536   -1.5396    0.0000 H   0  0  0  0  0  0  0  0  0  0  0  0
    2.7986    0.4441    0.0000 H   0  0  0  0  0  0  0  0  0  0  0  0
  1  4  2  0  0  0  0
  1  5  1  0  0  0  0
  1 29  1  0  0  0  0
  2  5  1  0  0  0  0
  2  3  2  0  0  0  0
  2 13  1  0  0  0  0
  3  4  1  0  0  0  0
  3 30  1  0  0  0  0
  5  6  1  0  0  0  0
  6  7  1  0  0  0  0
  6 31  1  0  0  0  0
  6 32  1  0  0  0  0
  7 11  2  0  0  0  0
  7 12  1  0  0  0  0
  8  9  1  0  0  0  0
  8 12  2  0  0  0  0
  8 21  1  0  0  0  0
  9 10  2  0  0  0  0
  9 33  1  0  0  0  0
 10 11  1  0  0  0  0
 10 22  1  0  0  0  0
 11 34  1  0  0  0  0
 12 35  1  0  0  0  0
 13 14  1  0  0  0  0
 13 36  1  0  0  0  0
 13 37  1  0  0  0  0
 14 16  1  0  0  0  0
 14 23  1  0  0  0  0
 14 38  1  6  0  0  0
 15 23  2  0  0  0  0
 16 17  1  0  0  0  0
 16 39  1  0  0  0  0
 17 18  1  0  0  0  0
 17 24  1  0  0  0  0
 17 40  1  6  0  0  0
 18 20  1  0  0  0  0
 18 19  2  0  0  0  0
 20 41  1  0  0  0  0
 23 28  1  0  0  0  0
 24 25  1  0  0  0  0
 24 42  1  0  0  0  0
 24 43  1  0  0  0  0
 25 26  1  0  0  0  0
 25 27  1  0  0  0  0
 25 44  1  0  0  0  0
 26 45  1  0  0  0  0
 26 46  1  0  0  0  0
 26 47  1  0  0  0  0
 27 48  1  0  0  0  0
 27 49  1  0  0  0  0
 27 50  1  0  0  0  0
 28 51  1  0  0  0  0
M  END
>  <DRUGBANK_ID>
DB12271

>  <SECONDARY_ACCESSION_NUMBERS>
DB06387

>  <COMMON_NAME>
ORE-1001

>  <CAS_NUMBER>
305335-31-3

>  <UNII>
4LD0ZHV25K

$$$$
