
 OpenBabel10282417072D

 86 89  0  0  0  0  0  0  0  0999 V2000
   -1.9402   -2.9422    0.0000 C   0  0  0  0  0  0  0  0  0  0  0  0
    1.4995   -2.2626    0.0000 C   0  0  0  0  0  0  0  0  0  0  0  0
   -5.1225   -1.4699    0.0000 C   0  0  0  0  0  0  0  0  0  0  0  0
    2.2532   -2.5982    0.0000 N   0  0  0  0  0  0  0  0  0  0  0  0
   -1.5278   -3.6566    0.0000 N   0  0  0  0  0  0  0  0  0  0  0  0
   -5.2088   -2.2904    0.0000 N   0  0  0  0  0  0  0  0  0  0  0  0
   -2.7596   -2.8543    0.0000 C   0  0  0  0  0  0  0  0  0  0  0  0
    0.7850   -2.6732    0.0000 C   0  0  0  0  0  0  0  0  0  0  0  0
   -3.9150   -2.0117    0.0000 C   0  0  0  0  0  0  0  0  0  0  0  0
   -0.6450   -2.6706    0.0000 C   0  0  0  0  0  0  0  0  0  0  0  0
    2.3878   -1.2816    0.0000 C   0  0  0  0  0  0  0  0  0  0  0  0
    1.5858   -1.4421    0.0000 C   0  0  0  0  0  0  0  0  0  0  0  0
   -1.3882   -2.3290    0.0000 C   0  0  0  0  0  0  0  0  0  0  0  0
   -4.3155   -1.2984    0.0000 C   0  0  0  0  0  0  0  0  0  0  0  0
   -0.7208   -3.4852    0.0000 C   0  0  0  0  0  0  0  0  0  0  0  0
    2.8053   -1.9851    0.0000 C   0  0  0  0  0  0  0  0  0  0  0  0
   -4.4551   -2.6260    0.0000 C   0  0  0  0  0  0  0  0  0  0  0  0
    3.5462   -0.4431    0.0000 C   0  0  0  0  0  0  0  0  0  0  0  0
   -3.0943   -2.0997    0.0000 N   0  0  0  0  0  0  0  0  0  0  0  0
    0.0707   -2.2594    0.0000 N   0  0  0  0  0  0  0  0  0  0  0  0
   -5.7337   -0.9172    0.0000 C   0  0  0  0  0  0  0  0  0  0  0  0
    2.7251   -0.5282    0.0000 N   0  0  0  0  0  0  0  0  0  0  0  0
   -6.6126    1.8044    0.0000 C   0  0  0  0  0  0  0  0  0  0  0  0
    3.8835    0.3103    0.0000 C   0  0  0  0  0  0  0  0  0  0  0  0
    0.7838   -3.3332    0.0000 O   0  0  0  0  0  0  0  0  0  0  0  0
   -3.1485   -3.3875    0.0000 O   0  0  0  0  0  0  0  0  0  0  0  0
   -6.4744    2.4498    0.0000 N   0  0  0  0  0  0  0  0  0  0  0  0
    4.5546    1.8176    0.0000 C   0  0  0  0  0  0  0  0  0  0  0  0
    3.9332   -0.9777    0.0000 O   0  0  0  0  0  0  0  0  0  0  0  0
   -6.0003    1.2507    0.0000 C   0  0  0  0  0  0  0  0  0  0  0  0
    4.8919    2.5711    0.0000 N   0  0  0  0  0  0  0  0  0  0  0  0
   -6.3618   -1.1200    0.0000 O   0  0  0  0  0  0  0  0  0  0  0  0
   -5.5609   -0.1100    0.0000 N   0  0  0  0  0  0  0  0  0  0  0  0
    4.7040    0.3965    0.0000 C   0  0  0  0  0  0  0  0  0  0  0  0
    3.3986    0.9777    0.0000 C   0  0  0  0  0  0  0  0  0  0  0  0
    3.7341    1.7314    0.0000 C   0  0  0  0  0  0  0  0  0  0  0  0
    5.0396    1.1502    0.0000 C   0  0  0  0  0  0  0  0  0  0  0  0
   -7.2407    1.6016    0.0000 N   0  0  0  0  0  0  0  0  0  0  0  0
   -6.1732    0.4435    0.0000 C   0  0  0  0  0  0  0  0  0  0  0  0
   -5.7804   -2.6204    0.0000 C   0  0  0  0  0  0  0  0  0  0  0  0
    2.3904   -3.2438    0.0000 C   0  0  0  0  0  0  0  0  0  0  0  0
   -1.7962   -4.2596    0.0000 C   0  0  0  0  0  0  0  0  0  0  0  0
    6.7068    3.4777    0.0000 Cl  0  0  0  0  0  0  0  0  0  0  0  0
    4.3615    4.5292    0.0000 Cl  0  0  0  0  0  0  0  0  0  0  0  0
    5.7130    2.6562    0.0000 C   0  0  0  0  0  0  0  0  0  0  0  0
    4.4093    3.2408    0.0000 C   0  0  0  0  0  0  0  0  0  0  0  0
    4.7474    3.9938    0.0000 C   0  0  0  0  0  0  0  0  0  0  0  0
    6.0503    3.4096    0.0000 C   0  0  0  0  0  0  0  0  0  0  0  0
    0.8230   -0.7470    0.0000 H   0  0  0  0  0  0  0  0  0  0  0  0
   -1.5968   -1.3183    0.0000 H   0  0  0  0  0  0  0  0  0  0  0  0
   -3.8901   -0.3582    0.0000 H   0  0  0  0  0  0  0  0  0  0  0  0
    0.0502   -4.1712    0.0000 H   0  0  0  0  0  0  0  0  0  0  0  0
    3.8323   -2.0868    0.0000 H   0  0  0  0  0  0  0  0  0  0  0  0
   -4.2346   -3.6342    0.0000 H   0  0  0  0  0  0  0  0  0  0  0  0
   -2.5142   -1.3042    0.0000 H   0  0  0  0  0  0  0  0  0  0  0  0
    0.0725   -1.2749    0.0000 H   0  0  0  0  0  0  0  0  0  0  0  0
    2.1478    0.2693    0.0000 H   0  0  0  0  0  0  0  0  0  0  0  0
   -5.5376    2.7526    0.0000 H   0  0  0  0  0  0  0  0  0  0  0  0
   -4.9821    1.5795    0.0000 H   0  0  0  0  0  0  0  0  0  0  0  0
   -5.2064    0.5334    0.0000 H   0  0  0  0  0  0  0  0  0  0  0  0
   -4.6241    0.1926    0.0000 H   0  0  0  0  0  0  0  0  0  0  0  0
    5.3106   -0.4384    0.0000 H   0  0  0  0  0  0  0  0  0  0  0  0
    2.3723    0.8698    0.0000 H   0  0  0  0  0  0  0  0  0  0  0  0
    3.1275    2.5663    0.0000 H   0  0  0  0  0  0  0  0  0  0  0  0
    6.0659    1.2581    0.0000 H   0  0  0  0  0  0  0  0  0  0  0  0
   -7.9711    2.2617    0.0000 H   0  0  0  0  0  0  0  0  0  0  0  0
   -7.4472    0.6390    0.0000 H   0  0  0  0  0  0  0  0  0  0  0  0
   -7.1914    0.1147    0.0000 H   0  0  0  0  0  0  0  0  0  0  0  0
   -6.3976   -0.6027    0.0000 H   0  0  0  0  0  0  0  0  0  0  0  0
   -6.7070   -2.0854    0.0000 H   0  0  0  0  0  0  0  0  0  0  0  0
   -5.7804   -3.6904    0.0000 H   0  0  0  0  0  0  0  0  0  0  0  0
   -6.7071   -3.1554    0.0000 H   0  0  0  0  0  0  0  0  0  0  0  0
    1.5952   -3.9597    0.0000 H   0  0  0  0  0  0  0  0  0  0  0  0
    3.4080   -3.5745    0.0000 H   0  0  0  0  0  0  0  0  0  0  0  0
    2.6128   -4.2904    0.0000 H   0  0  0  0  0  0  0  0  0  0  0  0
   -2.8603   -4.3716    0.0000 H   0  0  0  0  0  0  0  0  0  0  0  0
   -1.1672   -5.1252    0.0000 H   0  0  0  0  0  0  0  0  0  0  0  0
   -2.2313   -5.2371    0.0000 H   0  0  0  0  0  0  0  0  0  0  0  0
    6.3404    1.7894    0.0000 H   0  0  0  0  0  0  0  0  0  0  0  0
    6.7774    2.7660    0.0000 H   0  0  0  0  0  0  0  0  0  0  0  0
    3.3448    3.1327    0.0000 H   0  0  0  0  0  0  0  0  0  0  0  0
    3.7833    4.1085    0.0000 H   0  0  0  0  0  0  0  0  0  0  0  0
    5.8119    4.1020    0.0000 H   0  0  0  0  0  0  0  0  0  0  0  0
    5.3735    3.1261    0.0000 H   0  0  0  0  0  0  0  0  0  0  0  0
    5.4229    4.2763    0.0000 H   0  0  0  0  0  0  0  0  0  0  0  0
    4.9860    3.2998    0.0000 H   0  0  0  0  0  0  0  0  0  0  0  0
  1  5  1  0  0  0  0
  1  7  1  0  0  0  0
  1 13  2  0  0  0  0
  2  4  1  0  0  0  0
  2  8  1  0  0  0  0
  2 12  2  0  0  0  0
  3  6  1  0  0  0  0
  3 14  2  0  0  0  0
  3 21  1  0  0  0  0
  4 16  1  0  0  0  0
  4 41  1  0  0  0  0
  5 15  1  0  0  0  0
  5 42  1  0  0  0  0
  6 17  1  0  0  0  0
  6 40  1  0  0  0  0
  7 19  1  0  0  0  0
  7 26  2  0  0  0  0
  8 20  1  0  0  0  0
  8 25  2  0  0  0  0
  9 14  1  0  0  0  0
  9 17  2  0  0  0  0
  9 19  1  0  0  0  0
 10 13  1  0  0  0  0
 10 15  2  0  0  0  0
 10 20  1  0  0  0  0
 11 12  1  0  0  0  0
 11 16  2  0  0  0  0
 11 22  1  0  0  0  0
 12 49  1  0  0  0  0
 13 50  1  0  0  0  0
 14 51  1  0  0  0  0
 15 52  1  0  0  0  0
 16 53  1  0  0  0  0
 17 54  1  0  0  0  0
 18 22  1  0  0  0  0
 18 24  1  0  0  0  0
 18 29  2  0  0  0  0
 19 55  1  0  0  0  0
 20 56  1  0  0  0  0
 21 32  2  0  0  0  0
 21 33  1  0  0  0  0
 22 57  1  0  0  0  0
 23 27  2  0  0  0  0
 23 30  1  0  0  0  0
 23 38  1  0  0  0  0
 24 34  1  0  0  0  0
 24 35  2  0  0  0  0
 27 58  1  0  0  0  0
 28 31  1  0  0  0  0
 28 36  2  0  0  0  0
 28 37  1  0  0  0  0
 30 39  1  0  0  0  0
 30 59  1  0  0  0  0
 30 60  1  0  0  0  0
 31 45  1  0  0  0  0
 31 46  1  0  0  0  0
 33 39  1  0  0  0  0
 33 61  1  0  0  0  0
 34 37  2  0  0  0  0
 34 62  1  0  0  0  0
 35 36  1  0  0  0  0
 35 63  1  0  0  0  0
 36 64  1  0  0  0  0
 37 65  1  0  0  0  0
 38 66  1  0  0  0  0
 38 67  1  0  0  0  0
 39 68  1  0  0  0  0
 39 69  1  0  0  0  0
 40 70  1  0  0  0  0
 40 71  1  0  0  0  0
 40 72  1  0  0  0  0
 41 73  1  0  0  0  0
 41 74  1  0  0  0  0
 41 75  1  0  0  0  0
 42 76  1  0  0  0  0
 42 77  1  0  0  0  0
 42 78  1  0  0  0  0
 43 48  1  0  0  0  0
 44 47  1  0  0  0  0
 45 48  1  0  0  0  0
 45 79  1  0  0  0  0
 45 80  1  0  0  0  0
 46 47  1  0  0  0  0
 46 81  1  0  0  0  0
 46 82  1  0  0  0  0
 47 83  1  0  0  0  0
 47 84  1  0  0  0  0
 48 85  1  0  0  0  0
 48 86  1  0  0  0  0
M  END
>  <DRUGBANK_ID>
DB15466

>  <COMMON_NAME>
Tallimustine

>  <CAS_NUMBER>
115308-98-0

>  <UNII>
71193OXG6S

>  <SYNONYMS>
Tallimustine

$$$$
