
 OpenBabel10282417072D

165172  0  0  0  0  0  0  0  0999 V2000
   -1.8271   -4.5718    0.0000 C   0  0  0  0  0  0  0  0  0  0  0  0
   -1.2968   -5.2038    0.0000 O   0  0  0  0  0  0  0  0  0  0  0  0
   -1.5449   -3.7966    0.0000 C   0  0  2  0  0  0  0  0  0  0  0  0
   -1.5449   -2.9716    0.0000 C   0  0  2  0  0  0  0  0  0  0  0  0
   -0.8305   -2.5591    0.0000 C   0  0  0  0  0  0  0  0  0  0  0  0
   -0.1160   -2.9716    0.0000 C   0  0  2  0  0  0  0  0  0  0  0  0
   -0.1160   -3.7966    0.0000 C   0  0  0  0  0  0  0  0  0  0  0  0
   -0.8305   -4.2091    0.0000 C   0  0  1  0  0  0  0  0  0  0  0  0
   -0.8305   -5.0341    0.0000 O   0  0  0  0  0  0  0  0  0  0  0  0
   -0.1160   -2.1466    0.0000 C   0  0  0  0  0  0  0  0  0  0  0  0
    0.5983   -2.5591    0.0000 C   0  0  1  0  0  0  0  0  0  0  0  0
    0.5983   -3.3841    0.0000 C   0  0  0  0  0  0  0  0  0  0  0  0
    0.5983   -1.7341    0.0000 C   0  0  2  0  0  0  0  0  0  0  0  0
   -0.1160   -1.3216    0.0000 C   0  0  0  0  0  0  0  0  0  0  0  0
   -0.8305   -1.7341    0.0000 C   0  0  0  0  0  0  0  0  0  0  0  0
    1.3128   -1.3216    0.0000 C   0  0  2  0  0  0  0  0  0  0  0  0
    1.3128   -2.1466    0.0000 C   0  0  0  0  0  0  0  0  0  0  0  0
    2.0272   -1.7341    0.0000 C   0  0  1  0  0  0  0  0  0  0  0  0
    2.0272   -2.5591    0.0000 C   0  0  0  0  0  0  0  0  0  0  0  0
    1.3128   -2.9716    0.0000 C   0  0  0  0  0  0  0  0  0  0  0  0
    2.7417   -1.3216    0.0000 C   0  0  2  0  0  0  0  0  0  0  0  0
    3.5542   -1.1783    0.0000 C   0  0  0  0  0  0  0  0  0  0  0  0
    4.0845   -1.8103    0.0000 O   0  0  0  0  0  0  0  0  0  0  0  0
    3.0239   -2.0968    0.0000 C   0  0  0  0  0  0  0  0  0  0  0  0
    2.7417   -0.4966    0.0000 C   0  0  2  0  0  0  0  0  0  0  0  0
    2.0272   -0.0842    0.0000 C   0  0  0  0  0  0  0  0  0  0  0  0
    1.3128   -0.4966    0.0000 C   0  0  0  0  0  0  0  0  0  0  0  0
    3.4562   -0.0842    0.0000 O   0  0  0  0  0  0  0  0  0  0  0  0
    3.3130    0.7282    0.0000 C   0  0  1  0  0  0  0  0  0  0  0  0
    2.9004    1.4427    0.0000 C   0  0  2  0  0  0  0  0  0  0  0  0
    2.0754    1.4427    0.0000 O   0  0  0  0  0  0  0  0  0  0  0  0
    1.7933    2.2179    0.0000 C   0  0  2  0  0  0  0  0  0  0  0  0
    1.7933    3.0429    0.0000 O   0  0  0  0  0  0  0  0  0  0  0  0
    1.0788    3.4554    0.0000 C   0  0  2  0  0  0  0  0  0  0  0  0
    1.0788    4.2804    0.0000 C   0  0  0  0  0  0  0  0  0  0  0  0
    0.3644    4.6929    0.0000 O   0  0  0  0  0  0  0  0  0  0  0  0
    0.3644    3.0429    0.0000 C   0  0  2  0  0  0  0  0  0  0  0  0
    0.3644    2.2179    0.0000 C   0  0  1  0  0  0  0  0  0  0  0  0
    1.0788    1.8054    0.0000 C   0  0  1  0  0  0  0  0  0  0  0  0
    1.0788    0.9805    0.0000 O   0  0  0  0  0  0  0  0  0  0  0  0
   -0.3500    1.8054    0.0000 O   0  0  0  0  0  0  0  0  0  0  0  0
   -0.3500    3.4554    0.0000 O   0  0  0  0  0  0  0  0  0  0  0  0
    2.6057    2.3612    0.0000 H   0  0  0  0  0  0  0  0  0  0  0  0
    3.3130    2.1571    0.0000 C   0  0  1  0  0  0  0  0  0  0  0  0
    2.9004    2.8716    0.0000 O   0  0  0  0  0  0  0  0  0  0  0  0
    4.1379    2.1571    0.0000 C   0  0  1  0  0  0  0  0  0  0  0  0
    4.5504    1.4427    0.0000 C   0  0  2  0  0  0  0  0  0  0  0  0
    4.1379    0.7282    0.0000 O   0  0  0  0  0  0  0  0  0  0  0  0
    5.3754    1.4427    0.0000 C   0  0  0  0  0  0  0  0  0  0  0  0
    5.7879    2.1571    0.0000 O   0  0  0  0  0  0  0  0  0  0  0  0
    5.7879    0.7282    0.0000 O   0  0  0  0  0  0  0  0  0  0  0  0
    4.5504    2.8716    0.0000 O   0  0  0  0  0  0  0  0  0  0  0  0
    4.1379    3.5861    0.0000 C   0  0  2  0  0  0  0  0  0  0  0  0
    3.5059    4.1164    0.0000 O   0  0  0  0  0  0  0  0  0  0  0  0
    3.6492    4.9288    0.0000 C   0  0  2  0  0  0  0  0  0  0  0  0
    3.0172    5.4591    0.0000 C   0  0  0  0  0  0  0  0  0  0  0  0
    3.1605    6.2716    0.0000 O   0  0  0  0  0  0  0  0  0  0  0  0
    4.4245    5.2110    0.0000 C   0  0  2  0  0  0  0  0  0  0  0  0
    5.0564    4.6807    0.0000 C   0  0  1  0  0  0  0  0  0  0  0  0
    4.9131    3.8682    0.0000 C   0  0  1  0  0  0  0  0  0  0  0  0
    5.5451    3.3379    0.0000 O   0  0  0  0  0  0  0  0  0  0  0  0
    5.8316    4.9628    0.0000 O   0  0  0  0  0  0  0  0  0  0  0  0
    4.5677    6.0234    0.0000 O   0  0  0  0  0  0  0  0  0  0  0  0
    3.5059    3.0558    0.0000 H   0  0  0  0  0  0  0  0  0  0  0  0
    2.5377    0.4460    0.0000 H   0  0  0  0  0  0  0  0  0  0  0  0
    2.0272   -0.9091    0.0000 H   0  0  0  0  0  0  0  0  0  0  0  0
    0.5983   -0.9091    0.0000 H   0  0  0  0  0  0  0  0  0  0  0  0
   -2.2594   -2.5591    0.0000 C   0  0  0  0  0  0  0  0  0  0  0  0
   -2.9738   -2.9716    0.0000 C   0  0  0  0  0  0  0  0  0  0  0  0
   -2.9738   -3.7966    0.0000 C   0  0  2  0  0  0  0  0  0  0  0  0
   -2.2594   -4.2091    0.0000 C   0  0  2  0  0  0  0  0  0  0  0  0
   -2.2594   -5.0341    0.0000 O   0  0  0  0  0  0  0  0  0  0  0  0
   -3.6883   -4.2091    0.0000 O   0  0  0  0  0  0  0  0  0  0  0  0
   -4.4027   -3.7966    0.0000 C   0  0  0  0  0  0  0  0  0  0  0  0
   -5.1172   -4.2091    0.0000 C   0  0  0  0  0  0  0  0  0  0  0  0
   -5.8316   -3.7966    0.0000 C   0  0  0  0  0  0  0  0  0  0  0  0
   -5.7603   -2.9693    0.0000 C   0  0  0  0  0  0  0  0  0  0  0  0
   -5.1172   -5.0341    0.0000 C   0  0  0  0  0  0  0  0  0  0  0  0
   -4.4027   -2.9716    0.0000 O   0  0  0  0  0  0  0  0  0  0  0  0
   -3.2560   -2.1964    0.0000 C   0  0  0  0  0  0  0  0  0  0  0  0
   -3.7862   -3.1148    0.0000 C   0  0  0  0  0  0  0  0  0  0  0  0
   -1.5449   -2.1466    0.0000 H   0  0  0  0  0  0  0  0  0  0  0  0
   -2.9738   -6.2716    0.0000 O   0  0  0  0  0  0  0  0  0  0  0  0
   -3.6883   -5.0341    0.0000 C   0  0  0  0  0  0  0  0  0  0  0  0
   -2.9738   -5.4466    0.0000 C   0  0  0  0  0  0  0  0  0  0  0  0
   -2.8809   -4.7576    0.0000 H   0  0  0  0  0  0  0  0  0  0  0  0
   -2.5148   -3.7521    0.0000 H   0  0  0  0  0  0  0  0  0  0  0  0
   -1.6286   -6.1153    0.0000 H   0  0  0  0  0  0  0  0  0  0  0  0
    0.8106   -4.3316    0.0000 H   0  0  0  0  0  0  0  0  0  0  0  0
   -0.1160   -4.8666    0.0000 H   0  0  0  0  0  0  0  0  0  0  0  0
    0.0961   -4.7441    0.0000 H   0  0  0  0  0  0  0  0  0  0  0  0
   -1.6705   -5.5191    0.0000 H   0  0  0  0  0  0  0  0  0  0  0  0
    0.8106   -1.6116    0.0000 H   0  0  0  0  0  0  0  0  0  0  0  0
   -1.0426   -1.6116    0.0000 H   0  0  0  0  0  0  0  0  0  0  0  0
   -0.1160   -1.0766    0.0000 H   0  0  0  0  0  0  0  0  0  0  0  0
   -0.3283   -3.9191    0.0000 H   0  0  0  0  0  0  0  0  0  0  0  0
    1.5249   -3.9191    0.0000 H   0  0  0  0  0  0  0  0  0  0  0  0
    0.5983   -4.4541    0.0000 H   0  0  0  0  0  0  0  0  0  0  0  0
   -0.1159   -0.2516    0.0000 H   0  0  0  0  0  0  0  0  0  0  0  0
   -1.0426   -0.7866    0.0000 H   0  0  0  0  0  0  0  0  0  0  0  0
   -1.7242   -1.2181    0.0000 H   0  0  0  0  0  0  0  0  0  0  0  0
    0.3862   -2.6816    0.0000 H   0  0  0  0  0  0  0  0  0  0  0  0
    2.2394   -2.6816    0.0000 H   0  0  0  0  0  0  0  0  0  0  0  0
    1.3128   -3.2166    0.0000 H   0  0  0  0  0  0  0  0  0  0  0  0
    2.9539   -3.0941    0.0000 H   0  0  0  0  0  0  0  0  0  0  0  0
    2.0272   -3.6291    0.0000 H   0  0  0  0  0  0  0  0  0  0  0  0
    1.3128   -4.0416    0.0000 H   0  0  0  0  0  0  0  0  0  0  0  0
    0.3862   -3.5066    0.0000 H   0  0  0  0  0  0  0  0  0  0  0  0
    3.9201   -0.1728    0.0000 H   0  0  0  0  0  0  0  0  0  0  0  0
    4.6079   -0.9925    0.0000 H   0  0  0  0  0  0  0  0  0  0  0  0
    3.7527   -2.7218    0.0000 H   0  0  0  0  0  0  0  0  0  0  0  0
    2.3362   -2.9165    0.0000 H   0  0  0  0  0  0  0  0  0  0  0  0
    4.0777   -2.2825    0.0000 H   0  0  0  0  0  0  0  0  0  0  0  0
    3.3899   -3.1023    0.0000 H   0  0  0  0  0  0  0  0  0  0  0  0
    3.6683   -1.0317    0.0000 H   0  0  0  0  0  0  0  0  0  0  0  0
    2.0272    0.9858    0.0000 H   0  0  0  0  0  0  0  0  0  0  0  0
    1.1006    0.4508    0.0000 H   0  0  0  0  0  0  0  0  0  0  0  0
    0.3862    0.0384    0.0000 H   0  0  0  0  0  0  0  0  0  0  0  0
    0.3861   -1.0316    0.0000 H   0  0  0  0  0  0  0  0  0  0  0  0
    2.3654    0.5160    0.0000 H   0  0  0  0  0  0  0  0  0  0  0  0
    2.0054    3.9904    0.0000 H   0  0  0  0  0  0  0  0  0  0  0  0
    2.0055    4.8154    0.0000 H   0  0  0  0  0  0  0  0  0  0  0  0
    1.0788    5.3504    0.0000 H   0  0  0  0  0  0  0  0  0  0  0  0
    0.3644    5.6629    0.0000 H   0  0  0  0  0  0  0  0  0  0  0  0
    0.3644    4.1129    0.0000 H   0  0  0  0  0  0  0  0  0  0  0  0
   -0.5623    2.7529    0.0000 H   0  0  0  0  0  0  0  0  0  0  0  0
    0.1521    1.2704    0.0000 H   0  0  0  0  0  0  0  0  0  0  0  0
    0.2388    0.4955    0.0000 H   0  0  0  0  0  0  0  0  0  0  0  0
   -1.1901    2.2904    0.0000 H   0  0  0  0  0  0  0  0  0  0  0  0
   -0.3500    4.4254    0.0000 H   0  0  0  0  0  0  0  0  0  0  0  0
    2.2430    2.1571    0.0000 H   0  0  0  0  0  0  0  0  0  0  0  0
    3.3853    3.7117    0.0000 H   0  0  0  0  0  0  0  0  0  0  0  0
    3.6029    3.0837    0.0000 H   0  0  0  0  0  0  0  0  0  0  0  0
    5.0854    2.3694    0.0000 H   0  0  0  0  0  0  0  0  0  0  0  0
    6.7249    2.1571    0.0000 H   0  0  0  0  0  0  0  0  0  0  0  0
    2.6437    4.5629    0.0000 H   0  0  0  0  0  0  0  0  0  0  0  0
    2.0117    5.0932    0.0000 H   0  0  0  0  0  0  0  0  0  0  0  0
    2.1976    6.1469    0.0000 H   0  0  0  0  0  0  0  0  0  0  0  0
    4.0720    6.6033    0.0000 H   0  0  0  0  0  0  0  0  0  0  0  0
    3.6048    5.8988    0.0000 H   0  0  0  0  0  0  0  0  0  0  0  0
    5.2423    5.7344    0.0000 H   0  0  0  0  0  0  0  0  0  0  0  0
    5.9186    4.2341    0.0000 H   0  0  0  0  0  0  0  0  0  0  0  0
    5.3767    2.3826    0.0000 H   0  0  0  0  0  0  0  0  0  0  0  0
    6.5746    4.3393    0.0000 H   0  0  0  0  0  0  0  0  0  0  0  0
    5.4792    6.3552    0.0000 H   0  0  0  0  0  0  0  0  0  0  0  0
   -2.2594   -1.4891    0.0000 H   0  0  0  0  0  0  0  0  0  0  0  0
   -3.1861   -2.0241    0.0000 H   0  0  0  0  0  0  0  0  0  0  0  0
   -3.9004   -3.2616    0.0000 H   0  0  0  0  0  0  0  0  0  0  0  0
   -3.1861   -4.7441    0.0000 H   0  0  0  0  0  0  0  0  0  0  0  0
   -6.7467   -4.2737    0.0000 H   0  0  0  0  0  0  0  0  0  0  0  0
   -4.7911   -2.5158    0.0000 H   0  0  0  0  0  0  0  0  0  0  0  0
   -6.6376   -2.3567    0.0000 H   0  0  0  0  0  0  0  0  0  0  0  0
   -5.6684   -1.9033    0.0000 H   0  0  0  0  0  0  0  0  0  0  0  0
   -6.0438   -5.5691    0.0000 H   0  0  0  0  0  0  0  0  0  0  0  0
   -4.1906   -5.5691    0.0000 H   0  0  0  0  0  0  0  0  0  0  0  0
   -5.1172   -6.1041    0.0000 H   0  0  0  0  0  0  0  0  0  0  0  0
   -2.5683   -1.3767    0.0000 H   0  0  0  0  0  0  0  0  0  0  0  0
   -4.3098   -2.0107    0.0000 H   0  0  0  0  0  0  0  0  0  0  0  0
   -3.6220   -1.1909    0.0000 H   0  0  0  0  0  0  0  0  0  0  0  0
   -4.4739   -2.2951    0.0000 H   0  0  0  0  0  0  0  0  0  0  0  0
   -4.1522   -4.1203    0.0000 H   0  0  0  0  0  0  0  0  0  0  0  0
   -4.8400   -3.3005    0.0000 H   0  0  0  0  0  0  0  0  0  0  0  0
   -3.6883   -3.9641    0.0000 H   0  0  0  0  0  0  0  0  0  0  0  0
   -4.6149   -5.5691    0.0000 H   0  0  0  0  0  0  0  0  0  0  0  0
   -4.6150   -4.4991    0.0000 H   0  0  0  0  0  0  0  0  0  0  0  0
  1  2  1  0  0  0  0
  1 86  1  0  0  0  0
  1 87  1  0  0  0  0
  2 88  1  0  0  0  0
  3  1  1  6  0  0  0
  3  4  1  0  0  0  0
  3  8  1  0  0  0  0
  3 71  1  0  0  0  0
  4  5  1  0  0  0  0
  4 68  1  0  0  0  0
  4 82  1  6  0  0  0
  5  6  1  0  0  0  0
  5 15  2  0  0  0  0
  6 10  1  1  0  0  0
  6 11  1  0  0  0  0
  7  6  1  0  0  0  0
  7 89  1  0  0  0  0
  7 90  1  0  0  0  0
  8  7  1  0  0  0  0
  8  9  1  0  0  0  0
  8 91  1  6  0  0  0
  9 92  1  0  0  0  0
 10 93  1  0  0  0  0
 10 94  1  0  0  0  0
 10 95  1  0  0  0  0
 11 12  1  6  0  0  0
 11 13  1  0  0  0  0
 11 20  1  0  0  0  0
 12 96  1  0  0  0  0
 12 97  1  0  0  0  0
 12 98  1  0  0  0  0
 13 16  1  0  0  0  0
 13 67  1  1  0  0  0
 14 13  1  0  0  0  0
 14 99  1  0  0  0  0
 14100  1  0  0  0  0
 15 14  1  0  0  0  0
 15101  1  0  0  0  0
 16 17  1  6  0  0  0
 16 18  1  0  0  0  0
 16 27  1  0  0  0  0
 17102  1  0  0  0  0
 17103  1  0  0  0  0
 17104  1  0  0  0  0
 18 21  1  0  0  0  0
 18 66  1  1  0  0  0
 19 18  1  0  0  0  0
 19105  1  0  0  0  0
 19106  1  0  0  0  0
 20 19  1  0  0  0  0
 20107  1  0  0  0  0
 20108  1  0  0  0  0
 21 22  1  6  0  0  0
 21 24  1  0  0  0  0
 21 25  1  0  0  0  0
 22 23  1  0  0  0  0
 22109  1  0  0  0  0
 22110  1  0  0  0  0
 23111  1  0  0  0  0
 24112  1  0  0  0  0
 24113  1  0  0  0  0
 24114  1  0  0  0  0
 25 28  1  0  0  0  0
 25115  1  1  0  0  0
 26 25  1  0  0  0  0
 26116  1  0  0  0  0
 26117  1  0  0  0  0
 27 26  1  0  0  0  0
 27118  1  0  0  0  0
 27119  1  0  0  0  0
 28 29  1  0  0  0  0
 29 30  1  0  0  0  0
 29 48  1  0  0  0  0
 29 65  1  6  0  0  0
 30 31  1  0  0  0  0
 30 44  1  0  0  0  0
 30120  1  1  0  0  0
 31 32  1  0  0  0  0
 32 33  1  0  0  0  0
 32 39  1  0  0  0  0
 32 43  1  6  0  0  0
 33 34  1  0  0  0  0
 34 35  1  0  0  0  0
 34 37  1  0  0  0  0
 34121  1  6  0  0  0
 35 36  1  0  0  0  0
 35122  1  0  0  0  0
 35123  1  0  0  0  0
 36124  1  0  0  0  0
 37 42  1  0  0  0  0
 37125  1  1  0  0  0
 38 37  1  0  0  0  0
 38 41  1  0  0  0  0
 38126  1  6  0  0  0
 39 38  1  0  0  0  0
 39 40  1  0  0  0  0
 39127  1  1  0  0  0
 40128  1  0  0  0  0
 41129  1  0  0  0  0
 42130  1  0  0  0  0
 44 45  1  0  0  0  0
 44 46  1  0  0  0  0
 44131  1  6  0  0  0
 45132  1  0  0  0  0
 46 52  1  0  0  0  0
 46133  1  1  0  0  0
 47 46  1  0  0  0  0
 47 49  1  0  0  0  0
 47134  1  6  0  0  0
 48 47  1  0  0  0  0
 49 50  1  0  0  0  0
 49 51  2  0  0  0  0
 50135  1  0  0  0  0
 52 53  1  0  0  0  0
 53 54  1  0  0  0  0
 53 60  1  0  0  0  0
 53 64  1  1  0  0  0
 54 55  1  0  0  0  0
 55 56  1  0  0  0  0
 55 58  1  0  0  0  0
 55136  1  1  0  0  0
 56 57  1  0  0  0  0
 56137  1  0  0  0  0
 56138  1  0  0  0  0
 57139  1  0  0  0  0
 58 63  1  0  0  0  0
 58140  1  6  0  0  0
 59 58  1  0  0  0  0
 59 62  1  0  0  0  0
 59141  1  1  0  0  0
 60 59  1  0  0  0  0
 60 61  1  0  0  0  0
 60142  1  6  0  0  0
 61143  1  0  0  0  0
 62144  1  0  0  0  0
 63145  1  0  0  0  0
 68 69  1  0  0  0  0
 68146  1  0  0  0  0
 68147  1  0  0  0  0
 69 80  1  0  0  0  0
 69 81  1  0  0  0  0
 70 69  1  0  0  0  0
 70 73  1  0  0  0  0
 70148  1  1  0  0  0
 71 70  1  0  0  0  0
 71 72  1  0  0  0  0
 71149  1  6  0  0  0
 72 85  1  0  0  0  0
 73 74  1  0  0  0  0
 74 75  1  0  0  0  0
 74 79  2  0  0  0  0
 75 76  2  0  0  0  0
 75 78  1  0  0  0  0
 76 77  1  0  0  0  0
 76150  1  0  0  0  0
 77151  1  0  0  0  0
 77152  1  0  0  0  0
 77153  1  0  0  0  0
 78154  1  0  0  0  0
 78155  1  0  0  0  0
 78156  1  0  0  0  0
 80157  1  0  0  0  0
 80158  1  0  0  0  0
 80159  1  0  0  0  0
 81160  1  0  0  0  0
 81161  1  0  0  0  0
 81162  1  0  0  0  0
 84163  1  0  0  0  0
 84164  1  0  0  0  0
 84165  1  0  0  0  0
 85 84  1  0  0  0  0
 85 83  2  0  0  0  0
M  END
>  <DRUGBANK_ID>
DB15774

>  <COMMON_NAME>
beta-Escin

>  <CAS_NUMBER>
26339-90-2

>  <UNII>
QYK0D6H79O

>  <SYNONYMS>
Aescin B; beta-Aescin; beta-Escin

$$$$
