
 OpenBabel10282417072D

 67 71  0  0  0  0  0  0  0  0999 V2000
   -0.6727   -1.0216    0.0000 C   0  0  0  0  0  0  0  0  0  0  0  0
   -0.6727   -0.1891    0.0000 C   0  0  0  0  0  0  0  0  0  0  0  0
   -0.6643    1.4841    0.0000 C   0  0  0  0  0  0  0  0  0  0  0  0
    0.0588    1.0637    0.0000 C   0  0  0  0  0  0  0  0  0  0  0  0
    0.0588    0.2312    0.0000 O   0  0  0  0  0  0  0  0  0  0  0  0
   -2.0601    2.2829    0.0000 O   0  0  0  0  0  0  0  0  0  0  0  0
   -1.3453    2.6950    0.0000 C   0  0  0  0  0  0  0  0  0  0  0  0
   -0.6643    2.3166    0.0000 C   0  0  0  0  0  0  0  0  0  0  0  0
   -2.0516    1.4336    0.0000 C   0  0  0  0  0  0  0  0  0  0  0  0
   -3.4980   -0.2060    0.0000 C   0  0  0  0  0  0  0  0  0  0  0  0
   -2.7748    0.1892    0.0000 C   0  0  0  0  0  0  0  0  0  0  0  0
   -2.7665    1.0132    0.0000 C   0  0  0  0  0  0  0  0  0  0  0  0
   -3.4644    1.4420    0.0000 C   0  0  0  0  0  0  0  0  0  0  0  0
   -4.1875    1.0385    0.0000 C   0  0  0  0  0  0  0  0  0  0  0  0
   -4.2043    0.2143    0.0000 C   0  0  0  0  0  0  0  0  0  0  0  0
   -2.8337   -1.4253    0.0000 N   0  0  0  0  0  0  0  0  0  0  0  0
   -3.4980   -1.0300    0.0000 C   0  0  0  0  0  0  0  0  0  0  0  0
   -4.1706   -1.4000    0.0000 C   0  0  0  0  0  0  0  0  0  0  0  0
   -4.1875   -2.1736    0.0000 C   0  0  0  0  0  0  0  0  0  0  0  0
   -3.5232   -2.5688    0.0000 N   0  0  0  0  0  0  0  0  0  0  0  0
   -2.8505   -2.1988    0.0000 C   0  0  0  0  0  0  0  0  0  0  0  0
   -1.3958   -1.4336    0.0000 C   0  0  0  0  0  0  0  0  0  0  0  0
   -1.4042   -2.2745    0.0000 C   0  0  0  0  0  0  0  0  0  0  0  0
   -0.6810   -2.6950    0.0000 C   0  0  0  0  0  0  0  0  0  0  0  0
    0.0504   -2.2745    0.0000 C   0  0  0  0  0  0  0  0  0  0  0  0
    0.0504   -1.4420    0.0000 C   0  0  0  0  0  0  0  0  0  0  0  0
   -2.1189   -2.6782    0.0000 N   0  0  0  0  0  0  0  0  0  0  0  0
    0.7651   -1.0300    0.0000 O   0  0  0  0  0  0  0  0  0  0  0  0
    1.4715   -1.4420    0.0000 C   0  0  0  0  0  0  0  0  0  0  0  0
    2.1862   -1.0300    0.0000 C   0  0  0  0  0  0  0  0  0  0  0  0
    2.9010   -1.4336    0.0000 N   0  0  0  0  0  0  0  0  0  0  0  0
    2.9935   -2.2493    0.0000 C   0  0  0  0  0  0  0  0  0  0  0  0
    3.7923   -2.4175    0.0000 C   0  0  0  0  0  0  0  0  0  0  0  0
    4.2043   -1.7028    0.0000 C   0  0  0  0  0  0  0  0  0  0  0  0
    3.6493   -1.0973    0.0000 C   0  0  0  0  0  0  0  0  0  0  0  0
   -1.5988    0.3469    0.0000 H   0  0  0  0  0  0  0  0  0  0  0  0
   -0.6710    0.8809    0.0000 H   0  0  0  0  0  0  0  0  0  0  0  0
   -1.5588    0.9695    0.0000 H   0  0  0  0  0  0  0  0  0  0  0  0
    0.9863    1.5973    0.0000 H   0  0  0  0  0  0  0  0  0  0  0  0
    0.9850    0.5280    0.0000 H   0  0  0  0  0  0  0  0  0  0  0  0
   -1.3538    3.7650    0.0000 H   0  0  0  0  0  0  0  0  0  0  0  0
   -0.4252    3.2412    0.0000 H   0  0  0  0  0  0  0  0  0  0  0  0
    0.2252    2.8399    0.0000 H   0  0  0  0  0  0  0  0  0  0  0  0
   -1.1202    0.9070    0.0000 H   0  0  0  0  0  0  0  0  0  0  0  0
   -2.0425    0.3636    0.0000 H   0  0  0  0  0  0  0  0  0  0  0  0
   -1.8898   -0.3417    0.0000 H   0  0  0  0  0  0  0  0  0  0  0  0
   -3.4427    2.4738    0.0000 H   0  0  0  0  0  0  0  0  0  0  0  0
   -5.0721    1.5701    0.0000 H   0  0  0  0  0  0  0  0  0  0  0  0
   -5.1066   -0.2866    0.0000 H   0  0  0  0  0  0  0  0  0  0  0  0
   -5.0532   -0.8651    0.0000 H   0  0  0  0  0  0  0  0  0  0  0  0
   -5.0901   -2.6739    0.0000 H   0  0  0  0  0  0  0  0  0  0  0  0
   -2.2855   -0.9106    0.0000 H   0  0  0  0  0  0  0  0  0  0  0  0
   -0.6835   -3.7270    0.0000 H   0  0  0  0  0  0  0  0  0  0  0  0
    0.9437   -2.7913    0.0000 H   0  0  0  0  0  0  0  0  0  0  0  0
   -2.1513   -3.6622    0.0000 H   0  0  0  0  0  0  0  0  0  0  0  0
    1.4688   -2.5120    0.0000 H   0  0  0  0  0  0  0  0  0  0  0  0
    2.3973   -1.9785    0.0000 H   0  0  0  0  0  0  0  0  0  0  0  0
    2.1814    0.0400    0.0000 H   0  0  0  0  0  0  0  0  0  0  0  0
    3.1091   -0.4885    0.0000 H   0  0  0  0  0  0  0  0  0  0  0  0
    2.2020   -2.9693    0.0000 H   0  0  0  0  0  0  0  0  0  0  0  0
    3.2740   -3.2819    0.0000 H   0  0  0  0  0  0  0  0  0  0  0  0
    4.2288   -3.3944    0.0000 H   0  0  0  0  0  0  0  0  0  0  0  0
    4.8609   -2.4725    0.0000 H   0  0  0  0  0  0  0  0  0  0  0  0
    5.2679   -1.5859    0.0000 H   0  0  0  0  0  0  0  0  0  0  0  0
    4.5809   -0.7013    0.0000 H   0  0  0  0  0  0  0  0  0  0  0  0
    3.8653   -0.0493    0.0000 H   0  0  0  0  0  0  0  0  0  0  0  0
    4.6807   -0.8126    0.0000 H   0  0  0  0  0  0  0  0  0  0  0  0
  1  2  1  0  0  0  0
  1 22  2  0  0  0  0
  1 26  1  0  0  0  0
  2  5  1  0  0  0  0
  2 36  1  0  0  0  0
  2 37  1  0  0  0  0
  3  4  1  0  0  0  0
  3  8  2  0  0  0  0
  3 38  1  0  0  0  0
  4  5  1  0  0  0  0
  4 39  1  0  0  0  0
  4 40  1  0  0  0  0
  6  7  1  0  0  0  0
  6  9  1  0  0  0  0
  7  8  1  0  0  0  0
  7 41  1  0  0  0  0
  7 42  1  0  0  0  0
  8 43  1  0  0  0  0
  9 12  1  0  0  0  0
  9 44  1  0  0  0  0
  9 45  1  0  0  0  0
 10 11  2  0  0  0  0
 10 17  1  0  0  0  0
 10 15  1  0  0  0  0
 11 12  1  0  0  0  0
 11 46  1  0  0  0  0
 12 13  2  0  0  0  0
 13 14  1  0  0  0  0
 13 47  1  0  0  0  0
 14 15  2  0  0  0  0
 14 48  1  0  0  0  0
 15 49  1  0  0  0  0
 16 21  1  0  0  0  0
 16 17  2  0  0  0  0
 17 18  1  0  0  0  0
 18 19  2  0  0  0  0
 18 50  1  0  0  0  0
 19 20  1  0  0  0  0
 19 51  1  0  0  0  0
 20 21  2  0  0  0  0
 21 27  1  0  0  0  0
 22 23  1  0  0  0  0
 22 52  1  0  0  0  0
 23 24  2  0  0  0  0
 23 27  1  0  0  0  0
 24 25  1  0  0  0  0
 24 53  1  0  0  0  0
 25 26  2  0  0  0  0
 25 54  1  0  0  0  0
 26 28  1  0  0  0  0
 27 55  1  0  0  0  0
 28 29  1  0  0  0  0
 29 30  1  0  0  0  0
 29 56  1  0  0  0  0
 29 57  1  0  0  0  0
 30 31  1  0  0  0  0
 30 58  1  0  0  0  0
 30 59  1  0  0  0  0
 31 32  1  0  0  0  0
 31 35  1  0  0  0  0
 32 33  1  0  0  0  0
 32 60  1  0  0  0  0
 32 61  1  0  0  0  0
 33 34  1  0  0  0  0
 33 62  1  0  0  0  0
 33 63  1  0  0  0  0
 34 35  1  0  0  0  0
 34 64  1  0  0  0  0
 34 65  1  0  0  0  0
 35 66  1  0  0  0  0
 35 67  1  0  0  0  0
M  END
>  <DRUGBANK_ID>
DB11697

>  <COMMON_NAME>
Pacritinib

>  <CAS_NUMBER>
937272-79-2

>  <UNII>
G22N65IL3O

>  <SYNONYMS>
Pacritinib; Pacritinibum

$$$$
