489
 OpenBabel10282417072D

 38 38  0  0  1  0  0  0  0  0999 V2000
    4.5080    2.7366    0.0000 S   0  0  0  0  0  0  0  0  0  0  0  0
    4.5080   -1.3885    0.0000 O   0  0  0  0  0  0  0  0  0  0  0  0
    4.9205    2.0221    0.0000 O   0  0  0  0  0  0  0  0  0  0  0  0
    4.0955    3.4511    0.0000 O   0  0  0  0  0  0  0  0  0  0  0  0
    3.0791   -2.2135    0.0000 N   0  0  0  0  0  0  0  0  0  0  0  0
    3.7935    2.3241    0.0000 N   0  0  0  0  0  0  0  0  0  0  0  0
    3.7935   -0.9760    0.0000 C   0  0  3  0  0  0  0  0  0  0  0  0
    3.0791   -1.3885    0.0000 C   0  0  0  0  0  0  0  0  0  0  0  0
    2.3645   -2.6260    0.0000 C   0  0  0  0  0  0  0  0  0  0  0  0
    3.7935   -0.1510    0.0000 C   0  0  0  0  0  0  0  0  0  0  0  0
    3.0791    0.2615    0.0000 C   0  0  0  0  0  0  0  0  0  0  0  0
    4.5080    0.2615    0.0000 C   0  0  0  0  0  0  0  0  0  0  0  0
    2.3645   -3.4511    0.0000 C   0  0  0  0  0  0  0  0  0  0  0  0
    1.6500   -2.2135    0.0000 C   0  0  0  0  0  0  0  0  0  0  0  0
    3.7935    1.4991    0.0000 C   0  0  0  0  0  0  0  0  0  0  0  0
    3.0791    1.0865    0.0000 C   0  0  0  0  0  0  0  0  0  0  0  0
    4.5080    1.0865    0.0000 C   0  0  0  0  0  0  0  0  0  0  0  0
    5.2224    3.1491    0.0000 C   0  0  0  0  0  0  0  0  0  0  0  0
    4.5080   -2.3585    0.0000 H   0  0  0  0  0  0  0  0  0  0  0  0
    3.9624   -2.7235    0.0000 H   0  0  0  0  0  0  0  0  0  0  0  0
    2.9409    2.8164    0.0000 H   0  0  0  0  0  0  0  0  0  0  0  0
    3.7935   -2.0460    0.0000 H   0  0  0  0  0  0  0  0  0  0  0  0
    2.1524   -0.8535    0.0000 H   0  0  0  0  0  0  0  0  0  0  0  0
    3.0791   -0.3185    0.0000 H   0  0  0  0  0  0  0  0  0  0  0  0
    1.4379   -3.1610    0.0000 H   0  0  0  0  0  0  0  0  0  0  0  0
    2.1854   -0.2545    0.0000 H   0  0  0  0  0  0  0  0  0  0  0  0
    5.4017   -0.2545    0.0000 H   0  0  0  0  0  0  0  0  0  0  0  0
    1.4379   -3.9861    0.0000 H   0  0  0  0  0  0  0  0  0  0  0  0
    3.2911   -3.9861    0.0000 H   0  0  0  0  0  0  0  0  0  0  0  0
    2.3645   -4.5211    0.0000 H   0  0  0  0  0  0  0  0  0  0  0  0
    1.6500   -1.1435    0.0000 H   0  0  0  0  0  0  0  0  0  0  0  0
    0.7234   -2.7485    0.0000 H   0  0  0  0  0  0  0  0  0  0  0  0
    0.7233   -1.6785    0.0000 H   0  0  0  0  0  0  0  0  0  0  0  0
    2.1853    1.6024    0.0000 H   0  0  0  0  0  0  0  0  0  0  0  0
    5.4018    1.6025    0.0000 H   0  0  0  0  0  0  0  0  0  0  0  0
    6.1491    2.6141    0.0000 H   0  0  0  0  0  0  0  0  0  0  0  0
    5.2224    4.2191    0.0000 H   0  0  0  0  0  0  0  0  0  0  0  0
    6.1490    3.6841    0.0000 H   0  0  0  0  0  0  0  0  0  0  0  0
  1  3  2  0  0  0  0
  1  4  2  0  0  0  0
  1  6  1  0  0  0  0
  1 18  1  0  0  0  0
  2  7  1  0  0  0  0
  2 19  1  0  0  0  0
  5  8  1  0  0  0  0
  5  9  1  0  0  0  0
  5 20  1  0  0  0  0
  6 15  1  0  0  0  0
  6 21  1  0  0  0  0
  7  8  1  0  0  0  0
  7 10  1  0  0  0  0
  7 22  1  0  0  0  0
  8 23  1  0  0  0  0
  8 24  1  0  0  0  0
  9 13  1  0  0  0  0
  9 14  1  0  0  0  0
  9 25  1  0  0  0  0
 10 11  2  0  0  0  0
 10 12  1  0  0  0  0
 11 16  1  0  0  0  0
 11 26  1  0  0  0  0
 12 17  2  0  0  0  0
 12 27  1  0  0  0  0
 13 28  1  0  0  0  0
 13 29  1  0  0  0  0
 13 30  1  0  0  0  0
 14 31  1  0  0  0  0
 14 32  1  0  0  0  0
 14 33  1  0  0  0  0
 15 16  2  0  0  0  0
 15 17  1  0  0  0  0
 16 34  1  0  0  0  0
 17 35  1  0  0  0  0
 18 36  1  0  0  0  0
 18 37  1  0  0  0  0
 18 38  1  0  0  0  0
M  END
>  <DRUGBANK_ID>
DB00489

>  <SECONDARY_ACCESSION_NUMBERS>
APRD01230

>  <COMMON_NAME>
Sotalol

>  <CAS_NUMBER>
3930-20-9

>  <UNII>
A6D97U294I

>  <SYNONYMS>
4'-(1-hydroxy-2-(isopropylamino)ethyl)methane sulfonanilide; Sotalol; Sotalolo; Sotalolum; Î²-cardone

$$$$
