
 OpenBabel10282417072D

 51 55  0  0  0  0  0  0  0  0999 V2000
    1.9748   -2.7872    0.0000 N   0  0  0  0  0  0  0  0  0  0  0  0
    2.6893   -2.3747    0.0000 C   0  0  0  0  0  0  0  0  0  0  0  0
    2.6893   -1.5497    0.0000 N   0  0  0  0  0  0  0  0  0  0  0  0
    1.9748   -1.1372    0.0000 C   0  0  0  0  0  0  0  0  0  0  0  0
    1.2604   -1.5497    0.0000 C   0  0  0  0  0  0  0  0  0  0  0  0
    0.5459   -1.1372    0.0000 C   0  0  0  0  0  0  0  0  0  0  0  0
   -0.1685   -1.5497    0.0000 C   0  0  0  0  0  0  0  0  0  0  0  0
   -0.1685   -2.3747    0.0000 C   0  0  0  0  0  0  0  0  0  0  0  0
    0.5459   -2.7872    0.0000 C   0  0  0  0  0  0  0  0  0  0  0  0
    1.2604   -2.3747    0.0000 C   0  0  0  0  0  0  0  0  0  0  0  0
    1.9748   -0.3122    0.0000 N   0  0  0  0  0  0  0  0  0  0  0  0
    1.3074    0.1726    0.0000 C   0  0  0  0  0  0  0  0  0  0  0  0
    1.5624    0.9572    0.0000 C   0  0  1  0  0  0  0  0  0  0  0  0
    2.3873    0.9572    0.0000 C   0  0  0  0  0  0  0  0  0  0  0  0
    2.6423    0.1726    0.0000 C   0  0  0  0  0  0  0  0  0  0  0  0
    1.0775    1.6247    0.0000 O   0  0  0  0  0  0  0  0  0  0  0  0
   -0.2279    2.2059    0.0000 N   0  0  0  0  0  0  0  0  0  0  0  0
    0.2570    1.5385    0.0000 C   0  0  0  0  0  0  0  0  0  0  0  0
   -0.0785    0.7848    0.0000 C   0  0  0  0  0  0  0  0  0  0  0  0
   -0.8989    0.6985    0.0000 N   0  0  0  0  0  0  0  0  0  0  0  0
   -1.3839    1.3660    0.0000 C   0  0  0  0  0  0  0  0  0  0  0  0
   -2.2043    1.2797    0.0000 C   0  0  0  0  0  0  0  0  0  0  0  0
   -2.6893    1.9472    0.0000 C   0  0  0  0  0  0  0  0  0  0  0  0
   -2.3538    2.7009    0.0000 C   0  0  0  0  0  0  0  0  0  0  0  0
   -1.5333    2.7871    0.0000 C   0  0  0  0  0  0  0  0  0  0  0  0
   -1.0484    2.1197    0.0000 C   0  0  0  0  0  0  0  0  0  0  0  0
   -0.8829   -2.7872    0.0000 O   0  0  0  0  0  0  0  0  0  0  0  0
   -1.5974   -2.3747    0.0000 C   0  0  0  0  0  0  0  0  0  0  0  0
   -0.8829   -1.1372    0.0000 O   0  0  0  0  0  0  0  0  0  0  0  0
   -1.5974   -1.5497    0.0000 C   0  0  0  0  0  0  0  0  0  0  0  0
    3.5830   -2.8907    0.0000 H   0  0  0  0  0  0  0  0  0  0  0  0
    0.5459   -0.1052    0.0000 H   0  0  0  0  0  0  0  0  0  0  0  0
    0.5459   -3.8192    0.0000 H   0  0  0  0  0  0  0  0  0  0  0  0
    0.2898   -0.1581    0.0000 H   0  0  0  0  0  0  0  0  0  0  0  0
    0.5508    0.9292    0.0000 H   0  0  0  0  0  0  0  0  0  0  0  0
    0.5056    0.7899    0.0000 H   0  0  0  0  0  0  0  0  0  0  0  0
    3.0162    1.8229    0.0000 H   0  0  0  0  0  0  0  0  0  0  0  0
    3.4441    0.7899    0.0000 H   0  0  0  0  0  0  0  0  0  0  0  0
    3.6599   -0.1581    0.0000 H   0  0  0  0  0  0  0  0  0  0  0  0
    2.8096   -0.8842    0.0000 H   0  0  0  0  0  0  0  0  0  0  0  0
    0.5282   -0.0501    0.0000 H   0  0  0  0  0  0  0  0  0  0  0  0
   -2.6240    0.3369    0.0000 H   0  0  0  0  0  0  0  0  0  0  0  0
   -3.7156    1.8393    0.0000 H   0  0  0  0  0  0  0  0  0  0  0  0
   -2.9604    3.5358    0.0000 H   0  0  0  0  0  0  0  0  0  0  0  0
   -1.1135    3.7299    0.0000 H   0  0  0  0  0  0  0  0  0  0  0  0
   -1.5974   -1.3047    0.0000 H   0  0  0  0  0  0  0  0  0  0  0  0
   -2.5240   -2.9097    0.0000 H   0  0  0  0  0  0  0  0  0  0  0  0
   -2.5241   -1.8397    0.0000 H   0  0  0  0  0  0  0  0  0  0  0  0
   -2.5240   -1.0147    0.0000 H   0  0  0  0  0  0  0  0  0  0  0  0
   -1.5974   -2.6197    0.0000 H   0  0  0  0  0  0  0  0  0  0  0  0
   -2.5241   -2.0847    0.0000 H   0  0  0  0  0  0  0  0  0  0  0  0
  1  2  1  0  0  0  0
  1 10  2  0  0  0  0
  2  3  2  0  0  0  0
  2 31  1  0  0  0  0
  3  4  1  0  0  0  0
  4  5  2  0  0  0  0
  4 11  1  0  0  0  0
  5  6  1  0  0  0  0
  5 10  1  0  0  0  0
  6  7  2  0  0  0  0
  6 32  1  0  0  0  0
  7  8  1  0  0  0  0
  7 29  1  0  0  0  0
  8  9  2  0  0  0  0
  8 27  1  0  0  0  0
  9 10  1  0  0  0  0
  9 33  1  0  0  0  0
 11 12  1  0  0  0  0
 11 15  1  0  0  0  0
 12 13  1  0  0  0  0
 12 34  1  0  0  0  0
 12 35  1  0  0  0  0
 13 14  1  0  0  0  0
 13 16  1  0  0  0  0
 13 36  1  1  0  0  0
 14 15  1  0  0  0  0
 14 37  1  0  0  0  0
 14 38  1  0  0  0  0
 15 39  1  0  0  0  0
 15 40  1  0  0  0  0
 16 18  1  0  0  0  0
 17 18  2  0  0  0  0
 17 26  1  0  0  0  0
 18 19  1  0  0  0  0
 19 20  2  0  0  0  0
 19 41  1  0  0  0  0
 20 21  1  0  0  0  0
 21 22  2  0  0  0  0
 21 26  1  0  0  0  0
 22 23  1  0  0  0  0
 22 42  1  0  0  0  0
 23 24  2  0  0  0  0
 23 43  1  0  0  0  0
 24 25  1  0  0  0  0
 24 44  1  0  0  0  0
 25 26  2  0  0  0  0
 25 45  1  0  0  0  0
 27 28  1  0  0  0  0
 28 46  1  0  0  0  0
 28 47  1  0  0  0  0
 28 48  1  0  0  0  0
 29 30  1  0  0  0  0
 30 49  1  0  0  0  0
 30 50  1  0  0  0  0
 30 51  1  0  0  0  0
M  END
>  <DRUGBANK_ID>
DB08391

>  <COMMON_NAME>
PQ-10

>  <CAS_NUMBER>
927691-21-2

>  <UNII>
63643I762J

$$$$
