
 OpenBabel10282417072D

 63 65  0  0  1  0  0  0  0  0999 V2000
  -11.4315   -1.6500    0.0000 C   0  0  0  0  0  0  0  0  0  0  0  0
  -11.4315   -0.8250    0.0000 C   0  0  0  0  0  0  0  0  0  0  0  0
  -10.7171   -0.4125    0.0000 C   0  0  0  0  0  0  0  0  0  0  0  0
  -10.0026   -0.8250    0.0000 C   0  0  0  0  0  0  0  0  0  0  0  0
  -10.0026   -1.6500    0.0000 C   0  0  0  0  0  0  0  0  0  0  0  0
  -10.7171   -2.0625    0.0000 C   0  0  0  0  0  0  0  0  0  0  0  0
   -9.2881   -0.4125    0.0000 C   0  0  0  0  0  0  0  0  0  0  0  0
   -8.5737   -0.0000    0.0000 C   0  0  0  0  0  0  0  0  0  0  0  0
   -7.8592   -0.4125    0.0000 O   0  0  0  0  0  0  0  0  0  0  0  0
   -7.1447   -0.0000    0.0000 C   0  0  0  0  0  0  0  0  0  0  0  0
   -6.4302   -0.4125    0.0000 C   0  0  0  0  0  0  0  0  0  0  0  0
   -5.7158   -0.0000    0.0000 C   0  0  0  0  0  0  0  0  0  0  0  0
   -5.0013   -0.4125    0.0000 C   0  0  0  0  0  0  0  0  0  0  0  0
   -4.2868   -0.0000    0.0000 C   0  0  0  0  0  0  0  0  0  0  0  0
   -3.5724   -0.4125    0.0000 C   0  0  0  0  0  0  0  0  0  0  0  0
   -2.8579   -0.0000    0.0000 N   0  0  0  0  0  0  0  0  0  0  0  0
   -2.1434   -0.4125    0.0000 C   0  0  0  0  0  0  0  0  0  0  0  0
   -1.4289   -0.0000    0.0000 C   0  0  1  0  0  0  0  0  0  0  0  0
   -0.7145   -0.4125    0.0000 C   0  0  0  0  0  0  0  0  0  0  0  0
   -0.7145   -1.2375    0.0000 C   0  0  0  0  0  0  0  0  0  0  0  0
    0.0000   -1.6500    0.0000 C   0  0  0  0  0  0  0  0  0  0  0  0
    0.7145   -1.2375    0.0000 C   0  0  0  0  0  0  0  0  0  0  0  0
    0.7145   -0.4125    0.0000 C   0  0  0  0  0  0  0  0  0  0  0  0
    0.0000   -0.0000    0.0000 C   0  0  0  0  0  0  0  0  0  0  0  0
    0.0000    0.8250    0.0000 C   0  0  0  0  0  0  0  0  0  0  0  0
    0.7145    1.2375    0.0000 C   0  0  0  0  0  0  0  0  0  0  0  0
    1.4289    0.8250    0.0000 C   0  0  0  0  0  0  0  0  0  0  0  0
    2.1434    1.2375    0.0000 O   0  0  0  0  0  0  0  0  0  0  0  0
    1.4289   -0.0000    0.0000 N   0  0  0  0  0  0  0  0  0  0  0  0
    1.4289   -1.6500    0.0000 O   0  0  0  0  0  0  0  0  0  0  0  0
   -1.4289    0.8250    0.0000 O   0  0  0  0  0  0  0  0  0  0  0  0
   -8.8756   -1.1270    0.0000 F   0  0  0  0  0  0  0  0  0  0  0  0
   -9.7006    0.3020    0.0000 F   0  0  0  0  0  0  0  0  0  0  0  0
  -12.3252   -2.1660    0.0000 H   0  0  0  0  0  0  0  0  0  0  0  0
  -12.3252   -0.3090    0.0000 H   0  0  0  0  0  0  0  0  0  0  0  0
  -10.7171    0.6195    0.0000 H   0  0  0  0  0  0  0  0  0  0  0  0
   -9.1089   -2.1660    0.0000 H   0  0  0  0  0  0  0  0  0  0  0  0
  -10.7171   -3.0945    0.0000 H   0  0  0  0  0  0  0  0  0  0  0  0
   -8.5737    1.0700    0.0000 H   0  0  0  0  0  0  0  0  0  0  0  0
   -7.6471    0.5350    0.0000 H   0  0  0  0  0  0  0  0  0  0  0  0
   -7.1447    1.0700    0.0000 H   0  0  0  0  0  0  0  0  0  0  0  0
   -6.2181    0.5350    0.0000 H   0  0  0  0  0  0  0  0  0  0  0  0
   -6.4302   -1.4825    0.0000 H   0  0  0  0  0  0  0  0  0  0  0  0
   -5.5035   -0.9475    0.0000 H   0  0  0  0  0  0  0  0  0  0  0  0
   -5.7158    1.0700    0.0000 H   0  0  0  0  0  0  0  0  0  0  0  0
   -4.7892    0.5350    0.0000 H   0  0  0  0  0  0  0  0  0  0  0  0
   -5.0013   -1.4825    0.0000 H   0  0  0  0  0  0  0  0  0  0  0  0
   -4.0747   -0.9475    0.0000 H   0  0  0  0  0  0  0  0  0  0  0  0
   -4.2868    1.0700    0.0000 H   0  0  0  0  0  0  0  0  0  0  0  0
   -3.3601    0.5350    0.0000 H   0  0  0  0  0  0  0  0  0  0  0  0
   -3.5724   -1.4825    0.0000 H   0  0  0  0  0  0  0  0  0  0  0  0
   -2.6458   -0.9475    0.0000 H   0  0  0  0  0  0  0  0  0  0  0  0
   -2.8579    1.0200    0.0000 H   0  0  0  0  0  0  0  0  0  0  0  0
   -2.1434   -1.4825    0.0000 H   0  0  0  0  0  0  0  0  0  0  0  0
   -1.2168   -0.9475    0.0000 H   0  0  0  0  0  0  0  0  0  0  0  0
   -2.3555    0.5350    0.0000 H   0  0  0  0  0  0  0  0  0  0  0  0
   -1.6082   -1.7535    0.0000 H   0  0  0  0  0  0  0  0  0  0  0  0
    0.0000   -2.6820    0.0000 H   0  0  0  0  0  0  0  0  0  0  0  0
   -0.8937    1.3410    0.0000 H   0  0  0  0  0  0  0  0  0  0  0  0
    0.7145    2.2695    0.0000 H   0  0  0  0  0  0  0  0  0  0  0  0
    2.2815   -0.4922    0.0000 H   0  0  0  0  0  0  0  0  0  0  0  0
    1.4289   -2.5870    0.0000 H   0  0  0  0  0  0  0  0  0  0  0  0
   -0.5889    1.3100    0.0000 H   0  0  0  0  0  0  0  0  0  0  0  0
  1  2  2  0  0  0  0
  1  6  1  0  0  0  0
  1 34  1  0  0  0  0
  2  3  1  0  0  0  0
  2 35  1  0  0  0  0
  3  4  2  0  0  0  0
  3 36  1  0  0  0  0
  4  5  1  0  0  0  0
  4  7  1  0  0  0  0
  5  6  2  0  0  0  0
  5 37  1  0  0  0  0
  6 38  1  0  0  0  0
  7  8  1  0  0  0  0
  7 32  1  0  0  0  0
  7 33  1  0  0  0  0
  8  9  1  0  0  0  0
  8 39  1  0  0  0  0
  8 40  1  0  0  0  0
  9 10  1  0  0  0  0
 10 11  1  0  0  0  0
 10 41  1  0  0  0  0
 10 42  1  0  0  0  0
 11 12  1  0  0  0  0
 11 43  1  0  0  0  0
 11 44  1  0  0  0  0
 12 13  1  0  0  0  0
 12 45  1  0  0  0  0
 12 46  1  0  0  0  0
 13 14  1  0  0  0  0
 13 47  1  0  0  0  0
 13 48  1  0  0  0  0
 14 15  1  0  0  0  0
 14 49  1  0  0  0  0
 14 50  1  0  0  0  0
 15 16  1  0  0  0  0
 15 51  1  0  0  0  0
 15 52  1  0  0  0  0
 16 17  1  0  0  0  0
 16 53  1  0  0  0  0
 17 18  1  0  0  0  0
 17 54  1  0  0  0  0
 17 55  1  0  0  0  0
 18 19  1  0  0  0  0
 18 31  1  0  0  0  0
 18 56  1  1  0  0  0
 19 20  1  0  0  0  0
 19 24  2  0  0  0  0
 20 21  2  0  0  0  0
 20 57  1  0  0  0  0
 21 22  1  0  0  0  0
 21 58  1  0  0  0  0
 22 23  2  0  0  0  0
 22 30  1  0  0  0  0
 23 24  1  0  0  0  0
 23 29  1  0  0  0  0
 24 25  1  0  0  0  0
 25 26  2  0  0  0  0
 25 59  1  0  0  0  0
 26 27  1  0  0  0  0
 26 60  1  0  0  0  0
 27 28  2  0  0  0  0
 27 29  1  0  0  0  0
 29 61  1  0  0  0  0
 30 62  1  0  0  0  0
 31 63  1  0  0  0  0
M  END
>  <DRUGBANK_ID>
DB12100

>  <COMMON_NAME>
Abediterol

>  <CAS_NUMBER>
915133-65-2

>  <UNII>
QXA167CM6F

>  <SYNONYMS>
Abediterol

$$$$
