
 OpenBabel10282417072D

 48 49  0  0  0  0  0  0  0  0999 V2000
    3.5087   -0.3603    0.0000 O   0  0  0  0  0  0  0  0  0  0  0  0
   -3.5087    0.3603    0.0000 O   0  0  0  0  0  0  0  0  0  0  0  0
    3.5087    1.0716    0.0000 O   0  0  0  0  0  0  0  0  0  0  0  0
   -3.5087   -1.0620    0.0000 O   0  0  0  0  0  0  0  0  0  0  0  0
    0.2086   -0.3508    0.0000 C   0  0  0  0  0  0  0  0  0  0  0  0
   -0.2086    0.3603    0.0000 C   0  0  0  0  0  0  0  0  0  0  0  0
    1.0336   -0.3508    0.0000 C   0  0  0  0  0  0  0  0  0  0  0  0
   -1.0336    0.3603    0.0000 C   0  0  0  0  0  0  0  0  0  0  0  0
    1.4414   -1.0715    0.0000 C   0  0  0  0  0  0  0  0  0  0  0  0
   -1.4414    1.0716    0.0000 C   0  0  0  0  0  0  0  0  0  0  0  0
    1.4414    0.3603    0.0000 C   0  0  0  0  0  0  0  0  0  0  0  0
   -1.4414   -0.3508    0.0000 C   0  0  0  0  0  0  0  0  0  0  0  0
    2.6837   -0.3603    0.0000 C   0  0  0  0  0  0  0  0  0  0  0  0
   -2.6837    0.3603    0.0000 C   0  0  0  0  0  0  0  0  0  0  0  0
   -0.2086   -1.0715    0.0000 C   0  0  0  0  0  0  0  0  0  0  0  0
    0.2086    1.0716    0.0000 C   0  0  0  0  0  0  0  0  0  0  0  0
    2.2665   -1.0715    0.0000 C   0  0  0  0  0  0  0  0  0  0  0  0
   -2.2664    1.0716    0.0000 C   0  0  0  0  0  0  0  0  0  0  0  0
    2.2665    0.3603    0.0000 C   0  0  0  0  0  0  0  0  0  0  0  0
   -2.2664   -0.3508    0.0000 C   0  0  0  0  0  0  0  0  0  0  0  0
    3.9165    0.3603    0.0000 C   0  0  0  0  0  0  0  0  0  0  0  0
   -3.9164   -0.3508    0.0000 C   0  0  0  0  0  0  0  0  0  0  0  0
    0.2086   -1.7828    0.0000 C   0  0  0  0  0  0  0  0  0  0  0  0
   -0.2086    1.7828    0.0000 C   0  0  0  0  0  0  0  0  0  0  0  0
    4.7415    0.3603    0.0000 C   0  0  0  0  0  0  0  0  0  0  0  0
   -4.7415   -0.3508    0.0000 C   0  0  0  0  0  0  0  0  0  0  0  0
    0.9215   -1.9630    0.0000 H   0  0  0  0  0  0  0  0  0  0  0  0
   -0.9240    1.9646    0.0000 H   0  0  0  0  0  0  0  0  0  0  0  0
    0.9241    1.2533    0.0000 H   0  0  0  0  0  0  0  0  0  0  0  0
   -0.9241   -1.2438    0.0000 H   0  0  0  0  0  0  0  0  0  0  0  0
   -1.2406   -1.0744    0.0000 H   0  0  0  0  0  0  0  0  0  0  0  0
    1.2406    1.0716    0.0000 H   0  0  0  0  0  0  0  0  0  0  0  0
    2.7794   -1.9670    0.0000 H   0  0  0  0  0  0  0  0  0  0  0  0
   -2.7793    1.9671    0.0000 H   0  0  0  0  0  0  0  0  0  0  0  0
    2.7820    1.2543    0.0000 H   0  0  0  0  0  0  0  0  0  0  0  0
   -2.7792   -1.2464    0.0000 H   0  0  0  0  0  0  0  0  0  0  0  0
   -0.3200   -2.7131    0.0000 H   0  0  0  0  0  0  0  0  0  0  0  0
    1.2786   -1.7755    0.0000 H   0  0  0  0  0  0  0  0  0  0  0  0
    0.7499   -2.7058    0.0000 H   0  0  0  0  0  0  0  0  0  0  0  0
    0.3200    2.7131    0.0000 H   0  0  0  0  0  0  0  0  0  0  0  0
   -1.2786    1.7754    0.0000 H   0  0  0  0  0  0  0  0  0  0  0  0
   -0.7500    2.7057    0.0000 H   0  0  0  0  0  0  0  0  0  0  0  0
    5.2765   -0.5663    0.0000 H   0  0  0  0  0  0  0  0  0  0  0  0
    5.2765    1.2869    0.0000 H   0  0  0  0  0  0  0  0  0  0  0  0
    5.8115    0.3603    0.0000 H   0  0  0  0  0  0  0  0  0  0  0  0
   -5.2765    0.5758    0.0000 H   0  0  0  0  0  0  0  0  0  0  0  0
   -5.2765   -1.2774    0.0000 H   0  0  0  0  0  0  0  0  0  0  0  0
   -5.8115   -0.3508    0.0000 H   0  0  0  0  0  0  0  0  0  0  0  0
  1 13  1  0  0  0  0
  1 21  1  0  0  0  0
  2 14  1  0  0  0  0
  2 22  1  0  0  0  0
  3 21  2  0  0  0  0
  4 22  2  0  0  0  0
  5  6  1  0  0  0  0
  5  7  1  0  0  0  0
  5 15  2  0  0  0  0
  6  8  1  0  0  0  0
  6 16  2  0  0  0  0
  7  9  2  0  0  0  0
  7 11  1  0  0  0  0
  8 10  2  0  0  0  0
  8 12  1  0  0  0  0
  9 17  1  0  0  0  0
  9 27  1  0  0  0  0
 10 18  1  0  0  0  0
 10 28  1  0  0  0  0
 11 19  2  0  0  0  0
 11 29  1  0  0  0  0
 12 20  2  0  0  0  0
 12 30  1  0  0  0  0
 13 17  2  0  0  0  0
 13 19  1  0  0  0  0
 14 18  2  0  0  0  0
 14 20  1  0  0  0  0
 15 23  1  0  0  0  0
 15 31  1  0  0  0  0
 16 24  1  0  0  0  0
 16 32  1  0  0  0  0
 17 33  1  0  0  0  0
 18 34  1  0  0  0  0
 19 35  1  0  0  0  0
 20 36  1  0  0  0  0
 21 25  1  0  0  0  0
 22 26  1  0  0  0  0
 23 37  1  0  0  0  0
 23 38  1  0  0  0  0
 23 39  1  0  0  0  0
 24 40  1  0  0  0  0
 24 41  1  0  0  0  0
 24 42  1  0  0  0  0
 25 43  1  0  0  0  0
 25 44  1  0  0  0  0
 25 45  1  0  0  0  0
 26 46  1  0  0  0  0
 26 47  1  0  0  0  0
 26 48  1  0  0  0  0
M  END
>  <DRUGBANK_ID>
DB14668

>  <SECONDARY_ACCESSION_NUMBERS>
DBSALT002243

>  <COMMON_NAME>
Dienestrol diacetate

>  <CAS_NUMBER>
24705-61-1

>  <UNII>
D20D148WPQ

>  <SYNONYMS>
Dienestrol acetate; Lipamone

$$$$
