
 OpenBabel10282417072D

 23 23  0  0  0  0  0  0  0  0999 V2000
    0.4958   -1.0330    0.0000 N   0  0  0  0  0  0  0  0  0  0  0  0
    0.6674   -0.2260    0.0000 C   0  0  2  0  0  0  0  0  0  0  0  0
    1.4520    0.0288    0.0000 C   0  0  0  0  0  0  0  0  0  0  0  0
    2.0651   -0.5231    0.0000 O   0  0  0  0  0  0  0  0  0  0  0  0
    1.6235    0.8359    0.0000 O   0  0  0  0  0  0  0  0  0  0  0  0
    0.0543    0.3259    0.0000 C   0  0  0  0  0  0  0  0  0  0  0  0
   -0.7303    0.0710    0.0000 C   0  0  0  0  0  0  0  0  0  0  0  0
   -0.9852   -0.7136    0.0000 C   0  0  0  0  0  0  0  0  0  0  0  0
   -1.3977    0.5559    0.0000 C   0  0  0  0  0  0  0  0  0  0  0  0
   -1.3977    1.3810    0.0000 C   0  0  0  0  0  0  0  0  0  0  0  0
   -0.5003   -1.3810    0.0000 O   0  0  0  0  0  0  0  0  0  0  0  0
   -1.8102   -0.7136    0.0000 N   0  0  0  0  0  0  0  0  0  0  0  0
   -2.0651    0.0710    0.0000 O   0  0  0  0  0  0  0  0  0  0  0  0
   -0.4743   -1.3481    0.0000 H   0  0  0  0  0  0  0  0  0  0  0  0
    1.2538   -1.7156    0.0000 H   0  0  0  0  0  0  0  0  0  0  0  0
    1.4625   -0.9421    0.0000 H   0  0  0  0  0  0  0  0  0  0  0  0
    2.5146    1.1255    0.0000 H   0  0  0  0  0  0  0  0  0  0  0  0
    0.2767    1.3725    0.0000 H   0  0  0  0  0  0  0  0  0  0  0  0
   -0.7409    1.0419    0.0000 H   0  0  0  0  0  0  0  0  0  0  0  0
   -0.4711    1.9160    0.0000 H   0  0  0  0  0  0  0  0  0  0  0  0
   -2.3243    1.9160    0.0000 H   0  0  0  0  0  0  0  0  0  0  0  0
   -1.3977    2.4510    0.0000 H   0  0  0  0  0  0  0  0  0  0  0  0
   -0.8814   -2.2370    0.0000 H   0  0  0  0  0  0  0  0  0  0  0  0
  1 14  1  0  0  0  0
  1 15  1  0  0  0  0
  2  1  1  0  0  0  0
  2  6  1  0  0  0  0
  2 16  1  6  0  0  0
  3  2  1  0  0  0  0
  3  4  2  0  0  0  0
  3  5  1  0  0  0  0
  5 17  1  0  0  0  0
  6  7  1  0  0  0  0
  6 18  1  0  0  0  0
  6 19  1  0  0  0  0
  8  7  1  0  0  0  0
  8 11  1  0  0  0  0
  8 12  2  0  0  0  0
  9  7  2  0  0  0  0
  9 10  1  0  0  0  0
  9 13  1  0  0  0  0
 10 20  1  0  0  0  0
 10 21  1  0  0  0  0
 10 22  1  0  0  0  0
 11 23  1  0  0  0  0
 12 13  1  0  0  0  0
M  END
>  <DRUGBANK_ID>
DB02057

>  <SECONDARY_ACCESSION_NUMBERS>
EXPT00513

>  <COMMON_NAME>
(S)-AMPA

>  <CAS_NUMBER>
83643-88-3

>  <UNII>
9280SC28GD

>  <SYNONYMS>
(S)-alpha-Amino-3-hydroxy-5-methyl-4-isoxazolepropionic acid; L-AMPA; S-AMPA

$$$$
