
 OpenBabel10282417072D

  7  0  0  0  0  0  0  0  0  0999 V2000
    0.4125    0.0000    0.0000 S   0  6  0  0  0  0  0  0  0  0  0  0
    3.7125    0.0000    0.0000 S   0  6  0  0  0  0  0  0  0  0  0  0
    6.0696    0.0000    0.0000 S   0  6  0  0  0  0  0  0  0  0  0  0
    0.0000   -1.6500    0.0000 S   0  6  0  0  0  0  0  0  0  0  0  0
    1.1196   -1.6500    0.0000 S   0  6  0  0  0  0  0  0  0  0  0  0
   -0.4125    0.0000    0.0000 Sb  0  0  0  0  0  0  0  0  0  0  0  0
    2.8875    0.0000    0.0000 Sb  0  0  0  0  0  0  0  0  0  0  0  0
M  CHG  7   1  -2   2  -2   3  -2   4  -2   5  -2   6   5   7   5
M  END
>  <DRUGBANK_ID>
DB13473

>  <COMMON_NAME>
Antimony pentasulfide

>  <CAS_NUMBER>
1315-04-4

>  <UNII>
1433F1I86N

$$$$
