
 OpenBabel10282417072D

 64 68  0  0  0  0  0  0  0  0999 V2000
    0.7145   -0.4125    0.0000 C   0  0  0  0  0  0  0  0  0  0  0  0
    0.7145   -1.2375    0.0000 N   0  0  0  0  0  0  0  0  0  0  0  0
    1.3819   -1.7224    0.0000 C   0  0  0  0  0  0  0  0  0  0  0  0
    2.1665   -1.4675    0.0000 C   0  0  0  0  0  0  0  0  0  0  0  0
    1.1270   -2.5070    0.0000 C   0  0  0  0  0  0  0  0  0  0  0  0
    0.3020   -2.5070    0.0000 C   0  0  0  0  0  0  0  0  0  0  0  0
    0.0470   -1.7224    0.0000 C   0  0  0  0  0  0  0  0  0  0  0  0
   -0.7376   -1.4675    0.0000 C   0  0  0  0  0  0  0  0  0  0  0  0
   -1.3507   -2.0195    0.0000 O   0  0  0  0  0  0  0  0  0  0  0  0
   -0.9091   -0.6605    0.0000 C   0  0  0  0  0  0  0  0  0  0  0  0
   -0.2960   -0.1085    0.0000 O   0  0  0  0  0  0  0  0  0  0  0  0
   -1.6937   -0.4056    0.0000 N   0  0  0  0  0  0  0  0  0  0  0  0
   -1.8653    0.4014    0.0000 C   0  0  0  0  0  0  0  0  0  0  0  0
   -2.6499    0.6563    0.0000 C   0  0  0  0  0  0  0  0  0  0  0  0
   -2.8214    1.4633    0.0000 C   0  0  0  0  0  0  0  0  0  0  0  0
   -2.2083    2.0153    0.0000 C   0  0  0  0  0  0  0  0  0  0  0  0
   -1.4237    1.7604    0.0000 C   0  0  0  0  0  0  0  0  0  0  0  0
   -1.2522    0.9534    0.0000 C   0  0  0  0  0  0  0  0  0  0  0  0
   -2.3798    2.8223    0.0000 N   0  0  0  0  0  0  0  0  0  0  0  0
   -3.1645    3.0773    0.0000 C   0  0  0  0  0  0  0  0  0  0  0  0
   -3.3360    3.8842    0.0000 C   0  0  0  0  0  0  0  0  0  0  0  0
   -2.7229    4.4363    0.0000 N   0  0  0  0  0  0  0  0  0  0  0  0
   -1.9383    4.1813    0.0000 C   0  0  0  0  0  0  0  0  0  0  0  0
   -1.7668    3.3743    0.0000 C   0  0  0  0  0  0  0  0  0  0  0  0
   -2.8944    5.2432    0.0000 C   0  0  0  0  0  0  0  0  0  0  0  0
   -3.6791    5.4982    0.0000 N   0  0  0  0  0  0  0  0  0  0  0  0
   -3.8506    6.3051    0.0000 C   0  0  0  0  0  0  0  0  0  0  0  0
   -3.2375    6.8572    0.0000 C   0  0  0  0  0  0  0  0  0  0  0  0
   -3.4090    7.6641    0.0000 F   0  0  0  0  0  0  0  0  0  0  0  0
   -2.4529    6.6022    0.0000 C   0  0  0  0  0  0  0  0  0  0  0  0
   -2.2813    5.7953    0.0000 N   0  0  0  0  0  0  0  0  0  0  0  0
   -0.1830   -3.1745    0.0000 C   0  0  0  0  0  0  0  0  0  0  0  0
    0.1526   -3.9282    0.0000 C   0  0  0  0  0  0  0  0  0  0  0  0
   -0.3323   -4.5956    0.0000 C   0  0  0  0  0  0  0  0  0  0  0  0
   -1.1528   -4.5094    0.0000 C   0  0  0  0  0  0  0  0  0  0  0  0
   -1.4884   -3.7557    0.0000 C   0  0  0  0  0  0  0  0  0  0  0  0
   -1.0034   -3.0882    0.0000 C   0  0  0  0  0  0  0  0  0  0  0  0
    1.6411    0.1225    0.0000 H   0  0  0  0  0  0  0  0  0  0  0  0
   -0.2121    0.1225    0.0000 H   0  0  0  0  0  0  0  0  0  0  0  0
    0.7145    0.6575    0.0000 H   0  0  0  0  0  0  0  0  0  0  0  0
    2.9616   -2.1835    0.0000 H   0  0  0  0  0  0  0  0  0  0  0  0
    2.3890   -0.4209    0.0000 H   0  0  0  0  0  0  0  0  0  0  0  0
    3.1841   -1.1369    0.0000 H   0  0  0  0  0  0  0  0  0  0  0  0
    1.7336   -3.3419    0.0000 H   0  0  0  0  0  0  0  0  0  0  0  0
   -2.4253   -1.0644    0.0000 H   0  0  0  0  0  0  0  0  0  0  0  0
   -3.4168   -0.0342    0.0000 H   0  0  0  0  0  0  0  0  0  0  0  0
   -3.8029    1.7822    0.0000 H   0  0  0  0  0  0  0  0  0  0  0  0
   -0.6568    2.4509    0.0000 H   0  0  0  0  0  0  0  0  0  0  0  0
   -0.2707    0.6345    0.0000 H   0  0  0  0  0  0  0  0  0  0  0  0
   -3.9597    2.3614    0.0000 H   0  0  0  0  0  0  0  0  0  0  0  0
   -4.1821    3.4080    0.0000 H   0  0  0  0  0  0  0  0  0  0  0  0
   -4.3536    4.2148    0.0000 H   0  0  0  0  0  0  0  0  0  0  0  0
   -3.5585    4.9308    0.0000 H   0  0  0  0  0  0  0  0  0  0  0  0
   -1.1431    4.8972    0.0000 H   0  0  0  0  0  0  0  0  0  0  0  0
   -0.9207    3.8506    0.0000 H   0  0  0  0  0  0  0  0  0  0  0  0
   -0.7492    3.0437    0.0000 H   0  0  0  0  0  0  0  0  0  0  0  0
   -1.5443    2.3277    0.0000 H   0  0  0  0  0  0  0  0  0  0  0  0
   -4.8321    6.6240    0.0000 H   0  0  0  0  0  0  0  0  0  0  0  0
   -1.6860    7.2928    0.0000 H   0  0  0  0  0  0  0  0  0  0  0  0
    1.1789   -4.0361    0.0000 H   0  0  0  0  0  0  0  0  0  0  0  0
    0.0875   -5.5384    0.0000 H   0  0  0  0  0  0  0  0  0  0  0  0
   -1.7594   -5.3443    0.0000 H   0  0  0  0  0  0  0  0  0  0  0  0
   -2.5147   -3.6478    0.0000 H   0  0  0  0  0  0  0  0  0  0  0  0
   -1.4231   -2.1454    0.0000 H   0  0  0  0  0  0  0  0  0  0  0  0
  1  2  1  0  0  0  0
  1 38  1  0  0  0  0
  1 39  1  0  0  0  0
  1 40  1  0  0  0  0
  2  3  1  0  0  0  0
  2  7  1  0  0  0  0
  3  4  1  0  0  0  0
  3  5  2  0  0  0  0
  4 41  1  0  0  0  0
  4 42  1  0  0  0  0
  4 43  1  0  0  0  0
  5  6  1  0  0  0  0
  5 44  1  0  0  0  0
  6  7  2  0  0  0  0
  6 32  1  0  0  0  0
  7  8  1  0  0  0  0
  8  9  2  0  0  0  0
  8 10  1  0  0  0  0
 10 11  2  0  0  0  0
 10 12  1  0  0  0  0
 12 13  1  0  0  0  0
 12 45  1  0  0  0  0
 13 14  2  0  0  0  0
 13 18  1  0  0  0  0
 14 15  1  0  0  0  0
 14 46  1  0  0  0  0
 15 16  2  0  0  0  0
 15 47  1  0  0  0  0
 16 17  1  0  0  0  0
 16 19  1  0  0  0  0
 17 18  2  0  0  0  0
 17 48  1  0  0  0  0
 18 49  1  0  0  0  0
 19 20  1  0  0  0  0
 19 24  1  0  0  0  0
 20 21  1  0  0  0  0
 20 50  1  0  0  0  0
 20 51  1  0  0  0  0
 21 22  1  0  0  0  0
 21 52  1  0  0  0  0
 21 53  1  0  0  0  0
 22 23  1  0  0  0  0
 22 25  1  0  0  0  0
 23 24  1  0  0  0  0
 23 54  1  0  0  0  0
 23 55  1  0  0  0  0
 24 56  1  0  0  0  0
 24 57  1  0  0  0  0
 25 26  2  0  0  0  0
 25 31  1  0  0  0  0
 26 27  1  0  0  0  0
 27 28  2  0  0  0  0
 27 58  1  0  0  0  0
 28 29  1  0  0  0  0
 28 30  1  0  0  0  0
 30 31  2  0  0  0  0
 30 59  1  0  0  0  0
 32 33  2  0  0  0  0
 32 37  1  0  0  0  0
 33 34  1  0  0  0  0
 33 60  1  0  0  0  0
 34 35  2  0  0  0  0
 34 61  1  0  0  0  0
 35 36  1  0  0  0  0
 35 62  1  0  0  0  0
 36 37  2  0  0  0  0
 36 63  1  0  0  0  0
 37 64  1  0  0  0  0
M  END
>  <DRUGBANK_ID>
DB15245

>  <COMMON_NAME>
Olorofim

>  <CAS_NUMBER>
1928707-56-5

>  <UNII>
T34SH2H9HI

>  <SYNONYMS>
Olorofim

$$$$
