1356
 OpenBabel10282417072D

  1  0  0  0  0  0  0  0  0  0999 V2000
    2.0000    0.0000    0.0000 Li  0  3  0  0  0  0  0  0  0  0  0  0
M  CHG  1   1   1
M  END
>  <DRUGBANK_ID>
DB01356

>  <COMMON_NAME>
Lithium cation

>  <CAS_NUMBER>
7439-93-2

>  <UNII>
8H8Z5UER66

>  <SYNONYMS>
Li(+); Lithium ion; Lithium, ion; Lithium, ion (li1+)

$$$$
