
 OpenBabel10282417072D

112113  0  0  0  0  0  0  0  0999 V2000
   13.5749   19.3875    0.0000 C   0  0  0  0  0  0  0  0  0  0  0  0
   14.2894   18.1500    0.0000 C   0  0  0  0  0  0  0  0  0  0  0  0
   12.8605   15.6750    0.0000 C   0  0  0  0  0  0  0  0  0  0  0  0
   11.4315   13.2000    0.0000 C   0  0  0  0  0  0  0  0  0  0  0  0
   10.0026   10.7250    0.0000 C   0  0  0  0  0  0  0  0  0  0  0  0
    8.5737    8.2500    0.0000 C   0  0  0  0  0  0  0  0  0  0  0  0
    7.1447    5.7750    0.0000 C   0  0  0  0  0  0  0  0  0  0  0  0
    5.7158    3.3000    0.0000 C   0  0  0  0  0  0  0  0  0  0  0  0
    4.2868    0.8250    0.0000 C   0  0  0  0  0  0  0  0  0  0  0  0
    0.7145    1.2375    0.0000 C   0  0  0  0  0  0  0  0  0  0  0  0
    0.7145    2.0625    0.0000 C   0  0  0  0  0  0  0  0  0  0  0  0
   12.8605   17.3250    0.0000 C   0  0  0  0  0  0  0  0  0  0  0  0
   11.4315   14.8500    0.0000 C   0  0  0  0  0  0  0  0  0  0  0  0
   10.0026   12.3750    0.0000 C   0  0  0  0  0  0  0  0  0  0  0  0
    8.5737    9.9000    0.0000 C   0  0  0  0  0  0  0  0  0  0  0  0
    7.1447    7.4250    0.0000 C   0  0  0  0  0  0  0  0  0  0  0  0
    5.7158    4.9500    0.0000 C   0  0  0  0  0  0  0  0  0  0  0  0
   12.8605   18.1500    0.0000 C   0  0  0  0  0  0  0  0  0  0  0  0
   12.1460   16.9125    0.0000 C   0  0  0  0  0  0  0  0  0  0  0  0
   11.4315   15.6750    0.0000 C   0  0  0  0  0  0  0  0  0  0  0  0
   10.7171   14.4375    0.0000 C   0  0  0  0  0  0  0  0  0  0  0  0
   10.0026   13.2000    0.0000 C   0  0  0  0  0  0  0  0  0  0  0  0
    9.2881   11.9625    0.0000 C   0  0  0  0  0  0  0  0  0  0  0  0
    8.5737   10.7250    0.0000 C   0  0  0  0  0  0  0  0  0  0  0  0
    7.8592    9.4875    0.0000 C   0  0  0  0  0  0  0  0  0  0  0  0
    7.1447    8.2500    0.0000 C   0  0  0  0  0  0  0  0  0  0  0  0
    6.4302    7.0125    0.0000 C   0  0  0  0  0  0  0  0  0  0  0  0
    5.7158    5.7750    0.0000 C   0  0  0  0  0  0  0  0  0  0  0  0
    5.0013    4.5375    0.0000 C   0  0  0  0  0  0  0  0  0  0  0  0
    1.4289    0.8250    0.0000 C   0  0  0  0  0  0  0  0  0  0  0  0
    1.4289    2.4750    0.0000 C   0  0  0  0  0  0  0  0  0  0  0  0
    4.2868    3.3000    0.0000 C   0  0  0  0  0  0  0  0  0  0  0  0
    4.2868    2.4750    0.0000 C   0  0  0  0  0  0  0  0  0  0  0  0
   13.5749   18.5625    0.0000 C   0  0  0  0  0  0  0  0  0  0  0  0
   12.1460   16.0875    0.0000 C   0  0  0  0  0  0  0  0  0  0  0  0
   10.7171   13.6125    0.0000 C   0  0  0  0  0  0  0  0  0  0  0  0
    9.2881   11.1375    0.0000 C   0  0  0  0  0  0  0  0  0  0  0  0
    7.8592    8.6625    0.0000 C   0  0  0  0  0  0  0  0  0  0  0  0
    6.4302    6.1875    0.0000 C   0  0  0  0  0  0  0  0  0  0  0  0
    5.0013    3.7125    0.0000 C   0  0  0  0  0  0  0  0  0  0  0  0
    3.5724    1.2375    0.0000 C   0  0  0  0  0  0  0  0  0  0  0  0
    3.5724    2.0625    0.0000 C   0  0  0  0  0  0  0  0  0  0  0  0
    2.1434    1.2375    0.0000 C   0  0  0  0  0  0  0  0  0  0  0  0
    2.1434    2.0625    0.0000 C   0  0  0  0  0  0  0  0  0  0  0  0
    2.8579    0.8250    0.0000 C   0  0  0  0  0  0  0  0  0  0  0  0
    2.8579    2.4750    0.0000 C   0  0  0  0  0  0  0  0  0  0  0  0
    2.8579    0.0000    0.0000 O   0  0  0  0  0  0  0  0  0  0  0  0
    2.8579    3.3000    0.0000 O   0  0  0  0  0  0  0  0  0  0  0  0
   10.7171   16.0875    0.0000 H   0  0  0  0  0  0  0  0  0  0  0  0
    9.2881   13.6125    0.0000 H   0  0  0  0  0  0  0  0  0  0  0  0
    7.8592   11.1375    0.0000 H   0  0  0  0  0  0  0  0  0  0  0  0
    6.4302    8.6625    0.0000 H   0  0  0  0  0  0  0  0  0  0  0  0
    5.0013    6.1875    0.0000 H   0  0  0  0  0  0  0  0  0  0  0  0
    3.5724    3.7125    0.0000 H   0  0  0  0  0  0  0  0  0  0  0  0
   14.5015   19.9225    0.0000 H   0  0  0  0  0  0  0  0  0  0  0  0
   12.6483   19.9225    0.0000 H   0  0  0  0  0  0  0  0  0  0  0  0
   13.5749   20.4575    0.0000 H   0  0  0  0  0  0  0  0  0  0  0  0
   14.2894   17.0800    0.0000 H   0  0  0  0  0  0  0  0  0  0  0  0
   15.2160   18.6850    0.0000 H   0  0  0  0  0  0  0  0  0  0  0  0
   15.2161   17.6150    0.0000 H   0  0  0  0  0  0  0  0  0  0  0  0
   12.8605   14.6050    0.0000 H   0  0  0  0  0  0  0  0  0  0  0  0
   13.7871   16.2100    0.0000 H   0  0  0  0  0  0  0  0  0  0  0  0
   13.7872   15.1400    0.0000 H   0  0  0  0  0  0  0  0  0  0  0  0
   11.4315   12.1300    0.0000 H   0  0  0  0  0  0  0  0  0  0  0  0
   12.3582   13.7350    0.0000 H   0  0  0  0  0  0  0  0  0  0  0  0
   12.3581   12.6650    0.0000 H   0  0  0  0  0  0  0  0  0  0  0  0
   10.0026    9.6550    0.0000 H   0  0  0  0  0  0  0  0  0  0  0  0
   10.9292   11.2600    0.0000 H   0  0  0  0  0  0  0  0  0  0  0  0
   10.9293   10.1900    0.0000 H   0  0  0  0  0  0  0  0  0  0  0  0
    8.5737    7.1800    0.0000 H   0  0  0  0  0  0  0  0  0  0  0  0
    9.5003    8.7850    0.0000 H   0  0  0  0  0  0  0  0  0  0  0  0
    9.5004    7.7150    0.0000 H   0  0  0  0  0  0  0  0  0  0  0  0
    7.1447    4.7050    0.0000 H   0  0  0  0  0  0  0  0  0  0  0  0
    8.0713    6.3100    0.0000 H   0  0  0  0  0  0  0  0  0  0  0  0
    8.0714    5.2400    0.0000 H   0  0  0  0  0  0  0  0  0  0  0  0
    5.7158    2.2300    0.0000 H   0  0  0  0  0  0  0  0  0  0  0  0
    6.6424    3.8350    0.0000 H   0  0  0  0  0  0  0  0  0  0  0  0
    6.6425    2.7650    0.0000 H   0  0  0  0  0  0  0  0  0  0  0  0
    4.2868   -0.2450    0.0000 H   0  0  0  0  0  0  0  0  0  0  0  0
    5.2135    1.3600    0.0000 H   0  0  0  0  0  0  0  0  0  0  0  0
    5.2134    0.2900    0.0000 H   0  0  0  0  0  0  0  0  0  0  0  0
   -0.1792    0.7215    0.0000 H   0  0  0  0  0  0  0  0  0  0  0  0
   -0.1792    2.5785    0.0000 H   0  0  0  0  0  0  0  0  0  0  0  0
   13.7871   16.7900    0.0000 H   0  0  0  0  0  0  0  0  0  0  0  0
   12.8605   16.2550    0.0000 H   0  0  0  0  0  0  0  0  0  0  0  0
   12.3582   14.3150    0.0000 H   0  0  0  0  0  0  0  0  0  0  0  0
   11.4315   13.7800    0.0000 H   0  0  0  0  0  0  0  0  0  0  0  0
   10.9292   11.8400    0.0000 H   0  0  0  0  0  0  0  0  0  0  0  0
   10.0026   11.3050    0.0000 H   0  0  0  0  0  0  0  0  0  0  0  0
    9.5003    9.3650    0.0000 H   0  0  0  0  0  0  0  0  0  0  0  0
    8.5737    8.8300    0.0000 H   0  0  0  0  0  0  0  0  0  0  0  0
    8.0713    6.8900    0.0000 H   0  0  0  0  0  0  0  0  0  0  0  0
    7.1447    6.3550    0.0000 H   0  0  0  0  0  0  0  0  0  0  0  0
    6.6424    4.4150    0.0000 H   0  0  0  0  0  0  0  0  0  0  0  0
    5.7158    3.8800    0.0000 H   0  0  0  0  0  0  0  0  0  0  0  0
   11.9668   18.6660    0.0000 H   0  0  0  0  0  0  0  0  0  0  0  0
   11.2194   17.4475    0.0000 H   0  0  0  0  0  0  0  0  0  0  0  0
   11.2194   16.3775    0.0000 H   0  0  0  0  0  0  0  0  0  0  0  0
    9.7904   14.9725    0.0000 H   0  0  0  0  0  0  0  0  0  0  0  0
    9.7905   13.9025    0.0000 H   0  0  0  0  0  0  0  0  0  0  0  0
    8.3615   12.4975    0.0000 H   0  0  0  0  0  0  0  0  0  0  0  0
    8.3615   11.4275    0.0000 H   0  0  0  0  0  0  0  0  0  0  0  0
    6.9326   10.0225    0.0000 H   0  0  0  0  0  0  0  0  0  0  0  0
    6.9326    8.9525    0.0000 H   0  0  0  0  0  0  0  0  0  0  0  0
    5.5036    7.5475    0.0000 H   0  0  0  0  0  0  0  0  0  0  0  0
    5.5036    6.4775    0.0000 H   0  0  0  0  0  0  0  0  0  0  0  0
    4.0747    5.0725    0.0000 H   0  0  0  0  0  0  0  0  0  0  0  0
    4.0747    4.0025    0.0000 H   0  0  0  0  0  0  0  0  0  0  0  0
    1.4289   -0.2070    0.0000 H   0  0  0  0  0  0  0  0  0  0  0  0
    1.4289    3.5070    0.0000 H   0  0  0  0  0  0  0  0  0  0  0  0
    5.2135    1.9400    0.0000 H   0  0  0  0  0  0  0  0  0  0  0  0
    4.2868    1.4050    0.0000 H   0  0  0  0  0  0  0  0  0  0  0  0
  1 55  1  0  0  0  0
  1 56  1  0  0  0  0
  1 57  1  0  0  0  0
  2 58  1  0  0  0  0
  2 59  1  0  0  0  0
  2 60  1  0  0  0  0
  3 61  1  0  0  0  0
  3 62  1  0  0  0  0
  3 63  1  0  0  0  0
  4 64  1  0  0  0  0
  4 65  1  0  0  0  0
  4 66  1  0  0  0  0
  5 67  1  0  0  0  0
  5 68  1  0  0  0  0
  5 69  1  0  0  0  0
  6 70  1  0  0  0  0
  6 71  1  0  0  0  0
  6 72  1  0  0  0  0
  7 73  1  0  0  0  0
  7 74  1  0  0  0  0
  7 75  1  0  0  0  0
  8 76  1  0  0  0  0
  8 77  1  0  0  0  0
  8 78  1  0  0  0  0
  9 79  1  0  0  0  0
  9 80  1  0  0  0  0
  9 81  1  0  0  0  0
 10 82  1  0  0  0  0
 11 10  2  0  0  0  0
 11 83  1  0  0  0  0
 12 84  1  0  0  0  0
 12 85  1  0  0  0  0
 13 86  1  0  0  0  0
 13 87  1  0  0  0  0
 14 88  1  0  0  0  0
 14 89  1  0  0  0  0
 15 90  1  0  0  0  0
 15 91  1  0  0  0  0
 16 92  1  0  0  0  0
 16 93  1  0  0  0  0
 17 94  1  0  0  0  0
 17 95  1  0  0  0  0
 18 12  1  0  0  0  0
 18 96  1  0  0  0  0
 19 12  1  0  0  0  0
 19 97  1  0  0  0  0
 19 98  1  0  0  0  0
 20 13  1  0  0  0  0
 21 13  1  0  0  0  0
 21 99  1  0  0  0  0
 21100  1  0  0  0  0
 22 14  1  0  0  0  0
 23 14  1  0  0  0  0
 23101  1  0  0  0  0
 23102  1  0  0  0  0
 24 15  1  0  0  0  0
 25 15  1  0  0  0  0
 25103  1  0  0  0  0
 25104  1  0  0  0  0
 26 16  1  0  0  0  0
 27 16  1  0  0  0  0
 27105  1  0  0  0  0
 27106  1  0  0  0  0
 28 17  1  0  0  0  0
 29 17  1  0  0  0  0
 29107  1  0  0  0  0
 29108  1  0  0  0  0
 30 10  1  0  0  0  0
 30109  1  0  0  0  0
 31 11  1  0  0  0  0
 31110  1  0  0  0  0
 33 32  1  0  0  0  0
 33111  1  0  0  0  0
 33112  1  0  0  0  0
 34  1  1  0  0  0  0
 34  2  1  0  0  0  0
 34 18  2  0  0  0  0
 35  3  1  0  0  0  0
 35 19  1  0  0  0  0
 35 20  2  0  0  0  0
 36  4  1  0  0  0  0
 36 21  1  0  0  0  0
 36 22  2  0  0  0  0
 37  5  1  0  0  0  0
 37 23  1  0  0  0  0
 37 24  2  0  0  0  0
 38  6  1  0  0  0  0
 38 25  1  0  0  0  0
 38 26  2  0  0  0  0
 39  7  1  0  0  0  0
 39 27  1  0  0  0  0
 39 28  2  0  0  0  0
 40  8  1  0  0  0  0
 40 29  1  0  0  0  0
 40 32  2  0  0  0  0
 41  9  1  0  0  0  0
 42 33  1  0  0  0  0
 42 41  2  0  0  0  0
 43 30  2  0  0  0  0
 44 31  2  0  0  0  0
 44 43  1  0  0  0  0
 45 41  1  0  0  0  0
 45 43  1  0  0  0  0
 46 42  1  0  0  0  0
 46 44  1  0  0  0  0
 47 45  2  0  0  0  0
 48 46  2  0  0  0  0
 49 20  1  0  0  0  0
 50 22  1  0  0  0  0
 51 24  1  0  0  0  0
 52 26  1  0  0  0  0
 53 28  1  0  0  0  0
 54 32  1  0  0  0  0
M  END
>  <DRUGBANK_ID>
DB13075

>  <COMMON_NAME>
Menaquinone 7

>  <CAS_NUMBER>
2124-57-4

>  <UNII>
8427BML8NY

>  <SYNONYMS>
Menaquinone-7

$$$$
