
 OpenBabel10282417072D

 33 35  0  0  0  0  0  0  0  0999 V2000
    0.7145   -4.5375    0.0000 C   0  0  0  0  0  0  0  0  0  0  0  0
    0.7145   -5.3625    0.0000 C   0  0  0  0  0  0  0  0  0  0  0  0
    1.3819   -5.8474    0.0000 N   0  0  0  0  0  0  0  0  0  0  0  0
    1.1270   -6.6320    0.0000 C   0  0  0  0  0  0  0  0  0  0  0  0
    0.3020   -6.6320    0.0000 C   0  0  0  0  0  0  0  0  0  0  0  0
    0.0470   -5.8474    0.0000 S   0  0  0  0  0  0  0  0  0  0  0  0
    1.6119   -7.2995    0.0000 C   0  0  0  0  0  0  0  0  0  0  0  0
    2.0968   -7.9669    0.0000 C   0  0  0  0  0  0  0  0  0  0  0  0
    2.5817   -8.6344    0.0000 C   0  0  0  0  0  0  0  0  0  0  0  0
    3.4022   -8.5481    0.0000 C   0  0  0  0  0  0  0  0  0  0  0  0
    3.8871   -9.2156    0.0000 C   0  0  0  0  0  0  0  0  0  0  0  0
    3.5516   -9.9692    0.0000 C   0  0  0  0  0  0  0  0  0  0  0  0
    2.7311  -10.0555    0.0000 N   0  0  0  0  0  0  0  0  0  0  0  0
    2.2462   -9.3880    0.0000 C   0  0  0  0  0  0  0  0  0  0  0  0
    4.0365  -10.6367    0.0000 C   0  0  0  0  0  0  0  0  0  0  0  0
    4.8570  -10.5504    0.0000 C   0  0  0  0  0  0  0  0  0  0  0  0
    5.3419  -11.2179    0.0000 C   0  0  0  0  0  0  0  0  0  0  0  0
    5.0064  -11.9716    0.0000 C   0  0  0  0  0  0  0  0  0  0  0  0
    4.1859  -12.0578    0.0000 C   0  0  0  0  0  0  0  0  0  0  0  0
    3.8503  -12.8115    0.0000 F   0  0  0  0  0  0  0  0  0  0  0  0
    3.7010  -11.3904    0.0000 C   0  0  0  0  0  0  0  0  0  0  0  0
    6.1624  -11.1316    0.0000 C   0  0  0  0  0  0  0  0  0  0  0  0
    6.9829  -11.0454    0.0000 N   0  0  0  0  0  0  0  0  0  0  0  0
    1.6411   -4.0025    0.0000 H   0  0  0  0  0  0  0  0  0  0  0  0
   -0.2121   -4.0025    0.0000 H   0  0  0  0  0  0  0  0  0  0  0  0
    0.7145   -3.4675    0.0000 H   0  0  0  0  0  0  0  0  0  0  0  0
   -0.3046   -7.4669    0.0000 H   0  0  0  0  0  0  0  0  0  0  0  0
    3.8219   -7.6053    0.0000 H   0  0  0  0  0  0  0  0  0  0  0  0
    4.9134   -9.1077    0.0000 H   0  0  0  0  0  0  0  0  0  0  0  0
    1.2199   -9.4959    0.0000 H   0  0  0  0  0  0  0  0  0  0  0  0
    5.2767   -9.6076    0.0000 H   0  0  0  0  0  0  0  0  0  0  0  0
    5.6130  -12.8065    0.0000 H   0  0  0  0  0  0  0  0  0  0  0  0
    2.6747  -11.4983    0.0000 H   0  0  0  0  0  0  0  0  0  0  0  0
  1  2  1  0  0  0  0
  1 24  1  0  0  0  0
  1 25  1  0  0  0  0
  1 26  1  0  0  0  0
  2  3  2  0  0  0  0
  2  6  1  0  0  0  0
  3  4  1  0  0  0  0
  4  5  2  0  0  0  0
  4  7  1  0  0  0  0
  5  6  1  0  0  0  0
  5 27  1  0  0  0  0
  7  8  3  0  0  0  0
  8  9  1  0  0  0  0
  9 10  2  0  0  0  0
  9 14  1  0  0  0  0
 10 11  1  0  0  0  0
 10 28  1  0  0  0  0
 11 12  2  0  0  0  0
 11 29  1  0  0  0  0
 12 13  1  0  0  0  0
 12 15  1  0  0  0  0
 13 14  2  0  0  0  0
 14 30  1  0  0  0  0
 15 16  2  0  0  0  0
 15 21  1  0  0  0  0
 16 17  1  0  0  0  0
 16 31  1  0  0  0  0
 17 18  2  0  0  0  0
 17 22  1  0  0  0  0
 18 19  1  0  0  0  0
 18 32  1  0  0  0  0
 19 20  1  0  0  0  0
 19 21  2  0  0  0  0
 21 33  1  0  0  0  0
 22 23  3  0  0  0  0
M  END
>  <DRUGBANK_ID>
DB16943

>  <COMMON_NAME>
STX-107

>  <CAS_NUMBER>
935685-90-8

>  <UNII>
O55CA1TU5D

>  <SYNONYMS>
3-Fluoro-5-(5-((2-methylthiazol-4-yl)ethynyl)pyridin-2-yl)benzonitrile; 3-fluoro-5-[5-[2-(2-methyl-1,3-thiazol-4-yl)ethynyl]pyridin-2-yl]benzonitrile

$$$$
