PHN
 OpenBabel10282417072D

 22 24  0  0  0  0  0  0  0  0999 V2000
   -0.7234   -1.0204    0.0000 N   0  0  0  0  0  0  0  0  0  0  0  0
   -1.5484   -1.0204    0.0000 C   0  0  0  0  0  0  0  0  0  0  0  0
   -1.9609   -0.3059    0.0000 C   0  0  0  0  0  0  0  0  0  0  0  0
   -1.5484    0.4086    0.0000 C   0  0  0  0  0  0  0  0  0  0  0  0
   -0.7234    0.4086    0.0000 C   0  0  0  0  0  0  0  0  0  0  0  0
   -0.3109    1.1230    0.0000 C   0  0  0  0  0  0  0  0  0  0  0  0
    0.5141    1.1230    0.0000 C   0  0  0  0  0  0  0  0  0  0  0  0
    0.9266    0.4086    0.0000 C   0  0  0  0  0  0  0  0  0  0  0  0
    1.7516    0.4086    0.0000 C   0  0  0  0  0  0  0  0  0  0  0  0
    2.1641   -0.3059    0.0000 C   0  0  0  0  0  0  0  0  0  0  0  0
    1.7516   -1.0204    0.0000 C   0  0  0  0  0  0  0  0  0  0  0  0
    0.9266   -1.0204    0.0000 N   0  0  0  0  0  0  0  0  0  0  0  0
    0.5141   -0.3059    0.0000 C   0  0  0  0  0  0  0  0  0  0  0  0
   -0.3109   -0.3059    0.0000 C   0  0  0  0  0  0  0  0  0  0  0  0
   -2.0644   -1.9141    0.0000 H   0  0  0  0  0  0  0  0  0  0  0  0
   -2.9929   -0.3059    0.0000 H   0  0  0  0  0  0  0  0  0  0  0  0
   -2.0644    1.3023    0.0000 H   0  0  0  0  0  0  0  0  0  0  0  0
   -0.8269    2.0167    0.0000 H   0  0  0  0  0  0  0  0  0  0  0  0
    1.0301    2.0167    0.0000 H   0  0  0  0  0  0  0  0  0  0  0  0
    2.2676    1.3023    0.0000 H   0  0  0  0  0  0  0  0  0  0  0  0
    3.1961   -0.3059    0.0000 H   0  0  0  0  0  0  0  0  0  0  0  0
    2.2676   -1.9141    0.0000 H   0  0  0  0  0  0  0  0  0  0  0  0
  1  2  2  0  0  0  0
  1 14  1  0  0  0  0
  2  3  1  0  0  0  0
  2 15  1  0  0  0  0
  3  4  2  0  0  0  0
  3 16  1  0  0  0  0
  4  5  1  0  0  0  0
  4 17  1  0  0  0  0
  5  6  2  0  0  0  0
  5 14  1  0  0  0  0
  6  7  1  0  0  0  0
  6 18  1  0  0  0  0
  7  8  2  0  0  0  0
  7 19  1  0  0  0  0
  8  9  1  0  0  0  0
  8 13  1  0  0  0  0
  9 10  2  0  0  0  0
  9 20  1  0  0  0  0
 10 11  1  0  0  0  0
 10 21  1  0  0  0  0
 11 12  2  0  0  0  0
 11 22  1  0  0  0  0
 12 13  1  0  0  0  0
 13 14  2  0  0  0  0
M  END
>  <DRUGBANK_ID>
DB02365

>  <SECONDARY_ACCESSION_NUMBERS>
EXPT02592

>  <COMMON_NAME>
1,10-Phenanthroline

>  <CAS_NUMBER>
66-71-7

>  <UNII>
W4X6ZO7939

>  <SYNONYMS>
O-Phenanthroline

$$$$
