
 OpenBabel10282417072D

247247  0  0  0  0  0  0  0  0999 V2000
  101.4549  -53.6250    0.0000 C   0  0  0  0  0  0  0  0  0  0  0  0
  101.1529  -52.4980    0.0000 C   0  0  0  0  0  0  0  0  0  0  0  0
  100.3279  -53.9270    0.0000 C   0  0  0  0  0  0  0  0  0  0  0  0
   98.8990  -52.4980    0.0000 C   0  0  0  0  0  0  0  0  0  0  0  0
   99.7240  -53.9270    0.0000 C   0  0  0  0  0  0  0  0  0  0  0  0
   97.8825  -53.2125    0.0000 C   0  0  0  0  0  0  0  0  0  0  0  0
   98.5970  -54.4500    0.0000 C   0  0  0  0  0  0  0  0  0  0  0  0
   97.1681  -53.6250    0.0000 C   0  0  0  0  0  0  0  0  0  0  0  0
   97.8825  -54.8625    0.0000 C   0  0  0  0  0  0  0  0  0  0  0  0
   32.8657  -54.4500    0.0000 C   0  0  0  0  0  0  0  0  0  0  0  0
   33.5801  -54.8625    0.0000 C   0  0  0  0  0  0  0  0  0  0  0  0
   35.0091  -54.8625    0.0000 C   0  0  0  0  0  0  0  0  0  0  0  0
   35.7235  -54.4500    0.0000 C   0  0  0  0  0  0  0  0  0  0  0  0
   37.1525  -54.4500    0.0000 C   0  0  0  0  0  0  0  0  0  0  0  0
   37.8670  -54.8625    0.0000 C   0  0  0  0  0  0  0  0  0  0  0  0
   39.2959  -54.8625    0.0000 C   0  0  0  0  0  0  0  0  0  0  0  0
   40.0104  -54.4500    0.0000 C   0  0  0  0  0  0  0  0  0  0  0  0
   41.4393  -54.4500    0.0000 C   0  0  0  0  0  0  0  0  0  0  0  0
   42.1538  -54.8625    0.0000 C   0  0  0  0  0  0  0  0  0  0  0  0
   43.5827  -54.8625    0.0000 C   0  0  0  0  0  0  0  0  0  0  0  0
   44.2972  -54.4500    0.0000 C   0  0  0  0  0  0  0  0  0  0  0  0
   45.7261  -54.4500    0.0000 C   0  0  0  0  0  0  0  0  0  0  0  0
   46.4406  -54.8625    0.0000 C   0  0  0  0  0  0  0  0  0  0  0  0
   47.8696  -54.8625    0.0000 C   0  0  0  0  0  0  0  0  0  0  0  0
   48.5840  -54.4500    0.0000 C   0  0  0  0  0  0  0  0  0  0  0  0
   50.0130  -54.4500    0.0000 C   0  0  0  0  0  0  0  0  0  0  0  0
   50.7274  -54.8625    0.0000 C   0  0  0  0  0  0  0  0  0  0  0  0
   52.1564  -54.8625    0.0000 C   0  0  0  0  0  0  0  0  0  0  0  0
   52.8709  -54.4500    0.0000 C   0  0  0  0  0  0  0  0  0  0  0  0
   54.2998  -54.4500    0.0000 C   0  0  0  0  0  0  0  0  0  0  0  0
   55.0143  -54.8625    0.0000 C   0  0  0  0  0  0  0  0  0  0  0  0
   56.4432  -54.8625    0.0000 C   0  0  0  0  0  0  0  0  0  0  0  0
   57.1577  -54.4500    0.0000 C   0  0  0  0  0  0  0  0  0  0  0  0
   58.5866  -54.4500    0.0000 C   0  0  0  0  0  0  0  0  0  0  0  0
   59.3011  -54.8625    0.0000 C   0  0  0  0  0  0  0  0  0  0  0  0
   60.7300  -54.8625    0.0000 C   0  0  0  0  0  0  0  0  0  0  0  0
   61.4445  -54.4500    0.0000 C   0  0  0  0  0  0  0  0  0  0  0  0
   62.8734  -54.4500    0.0000 C   0  0  0  0  0  0  0  0  0  0  0  0
   63.5879  -54.8625    0.0000 C   0  0  0  0  0  0  0  0  0  0  0  0
   65.0169  -54.8625    0.0000 C   0  0  0  0  0  0  0  0  0  0  0  0
   65.7313  -54.4500    0.0000 C   0  0  0  0  0  0  0  0  0  0  0  0
   67.1603  -54.4500    0.0000 C   0  0  0  0  0  0  0  0  0  0  0  0
   67.8747  -54.8625    0.0000 C   0  0  0  0  0  0  0  0  0  0  0  0
   69.3037  -54.8625    0.0000 C   0  0  0  0  0  0  0  0  0  0  0  0
   70.0182  -54.4500    0.0000 C   0  0  0  0  0  0  0  0  0  0  0  0
   71.4471  -54.4500    0.0000 C   0  0  0  0  0  0  0  0  0  0  0  0
   72.1616  -54.8625    0.0000 C   0  0  0  0  0  0  0  0  0  0  0  0
   73.5905  -54.8625    0.0000 C   0  0  0  0  0  0  0  0  0  0  0  0
   74.3050  -54.4500    0.0000 C   0  0  0  0  0  0  0  0  0  0  0  0
   75.7339  -54.4500    0.0000 C   0  0  0  0  0  0  0  0  0  0  0  0
   76.4484  -54.8625    0.0000 C   0  0  0  0  0  0  0  0  0  0  0  0
   77.8773  -54.8625    0.0000 C   0  0  0  0  0  0  0  0  0  0  0  0
   78.5918  -54.4500    0.0000 C   0  0  0  0  0  0  0  0  0  0  0  0
   80.0207  -54.4500    0.0000 C   0  0  0  0  0  0  0  0  0  0  0  0
   80.7352  -54.8625    0.0000 C   0  0  0  0  0  0  0  0  0  0  0  0
   82.1642  -54.8625    0.0000 C   0  0  0  0  0  0  0  0  0  0  0  0
   82.8786  -54.4500    0.0000 C   0  0  0  0  0  0  0  0  0  0  0  0
   84.3076  -54.4500    0.0000 C   0  0  0  0  0  0  0  0  0  0  0  0
   85.0220  -54.8625    0.0000 C   0  0  0  0  0  0  0  0  0  0  0  0
   86.4510  -54.8625    0.0000 C   0  0  0  0  0  0  0  0  0  0  0  0
   87.1655  -54.4500    0.0000 C   0  0  0  0  0  0  0  0  0  0  0  0
   88.5944  -54.4500    0.0000 C   0  0  0  0  0  0  0  0  0  0  0  0
   89.3089  -54.8625    0.0000 C   0  0  0  0  0  0  0  0  0  0  0  0
   90.7378  -54.8625    0.0000 C   0  0  0  0  0  0  0  0  0  0  0  0
   91.4523  -54.4500    0.0000 C   0  0  0  0  0  0  0  0  0  0  0  0
   92.8812  -54.4500    0.0000 C   0  0  0  0  0  0  0  0  0  0  0  0
   93.5957  -54.8625    0.0000 C   0  0  0  0  0  0  0  0  0  0  0  0
   95.0246  -54.8625    0.0000 C   0  0  0  0  0  0  0  0  0  0  0  0
   95.7391  -54.4500    0.0000 C   0  0  0  0  0  0  0  0  0  0  0  0
  100.0259  -52.8000    0.0000 C   0  0  0  0  0  0  0  0  0  0  0  0
   98.5970  -53.6250    0.0000 C   0  0  0  0  0  0  0  0  0  0  0  0
   97.1681  -54.4500    0.0000 C   0  0  0  0  0  0  0  0  0  0  0  0
  100.7404  -53.2125    0.0000 C   0  0  0  0  0  0  0  0  0  0  0  0
   99.3115  -53.2125    0.0000 C   0  0  0  0  0  0  0  0  0  0  0  0
   32.1512  -54.8625    0.0000 O   0  0  0  0  0  0  0  0  0  0  0  0
   34.2946  -54.4500    0.0000 O   0  0  0  0  0  0  0  0  0  0  0  0
   36.4380  -54.8625    0.0000 O   0  0  0  0  0  0  0  0  0  0  0  0
   38.5814  -54.4500    0.0000 O   0  0  0  0  0  0  0  0  0  0  0  0
   40.7248  -54.8625    0.0000 O   0  0  0  0  0  0  0  0  0  0  0  0
   42.8683  -54.4500    0.0000 O   0  0  0  0  0  0  0  0  0  0  0  0
   45.0117  -54.8625    0.0000 O   0  0  0  0  0  0  0  0  0  0  0  0
   47.1551  -54.4500    0.0000 O   0  0  0  0  0  0  0  0  0  0  0  0
   49.2985  -54.8625    0.0000 O   0  0  0  0  0  0  0  0  0  0  0  0
   51.4419  -54.4500    0.0000 O   0  0  0  0  0  0  0  0  0  0  0  0
   53.5853  -54.8625    0.0000 O   0  0  0  0  0  0  0  0  0  0  0  0
   55.7287  -54.4500    0.0000 O   0  0  0  0  0  0  0  0  0  0  0  0
   57.8721  -54.8625    0.0000 O   0  0  0  0  0  0  0  0  0  0  0  0
   60.0156  -54.4500    0.0000 O   0  0  0  0  0  0  0  0  0  0  0  0
   62.1590  -54.8625    0.0000 O   0  0  0  0  0  0  0  0  0  0  0  0
   64.3024  -54.4500    0.0000 O   0  0  0  0  0  0  0  0  0  0  0  0
   66.4458  -54.8625    0.0000 O   0  0  0  0  0  0  0  0  0  0  0  0
   68.5892  -54.4500    0.0000 O   0  0  0  0  0  0  0  0  0  0  0  0
   70.7326  -54.8625    0.0000 O   0  0  0  0  0  0  0  0  0  0  0  0
   72.8760  -54.4500    0.0000 O   0  0  0  0  0  0  0  0  0  0  0  0
   75.0195  -54.8625    0.0000 O   0  0  0  0  0  0  0  0  0  0  0  0
   77.1629  -54.4500    0.0000 O   0  0  0  0  0  0  0  0  0  0  0  0
   79.3063  -54.8625    0.0000 O   0  0  0  0  0  0  0  0  0  0  0  0
   81.4497  -54.4500    0.0000 O   0  0  0  0  0  0  0  0  0  0  0  0
   83.5931  -54.8625    0.0000 O   0  0  0  0  0  0  0  0  0  0  0  0
   85.7365  -54.4500    0.0000 O   0  0  0  0  0  0  0  0  0  0  0  0
   87.8799  -54.8625    0.0000 O   0  0  0  0  0  0  0  0  0  0  0  0
   90.0233  -54.4500    0.0000 O   0  0  0  0  0  0  0  0  0  0  0  0
   92.1668  -54.8625    0.0000 O   0  0  0  0  0  0  0  0  0  0  0  0
   94.3102  -54.4500    0.0000 O   0  0  0  0  0  0  0  0  0  0  0  0
   96.4536  -54.8625    0.0000 O   0  0  0  0  0  0  0  0  0  0  0  0
  101.4549  -54.6950    0.0000 H   0  0  0  0  0  0  0  0  0  0  0  0
  102.3815  -53.0900    0.0000 H   0  0  0  0  0  0  0  0  0  0  0  0
  102.3816  -54.1600    0.0000 H   0  0  0  0  0  0  0  0  0  0  0  0
  102.2229  -52.4980    0.0000 H   0  0  0  0  0  0  0  0  0  0  0  0
  100.6179  -51.5714    0.0000 H   0  0  0  0  0  0  0  0  0  0  0  0
  101.6879  -51.5713    0.0000 H   0  0  0  0  0  0  0  0  0  0  0  0
   99.2579  -53.9270    0.0000 H   0  0  0  0  0  0  0  0  0  0  0  0
  100.8629  -54.8536    0.0000 H   0  0  0  0  0  0  0  0  0  0  0  0
   99.7929  -54.8537    0.0000 H   0  0  0  0  0  0  0  0  0  0  0  0
   99.4340  -51.5714    0.0000 H   0  0  0  0  0  0  0  0  0  0  0  0
   97.8290  -52.4980    0.0000 H   0  0  0  0  0  0  0  0  0  0  0  0
   98.3640  -51.5713    0.0000 H   0  0  0  0  0  0  0  0  0  0  0  0
   99.1890  -54.8536    0.0000 H   0  0  0  0  0  0  0  0  0  0  0  0
  100.7940  -53.9270    0.0000 H   0  0  0  0  0  0  0  0  0  0  0  0
  100.2590  -54.8537    0.0000 H   0  0  0  0  0  0  0  0  0  0  0  0
   97.8825  -52.1805    0.0000 H   0  0  0  0  0  0  0  0  0  0  0  0
   99.4907  -54.9660    0.0000 H   0  0  0  0  0  0  0  0  0  0  0  0
   96.2744  -53.1090    0.0000 H   0  0  0  0  0  0  0  0  0  0  0  0
   97.8825  -55.8945    0.0000 H   0  0  0  0  0  0  0  0  0  0  0  0
   32.8657  -53.3800    0.0000 H   0  0  0  0  0  0  0  0  0  0  0  0
   31.9391  -53.9150    0.0000 H   0  0  0  0  0  0  0  0  0  0  0  0
   33.5801  -55.9325    0.0000 H   0  0  0  0  0  0  0  0  0  0  0  0
   34.5067  -55.3975    0.0000 H   0  0  0  0  0  0  0  0  0  0  0  0
   35.0091  -55.9325    0.0000 H   0  0  0  0  0  0  0  0  0  0  0  0
   34.0825  -55.3975    0.0000 H   0  0  0  0  0  0  0  0  0  0  0  0
   35.7235  -53.3800    0.0000 H   0  0  0  0  0  0  0  0  0  0  0  0
   36.6501  -53.9150    0.0000 H   0  0  0  0  0  0  0  0  0  0  0  0
   37.1525  -53.3800    0.0000 H   0  0  0  0  0  0  0  0  0  0  0  0
   36.2259  -53.9150    0.0000 H   0  0  0  0  0  0  0  0  0  0  0  0
   37.8670  -55.9325    0.0000 H   0  0  0  0  0  0  0  0  0  0  0  0
   38.7937  -55.3975    0.0000 H   0  0  0  0  0  0  0  0  0  0  0  0
   39.2959  -55.9325    0.0000 H   0  0  0  0  0  0  0  0  0  0  0  0
   38.3693  -55.3975    0.0000 H   0  0  0  0  0  0  0  0  0  0  0  0
   40.0104  -53.3800    0.0000 H   0  0  0  0  0  0  0  0  0  0  0  0
   40.9371  -53.9150    0.0000 H   0  0  0  0  0  0  0  0  0  0  0  0
   41.4393  -53.3800    0.0000 H   0  0  0  0  0  0  0  0  0  0  0  0
   40.5127  -53.9150    0.0000 H   0  0  0  0  0  0  0  0  0  0  0  0
   42.1538  -55.9325    0.0000 H   0  0  0  0  0  0  0  0  0  0  0  0
   43.0804  -55.3975    0.0000 H   0  0  0  0  0  0  0  0  0  0  0  0
   43.5827  -55.9325    0.0000 H   0  0  0  0  0  0  0  0  0  0  0  0
   42.6560  -55.3975    0.0000 H   0  0  0  0  0  0  0  0  0  0  0  0
   44.2972  -53.3800    0.0000 H   0  0  0  0  0  0  0  0  0  0  0  0
   45.2238  -53.9150    0.0000 H   0  0  0  0  0  0  0  0  0  0  0  0
   45.7261  -53.3800    0.0000 H   0  0  0  0  0  0  0  0  0  0  0  0
   44.7994  -53.9150    0.0000 H   0  0  0  0  0  0  0  0  0  0  0  0
   46.4406  -55.9325    0.0000 H   0  0  0  0  0  0  0  0  0  0  0  0
   47.3672  -55.3975    0.0000 H   0  0  0  0  0  0  0  0  0  0  0  0
   47.8696  -55.9325    0.0000 H   0  0  0  0  0  0  0  0  0  0  0  0
   46.9430  -55.3975    0.0000 H   0  0  0  0  0  0  0  0  0  0  0  0
   48.5840  -53.3800    0.0000 H   0  0  0  0  0  0  0  0  0  0  0  0
   49.5106  -53.9150    0.0000 H   0  0  0  0  0  0  0  0  0  0  0  0
   50.0130  -53.3800    0.0000 H   0  0  0  0  0  0  0  0  0  0  0  0
   49.0864  -53.9150    0.0000 H   0  0  0  0  0  0  0  0  0  0  0  0
   50.7274  -55.9325    0.0000 H   0  0  0  0  0  0  0  0  0  0  0  0
   51.6540  -55.3975    0.0000 H   0  0  0  0  0  0  0  0  0  0  0  0
   52.1564  -55.9325    0.0000 H   0  0  0  0  0  0  0  0  0  0  0  0
   51.2298  -55.3975    0.0000 H   0  0  0  0  0  0  0  0  0  0  0  0
   52.8709  -53.3800    0.0000 H   0  0  0  0  0  0  0  0  0  0  0  0
   53.7976  -53.9150    0.0000 H   0  0  0  0  0  0  0  0  0  0  0  0
   54.2998  -53.3800    0.0000 H   0  0  0  0  0  0  0  0  0  0  0  0
   53.3732  -53.9150    0.0000 H   0  0  0  0  0  0  0  0  0  0  0  0
   55.0143  -55.9325    0.0000 H   0  0  0  0  0  0  0  0  0  0  0  0
   55.9410  -55.3975    0.0000 H   0  0  0  0  0  0  0  0  0  0  0  0
   56.4432  -55.9325    0.0000 H   0  0  0  0  0  0  0  0  0  0  0  0
   55.5166  -55.3975    0.0000 H   0  0  0  0  0  0  0  0  0  0  0  0
   57.1577  -53.3800    0.0000 H   0  0  0  0  0  0  0  0  0  0  0  0
   58.0844  -53.9150    0.0000 H   0  0  0  0  0  0  0  0  0  0  0  0
   58.5866  -53.3800    0.0000 H   0  0  0  0  0  0  0  0  0  0  0  0
   57.6600  -53.9150    0.0000 H   0  0  0  0  0  0  0  0  0  0  0  0
   59.3011  -55.9325    0.0000 H   0  0  0  0  0  0  0  0  0  0  0  0
   60.2277  -55.3975    0.0000 H   0  0  0  0  0  0  0  0  0  0  0  0
   60.7300  -55.9325    0.0000 H   0  0  0  0  0  0  0  0  0  0  0  0
   59.8033  -55.3975    0.0000 H   0  0  0  0  0  0  0  0  0  0  0  0
   61.4445  -53.3800    0.0000 H   0  0  0  0  0  0  0  0  0  0  0  0
   62.3711  -53.9150    0.0000 H   0  0  0  0  0  0  0  0  0  0  0  0
   62.8734  -53.3800    0.0000 H   0  0  0  0  0  0  0  0  0  0  0  0
   61.9467  -53.9150    0.0000 H   0  0  0  0  0  0  0  0  0  0  0  0
   63.5879  -55.9325    0.0000 H   0  0  0  0  0  0  0  0  0  0  0  0
   64.5145  -55.3975    0.0000 H   0  0  0  0  0  0  0  0  0  0  0  0
   65.0169  -55.9325    0.0000 H   0  0  0  0  0  0  0  0  0  0  0  0
   64.0903  -55.3975    0.0000 H   0  0  0  0  0  0  0  0  0  0  0  0
   65.7313  -53.3800    0.0000 H   0  0  0  0  0  0  0  0  0  0  0  0
   66.6579  -53.9150    0.0000 H   0  0  0  0  0  0  0  0  0  0  0  0
   67.1603  -53.3800    0.0000 H   0  0  0  0  0  0  0  0  0  0  0  0
   66.2337  -53.9150    0.0000 H   0  0  0  0  0  0  0  0  0  0  0  0
   67.8747  -55.9325    0.0000 H   0  0  0  0  0  0  0  0  0  0  0  0
   68.8013  -55.3975    0.0000 H   0  0  0  0  0  0  0  0  0  0  0  0
   69.3037  -55.9325    0.0000 H   0  0  0  0  0  0  0  0  0  0  0  0
   68.3771  -55.3975    0.0000 H   0  0  0  0  0  0  0  0  0  0  0  0
   70.0182  -53.3800    0.0000 H   0  0  0  0  0  0  0  0  0  0  0  0
   70.9449  -53.9150    0.0000 H   0  0  0  0  0  0  0  0  0  0  0  0
   71.4471  -53.3800    0.0000 H   0  0  0  0  0  0  0  0  0  0  0  0
   70.5205  -53.9150    0.0000 H   0  0  0  0  0  0  0  0  0  0  0  0
   72.1616  -55.9325    0.0000 H   0  0  0  0  0  0  0  0  0  0  0  0
   73.0883  -55.3975    0.0000 H   0  0  0  0  0  0  0  0  0  0  0  0
   73.5905  -55.9325    0.0000 H   0  0  0  0  0  0  0  0  0  0  0  0
   72.6639  -55.3975    0.0000 H   0  0  0  0  0  0  0  0  0  0  0  0
   74.3050  -53.3800    0.0000 H   0  0  0  0  0  0  0  0  0  0  0  0
   75.2316  -53.9150    0.0000 H   0  0  0  0  0  0  0  0  0  0  0  0
   75.7339  -53.3800    0.0000 H   0  0  0  0  0  0  0  0  0  0  0  0
   74.8072  -53.9150    0.0000 H   0  0  0  0  0  0  0  0  0  0  0  0
   76.4484  -55.9325    0.0000 H   0  0  0  0  0  0  0  0  0  0  0  0
   77.3750  -55.3975    0.0000 H   0  0  0  0  0  0  0  0  0  0  0  0
   77.8773  -55.9325    0.0000 H   0  0  0  0  0  0  0  0  0  0  0  0
   76.9506  -55.3975    0.0000 H   0  0  0  0  0  0  0  0  0  0  0  0
   78.5918  -53.3800    0.0000 H   0  0  0  0  0  0  0  0  0  0  0  0
   79.5184  -53.9150    0.0000 H   0  0  0  0  0  0  0  0  0  0  0  0
   80.0207  -53.3800    0.0000 H   0  0  0  0  0  0  0  0  0  0  0  0
   79.0940  -53.9150    0.0000 H   0  0  0  0  0  0  0  0  0  0  0  0
   80.7352  -55.9325    0.0000 H   0  0  0  0  0  0  0  0  0  0  0  0
   81.6618  -55.3975    0.0000 H   0  0  0  0  0  0  0  0  0  0  0  0
   82.1642  -55.9325    0.0000 H   0  0  0  0  0  0  0  0  0  0  0  0
   81.2376  -55.3975    0.0000 H   0  0  0  0  0  0  0  0  0  0  0  0
   82.8786  -53.3800    0.0000 H   0  0  0  0  0  0  0  0  0  0  0  0
   83.8052  -53.9150    0.0000 H   0  0  0  0  0  0  0  0  0  0  0  0
   84.3076  -53.3800    0.0000 H   0  0  0  0  0  0  0  0  0  0  0  0
   83.3810  -53.9150    0.0000 H   0  0  0  0  0  0  0  0  0  0  0  0
   85.0220  -55.9325    0.0000 H   0  0  0  0  0  0  0  0  0  0  0  0
   85.9486  -55.3975    0.0000 H   0  0  0  0  0  0  0  0  0  0  0  0
   86.4510  -55.9325    0.0000 H   0  0  0  0  0  0  0  0  0  0  0  0
   85.5244  -55.3975    0.0000 H   0  0  0  0  0  0  0  0  0  0  0  0
   87.1655  -53.3800    0.0000 H   0  0  0  0  0  0  0  0  0  0  0  0
   88.0922  -53.9150    0.0000 H   0  0  0  0  0  0  0  0  0  0  0  0
   88.5944  -53.3800    0.0000 H   0  0  0  0  0  0  0  0  0  0  0  0
   87.6678  -53.9150    0.0000 H   0  0  0  0  0  0  0  0  0  0  0  0
   89.3089  -55.9325    0.0000 H   0  0  0  0  0  0  0  0  0  0  0  0
   90.2356  -55.3975    0.0000 H   0  0  0  0  0  0  0  0  0  0  0  0
   90.7378  -55.9325    0.0000 H   0  0  0  0  0  0  0  0  0  0  0  0
   89.8112  -55.3975    0.0000 H   0  0  0  0  0  0  0  0  0  0  0  0
   91.4523  -53.3800    0.0000 H   0  0  0  0  0  0  0  0  0  0  0  0
   92.3789  -53.9150    0.0000 H   0  0  0  0  0  0  0  0  0  0  0  0
   92.8812  -53.3800    0.0000 H   0  0  0  0  0  0  0  0  0  0  0  0
   91.9545  -53.9150    0.0000 H   0  0  0  0  0  0  0  0  0  0  0  0
   93.5957  -55.9325    0.0000 H   0  0  0  0  0  0  0  0  0  0  0  0
   94.5223  -55.3975    0.0000 H   0  0  0  0  0  0  0  0  0  0  0  0
   95.0246  -55.9325    0.0000 H   0  0  0  0  0  0  0  0  0  0  0  0
   94.0979  -55.3975    0.0000 H   0  0  0  0  0  0  0  0  0  0  0  0
   95.7391  -53.3800    0.0000 H   0  0  0  0  0  0  0  0  0  0  0  0
   96.6657  -53.9150    0.0000 H   0  0  0  0  0  0  0  0  0  0  0  0
  100.0259  -51.7300    0.0000 H   0  0  0  0  0  0  0  0  0  0  0  0
   99.0992  -52.2650    0.0000 H   0  0  0  0  0  0  0  0  0  0  0  0
   31.3112  -54.3775    0.0000 H   0  0  0  0  0  0  0  0  0  0  0  0
  1106  1  0  0  0  0
  1107  1  0  0  0  0
  1108  1  0  0  0  0
  2109  1  0  0  0  0
  2110  1  0  0  0  0
  2111  1  0  0  0  0
  3112  1  0  0  0  0
  3113  1  0  0  0  0
  3114  1  0  0  0  0
  4115  1  0  0  0  0
  4116  1  0  0  0  0
  4117  1  0  0  0  0
  5118  1  0  0  0  0
  5119  1  0  0  0  0
  5120  1  0  0  0  0
  6121  1  0  0  0  0
  7122  1  0  0  0  0
  8  6  1  0  0  0  0
  8123  1  0  0  0  0
  9  7  2  0  0  0  0
  9124  1  0  0  0  0
 10125  1  0  0  0  0
 10126  1  0  0  0  0
 11 10  1  0  0  0  0
 11127  1  0  0  0  0
 11128  1  0  0  0  0
 12129  1  0  0  0  0
 12130  1  0  0  0  0
 13 12  1  0  0  0  0
 13131  1  0  0  0  0
 13132  1  0  0  0  0
 14133  1  0  0  0  0
 14134  1  0  0  0  0
 15 14  1  0  0  0  0
 15135  1  0  0  0  0
 15136  1  0  0  0  0
 16137  1  0  0  0  0
 16138  1  0  0  0  0
 17 16  1  0  0  0  0
 17139  1  0  0  0  0
 17140  1  0  0  0  0
 18141  1  0  0  0  0
 18142  1  0  0  0  0
 19 18  1  0  0  0  0
 19143  1  0  0  0  0
 19144  1  0  0  0  0
 20145  1  0  0  0  0
 20146  1  0  0  0  0
 21 20  1  0  0  0  0
 21147  1  0  0  0  0
 21148  1  0  0  0  0
 22149  1  0  0  0  0
 22150  1  0  0  0  0
 23 22  1  0  0  0  0
 23151  1  0  0  0  0
 23152  1  0  0  0  0
 24153  1  0  0  0  0
 24154  1  0  0  0  0
 25 24  1  0  0  0  0
 25155  1  0  0  0  0
 25156  1  0  0  0  0
 26157  1  0  0  0  0
 26158  1  0  0  0  0
 27 26  1  0  0  0  0
 27159  1  0  0  0  0
 27160  1  0  0  0  0
 28161  1  0  0  0  0
 28162  1  0  0  0  0
 29 28  1  0  0  0  0
 29163  1  0  0  0  0
 29164  1  0  0  0  0
 30165  1  0  0  0  0
 30166  1  0  0  0  0
 31 30  1  0  0  0  0
 31167  1  0  0  0  0
 31168  1  0  0  0  0
 32169  1  0  0  0  0
 32170  1  0  0  0  0
 33 32  1  0  0  0  0
 33171  1  0  0  0  0
 33172  1  0  0  0  0
 34173  1  0  0  0  0
 34174  1  0  0  0  0
 35 34  1  0  0  0  0
 35175  1  0  0  0  0
 35176  1  0  0  0  0
 36177  1  0  0  0  0
 36178  1  0  0  0  0
 37 36  1  0  0  0  0
 37179  1  0  0  0  0
 37180  1  0  0  0  0
 38181  1  0  0  0  0
 38182  1  0  0  0  0
 39 38  1  0  0  0  0
 39183  1  0  0  0  0
 39184  1  0  0  0  0
 40185  1  0  0  0  0
 40186  1  0  0  0  0
 41 40  1  0  0  0  0
 41187  1  0  0  0  0
 41188  1  0  0  0  0
 42189  1  0  0  0  0
 42190  1  0  0  0  0
 43 42  1  0  0  0  0
 43191  1  0  0  0  0
 43192  1  0  0  0  0
 44193  1  0  0  0  0
 44194  1  0  0  0  0
 45 44  1  0  0  0  0
 45195  1  0  0  0  0
 45196  1  0  0  0  0
 46197  1  0  0  0  0
 46198  1  0  0  0  0
 47 46  1  0  0  0  0
 47199  1  0  0  0  0
 47200  1  0  0  0  0
 48201  1  0  0  0  0
 48202  1  0  0  0  0
 49 48  1  0  0  0  0
 49203  1  0  0  0  0
 49204  1  0  0  0  0
 50205  1  0  0  0  0
 50206  1  0  0  0  0
 51 50  1  0  0  0  0
 51207  1  0  0  0  0
 51208  1  0  0  0  0
 52209  1  0  0  0  0
 52210  1  0  0  0  0
 53 52  1  0  0  0  0
 53211  1  0  0  0  0
 53212  1  0  0  0  0
 54213  1  0  0  0  0
 54214  1  0  0  0  0
 55 54  1  0  0  0  0
 55215  1  0  0  0  0
 55216  1  0  0  0  0
 56217  1  0  0  0  0
 56218  1  0  0  0  0
 57 56  1  0  0  0  0
 57219  1  0  0  0  0
 57220  1  0  0  0  0
 58221  1  0  0  0  0
 58222  1  0  0  0  0
 59 58  1  0  0  0  0
 59223  1  0  0  0  0
 59224  1  0  0  0  0
 60225  1  0  0  0  0
 60226  1  0  0  0  0
 61 60  1  0  0  0  0
 61227  1  0  0  0  0
 61228  1  0  0  0  0
 62229  1  0  0  0  0
 62230  1  0  0  0  0
 63 62  1  0  0  0  0
 63231  1  0  0  0  0
 63232  1  0  0  0  0
 64233  1  0  0  0  0
 64234  1  0  0  0  0
 65 64  1  0  0  0  0
 65235  1  0  0  0  0
 65236  1  0  0  0  0
 66237  1  0  0  0  0
 66238  1  0  0  0  0
 67 66  1  0  0  0  0
 67239  1  0  0  0  0
 67240  1  0  0  0  0
 68241  1  0  0  0  0
 68242  1  0  0  0  0
 69 68  1  0  0  0  0
 69243  1  0  0  0  0
 69244  1  0  0  0  0
 70245  1  0  0  0  0
 70246  1  0  0  0  0
 71  6  2  0  0  0  0
 71  7  1  0  0  0  0
 72  8  2  0  0  0  0
 72  9  1  0  0  0  0
 73  1  1  0  0  0  0
 73  2  1  0  0  0  0
 73  3  1  0  0  0  0
 73 70  1  0  0  0  0
 74  4  1  0  0  0  0
 74  5  1  0  0  0  0
 74 70  1  0  0  0  0
 74 71  1  0  0  0  0
 75 10  1  0  0  0  0
 75247  1  0  0  0  0
 76 11  1  0  0  0  0
 76 12  1  0  0  0  0
 77 13  1  0  0  0  0
 77 14  1  0  0  0  0
 78 15  1  0  0  0  0
 78 16  1  0  0  0  0
 79 17  1  0  0  0  0
 79 18  1  0  0  0  0
 80 19  1  0  0  0  0
 80 20  1  0  0  0  0
 81 21  1  0  0  0  0
 81 22  1  0  0  0  0
 82 23  1  0  0  0  0
 82 24  1  0  0  0  0
 83 25  1  0  0  0  0
 83 26  1  0  0  0  0
 84 27  1  0  0  0  0
 84 28  1  0  0  0  0
 85 29  1  0  0  0  0
 85 30  1  0  0  0  0
 86 31  1  0  0  0  0
 86 32  1  0  0  0  0
 87 33  1  0  0  0  0
 87 34  1  0  0  0  0
 88 35  1  0  0  0  0
 88 36  1  0  0  0  0
 89 37  1  0  0  0  0
 89 38  1  0  0  0  0
 90 39  1  0  0  0  0
 90 40  1  0  0  0  0
 91 41  1  0  0  0  0
 91 42  1  0  0  0  0
 92 43  1  0  0  0  0
 92 44  1  0  0  0  0
 93 45  1  0  0  0  0
 93 46  1  0  0  0  0
 94 47  1  0  0  0  0
 94 48  1  0  0  0  0
 95 49  1  0  0  0  0
 95 50  1  0  0  0  0
 96 51  1  0  0  0  0
 96 52  1  0  0  0  0
 97 53  1  0  0  0  0
 97 54  1  0  0  0  0
 98 55  1  0  0  0  0
 98 56  1  0  0  0  0
 99 57  1  0  0  0  0
 99 58  1  0  0  0  0
100 59  1  0  0  0  0
100 60  1  0  0  0  0
101 61  1  0  0  0  0
101 62  1  0  0  0  0
102 63  1  0  0  0  0
102 64  1  0  0  0  0
103 65  1  0  0  0  0
103 66  1  0  0  0  0
104 67  1  0  0  0  0
104 68  1  0  0  0  0
105 69  1  0  0  0  0
105 72  1  0  0  0  0
M  END
>  <DRUGBANK_ID>
DB04682

>  <COMMON_NAME>
Octylphenoxy polyethoxyethanol

>  <CAS_NUMBER>
9036-19-5

>  <UNII>
9T1C662FKS

$$$$
