677
 OpenBabel10282417072D

 43 46  0  0  0  0  0  0  0  0999 V2000
    4.5547   -0.9634    0.0000 F   0  0  0  0  0  0  0  0  0  0  0  0
    3.7477   -0.7919    0.0000 C   0  0  0  0  0  0  0  0  0  0  0  0
    3.4927   -0.0073    0.0000 C   0  0  0  0  0  0  0  0  0  0  0  0
    2.6858    0.1643    0.0000 C   0  0  0  0  0  0  0  0  0  0  0  0
    2.4308    0.9489    0.0000 F   0  0  0  0  0  0  0  0  0  0  0  0
    3.1956   -1.4050    0.0000 C   0  0  0  0  0  0  0  0  0  0  0  0
    3.4506   -2.1896    0.0000 F   0  0  0  0  0  0  0  0  0  0  0  0
    2.3887   -1.2335    0.0000 C   0  0  0  0  0  0  0  0  0  0  0  0
    2.1337   -0.4488    0.0000 C   0  0  0  0  0  0  0  0  0  0  0  0
    1.3268   -0.2773    0.0000 C   0  0  1  0  0  0  0  0  0  0  0  0
    0.7747   -0.8904    0.0000 C   0  0  0  0  0  0  0  0  0  0  0  0
    1.0718    0.5073    0.0000 C   0  0  1  0  0  0  0  0  0  0  0  0
    1.6239    1.1204    0.0000 N   0  0  0  0  0  0  0  0  0  0  0  0
    0.2649    0.6788    0.0000 C   0  0  0  0  0  0  0  0  0  0  0  0
   -0.2872    0.0657    0.0000 N   0  0  0  0  0  0  0  0  0  0  0  0
   -0.0322   -0.7189    0.0000 C   0  0  0  0  0  0  0  0  0  0  0  0
   -0.6997   -1.2038    0.0000 N   0  0  0  0  0  0  0  0  0  0  0  0
   -1.1122    0.0657    0.0000 C   0  0  0  0  0  0  0  0  0  0  0  0
   -1.6642    0.6788    0.0000 C   0  0  0  0  0  0  0  0  0  0  0  0
   -2.4712    0.5073    0.0000 C   0  0  0  0  0  0  0  0  0  0  0  0
   -1.3671   -0.7189    0.0000 C   0  0  0  0  0  0  0  0  0  0  0  0
   -2.1741   -0.8904    0.0000 C   0  0  0  0  0  0  0  0  0  0  0  0
   -2.7261   -0.2773    0.0000 C   0  0  0  0  0  0  0  0  0  0  0  0
   -3.5331   -0.4488    0.0000 S   0  0  0  0  0  0  0  0  0  0  0  0
   -4.3401   -0.6204    0.0000 O   0  0  0  0  0  0  0  0  0  0  0  0
   -3.3616   -1.2558    0.0000 O   0  0  0  0  0  0  0  0  0  0  0  0
   -3.7046    0.3581    0.0000 C   0  0  0  0  0  0  0  0  0  0  0  0
    1.5072   -0.8327    0.0000 H   0  0  0  0  0  0  0  0  0  0  0  0
    1.6430    0.3859    0.0000 H   0  0  0  0  0  0  0  0  0  0  0  0
    4.1833    0.7596    0.0000 H   0  0  0  0  0  0  0  0  0  0  0  0
    1.6982   -2.0004    0.0000 H   0  0  0  0  0  0  0  0  0  0  0  0
    1.1053   -1.9080    0.0000 H   0  0  0  0  0  0  0  0  0  0  0  0
    0.0587   -1.6856    0.0000 H   0  0  0  0  0  0  0  0  0  0  0  0
    2.6216    0.9083    0.0000 H   0  0  0  0  0  0  0  0  0  0  0  0
    1.3088    2.0905    0.0000 H   0  0  0  0  0  0  0  0  0  0  0  0
   -0.0657    1.6964    0.0000 H   0  0  0  0  0  0  0  0  0  0  0  0
   -0.7817    0.9013    0.0000 H   0  0  0  0  0  0  0  0  0  0  0  0
   -1.3453    1.6603    0.0000 H   0  0  0  0  0  0  0  0  0  0  0  0
   -3.1617    1.2742    0.0000 H   0  0  0  0  0  0  0  0  0  0  0  0
   -2.4930   -1.8719    0.0000 H   0  0  0  0  0  0  0  0  0  0  0  0
   -2.9094    1.0741    0.0000 H   0  0  0  0  0  0  0  0  0  0  0  0
   -4.7222    0.6888    0.0000 H   0  0  0  0  0  0  0  0  0  0  0  0
   -3.9271    1.4047    0.0000 H   0  0  0  0  0  0  0  0  0  0  0  0
  2  1  1  0  0  0  0
  2  6  1  0  0  0  0
  3  2  2  0  0  0  0
  3 30  1  0  0  0  0
  4  3  1  0  0  0  0
  4  9  2  0  0  0  0
  5  4  1  0  0  0  0
  6  7  1  0  0  0  0
  8  6  2  0  0  0  0
  8 31  1  0  0  0  0
  9  8  1  0  0  0  0
 10  9  1  0  0  0  0
 10 11  1  0  0  0  0
 10 28  1  6  0  0  0
 11 32  1  0  0  0  0
 11 33  1  0  0  0  0
 12 10  1  0  0  0  0
 12 29  1  1  0  0  0
 12 13  1  0  0  0  0
 13 34  1  0  0  0  0
 13 35  1  0  0  0  0
 14 12  1  0  0  0  0
 14 15  1  0  0  0  0
 14 36  1  0  0  0  0
 14 37  1  0  0  0  0
 15 16  1  0  0  0  0
 16 11  1  0  0  0  0
 16 17  2  0  0  0  0
 18 15  1  0  0  0  0
 18 21  1  0  0  0  0
 19 18  2  0  0  0  0
 19 38  1  0  0  0  0
 20 19  1  0  0  0  0
 20 23  2  0  0  0  0
 20 39  1  0  0  0  0
 21 17  1  0  0  0  0
 22 21  2  0  0  0  0
 22 40  1  0  0  0  0
 23 22  1  0  0  0  0
 24 23  1  0  0  0  0
 24 27  1  0  0  0  0
 25 24  2  0  0  0  0
 26 24  2  0  0  0  0
 27 41  1  0  0  0  0
 27 42  1  0  0  0  0
 27 43  1  0  0  0  0
M  END
>  <DRUGBANK_ID>
DB07193

>  <COMMON_NAME>
(2R,3R)-7-(methylsulfonyl)-3-(2,4,5-trifluorophenyl)-1,2,3,4-tetrahydropyrido[1,2-a]benzimidazol-2-amine

$$$$
