
 OpenBabel10282417072D

 83 87  0  0  0  0  0  0  0  0999 V2000
   -3.5014    0.9909    0.0000 P   0  0  1  0  0  0  0  0  0  0  0  0
    2.1836    1.5785    0.0000 P   0  0  1  0  0  0  0  0  0  0  0  0
   -2.0802    1.1378    0.0000 P   0  0  1  0  0  0  0  0  0  0  0  0
    0.7623    1.4316    0.0000 P   0  0  1  0  0  0  0  0  0  0  0  0
   -0.6589    1.2847    0.0000 P   0  0  2  0  0  0  0  0  0  0  0  0
   -5.5924   -0.4646    0.0000 O   0  0  0  0  0  0  0  0  0  0  0  0
    5.0573    1.9529    0.0000 O   0  0  0  0  0  0  0  0  0  0  0  0
   -7.6861   -0.0485    0.0000 O   0  0  0  0  0  0  0  0  0  0  0  0
   -6.6286    1.4016    0.0000 O   0  0  0  0  0  0  0  0  0  0  0  0
    3.6080    3.5201    0.0000 O   0  0  0  0  0  0  0  0  0  0  0  0
    5.3158    4.0718    0.0000 O   0  0  0  0  0  0  0  0  0  0  0  0
   -4.1697    0.5072    0.0000 O   0  0  0  0  0  0  0  0  0  0  0  0
    2.8518    2.0623    0.0000 O   0  0  0  0  0  0  0  0  0  0  0  0
    6.3658    1.1892    0.0000 O   0  0  0  0  0  0  0  0  0  0  0  0
   -2.8332    1.4747    0.0000 O   0  0  0  0  0  0  0  0  0  0  0  0
    1.5153    1.0948    0.0000 O   0  0  0  0  0  0  0  0  0  0  0  0
   -3.0177    0.3227    0.0000 O   0  0  0  0  0  0  0  0  0  0  0  0
    2.6673    0.9102    0.0000 O   0  0  0  0  0  0  0  0  0  0  0  0
   -3.9851    1.6591    0.0000 O   0  0  0  0  0  0  0  0  0  0  0  0
    1.6999    2.2467    0.0000 O   0  0  0  0  0  0  0  0  0  0  0  0
    8.8431    2.6137    0.0000 O   0  0  0  0  0  0  0  0  0  0  0  0
   -1.3271    0.8009    0.0000 O   0  0  0  0  0  0  0  0  0  0  0  0
    0.0092    1.7684    0.0000 O   0  0  0  0  0  0  0  0  0  0  0  0
   -1.7434    1.8909    0.0000 O   0  0  0  0  0  0  0  0  0  0  0  0
    1.0992    2.1846    0.0000 O   0  0  0  0  0  0  0  0  0  0  0  0
   -2.4170    0.3847    0.0000 O   0  0  0  0  0  0  0  0  0  0  0  0
    0.4255    0.6786    0.0000 O   0  0  0  0  0  0  0  0  0  0  0  0
   -0.1751    0.6165    0.0000 O   0  0  0  0  0  0  0  0  0  0  0  0
   -1.1426    1.9530    0.0000 O   0  0  0  0  0  0  0  0  0  0  0  0
   -6.6336   -1.5022    0.0000 N   0  0  0  0  0  0  0  0  0  0  0  0
    6.3683    2.6180    0.0000 N   0  0  0  0  0  0  0  0  0  0  0  0
   -6.6336   -2.8300    0.0000 N   0  0  0  0  0  0  0  0  0  0  0  0
    7.6044    1.9014    0.0000 N   0  0  0  0  0  0  0  0  0  0  0  0
   -8.1287   -1.3412    0.0000 N   0  0  0  0  0  0  0  0  0  0  0  0
   -8.8431   -2.5786    0.0000 N   0  0  0  0  0  0  0  0  0  0  0  0
   -8.1287   -3.8160    0.0000 N   0  0  0  0  0  0  0  0  0  0  0  0
   -6.8612   -0.0499    0.0000 C   0  0  2  0  0  0  0  0  0  0  0  0
   -6.3751    0.6166    0.0000 C   0  0  1  0  0  0  0  0  0  0  0  0
   -6.3774   -0.7181    0.0000 C   0  0  1  0  0  0  0  0  0  0  0  0
   -5.5909    0.3602    0.0000 C   0  0  1  0  0  0  0  0  0  0  0  0
    4.2745    3.0341    0.0000 C   0  0  1  0  0  0  0  0  0  0  0  0
    5.0596    3.2877    0.0000 C   0  0  2  0  0  0  0  0  0  0  0  0
    4.2731    2.2091    0.0000 C   0  0  1  0  0  0  0  0  0  0  0  0
    5.5433    2.6194    0.0000 C   0  0  1  0  0  0  0  0  0  0  0  0
   -4.9227    0.8440    0.0000 C   0  0  0  0  0  0  0  0  0  0  0  0
    3.6048    1.7254    0.0000 C   0  0  0  0  0  0  0  0  0  0  0  0
   -7.4142   -1.7537    0.0000 C   0  0  0  0  0  0  0  0  0  0  0  0
   -6.1522   -2.1661    0.0000 C   0  0  0  0  0  0  0  0  0  0  0  0
    6.7795    1.9028    0.0000 C   0  0  0  0  0  0  0  0  0  0  0  0
    6.7820    3.3317    0.0000 C   0  0  0  0  0  0  0  0  0  0  0  0
   -7.4142   -2.5786    0.0000 C   0  0  0  0  0  0  0  0  0  0  0  0
    7.6069    3.3303    0.0000 C   0  0  0  0  0  0  0  0  0  0  0  0
   -8.1287   -2.9911    0.0000 C   0  0  0  0  0  0  0  0  0  0  0  0
    8.0182    2.6152    0.0000 C   0  0  0  0  0  0  0  0  0  0  0  0
   -8.8431   -1.7537    0.0000 C   0  0  0  0  0  0  0  0  0  0  0  0
    7.8593    1.4580    0.0000 H   0  0  0  0  0  0  0  0  0  0  0  0
   -7.6857   -4.0718    0.0000 H   0  0  0  0  0  0  0  0  0  0  0  0
   -8.5716   -4.0718    0.0000 H   0  0  0  0  0  0  0  0  0  0  0  0
   -8.1697    0.7924    0.0000 H   0  0  0  0  0  0  0  0  0  0  0  0
   -5.9782    2.1213    0.0000 H   0  0  0  0  0  0  0  0  0  0  0  0
    3.7111    4.4846    0.0000 H   0  0  0  0  0  0  0  0  0  0  0  0
    6.2649    4.2719    0.0000 H   0  0  0  0  0  0  0  0  0  0  0  0
   -3.4138   -0.5628    0.0000 H   0  0  0  0  0  0  0  0  0  0  0  0
    2.2712    0.0248    0.0000 H   0  0  0  0  0  0  0  0  0  0  0  0
   -0.7785    1.9907    0.0000 H   0  0  0  0  0  0  0  0  0  0  0  0
    2.0641    2.2842    0.0000 H   0  0  0  0  0  0  0  0  0  0  0  0
   -0.5711   -0.2690    0.0000 H   0  0  0  0  0  0  0  0  0  0  0  0
   -7.3453    0.9043    0.0000 H   0  0  0  0  0  0  0  0  0  0  0  0
   -7.4316    0.7859    0.0000 H   0  0  0  0  0  0  0  0  0  0  0  0
   -5.6221   -1.4760    0.0000 H   0  0  0  0  0  0  0  0  0  0  0  0
   -4.6384   -0.1272    0.0000 H   0  0  0  0  0  0  0  0  0  0  0  0
    4.4437    4.0906    0.0000 H   0  0  0  0  0  0  0  0  0  0  0  0
    4.3043    4.0456    0.0000 H   0  0  0  0  0  0  0  0  0  0  0  0
    4.4387    1.1520    0.0000 H   0  0  0  0  0  0  0  0  0  0  0  0
    6.0274    1.6652    0.0000 H   0  0  0  0  0  0  0  0  0  0  0  0
   -5.0328    1.9083    0.0000 H   0  0  0  0  0  0  0  0  0  0  0  0
   -5.8995    1.2808    0.0000 H   0  0  0  0  0  0  0  0  0  0  0  0
    3.7147    0.6611    0.0000 H   0  0  0  0  0  0  0  0  0  0  0  0
    4.5815    1.2884    0.0000 H   0  0  0  0  0  0  0  0  0  0  0  0
   -5.1202   -2.1661    0.0000 H   0  0  0  0  0  0  0  0  0  0  0  0
    6.2675    4.2263    0.0000 H   0  0  0  0  0  0  0  0  0  0  0  0
    8.1244    4.2232    0.0000 H   0  0  0  0  0  0  0  0  0  0  0  0
   -9.7368   -1.2377    0.0000 H   0  0  0  0  0  0  0  0  0  0  0  0
  1 12  1  0  0  0  0
  1 15  1  0  0  0  0
  1 17  1  0  0  0  0
  1 19  2  6  0  0  0
  2 13  1  0  0  0  0
  2 16  1  0  0  0  0
  2 18  1  0  0  0  0
  2 20  2  1  0  0  0
  3 15  1  0  0  0  0
  3 22  1  0  0  0  0
  3 24  1  0  0  0  0
  3 26  2  1  0  0  0
  4 16  1  0  0  0  0
  4 23  1  0  0  0  0
  4 25  1  0  0  0  0
  4 27  2  6  0  0  0
  5 22  1  0  0  0  0
  5 23  1  0  0  0  0
  5 28  1  0  0  0  0
  5 29  2  1  0  0  0
  6 39  1  0  0  0  0
  6 40  1  0  0  0  0
  7 43  1  0  0  0  0
  7 44  1  0  0  0  0
  8 59  1  0  0  0  0
  9 60  1  0  0  0  0
 10 61  1  0  0  0  0
 11 62  1  0  0  0  0
 12 45  1  0  0  0  0
 13 46  1  0  0  0  0
 14 49  2  0  0  0  0
 17 63  1  0  0  0  0
 18 64  1  0  0  0  0
 21 54  2  0  0  0  0
 24 65  1  0  0  0  0
 25 66  1  0  0  0  0
 28 67  1  0  0  0  0
 30 47  1  0  0  0  0
 30 48  1  0  0  0  0
 31 49  1  0  0  0  0
 31 50  1  0  0  0  0
 32 48  2  0  0  0  0
 32 51  1  0  0  0  0
 33 49  1  0  0  0  0
 33 54  1  0  0  0  0
 33 56  1  0  0  0  0
 34 47  2  0  0  0  0
 34 55  1  0  0  0  0
 35 53  1  0  0  0  0
 35 55  2  0  0  0  0
 36 53  1  0  0  0  0
 36 57  1  0  0  0  0
 36 58  1  0  0  0  0
 37  8  1  0  0  0  0
 37 38  1  0  0  0  0
 37 39  1  0  0  0  0
 37 68  1  1  0  0  0
 38  9  1  0  0  0  0
 38 40  1  0  0  0  0
 38 69  1  1  0  0  0
 39 30  1  0  0  0  0
 39 70  1  6  0  0  0
 40 45  1  0  0  0  0
 40 71  1  6  0  0  0
 41 10  1  0  0  0  0
 41 42  1  0  0  0  0
 41 43  1  0  0  0  0
 41 72  1  6  0  0  0
 42 11  1  0  0  0  0
 42 44  1  0  0  0  0
 42 73  1  6  0  0  0
 43 46  1  0  0  0  0
 43 74  1  1  0  0  0
 44 31  1  0  0  0  0
 44 75  1  1  0  0  0
 45 76  1  0  0  0  0
 45 77  1  0  0  0  0
 46 78  1  0  0  0  0
 46 79  1  0  0  0  0
 47 51  1  0  0  0  0
 48 80  1  0  0  0  0
 50 52  2  0  0  0  0
 50 81  1  0  0  0  0
 51 53  2  0  0  0  0
 52 54  1  0  0  0  0
 52 82  1  0  0  0  0
 55 83  1  0  0  0  0
M  END
>  <DRUGBANK_ID>
DB03664

>  <SECONDARY_ACCESSION_NUMBERS>
EXPT03194

>  <COMMON_NAME>
P1-(adenosine-5'-P5-(uridine-5')pentaphosphate

$$$$
