
 OpenBabel10282417072D

 27 28  0  0  1  0  0  0  0  0999 V2000
    3.5724    2.8875    0.0000 C   0  0  0  0  0  0  0  0  0  0  0  0
    3.5724    2.0625    0.0000 C   0  0  0  0  0  0  0  0  0  0  0  0
    4.2868    1.6500    0.0000 C   0  0  0  0  0  0  0  0  0  0  0  0
    2.8579    1.6500    0.0000 C   0  0  2  0  0  0  0  0  0  0  0  0
    2.8579    0.8250    0.0000 C   0  0  0  0  0  0  0  0  0  0  0  0
    2.1434    0.4125    0.0000 C   0  0  0  0  0  0  0  0  0  0  0  0
    1.4289    0.8250    0.0000 C   0  0  1  0  0  0  0  0  0  0  0  0
    1.0164    0.1105    0.0000 C   0  0  0  0  0  0  0  0  0  0  0  0
    0.7145    1.2375    0.0000 O   0  0  0  0  0  0  0  0  0  0  0  0
    1.4289    1.6500    0.0000 C   0  0  1  0  0  0  0  0  0  0  0  0
    2.1434    2.0625    0.0000 C   0  0  0  0  0  0  0  0  0  0  0  0
    4.4990    3.4225    0.0000 H   0  0  0  0  0  0  0  0  0  0  0  0
    2.6458    3.4225    0.0000 H   0  0  0  0  0  0  0  0  0  0  0  0
    3.5724    3.9575    0.0000 H   0  0  0  0  0  0  0  0  0  0  0  0
    4.2868    0.6180    0.0000 H   0  0  0  0  0  0  0  0  0  0  0  0
    5.1806    2.1660    0.0000 H   0  0  0  0  0  0  0  0  0  0  0  0
    3.7845    1.1150    0.0000 H   0  0  0  0  0  0  0  0  0  0  0  0
    3.7845    0.2900    0.0000 H   0  0  0  0  0  0  0  0  0  0  0  0
    2.8579   -0.2450    0.0000 H   0  0  0  0  0  0  0  0  0  0  0  0
    2.1434   -0.6575    0.0000 H   0  0  0  0  0  0  0  0  0  0  0  0
    1.2168   -0.1225    0.0000 H   0  0  0  0  0  0  0  0  0  0  0  0
   -0.0536    0.1105    0.0000 H   0  0  0  0  0  0  0  0  0  0  0  0
    1.5514   -0.8161    0.0000 H   0  0  0  0  0  0  0  0  0  0  0  0
    0.4814   -0.8162    0.0000 H   0  0  0  0  0  0  0  0  0  0  0  0
    0.8939    0.7233    0.0000 H   0  0  0  0  0  0  0  0  0  0  0  0
    2.1434    3.1325    0.0000 H   0  0  0  0  0  0  0  0  0  0  0  0
    3.0700    2.5975    0.0000 H   0  0  0  0  0  0  0  0  0  0  0  0
  1  2  1  0  0  0  0
  1 12  1  0  0  0  0
  1 13  1  0  0  0  0
  1 14  1  0  0  0  0
  2  3  2  0  0  0  0
  3 15  1  0  0  0  0
  3 16  1  0  0  0  0
  4  2  1  0  0  0  0
  4  5  1  0  0  0  0
  4 11  1  0  0  0  0
  4 17  1  1  0  0  0
  5  6  1  0  0  0  0
  5 18  1  0  0  0  0
  5 19  1  0  0  0  0
  6  7  1  0  0  0  0
  6 20  1  0  0  0  0
  6 21  1  0  0  0  0
  7  8  1  6  0  0  0
  7  9  1  0  0  0  0
  7 10  1  0  0  0  0
  8 22  1  0  0  0  0
  8 23  1  0  0  0  0
  8 24  1  0  0  0  0
 10  9  1  0  0  0  0
 10 11  1  0  0  0  0
 10 25  1  6  0  0  0
 11 26  1  0  0  0  0
 11 27  1  0  0  0  0
M  END
>  <DRUGBANK_ID>
DB02924

>  <SECONDARY_ACCESSION_NUMBERS>
EXPT02019

>  <COMMON_NAME>
(4R)-limonene 1α,2α-epoxide

>  <CAS_NUMBER>
6909-30-4

>  <UNII>
KBX06MQJ5Y

>  <SYNONYMS>
(+)-trans-limonene oxide; (1S,4R,6R)-4-isopropenyl-1-methyl-7-oxabicyclo[4.1.0]heptane; (4R)-limonene 1alpha,2alpha-epoxide; 1α,2α-epoxy-4βH-p-menth-8-ene; D-limonene 1,2-epoxide

$$$$
