HTG
 OpenBabel10282417072D

 45 45  0  0  0  0  0  0  0  0999 V2000
   -0.7752   -0.3051    0.0000 C   0  0  1  0  0  0  0  0  0  0  0  0
   -0.0607   -0.7176    0.0000 S   0  0  0  0  0  0  0  0  0  0  0  0
   -1.4896   -0.7176    0.0000 C   0  0  2  0  0  0  0  0  0  0  0  0
   -1.4896   -1.5426    0.0000 O   0  0  0  0  0  0  0  0  0  0  0  0
   -2.2041   -0.3051    0.0000 C   0  0  1  0  0  0  0  0  0  0  0  0
   -2.9185   -0.7176    0.0000 O   0  0  0  0  0  0  0  0  0  0  0  0
   -2.2041    0.5199    0.0000 C   0  0  2  0  0  0  0  0  0  0  0  0
   -2.9185    0.9324    0.0000 O   0  0  0  0  0  0  0  0  0  0  0  0
   -1.4896    0.9324    0.0000 C   0  0  2  0  0  0  0  0  0  0  0  0
   -0.7752    0.5199    0.0000 O   0  0  0  0  0  0  0  0  0  0  0  0
   -1.4896    1.7573    0.0000 C   0  0  0  0  0  0  0  0  0  0  0  0
   -0.7752    2.1699    0.0000 O   0  0  0  0  0  0  0  0  0  0  0  0
    0.6537   -0.3051    0.0000 C   0  0  0  0  0  0  0  0  0  0  0  0
    1.3683   -0.7176    0.0000 C   0  0  0  0  0  0  0  0  0  0  0  0
    2.0827   -0.3051    0.0000 C   0  0  0  0  0  0  0  0  0  0  0  0
    2.7971   -0.7176    0.0000 C   0  0  0  0  0  0  0  0  0  0  0  0
    3.5117   -0.3051    0.0000 C   0  0  0  0  0  0  0  0  0  0  0  0
    4.2260   -0.7176    0.0000 C   0  0  0  0  0  0  0  0  0  0  0  0
    4.9405   -0.3051    0.0000 C   0  0  0  0  0  0  0  0  0  0  0  0
   -0.5753   -0.8538    0.0000 H   0  0  0  0  0  0  0  0  0  0  0  0
   -1.1143   -1.1649    0.0000 H   0  0  0  0  0  0  0  0  0  0  0  0
   -2.2041   -0.8890    0.0000 H   0  0  0  0  0  0  0  0  0  0  0  0
   -2.7098    0.2279    0.0000 H   0  0  0  0  0  0  0  0  0  0  0  0
   -1.9952    1.2244    0.0000 H   0  0  0  0  0  0  0  0  0  0  0  0
   -2.3296   -2.0276    0.0000 H   0  0  0  0  0  0  0  0  0  0  0  0
   -3.7586   -0.2326    0.0000 H   0  0  0  0  0  0  0  0  0  0  0  0
   -2.9185    1.9024    0.0000 H   0  0  0  0  0  0  0  0  0  0  0  0
   -2.4163    2.2922    0.0000 H   0  0  0  0  0  0  0  0  0  0  0  0
   -1.4897    2.8273    0.0000 H   0  0  0  0  0  0  0  0  0  0  0  0
    0.0649    1.6850    0.0000 H   0  0  0  0  0  0  0  0  0  0  0  0
    0.6536    0.7649    0.0000 H   0  0  0  0  0  0  0  0  0  0  0  0
    1.5803    0.2300    0.0000 H   0  0  0  0  0  0  0  0  0  0  0  0
    1.3684   -1.7876    0.0000 H   0  0  0  0  0  0  0  0  0  0  0  0
    2.2950   -1.2526    0.0000 H   0  0  0  0  0  0  0  0  0  0  0  0
    2.0827    0.7649    0.0000 H   0  0  0  0  0  0  0  0  0  0  0  0
    3.0094    0.2299    0.0000 H   0  0  0  0  0  0  0  0  0  0  0  0
    2.7970   -1.7876    0.0000 H   0  0  0  0  0  0  0  0  0  0  0  0
    3.7237   -1.2527    0.0000 H   0  0  0  0  0  0  0  0  0  0  0  0
    3.5118    0.7649    0.0000 H   0  0  0  0  0  0  0  0  0  0  0  0
    4.4384    0.2298    0.0000 H   0  0  0  0  0  0  0  0  0  0  0  0
    4.2259   -1.7876    0.0000 H   0  0  0  0  0  0  0  0  0  0  0  0
    5.1526   -1.2526    0.0000 H   0  0  0  0  0  0  0  0  0  0  0  0
    5.8671   -0.8401    0.0000 H   0  0  0  0  0  0  0  0  0  0  0  0
    4.9405    0.7649    0.0000 H   0  0  0  0  0  0  0  0  0  0  0  0
    5.8672    0.2299    0.0000 H   0  0  0  0  0  0  0  0  0  0  0  0
  1  2  1  0  0  0  0
  1  3  1  0  0  0  0
  1 10  1  0  0  0  0
  1 20  1  6  0  0  0
  2 13  1  0  0  0  0
  3  4  1  0  0  0  0
  3  5  1  0  0  0  0
  3 21  1  1  0  0  0
  4 25  1  0  0  0  0
  5  6  1  0  0  0  0
  5  7  1  0  0  0  0
  5 22  1  6  0  0  0
  6 26  1  0  0  0  0
  7  8  1  0  0  0  0
  7  9  1  0  0  0  0
  7 23  1  1  0  0  0
  8 27  1  0  0  0  0
  9 10  1  0  0  0  0
  9 11  1  0  0  0  0
  9 24  1  6  0  0  0
 11 12  1  0  0  0  0
 11 28  1  0  0  0  0
 11 29  1  0  0  0  0
 12 30  1  0  0  0  0
 13 14  1  0  0  0  0
 13 31  1  0  0  0  0
 13 32  1  0  0  0  0
 14 15  1  0  0  0  0
 14 33  1  0  0  0  0
 14 34  1  0  0  0  0
 15 16  1  0  0  0  0
 15 35  1  0  0  0  0
 15 36  1  0  0  0  0
 16 17  1  0  0  0  0
 16 37  1  0  0  0  0
 16 38  1  0  0  0  0
 17 18  1  0  0  0  0
 17 39  1  0  0  0  0
 17 40  1  0  0  0  0
 18 19  1  0  0  0  0
 18 41  1  0  0  0  0
 18 42  1  0  0  0  0
 19 43  1  0  0  0  0
 19 44  1  0  0  0  0
 19 45  1  0  0  0  0
M  END
>  <DRUGBANK_ID>
DB04450

>  <SECONDARY_ACCESSION_NUMBERS>
EXPT01788

>  <COMMON_NAME>
Heptyl 1-Thiohexopyranoside

$$$$
