HBN
 OpenBabel10282417072D

 37 39  0  0  0  0  0  0  0  0999 V2000
   -1.7400    1.8464    0.0000 C   0  0  0  0  0  0  0  0  0  0  0  0
   -2.4545    2.2589    0.0000 C   0  0  0  0  0  0  0  0  0  0  0  0
   -3.1690    1.8464    0.0000 C   0  0  0  0  0  0  0  0  0  0  0  0
   -3.1690    1.0214    0.0000 C   0  0  0  0  0  0  0  0  0  0  0  0
   -2.4545    0.6089    0.0000 C   0  0  0  0  0  0  0  0  0  0  0  0
   -1.7400    1.0214    0.0000 C   0  0  0  0  0  0  0  0  0  0  0  0
   -1.0256    0.6089    0.0000 C   0  0  0  0  0  0  0  0  0  0  0  0
   -1.0256   -0.2161    0.0000 C   0  0  0  0  0  0  0  0  0  0  0  0
   -1.7400   -0.6286    0.0000 C   0  0  0  0  0  0  0  0  0  0  0  0
   -2.4545   -0.2161    0.0000 C   0  0  0  0  0  0  0  0  0  0  0  0
   -0.3111   -0.6286    0.0000 N   0  0  0  0  0  0  0  0  0  0  0  0
    1.1178   -1.4536    0.0000 N   0  0  0  0  0  0  0  0  0  0  0  0
    1.1178   -0.6286    0.0000 C   0  0  1  0  0  0  0  0  0  0  0  0
    0.4034   -0.2161    0.0000 C   0  0  0  0  0  0  0  0  0  0  0  0
    0.4034    0.6089    0.0000 O   0  0  0  0  0  0  0  0  0  0  0  0
    1.8323   -0.2161    0.0000 C   0  0  0  0  0  0  0  0  0  0  0  0
    2.5468   -0.6286    0.0000 C   0  0  0  0  0  0  0  0  0  0  0  0
    3.3005   -0.2931    0.0000 N   0  0  0  0  0  0  0  0  0  0  0  0
    2.6330   -1.4491    0.0000 C   0  0  0  0  0  0  0  0  0  0  0  0
    3.8525   -0.9062    0.0000 C   0  0  0  0  0  0  0  0  0  0  0  0
    3.4400   -1.6206    0.0000 N   0  0  0  0  0  0  0  0  0  0  0  0
    0.6121   -0.9206    0.0000 H   0  0  0  0  0  0  0  0  0  0  0  0
   -0.8463    2.3624    0.0000 H   0  0  0  0  0  0  0  0  0  0  0  0
   -2.4545    3.2909    0.0000 H   0  0  0  0  0  0  0  0  0  0  0  0
   -4.0627    2.3624    0.0000 H   0  0  0  0  0  0  0  0  0  0  0  0
   -4.0627    0.5054    0.0000 H   0  0  0  0  0  0  0  0  0  0  0  0
   -0.1319    1.1249    0.0000 H   0  0  0  0  0  0  0  0  0  0  0  0
   -1.7400   -1.6606    0.0000 H   0  0  0  0  0  0  0  0  0  0  0  0
   -3.3482   -0.7321    0.0000 H   0  0  0  0  0  0  0  0  0  0  0  0
   -0.3111   -1.6131    0.0000 H   0  0  0  0  0  0  0  0  0  0  0  0
    0.2345   -1.9636    0.0000 H   0  0  0  0  0  0  0  0  0  0  0  0
    2.0011   -1.9636    0.0000 H   0  0  0  0  0  0  0  0  0  0  0  0
    1.8323    0.8539    0.0000 H   0  0  0  0  0  0  0  0  0  0  0  0
    2.7589    0.3189    0.0000 H   0  0  0  0  0  0  0  0  0  0  0  0
    3.5052    0.6699    0.0000 H   0  0  0  0  0  0  0  0  0  0  0  0
    1.8661   -2.1396    0.0000 H   0  0  0  0  0  0  0  0  0  0  0  0
    4.8789   -0.7984    0.0000 H   0  0  0  0  0  0  0  0  0  0  0  0
  1  2  2  0  0  0  0
  1  6  1  0  0  0  0
  1 23  1  0  0  0  0
  2  3  1  0  0  0  0
  2 24  1  0  0  0  0
  3  4  2  0  0  0  0
  3 25  1  0  0  0  0
  4  5  1  0  0  0  0
  4 26  1  0  0  0  0
  5  6  1  0  0  0  0
  5 10  2  0  0  0  0
  6  7  2  0  0  0  0
  7  8  1  0  0  0  0
  7 27  1  0  0  0  0
  8  9  2  0  0  0  0
  8 11  1  0  0  0  0
  9 10  1  0  0  0  0
  9 28  1  0  0  0  0
 10 29  1  0  0  0  0
 11 14  1  0  0  0  0
 11 30  1  0  0  0  0
 12 31  1  0  0  0  0
 12 32  1  0  0  0  0
 13 12  1  0  0  0  0
 13 14  1  0  0  0  0
 13 16  1  0  0  0  0
 13 22  1  6  0  0  0
 14 15  2  0  0  0  0
 16 17  1  0  0  0  0
 16 33  1  0  0  0  0
 16 34  1  0  0  0  0
 17 18  1  0  0  0  0
 17 19  2  0  0  0  0
 18 20  1  0  0  0  0
 18 35  1  0  0  0  0
 19 21  1  0  0  0  0
 19 36  1  0  0  0  0
 20 21  2  0  0  0  0
 20 37  1  0  0  0  0
M  END
>  <DRUGBANK_ID>
DB01938

>  <SECONDARY_ACCESSION_NUMBERS>
EXPT01699

>  <COMMON_NAME>
L-Histidine Beta Naphthylamide

$$$$
