
 OpenBabel10282417072D

 30 30  0  0  1  0  0  0  0  0999 V2000
    1.6484    2.6923    0.0000 C   0  0  0  0  0  0  0  0  0  0  0  0
   -0.5342    3.0278    0.0000 C   0  0  0  0  0  0  0  0  0  0  0  0
   -1.2486    2.6153    0.0000 C   0  0  1  0  0  0  0  0  0  0  0  0
    2.2005    3.3054    0.0000 C   0  0  0  0  0  0  0  0  0  0  0  0
    0.8948    3.0278    0.0000 C   0  0  2  0  0  0  0  0  0  0  0  0
    3.0210    3.2191    0.0000 C   0  0  1  0  0  0  0  0  0  0  0  0
   -1.9631    3.0278    0.0000 C   0  0  0  0  0  0  0  0  0  0  0  0
    3.3565    2.4655    0.0000 C   0  0  0  0  0  0  0  0  0  0  0  0
   -1.2486    1.7903    0.0000 N   0  0  0  0  0  0  0  0  0  0  0  0
    3.5059    3.8866    0.0000 N   0  0  0  0  0  0  0  0  0  0  0  0
    0.9810    3.8483    0.0000 N   0  0  0  0  0  0  0  0  0  0  0  0
   -2.6776    2.6153    0.0000 O   0  0  0  0  0  0  0  0  0  0  0  0
   -1.9631    3.8528    0.0000 O   0  0  0  0  0  0  0  0  0  0  0  0
    4.1770    2.3792    0.0000 O   0  0  0  0  0  0  0  0  0  0  0  0
    2.8716    1.7980    0.0000 O   0  0  0  0  0  0  0  0  0  0  0  0
    1.7880    4.0198    0.0000 O   0  0  0  0  0  0  0  0  0  0  0  0
    0.1803    2.6153    0.0000 S   0  0  0  0  0  0  0  0  0  0  0  0
   -1.2486    3.4403    0.0000 H   0  0  0  0  0  0  0  0  0  0  0  0
    0.9379    2.2040    0.0000 H   0  0  0  0  0  0  0  0  0  0  0  0
    2.5360    2.5517    0.0000 H   0  0  0  0  0  0  0  0  0  0  0  0
    1.8630    1.6828    0.0000 H   0  0  0  0  0  0  0  0  0  0  0  0
   -0.5342    4.0978    0.0000 H   0  0  0  0  0  0  0  0  0  0  0  0
    0.3924    3.5628    0.0000 H   0  0  0  0  0  0  0  0  0  0  0  0
   -2.1319    1.2803    0.0000 H   0  0  0  0  0  0  0  0  0  0  0  0
   -0.3653    1.2803    0.0000 H   0  0  0  0  0  0  0  0  0  0  0  0
    4.5203    3.7800    0.0000 H   0  0  0  0  0  0  0  0  0  0  0  0
    3.0910    4.8184    0.0000 H   0  0  0  0  0  0  0  0  0  0  0  0
    0.2230    4.5308    0.0000 H   0  0  0  0  0  0  0  0  0  0  0  0
   -1.1516    4.3213    0.0000 H   0  0  0  0  0  0  0  0  0  0  0  0
    1.9397    1.8959    0.0000 H   0  0  0  0  0  0  0  0  0  0  0  0
  1 21  1  0  0  0  0
  2 22  1  0  0  0  0
  2 23  1  0  0  0  0
  3  2  1  0  0  0  0
  3  9  1  0  0  0  0
  3 18  1  1  0  0  0
  4  1  2  0  0  0  0
  5  1  1  0  0  0  0
  5 17  1  0  0  0  0
  5 19  1  6  0  0  0
  6  4  1  0  0  0  0
  6 10  1  0  0  0  0
  6 20  1  1  0  0  0
  7  3  1  0  0  0  0
  8  6  1  0  0  0  0
  9 24  1  0  0  0  0
  9 25  1  0  0  0  0
 10 26  1  0  0  0  0
 10 27  1  0  0  0  0
 11  5  1  0  0  0  0
 11 28  1  0  0  0  0
 12  7  2  0  0  0  0
 13  7  1  0  0  0  0
 13 29  1  0  0  0  0
 14  8  2  0  0  0  0
 15  8  1  0  0  0  0
 15 30  1  0  0  0  0
 16  4  1  0  0  0  0
 16 11  1  0  0  0  0
 17  2  1  0  0  0  0
M  END
>  <DRUGBANK_ID>
DB01974

>  <SECONDARY_ACCESSION_NUMBERS>
EXPT00029

>  <COMMON_NAME>
2-Amino-3-[5-(Amino-Carboxy-Methyl)-2,3-Dihydro-Isoxazol-3-Ylsulfanyl]-Propionic Acid

$$$$
