
 OpenBabel10282417072D

 71 72  0  0  1  0  0  0  0  0999 V2000
   -0.2169    0.6674    0.0000 C   0  0  2  0  0  0  0  0  0  0  0  0
    0.5678    0.4125    0.0000 C   0  0  1  0  0  0  0  0  0  0  0  0
    0.5678   -0.4125    0.0000 C   0  0  2  0  0  0  0  0  0  0  0  0
   -0.7018    0.0000    0.0000 C   0  0  0  0  0  0  0  0  0  0  0  0
   -0.2169   -0.6674    0.0000 C   0  0  1  0  0  0  0  0  0  0  0  0
    1.2822   -0.8250    0.0000 C   0  0  0  0  0  0  0  0  0  0  0  0
    1.9967    0.4125    0.0000 C   0  0  0  0  0  0  0  0  0  0  0  0
    1.2822    0.8250    0.0000 C   0  0  0  0  0  0  0  0  0  0  0  0
   -0.4718    1.4521    0.0000 O   0  0  0  0  0  0  0  0  0  0  0  0
   -0.4718   -1.4521    0.0000 O   0  0  0  0  0  0  0  0  0  0  0  0
    3.4256    2.0625    0.0000 C   0  0  0  0  0  0  0  0  0  0  0  0
    2.7112    1.6500    0.0000 C   0  0  0  0  0  0  0  0  0  0  0  0
    4.8546    2.0625    0.0000 C   0  0  0  0  0  0  0  0  0  0  0  0
    4.1401    1.6500    0.0000 C   0  0  0  0  0  0  0  0  0  0  0  0
    6.2835    2.0625    0.0000 C   0  0  0  0  0  0  0  0  0  0  0  0
    5.5691    1.6500    0.0000 O   0  0  0  0  0  0  0  0  0  0  0  0
    6.9980    1.6500    0.0000 C   0  0  0  0  0  0  0  0  0  0  0  0
    4.8546    2.8875    0.0000 O   0  0  0  0  0  0  0  0  0  0  0  0
    6.2835    2.8875    0.0000 C   0  0  0  0  0  0  0  0  0  0  0  0
    1.9967   -0.4125    0.0000 C   0  0  0  0  0  0  0  0  0  0  0  0
    2.7112   -0.8250    0.0000 C   0  0  1  0  0  0  0  0  0  0  0  0
    2.7112   -1.6500    0.0000 O   0  0  0  0  0  0  0  0  0  0  0  0
    4.1401   -0.8250    0.0000 C   0  0  0  0  0  0  0  0  0  0  0  0
    4.8546   -0.4125    0.0000 C   0  0  0  0  0  0  0  0  0  0  0  0
    5.5691   -0.8250    0.0000 C   0  0  0  0  0  0  0  0  0  0  0  0
    6.2835   -0.4125    0.0000 C   0  0  0  0  0  0  0  0  0  0  0  0
    6.2835    0.4125    0.0000 C   0  0  0  0  0  0  0  0  0  0  0  0
    5.5691    0.8250    0.0000 C   0  0  0  0  0  0  0  0  0  0  0  0
    3.4256   -0.4125    0.0000 C   0  0  0  0  0  0  0  0  0  0  0  0
    2.7112    0.8250    0.0000 C   0  0  0  0  0  0  0  0  0  0  0  0
    4.8546    0.4125    0.0000 C   0  0  0  0  0  0  0  0  0  0  0  0
    0.5397    1.4240    0.0000 H   0  0  0  0  0  0  0  0  0  0  0  0
    0.4559    1.4766    0.0000 H   0  0  0  0  0  0  0  0  0  0  0  0
    1.4945    0.1225    0.0000 H   0  0  0  0  0  0  0  0  0  0  0  0
   -1.7718    0.0000    0.0000 H   0  0  0  0  0  0  0  0  0  0  0  0
   -1.1876   -0.9534    0.0000 H   0  0  0  0  0  0  0  0  0  0  0  0
   -1.2737   -0.8348    0.0000 H   0  0  0  0  0  0  0  0  0  0  0  0
    1.2822   -1.8950    0.0000 H   0  0  0  0  0  0  0  0  0  0  0  0
    2.2088   -1.3600    0.0000 H   0  0  0  0  0  0  0  0  0  0  0  0
    1.9967   -0.6195    0.0000 H   0  0  0  0  0  0  0  0  0  0  0  0
    1.2822    1.8950    0.0000 H   0  0  0  0  0  0  0  0  0  0  0  0
    2.2088    1.3600    0.0000 H   0  0  0  0  0  0  0  0  0  0  0  0
    0.1773    2.1729    0.0000 H   0  0  0  0  0  0  0  0  0  0  0  0
   -1.4206   -1.6538    0.0000 H   0  0  0  0  0  0  0  0  0  0  0  0
    3.4256    3.1325    0.0000 H   0  0  0  0  0  0  0  0  0  0  0  0
    4.3522    2.5975    0.0000 H   0  0  0  0  0  0  0  0  0  0  0  0
    1.7845    2.1850    0.0000 H   0  0  0  0  0  0  0  0  0  0  0  0
    1.7846    1.1150    0.0000 H   0  0  0  0  0  0  0  0  0  0  0  0
    4.1401    0.5800    0.0000 H   0  0  0  0  0  0  0  0  0  0  0  0
    5.0667    1.1150    0.0000 H   0  0  0  0  0  0  0  0  0  0  0  0
    7.2101    2.5975    0.0000 H   0  0  0  0  0  0  0  0  0  0  0  0
    6.9980    0.5800    0.0000 H   0  0  0  0  0  0  0  0  0  0  0  0
    7.9246    2.1850    0.0000 H   0  0  0  0  0  0  0  0  0  0  0  0
    7.9247    1.1150    0.0000 H   0  0  0  0  0  0  0  0  0  0  0  0
    7.2101    3.4225    0.0000 H   0  0  0  0  0  0  0  0  0  0  0  0
    5.3569    3.4225    0.0000 H   0  0  0  0  0  0  0  0  0  0  0  0
    6.2835    3.9575    0.0000 H   0  0  0  0  0  0  0  0  0  0  0  0
    1.9967    0.6575    0.0000 H   0  0  0  0  0  0  0  0  0  0  0  0
    2.9233    0.1225    0.0000 H   0  0  0  0  0  0  0  0  0  0  0  0
    1.7846   -1.3600    0.0000 H   0  0  0  0  0  0  0  0  0  0  0  0
    1.8712   -2.1350    0.0000 H   0  0  0  0  0  0  0  0  0  0  0  0
    4.1401   -1.8950    0.0000 H   0  0  0  0  0  0  0  0  0  0  0  0
    5.0667   -1.3600    0.0000 H   0  0  0  0  0  0  0  0  0  0  0  0
    5.5691   -1.8570    0.0000 H   0  0  0  0  0  0  0  0  0  0  0  0
    7.1772   -0.9285    0.0000 H   0  0  0  0  0  0  0  0  0  0  0  0
    7.1772    0.9285    0.0000 H   0  0  0  0  0  0  0  0  0  0  0  0
    5.5691    1.8570    0.0000 H   0  0  0  0  0  0  0  0  0  0  0  0
    3.4256    0.6575    0.0000 H   0  0  0  0  0  0  0  0  0  0  0  0
    4.3522    0.1225    0.0000 H   0  0  0  0  0  0  0  0  0  0  0  0
    3.6049    0.3090    0.0000 H   0  0  0  0  0  0  0  0  0  0  0  0
    3.9609    0.9285    0.0000 H   0  0  0  0  0  0  0  0  0  0  0  0
  1  9  1  0  0  0  0
  1  4  1  0  0  0  0
  1 32  1  1  0  0  0
  2  1  1  0  0  0  0
  2  8  1  0  0  0  0
  2 33  1  1  0  0  0
  3  2  1  0  0  0  0
  3  6  1  0  0  0  0
  3  5  1  0  0  0  0
  3 34  1  6  0  0  0
  4  5  1  0  0  0  0
  4 35  1  0  0  0  0
  4 36  1  0  0  0  0
  5 10  1  0  0  0  0
  5 37  1  1  0  0  0
  6 20  1  0  0  0  0
  6 38  1  0  0  0  0
  6 39  1  0  0  0  0
  7  8  1  0  0  0  0
  7 30  2  0  0  0  0
  7 40  1  0  0  0  0
  8 41  1  0  0  0  0
  8 42  1  0  0  0  0
  9 43  1  0  0  0  0
 10 44  1  0  0  0  0
 11 12  1  0  0  0  0
 11 14  1  0  0  0  0
 11 45  1  0  0  0  0
 11 46  1  0  0  0  0
 12 47  1  0  0  0  0
 12 48  1  0  0  0  0
 13 14  1  0  0  0  0
 13 16  1  0  0  0  0
 13 18  2  0  0  0  0
 14 49  1  0  0  0  0
 14 50  1  0  0  0  0
 15 16  1  0  0  0  0
 15 17  1  0  0  0  0
 15 19  1  0  0  0  0
 15 51  1  0  0  0  0
 17 52  1  0  0  0  0
 17 53  1  0  0  0  0
 17 54  1  0  0  0  0
 19 55  1  0  0  0  0
 19 56  1  0  0  0  0
 19 57  1  0  0  0  0
 20 21  1  0  0  0  0
 20 58  1  0  0  0  0
 20 59  1  0  0  0  0
 21 29  1  0  0  0  0
 21 22  1  0  0  0  0
 21 60  1  1  0  0  0
 22 61  1  0  0  0  0
 23 24  1  0  0  0  0
 23 62  1  0  0  0  0
 23 63  1  0  0  0  0
 24 25  2  0  0  0  0
 24 31  1  0  0  0  0
 25 26  1  0  0  0  0
 25 64  1  0  0  0  0
 26 27  2  0  0  0  0
 26 65  1  0  0  0  0
 27 28  1  0  0  0  0
 27 66  1  0  0  0  0
 28 31  2  0  0  0  0
 28 67  1  0  0  0  0
 29 23  1  0  0  0  0
 29 68  1  0  0  0  0
 29 69  1  0  0  0  0
 30 12  1  0  0  0  0
 30 70  1  0  0  0  0
 31 71  1  0  0  0  0
M  END
>  <DRUGBANK_ID>
DB00654

>  <SECONDARY_ACCESSION_NUMBERS>
APRD01065

>  <COMMON_NAME>
Latanoprost

>  <CAS_NUMBER>
130209-82-4

>  <UNII>
6Z5B6HVF6O

>  <SYNONYMS>
isopropyl (Z)-7-((1R,2R,3R,5S)-3,5-dihydroxy-2-((3R)-3-hydroxy-5-phenylpentyl)cyclopentyl)-5-heptenoate; Latanoprost; Latanoprostum; propan-2-yl (5Z)-7-{(1R,2R,3R,5S)-3,5-dihydroxy-2-[(3R)-3-hydroxy-5-phenylpentyl]cyclopentyl}hept-5-enoate

$$$$
