BJM
 OpenBabel10282417072D

 48 52  0  0  0  0  0  0  0  0999 V2000
    0.2077    0.7996    0.0000 C   0  0  1  0  0  0  0  0  0  0  0  0
    0.2077   -0.0254    0.0000 C   0  0  1  0  0  0  0  0  0  0  0  0
   -0.5277    0.4259    0.0000 C   0  0  0  0  0  0  0  0  0  0  0  0
   -0.0783    1.2162    0.0000 C   0  0  1  0  0  0  0  0  0  0  0  0
    0.6572    2.3373    0.0000 C   0  0  2  0  0  0  0  0  0  0  0  0
    1.3928    1.2162    0.0000 C   0  0  1  0  0  0  0  0  0  0  0  0
   -0.0783    1.9636    0.0000 C   0  0  0  0  0  0  0  0  0  0  0  0
    0.6572    0.8425    0.0000 C   0  0  0  0  0  0  0  0  0  0  0  0
    1.3928    1.9636    0.0000 C   0  0  0  0  0  0  0  0  0  0  0  0
   -0.0941   -2.5325    0.0000 C   0  0  1  0  0  0  0  0  0  0  0  0
    0.7128   -2.3609    0.0000 C   0  0  0  0  0  0  0  0  0  0  0  0
   -0.9191   -2.5326    0.0000 C   0  0  0  0  0  0  0  0  0  0  0  0
   -1.9587   -1.4930    0.0000 C   0  0  0  0  0  0  0  0  0  0  0  0
   -2.7434   -1.2382    0.0000 N   0  0  0  0  0  0  0  0  0  0  0  0
    0.2077    1.5470    0.0000 C   0  0  0  0  0  0  0  0  0  0  0  0
    0.9433    0.4259    0.0000 C   0  0  0  0  0  0  0  0  0  0  0  0
   -0.5067   -0.4380    0.0000 C   0  0  0  0  0  0  0  0  0  0  0  0
    0.9222   -0.4379    0.0000 N   0  0  0  0  0  0  0  0  0  0  0  0
   -0.5067   -1.2630    0.0000 N   0  0  0  0  0  0  0  0  0  0  0  0
   -1.2212   -0.0255    0.0000 O   0  0  0  0  0  0  0  0  0  0  0  0
   -0.8759    1.4271    0.0000 O   0  0  0  0  0  0  0  0  0  0  0  0
    0.1608   -1.7479    0.0000 C   0  0  2  0  0  0  0  0  0  0  0  0
   -1.1741   -1.7479    0.0000 C   0  0  1  0  0  0  0  0  0  0  0  0
   -0.2980    0.2665    0.0000 H   0  0  0  0  0  0  0  0  0  0  0  0
    0.6572    2.9212    0.0000 H   0  0  0  0  0  0  0  0  0  0  0  0
    1.9573    1.0668    0.0000 H   0  0  0  0  0  0  0  0  0  0  0  0
   -0.0330   -3.1132    0.0000 H   0  0  0  0  0  0  0  0  0  0  0  0
    0.5515   -1.3139    0.0000 H   0  0  0  0  0  0  0  0  0  0  0  0
   -1.5870   -2.1609    0.0000 H   0  0  0  0  0  0  0  0  0  0  0  0
   -1.3018   -0.3128    0.0000 H   0  0  0  0  0  0  0  0  0  0  0  0
   -1.3711    1.0844    0.0000 H   0  0  0  0  0  0  0  0  0  0  0  0
   -0.9903    2.5232    0.0000 H   0  0  0  0  0  0  0  0  0  0  0  0
   -1.0120    1.4410    0.0000 H   0  0  0  0  0  0  0  0  0  0  0  0
    0.6572   -0.2275    0.0000 H   0  0  0  0  0  0  0  0  0  0  0  0
   -0.2548    0.2829    0.0000 H   0  0  0  0  0  0  0  0  0  0  0  0
    2.3048    2.5232    0.0000 H   0  0  0  0  0  0  0  0  0  0  0  0
    2.3265    1.4411    0.0000 H   0  0  0  0  0  0  0  0  0  0  0  0
    1.7305   -2.6915    0.0000 H   0  0  0  0  0  0  0  0  0  0  0  0
    1.2955   -1.4635    0.0000 H   0  0  0  0  0  0  0  0  0  0  0  0
   -1.5480   -3.3983    0.0000 H   0  0  0  0  0  0  0  0  0  0  0  0
   -1.9759   -2.3653    0.0000 H   0  0  0  0  0  0  0  0  0  0  0  0
   -0.8267    1.8206    0.0000 H   0  0  0  0  0  0  0  0  0  0  0  0
   -0.6401    0.8943    0.0000 H   0  0  0  0  0  0  0  0  0  0  0  0
    1.2511   -0.5989    0.0000 H   0  0  0  0  0  0  0  0  0  0  0  0
    0.1224   -0.2604    0.0000 H   0  0  0  0  0  0  0  0  0  0  0  0
    0.9222   -1.4579    0.0000 H   0  0  0  0  0  0  0  0  0  0  0  0
    1.8055    0.0721    0.0000 H   0  0  0  0  0  0  0  0  0  0  0  0
   -1.1300    2.3632    0.0000 H   0  0  0  0  0  0  0  0  0  0  0  0
  1  2  1  1  0  0  0
  1  3  1  0  0  0  0
  1 16  1  0  0  0  0
  1 15  1  0  0  0  0
  2 17  1  0  0  0  0
  2 18  1  0  0  0  0
  2 24  1  1  0  0  0
  3  4  1  0  0  0  0
  3 30  1  0  0  0  0
  3 31  1  0  0  0  0
  4  8  1  0  0  0  0
  4 21  1  6  0  0  0
  4  7  1  0  0  0  0
  5  7  1  0  0  0  0
  5  9  1  0  0  0  0
  5 15  1  0  0  0  0
  5 25  1  1  0  0  0
  6 16  1  0  0  0  0
  6  8  1  0  0  0  0
  6  9  1  0  0  0  0
  6 26  1  6  0  0  0
  7 32  1  0  0  0  0
  7 33  1  0  0  0  0
  8 34  1  0  0  0  0
  8 35  1  0  0  0  0
  9 36  1  0  0  0  0
  9 37  1  0  0  0  0
 10 11  1  0  0  0  0
 10 12  1  0  0  0  0
 10 22  1  0  0  0  0
 10 27  1  6  0  0  0
 11 22  1  0  0  0  0
 11 38  1  0  0  0  0
 11 39  1  0  0  0  0
 12 23  1  0  0  0  0
 12 40  1  0  0  0  0
 12 41  1  0  0  0  0
 13 14  3  0  0  0  0
 15 42  1  0  0  0  0
 15 43  1  0  0  0  0
 16 44  1  0  0  0  0
 16 45  1  0  0  0  0
 17 19  1  0  0  0  0
 17 20  2  0  0  0  0
 18 46  1  0  0  0  0
 18 47  1  0  0  0  0
 19 22  1  0  0  0  0
 19 23  1  0  0  0  0
 21 48  1  0  0  0  0
 22 28  1  6  0  0  0
 23 13  1  0  0  0  0
 23 29  1  6  0  0  0
M  END
>  <DRUGBANK_ID>
DB07465

>  <COMMON_NAME>
(1S,3S,5S)-2-{(2S)-2-amino-2-[(1R,3S,5R,7S)-3-hydroxytricyclo[3.3.1.1~3,7~]dec-1-yl]acetyl}-2-azabicyclo[3.1.0]hexane-3-carbonitrile

$$$$
