72145
 OpenBabel10282417072D

 68 72  0  0  1  0  0  0  0  0999 V2000
    6.4930    0.2116    0.0000 O   0  0  0  0  0  0  0  0  0  0  0  0
    7.2661   -0.2907    0.0000 O   0  0  0  0  0  0  0  0  0  0  0  0
    8.7612   -1.2767    0.0000 O   0  0  0  0  0  0  0  0  0  0  0  0
    8.7612   -2.6046    0.0000 O   0  0  0  0  0  0  0  0  0  0  0  0
    3.8396   -0.5771    0.0000 O   0  0  0  0  0  0  0  0  0  0  0  0
    3.0030    0.5257    0.0000 O   0  0  0  0  0  0  0  0  0  0  0  0
    6.7456    1.6552    0.0000 O   0  0  0  0  0  0  0  0  0  0  0  0
    3.5338    2.0881    0.0000 O   0  0  0  0  0  0  0  0  0  0  0  0
    5.0666   -1.5111    0.0000 N   0  0  0  0  0  0  0  0  0  0  0  0
    5.1521    2.4097    0.0000 N   0  0  0  0  0  0  0  0  0  0  0  0
    5.8140   -1.0871    0.0000 C   0  0  3  0  0  0  0  0  0  0  0  0
    5.8236   -0.2621    0.0000 C   0  0  3  0  0  0  0  0  0  0  0  0
    6.5516   -1.5282    0.0000 C   0  0  0  0  0  0  0  0  0  0  0  0
    5.0666   -2.3704    0.0000 C   0  0  0  0  0  0  0  0  0  0  0  0
    6.5516   -2.3532    0.0000 C   0  0  0  0  0  0  0  0  0  0  0  0
    5.8140   -2.7943    0.0000 C   0  0  0  0  0  0  0  0  0  0  0  0
    5.1653    0.2269    0.0000 C   0  0  0  0  0  0  0  0  0  0  0  0
    7.2661   -1.1157    0.0000 C   0  0  0  0  0  0  0  0  0  0  0  0
    5.4306    1.0081    0.0000 C   0  0  0  0  0  0  0  0  0  0  0  0
    4.2546   -1.3646    0.0000 C   0  0  0  0  0  0  0  0  0  0  0  0
    7.2661   -2.7657    0.0000 C   0  0  0  0  0  0  0  0  0  0  0  0
    4.3560    0.0661    0.0000 C   0  0  0  0  0  0  0  0  0  0  0  0
    7.9805   -1.5282    0.0000 C   0  0  0  0  0  0  0  0  0  0  0  0
    6.2506    0.9951    0.0000 C   0  0  0  0  0  0  0  0  0  0  0  0
    7.9805   -2.3532    0.0000 C   0  0  0  0  0  0  0  0  0  0  0  0
    4.8868    1.6285    0.0000 C   0  0  0  0  0  0  0  0  0  0  0  0
    3.8122    0.6865    0.0000 C   0  0  0  0  0  0  0  0  0  0  0  0
    4.0776    1.4677    0.0000 C   0  0  0  0  0  0  0  0  0  0  0  0
    9.2426   -1.9407    0.0000 C   0  0  0  0  0  0  0  0  0  0  0  0
    7.9805    0.1217    0.0000 C   0  0  0  0  0  0  0  0  0  0  0  0
    3.0241   -0.4514    0.0000 C   0  0  0  0  0  0  0  0  0  0  0  0
    2.4592    1.1461    0.0000 C   0  0  0  0  0  0  0  0  0  0  0  0
    2.7246    1.9273    0.0000 C   0  0  0  0  0  0  0  0  0  0  0  0
    2.5077   -1.0947    0.0000 C   0  0  0  0  0  0  0  0  0  0  0  0
    1.6500    0.9854    0.0000 C   0  0  0  0  0  0  0  0  0  0  0  0
    2.1807    2.5477    0.0000 C   0  0  0  0  0  0  0  0  0  0  0  0
    6.1177    2.6016    0.0000 H   0  0  0  0  0  0  0  0  0  0  0  0
    4.5031    3.1500    0.0000 H   0  0  0  0  0  0  0  0  0  0  0  0
    4.8925   -0.5432    0.0000 H   0  0  0  0  0  0  0  0  0  0  0  0
    6.7711   -0.7593    0.0000 H   0  0  0  0  0  0  0  0  0  0  0  0
    4.1420   -2.9090    0.0000 H   0  0  0  0  0  0  0  0  0  0  0  0
    5.0728   -3.4404    0.0000 H   0  0  0  0  0  0  0  0  0  0  0  0
    5.8263   -3.8642    0.0000 H   0  0  0  0  0  0  0  0  0  0  0  0
    6.7478   -3.3168    0.0000 H   0  0  0  0  0  0  0  0  0  0  0  0
    3.8926   -0.3577    0.0000 H   0  0  0  0  0  0  0  0  0  0  0  0
    3.5636   -2.1815    0.0000 H   0  0  0  0  0  0  0  0  0  0  0  0
    3.2016   -1.1746    0.0000 H   0  0  0  0  0  0  0  0  0  0  0  0
    7.2661   -3.7977    0.0000 H   0  0  0  0  0  0  0  0  0  0  0  0
   10.3126   -1.9407    0.0000 H   0  0  0  0  0  0  0  0  0  0  0  0
    9.7288   -2.8939    0.0000 H   0  0  0  0  0  0  0  0  0  0  0  0
    8.9071   -0.4134    0.0000 H   0  0  0  0  0  0  0  0  0  0  0  0
    7.9806    1.1917    0.0000 H   0  0  0  0  0  0  0  0  0  0  0  0
    8.9072    0.6566    0.0000 H   0  0  0  0  0  0  0  0  0  0  0  0
    2.6364    0.5459    0.0000 H   0  0  0  0  0  0  0  0  0  0  0  0
    1.9666   -0.2885    0.0000 H   0  0  0  0  0  0  0  0  0  0  0  0
    2.8034    2.1592    0.0000 H   0  0  0  0  0  0  0  0  0  0  0  0
    1.7539    1.9508    0.0000 H   0  0  0  0  0  0  0  0  0  0  0  0
    2.3805    0.9141    0.0000 H   0  0  0  0  0  0  0  0  0  0  0  0
    1.6751    1.7187    0.0000 H   0  0  0  0  0  0  0  0  0  0  0  0
    1.4502   -0.9318    0.0000 H   0  0  0  0  0  0  0  0  0  0  0  0
    2.8954   -2.0920    0.0000 H   0  0  0  0  0  0  0  0  0  0  0  0
    1.8379   -1.9291    0.0000 H   0  0  0  0  0  0  0  0  0  0  0  0
    0.9447    1.7901    0.0000 H   0  0  0  0  0  0  0  0  0  0  0  0
    1.3057   -0.0277    0.0000 H   0  0  0  0  0  0  0  0  0  0  0  0
    0.6005    0.7770    0.0000 H   0  0  0  0  0  0  0  0  0  0  0  0
    2.5248    3.5609    0.0000 H   0  0  0  0  0  0  0  0  0  0  0  0
    1.1312    2.3391    0.0000 H   0  0  0  0  0  0  0  0  0  0  0  0
    1.4753    3.3523    0.0000 H   0  0  0  0  0  0  0  0  0  0  0  0
  1 12  1  0  0  0  0
  1 24  1  0  0  0  0
  2 18  1  0  0  0  0
  2 30  1  0  0  0  0
  3 23  1  0  0  0  0
  3 29  1  0  0  0  0
  4 25  1  0  0  0  0
  4 29  1  0  0  0  0
  5 22  1  0  0  0  0
  5 31  1  0  0  0  0
  6 27  1  0  0  0  0
  6 32  1  0  0  0  0
  7 24  2  0  0  0  0
  8 28  1  0  0  0  0
  8 33  1  0  0  0  0
  9 11  1  0  0  0  0
  9 14  1  0  0  0  0
  9 20  1  0  0  0  0
 10 26  1  0  0  0  0
 10 37  1  0  0  0  0
 10 38  1  0  0  0  0
 11 12  1  0  0  0  0
 11 13  1  0  0  0  0
 11 39  1  0  0  0  0
 12 17  1  0  0  0  0
 12 40  1  0  0  0  0
 13 15  1  0  0  0  0
 13 18  2  0  0  0  0
 14 16  1  0  0  0  0
 14 41  1  0  0  0  0
 14 42  1  0  0  0  0
 15 16  1  0  0  0  0
 15 21  2  0  0  0  0
 16 43  1  0  0  0  0
 16 44  1  0  0  0  0
 17 19  2  0  0  0  0
 17 22  1  0  0  0  0
 18 23  1  0  0  0  0
 19 24  1  0  0  0  0
 19 26  1  0  0  0  0
 20 45  1  0  0  0  0
 20 46  1  0  0  0  0
 20 47  1  0  0  0  0
 21 25  1  0  0  0  0
 21 48  1  0  0  0  0
 22 27  2  0  0  0  0
 23 25  2  0  0  0  0
 26 28  2  0  0  0  0
 27 28  1  0  0  0  0
 29 49  1  0  0  0  0
 29 50  1  0  0  0  0
 30 51  1  0  0  0  0
 30 52  1  0  0  0  0
 30 53  1  0  0  0  0
 31 34  1  0  0  0  0
 31 54  1  0  0  0  0
 31 55  1  0  0  0  0
 32 35  1  0  0  0  0
 32 56  1  0  0  0  0
 32 57  1  0  0  0  0
 33 36  1  0  0  0  0
 33 58  1  0  0  0  0
 33 59  1  0  0  0  0
 34 60  1  0  0  0  0
 34 61  1  0  0  0  0
 34 62  1  0  0  0  0
 35 63  1  0  0  0  0
 35 64  1  0  0  0  0
 35 65  1  0  0  0  0
 36 66  1  0  0  0  0
 36 67  1  0  0  0  0
 36 68  1  0  0  0  0
M  END
>  <DRUGBANK_ID>
DB13711

>  <COMMON_NAME>
Tritoqualine

>  <CAS_NUMBER>
14504-73-5

>  <UNII>
F4MW5166YH

>  <SYNONYMS>
Hypostamin; Hypostamine; Inhibostamin; Tritocualina; Tritoqualine; Tritoqualinum

$$$$
