
 OpenBabel10282417072D

 83 85  0  0  0  0  0  0  0  0999 V2000
   -1.5852    1.3728    0.0000 C   0  0  0  0  0  0  0  0  0  0  0  0
   -2.3779    1.6016    0.0000 C   0  0  0  0  0  0  0  0  0  0  0  0
   -2.5760    2.4025    0.0000 C   0  0  0  0  0  0  0  0  0  0  0  0
   -2.9723    1.0296    0.0000 C   0  0  0  0  0  0  0  0  0  0  0  0
   -2.7742    0.2288    0.0000 C   0  0  2  0  0  0  0  0  0  0  0  0
   -3.3686   -0.3432    0.0000 N   0  0  0  0  0  0  0  0  0  0  0  0
   -4.1613   -0.1144    0.0000 C   0  0  0  0  0  0  0  0  0  0  0  0
   -4.3594    0.6864    0.0000 O   0  0  0  0  0  0  0  0  0  0  0  0
   -4.7558   -0.6864    0.0000 C   0  0  0  0  0  0  0  0  0  0  0  0
   -5.5484   -0.4576    0.0000 O   0  0  0  0  0  0  0  0  0  0  0  0
   -6.1429   -1.0296    0.0000 C   0  0  0  0  0  0  0  0  0  0  0  0
   -5.9447   -1.8305    0.0000 C   0  0  0  0  0  0  0  0  0  0  0  0
   -6.5392   -2.4025    0.0000 C   0  0  0  0  0  0  0  0  0  0  0  0
   -7.3318   -2.1737    0.0000 C   0  0  0  0  0  0  0  0  0  0  0  0
   -7.5300   -1.3728    0.0000 C   0  0  0  0  0  0  0  0  0  0  0  0
   -6.9355   -0.8008    0.0000 C   0  0  0  0  0  0  0  0  0  0  0  0
   -7.1337    0.0000    0.0000 C   0  0  0  0  0  0  0  0  0  0  0  0
   -1.9815    0.0000    0.0000 C   0  0  0  0  0  0  0  0  0  0  0  0
   -1.7834   -0.8008    0.0000 O   0  0  0  0  0  0  0  0  0  0  0  0
   -1.3871    0.5720    0.0000 N   0  0  0  0  0  0  0  0  0  0  0  0
   -0.5944    0.3432    0.0000 C   0  0  1  0  0  0  0  0  0  0  0  0
    0.0000    0.9152    0.0000 C   0  0  0  0  0  0  0  0  0  0  0  0
    0.7926    0.6864    0.0000 C   0  0  0  0  0  0  0  0  0  0  0  0
    1.3871    1.2584    0.0000 C   0  0  0  0  0  0  0  0  0  0  0  0
    2.1797    1.0296    0.0000 C   0  0  0  0  0  0  0  0  0  0  0  0
    2.3779    0.2288    0.0000 C   0  0  0  0  0  0  0  0  0  0  0  0
    3.1705    0.0000    0.0000 O   0  0  0  0  0  0  0  0  0  0  0  0
    3.7650    0.5720    0.0000 C   0  0  0  0  0  0  0  0  0  0  0  0
    3.5668    1.3728    0.0000 O   0  0  0  0  0  0  0  0  0  0  0  0
    4.5576    0.3432    0.0000 N   0  0  0  0  0  0  0  0  0  0  0  0
    5.1521    0.9152    0.0000 C   0  0  0  0  0  0  0  0  0  0  0  0
    5.9447    0.6864    0.0000 C   0  0  0  0  0  0  0  0  0  0  0  0
    6.1429   -0.1144    0.0000 C   0  0  3  0  0  0  0  0  0  0  0  0
    5.5484   -0.6864    0.0000 C   0  0  0  0  0  0  0  0  0  0  0  0
    4.7558   -0.4576    0.0000 C   0  0  0  0  0  0  0  0  0  0  0  0
    6.9355   -0.3432    0.0000 C   0  0  0  0  0  0  0  0  0  0  0  0
    7.5300    0.2288    0.0000 O   0  0  0  0  0  0  0  0  0  0  0  0
    7.1337   -1.1440    0.0000 N   0  0  0  0  0  0  0  0  0  0  0  0
    1.7834   -0.3432    0.0000 C   0  0  0  0  0  0  0  0  0  0  0  0
    0.9907   -0.1144    0.0000 C   0  0  0  0  0  0  0  0  0  0  0  0
   -0.3963   -0.4576    0.0000 C   0  0  0  0  0  0  0  0  0  0  0  0
    0.3963   -0.6864    0.0000 O   0  0  0  0  0  0  0  0  0  0  0  0
   -0.9907   -1.0296    0.0000 O   0  0  0  0  0  0  0  0  0  0  0  0
   -1.3282    0.3341    0.0000 H   0  0  0  0  0  0  0  0  0  0  0  0
   -0.8142    2.1147    0.0000 H   0  0  0  0  0  0  0  0  0  0  0  0
   -0.5572    1.0761    0.0000 H   0  0  0  0  0  0  0  0  0  0  0  0
   -3.4059    1.8984    0.0000 H   0  0  0  0  0  0  0  0  0  0  0  0
   -1.8049    3.1443    0.0000 H   0  0  0  0  0  0  0  0  0  0  0  0
   -3.6040    2.6994    0.0000 H   0  0  0  0  0  0  0  0  0  0  0  0
   -2.8329    3.4412    0.0000 H   0  0  0  0  0  0  0  0  0  0  0  0
   -4.0003    1.3264    0.0000 H   0  0  0  0  0  0  0  0  0  0  0  0
   -3.7433    0.2877    0.0000 H   0  0  0  0  0  0  0  0  0  0  0  0
   -3.8022    0.5256    0.0000 H   0  0  0  0  0  0  0  0  0  0  0  0
   -3.1321   -1.2989    0.0000 H   0  0  0  0  0  0  0  0  0  0  0  0
   -4.4988   -1.7251    0.0000 H   0  0  0  0  0  0  0  0  0  0  0  0
   -5.5268   -1.4283    0.0000 H   0  0  0  0  0  0  0  0  0  0  0  0
   -4.9532   -2.1167    0.0000 H   0  0  0  0  0  0  0  0  0  0  0  0
   -6.2913   -3.4043    0.0000 H   0  0  0  0  0  0  0  0  0  0  0  0
   -8.0754   -2.8893    0.0000 H   0  0  0  0  0  0  0  0  0  0  0  0
   -8.5215   -1.0866    0.0000 H   0  0  0  0  0  0  0  0  0  0  0  0
   -6.3627    0.7420    0.0000 H   0  0  0  0  0  0  0  0  0  0  0  0
   -8.1617    0.2967    0.0000 H   0  0  0  0  0  0  0  0  0  0  0  0
   -7.3908    1.0387    0.0000 H   0  0  0  0  0  0  0  0  0  0  0  0
   -1.6236    1.5277    0.0000 H   0  0  0  0  0  0  0  0  0  0  0  0
   -0.8514    1.3819    0.0000 H   0  0  0  0  0  0  0  0  0  0  0  0
   -0.2570    1.9539    0.0000 H   0  0  0  0  0  0  0  0  0  0  0  0
    0.7710    1.6571    0.0000 H   0  0  0  0  0  0  0  0  0  0  0  0
    1.1392    2.2602    0.0000 H   0  0  0  0  0  0  0  0  0  0  0  0
    2.9233    1.7452    0.0000 H   0  0  0  0  0  0  0  0  0  0  0  0
    4.8951    1.9539    0.0000 H   0  0  0  0  0  0  0  0  0  0  0  0
    5.9231    1.6571    0.0000 H   0  0  0  0  0  0  0  0  0  0  0  0
    6.7157    1.4283    0.0000 H   0  0  0  0  0  0  0  0  0  0  0  0
    6.9727    0.3897    0.0000 H   0  0  0  0  0  0  0  0  0  0  0  0
    5.1149    0.1824    0.0000 H   0  0  0  0  0  0  0  0  0  0  0  0
    5.8054   -1.7251    0.0000 H   0  0  0  0  0  0  0  0  0  0  0  0
    4.7774   -1.4283    0.0000 H   0  0  0  0  0  0  0  0  0  0  0  0
    3.9848   -1.1995    0.0000 H   0  0  0  0  0  0  0  0  0  0  0  0
    3.7278   -0.1609    0.0000 H   0  0  0  0  0  0  0  0  0  0  0  0
    6.4243   -1.8267    0.0000 H   0  0  0  0  0  0  0  0  0  0  0  0
    8.0796   -1.4170    0.0000 H   0  0  0  0  0  0  0  0  0  0  0  0
    2.0313   -1.3450    0.0000 H   0  0  0  0  0  0  0  0  0  0  0  0
    0.2471   -0.8300    0.0000 H   0  0  0  0  0  0  0  0  0  0  0  0
   -1.8909   -0.7698    0.0000 H   0  0  0  0  0  0  0  0  0  0  0  0
  1  2  1  0  0  0  0
  1 44  1  0  0  0  0
  1 45  1  0  0  0  0
  1 46  1  0  0  0  0
  2  3  1  0  0  0  0
  2  4  1  0  0  0  0
  2 47  1  0  0  0  0
  3 48  1  0  0  0  0
  3 49  1  0  0  0  0
  3 50  1  0  0  0  0
  4 51  1  0  0  0  0
  4 52  1  0  0  0  0
  5  4  1  0  0  0  0
  5  6  1  0  0  0  0
  5 18  1  0  0  0  0
  5 53  1  6  0  0  0
  6  7  1  0  0  0  0
  6 54  1  0  0  0  0
  7  8  2  0  0  0  0
  7  9  1  0  0  0  0
  9 10  1  0  0  0  0
  9 55  1  0  0  0  0
  9 56  1  0  0  0  0
 10 11  1  0  0  0  0
 11 12  2  0  0  0  0
 11 16  1  0  0  0  0
 12 13  1  0  0  0  0
 12 57  1  0  0  0  0
 13 14  2  0  0  0  0
 13 58  1  0  0  0  0
 14 15  1  0  0  0  0
 14 59  1  0  0  0  0
 15 16  2  0  0  0  0
 15 60  1  0  0  0  0
 16 17  1  0  0  0  0
 17 61  1  0  0  0  0
 17 62  1  0  0  0  0
 17 63  1  0  0  0  0
 18 19  2  0  0  0  0
 18 20  1  0  0  0  0
 20 64  1  0  0  0  0
 21 20  1  0  0  0  0
 21 22  1  0  0  0  0
 21 41  1  0  0  0  0
 21 65  1  6  0  0  0
 22 23  1  0  0  0  0
 22 66  1  0  0  0  0
 22 67  1  0  0  0  0
 23 24  2  0  0  0  0
 23 40  1  0  0  0  0
 24 25  1  0  0  0  0
 24 68  1  0  0  0  0
 25 26  2  0  0  0  0
 25 69  1  0  0  0  0
 26 27  1  0  0  0  0
 26 39  1  0  0  0  0
 27 28  1  0  0  0  0
 28 29  2  0  0  0  0
 28 30  1  0  0  0  0
 30 31  1  0  0  0  0
 30 35  1  0  0  0  0
 31 32  1  0  0  0  0
 31 70  1  0  0  0  0
 31 71  1  0  0  0  0
 32 33  1  0  0  0  0
 32 72  1  0  0  0  0
 32 73  1  0  0  0  0
 33 34  1  0  0  0  0
 33 36  1  0  0  0  0
 33 74  1  0  0  0  0
 34 35  1  0  0  0  0
 34 75  1  0  0  0  0
 34 76  1  0  0  0  0
 35 77  1  0  0  0  0
 35 78  1  0  0  0  0
 36 37  2  0  0  0  0
 36 38  1  0  0  0  0
 38 79  1  0  0  0  0
 38 80  1  0  0  0  0
 39 40  2  0  0  0  0
 39 81  1  0  0  0  0
 40 82  1  0  0  0  0
 41 42  2  0  0  0  0
 41 43  1  0  0  0  0
 43 83  1  0  0  0  0
M  END
>  <DRUGBANK_ID>
DB06508

>  <COMMON_NAME>
GW-559090

>  <CAS_NUMBER>
278598-52-0

>  <UNII>
H9W4YH429K

$$$$
