3FP
 OpenBabel10282417072D

 56 58  0  0  0  0  0  0  0  0999 V2000
   -1.5881    1.4145    0.0000 C   0  0  0  0  0  0  0  0  0  0  0  0
   -3.0170    0.5895    0.0000 N   0  0  0  0  0  0  0  0  0  0  0  0
   -1.5881    0.5895    0.0000 C   0  0  0  0  0  0  0  0  0  0  0  0
   -0.8736    4.3020    0.0000 C   0  0  0  0  0  0  0  0  0  0  0  0
   -0.1591    3.8895    0.0000 C   0  0  0  0  0  0  0  0  0  0  0  0
   -0.1591    3.0645    0.0000 C   0  0  0  0  0  0  0  0  0  0  0  0
   -0.8736    2.6520    0.0000 C   0  0  0  0  0  0  0  0  0  0  0  0
   -2.3026    0.1770    0.0000 C   0  0  0  0  0  0  0  0  0  0  0  0
   -1.5881   -1.8855    0.0000 C   0  0  0  0  0  0  0  0  0  0  0  0
   -1.5881   -1.0605    0.0000 C   0  0  0  0  0  0  0  0  0  0  0  0
   -1.5881    3.0645    0.0000 C   0  0  0  0  0  0  0  0  0  0  0  0
   -1.5881    3.8895    0.0000 C   0  0  0  0  0  0  0  0  0  0  0  0
   -0.8736   -2.2980    0.0000 C   0  0  0  0  0  0  0  0  0  0  0  0
    1.2698   -1.8855    0.0000 C   0  0  0  0  0  0  0  0  0  0  0  0
   -0.1591   -1.0605    0.0000 C   0  0  0  0  0  0  0  0  0  0  0  0
   -0.1591   -1.8855    0.0000 C   0  0  0  0  0  0  0  0  0  0  0  0
   -0.8736   -0.6480    0.0000 C   0  0  0  0  0  0  0  0  0  0  0  0
   -3.0170    1.4145    0.0000 C   0  0  0  0  0  0  0  0  0  0  0  0
   -2.3026    1.8270    0.0000 N   0  0  0  0  0  0  0  0  0  0  0  0
   -0.8736    1.8270    0.0000 N   0  0  0  0  0  0  0  0  0  0  0  0
    0.5553    2.6520    0.0000 F   0  0  0  0  0  0  0  0  0  0  0  0
   -2.3026   -0.6480    0.0000 N   0  0  0  0  0  0  0  0  0  0  0  0
    0.5553   -2.2980    0.0000 O   0  0  0  0  0  0  0  0  0  0  0  0
   -2.3026    4.3020    0.0000 C   0  0  0  0  0  0  0  0  0  0  0  0
   -3.0170    4.7145    0.0000 F   0  0  0  0  0  0  0  0  0  0  0  0
   -2.7151    3.5875    0.0000 F   0  0  0  0  0  0  0  0  0  0  0  0
   -1.8901    5.0164    0.0000 F   0  0  0  0  0  0  0  0  0  0  0  0
    1.9843   -2.2980    0.0000 C   0  0  1  0  0  0  0  0  0  0  0  0
    2.6987   -1.8855    0.0000 C   0  0  0  0  0  0  0  0  0  0  0  0
    4.1277   -1.8855    0.0000 C   0  0  0  0  0  0  0  0  0  0  0  0
    3.4132   -3.1230    0.0000 C   0  0  0  0  0  0  0  0  0  0  0  0
    3.4132   -2.2980    0.0000 N   0  0  0  0  0  0  0  0  0  0  0  0
    1.9843   -3.1230    0.0000 O   0  0  0  0  0  0  0  0  0  0  0  0
    1.9843   -1.7141    0.0000 H   0  0  0  0  0  0  0  0  0  0  0  0
   -0.6944    0.0735    0.0000 H   0  0  0  0  0  0  0  0  0  0  0  0
   -0.8736    5.3340    0.0000 H   0  0  0  0  0  0  0  0  0  0  0  0
    0.7346    4.4055    0.0000 H   0  0  0  0  0  0  0  0  0  0  0  0
   -2.4818   -2.4015    0.0000 H   0  0  0  0  0  0  0  0  0  0  0  0
   -2.4818    2.5485    0.0000 H   0  0  0  0  0  0  0  0  0  0  0  0
   -0.8736   -3.3300    0.0000 H   0  0  0  0  0  0  0  0  0  0  0  0
    1.2698   -0.8155    0.0000 H   0  0  0  0  0  0  0  0  0  0  0  0
    2.1964   -1.3505    0.0000 H   0  0  0  0  0  0  0  0  0  0  0  0
    0.7346   -0.5445    0.0000 H   0  0  0  0  0  0  0  0  0  0  0  0
   -0.8736    0.3840    0.0000 H   0  0  0  0  0  0  0  0  0  0  0  0
   -3.9107    1.9305    0.0000 H   0  0  0  0  0  0  0  0  0  0  0  0
   -0.0210    1.3347    0.0000 H   0  0  0  0  0  0  0  0  0  0  0  0
   -3.1552   -1.1403    0.0000 H   0  0  0  0  0  0  0  0  0  0  0  0
    2.6987   -0.8155    0.0000 H   0  0  0  0  0  0  0  0  0  0  0  0
    3.6253   -1.3505    0.0000 H   0  0  0  0  0  0  0  0  0  0  0  0
    5.0543   -2.4205    0.0000 H   0  0  0  0  0  0  0  0  0  0  0  0
    4.1277   -0.8155    0.0000 H   0  0  0  0  0  0  0  0  0  0  0  0
    5.0544   -1.3505    0.0000 H   0  0  0  0  0  0  0  0  0  0  0  0
    2.4866   -3.6580    0.0000 H   0  0  0  0  0  0  0  0  0  0  0  0
    4.3398   -3.6580    0.0000 H   0  0  0  0  0  0  0  0  0  0  0  0
    3.4132   -4.1930    0.0000 H   0  0  0  0  0  0  0  0  0  0  0  0
    1.1443   -3.6080    0.0000 H   0  0  0  0  0  0  0  0  0  0  0  0
  1  3  2  0  0  0  0
  1 19  1  0  0  0  0
  1 20  1  0  0  0  0
  2  8  2  0  0  0  0
  2 18  1  0  0  0  0
  3  8  1  0  0  0  0
  3 35  1  0  0  0  0
  4  5  2  0  0  0  0
  4 12  1  0  0  0  0
  4 36  1  0  0  0  0
  5  6  1  0  0  0  0
  5 37  1  0  0  0  0
  6  7  2  0  0  0  0
  6 21  1  0  0  0  0
  7 11  1  0  0  0  0
  7 20  1  0  0  0  0
  8 22  1  0  0  0  0
  9 10  2  0  0  0  0
  9 13  1  0  0  0  0
  9 38  1  0  0  0  0
 10 17  1  0  0  0  0
 10 22  1  0  0  0  0
 11 12  2  0  0  0  0
 11 39  1  0  0  0  0
 12 24  1  0  0  0  0
 13 16  2  0  0  0  0
 13 40  1  0  0  0  0
 14 23  1  0  0  0  0
 14 28  1  0  0  0  0
 14 41  1  0  0  0  0
 14 42  1  0  0  0  0
 15 16  1  0  0  0  0
 15 17  2  0  0  0  0
 15 43  1  0  0  0  0
 16 23  1  0  0  0  0
 17 44  1  0  0  0  0
 18 19  2  0  0  0  0
 18 45  1  0  0  0  0
 20 46  1  0  0  0  0
 22 47  1  0  0  0  0
 24 25  1  0  0  0  0
 24 26  1  0  0  0  0
 24 27  1  0  0  0  0
 28 29  1  0  0  0  0
 28 33  1  0  0  0  0
 28 34  1  6  0  0  0
 29 32  1  0  0  0  0
 29 48  1  0  0  0  0
 29 49  1  0  0  0  0
 30 32  1  0  0  0  0
 30 50  1  0  0  0  0
 30 51  1  0  0  0  0
 30 52  1  0  0  0  0
 31 32  1  0  0  0  0
 31 53  1  0  0  0  0
 31 54  1  0  0  0  0
 31 55  1  0  0  0  0
 33 56  1  0  0  0  0
M  END
>  <DRUGBANK_ID>
DB07054

>  <COMMON_NAME>
(2R)-1-(DIMETHYLAMINO)-3-{4-[(6-{[2-FLUORO-5-(TRIFLUOROMETHYL)PHENYL]AMINO}PYRIMIDIN-4-YL)AMINO]PHENOXY}PROPAN-2-OL

$$$$
