1245
 OpenBabel10282417072D

 56 55  0  0  0  0  0  0  0  0999 V2000
    2.3643   -0.2063    0.0000 N   0  3  0  0  0  0  0  0  0  0  0  0
   10.2230    0.2063    0.0000 N   0  3  0  0  0  0  0  0  0  0  0  0
    3.0788    0.2063    0.0000 C   0  0  0  0  0  0  0  0  0  0  0  0
    9.5085   -0.2063    0.0000 C   0  0  0  0  0  0  0  0  0  0  0  0
    3.7932   -0.2063    0.0000 C   0  0  0  0  0  0  0  0  0  0  0  0
    8.7941    0.2063    0.0000 C   0  0  0  0  0  0  0  0  0  0  0  0
    4.5076    0.2063    0.0000 C   0  0  0  0  0  0  0  0  0  0  0  0
    8.0797   -0.2063    0.0000 C   0  0  0  0  0  0  0  0  0  0  0  0
    5.2219   -0.2063    0.0000 C   0  0  0  0  0  0  0  0  0  0  0  0
    7.3652    0.2063    0.0000 C   0  0  0  0  0  0  0  0  0  0  0  0
    5.9365    0.2063    0.0000 C   0  0  0  0  0  0  0  0  0  0  0  0
    6.6509   -0.2063    0.0000 C   0  0  0  0  0  0  0  0  0  0  0  0
    2.7767   -0.9206    0.0000 C   0  0  0  0  0  0  0  0  0  0  0  0
    1.9518    0.5082    0.0000 C   0  0  0  0  0  0  0  0  0  0  0  0
    1.6498   -0.6187    0.0000 C   0  0  0  0  0  0  0  0  0  0  0  0
    9.8105    0.9206    0.0000 C   0  0  0  0  0  0  0  0  0  0  0  0
   10.6354   -0.5082    0.0000 C   0  0  0  0  0  0  0  0  0  0  0  0
   10.9373    0.6187    0.0000 C   0  0  0  0  0  0  0  0  0  0  0  0
    3.0788    1.2763    0.0000 H   0  0  0  0  0  0  0  0  0  0  0  0
    4.0055    0.7412    0.0000 H   0  0  0  0  0  0  0  0  0  0  0  0
    9.5085   -1.2763    0.0000 H   0  0  0  0  0  0  0  0  0  0  0  0
    8.5818   -0.7412    0.0000 H   0  0  0  0  0  0  0  0  0  0  0  0
    3.7932   -1.2763    0.0000 H   0  0  0  0  0  0  0  0  0  0  0  0
    4.7199   -0.7412    0.0000 H   0  0  0  0  0  0  0  0  0  0  0  0
    8.7941    1.2763    0.0000 H   0  0  0  0  0  0  0  0  0  0  0  0
    7.8674    0.7412    0.0000 H   0  0  0  0  0  0  0  0  0  0  0  0
    4.5076    1.2763    0.0000 H   0  0  0  0  0  0  0  0  0  0  0  0
    5.4343    0.7412    0.0000 H   0  0  0  0  0  0  0  0  0  0  0  0
    8.0797   -1.2763    0.0000 H   0  0  0  0  0  0  0  0  0  0  0  0
    7.1530   -0.7413    0.0000 H   0  0  0  0  0  0  0  0  0  0  0  0
    5.2218   -1.2763    0.0000 H   0  0  0  0  0  0  0  0  0  0  0  0
    6.1485   -0.7413    0.0000 H   0  0  0  0  0  0  0  0  0  0  0  0
    7.3651    1.2763    0.0000 H   0  0  0  0  0  0  0  0  0  0  0  0
    6.4385    0.7412    0.0000 H   0  0  0  0  0  0  0  0  0  0  0  0
    5.9366    1.2763    0.0000 H   0  0  0  0  0  0  0  0  0  0  0  0
    6.8632    0.7412    0.0000 H   0  0  0  0  0  0  0  0  0  0  0  0
    6.6509   -1.2763    0.0000 H   0  0  0  0  0  0  0  0  0  0  0  0
    5.7242   -0.7412    0.0000 H   0  0  0  0  0  0  0  0  0  0  0  0
    2.2417   -1.8472    0.0000 H   0  0  0  0  0  0  0  0  0  0  0  0
    3.8467   -0.9206    0.0000 H   0  0  0  0  0  0  0  0  0  0  0  0
    3.3117   -1.8472    0.0000 H   0  0  0  0  0  0  0  0  0  0  0  0
    2.4868    1.4348    0.0000 H   0  0  0  0  0  0  0  0  0  0  0  0
    0.8818    0.5082    0.0000 H   0  0  0  0  0  0  0  0  0  0  0  0
    1.4168    1.4349    0.0000 H   0  0  0  0  0  0  0  0  0  0  0  0
    0.7232   -0.0836    0.0000 H   0  0  0  0  0  0  0  0  0  0  0  0
    1.6497   -1.6887    0.0000 H   0  0  0  0  0  0  0  0  0  0  0  0
    0.7231   -1.1536    0.0000 H   0  0  0  0  0  0  0  0  0  0  0  0
   10.3454    1.8473    0.0000 H   0  0  0  0  0  0  0  0  0  0  0  0
    8.7405    0.9205    0.0000 H   0  0  0  0  0  0  0  0  0  0  0  0
    9.2754    1.8472    0.0000 H   0  0  0  0  0  0  0  0  0  0  0  0
   10.1003   -1.4348    0.0000 H   0  0  0  0  0  0  0  0  0  0  0  0
   11.7054   -0.5083    0.0000 H   0  0  0  0  0  0  0  0  0  0  0  0
   11.1703   -1.4349    0.0000 H   0  0  0  0  0  0  0  0  0  0  0  0
   11.8639    0.0837    0.0000 H   0  0  0  0  0  0  0  0  0  0  0  0
   10.9373    1.6887    0.0000 H   0  0  0  0  0  0  0  0  0  0  0  0
   11.8639    1.1537    0.0000 H   0  0  0  0  0  0  0  0  0  0  0  0
  1  3  1  0  0  0  0
  1 13  1  0  0  0  0
  1 14  1  0  0  0  0
  1 15  1  0  0  0  0
  2  4  1  0  0  0  0
  2 16  1  0  0  0  0
  2 17  1  0  0  0  0
  2 18  1  0  0  0  0
  3  5  1  0  0  0  0
  3 19  1  0  0  0  0
  3 20  1  0  0  0  0
  4  6  1  0  0  0  0
  4 21  1  0  0  0  0
  4 22  1  0  0  0  0
  5  7  1  0  0  0  0
  5 23  1  0  0  0  0
  5 24  1  0  0  0  0
  6  8  1  0  0  0  0
  6 25  1  0  0  0  0
  6 26  1  0  0  0  0
  7  9  1  0  0  0  0
  7 27  1  0  0  0  0
  7 28  1  0  0  0  0
  8 10  1  0  0  0  0
  8 29  1  0  0  0  0
  8 30  1  0  0  0  0
  9 11  1  0  0  0  0
  9 31  1  0  0  0  0
  9 32  1  0  0  0  0
 10 12  1  0  0  0  0
 10 33  1  0  0  0  0
 10 34  1  0  0  0  0
 11 12  1  0  0  0  0
 11 35  1  0  0  0  0
 11 36  1  0  0  0  0
 12 37  1  0  0  0  0
 12 38  1  0  0  0  0
 13 39  1  0  0  0  0
 13 40  1  0  0  0  0
 13 41  1  0  0  0  0
 14 42  1  0  0  0  0
 14 43  1  0  0  0  0
 14 44  1  0  0  0  0
 15 45  1  0  0  0  0
 15 46  1  0  0  0  0
 15 47  1  0  0  0  0
 16 48  1  0  0  0  0
 16 49  1  0  0  0  0
 16 50  1  0  0  0  0
 17 51  1  0  0  0  0
 17 52  1  0  0  0  0
 17 53  1  0  0  0  0
 18 54  1  0  0  0  0
 18 55  1  0  0  0  0
 18 56  1  0  0  0  0
M  CHG  2   1   1   2   1
M  END
>  <DRUGBANK_ID>
DB01245

>  <SECONDARY_ACCESSION_NUMBERS>
APRD00696

>  <COMMON_NAME>
Decamethonium

>  <CAS_NUMBER>
156-74-1

>  <UNII>
C1CG1S3T2W

>  <SYNONYMS>
Decamethonium; Decamethonium cation; Decamethonium ion; Decamethonum; Decamethylenebis(trimethylammonium); N,N,N,N',N',N'-hexamethyl-1,10-decanediaminium

$$$$
