
 OpenBabel10282417072D

 82 88  0  0  0  0  0  0  0  0999 V2000
    1.5366    1.8710    0.0000 O   0  0  0  0  0  0  0  0  0  0  0  0
    2.1936    2.0821    0.0000 O   0  0  0  0  0  0  0  0  0  0  0  0
    0.1524    0.1936    0.0000 O   0  0  0  0  0  0  0  0  0  0  0  0
    4.2228    0.4046    0.0000 O   0  0  0  0  0  0  0  0  0  0  0  0
   -1.8064    1.8475    0.0000 O   0  0  0  0  0  0  0  0  0  0  0  0
    2.1936    0.6980    0.0000 N   0  0  0  0  0  0  0  0  0  0  0  0
    3.5894    1.4721    0.0000 N   0  0  0  0  0  0  0  0  0  0  0  0
   -0.4106    1.9882    0.0000 N   0  0  0  0  0  0  0  0  0  0  0  0
   -0.6334   -0.2522    0.0000 N   0  0  0  0  0  0  0  0  0  0  0  0
   -3.3196   -2.7624    0.0000 N   0  0  0  0  0  0  0  0  0  0  0  0
    2.1936    1.4721    0.0000 C   0  0  2  0  0  0  0  0  0  0  0  0
    2.9091    1.8710    0.0000 C   0  0  2  0  0  0  0  0  0  0  0  0
    0.8445    1.4721    0.0000 C   0  0  1  0  0  0  0  0  0  0  0  0
    0.8445    0.6980    0.0000 C   0  0  0  0  0  0  0  0  0  0  0  0
    2.8973    0.2991    0.0000 C   0  0  2  0  0  0  0  0  0  0  0  0
    3.5894    0.6862    0.0000 C   0  0  0  0  0  0  0  0  0  0  0  0
    2.9091    2.6099    0.0000 C   0  0  0  0  0  0  0  0  0  0  0  0
    0.8329    2.3167    0.0000 C   0  0  0  0  0  0  0  0  0  0  0  0
   -2.0763   -0.2873    0.0000 C   0  0  1  0  0  0  0  0  0  0  0  0
   -1.3607   -0.6980    0.0000 C   0  0  1  0  0  0  0  0  0  0  0  0
    4.2346    1.8475    0.0000 C   0  0  0  0  0  0  0  0  0  0  0  0
    2.8739   -0.3811    0.0000 C   0  0  0  0  0  0  0  0  0  0  0  0
   -2.7918   -0.6980    0.0000 C   0  0  0  0  0  0  0  0  0  0  0  0
    4.2346    2.5983    0.0000 C   0  0  0  0  0  0  0  0  0  0  0  0
   -1.3607    1.5660    0.0000 C   0  0  0  0  0  0  0  0  0  0  0  0
   -1.3607    1.0146    0.0000 C   0  0  2  0  0  0  0  0  0  0  0  0
   -2.7918   -1.4838    0.0000 C   0  0  0  0  0  0  0  0  0  0  0  0
   -2.0763    0.5923    0.0000 C   0  0  0  0  0  0  0  0  0  0  0  0
   -2.0763   -1.9062    0.0000 C   0  0  0  0  0  0  0  0  0  0  0  0
   -1.3607   -1.4838    0.0000 C   0  0  0  0  0  0  0  0  0  0  0  0
   -0.6334    0.5923    0.0000 C   0  0  0  0  0  0  0  0  0  0  0  0
   -3.4955   -1.9062    0.0000 C   0  0  0  0  0  0  0  0  0  0  0  0
   -3.5190   -0.2873    0.0000 C   0  0  0  0  0  0  0  0  0  0  0  0
    0.1408    2.7624    0.0000 C   0  0  0  0  0  0  0  0  0  0  0  0
    1.5601    2.7272    0.0000 C   0  0  0  0  0  0  0  0  0  0  0  0
   -2.2639   -2.7624    0.0000 C   0  0  0  0  0  0  0  0  0  0  0  0
    3.5776   -0.8153    0.0000 C   0  0  0  0  0  0  0  0  0  0  0  0
    2.1349   -0.7682    0.0000 C   0  0  0  0  0  0  0  0  0  0  0  0
   -4.2346   -1.4838    0.0000 C   0  0  0  0  0  0  0  0  0  0  0  0
   -4.2346   -0.6744    0.0000 C   0  0  0  0  0  0  0  0  0  0  0  0
    0.2346   -0.6509    0.0000 C   0  0  0  0  0  0  0  0  0  0  0  0
    2.8973    1.1438    0.0000 H   0  0  0  0  0  0  0  0  0  0  0  0
   -2.8269    0.1584    0.0000 H   0  0  0  0  0  0  0  0  0  0  0  0
   -0.5512   -1.1438    0.0000 H   0  0  0  0  0  0  0  0  0  0  0  0
    3.0336    2.5671    0.0000 H   0  0  0  0  0  0  0  0  0  0  0  0
   -0.4244    2.9726    0.0000 H   0  0  0  0  0  0  0  0  0  0  0  0
   -3.9418   -3.5254    0.0000 H   0  0  0  0  0  0  0  0  0  0  0  0
    1.9636   -0.2236    0.0000 H   0  0  0  0  0  0  0  0  0  0  0  0
    2.1558    3.3698    0.0000 H   0  0  0  0  0  0  0  0  0  0  0  0
    3.3251    3.5957    0.0000 H   0  0  0  0  0  0  0  0  0  0  0  0
    0.8640    3.3862    0.0000 H   0  0  0  0  0  0  0  0  0  0  0  0
    5.1621    1.3141    0.0000 H   0  0  0  0  0  0  0  0  0  0  0  0
    5.1608    2.3833    0.0000 H   0  0  0  0  0  0  0  0  0  0  0  0
    2.8363   -1.4504    0.0000 H   0  0  0  0  0  0  0  0  0  0  0  0
    4.9945    3.3516    0.0000 H   0  0  0  0  0  0  0  0  0  0  0  0
    5.2223    2.1867    0.0000 H   0  0  0  0  0  0  0  0  0  0  0  0
   -2.2899    1.5452    0.0000 H   0  0  0  0  0  0  0  0  0  0  0  0
   -3.0055    1.1229    0.0000 H   0  0  0  0  0  0  0  0  0  0  0  0
   -2.0840    1.6623    0.0000 H   0  0  0  0  0  0  0  0  0  0  0  0
   -0.4315   -2.0143    0.0000 H   0  0  0  0  0  0  0  0  0  0  0  0
   -1.3530   -2.5538    0.0000 H   0  0  0  0  0  0  0  0  0  0  0  0
    0.2939    1.1262    0.0000 H   0  0  0  0  0  0  0  0  0  0  0  0
   -0.6314    1.6623    0.0000 H   0  0  0  0  0  0  0  0  0  0  0  0
   -3.5096    0.7447    0.0000 H   0  0  0  0  0  0  0  0  0  0  0  0
    0.1927    3.8311    0.0000 H   0  0  0  0  0  0  0  0  0  0  0  0
   -0.8107    2.2730    0.0000 H   0  0  0  0  0  0  0  0  0  0  0  0
   -0.7588    3.3417    0.0000 H   0  0  0  0  0  0  0  0  0  0  0  0
    2.4815    2.1832    0.0000 H   0  0  0  0  0  0  0  0  0  0  0  0
    1.5705    3.7971    0.0000 H   0  0  0  0  0  0  0  0  0  0  0  0
    2.4919    3.2532    0.0000 H   0  0  0  0  0  0  0  0  0  0  0  0
   -1.6170   -3.5664    0.0000 H   0  0  0  0  0  0  0  0  0  0  0  0
    3.5463   -1.8848    0.0000 H   0  0  0  0  0  0  0  0  0  0  0  0
    4.5195   -0.3076    0.0000 H   0  0  0  0  0  0  0  0  0  0  0  0
    4.4882   -1.3772    0.0000 H   0  0  0  0  0  0  0  0  0  0  0  0
    1.2310   -0.1956    0.0000 H   0  0  0  0  0  0  0  0  0  0  0  0
    2.0910   -1.8373    0.0000 H   0  0  0  0  0  0  0  0  0  0  0  0
    1.1871   -1.2647    0.0000 H   0  0  0  0  0  0  0  0  0  0  0  0
   -5.1272   -2.0018    0.0000 H   0  0  0  0  0  0  0  0  0  0  0  0
   -5.1211   -0.1461    0.0000 H   0  0  0  0  0  0  0  0  0  0  0  0
    0.3340   -1.7163    0.0000 H   0  0  0  0  0  0  0  0  0  0  0  0
    1.1076   -0.0321    0.0000 H   0  0  0  0  0  0  0  0  0  0  0  0
    1.2069   -1.0975    0.0000 H   0  0  0  0  0  0  0  0  0  0  0  0
  1 11  1  0  0  0  0
  1 13  1  0  0  0  0
  2 45  1  0  0  0  0
  3 14  2  0  0  0  0
  4 16  2  0  0  0  0
  5 25  2  0  0  0  0
  6 11  1  0  0  0  0
  6 14  1  0  0  0  0
  6 15  1  0  0  0  0
  7 12  1  0  0  0  0
  7 16  1  0  0  0  0
  7 21  1  0  0  0  0
  8 25  1  0  0  0  0
  8 46  1  0  0  0  0
  9 20  1  0  0  0  0
  9 31  1  0  0  0  0
  9 41  1  0  0  0  0
 10 32  1  0  0  0  0
 10 36  1  0  0  0  0
 10 47  1  0  0  0  0
 11  2  1  6  0  0  0
 11 12  1  0  0  0  0
 12 17  1  0  0  0  0
 12 42  1  1  0  0  0
 13  8  1  6  0  0  0
 13 14  1  0  0  0  0
 13 18  1  0  0  0  0
 15 16  1  0  0  0  0
 15 22  1  0  0  0  0
 15 48  1  1  0  0  0
 17 24  1  0  0  0  0
 17 49  1  0  0  0  0
 17 50  1  0  0  0  0
 18 34  1  0  0  0  0
 18 35  1  0  0  0  0
 18 51  1  0  0  0  0
 19 20  1  0  0  0  0
 19 23  1  0  0  0  0
 19 28  1  0  0  0  0
 19 43  1  6  0  0  0
 20 30  1  0  0  0  0
 20 44  1  1  0  0  0
 21 24  1  0  0  0  0
 21 52  1  0  0  0  0
 21 53  1  0  0  0  0
 22 37  1  0  0  0  0
 22 38  1  0  0  0  0
 22 54  1  0  0  0  0
 23 27  2  0  0  0  0
 23 33  1  0  0  0  0
 24 55  1  0  0  0  0
 24 56  1  0  0  0  0
 26 25  1  0  0  0  0
 26 28  1  0  0  0  0
 26 31  1  0  0  0  0
 26 57  1  6  0  0  0
 27 29  1  0  0  0  0
 27 32  1  0  0  0  0
 28 58  1  0  0  0  0
 28 59  1  0  0  0  0
 29 30  1  0  0  0  0
 29 36  2  0  0  0  0
 30 60  1  0  0  0  0
 30 61  1  0  0  0  0
 31 62  1  0  0  0  0
 31 63  1  0  0  0  0
 32 39  2  0  0  0  0
 33 40  2  0  0  0  0
 33 64  1  0  0  0  0
 34 65  1  0  0  0  0
 34 66  1  0  0  0  0
 34 67  1  0  0  0  0
 35 68  1  0  0  0  0
 35 69  1  0  0  0  0
 35 70  1  0  0  0  0
 36 71  1  0  0  0  0
 37 72  1  0  0  0  0
 37 73  1  0  0  0  0
 37 74  1  0  0  0  0
 38 75  1  0  0  0  0
 38 76  1  0  0  0  0
 38 77  1  0  0  0  0
 39 40  1  0  0  0  0
 39 78  1  0  0  0  0
 40 79  1  0  0  0  0
 41 80  1  0  0  0  0
 41 81  1  0  0  0  0
 41 82  1  0  0  0  0
M  END
>  <DRUGBANK_ID>
DB11273

>  <COMMON_NAME>
Dihydroergocornine

>  <CAS_NUMBER>
25447-65-8

>  <UNII>
IK4C1OC8NE

>  <SYNONYMS>
9,10-dihydroergocornine; Dihydroergocornine

$$$$
