
 OpenBabel10282417072D

 32 34  0  0  0  0  0  0  0  0999 V2000
    0.0062   -0.3539    0.0000 C   0  0  0  0  0  0  0  0  0  0  0  0
    0.0062    0.4685    0.0000 C   0  0  0  0  0  0  0  0  0  0  0  0
   -0.7267   -0.7371    0.0000 C   0  0  0  0  0  0  0  0  0  0  0  0
    0.7954   -0.6267    0.0000 N   0  0  0  0  0  0  0  0  0  0  0  0
    0.7954    0.7184    0.0000 N   0  0  0  0  0  0  0  0  0  0  0  0
   -0.6642    0.9370    0.0000 C   0  0  0  0  0  0  0  0  0  0  0  0
   -1.4284   -0.2811    0.0000 C   0  0  0  0  0  0  0  0  0  0  0  0
    1.2785    0.0437    0.0000 C   0  0  0  0  0  0  0  0  0  0  0  0
   -1.4284    0.5080    0.0000 C   0  0  0  0  0  0  0  0  0  0  0  0
   -2.1593   -0.6663    0.0000 C   0  0  0  0  0  0  0  0  0  0  0  0
    2.0947    0.0437    0.0000 N   0  0  0  0  0  0  0  0  0  0  0  0
   -2.8715   -0.2499    0.0000 C   0  0  0  0  0  0  0  0  0  0  0  0
   -2.1531   -1.4764    0.0000 O   0  0  0  0  0  0  0  0  0  0  0  0
    2.5071    0.7579    0.0000 C   0  0  0  0  0  0  0  0  0  0  0  0
   -3.3004    0.4519    0.0000 C   0  0  0  0  0  0  0  0  0  0  0  0
   -3.7065   -0.2499    0.0000 C   0  0  0  0  0  0  0  0  0  0  0  0
    3.3109    0.7641    0.0000 O   0  0  0  0  0  0  0  0  0  0  0  0
    1.9990    1.4764    0.0000 O   0  0  0  0  0  0  0  0  0  0  0  0
    3.7065    1.4764    0.0000 C   0  0  0  0  0  0  0  0  0  0  0  0
   -0.7754   -1.7679    0.0000 H   0  0  0  0  0  0  0  0  0  0  0  0
    1.1064    1.6525    0.0000 H   0  0  0  0  0  0  0  0  0  0  0  0
   -0.6134    1.9678    0.0000 H   0  0  0  0  0  0  0  0  0  0  0  0
   -2.3190    1.0294    0.0000 H   0  0  0  0  0  0  0  0  0  0  0  0
    2.5869   -0.8089    0.0000 H   0  0  0  0  0  0  0  0  0  0  0  0
   -3.8048    0.2735    0.0000 H   0  0  0  0  0  0  0  0  0  0  0  0
   -3.3132    1.5218    0.0000 H   0  0  0  0  0  0  0  0  0  0  0  0
   -4.3355    0.7231    0.0000 H   0  0  0  0  0  0  0  0  0  0  0  0
   -4.6334   -0.7844    0.0000 H   0  0  0  0  0  0  0  0  0  0  0  0
   -4.4625    0.5073    0.0000 H   0  0  0  0  0  0  0  0  0  0  0  0
    4.7764    1.4942    0.0000 H   0  0  0  0  0  0  0  0  0  0  0  0
    3.1562    2.3940    0.0000 H   0  0  0  0  0  0  0  0  0  0  0  0
    4.2260    2.4118    0.0000 H   0  0  0  0  0  0  0  0  0  0  0  0
  1  2  2  0  0  0  0
  1  3  1  0  0  0  0
  1  4  1  0  0  0  0
  2  5  1  0  0  0  0
  2  6  1  0  0  0  0
  3  7  2  0  0  0  0
  3 20  1  0  0  0  0
  4  8  2  0  0  0  0
  5  8  1  0  0  0  0
  5 21  1  0  0  0  0
  6  9  2  0  0  0  0
  6 22  1  0  0  0  0
  7 10  1  0  0  0  0
  7  9  1  0  0  0  0
  8 11  1  0  0  0  0
  9 23  1  0  0  0  0
 10 12  1  0  0  0  0
 10 13  2  0  0  0  0
 11 14  1  0  0  0  0
 11 24  1  0  0  0  0
 12 15  1  0  0  0  0
 12 16  1  0  0  0  0
 12 25  1  0  0  0  0
 14 17  1  0  0  0  0
 14 18  2  0  0  0  0
 15 16  1  0  0  0  0
 15 26  1  0  0  0  0
 15 27  1  0  0  0  0
 16 28  1  0  0  0  0
 16 29  1  0  0  0  0
 17 19  1  0  0  0  0
 19 30  1  0  0  0  0
 19 31  1  0  0  0  0
 19 32  1  0  0  0  0
M  END
>  <DRUGBANK_ID>
DB13465

>  <COMMON_NAME>
Ciclobendazole

>  <CAS_NUMBER>
31431-43-3

>  <UNII>
JF3KQ40J31

>  <SYNONYMS>
Ciclobendazol; Ciclobendazole; Ciclobendazolum; Cyclobendazole

$$$$
