
 OpenBabel10282417072D

 46 48  0  0  1  0  0  0  0  0999 V2000
   15.6185   -8.8074    0.0000 S   0  0  0  0  0  0  0  0  0  0  0  0
   14.8329  -10.8711    0.0000 O   0  0  0  0  0  0  0  0  0  0  0  0
   16.7714   -9.9771    0.0000 O   0  0  0  0  0  0  0  0  0  0  0  0
   16.7683  -11.7719    0.0000 O   0  0  0  0  0  0  0  0  0  0  0  0
   15.9639   -5.2279    0.0000 O   0  0  0  0  0  0  0  0  0  0  0  0
   17.0242   -6.1859    0.0000 O   0  0  0  0  0  0  0  0  0  0  0  0
   15.0604  -12.3236    0.0000 N   0  0  0  0  0  0  0  0  0  0  0  0
   15.0604  -13.6514    0.0000 N   0  0  0  0  0  0  0  0  0  0  0  0
   13.5652  -12.1625    0.0000 N   0  0  0  0  0  0  0  0  0  0  0  0
   12.8508  -13.4000    0.0000 N   0  0  0  0  0  0  0  0  0  0  0  0
   13.5652  -14.6375    0.0000 N   0  0  0  0  0  0  0  0  0  0  0  0
   14.8578   -6.4522    0.0000 N   0  0  0  0  0  0  0  0  0  0  0  0
   16.1032  -10.4608    0.0000 C   0  0  1  0  0  0  0  0  0  0  0  0
   16.1017  -11.2858    0.0000 C   0  0  2  0  0  0  0  0  0  0  0  0
   15.3190  -10.2045    0.0000 C   0  0  1  0  0  0  0  0  0  0  0  0
   15.3166  -11.5394    0.0000 C   0  0  1  0  0  0  0  0  0  0  0  0
   15.0654   -9.4194    0.0000 C   0  0  0  0  0  0  0  0  0  0  0  0
   14.2798  -12.5750    0.0000 C   0  0  0  0  0  0  0  0  0  0  0  0
   15.5419  -12.9875    0.0000 C   0  0  0  0  0  0  0  0  0  0  0  0
   14.2798  -13.4000    0.0000 C   0  0  0  0  0  0  0  0  0  0  0  0
   15.3649   -8.0223    0.0000 C   0  0  0  0  0  0  0  0  0  0  0  0
   15.9180   -7.4102    0.0000 C   0  0  0  0  0  0  0  0  0  0  0  0
   13.5652  -13.8125    0.0000 C   0  0  0  0  0  0  0  0  0  0  0  0
   15.6645   -6.6251    0.0000 C   0  0  1  0  0  0  0  0  0  0  0  0
   12.8508  -12.5750    0.0000 C   0  0  0  0  0  0  0  0  0  0  0  0
   16.2175   -6.0129    0.0000 C   0  0  0  0  0  0  0  0  0  0  0  0
   17.6569  -10.3732    0.0000 H   0  0  0  0  0  0  0  0  0  0  0  0
   16.6652  -12.7364    0.0000 H   0  0  0  0  0  0  0  0  0  0  0  0
   16.5920   -4.5326    0.0000 H   0  0  0  0  0  0  0  0  0  0  0  0
   12.7126  -15.1297    0.0000 H   0  0  0  0  0  0  0  0  0  0  0  0
   14.4178  -15.1297    0.0000 H   0  0  0  0  0  0  0  0  0  0  0  0
   14.5442   -5.4816    0.0000 H   0  0  0  0  0  0  0  0  0  0  0  0
   14.1740   -7.2090    0.0000 H   0  0  0  0  0  0  0  0  0  0  0  0
   17.0557  -10.9483    0.0000 H   0  0  0  0  0  0  0  0  0  0  0  0
   17.0559  -10.8017    0.0000 H   0  0  0  0  0  0  0  0  0  0  0  0
   14.2625  -10.0353    0.0000 H   0  0  0  0  0  0  0  0  0  0  0  0
   14.2595  -11.7050    0.0000 H   0  0  0  0  0  0  0  0  0  0  0  0
   14.0192   -9.1951    0.0000 H   0  0  0  0  0  0  0  0  0  0  0  0
   14.3480  -10.2133    0.0000 H   0  0  0  0  0  0  0  0  0  0  0  0
   16.5739  -12.9875    0.0000 H   0  0  0  0  0  0  0  0  0  0  0  0
   14.3187   -7.7980    0.0000 H   0  0  0  0  0  0  0  0  0  0  0  0
   15.0360   -7.0041    0.0000 H   0  0  0  0  0  0  0  0  0  0  0  0
   16.9642   -7.6346    0.0000 H   0  0  0  0  0  0  0  0  0  0  0  0
   16.6354   -6.6163    0.0000 H   0  0  0  0  0  0  0  0  0  0  0  0
   14.9471   -7.4190    0.0000 H   0  0  0  0  0  0  0  0  0  0  0  0
   11.9571  -12.0590    0.0000 H   0  0  0  0  0  0  0  0  0  0  0  0
  1 17  1  0  0  0  0
  1 21  1  0  0  0  0
  2 15  1  0  0  0  0
  2 16  1  0  0  0  0
  3 27  1  0  0  0  0
  4 28  1  0  0  0  0
  5 26  1  0  0  0  0
  5 29  1  0  0  0  0
  6 26  2  0  0  0  0
  7 18  1  0  0  0  0
  7 19  1  0  0  0  0
  8 19  2  0  0  0  0
  8 20  1  0  0  0  0
  9 18  2  0  0  0  0
  9 25  1  0  0  0  0
 10 23  1  0  0  0  0
 10 25  2  0  0  0  0
 11 23  1  0  0  0  0
 11 30  1  0  0  0  0
 11 31  1  0  0  0  0
 12 32  1  0  0  0  0
 12 33  1  0  0  0  0
 13  3  1  0  0  0  0
 13 14  1  0  0  0  0
 13 15  1  0  0  0  0
 13 34  1  6  0  0  0
 14  4  1  0  0  0  0
 14 16  1  0  0  0  0
 14 35  1  6  0  0  0
 15 17  1  0  0  0  0
 15 36  1  1  0  0  0
 16  7  1  0  0  0  0
 16 37  1  1  0  0  0
 17 38  1  0  0  0  0
 17 39  1  0  0  0  0
 18 20  1  0  0  0  0
 19 40  1  0  0  0  0
 20 23  2  0  0  0  0
 21 22  1  0  0  0  0
 21 41  1  0  0  0  0
 21 42  1  0  0  0  0
 22 24  1  0  0  0  0
 22 43  1  0  0  0  0
 22 44  1  0  0  0  0
 24 12  1  0  0  0  0
 24 26  1  0  0  0  0
 24 45  1  1  0  0  0
 25 46  1  0  0  0  0
M  END
>  <DRUGBANK_ID>
DB01752

>  <SECONDARY_ACCESSION_NUMBERS>
EXPT02842

>  <COMMON_NAME>
S-adenosyl-L-homocysteine

>  <CAS_NUMBER>
979-92-0

>  <UNII>
8K31Q2S66S

>  <SYNONYMS>
2-S-adenosyl-L-homocysteine; Adenosyl-L-homocysteine; adenosylhomocysteine; AdoHcy; S-(5'-adenosyl)-L-homocysteine; S-[1-(adenin-9-yl)-1,5-dideoxy-Î²-D-ribofuranos-5-yl]-L-homocysteine; S-Adenosylhomocysteine

$$$$
