MB9
 OpenBabel10282417072D

 40 43  0  0  0  0  0  0  0  0999 V2000
    0.5631    0.7907    0.0000 C   0  0  0  0  0  0  0  0  0  0  0  0
    1.2853    1.1895    0.0000 C   0  0  0  0  0  0  0  0  0  0  0  0
    1.9918    0.7635    0.0000 N   0  0  0  0  0  0  0  0  0  0  0  0
    1.9761   -0.0614    0.0000 C   0  0  0  0  0  0  0  0  0  0  0  0
    1.2539   -0.4602    0.0000 C   0  0  0  0  0  0  0  0  0  0  0  0
    0.5474   -0.0342    0.0000 C   0  0  0  0  0  0  0  0  0  0  0  0
    0.5318   -0.8591    0.0000 N   0  0  0  0  0  0  0  0  0  0  0  0
   -0.1904   -1.2579    0.0000 C   0  0  0  0  0  0  0  0  0  0  0  0
   -0.2061   -2.0827    0.0000 O   0  0  0  0  0  0  0  0  0  0  0  0
   -0.8969   -0.8319    0.0000 C   0  0  0  0  0  0  0  0  0  0  0  0
   -1.6863   -1.0718    0.0000 N   0  0  0  0  0  0  0  0  0  0  0  0
   -1.9561   -1.8515    0.0000 C   0  0  0  0  0  0  0  0  0  0  0  0
   -2.1584   -0.3953    0.0000 C   0  0  0  0  0  0  0  0  0  0  0  0
   -2.9771   -0.2935    0.0000 C   0  0  0  0  0  0  0  0  0  0  0  0
   -3.2982    0.4665    0.0000 C   0  0  0  0  0  0  0  0  0  0  0  0
   -4.1169    0.5683    0.0000 Cl  0  0  0  0  0  0  0  0  0  0  0  0
   -2.8007    1.1246    0.0000 C   0  0  0  0  0  0  0  0  0  0  0  0
   -1.9820    1.0227    0.0000 C   0  0  0  0  0  0  0  0  0  0  0  0
   -1.6609    0.2628    0.0000 C   0  0  0  0  0  0  0  0  0  0  0  0
   -0.8812   -0.0070    0.0000 C   0  0  0  0  0  0  0  0  0  0  0  0
   -0.1590    0.3918    0.0000 C   0  0  1  0  0  0  0  0  0  0  0  0
   -0.1434    1.2167    0.0000 C   0  0  0  0  0  0  0  0  0  0  0  0
   -0.1277    2.0415    0.0000 N   0  0  0  0  0  0  0  0  0  0  0  0
    0.0511    0.9366    0.0000 H   0  0  0  0  0  0  0  0  0  0  0  0
   -0.3532    1.3433    0.0000 H   0  0  0  0  0  0  0  0  0  0  0  0
   -0.3736    0.2734    0.0000 H   0  0  0  0  0  0  0  0  0  0  0  0
    1.3057    2.2593    0.0000 H   0  0  0  0  0  0  0  0  0  0  0  0
    2.2220    1.7068    0.0000 H   0  0  0  0  0  0  0  0  0  0  0  0
    2.8847    1.2566    0.0000 H   0  0  0  0  0  0  0  0  0  0  0  0
    2.8924   -0.6140    0.0000 H   0  0  0  0  0  0  0  0  0  0  0  0
    1.9557   -1.1312    0.0000 H   0  0  0  0  0  0  0  0  0  0  0  0
    1.2335   -1.5300    0.0000 H   0  0  0  0  0  0  0  0  0  0  0  0
    0.3172   -0.9775    0.0000 H   0  0  0  0  0  0  0  0  0  0  0  0
    1.3749   -1.3674    0.0000 H   0  0  0  0  0  0  0  0  0  0  0  0
   -3.0068   -2.0541    0.0000 H   0  0  0  0  0  0  0  0  0  0  0  0
   -1.2553   -2.6601    0.0000 H   0  0  0  0  0  0  0  0  0  0  0  0
   -2.3060   -2.8627    0.0000 H   0  0  0  0  0  0  0  0  0  0  0  0
   -3.5995   -1.1167    0.0000 H   0  0  0  0  0  0  0  0  0  0  0  0
   -3.2024    2.0752    0.0000 H   0  0  0  0  0  0  0  0  0  0  0  0
   -1.3596    1.8459    0.0000 H   0  0  0  0  0  0  0  0  0  0  0  0
  1  2  1  0  0  0  0
  1  6  1  0  0  0  0
  1 25  1  0  0  0  0
  1 26  1  0  0  0  0
  2  3  1  0  0  0  0
  2 27  1  0  0  0  0
  2 28  1  0  0  0  0
  3  4  1  0  0  0  0
  3 29  1  0  0  0  0
  4  5  1  0  0  0  0
  4 30  1  0  0  0  0
  4 31  1  0  0  0  0
  5  6  1  0  0  0  0
  5 32  1  0  0  0  0
  5 33  1  0  0  0  0
  6  7  1  0  0  0  0
  6 21  1  0  0  0  0
  7  8  1  0  0  0  0
  7 34  1  0  0  0  0
  8  9  2  0  0  0  0
  8 10  1  0  0  0  0
 10 11  1  0  0  0  0
 10 20  2  0  0  0  0
 11 12  1  0  0  0  0
 11 13  1  0  0  0  0
 12 35  1  0  0  0  0
 12 36  1  0  0  0  0
 12 37  1  0  0  0  0
 13 14  2  0  0  0  0
 13 19  1  0  0  0  0
 14 15  1  0  0  0  0
 14 38  1  0  0  0  0
 15 16  1  0  0  0  0
 15 17  2  0  0  0  0
 17 18  1  0  0  0  0
 17 39  1  0  0  0  0
 18 19  2  0  0  0  0
 18 40  1  0  0  0  0
 19 20  1  0  0  0  0
 20 21  1  0  0  0  0
 21 22  1  0  0  0  0
 21 24  1  6  0  0  0
 22 23  3  0  0  0  0
M  END
>  <DRUGBANK_ID>
DB08166

>  <COMMON_NAME>
(4R)-7-chloro-9-methyl-1-oxo-1,2,4,9-tetrahydrospiro[beta-carboline-3,4'-piperidine]-4-carbonitrile

$$$$
