
 OpenBabel10282417072D

 42 44  0  0  0  0  0  0  0  0999 V2000
   -2.1442    0.6137    0.0000 C   0  0  0  0  0  0  0  0  0  0  0  0
   -2.1454   -0.2135    0.0000 C   0  0  0  0  0  0  0  0  0  0  0  0
   -1.4306   -0.6263    0.0000 C   0  0  0  0  0  0  0  0  0  0  0  0
   -0.7141   -0.2131    0.0000 C   0  0  0  0  0  0  0  0  0  0  0  0
   -0.7170    0.6174    0.0000 C   0  0  0  0  0  0  0  0  0  0  0  0
   -1.4324    1.0266    0.0000 C   0  0  0  0  0  0  0  0  0  0  0  0
   -1.4348    1.8515    0.0000 O   0  0  0  0  0  0  0  0  0  0  0  0
   -2.8602   -0.6254    0.0000 O   0  0  0  0  0  0  0  0  0  0  0  0
   -1.4308   -1.4513    0.0000 Cl  0  0  0  0  0  0  0  0  0  0  0  0
   -0.0040    1.0327    0.0000 C   0  0  0  0  0  0  0  0  0  0  0  0
    0.7119    0.6228    0.0000 O   0  0  0  0  0  0  0  0  0  0  0  0
   -0.0071    1.8577    0.0000 O   0  0  0  0  0  0  0  0  0  0  0  0
    1.4249    1.0380    0.0000 C   0  0  1  0  0  0  0  0  0  0  0  0
    2.1409    0.6281    0.0000 C   0  0  0  0  0  0  0  0  0  0  0  0
    1.4217    1.8630    0.0000 C   0  0  0  0  0  0  0  0  0  0  0  0
    2.1440   -0.1967    0.0000 C   0  0  2  0  0  0  0  0  0  0  0  0
    2.8600   -0.6066    0.0000 C   0  0  1  0  0  0  0  0  0  0  0  0
    0.0009   -0.6243    0.0000 C   0  0  0  0  0  0  0  0  0  0  0  0
    0.0022   -1.4493    0.0000 C   0  0  0  0  0  0  0  0  0  0  0  0
    0.7174   -1.8608    0.0000 C   0  0  0  0  0  0  0  0  0  0  0  0
   -0.7115   -1.8630    0.0000 O   0  0  0  0  0  0  0  0  0  0  0  0
    1.4312   -1.4471    0.0000 C   0  0  0  0  0  0  0  0  0  0  0  0
    2.1463   -1.8586    0.0000 C   0  0  0  0  0  0  0  0  0  0  0  0
    2.8602   -1.4448    0.0000 C   0  0  0  0  0  0  0  0  0  0  0  0
    2.8529    0.2220    0.0000 O   0  0  0  0  0  0  0  0  0  0  0  0
   -3.0381    1.1294    0.0000 H   0  0  0  0  0  0  0  0  0  0  0  0
   -0.6247    2.3224    0.0000 H   0  0  0  0  0  0  0  0  0  0  0  0
   -3.6713   -0.1562    0.0000 H   0  0  0  0  0  0  0  0  0  0  0  0
    2.3495    1.5765    0.0000 H   0  0  0  0  0  0  0  0  0  0  0  0
    3.0656    1.1665    0.0000 H   0  0  0  0  0  0  0  0  0  0  0  0
    3.0695    0.0966    0.0000 H   0  0  0  0  0  0  0  0  0  0  0  0
    2.3463    2.4016    0.0000 H   0  0  0  0  0  0  0  0  0  0  0  0
    0.4930    2.3944    0.0000 H   0  0  0  0  0  0  0  0  0  0  0  0
    1.4175    2.9330    0.0000 H   0  0  0  0  0  0  0  0  0  0  0  0
    2.6727    0.7336    0.0000 H   0  0  0  0  0  0  0  0  0  0  0  0
    2.3193    0.3168    0.0000 H   0  0  0  0  0  0  0  0  0  0  0  0
    0.9267   -0.0878    0.0000 H   0  0  0  0  0  0  0  0  0  0  0  0
    0.9284   -1.1578    0.0000 H   0  0  0  0  0  0  0  0  0  0  0  0
    0.7190   -2.8928    0.0000 H   0  0  0  0  0  0  0  0  0  0  0  0
    1.4296   -0.4151    0.0000 H   0  0  0  0  0  0  0  0  0  0  0  0
    2.1479   -2.8906    0.0000 H   0  0  0  0  0  0  0  0  0  0  0  0
    3.7544   -1.9599    0.0000 H   0  0  0  0  0  0  0  0  0  0  0  0
  1  2  2  0  0  0  0
  1 26  1  0  0  0  0
  2  8  1  0  0  0  0
  2  3  1  0  0  0  0
  3  4  2  0  0  0  0
  3  9  1  0  0  0  0
  4 18  1  0  0  0  0
  4  5  1  0  0  0  0
  5 10  1  0  0  0  0
  5  6  2  0  0  0  0
  6  7  1  0  0  0  0
  6  1  1  0  0  0  0
  7 27  1  0  0  0  0
  8 28  1  0  0  0  0
 10 11  1  0  0  0  0
 10 12  2  0  0  0  0
 11 13  1  0  0  0  0
 13 14  1  0  0  0  0
 13 15  1  0  0  0  0
 13 29  1  1  0  0  0
 14 30  1  0  0  0  0
 14 31  1  0  0  0  0
 15 32  1  0  0  0  0
 15 33  1  0  0  0  0
 15 34  1  0  0  0  0
 16 14  1  0  0  0  0
 16 25  1  0  0  0  0
 16 35  1  6  0  0  0
 17 16  1  0  0  0  0
 17 24  1  0  0  0  0
 17 25  1  0  0  0  0
 17 36  1  1  0  0  0
 18 19  1  0  0  0  0
 18 37  1  0  0  0  0
 18 38  1  0  0  0  0
 19 20  1  0  0  0  0
 19 21  2  0  0  0  0
 20 22  2  0  0  0  0
 20 39  1  0  0  0  0
 22 23  1  0  0  0  0
 22 40  1  0  0  0  0
 23 24  2  0  0  0  0
 23 41  1  0  0  0  0
 24 42  1  0  0  0  0
M  END
>  <DRUGBANK_ID>
DB03758

>  <SECONDARY_ACCESSION_NUMBERS>
EXPT02763

>  <COMMON_NAME>
Radicicol

>  <CAS_NUMBER>
12772-57-5

>  <UNII>
I60EH8GECX

>  <SYNONYMS>
Monorden

$$$$
