G27
 OpenBabel10282417072D

 42 43  0  0  0  0  0  0  0  0999 V2000
    2.7953    0.8858    0.0000 C   0  0  0  0  0  0  0  0  0  0  0  0
    3.5098    0.4733    0.0000 C   0  0  0  0  0  0  0  0  0  0  0  0
    3.5098   -0.3517    0.0000 C   0  0  0  0  0  0  0  0  0  0  0  0
    2.7953   -0.7642    0.0000 C   0  0  0  0  0  0  0  0  0  0  0  0
    2.0809   -0.3517    0.0000 C   0  0  0  0  0  0  0  0  0  0  0  0
    2.0809    0.4733    0.0000 C   0  0  0  0  0  0  0  0  0  0  0  0
    1.3664    0.8858    0.0000 C   0  0  0  0  0  0  0  0  0  0  0  0
    0.6519    0.4733    0.0000 C   0  0  0  0  0  0  0  0  0  0  0  0
   -0.0625    0.8858    0.0000 C   0  0  0  0  0  0  0  0  0  0  0  0
   -0.7770    0.4733    0.0000 N   0  0  0  0  0  0  0  0  0  0  0  0
   -0.7770   -0.3517    0.0000 C   0  0  0  0  0  0  0  0  0  0  0  0
   -1.4915    0.8858    0.0000 C   0  0  0  0  0  0  0  0  0  0  0  0
   -2.2059    0.4733    0.0000 C   0  0  1  0  0  0  0  0  0  0  0  0
   -2.9203    0.8858    0.0000 O   0  0  0  0  0  0  0  0  0  0  0  0
   -2.2059   -0.3517    0.0000 C   0  0  2  0  0  0  0  0  0  0  0  0
   -2.9203   -0.7642    0.0000 O   0  0  0  0  0  0  0  0  0  0  0  0
   -1.4915   -0.7642    0.0000 C   0  0  1  0  0  0  0  0  0  0  0  0
   -1.4915   -1.5892    0.0000 C   0  0  0  0  0  0  0  0  0  0  0  0
   -2.2059   -2.0016    0.0000 O   0  0  0  0  0  0  0  0  0  0  0  0
   -2.2059    1.0572    0.0000 H   0  0  0  0  0  0  0  0  0  0  0  0
   -2.7116   -0.0598    0.0000 H   0  0  0  0  0  0  0  0  0  0  0  0
   -0.9858   -1.0562    0.0000 H   0  0  0  0  0  0  0  0  0  0  0  0
    2.7953    1.9178    0.0000 H   0  0  0  0  0  0  0  0  0  0  0  0
    4.4035    0.9893    0.0000 H   0  0  0  0  0  0  0  0  0  0  0  0
    4.4035   -0.8677    0.0000 H   0  0  0  0  0  0  0  0  0  0  0  0
    2.7953   -1.7962    0.0000 H   0  0  0  0  0  0  0  0  0  0  0  0
    1.1872   -0.8677    0.0000 H   0  0  0  0  0  0  0  0  0  0  0  0
    1.3664    1.9558    0.0000 H   0  0  0  0  0  0  0  0  0  0  0  0
    0.4398    1.4208    0.0000 H   0  0  0  0  0  0  0  0  0  0  0  0
    0.6519   -0.5967    0.0000 H   0  0  0  0  0  0  0  0  0  0  0  0
   -0.2748   -0.0617    0.0000 H   0  0  0  0  0  0  0  0  0  0  0  0
   -0.0625    1.9558    0.0000 H   0  0  0  0  0  0  0  0  0  0  0  0
   -0.9891    1.4208    0.0000 H   0  0  0  0  0  0  0  0  0  0  0  0
    0.1496   -0.8867    0.0000 H   0  0  0  0  0  0  0  0  0  0  0  0
   -0.7770   -1.4217    0.0000 H   0  0  0  0  0  0  0  0  0  0  0  0
   -1.4915    1.9558    0.0000 H   0  0  0  0  0  0  0  0  0  0  0  0
   -2.4182    1.4208    0.0000 H   0  0  0  0  0  0  0  0  0  0  0  0
   -2.9203    1.8558    0.0000 H   0  0  0  0  0  0  0  0  0  0  0  0
   -3.7604   -0.2792    0.0000 H   0  0  0  0  0  0  0  0  0  0  0  0
   -0.5649   -2.1242    0.0000 H   0  0  0  0  0  0  0  0  0  0  0  0
   -1.4915   -2.6592    0.0000 H   0  0  0  0  0  0  0  0  0  0  0  0
   -3.0459   -1.5165    0.0000 H   0  0  0  0  0  0  0  0  0  0  0  0
  1  2  1  0  0  0  0
  1  6  2  0  0  0  0
  1 23  1  0  0  0  0
  2  3  2  0  0  0  0
  2 24  1  0  0  0  0
  3  4  1  0  0  0  0
  3 25  1  0  0  0  0
  4  5  2  0  0  0  0
  4 26  1  0  0  0  0
  5  6  1  0  0  0  0
  5 27  1  0  0  0  0
  6  7  1  0  0  0  0
  7  8  1  0  0  0  0
  7 28  1  0  0  0  0
  7 29  1  0  0  0  0
  8  9  1  0  0  0  0
  8 30  1  0  0  0  0
  8 31  1  0  0  0  0
  9 10  1  0  0  0  0
  9 32  1  0  0  0  0
  9 33  1  0  0  0  0
 10 11  1  0  0  0  0
 10 12  1  0  0  0  0
 11 17  1  0  0  0  0
 11 34  1  0  0  0  0
 11 35  1  0  0  0  0
 12 13  1  0  0  0  0
 12 36  1  0  0  0  0
 12 37  1  0  0  0  0
 13 14  1  0  0  0  0
 13 15  1  0  0  0  0
 13 20  1  1  0  0  0
 14 38  1  0  0  0  0
 15 16  1  0  0  0  0
 15 17  1  0  0  0  0
 15 21  1  6  0  0  0
 16 39  1  0  0  0  0
 17 18  1  0  0  0  0
 17 22  1  1  0  0  0
 18 19  1  0  0  0  0
 18 40  1  0  0  0  0
 18 41  1  0  0  0  0
 19 42  1  0  0  0  0
M  END
>  <DRUGBANK_ID>
DB07807

>  <COMMON_NAME>
(3R,4R,5R)-5-(HYDROXYMETHYL)-1-(3-PHENYLPROPYL)PIPERIDINE-3,4-DIOL

$$$$
