
 OpenBabel10282417072D

 36 37  0  0  0  0  0  0  0  0999 V2000
   -0.6897    1.7276    0.0000 N   0  0  0  0  0  0  0  0  0  0  0  0
    0.1392    1.7276    0.0000 C   0  0  0  0  0  0  0  0  0  0  0  0
    0.5506    2.4426    0.0000 C   0  0  0  0  0  0  0  0  0  0  0  0
    0.5506    1.0125    0.0000 C   0  0  0  0  0  0  0  0  0  0  0  0
    1.3796    1.0125    0.0000 O   0  0  0  0  0  0  0  0  0  0  0  0
    0.1392    0.2973    0.0000 C   0  0  0  0  0  0  0  0  0  0  0  0
    0.5506   -0.4176    0.0000 C   0  0  0  0  0  0  0  0  0  0  0  0
   -0.6897    0.2973    0.0000 C   0  0  0  0  0  0  0  0  0  0  0  0
   -1.1010    1.0125    0.0000 C   0  0  0  0  0  0  0  0  0  0  0  0
   -1.1010   -0.4176    0.0000 C   0  0  0  0  0  0  0  0  0  0  0  0
   -1.9237   -0.4176    0.0000 O   0  0  0  0  0  0  0  0  0  0  0  0
   -2.3413   -1.1327    0.0000 P   0  0  0  0  0  0  0  0  0  0  0  0
   -1.9237   -1.8479    0.0000 O   0  0  0  0  0  0  0  0  0  0  0  0
   -3.1640   -1.1327    0.0000 O   0  0  0  0  0  0  0  0  0  0  0  0
   -2.7527   -1.8479    0.0000 O   0  0  0  0  0  0  0  0  0  0  0  0
    1.3796   -0.4176    0.0000 N   0  0  0  0  0  0  0  0  0  0  0  0
    1.7908   -1.1327    0.0000 C   0  0  0  0  0  0  0  0  0  0  0  0
    2.6135   -1.2213    0.0000 C   0  0  0  0  0  0  0  0  0  0  0  0
    3.1640   -0.6074    0.0000 O   0  0  0  0  0  0  0  0  0  0  0  0
    2.7844   -2.0313    0.0000 N   0  0  0  0  0  0  0  0  0  0  0  0
    2.0693   -2.4426    0.0000 O   0  0  0  0  0  0  0  0  0  0  0  0
    1.4555   -1.8921    0.0000 C   0  0  0  0  0  0  0  0  0  0  0  0
    1.6206    2.4442    0.0000 H   0  0  0  0  0  0  0  0  0  0  0  0
    0.0142    3.3685    0.0000 H   0  0  0  0  0  0  0  0  0  0  0  0
    1.0842    3.3700    0.0000 H   0  0  0  0  0  0  0  0  0  0  0  0
    1.8481    0.2010    0.0000 H   0  0  0  0  0  0  0  0  0  0  0  0
    0.0149   -1.3439    0.0000 H   0  0  0  0  0  0  0  0  0  0  0  0
    1.0853   -1.3444    0.0000 H   0  0  0  0  0  0  0  0  0  0  0  0
   -2.1330    1.0125    0.0000 H   0  0  0  0  0  0  0  0  0  0  0  0
   -0.5653   -1.3438    0.0000 H   0  0  0  0  0  0  0  0  0  0  0  0
   -1.6356   -1.3445    0.0000 H   0  0  0  0  0  0  0  0  0  0  0  0
   -3.6490   -0.2927    0.0000 H   0  0  0  0  0  0  0  0  0  0  0  0
   -3.7227   -1.8494    0.0000 H   0  0  0  0  0  0  0  0  0  0  0  0
    3.6832   -2.4331    0.0000 H   0  0  0  0  0  0  0  0  0  0  0  0
    0.4094   -2.1172    0.0000 H   0  0  0  0  0  0  0  0  0  0  0  0
    1.1809   -2.9263    0.0000 H   0  0  0  0  0  0  0  0  0  0  0  0
  1  2  2  0  0  0  0
  1  9  1  0  0  0  0
  2  3  1  0  0  0  0
  2  4  1  0  0  0  0
  3 23  1  0  0  0  0
  3 24  1  0  0  0  0
  3 25  1  0  0  0  0
  4  5  1  0  0  0  0
  4  6  2  0  0  0  0
  5 26  1  0  0  0  0
  6  7  1  0  0  0  0
  6  8  1  0  0  0  0
  7 16  1  0  0  0  0
  7 27  1  0  0  0  0
  7 28  1  0  0  0  0
  8  9  2  0  0  0  0
  8 10  1  0  0  0  0
  9 29  1  0  0  0  0
 10 11  1  0  0  0  0
 10 30  1  0  0  0  0
 10 31  1  0  0  0  0
 11 12  1  0  0  0  0
 12 13  2  0  0  0  0
 12 14  1  0  0  0  0
 12 15  1  0  0  0  0
 14 32  1  0  0  0  0
 15 33  1  0  0  0  0
 16 17  2  0  0  0  0
 17 18  1  0  0  0  0
 17 22  1  0  0  0  0
 18 19  2  0  0  0  0
 18 20  1  0  0  0  0
 20 21  1  0  0  0  0
 20 34  1  0  0  0  0
 21 22  1  0  0  0  0
 22 35  1  0  0  0  0
 22 36  1  0  0  0  0
M  END
>  <DRUGBANK_ID>
DB03787

>  <SECONDARY_ACCESSION_NUMBERS>
EXPT02011

>  <COMMON_NAME>
(5-Hydroxy-6-methyl-4-{[(E)-(3-oxo-1,2-oxazolidin-4-ylidene)amino]methyl}-3-pyridinyl)methyl dihydrogen phosphate

$$$$
