
 OpenBabel10282417072D

 32 35  0  0  0  0  0  0  0  0999 V2000
   -1.0405    2.9979    0.0000 Br  0  0  0  0  0  0  0  0  0  0  0  0
    2.4779   -0.9974    0.0000 O   0  0  0  0  0  0  0  0  0  0  0  0
    2.4779   -2.3252    0.0000 O   0  0  0  0  0  0  0  0  0  0  0  0
   -1.1998   -1.1719    0.0000 N   0  0  0  0  0  0  0  0  0  0  0  0
   -1.7518   -0.5588    0.0000 N   0  0  0  0  0  0  0  0  0  0  0  0
    0.2683   -1.2488    0.0000 C   0  0  0  0  0  0  0  0  0  0  0  0
   -0.4460   -0.8363    0.0000 C   0  0  0  0  0  0  0  0  0  0  0  0
    1.6973   -1.2488    0.0000 C   0  0  0  0  0  0  0  0  0  0  0  0
    0.9828   -0.8363    0.0000 C   0  0  0  0  0  0  0  0  0  0  0  0
    1.6973   -2.0738    0.0000 C   0  0  0  0  0  0  0  0  0  0  0  0
   -1.3393    0.1556    0.0000 C   0  0  0  0  0  0  0  0  0  0  0  0
   -0.5323   -0.0159    0.0000 C   0  0  0  0  0  0  0  0  0  0  0  0
    0.2683   -2.0738    0.0000 C   0  0  0  0  0  0  0  0  0  0  0  0
    0.9828   -2.4863    0.0000 C   0  0  0  0  0  0  0  0  0  0  0  0
   -1.6748    0.9093    0.0000 C   0  0  0  0  0  0  0  0  0  0  0  0
    2.9594   -1.6613    0.0000 C   0  0  0  0  0  0  0  0  0  0  0  0
   -1.1899    1.5767    0.0000 C   0  0  0  0  0  0  0  0  0  0  0  0
   -2.4953    0.9955    0.0000 C   0  0  0  0  0  0  0  0  0  0  0  0
   -1.5255    2.3304    0.0000 C   0  0  0  0  0  0  0  0  0  0  0  0
   -2.8309    1.7492    0.0000 C   0  0  0  0  0  0  0  0  0  0  0  0
   -2.3459    2.4166    0.0000 C   0  0  0  0  0  0  0  0  0  0  0  0
   -1.4045   -2.1349    0.0000 H   0  0  0  0  0  0  0  0  0  0  0  0
    0.9828    0.1957    0.0000 H   0  0  0  0  0  0  0  0  0  0  0  0
    0.2346    0.6747    0.0000 H   0  0  0  0  0  0  0  0  0  0  0  0
   -0.6254   -2.5898    0.0000 H   0  0  0  0  0  0  0  0  0  0  0  0
    0.9828   -3.5183    0.0000 H   0  0  0  0  0  0  0  0  0  0  0  0
    4.0294   -1.6613    0.0000 H   0  0  0  0  0  0  0  0  0  0  0  0
    3.4456   -2.6145    0.0000 H   0  0  0  0  0  0  0  0  0  0  0  0
   -0.1636    1.4688    0.0000 H   0  0  0  0  0  0  0  0  0  0  0  0
   -3.1019    0.1606    0.0000 H   0  0  0  0  0  0  0  0  0  0  0  0
   -3.8572    1.8571    0.0000 H   0  0  0  0  0  0  0  0  0  0  0  0
   -2.7656    3.3594    0.0000 H   0  0  0  0  0  0  0  0  0  0  0  0
  1 19  1  0  0  0  0
  2  8  1  0  0  0  0
  2 16  1  0  0  0  0
  3 10  1  0  0  0  0
  3 16  1  0  0  0  0
  4  5  1  0  0  0  0
  4  7  1  0  0  0  0
  4 22  1  0  0  0  0
  5 11  2  0  0  0  0
  6  7  1  0  0  0  0
  6  9  2  0  0  0  0
  6 13  1  0  0  0  0
  7 12  2  0  0  0  0
  8  9  1  0  0  0  0
  8 10  2  0  0  0  0
  9 23  1  0  0  0  0
 10 14  1  0  0  0  0
 11 12  1  0  0  0  0
 11 15  1  0  0  0  0
 12 24  1  0  0  0  0
 13 14  2  0  0  0  0
 13 25  1  0  0  0  0
 14 26  1  0  0  0  0
 15 17  2  0  0  0  0
 15 18  1  0  0  0  0
 16 27  1  0  0  0  0
 16 28  1  0  0  0  0
 17 19  1  0  0  0  0
 17 29  1  0  0  0  0
 18 20  2  0  0  0  0
 18 30  1  0  0  0  0
 19 21  2  0  0  0  0
 20 21  1  0  0  0  0
 20 31  1  0  0  0  0
 21 32  1  0  0  0  0
M  END
>  <DRUGBANK_ID>
DB13927

>  <COMMON_NAME>
Emrusolmin

>  <CAS_NUMBER>
882697-00-9

>  <UNII>
E7WRA77JET

>  <SYNONYMS>
1H-PYRAZOLE, 3-(1,3-BENZODIOXOL-5-YL)-5-(3-BROMOPHENYL)-; 3-(1,3-BENZODIOXOL-5-YL)-5-(3-BROMOPHENYL)-1H-PYRAZOLE

$$$$
