1557
 OpenBabel10282417072D

 56 58  0  0  1  0  0  0  0  0999 V2000
    1.6500    2.2688    0.0000 O   0  0  0  0  0  0  0  0  0  0  0  0
    3.0791   -0.2063    0.0000 N   0  0  0  0  0  0  0  0  0  0  0  0
    3.0791    2.2688    0.0000 N   0  0  0  0  0  0  0  0  0  0  0  0
    3.0791    1.4438    0.0000 C   0  0  3  0  0  0  0  0  0  0  0  0
    2.3645    1.0313    0.0000 C   0  0  0  0  0  0  0  0  0  0  0  0
    3.7935    1.0313    0.0000 C   0  0  0  0  0  0  0  0  0  0  0  0
    2.3645    0.2063    0.0000 C   0  0  0  0  0  0  0  0  0  0  0  0
    3.7935    0.2063    0.0000 C   0  0  0  0  0  0  0  0  0  0  0  0
    3.0791   -1.0313    0.0000 C   0  0  3  0  0  0  0  0  0  0  0  0
    2.3645   -1.4438    0.0000 C   0  0  0  0  0  0  0  0  0  0  0  0
    3.7935   -1.4438    0.0000 C   0  0  0  0  0  0  0  0  0  0  0  0
    3.7935    2.6813    0.0000 C   0  0  0  0  0  0  0  0  0  0  0  0
    2.3645    2.6813    0.0000 C   0  0  0  0  0  0  0  0  0  0  0  0
    2.3645   -2.2688    0.0000 C   0  0  0  0  0  0  0  0  0  0  0  0
    2.3645    3.5063    0.0000 C   0  0  0  0  0  0  0  0  0  0  0  0
    3.7935    3.5063    0.0000 C   0  0  0  0  0  0  0  0  0  0  0  0
    4.5080    2.2688    0.0000 C   0  0  0  0  0  0  0  0  0  0  0  0
    3.0791   -2.6813    0.0000 C   0  0  0  0  0  0  0  0  0  0  0  0
    1.6500   -2.6813    0.0000 C   0  0  0  0  0  0  0  0  0  0  0  0
    1.6500    3.9188    0.0000 C   0  0  0  0  0  0  0  0  0  0  0  0
    4.5080    3.9188    0.0000 C   0  0  0  0  0  0  0  0  0  0  0  0
    5.2224    2.6813    0.0000 C   0  0  0  0  0  0  0  0  0  0  0  0
    3.0791   -3.5063    0.0000 C   0  0  0  0  0  0  0  0  0  0  0  0
    1.6500   -3.5063    0.0000 C   0  0  0  0  0  0  0  0  0  0  0  0
    5.2224    3.5063    0.0000 C   0  0  0  0  0  0  0  0  0  0  0  0
    2.3645   -3.9188    0.0000 C   0  0  0  0  0  0  0  0  0  0  0  0
    2.1525    1.9788    0.0000 H   0  0  0  0  0  0  0  0  0  0  0  0
    1.4379    1.5663    0.0000 H   0  0  0  0  0  0  0  0  0  0  0  0
    1.4378    0.4963    0.0000 H   0  0  0  0  0  0  0  0  0  0  0  0
    4.7202    1.5663    0.0000 H   0  0  0  0  0  0  0  0  0  0  0  0
    4.7201    0.4963    0.0000 H   0  0  0  0  0  0  0  0  0  0  0  0
    1.4378   -0.3287    0.0000 H   0  0  0  0  0  0  0  0  0  0  0  0
    1.4379    0.7413    0.0000 H   0  0  0  0  0  0  0  0  0  0  0  0
    4.7202   -0.3286    0.0000 H   0  0  0  0  0  0  0  0  0  0  0  0
    4.7201    0.7413    0.0000 H   0  0  0  0  0  0  0  0  0  0  0  0
    2.1525   -0.4963    0.0000 H   0  0  0  0  0  0  0  0  0  0  0  0
    1.4379   -0.9088    0.0000 H   0  0  0  0  0  0  0  0  0  0  0  0
    1.4378   -1.9788    0.0000 H   0  0  0  0  0  0  0  0  0  0  0  0
    3.7935   -2.5138    0.0000 H   0  0  0  0  0  0  0  0  0  0  0  0
    4.7202   -0.9088    0.0000 H   0  0  0  0  0  0  0  0  0  0  0  0
    4.7201   -1.9788    0.0000 H   0  0  0  0  0  0  0  0  0  0  0  0
    3.2911    4.0413    0.0000 H   0  0  0  0  0  0  0  0  0  0  0  0
    2.3645    4.5763    0.0000 H   0  0  0  0  0  0  0  0  0  0  0  0
    2.8998    4.0223    0.0000 H   0  0  0  0  0  0  0  0  0  0  0  0
    4.5080    1.2368    0.0000 H   0  0  0  0  0  0  0  0  0  0  0  0
    3.9728   -2.1653    0.0000 H   0  0  0  0  0  0  0  0  0  0  0  0
    0.7563   -2.1653    0.0000 H   0  0  0  0  0  0  0  0  0  0  0  0
    1.6500    4.9888    0.0000 H   0  0  0  0  0  0  0  0  0  0  0  0
    0.7234    3.3838    0.0000 H   0  0  0  0  0  0  0  0  0  0  0  0
    0.7233    4.4538    0.0000 H   0  0  0  0  0  0  0  0  0  0  0  0
    4.5080    4.9508    0.0000 H   0  0  0  0  0  0  0  0  0  0  0  0
    6.1161    2.1653    0.0000 H   0  0  0  0  0  0  0  0  0  0  0  0
    3.9728   -4.0223    0.0000 H   0  0  0  0  0  0  0  0  0  0  0  0
    0.7563   -4.0223    0.0000 H   0  0  0  0  0  0  0  0  0  0  0  0
    6.1161    4.0223    0.0000 H   0  0  0  0  0  0  0  0  0  0  0  0
    2.3645   -4.9508    0.0000 H   0  0  0  0  0  0  0  0  0  0  0  0
  1 13  2  0  0  0  0
  2  7  1  0  0  0  0
  2  8  1  0  0  0  0
  2  9  1  0  0  0  0
  3  4  1  0  0  0  0
  3 12  1  0  0  0  0
  3 13  1  0  0  0  0
  4  5  1  0  0  0  0
  4  6  1  0  0  0  0
  4 27  1  0  0  0  0
  5  7  1  0  0  0  0
  5 28  1  0  0  0  0
  5 29  1  0  0  0  0
  6  8  1  0  0  0  0
  6 30  1  0  0  0  0
  6 31  1  0  0  0  0
  7 32  1  0  0  0  0
  7 33  1  0  0  0  0
  8 34  1  0  0  0  0
  8 35  1  0  0  0  0
  9 10  1  0  0  0  0
  9 11  1  0  0  0  0
  9 36  1  0  0  0  0
 10 14  1  0  0  0  0
 10 37  1  0  0  0  0
 10 38  1  0  0  0  0
 11 39  1  0  0  0  0
 11 40  1  0  0  0  0
 11 41  1  0  0  0  0
 12 16  2  0  0  0  0
 12 17  1  0  0  0  0
 13 15  1  0  0  0  0
 14 18  2  0  0  0  0
 14 19  1  0  0  0  0
 15 20  1  0  0  0  0
 15 42  1  0  0  0  0
 15 43  1  0  0  0  0
 16 21  1  0  0  0  0
 16 44  1  0  0  0  0
 17 22  2  0  0  0  0
 17 45  1  0  0  0  0
 18 23  1  0  0  0  0
 18 46  1  0  0  0  0
 19 24  2  0  0  0  0
 19 47  1  0  0  0  0
 20 48  1  0  0  0  0
 20 49  1  0  0  0  0
 20 50  1  0  0  0  0
 21 25  2  0  0  0  0
 21 51  1  0  0  0  0
 22 25  1  0  0  0  0
 22 52  1  0  0  0  0
 23 26  2  0  0  0  0
 23 53  1  0  0  0  0
 24 26  1  0  0  0  0
 24 54  1  0  0  0  0
 25 55  1  0  0  0  0
 26 56  1  0  0  0  0
M  END
>  <DRUGBANK_ID>
DB01557

>  <COMMON_NAME>
Î±-Methylfentanyl

>  <CAS_NUMBER>
79704-88-4

>  <UNII>
8FU589W85C

>  <SYNONYMS>
alpha-methylfentanyl

$$$$
