
 OpenBabel10282417072D

 33 33  0  0  0  0  0  0  0  0999 V2000
    1.2822    3.1768    0.0000 C   0  0  0  0  0  0  0  0  0  0  0  0
    1.2822    2.3518    0.0000 C   0  0  0  0  0  0  0  0  0  0  0  0
    0.5678    1.9393    0.0000 C   0  0  0  0  0  0  0  0  0  0  0  0
    0.5678    1.1143    0.0000 C   0  0  0  0  0  0  0  0  0  0  0  0
    1.2352    0.6294    0.0000 C   0  0  0  0  0  0  0  0  0  0  0  0
    0.9803   -0.1553    0.0000 C   0  0  0  0  0  0  0  0  0  0  0  0
    0.1553   -0.1553    0.0000 C   0  0  0  0  0  0  0  0  0  0  0  0
   -0.0997    0.6294    0.0000 O   0  0  0  0  0  0  0  0  0  0  0  0
   -0.3297   -0.8227    0.0000 C   0  0  0  0  0  0  0  0  0  0  0  0
    0.0059   -1.5764    0.0000 C   0  0  0  0  0  0  0  0  0  0  0  0
   -0.4790   -2.2438    0.0000 C   0  0  0  0  0  0  0  0  0  0  0  0
   -0.1435   -2.9975    0.0000 O   0  0  0  0  0  0  0  0  0  0  0  0
   -1.2995   -2.1576    0.0000 O   0  0  0  0  0  0  0  0  0  0  0  0
    1.4652   -0.8227    0.0000 C   0  0  0  0  0  0  0  0  0  0  0  0
    1.1296   -1.5764    0.0000 O   0  0  0  0  0  0  0  0  0  0  0  0
    2.2857   -0.7365    0.0000 O   0  0  0  0  0  0  0  0  0  0  0  0
    2.0198    0.8843    0.0000 C   0  0  0  0  0  0  0  0  0  0  0  0
    2.2088    3.7118    0.0000 H   0  0  0  0  0  0  0  0  0  0  0  0
    0.3556    3.7118    0.0000 H   0  0  0  0  0  0  0  0  0  0  0  0
    1.2822    4.2468    0.0000 H   0  0  0  0  0  0  0  0  0  0  0  0
    2.2089    1.8168    0.0000 H   0  0  0  0  0  0  0  0  0  0  0  0
    1.2822    1.2818    0.0000 H   0  0  0  0  0  0  0  0  0  0  0  0
   -0.3589    2.4743    0.0000 H   0  0  0  0  0  0  0  0  0  0  0  0
   -0.3588    1.4043    0.0000 H   0  0  0  0  0  0  0  0  0  0  0  0
   -1.3938   -0.7108    0.0000 H   0  0  0  0  0  0  0  0  0  0  0  0
   -0.9586   -1.6883    0.0000 H   0  0  0  0  0  0  0  0  0  0  0  0
    1.0700   -1.6882    0.0000 H   0  0  0  0  0  0  0  0  0  0  0  0
    0.4411   -2.5539    0.0000 H   0  0  0  0  0  0  0  0  0  0  0  0
   -1.6807   -1.3016    0.0000 H   0  0  0  0  0  0  0  0  0  0  0  0
    2.8364   -1.4946    0.0000 H   0  0  0  0  0  0  0  0  0  0  0  0
    2.8149    0.1683    0.0000 H   0  0  0  0  0  0  0  0  0  0  0  0
    2.2423    1.9309    0.0000 H   0  0  0  0  0  0  0  0  0  0  0  0
    3.0374    1.2149    0.0000 H   0  0  0  0  0  0  0  0  0  0  0  0
  1  2  1  0  0  0  0
  1 18  1  0  0  0  0
  1 19  1  0  0  0  0
  1 20  1  0  0  0  0
  2  3  1  0  0  0  0
  2 21  1  0  0  0  0
  2 22  1  0  0  0  0
  3  4  1  0  0  0  0
  3 23  1  0  0  0  0
  3 24  1  0  0  0  0
  4  5  2  0  0  0  0
  4  8  1  0  0  0  0
  5  6  1  0  0  0  0
  5 17  1  0  0  0  0
  6  7  2  0  0  0  0
  6 14  1  0  0  0  0
  7  8  1  0  0  0  0
  7  9  1  0  0  0  0
  9 10  1  0  0  0  0
  9 25  1  0  0  0  0
  9 26  1  0  0  0  0
 10 11  1  0  0  0  0
 10 27  1  0  0  0  0
 10 28  1  0  0  0  0
 11 12  2  0  0  0  0
 11 13  1  0  0  0  0
 13 29  1  0  0  0  0
 14 15  2  0  0  0  0
 14 16  1  0  0  0  0
 16 30  1  0  0  0  0
 17 31  1  0  0  0  0
 17 32  1  0  0  0  0
 17 33  1  0  0  0  0
M  END
>  <DRUGBANK_ID>
DB07517

>  <COMMON_NAME>
3-CARBOXY-4-METHYL-5-PROPYL-2-FURANPROPIONIC

>  <UNII>
JTU41879GF

$$$$
