
 OpenBabel10282417072D

 57 62  0  0  0  0  0  0  0  0999 V2000
   -0.7145   -1.2375    0.0000 O   0  0  0  0  0  0  0  0  0  0  0  0
    0.0000   -1.6500    0.0000 C   0  0  0  0  0  0  0  0  0  0  0  0
    0.0000   -2.4750    0.0000 N   0  0  0  0  0  0  0  0  0  0  0  0
   -0.7145   -2.8875    0.0000 C   0  0  0  0  0  0  0  0  0  0  0  0
   -0.7145   -3.7125    0.0000 C   0  0  0  0  0  0  0  0  0  0  0  0
   -1.4289   -4.1250    0.0000 C   0  0  0  0  0  0  0  0  0  0  0  0
   -2.1434   -3.7125    0.0000 C   0  0  0  0  0  0  0  0  0  0  0  0
   -2.1434   -2.8875    0.0000 C   0  0  0  0  0  0  0  0  0  0  0  0
   -1.4289   -2.4750    0.0000 C   0  0  0  0  0  0  0  0  0  0  0  0
    0.0000   -4.1250    0.0000 C   0  0  0  0  0  0  0  0  0  0  0  0
    0.7537   -3.7894    0.0000 C   0  0  0  0  0  0  0  0  0  0  0  0
    1.3057   -4.4025    0.0000 N   0  0  0  0  0  0  0  0  0  0  0  0
    2.1127   -4.5741    0.0000 C   0  0  0  0  0  0  0  0  0  0  0  0
    2.7258   -4.0220    0.0000 C   0  0  0  0  0  0  0  0  0  0  0  0
    3.5104   -4.2770    0.0000 N   0  0  0  0  0  0  0  0  0  0  0  0
    4.1235   -3.7249    0.0000 C   0  0  0  0  0  0  0  0  0  0  0  0
    4.9081   -3.9799    0.0000 C   0  0  0  0  0  0  0  0  0  0  0  0
    5.0796   -4.7868    0.0000 N   0  0  0  0  0  0  0  0  0  0  0  0
    4.4665   -5.3389    0.0000 C   0  0  0  0  0  0  0  0  0  0  0  0
    3.6819   -5.0839    0.0000 C   0  0  0  0  0  0  0  0  0  0  0  0
    2.1989   -5.3945    0.0000 C   0  0  0  0  0  0  0  0  0  0  0  0
    1.4452   -5.7301    0.0000 S   0  0  0  0  0  0  0  0  0  0  0  0
    0.8932   -5.1170    0.0000 C   0  0  0  0  0  0  0  0  0  0  0  0
    0.0862   -4.9455    0.0000 N   0  0  0  0  0  0  0  0  0  0  0  0
    0.7145   -1.2375    0.0000 C   0  0  0  0  0  0  0  0  0  0  0  0
    0.7145   -0.4125    0.0000 C   0  0  0  0  0  0  0  0  0  0  0  0
    1.4289    0.0000    0.0000 N   0  0  0  0  0  0  0  0  0  0  0  0
    2.1434   -0.4125    0.0000 C   0  0  0  0  0  0  0  0  0  0  0  0
    2.8579    0.0000    0.0000 C   0  0  0  0  0  0  0  0  0  0  0  0
    3.5724   -0.4125    0.0000 C   0  0  0  0  0  0  0  0  0  0  0  0
    3.5724   -1.2375    0.0000 C   0  0  0  0  0  0  0  0  0  0  0  0
    2.8579   -1.6500    0.0000 C   0  0  0  0  0  0  0  0  0  0  0  0
    2.1434   -1.2375    0.0000 C   0  0  0  0  0  0  0  0  0  0  0  0
    1.4289   -1.6500    0.0000 N   0  0  0  0  0  0  0  0  0  0  0  0
    0.8526   -2.9673    0.0000 H   0  0  0  0  0  0  0  0  0  0  0  0
   -1.4289   -5.1570    0.0000 H   0  0  0  0  0  0  0  0  0  0  0  0
   -3.0371   -4.2285    0.0000 H   0  0  0  0  0  0  0  0  0  0  0  0
   -3.0371   -2.3715    0.0000 H   0  0  0  0  0  0  0  0  0  0  0  0
   -1.4289   -1.4430    0.0000 H   0  0  0  0  0  0  0  0  0  0  0  0
    0.9683   -2.7800    0.0000 H   0  0  0  0  0  0  0  0  0  0  0  0
    2.5033   -2.9754    0.0000 H   0  0  0  0  0  0  0  0  0  0  0  0
    3.5210   -3.3061    0.0000 H   0  0  0  0  0  0  0  0  0  0  0  0
    3.9010   -2.6783    0.0000 H   0  0  0  0  0  0  0  0  0  0  0  0
    4.9187   -3.0090    0.0000 H   0  0  0  0  0  0  0  0  0  0  0  0
    5.7033   -3.2640    0.0000 H   0  0  0  0  0  0  0  0  0  0  0  0
    5.9257   -4.3106    0.0000 H   0  0  0  0  0  0  0  0  0  0  0  0
    6.0497   -5.1020    0.0000 H   0  0  0  0  0  0  0  0  0  0  0  0
    4.6890   -6.3855    0.0000 H   0  0  0  0  0  0  0  0  0  0  0  0
    3.6713   -6.0548    0.0000 H   0  0  0  0  0  0  0  0  0  0  0  0
    2.8867   -5.7998    0.0000 H   0  0  0  0  0  0  0  0  0  0  0  0
    2.6643   -4.7532    0.0000 H   0  0  0  0  0  0  0  0  0  0  0  0
    3.0926   -5.9105    0.0000 H   0  0  0  0  0  0  0  0  0  0  0  0
   -0.1792    0.1035    0.0000 H   0  0  0  0  0  0  0  0  0  0  0  0
    2.8579    1.0320    0.0000 H   0  0  0  0  0  0  0  0  0  0  0  0
    4.4661    0.1035    0.0000 H   0  0  0  0  0  0  0  0  0  0  0  0
    4.4661   -1.7535    0.0000 H   0  0  0  0  0  0  0  0  0  0  0  0
    2.8579   -2.6820    0.0000 H   0  0  0  0  0  0  0  0  0  0  0  0
  1  2  2  0  0  0  0
  2  3  1  0  0  0  0
  2 25  1  0  0  0  0
  3  4  1  0  0  0  0
  3 35  1  0  0  0  0
  4  5  2  0  0  0  0
  4  9  1  0  0  0  0
  5  6  1  0  0  0  0
  5 10  1  0  0  0  0
  6  7  2  0  0  0  0
  6 36  1  0  0  0  0
  7  8  1  0  0  0  0
  7 37  1  0  0  0  0
  8  9  2  0  0  0  0
  8 38  1  0  0  0  0
  9 39  1  0  0  0  0
 10 11  2  0  0  0  0
 10 24  1  0  0  0  0
 11 12  1  0  0  0  0
 11 40  1  0  0  0  0
 12 13  1  0  0  0  0
 12 23  1  0  0  0  0
 13 14  1  0  0  0  0
 13 21  2  0  0  0  0
 14 15  1  0  0  0  0
 14 41  1  0  0  0  0
 14 42  1  0  0  0  0
 15 16  1  0  0  0  0
 15 20  1  0  0  0  0
 16 17  1  0  0  0  0
 16 43  1  0  0  0  0
 16 44  1  0  0  0  0
 17 18  1  0  0  0  0
 17 45  1  0  0  0  0
 17 46  1  0  0  0  0
 18 19  1  0  0  0  0
 18 47  1  0  0  0  0
 19 20  1  0  0  0  0
 19 48  1  0  0  0  0
 19 49  1  0  0  0  0
 20 50  1  0  0  0  0
 20 51  1  0  0  0  0
 21 22  1  0  0  0  0
 21 52  1  0  0  0  0
 22 23  1  0  0  0  0
 23 24  2  0  0  0  0
 25 26  2  0  0  0  0
 25 34  1  0  0  0  0
 26 27  1  0  0  0  0
 26 53  1  0  0  0  0
 27 28  2  0  0  0  0
 28 29  1  0  0  0  0
 28 33  1  0  0  0  0
 29 30  2  0  0  0  0
 29 54  1  0  0  0  0
 30 31  1  0  0  0  0
 30 55  1  0  0  0  0
 31 32  2  0  0  0  0
 31 56  1  0  0  0  0
 32 33  1  0  0  0  0
 32 57  1  0  0  0  0
 33 34  2  0  0  0  0
M  END
>  <DRUGBANK_ID>
DB17057

>  <COMMON_NAME>
SRT-1720

>  <CAS_NUMBER>
925434-55-5

>  <UNII>
DX3FHY76FZ

>  <SYNONYMS>
2-quinoxalinecarboxamide, n-(2-(3-(1-piperazinylmethyl)imidazo(2,1-b)thiazol-6-yl)phenyl)-; N-(2-(3-(1-piperazinylmethyl)imidazo(2,1-b)thiazol-6-yl)phenyl)-2-quinoxalinecarboxamide

$$$$
