
 OpenBabel10282417072D

 36 36  0  0  0  0  0  0  0  0999 V2000
    0.0953    1.3750    0.0000 C   0  0  0  0  0  0  0  0  0  0  0  0
    0.8097    0.9625    0.0000 O   0  0  0  0  0  0  0  0  0  0  0  0
    0.8097    0.1375    0.0000 C   0  0  0  0  0  0  0  0  0  0  0  0
    1.5242   -0.2750    0.0000 C   0  0  0  0  0  0  0  0  0  0  0  0
    1.5242   -1.1000    0.0000 C   0  0  0  0  0  0  0  0  0  0  0  0
    0.8097   -1.5125    0.0000 C   0  0  0  0  0  0  0  0  0  0  0  0
    0.0953   -1.1000    0.0000 N   0  0  0  0  0  0  0  0  0  0  0  0
    0.0953   -0.2750    0.0000 N   0  3  0  0  0  0  0  0  0  0  0  0
   -0.6192    0.1375    0.0000 C   0  0  0  0  0  0  0  0  0  0  0  0
   -1.3337   -0.2750    0.0000 C   0  0  0  0  0  0  0  0  0  0  0  0
   -2.0482    0.1375    0.0000 C   0  0  0  0  0  0  0  0  0  0  0  0
   -2.0482    0.9625    0.0000 C   0  0  0  0  0  0  0  0  0  0  0  0
   -1.3337    1.3750    0.0000 C   0  0  0  0  0  0  0  0  0  0  0  0
   -0.6192    0.9625    0.0000 C   0  0  0  0  0  0  0  0  0  0  0  0
    2.2387   -1.5125    0.0000 N   0  0  0  0  0  0  0  0  0  0  0  0
    4.5958   -1.0312    0.0000 C   0  0  0  0  0  0  0  0  0  0  0  0
    5.3103   -0.6188    0.0000 O   0  0  0  0  0  0  0  0  0  0  0  0
    5.3103    0.2062    0.0000 S   0  0  0  0  0  0  0  0  0  0  0  0
    5.3103    1.0313    0.0000 O   0  0  0  0  0  0  0  0  0  0  0  0
    6.1353    0.2062    0.0000 O   0  0  0  0  0  0  0  0  0  0  0  0
    4.4853    0.2062    0.0000 O   0  5  0  0  0  0  0  0  0  0  0  0
    0.0953    2.4450    0.0000 H   0  0  0  0  0  0  0  0  0  0  0  0
   -0.8314    0.8400    0.0000 H   0  0  0  0  0  0  0  0  0  0  0  0
   -0.8313    1.9100    0.0000 H   0  0  0  0  0  0  0  0  0  0  0  0
    2.4179    0.2410    0.0000 H   0  0  0  0  0  0  0  0  0  0  0  0
    0.8097   -2.5445    0.0000 H   0  0  0  0  0  0  0  0  0  0  0  0
   -1.3337   -1.3070    0.0000 H   0  0  0  0  0  0  0  0  0  0  0  0
   -2.9419   -0.3785    0.0000 H   0  0  0  0  0  0  0  0  0  0  0  0
   -2.9419    1.4785    0.0000 H   0  0  0  0  0  0  0  0  0  0  0  0
   -1.3337    2.4070    0.0000 H   0  0  0  0  0  0  0  0  0  0  0  0
    0.2745    1.4785    0.0000 H   0  0  0  0  0  0  0  0  0  0  0  0
    2.2387   -2.4970    0.0000 H   0  0  0  0  0  0  0  0  0  0  0  0
    3.0913   -1.0202    0.0000 H   0  0  0  0  0  0  0  0  0  0  0  0
    3.6692   -0.4961    0.0000 H   0  0  0  0  0  0  0  0  0  0  0  0
    4.5957   -2.1012    0.0000 H   0  0  0  0  0  0  0  0  0  0  0  0
    3.6691   -1.5661    0.0000 H   0  0  0  0  0  0  0  0  0  0  0  0
  1  2  1  0  0  0  0
  1 22  1  0  0  0  0
  1 23  1  0  0  0  0
  1 24  1  0  0  0  0
  2  3  1  0  0  0  0
  3  4  2  0  0  0  0
  3  8  1  0  0  0  0
  4  5  1  0  0  0  0
  4 25  1  0  0  0  0
  5  6  2  0  0  0  0
  5 15  1  0  0  0  0
  6  7  1  0  0  0  0
  6 26  1  0  0  0  0
  7  8  2  0  0  0  0
  8  9  1  0  0  0  0
  9 10  2  0  0  0  0
  9 14  1  0  0  0  0
 10 11  1  0  0  0  0
 10 27  1  0  0  0  0
 11 12  2  0  0  0  0
 11 28  1  0  0  0  0
 12 13  1  0  0  0  0
 12 29  1  0  0  0  0
 13 14  2  0  0  0  0
 13 30  1  0  0  0  0
 14 31  1  0  0  0  0
 15 32  1  0  0  0  0
 15 33  1  0  0  0  0
 16 17  1  0  0  0  0
 16 34  1  0  0  0  0
 16 35  1  0  0  0  0
 16 36  1  0  0  0  0
 17 18  1  0  0  0  0
 18 19  2  0  0  0  0
 18 20  2  0  0  0  0
 18 21  1  0  0  0  0
M  CHG  2   8   1  21  -1
M  END
>  <DRUGBANK_ID>
DB13330

>  <COMMON_NAME>
Amezinium metilsulfate

>  <CAS_NUMBER>
30578-37-1

>  <UNII>
03NR868ICX

>  <SYNONYMS>
Amezinium metilsulfate

$$$$
