
 OpenBabel10282417072D

 19 19  0  0  0  0  0  0  0  0999 V2000
    0.7146    0.0000    0.0000 C   0  0  0  0  0  0  0  0  0  0  0  0
    0.0000    0.4125    0.0000 Hg  0  0  0  0  0  0  0  0  0  0  0  0
    1.4290    0.4125    0.0000 C   0  0  0  0  0  0  0  0  0  0  0  0
    0.7146   -0.8250    0.0000 C   0  0  0  0  0  0  0  0  0  0  0  0
   -0.7145    0.0000    0.0000 O   0  0  0  0  0  0  0  0  0  0  0  0
    2.1435    0.0000    0.0000 C   0  0  0  0  0  0  0  0  0  0  0  0
    1.4290   -1.2375    0.0000 C   0  0  0  0  0  0  0  0  0  0  0  0
   -1.4290    0.4125    0.0000 C   0  0  0  0  0  0  0  0  0  0  0  0
    2.1435   -0.8250    0.0000 C   0  0  0  0  0  0  0  0  0  0  0  0
   -2.1435    0.0000    0.0000 C   0  0  0  0  0  0  0  0  0  0  0  0
   -1.4290    1.2375    0.0000 O   0  0  0  0  0  0  0  0  0  0  0  0
    1.4290    1.4445    0.0000 H   0  0  0  0  0  0  0  0  0  0  0  0
   -0.1791   -1.3410    0.0000 H   0  0  0  0  0  0  0  0  0  0  0  0
    3.0372    0.5160    0.0000 H   0  0  0  0  0  0  0  0  0  0  0  0
    1.4290   -2.2695    0.0000 H   0  0  0  0  0  0  0  0  0  0  0  0
    3.0372   -1.3410    0.0000 H   0  0  0  0  0  0  0  0  0  0  0  0
   -3.0701    0.5350    0.0000 H   0  0  0  0  0  0  0  0  0  0  0  0
   -2.1435   -1.0700    0.0000 H   0  0  0  0  0  0  0  0  0  0  0  0
   -3.0702   -0.5350    0.0000 H   0  0  0  0  0  0  0  0  0  0  0  0
  1  2  1  0  0  0  0
  1  3  1  0  0  0  0
  1  4  2  0  0  0  0
  2  5  1  0  0  0  0
  3  6  2  0  0  0  0
  3 12  1  0  0  0  0
  4  7  1  0  0  0  0
  4 13  1  0  0  0  0
  5  8  1  0  0  0  0
  6  9  1  0  0  0  0
  6 14  1  0  0  0  0
  7  9  2  0  0  0  0
  7 15  1  0  0  0  0
  8 10  1  0  0  0  0
  8 11  2  0  0  0  0
  9 16  1  0  0  0  0
 10 17  1  0  0  0  0
 10 18  1  0  0  0  0
 10 19  1  0  0  0  0
M  END
>  <DRUGBANK_ID>
DB17044

>  <COMMON_NAME>
Phenylmercuric acetate

>  <CAS_NUMBER>
62-38-4

>  <UNII>
OSX88361UX

>  <SYNONYMS>
(acetato)phenylmercury; Mercury, (acetato-o)phenyl-; Phenyl mercuric acetate; Phenylmercury acetate

$$$$
