
 OpenBabel10282417072D

 35 35  0  0  0  0  0  0  0  0999 V2000
   -3.1233   -1.3894    0.0000 C   0  0  0  0  0  0  0  0  0  0  0  0
   -2.7877   -0.6357    0.0000 C   0  0  0  0  0  0  0  0  0  0  0  0
   -1.9672   -0.5495    0.0000 C   0  0  0  0  0  0  0  0  0  0  0  0
   -1.6317    0.2042    0.0000 O   0  0  0  0  0  0  0  0  0  0  0  0
   -0.8112    0.2904    0.0000 C   0  0  0  0  0  0  0  0  0  0  0  0
   -0.3263   -0.3770    0.0000 O   0  0  0  0  0  0  0  0  0  0  0  0
   -0.4756    1.0441    0.0000 C   0  0  0  0  0  0  0  0  0  0  0  0
   -0.8881    1.7586    0.0000 C   0  0  0  0  0  0  0  0  0  0  0  0
   -0.3361    2.3716    0.0000 C   0  0  0  0  0  0  0  0  0  0  0  0
    0.4176    2.0361    0.0000 C   0  0  0  0  0  0  0  0  0  0  0  0
    0.3314    1.2156    0.0000 S   0  0  0  0  0  0  0  0  0  0  0  0
    1.1321    2.4486    0.0000 C   0  0  0  0  0  0  0  0  0  0  0  0
    1.1321    3.2736    0.0000 O   0  0  0  0  0  0  0  0  0  0  0  0
    1.8465    2.0361    0.0000 O   0  0  0  0  0  0  0  0  0  0  0  0
    2.5610    2.4486    0.0000 C   0  0  0  0  0  0  0  0  0  0  0  0
    3.2755    2.0361    0.0000 C   0  0  0  0  0  0  0  0  0  0  0  0
    3.9899    2.4486    0.0000 C   0  0  0  0  0  0  0  0  0  0  0  0
   -0.5076    3.1786    0.0000 O   0  0  0  0  0  0  0  0  0  0  0  0
   -1.7086    1.8448    0.0000 O   0  0  0  0  0  0  0  0  0  0  0  0
   -4.1874   -1.5012    0.0000 H   0  0  0  0  0  0  0  0  0  0  0  0
   -2.4944   -2.2551    0.0000 H   0  0  0  0  0  0  0  0  0  0  0  0
   -3.5585   -2.3669    0.0000 H   0  0  0  0  0  0  0  0  0  0  0  0
   -3.4166    0.2300    0.0000 H   0  0  0  0  0  0  0  0  0  0  0  0
   -2.3524    0.3418    0.0000 H   0  0  0  0  0  0  0  0  0  0  0  0
   -1.3383   -1.4151    0.0000 H   0  0  0  0  0  0  0  0  0  0  0  0
   -0.9031   -0.4376    0.0000 H   0  0  0  0  0  0  0  0  0  0  0  0
    2.5610    3.5186    0.0000 H   0  0  0  0  0  0  0  0  0  0  0  0
    3.4876    2.9836    0.0000 H   0  0  0  0  0  0  0  0  0  0  0  0
    3.2755    0.9661    0.0000 H   0  0  0  0  0  0  0  0  0  0  0  0
    4.2022    1.5011    0.0000 H   0  0  0  0  0  0  0  0  0  0  0  0
    4.9166    1.9136    0.0000 H   0  0  0  0  0  0  0  0  0  0  0  0
    3.9899    3.5186    0.0000 H   0  0  0  0  0  0  0  0  0  0  0  0
    4.9165    2.9836    0.0000 H   0  0  0  0  0  0  0  0  0  0  0  0
    0.1888    3.8055    0.0000 H   0  0  0  0  0  0  0  0  0  0  0  0
   -2.0898    2.7008    0.0000 H   0  0  0  0  0  0  0  0  0  0  0  0
  1  2  1  0  0  0  0
  1 20  1  0  0  0  0
  1 21  1  0  0  0  0
  1 22  1  0  0  0  0
  2  3  1  0  0  0  0
  2 23  1  0  0  0  0
  2 24  1  0  0  0  0
  3  4  1  0  0  0  0
  3 25  1  0  0  0  0
  3 26  1  0  0  0  0
  4  5  1  0  0  0  0
  5  6  2  0  0  0  0
  5  7  1  0  0  0  0
  7  8  2  0  0  0  0
  7 11  1  0  0  0  0
  8  9  1  0  0  0  0
  8 19  1  0  0  0  0
  9 10  2  0  0  0  0
  9 18  1  0  0  0  0
 10 11  1  0  0  0  0
 10 12  1  0  0  0  0
 12 13  2  0  0  0  0
 12 14  1  0  0  0  0
 14 15  1  0  0  0  0
 15 16  1  0  0  0  0
 15 27  1  0  0  0  0
 15 28  1  0  0  0  0
 16 17  1  0  0  0  0
 16 29  1  0  0  0  0
 16 30  1  0  0  0  0
 17 31  1  0  0  0  0
 17 32  1  0  0  0  0
 17 33  1  0  0  0  0
 18 34  1  0  0  0  0
 19 35  1  0  0  0  0
M  END
>  <DRUGBANK_ID>
DB13632

>  <COMMON_NAME>
Protiofate

>  <CAS_NUMBER>
58416-00-5

>  <UNII>
FIP88CI9Y3

>  <SYNONYMS>
Protiofate

$$$$
