237
 OpenBabel10282417072D

 31 31  0  0  1  0  0  0  0  0999 V2000
    4.5080    0.1658    0.0000 O   0  0  0  0  0  0  0  0  0  0  0  0
    1.6500    0.1658    0.0000 O   0  0  0  0  0  0  0  0  0  0  0  0
    3.0791   -2.3092    0.0000 O   0  0  0  0  0  0  0  0  0  0  0  0
    3.7935   -1.0717    0.0000 N   0  0  0  0  0  0  0  0  0  0  0  0
    2.3645   -1.0717    0.0000 N   0  0  0  0  0  0  0  0  0  0  0  0
    3.0791    0.1658    0.0000 C   0  0  0  0  0  0  0  0  0  0  0  0
    3.4916    0.8803    0.0000 C   0  0  3  0  0  0  0  0  0  0  0  0
    2.6665    0.8803    0.0000 C   0  0  0  0  0  0  0  0  0  0  0  0
    3.0791    1.5948    0.0000 C   0  0  0  0  0  0  0  0  0  0  0  0
    3.7935   -0.2467    0.0000 C   0  0  0  0  0  0  0  0  0  0  0  0
    2.3645   -0.2467    0.0000 C   0  0  0  0  0  0  0  0  0  0  0  0
    4.3166    0.8803    0.0000 C   0  0  0  0  0  0  0  0  0  0  0  0
    1.8415    0.8803    0.0000 C   0  0  0  0  0  0  0  0  0  0  0  0
    3.4916    2.3092    0.0000 C   0  0  0  0  0  0  0  0  0  0  0  0
    3.0791   -1.4842    0.0000 C   0  0  0  0  0  0  0  0  0  0  0  0
    4.6461   -1.5639    0.0000 H   0  0  0  0  0  0  0  0  0  0  0  0
    1.5119   -1.5640    0.0000 H   0  0  0  0  0  0  0  0  0  0  0  0
    2.4216    0.8803    0.0000 H   0  0  0  0  0  0  0  0  0  0  0  0
    3.2015    1.8070    0.0000 H   0  0  0  0  0  0  0  0  0  0  0  0
    2.1315    1.8069    0.0000 H   0  0  0  0  0  0  0  0  0  0  0  0
    2.0091    1.5948    0.0000 H   0  0  0  0  0  0  0  0  0  0  0  0
    2.5441    2.5215    0.0000 H   0  0  0  0  0  0  0  0  0  0  0  0
    4.8516   -0.0463    0.0000 H   0  0  0  0  0  0  0  0  0  0  0  0
    4.8516    1.8069    0.0000 H   0  0  0  0  0  0  0  0  0  0  0  0
    5.3866    0.8803    0.0000 H   0  0  0  0  0  0  0  0  0  0  0  0
    1.3065    1.8069    0.0000 H   0  0  0  0  0  0  0  0  0  0  0  0
    1.3065   -0.0463    0.0000 H   0  0  0  0  0  0  0  0  0  0  0  0
    0.7715    0.8803    0.0000 H   0  0  0  0  0  0  0  0  0  0  0  0
    4.5616    2.3092    0.0000 H   0  0  0  0  0  0  0  0  0  0  0  0
    2.9566    3.2359    0.0000 H   0  0  0  0  0  0  0  0  0  0  0  0
    4.0266    3.2358    0.0000 H   0  0  0  0  0  0  0  0  0  0  0  0
  1 10  2  0  0  0  0
  2 11  2  0  0  0  0
  3 15  2  0  0  0  0
  4 10  1  0  0  0  0
  4 15  1  0  0  0  0
  4 16  1  0  0  0  0
  5 11  1  0  0  0  0
  5 15  1  0  0  0  0
  5 17  1  0  0  0  0
  6  7  1  0  0  0  0
  6  8  1  0  0  0  0
  6 10  1  0  0  0  0
  6 11  1  0  0  0  0
  7  9  1  0  0  0  0
  7 12  1  0  0  0  0
  7 18  1  0  0  0  0
  8 13  1  0  0  0  0
  8 19  1  0  0  0  0
  8 20  1  0  0  0  0
  9 14  1  0  0  0  0
  9 21  1  0  0  0  0
  9 22  1  0  0  0  0
 12 23  1  0  0  0  0
 12 24  1  0  0  0  0
 12 25  1  0  0  0  0
 13 26  1  0  0  0  0
 13 27  1  0  0  0  0
 13 28  1  0  0  0  0
 14 29  1  0  0  0  0
 14 30  1  0  0  0  0
 14 31  1  0  0  0  0
M  END
>  <DRUGBANK_ID>
DB00237

>  <SECONDARY_ACCESSION_NUMBERS>
APRD00752

>  <COMMON_NAME>
Butabarbital

>  <CAS_NUMBER>
125-40-6

>  <UNII>
P0078O25A9

>  <SYNONYMS>
5-ethyl-5-(1-methylpropyl)-2,4,6(1H,3H,5H)-pyrimidinetrione; 5-ethyl-5-(1-methylpropyl)barbituric acid; 5-sec-butyl-5-ethyl-2,4,6(1H,3H,5H)-pyrimidinetrione; 5-sec-butyl-5-ethylbarbituric acid; 5-sec-butyl-5-ethylpyrimidine-2,4,6(1H,3H,5H)-trione; Butabarbital; Secbutabarbital; Secbutabarbitale; Secbutabarbitalum

$$$$
