550
 OpenBabel10282417072D

 21 21  0  0  0  0  0  0  0  0999 V2000
    5.9370   -0.9818    0.0000 S   0  0  0  0  0  0  0  0  0  0  0  0
    4.5080    1.4933    0.0000 O   0  0  0  0  0  0  0  0  0  0  0  0
    4.5080   -0.9818    0.0000 N   0  0  0  0  0  0  0  0  0  0  0  0
    5.2224    0.2558    0.0000 N   0  0  0  0  0  0  0  0  0  0  0  0
    3.0791   -0.9818    0.0000 C   0  0  0  0  0  0  0  0  0  0  0  0
    3.7935   -0.5693    0.0000 C   0  0  0  0  0  0  0  0  0  0  0  0
    2.3645   -0.5693    0.0000 C   0  0  0  0  0  0  0  0  0  0  0  0
    3.7935    0.2558    0.0000 C   0  0  0  0  0  0  0  0  0  0  0  0
    1.6500   -0.9818    0.0000 C   0  0  0  0  0  0  0  0  0  0  0  0
    5.2224   -0.5693    0.0000 C   0  0  0  0  0  0  0  0  0  0  0  0
    4.5080    0.6683    0.0000 C   0  0  0  0  0  0  0  0  0  0  0  0
    4.5080   -1.9663    0.0000 H   0  0  0  0  0  0  0  0  0  0  0  0
    6.0750    0.7480    0.0000 H   0  0  0  0  0  0  0  0  0  0  0  0
    3.0792   -2.0518    0.0000 H   0  0  0  0  0  0  0  0  0  0  0  0
    2.1525   -1.5169    0.0000 H   0  0  0  0  0  0  0  0  0  0  0  0
    2.3645    0.5007    0.0000 H   0  0  0  0  0  0  0  0  0  0  0  0
    1.4378   -0.0343    0.0000 H   0  0  0  0  0  0  0  0  0  0  0  0
    2.8998    0.7718    0.0000 H   0  0  0  0  0  0  0  0  0  0  0  0
    0.7234   -0.4468    0.0000 H   0  0  0  0  0  0  0  0  0  0  0  0
    1.6500   -2.0518    0.0000 H   0  0  0  0  0  0  0  0  0  0  0  0
    0.7233   -1.5168    0.0000 H   0  0  0  0  0  0  0  0  0  0  0  0
  1 10  2  0  0  0  0
  2 11  2  0  0  0  0
  3  6  1  0  0  0  0
  3 10  1  0  0  0  0
  3 12  1  0  0  0  0
  4 10  1  0  0  0  0
  4 11  1  0  0  0  0
  4 13  1  0  0  0  0
  5  6  1  0  0  0  0
  5  7  1  0  0  0  0
  5 14  1  0  0  0  0
  5 15  1  0  0  0  0
  6  8  2  0  0  0  0
  7  9  1  0  0  0  0
  7 16  1  0  0  0  0
  7 17  1  0  0  0  0
  8 11  1  0  0  0  0
  8 18  1  0  0  0  0
  9 19  1  0  0  0  0
  9 20  1  0  0  0  0
  9 21  1  0  0  0  0
M  END
>  <DRUGBANK_ID>
DB00550

>  <SECONDARY_ACCESSION_NUMBERS>
APRD00297

>  <COMMON_NAME>
Propylthiouracil

>  <CAS_NUMBER>
51-52-5

>  <UNII>
721M9407IY

>  <SYNONYMS>
2-Mercapto-6-propyl-4-pyrimidone; 2-Mercapto-6-propylpyrimid-4-one; 2-Thio-4-oxo-6-propyl-1,3-pyrimidine; 2-Thio-6-propyl-1,3-pyrimidin-4-one; 4-propyl-2-thiouracil; 6-Propyl-2-thio-2,4(1H,3H)pyrimidinedione; 6-propyl-2-thiouracil; 6-propyl-2-thioxo-2,3-dihydropyrimidin-4(1H)-one; 6-Propylthiouracil; 6-Thio-4-propyluracil; Propiltiouracilo; Propylthiouracil; Propylthiouracile; Propylthiouracilum

$$$$
