1237
 OpenBabel10282417072D

 40 41  0  0  1  0  0  0  0  0999 V2000
    3.7935   -3.0938    0.0000 Br  0  0  0  0  0  0  0  0  0  0  0  0
    3.0791    0.6188    0.0000 O   0  0  0  0  0  0  0  0  0  0  0  0
    2.3645    2.6813    0.0000 N   0  0  0  0  0  0  0  0  0  0  0  0
    3.7935    0.2063    0.0000 C   0  0  3  0  0  0  0  0  0  0  0  0
    3.7935   -0.6188    0.0000 C   0  0  0  0  0  0  0  0  0  0  0  0
    4.5080    0.6188    0.0000 C   0  0  0  0  0  0  0  0  0  0  0  0
    3.0791    1.4438    0.0000 C   0  0  0  0  0  0  0  0  0  0  0  0
    2.3645    1.8563    0.0000 C   0  0  0  0  0  0  0  0  0  0  0  0
    4.5080   -1.0313    0.0000 C   0  0  0  0  0  0  0  0  0  0  0  0
    3.0791   -1.0313    0.0000 C   0  0  0  0  0  0  0  0  0  0  0  0
    4.5080    1.4438    0.0000 C   0  0  0  0  0  0  0  0  0  0  0  0
    5.2224    0.2063    0.0000 C   0  0  0  0  0  0  0  0  0  0  0  0
    1.6500    3.0938    0.0000 C   0  0  0  0  0  0  0  0  0  0  0  0
    3.0791    3.0938    0.0000 C   0  0  0  0  0  0  0  0  0  0  0  0
    4.5080   -1.8563    0.0000 C   0  0  0  0  0  0  0  0  0  0  0  0
    3.0791   -1.8563    0.0000 C   0  0  0  0  0  0  0  0  0  0  0  0
    5.2224    1.8563    0.0000 C   0  0  0  0  0  0  0  0  0  0  0  0
    5.9370    0.6188    0.0000 C   0  0  0  0  0  0  0  0  0  0  0  0
    3.7935   -2.2688    0.0000 C   0  0  0  0  0  0  0  0  0  0  0  0
    5.9370    1.4438    0.0000 C   0  0  0  0  0  0  0  0  0  0  0  0
    2.8668   -0.3287    0.0000 H   0  0  0  0  0  0  0  0  0  0  0  0
    4.0057    1.9788    0.0000 H   0  0  0  0  0  0  0  0  0  0  0  0
    3.0790    2.5138    0.0000 H   0  0  0  0  0  0  0  0  0  0  0  0
    1.4379    1.3213    0.0000 H   0  0  0  0  0  0  0  0  0  0  0  0
    2.3646    0.7863    0.0000 H   0  0  0  0  0  0  0  0  0  0  0  0
    5.4017   -0.5153    0.0000 H   0  0  0  0  0  0  0  0  0  0  0  0
    2.1854   -0.5153    0.0000 H   0  0  0  0  0  0  0  0  0  0  0  0
    3.6143    1.9598    0.0000 H   0  0  0  0  0  0  0  0  0  0  0  0
    5.2223   -0.8257    0.0000 H   0  0  0  0  0  0  0  0  0  0  0  0
    1.6500    4.1638    0.0000 H   0  0  0  0  0  0  0  0  0  0  0  0
    0.7234    2.5588    0.0000 H   0  0  0  0  0  0  0  0  0  0  0  0
    0.7233    3.6288    0.0000 H   0  0  0  0  0  0  0  0  0  0  0  0
    4.0057    2.5587    0.0000 H   0  0  0  0  0  0  0  0  0  0  0  0
    3.0792    4.1638    0.0000 H   0  0  0  0  0  0  0  0  0  0  0  0
    4.0058    3.6287    0.0000 H   0  0  0  0  0  0  0  0  0  0  0  0
    5.4017   -2.3723    0.0000 H   0  0  0  0  0  0  0  0  0  0  0  0
    2.1854   -2.3723    0.0000 H   0  0  0  0  0  0  0  0  0  0  0  0
    5.2223    2.8883    0.0000 H   0  0  0  0  0  0  0  0  0  0  0  0
    6.8307    0.1028    0.0000 H   0  0  0  0  0  0  0  0  0  0  0  0
    6.8307    1.9598    0.0000 H   0  0  0  0  0  0  0  0  0  0  0  0
  1 19  1  0  0  0  0
  2  4  1  0  0  0  0
  2  7  1  0  0  0  0
  3  8  1  0  0  0  0
  3 13  1  0  0  0  0
  3 14  1  0  0  0  0
  4  5  1  0  0  0  0
  4  6  1  0  0  0  0
  4 21  1  0  0  0  0
  5  9  2  0  0  0  0
  5 10  1  0  0  0  0
  6 11  2  0  0  0  0
  6 12  1  0  0  0  0
  7  8  1  0  0  0  0
  7 22  1  0  0  0  0
  7 23  1  0  0  0  0
  8 24  1  0  0  0  0
  8 25  1  0  0  0  0
  9 15  1  0  0  0  0
  9 26  1  0  0  0  0
 10 16  2  0  0  0  0
 10 27  1  0  0  0  0
 11 17  1  0  0  0  0
 11 28  1  0  0  0  0
 12 18  2  0  0  0  0
 12 29  1  0  0  0  0
 13 30  1  0  0  0  0
 13 31  1  0  0  0  0
 13 32  1  0  0  0  0
 14 33  1  0  0  0  0
 14 34  1  0  0  0  0
 14 35  1  0  0  0  0
 15 19  2  0  0  0  0
 15 36  1  0  0  0  0
 16 19  1  0  0  0  0
 16 37  1  0  0  0  0
 17 20  2  0  0  0  0
 17 38  1  0  0  0  0
 18 20  1  0  0  0  0
 18 39  1  0  0  0  0
 20 40  1  0  0  0  0
M  END
>  <DRUGBANK_ID>
DB01237

>  <SECONDARY_ACCESSION_NUMBERS>
APRD00710

>  <COMMON_NAME>
Bromodiphenhydramine

>  <CAS_NUMBER>
118-23-0

>  <UNII>
T032BI7727

>  <SYNONYMS>
2-(p-bromo-α-phenylbenzyloxy)-N,N-dimethylethylamine; Bromazina; Bromazine; Bromazinum; β-(p-bromobenzhydryloxy)ethyldimethylamine; β-dimethylaminoethyl p-bromobenzhydryl ether

$$$$
