SEH
 OpenBabel10282417072D

 30 30  0  0  0  0  0  0  0  0999 V2000
   -0.2171   -0.1012    0.0000 C   0  0  0  0  0  0  0  0  0  0  0  0
    0.4974    0.3113    0.0000 S   0  0  0  0  0  0  0  0  0  0  0  0
   -0.9315    0.3113    0.0000 C   0  0  0  0  0  0  0  0  0  0  0  0
    1.2119   -0.9262    0.0000 C   0  0  0  0  0  0  0  0  0  0  0  0
    0.4974   -1.3387    0.0000 C   0  0  0  0  0  0  0  0  0  0  0  0
    0.4974   -2.1637    0.0000 C   0  0  0  0  0  0  0  0  0  0  0  0
   -0.2171   -0.9262    0.0000 C   0  0  0  0  0  0  0  0  0  0  0  0
   -0.2171   -2.5762    0.0000 C   0  0  0  0  0  0  0  0  0  0  0  0
   -0.9315   -1.3387    0.0000 C   0  0  0  0  0  0  0  0  0  0  0  0
   -0.9315   -2.1637    0.0000 C   0  0  0  0  0  0  0  0  0  0  0  0
    1.2119   -0.1012    0.0000 C   0  0  0  0  0  0  0  0  0  0  0  0
    1.9264    0.3113    0.0000 N   0  0  0  0  0  0  0  0  0  0  0  0
    1.9264    1.1363    0.0000 O   0  0  0  0  0  0  0  0  0  0  0  0
    1.2119    1.5488    0.0000 S   0  0  0  0  0  0  0  0  0  0  0  0
    0.4974    1.9613    0.0000 O   0  0  0  0  0  0  0  0  0  0  0  0
    1.6244    2.2633    0.0000 O   0  0  0  0  0  0  0  0  0  0  0  0
    0.7994    0.8344    0.0000 O   0  0  0  0  0  0  0  0  0  0  0  0
   -0.2171   -1.1712    0.0000 H   0  0  0  0  0  0  0  0  0  0  0  0
   -1.1438   -0.6362    0.0000 H   0  0  0  0  0  0  0  0  0  0  0  0
   -0.9315    1.3813    0.0000 H   0  0  0  0  0  0  0  0  0  0  0  0
   -1.8582   -0.2237    0.0000 H   0  0  0  0  0  0  0  0  0  0  0  0
   -1.8581    0.8463    0.0000 H   0  0  0  0  0  0  0  0  0  0  0  0
    2.1385   -1.4612    0.0000 H   0  0  0  0  0  0  0  0  0  0  0  0
    2.1385   -0.3912    0.0000 H   0  0  0  0  0  0  0  0  0  0  0  0
    1.3911   -2.6797    0.0000 H   0  0  0  0  0  0  0  0  0  0  0  0
   -0.2171    0.1058    0.0000 H   0  0  0  0  0  0  0  0  0  0  0  0
   -0.2171   -3.6082    0.0000 H   0  0  0  0  0  0  0  0  0  0  0  0
   -1.8252   -0.8227    0.0000 H   0  0  0  0  0  0  0  0  0  0  0  0
   -1.8252   -2.6797    0.0000 H   0  0  0  0  0  0  0  0  0  0  0  0
   -0.1706    0.8344    0.0000 H   0  0  0  0  0  0  0  0  0  0  0  0
  1  2  1  0  0  0  0
  1  3  1  0  0  0  0
  1 18  1  0  0  0  0
  1 19  1  0  0  0  0
  2 11  1  0  0  0  0
  3 20  1  0  0  0  0
  3 21  1  0  0  0  0
  3 22  1  0  0  0  0
  4  5  1  0  0  0  0
  4 11  1  0  0  0  0
  4 23  1  0  0  0  0
  4 24  1  0  0  0  0
  5  6  2  0  0  0  0
  5  7  1  0  0  0  0
  6  8  1  0  0  0  0
  6 25  1  0  0  0  0
  7  9  2  0  0  0  0
  7 26  1  0  0  0  0
  8 10  2  0  0  0  0
  8 27  1  0  0  0  0
  9 10  1  0  0  0  0
  9 28  1  0  0  0  0
 10 29  1  0  0  0  0
 11 12  2  0  0  0  0
 12 13  1  0  0  0  0
 13 14  1  0  0  0  0
 14 15  2  0  0  0  0
 14 16  2  0  0  0  0
 14 17  1  0  0  0  0
 17 30  1  0  0  0  0
M  END
>  <DRUGBANK_ID>
DB04779

>  <COMMON_NAME>
ETHYL (1E)-2-PHENYL-N-(SULFOOXY)ETHANIMIDOTHIOATE

$$$$
