
 OpenBabel10282417072D

 59 62  0  0  0  0  0  0  0  0999 V2000
    2.7512   -6.6616    0.0000 C   0  0  0  0  0  0  0  0  0  0  0  0
    2.7512   -7.4866    0.0000 N   0  0  0  0  0  0  0  0  0  0  0  0
    3.4186   -7.9715    0.0000 C   0  0  0  0  0  0  0  0  0  0  0  0
    3.1637   -8.7562    0.0000 C   0  0  0  0  0  0  0  0  0  0  0  0
    3.6486   -9.4236    0.0000 C   0  0  0  0  0  0  0  0  0  0  0  0
    3.3130  -10.1773    0.0000 N   0  0  0  0  0  0  0  0  0  0  0  0
    3.7980  -10.8447    0.0000 C   0  0  0  0  0  0  0  0  0  0  0  0
    3.4624  -11.5984    0.0000 C   0  0  0  0  0  0  0  0  0  0  0  0
    2.6419  -11.6846    0.0000 C   0  0  0  0  0  0  0  0  0  0  0  0
    2.1570  -11.0172    0.0000 C   0  0  0  0  0  0  0  0  0  0  0  0
    2.4926  -10.2635    0.0000 C   0  0  0  0  0  0  0  0  0  0  0  0
    2.3064  -12.4383    0.0000 C   0  0  0  0  0  0  0  0  0  0  0  0
    2.7913  -13.1057    0.0000 C   0  0  0  0  0  0  0  0  0  0  0  0
    2.4557  -13.8594    0.0000 C   0  0  0  0  0  0  0  0  0  0  0  0
    1.6353  -13.9456    0.0000 C   0  0  0  0  0  0  0  0  0  0  0  0
    1.1503  -13.2782    0.0000 C   0  0  0  0  0  0  0  0  0  0  0  0
    1.4859  -12.5245    0.0000 C   0  0  0  0  0  0  0  0  0  0  0  0
    1.2997  -14.6993    0.0000 C   0  0  0  0  0  0  0  0  0  0  0  0
    0.4792  -14.7856    0.0000 O   0  0  0  0  0  0  0  0  0  0  0  0
    1.7846  -15.3668    0.0000 N   0  0  0  0  0  0  0  0  0  0  0  0
    1.4491  -16.1204    0.0000 C   0  0  0  0  0  0  0  0  0  0  0  0
    1.9340  -16.7879    0.0000 C   0  0  0  0  0  0  0  0  0  0  0  0
    1.5984  -17.5415    0.0000 C   0  0  0  0  0  0  0  0  0  0  0  0
    0.7779  -17.6278    0.0000 C   0  0  0  0  0  0  0  0  0  0  0  0
    0.2930  -16.9603    0.0000 C   0  0  0  0  0  0  0  0  0  0  0  0
    0.6286  -16.2067    0.0000 C   0  0  0  0  0  0  0  0  0  0  0  0
    0.1437  -15.5392    0.0000 N   0  0  0  0  0  0  0  0  0  0  0  0
    2.3387   -8.7562    0.0000 C   0  0  0  0  0  0  0  0  0  0  0  0
    1.8538   -9.4236    0.0000 C   0  0  0  0  0  0  0  0  0  0  0  0
    2.0837   -7.9715    0.0000 N   0  0  0  0  0  0  0  0  0  0  0  0
    3.6778   -6.1266    0.0000 H   0  0  0  0  0  0  0  0  0  0  0  0
    1.8246   -6.1266    0.0000 H   0  0  0  0  0  0  0  0  0  0  0  0
    2.7512   -5.5916    0.0000 H   0  0  0  0  0  0  0  0  0  0  0  0
    4.4001   -7.6526    0.0000 H   0  0  0  0  0  0  0  0  0  0  0  0
    4.7127   -9.3118    0.0000 H   0  0  0  0  0  0  0  0  0  0  0  0
    4.2775  -10.2893    0.0000 H   0  0  0  0  0  0  0  0  0  0  0  0
    4.8621  -10.7328    0.0000 H   0  0  0  0  0  0  0  0  0  0  0  0
    4.4269  -11.7103    0.0000 H   0  0  0  0  0  0  0  0  0  0  0  0
    4.0913  -12.4641    0.0000 H   0  0  0  0  0  0  0  0  0  0  0  0
    3.0271  -12.5759    0.0000 H   0  0  0  0  0  0  0  0  0  0  0  0
    1.5778  -11.7965    0.0000 H   0  0  0  0  0  0  0  0  0  0  0  0
    1.0929  -11.1290    0.0000 H   0  0  0  0  0  0  0  0  0  0  0  0
    1.5281  -10.1515    0.0000 H   0  0  0  0  0  0  0  0  0  0  0  0
    1.8637   -9.3978    0.0000 H   0  0  0  0  0  0  0  0  0  0  0  0
    2.9278   -9.2860    0.0000 H   0  0  0  0  0  0  0  0  0  0  0  0
    3.8176  -12.9978    0.0000 H   0  0  0  0  0  0  0  0  0  0  0  0
    3.0623  -14.6943    0.0000 H   0  0  0  0  0  0  0  0  0  0  0  0
    0.1240  -13.3861    0.0000 H   0  0  0  0  0  0  0  0  0  0  0  0
    0.8793  -11.6896    0.0000 H   0  0  0  0  0  0  0  0  0  0  0  0
    2.7637  -15.2639    0.0000 H   0  0  0  0  0  0  0  0  0  0  0  0
    2.9604  -16.6801    0.0000 H   0  0  0  0  0  0  0  0  0  0  0  0
    2.2050  -18.3764    0.0000 H   0  0  0  0  0  0  0  0  0  0  0  0
    0.3582  -18.5706    0.0000 H   0  0  0  0  0  0  0  0  0  0  0  0
   -0.7334  -17.0681    0.0000 H   0  0  0  0  0  0  0  0  0  0  0  0
    0.5442  -14.6398    0.0000 H   0  0  0  0  0  0  0  0  0  0  0  0
   -0.8354  -15.6420    0.0000 H   0  0  0  0  0  0  0  0  0  0  0  0
    0.7897   -9.3117    0.0000 H   0  0  0  0  0  0  0  0  0  0  0  0
    2.2890  -10.4011    0.0000 H   0  0  0  0  0  0  0  0  0  0  0  0
    1.2249  -10.2892    0.0000 H   0  0  0  0  0  0  0  0  0  0  0  0
  1  2  1  0  0  0  0
  1 31  1  0  0  0  0
  1 32  1  0  0  0  0
  1 33  1  0  0  0  0
  2  3  1  0  0  0  0
  2 30  1  0  0  0  0
  3  4  2  0  0  0  0
  3 34  1  0  0  0  0
  4  5  1  0  0  0  0
  4 28  1  0  0  0  0
  5  6  1  0  0  0  0
  5 35  1  0  0  0  0
  5 36  1  0  0  0  0
  6  7  1  0  0  0  0
  6 11  1  0  0  0  0
  7  8  1  0  0  0  0
  7 37  1  0  0  0  0
  7 38  1  0  0  0  0
  8  9  1  0  0  0  0
  8 39  1  0  0  0  0
  8 40  1  0  0  0  0
  9 10  1  0  0  0  0
  9 12  1  0  0  0  0
  9 41  1  0  0  0  0
 10 11  1  0  0  0  0
 10 42  1  0  0  0  0
 10 43  1  0  0  0  0
 11 44  1  0  0  0  0
 11 45  1  0  0  0  0
 12 13  2  0  0  0  0
 12 17  1  0  0  0  0
 13 14  1  0  0  0  0
 13 46  1  0  0  0  0
 14 15  2  0  0  0  0
 14 47  1  0  0  0  0
 15 16  1  0  0  0  0
 15 18  1  0  0  0  0
 16 17  2  0  0  0  0
 16 48  1  0  0  0  0
 17 49  1  0  0  0  0
 18 19  2  0  0  0  0
 18 20  1  0  0  0  0
 20 21  1  0  0  0  0
 20 50  1  0  0  0  0
 21 22  2  0  0  0  0
 21 26  1  0  0  0  0
 22 23  1  0  0  0  0
 22 51  1  0  0  0  0
 23 24  2  0  0  0  0
 23 52  1  0  0  0  0
 24 25  1  0  0  0  0
 24 53  1  0  0  0  0
 25 26  2  0  0  0  0
 25 54  1  0  0  0  0
 26 27  1  0  0  0  0
 27 55  1  0  0  0  0
 27 56  1  0  0  0  0
 28 29  1  0  0  0  0
 28 30  2  0  0  0  0
 29 57  1  0  0  0  0
 29 58  1  0  0  0  0
 29 59  1  0  0  0  0
M  END
>  <DRUGBANK_ID>
DB16182

>  <COMMON_NAME>
CXD101

>  <CAS_NUMBER>
934828-12-3

>  <UNII>
5TNV87ICD2

>  <SYNONYMS>
Hdac inhibitor cxd101; Hdac-in-4

$$$$
