
 OpenBabel10282417072D

 78 85  0  0  0  0  0  0  0  0999 V2000
   -4.2473   -0.5861    0.0000 C   0  0  3  0  0  0  0  0  0  0  0  0
   -4.2510   -1.3076    0.0000 C   0  0  0  0  0  0  0  0  0  0  0  0
   -4.8793   -1.6641    0.0000 C   0  0  0  0  0  0  0  0  0  0  0  0
   -4.8834   -2.3850    0.0000 N   0  0  0  0  0  0  0  0  0  0  0  0
   -4.2600   -2.7498    0.0000 C   0  0  0  0  0  0  0  0  0  0  0  0
   -3.6311   -2.3884    0.0000 C   0  0  0  0  0  0  0  0  0  0  0  0
   -3.6301   -1.6686    0.0000 N   0  0  0  0  0  0  0  0  0  0  0  0
   -3.6095    0.5928    0.0000 N   0  0  0  0  0  0  0  0  0  0  0  0
   -4.4228    0.7403    0.0000 C   0  0  0  0  0  0  0  0  0  0  0  0
   -4.8150    0.0126    0.0000 C   0  0  0  0  0  0  0  0  0  0  0  0
   -3.5011   -0.2258    0.0000 C   0  0  0  0  0  0  0  0  0  0  0  0
    4.8834    2.3305    0.0000 C   0  0  0  0  0  0  0  0  0  0  0  0
    4.5717    3.0960    0.0000 C   0  0  0  0  0  0  0  0  0  0  0  0
    3.7470    3.0365    0.0000 C   0  0  0  0  0  0  0  0  0  0  0  0
    3.5477    2.2343    0.0000 C   0  0  2  0  0  0  0  0  0  0  0  0
    4.2506    1.7998    0.0000 N   0  0  0  0  0  0  0  0  0  0  0  0
   -2.8934    1.8349    0.0000 C   0  0  0  0  0  0  0  0  0  0  0  0
   -2.8942    1.0067    0.0000 C   0  0  0  0  0  0  0  0  0  0  0  0
   -2.1813    2.2469    0.0000 C   0  0  0  0  0  0  0  0  0  0  0  0
   -1.4637    1.8375    0.0000 C   0  0  0  0  0  0  0  0  0  0  0  0
   -0.0344    1.0057    0.0000 C   0  0  0  0  0  0  0  0  0  0  0  0
   -0.0323    1.8339    0.0000 C   0  0  0  0  0  0  0  0  0  0  0  0
   -0.7492    2.2522    0.0000 C   0  0  0  0  0  0  0  0  0  0  0  0
   -1.4657    1.0091    0.0000 C   0  0  0  0  0  0  0  0  0  0  0  0
   -2.1796    0.5970    0.0000 C   0  0  0  0  0  0  0  0  0  0  0  0
   -2.1795   -0.2228    0.0000 O   0  0  0  0  0  0  0  0  0  0  0  0
   -0.7518    0.6016    0.0000 N   0  0  0  0  0  0  0  0  0  0  0  0
   -0.7534   -0.2243    0.0000 C   0  0  0  0  0  0  0  0  0  0  0  0
   -1.4660   -0.6330    0.0000 C   0  0  0  0  0  0  0  0  0  0  0  0
   -1.4674   -1.4526    0.0000 C   0  0  0  0  0  0  0  0  0  0  0  0
   -0.0457   -0.6325    0.0000 C   0  0  0  0  0  0  0  0  0  0  0  0
   -0.0436   -1.4508    0.0000 C   0  0  0  0  0  0  0  0  0  0  0  0
   -0.7580   -1.8613    0.0000 C   0  0  0  0  0  0  0  0  0  0  0  0
   -0.7588   -2.6834    0.0000 C   0  0  0  0  0  0  0  0  0  0  0  0
   -0.0458   -3.0960    0.0000 C   0  0  0  0  0  0  0  0  0  0  0  0
    0.6693   -2.6805    0.0000 C   0  0  0  0  0  0  0  0  0  0  0  0
    0.6665   -1.8597    0.0000 C   0  0  0  0  0  0  0  0  0  0  0  0
   -3.6091    2.2483    0.0000 F   0  0  0  0  0  0  0  0  0  0  0  0
   -0.7484    3.0787    0.0000 O   0  0  0  0  0  0  0  0  0  0  0  0
    0.6848    2.2447    0.0000 C   0  0  0  0  0  0  0  0  0  0  0  0
    1.3991    1.8290    0.0000 N   0  0  0  0  0  0  0  0  0  0  0  0
    0.6877    3.0713    0.0000 O   0  0  0  0  0  0  0  0  0  0  0  0
    2.1164    2.2398    0.0000 C   0  0  0  0  0  0  0  0  0  0  0  0
    2.8308    1.8241    0.0000 C   0  0  0  0  0  0  0  0  0  0  0  0
    4.2453    0.9734    0.0000 C   0  0  0  0  0  0  0  0  0  0  0  0
   -3.3425   -1.1572    0.0000 H   0  0  0  0  0  0  0  0  0  0  0  0
   -5.7696   -1.1422    0.0000 H   0  0  0  0  0  0  0  0  0  0  0  0
   -4.2641   -3.7818    0.0000 H   0  0  0  0  0  0  0  0  0  0  0  0
   -2.7382   -2.9059    0.0000 H   0  0  0  0  0  0  0  0  0  0  0  0
   -4.8868    1.7045    0.0000 H   0  0  0  0  0  0  0  0  0  0  0  0
   -5.4925    0.7648    0.0000 H   0  0  0  0  0  0  0  0  0  0  0  0
   -5.8757   -0.1285    0.0000 H   0  0  0  0  0  0  0  0  0  0  0  0
   -5.1717   -0.9962    0.0000 H   0  0  0  0  0  0  0  0  0  0  0  0
   -2.5594   -0.7338    0.0000 H   0  0  0  0  0  0  0  0  0  0  0  0
   -2.6204    0.3818    0.0000 H   0  0  0  0  0  0  0  0  0  0  0  0
    5.9219    2.0729    0.0000 H   0  0  0  0  0  0  0  0  0  0  0  0
    5.1246    1.2880    0.0000 H   0  0  0  0  0  0  0  0  0  0  0  0
    5.1365    4.0048    0.0000 H   0  0  0  0  0  0  0  0  0  0  0  0
    4.0185    4.0119    0.0000 H   0  0  0  0  0  0  0  0  0  0  0  0
    3.0580    3.8551    0.0000 H   0  0  0  0  0  0  0  0  0  0  0  0
    2.7047    2.7946    0.0000 H   0  0  0  0  0  0  0  0  0  0  0  0
    2.6941    2.8795    0.0000 H   0  0  0  0  0  0  0  0  0  0  0  0
   -2.1844    3.2789    0.0000 H   0  0  0  0  0  0  0  0  0  0  0  0
    0.8559    0.4838    0.0000 H   0  0  0  0  0  0  0  0  0  0  0  0
   -2.3613   -1.9682    0.0000 H   0  0  0  0  0  0  0  0  0  0  0  0
    0.8473   -0.1152    0.0000 H   0  0  0  0  0  0  0  0  0  0  0  0
   -1.6530   -3.1985    0.0000 H   0  0  0  0  0  0  0  0  0  0  0  0
   -0.0449   -4.1280    0.0000 H   0  0  0  0  0  0  0  0  0  0  0  0
    1.5646   -3.1937    0.0000 H   0  0  0  0  0  0  0  0  0  0  0  0
    1.5591   -1.3417    0.0000 H   0  0  0  0  0  0  0  0  0  0  0  0
    1.3957    0.8445    0.0000 H   0  0  0  0  0  0  0  0  0  0  0  0
    2.1201    3.3098    0.0000 H   0  0  0  0  0  0  0  0  0  0  0  0
    3.0449    2.7716    0.0000 H   0  0  0  0  0  0  0  0  0  0  0  0
    2.8269    0.7541    0.0000 H   0  0  0  0  0  0  0  0  0  0  0  0
    3.7554    1.2856    0.0000 H   0  0  0  0  0  0  0  0  0  0  0  0
    3.3152    0.4444    0.0000 H   0  0  0  0  0  0  0  0  0  0  0  0
    5.1685    0.4325    0.0000 H   0  0  0  0  0  0  0  0  0  0  0  0
    4.2384   -0.0966    0.0000 H   0  0  0  0  0  0  0  0  0  0  0  0
  1 11  1  0  0  0  0
  1  2  1  0  0  0  0
  1 46  1  0  0  0  0
  2  3  2  0  0  0  0
  3  4  1  0  0  0  0
  3 47  1  0  0  0  0
  4  5  2  0  0  0  0
  5  6  1  0  0  0  0
  5 48  1  0  0  0  0
  6  7  2  0  0  0  0
  6 49  1  0  0  0  0
  7  2  1  0  0  0  0
  8  9  1  0  0  0  0
  9 10  1  0  0  0  0
  9 50  1  0  0  0  0
  9 51  1  0  0  0  0
 10  1  1  0  0  0  0
 10 52  1  0  0  0  0
 10 53  1  0  0  0  0
 11  8  1  0  0  0  0
 11 54  1  0  0  0  0
 11 55  1  0  0  0  0
 12 13  1  0  0  0  0
 12 56  1  0  0  0  0
 12 57  1  0  0  0  0
 13 14  1  0  0  0  0
 13 58  1  0  0  0  0
 13 59  1  0  0  0  0
 14 15  1  0  0  0  0
 14 60  1  0  0  0  0
 14 61  1  0  0  0  0
 15 16  1  0  0  0  0
 15 44  1  0  0  0  0
 15 62  1  1  0  0  0
 16 12  1  0  0  0  0
 16 45  1  0  0  0  0
 17 18  2  0  0  0  0
 17 38  1  0  0  0  0
 18 25  1  0  0  0  0
 18  8  1  0  0  0  0
 19 17  1  0  0  0  0
 19 63  1  0  0  0  0
 20 23  1  0  0  0  0
 20 19  2  0  0  0  0
 20 24  1  0  0  0  0
 21 22  2  0  0  0  0
 21 64  1  0  0  0  0
 22 23  1  0  0  0  0
 22 40  1  0  0  0  0
 23 39  2  0  0  0  0
 24 25  2  0  0  0  0
 24 27  1  0  0  0  0
 25 26  1  0  0  0  0
 26 29  1  0  0  0  0
 27 21  1  0  0  0  0
 28 27  1  0  0  0  0
 28 29  2  0  0  0  0
 29 30  1  0  0  0  0
 30 33  2  0  0  0  0
 30 65  1  0  0  0  0
 31 28  1  0  0  0  0
 31 66  1  0  0  0  0
 32 31  2  0  0  0  0
 32 33  1  0  0  0  0
 33 34  1  0  0  0  0
 34 35  2  0  0  0  0
 34 67  1  0  0  0  0
 35 36  1  0  0  0  0
 35 68  1  0  0  0  0
 36 37  2  0  0  0  0
 36 69  1  0  0  0  0
 37 32  1  0  0  0  0
 37 70  1  0  0  0  0
 40 41  1  0  0  0  0
 40 42  2  0  0  0  0
 41 43  1  0  0  0  0
 41 71  1  0  0  0  0
 43 44  1  0  0  0  0
 43 72  1  0  0  0  0
 43 73  1  0  0  0  0
 44 74  1  0  0  0  0
 44 75  1  0  0  0  0
 45 76  1  0  0  0  0
 45 77  1  0  0  0  0
 45 78  1  0  0  0  0
M  END
>  <DRUGBANK_ID>
DB06638

>  <COMMON_NAME>
Quarfloxin

>  <CAS_NUMBER>
865311-47-3

>  <UNII>
8M31J5031Q

>  <SYNONYMS>
Itarnafloxin; Itarnafloxina; Itarnafloxine; Itarnafloxinum; Quarfloxin

$$$$
