
 OpenBabel10282417072D

 83 87  0  0  0  0  0  0  0  0999 V2000
   -3.7125   -0.3572    0.0000 O   0  0  0  0  0  0  0  0  0  0  0  0
   -2.8875   -0.3572    0.0000 C   0  0  1  0  0  0  0  0  0  0  0  0
   -2.4750   -1.0716    0.0000 C   0  0  2  0  0  0  0  0  0  0  0  0
   -2.8875   -1.7861    0.0000 O   0  0  0  0  0  0  0  0  0  0  0  0
   -1.6500   -1.0716    0.0000 C   0  0  0  0  0  0  0  0  0  0  0  0
   -1.2375   -0.3572    0.0000 C   0  0  2  0  0  0  0  0  0  0  0  0
   -0.8250   -1.0716    0.0000 C   0  0  0  0  0  0  0  0  0  0  0  0
   -0.4125   -0.3572    0.0000 C   0  0  1  0  0  0  0  0  0  0  0  0
    0.0000   -1.0716    0.0000 C   0  0  0  0  0  0  0  0  0  0  0  0
    0.8249   -1.0716    0.0000 C   0  0  0  0  0  0  0  0  0  0  0  0
    1.2374   -0.3572    0.0000 C   0  0  0  0  0  0  0  0  0  0  0  0
    2.0624   -0.3572    0.0000 C   0  0  2  0  0  0  0  0  0  0  0  0
    2.4749   -1.0716    0.0000 C   0  0  1  0  0  0  0  0  0  0  0  0
    2.0624   -1.7861    0.0000 C   0  0  0  0  0  0  0  0  0  0  0  0
    3.3000   -1.0716    0.0000 C   0  0  2  0  0  0  0  0  0  0  0  0
    3.7125   -1.7861    0.0000 C   0  0  0  0  0  0  0  0  0  0  0  0
    3.7125   -0.3572    0.0000 C   0  0  0  0  0  0  0  0  0  0  0  0
    3.3000    0.3572    0.0000 C   0  0  0  0  0  0  0  0  0  0  0  0
    2.4749    0.3572    0.0000 C   0  0  1  0  0  0  0  0  0  0  0  0
    2.8874    1.0717    0.0000 C   0  0  0  0  0  0  0  0  0  0  0  0
    2.4749    1.7861    0.0000 O   0  0  0  0  0  0  0  0  0  0  0  0
    3.7125    1.0717    0.0000 O   0  0  0  0  0  0  0  0  0  0  0  0
    2.0624    1.0717    0.0000 C   0  0  0  0  0  0  0  0  0  0  0  0
    1.2374    1.0717    0.0000 C   0  0  0  0  0  0  0  0  0  0  0  0
    0.8249    0.3572    0.0000 C   0  0  2  0  0  0  0  0  0  0  0  0
    0.4124    1.0717    0.0000 C   0  0  0  0  0  0  0  0  0  0  0  0
    0.0000    0.3572    0.0000 C   0  0  1  0  0  0  0  0  0  0  0  0
   -0.0862    1.1777    0.0000 C   0  0  0  0  0  0  0  0  0  0  0  0
   -0.4125    1.0717    0.0000 C   0  0  0  0  0  0  0  0  0  0  0  0
   -1.2375    1.0717    0.0000 C   0  0  0  0  0  0  0  0  0  0  0  0
   -1.6500    0.3572    0.0000 C   0  0  1  0  0  0  0  0  0  0  0  0
   -2.4750    0.3572    0.0000 C   0  0  1  0  0  0  0  0  0  0  0  0
   -2.3317    1.1697    0.0000 C   0  0  0  0  0  0  0  0  0  0  0  0
   -3.2502    0.6394    0.0000 C   0  0  0  0  0  0  0  0  0  0  0  0
   -3.3935    1.4518    0.0000 O   0  0  0  0  0  0  0  0  0  0  0  0
   -2.1500    1.2232    0.0000 H   0  0  0  0  0  0  0  0  0  0  0  0
    1.5624   -1.2232    0.0000 H   0  0  0  0  0  0  0  0  0  0  0  0
   -0.9125   -1.2232    0.0000 H   0  0  0  0  0  0  0  0  0  0  0  0
   -4.1975    0.4828    0.0000 H   0  0  0  0  0  0  0  0  0  0  0  0
   -3.4225    0.5695    0.0000 H   0  0  0  0  0  0  0  0  0  0  0  0
   -1.9400   -1.9982    0.0000 H   0  0  0  0  0  0  0  0  0  0  0  0
   -3.8575   -1.7861    0.0000 H   0  0  0  0  0  0  0  0  0  0  0  0
   -1.1150   -1.9983    0.0000 H   0  0  0  0  0  0  0  0  0  0  0  0
   -2.1850   -1.9982    0.0000 H   0  0  0  0  0  0  0  0  0  0  0  0
   -1.3600   -1.9983    0.0000 H   0  0  0  0  0  0  0  0  0  0  0  0
    0.2450   -1.0716    0.0000 H   0  0  0  0  0  0  0  0  0  0  0  0
   -0.2900   -1.9982    0.0000 H   0  0  0  0  0  0  0  0  0  0  0  0
   -0.5350   -1.9983    0.0000 H   0  0  0  0  0  0  0  0  0  0  0  0
   -1.0700   -1.0716    0.0000 H   0  0  0  0  0  0  0  0  0  0  0  0
    1.3409   -1.9653    0.0000 H   0  0  0  0  0  0  0  0  0  0  0  0
    1.4049   -1.0716    0.0000 H   0  0  0  0  0  0  0  0  0  0  0  0
    0.9924   -1.7861    0.0000 H   0  0  0  0  0  0  0  0  0  0  0  0
    2.5974   -2.7127    0.0000 H   0  0  0  0  0  0  0  0  0  0  0  0
    1.5274   -2.7128    0.0000 H   0  0  0  0  0  0  0  0  0  0  0  0
    4.3700   -1.0716    0.0000 H   0  0  0  0  0  0  0  0  0  0  0  0
    3.1775   -2.7127    0.0000 H   0  0  0  0  0  0  0  0  0  0  0  0
    4.7825   -1.7861    0.0000 H   0  0  0  0  0  0  0  0  0  0  0  0
    4.2475   -2.7128    0.0000 H   0  0  0  0  0  0  0  0  0  0  0  0
    4.7825   -0.3572    0.0000 H   0  0  0  0  0  0  0  0  0  0  0  0
    4.2475   -1.2839    0.0000 H   0  0  0  0  0  0  0  0  0  0  0  0
    3.8350    1.2839    0.0000 H   0  0  0  0  0  0  0  0  0  0  0  0
    4.3700    0.3572    0.0000 H   0  0  0  0  0  0  0  0  0  0  0  0
    2.9434    2.5976    0.0000 H   0  0  0  0  0  0  0  0  0  0  0  0
    2.5974    1.9983    0.0000 H   0  0  0  0  0  0  0  0  0  0  0  0
    1.5274    1.9983    0.0000 H   0  0  0  0  0  0  0  0  0  0  0  0
    0.7024    1.9983    0.0000 H   0  0  0  0  0  0  0  0  0  0  0  0
    0.1674    1.0717    0.0000 H   0  0  0  0  0  0  0  0  0  0  0  0
    0.9474    1.9983    0.0000 H   0  0  0  0  0  0  0  0  0  0  0  0
   -0.6576    1.0717    0.0000 H   0  0  0  0  0  0  0  0  0  0  0  0
   -0.1226    1.9984    0.0000 H   0  0  0  0  0  0  0  0  0  0  0  0
    0.7795    1.8066    0.0000 H   0  0  0  0  0  0  0  0  0  0  0  0
   -1.0637    1.6130    0.0000 H   0  0  0  0  0  0  0  0  0  0  0  0
   -0.1980    2.2418    0.0000 H   0  0  0  0  0  0  0  0  0  0  0  0
    0.1225    1.9983    0.0000 H   0  0  0  0  0  0  0  0  0  0  0  0
    0.6575    1.0717    0.0000 H   0  0  0  0  0  0  0  0  0  0  0  0
   -1.7725    1.9983    0.0000 H   0  0  0  0  0  0  0  0  0  0  0  0
   -2.3075    1.0717    0.0000 H   0  0  0  0  0  0  0  0  0  0  0  0
   -1.3262    1.5356    0.0000 H   0  0  0  0  0  0  0  0  0  0  0  0
   -3.1513    1.8575    0.0000 H   0  0  0  0  0  0  0  0  0  0  0  0
   -2.1459    2.2234    0.0000 H   0  0  0  0  0  0  0  0  0  0  0  0
   -4.0699   -0.0484    0.0000 H   0  0  0  0  0  0  0  0  0  0  0  0
   -4.2557    1.0053    0.0000 H   0  0  0  0  0  0  0  0  0  0  0  0
   -2.6505    2.0754    0.0000 H   0  0  0  0  0  0  0  0  0  0  0  0
  1 39  1  0  0  0  0
  2 32  1  0  0  0  0
  2  1  1  0  0  0  0
  2 40  1  1  0  0  0
  3  2  1  0  0  0  0
  3  4  1  0  0  0  0
  3 41  1  6  0  0  0
  4 42  1  0  0  0  0
  5  6  1  0  0  0  0
  5  3  1  0  0  0  0
  5 43  1  0  0  0  0
  5 44  1  0  0  0  0
  6  7  1  6  0  0  0
  6  8  1  0  0  0  0
  6 31  1  0  0  0  0
  7 45  1  0  0  0  0
  7 46  1  0  0  0  0
  7 47  1  0  0  0  0
  8  9  1  0  0  0  0
  8 38  1  1  0  0  0
  9 10  1  0  0  0  0
  9 48  1  0  0  0  0
  9 49  1  0  0  0  0
 10 11  2  0  0  0  0
 10 50  1  0  0  0  0
 11 25  1  0  0  0  0
 12 11  1  0  0  0  0
 12 13  1  0  0  0  0
 12 37  1  6  0  0  0
 13 14  1  0  0  0  0
 13 15  1  0  0  0  0
 13 51  1  1  0  0  0
 14 52  1  0  0  0  0
 14 53  1  0  0  0  0
 14 54  1  0  0  0  0
 15 17  1  0  0  0  0
 15 16  1  0  0  0  0
 15 55  1  6  0  0  0
 16 56  1  0  0  0  0
 16 57  1  0  0  0  0
 16 58  1  0  0  0  0
 17 18  1  0  0  0  0
 17 59  1  0  0  0  0
 17 60  1  0  0  0  0
 18 61  1  0  0  0  0
 18 62  1  0  0  0  0
 19 20  1  6  0  0  0
 19 18  1  0  0  0  0
 19 12  1  0  0  0  0
 20 22  2  0  0  0  0
 20 21  1  0  0  0  0
 21 63  1  0  0  0  0
 23 19  1  0  0  0  0
 23 64  1  0  0  0  0
 23 65  1  0  0  0  0
 24 23  1  0  0  0  0
 24 66  1  0  0  0  0
 24 67  1  0  0  0  0
 25 27  1  0  0  0  0
 25 24  1  0  0  0  0
 25 26  1  1  0  0  0
 26 68  1  0  0  0  0
 26 69  1  0  0  0  0
 26 70  1  0  0  0  0
 27 28  1  6  0  0  0
 27  8  1  0  0  0  0
 28 71  1  0  0  0  0
 28 72  1  0  0  0  0
 28 73  1  0  0  0  0
 29 27  1  0  0  0  0
 29 74  1  0  0  0  0
 29 75  1  0  0  0  0
 30 29  1  0  0  0  0
 30 76  1  0  0  0  0
 30 77  1  0  0  0  0
 31 30  1  0  0  0  0
 31 36  1  1  0  0  0
 32 33  1  6  0  0  0
 32 31  1  0  0  0  0
 32 34  1  0  0  0  0
 33 78  1  0  0  0  0
 33 79  1  0  0  0  0
 33 80  1  0  0  0  0
 34 35  1  0  0  0  0
 34 81  1  0  0  0  0
 34 82  1  0  0  0  0
 35 83  1  0  0  0  0
M  END
>  <DRUGBANK_ID>
DB14054

>  <COMMON_NAME>
Asiatic acid

>  <CAS_NUMBER>
464-92-6

>  <UNII>
9PA5A687X5

>  <SYNONYMS>
Dammarolic acid

$$$$
