46U
 OpenBabel10282417072D

 58 60  0  0  0  0  0  0  0  0999 V2000
    1.3535    0.4757    0.0000 O   0  0  0  0  0  0  0  0  0  0  0  0
    0.7405    1.0277    0.0000 C   0  0  0  0  0  0  0  0  0  0  0  0
    0.9120    1.8347    0.0000 C   0  0  0  0  0  0  0  0  0  0  0  0
    1.6966    2.0896    0.0000 O   0  0  0  0  0  0  0  0  0  0  0  0
    1.8681    2.8966    0.0000 C   0  0  0  0  0  0  0  0  0  0  0  0
    1.2550    3.4486    0.0000 C   0  0  0  0  0  0  0  0  0  0  0  0
    1.4266    4.2556    0.0000 C   0  0  0  0  0  0  0  0  0  0  0  0
    2.2112    4.5105    0.0000 C   0  0  0  0  0  0  0  0  0  0  0  0
    2.8243    3.9585    0.0000 C   0  0  0  0  0  0  0  0  0  0  0  0
    2.6527    3.1515    0.0000 C   0  0  0  0  0  0  0  0  0  0  0  0
   -0.0442    0.7728    0.0000 N   0  0  0  0  0  0  0  0  0  0  0  0
   -0.2991   -0.0119    0.0000 C   0  0  1  0  0  0  0  0  0  0  0  0
   -1.1241   -0.0119    0.0000 C   0  0  0  0  0  0  0  0  0  0  0  0
   -1.3790    0.7728    0.0000 C   0  0  0  0  0  0  0  0  0  0  0  0
   -0.7116    1.2577    0.0000 C   0  0  0  0  0  0  0  0  0  0  0  0
    0.1858   -0.6793    0.0000 C   0  0  0  0  0  0  0  0  0  0  0  0
    1.0063   -0.5931    0.0000 O   0  0  0  0  0  0  0  0  0  0  0  0
   -0.1497   -1.4330    0.0000 N   0  0  0  0  0  0  0  0  0  0  0  0
    0.3352   -2.1004    0.0000 C   0  0  0  0  0  0  0  0  0  0  0  0
   -0.0004   -2.8541    0.0000 C   0  0  0  0  0  0  0  0  0  0  0  0
    0.4845   -3.5215    0.0000 C   0  0  0  0  0  0  0  0  0  0  0  0
    0.1490   -4.2752    0.0000 C   0  0  0  0  0  0  0  0  0  0  0  0
   -0.6715   -4.3614    0.0000 C   0  0  0  0  0  0  0  0  0  0  0  0
   -1.0071   -5.1151    0.0000 C   0  0  0  0  0  0  0  0  0  0  0  0
   -0.5221   -5.7825    0.0000 N   0  0  0  0  0  0  0  0  0  0  0  0
   -1.8275   -5.2013    0.0000 N   0  0  0  0  0  0  0  0  0  0  0  0
   -1.1564   -3.6940    0.0000 C   0  0  0  0  0  0  0  0  0  0  0  0
   -0.8209   -2.9403    0.0000 C   0  0  0  0  0  0  0  0  0  0  0  0
    0.2776    0.0795    0.0000 H   0  0  0  0  0  0  0  0  0  0  0  0
    0.1168    2.5507    0.0000 H   0  0  0  0  0  0  0  0  0  0  0  0
    1.1345    2.8813    0.0000 H   0  0  0  0  0  0  0  0  0  0  0  0
    2.0906    3.9432    0.0000 H   0  0  0  0  0  0  0  0  0  0  0  0
    0.2374    3.1180    0.0000 H   0  0  0  0  0  0  0  0  0  0  0  0
    0.4599    4.1646    0.0000 H   0  0  0  0  0  0  0  0  0  0  0  0
    0.6315    4.9716    0.0000 H   0  0  0  0  0  0  0  0  0  0  0  0
    1.6491    5.3022    0.0000 H   0  0  0  0  0  0  0  0  0  0  0  0
    2.4337    5.5571    0.0000 H   0  0  0  0  0  0  0  0  0  0  0  0
    3.2288    4.8412    0.0000 H   0  0  0  0  0  0  0  0  0  0  0  0
    3.8419    4.2891    0.0000 H   0  0  0  0  0  0  0  0  0  0  0  0
    3.6194    3.2425    0.0000 H   0  0  0  0  0  0  0  0  0  0  0  0
    3.4478    2.4355    0.0000 H   0  0  0  0  0  0  0  0  0  0  0  0
    3.6704    3.4821    0.0000 H   0  0  0  0  0  0  0  0  0  0  0  0
   -1.7531   -0.8775    0.0000 H   0  0  0  0  0  0  0  0  0  0  0  0
   -2.1809    0.1555    0.0000 H   0  0  0  0  0  0  0  0  0  0  0  0
   -2.3966    1.1035    0.0000 H   0  0  0  0  0  0  0  0  0  0  0  0
   -1.5464    1.8296    0.0000 H   0  0  0  0  0  0  0  0  0  0  0  0
   -0.7116    2.3277    0.0000 H   0  0  0  0  0  0  0  0  0  0  0  0
   -1.6650    1.7435    0.0000 H   0  0  0  0  0  0  0  0  0  0  0  0
   -1.1288   -1.5359    0.0000 H   0  0  0  0  0  0  0  0  0  0  0  0
    1.3993   -1.9886    0.0000 H   0  0  0  0  0  0  0  0  0  0  0  0
    0.9641   -2.9661    0.0000 H   0  0  0  0  0  0  0  0  0  0  0  0
    1.5108   -3.4136    0.0000 H   0  0  0  0  0  0  0  0  0  0  0  0
    0.7556   -5.1101    0.0000 H   0  0  0  0  0  0  0  0  0  0  0  0
   -0.9224   -6.6819    0.0000 H   0  0  0  0  0  0  0  0  0  0  0  0
   -2.4061   -4.4048    0.0000 H   0  0  0  0  0  0  0  0  0  0  0  0
   -2.2280   -6.1007    0.0000 H   0  0  0  0  0  0  0  0  0  0  0  0
   -2.1827   -3.8019    0.0000 H   0  0  0  0  0  0  0  0  0  0  0  0
   -1.4275   -2.1054    0.0000 H   0  0  0  0  0  0  0  0  0  0  0  0
  1  2  2  0  0  0  0
  2  3  1  0  0  0  0
  2 11  1  0  0  0  0
  3  4  1  0  0  0  0
  3 30  1  0  0  0  0
  3 31  1  0  0  0  0
  4  5  1  0  0  0  0
  5  6  1  0  0  0  0
  5 10  1  0  0  0  0
  5 32  1  0  0  0  0
  6  7  1  0  0  0  0
  6 33  1  0  0  0  0
  6 34  1  0  0  0  0
  7  8  1  0  0  0  0
  7 35  1  0  0  0  0
  7 36  1  0  0  0  0
  8  9  1  0  0  0  0
  8 37  1  0  0  0  0
  8 38  1  0  0  0  0
  9 10  1  0  0  0  0
  9 39  1  0  0  0  0
  9 40  1  0  0  0  0
 10 41  1  0  0  0  0
 10 42  1  0  0  0  0
 11 12  1  0  0  0  0
 11 15  1  0  0  0  0
 12 13  1  0  0  0  0
 12 16  1  0  0  0  0
 12 29  1  1  0  0  0
 13 14  1  0  0  0  0
 13 43  1  0  0  0  0
 13 44  1  0  0  0  0
 14 15  1  0  0  0  0
 14 45  1  0  0  0  0
 14 46  1  0  0  0  0
 15 47  1  0  0  0  0
 15 48  1  0  0  0  0
 16 17  2  0  0  0  0
 16 18  1  0  0  0  0
 18 19  1  0  0  0  0
 18 49  1  0  0  0  0
 19 20  1  0  0  0  0
 19 50  1  0  0  0  0
 19 51  1  0  0  0  0
 20 21  2  0  0  0  0
 20 28  1  0  0  0  0
 21 22  1  0  0  0  0
 21 52  1  0  0  0  0
 22 23  2  0  0  0  0
 22 53  1  0  0  0  0
 23 24  1  0  0  0  0
 23 27  1  0  0  0  0
 24 25  2  0  0  0  0
 24 26  1  0  0  0  0
 25 54  1  0  0  0  0
 26 55  1  0  0  0  0
 26 56  1  0  0  0  0
 27 28  2  0  0  0  0
 27 57  1  0  0  0  0
 28 58  1  0  0  0  0
M  END
>  <DRUGBANK_ID>
DB07091

>  <COMMON_NAME>
(S)-N-(4-carbamimidoylbenzyl)-1-(2-(cyclohexyloxy)ethanoyl)pyrrolidine-2-carboxamide

$$$$
