D3G
 OpenBabel10282417072D

 23 24  0  0  0  0  0  0  0  0999 V2000
   -0.6908    1.3027    0.0000 C   0  0  0  0  0  0  0  0  0  0  0  0
   -0.6908    2.1277    0.0000 C   0  0  0  0  0  0  0  0  0  0  0  0
    0.0237    2.5402    0.0000 C   0  0  0  0  0  0  0  0  0  0  0  0
    0.7382    2.1277    0.0000 N   0  0  0  0  0  0  0  0  0  0  0  0
    0.7382    1.3027    0.0000 C   0  0  0  0  0  0  0  0  0  0  0  0
    0.0237    0.8902    0.0000 C   0  0  0  0  0  0  0  0  0  0  0  0
    0.0237    0.0652    0.0000 C   0  0  0  0  0  0  0  0  0  0  0  0
    0.6911   -0.4197    0.0000 C   0  0  0  0  0  0  0  0  0  0  0  0
    0.4362   -1.2043    0.0000 C   0  0  0  0  0  0  0  0  0  0  0  0
   -0.3888   -1.2043    0.0000 C   0  0  0  0  0  0  0  0  0  0  0  0
   -0.6437   -0.4197    0.0000 O   0  0  0  0  0  0  0  0  0  0  0  0
   -0.8737   -1.8718    0.0000 C   0  0  0  0  0  0  0  0  0  0  0  0
   -0.5382   -2.6255    0.0000 N   0  0  0  0  0  0  0  0  0  0  0  0
   -1.5845    0.7867    0.0000 H   0  0  0  0  0  0  0  0  0  0  0  0
   -1.5845    2.6437    0.0000 H   0  0  0  0  0  0  0  0  0  0  0  0
    0.0237    3.5722    0.0000 H   0  0  0  0  0  0  0  0  0  0  0  0
    1.6319    0.7867    0.0000 H   0  0  0  0  0  0  0  0  0  0  0  0
    1.6726   -0.1008    0.0000 H   0  0  0  0  0  0  0  0  0  0  0  0
    1.0428   -2.0392    0.0000 H   0  0  0  0  0  0  0  0  0  0  0  0
   -1.9378   -1.7599    0.0000 H   0  0  0  0  0  0  0  0  0  0  0  0
   -1.5027   -2.7374    0.0000 H   0  0  0  0  0  0  0  0  0  0  0  0
   -1.1378   -3.4507    0.0000 H   0  0  0  0  0  0  0  0  0  0  0  0
    0.4762   -2.7322    0.0000 H   0  0  0  0  0  0  0  0  0  0  0  0
  1  2  1  0  0  0  0
  1  6  2  0  0  0  0
  1 14  1  0  0  0  0
  2  3  2  0  0  0  0
  2 15  1  0  0  0  0
  3  4  1  0  0  0  0
  3 16  1  0  0  0  0
  4  5  2  0  0  0  0
  5  6  1  0  0  0  0
  5 17  1  0  0  0  0
  6  7  1  0  0  0  0
  7  8  2  0  0  0  0
  7 11  1  0  0  0  0
  8  9  1  0  0  0  0
  8 18  1  0  0  0  0
  9 10  2  0  0  0  0
  9 19  1  0  0  0  0
 10 11  1  0  0  0  0
 10 12  1  0  0  0  0
 12 13  1  0  0  0  0
 12 20  1  0  0  0  0
 12 21  1  0  0  0  0
 13 22  1  0  0  0  0
 13 23  1  0  0  0  0
M  END
>  <DRUGBANK_ID>
DB07621

>  <COMMON_NAME>
(5-(PYRIDIN-3-YL)FURAN-2-YL)METHANAMINE

>  <UNII>
7S869EMF45

$$$$
