TRW
 OpenBabel10282417072D

 41 43  0  0  0  0  0  0  0  0999 V2000
   -3.1381   -1.4052    0.0000 N   0  0  0  0  0  0  0  0  0  0  0  0
   -2.5861   -2.0183    0.0000 C   0  0  1  0  0  0  0  0  0  0  0  0
   -1.7791   -1.8467    0.0000 C   0  0  0  0  0  0  0  0  0  0  0  0
   -1.5242   -1.0621    0.0000 C   0  0  0  0  0  0  0  0  0  0  0  0
   -0.7395   -0.8072    0.0000 C   0  0  0  0  0  0  0  0  0  0  0  0
   -0.7395    0.0178    0.0000 C   0  0  0  0  0  0  0  0  0  0  0  0
   -0.0251   -1.2197    0.0000 C   0  0  0  0  0  0  0  0  0  0  0  0
   -2.0091   -0.3947    0.0000 C   0  0  0  0  0  0  0  0  0  0  0  0
   -1.5242    0.2728    0.0000 N   0  0  0  0  0  0  0  0  0  0  0  0
   -0.0251    0.4303    0.0000 C   0  0  0  0  0  0  0  0  0  0  0  0
    0.6894   -0.8072    0.0000 C   0  0  0  0  0  0  0  0  0  0  0  0
    0.6894    0.0178    0.0000 C   0  0  0  0  0  0  0  0  0  0  0  0
    1.4039    0.4303    0.0000 N   0  0  0  0  0  0  0  0  0  0  0  0
   -0.0251    1.2553    0.0000 O   0  0  0  0  0  0  0  0  0  0  0  0
   -2.8410   -2.8029    0.0000 C   0  0  0  0  0  0  0  0  0  0  0  0
   -3.6480   -2.9744    0.0000 O   0  0  0  0  0  0  0  0  0  0  0  0
    1.4039    1.2553    0.0000 N   0  0  0  0  0  0  0  0  0  0  0  0
    2.1184    1.6678    0.0000 C   0  0  0  0  0  0  0  0  0  0  0  0
    2.1184    2.4928    0.0000 C   0  0  0  0  0  0  0  0  0  0  0  0
    2.8328    2.9053    0.0000 C   0  0  0  0  0  0  0  0  0  0  0  0
    3.5473    2.4928    0.0000 C   0  0  0  0  0  0  0  0  0  0  0  0
    3.5473    1.6678    0.0000 C   0  0  0  0  0  0  0  0  0  0  0  0
    2.8328    1.2553    0.0000 C   0  0  0  0  0  0  0  0  0  0  0  0
   -2.4056   -1.4629    0.0000 H   0  0  0  0  0  0  0  0  0  0  0  0
   -2.8229   -0.4351    0.0000 H   0  0  0  0  0  0  0  0  0  0  0  0
   -4.1358   -1.6172    0.0000 H   0  0  0  0  0  0  0  0  0  0  0  0
   -1.0631   -2.6418    0.0000 H   0  0  0  0  0  0  0  0  0  0  0  0
   -0.7325   -1.6242    0.0000 H   0  0  0  0  0  0  0  0  0  0  0  0
   -0.0251   -2.2517    0.0000 H   0  0  0  0  0  0  0  0  0  0  0  0
   -3.0411   -0.3947    0.0000 H   0  0  0  0  0  0  0  0  0  0  0  0
   -1.8284    1.2091    0.0000 H   0  0  0  0  0  0  0  0  0  0  0  0
    1.5831   -1.3232    0.0000 H   0  0  0  0  0  0  0  0  0  0  0  0
    2.2565   -0.0620    0.0000 H   0  0  0  0  0  0  0  0  0  0  0  0
    0.7864    1.7238    0.0000 H   0  0  0  0  0  0  0  0  0  0  0  0
   -2.1505   -3.5698    0.0000 H   0  0  0  0  0  0  0  0  0  0  0  0
    0.5513    1.7476    0.0000 H   0  0  0  0  0  0  0  0  0  0  0  0
    1.2247    3.0088    0.0000 H   0  0  0  0  0  0  0  0  0  0  0  0
    2.8328    3.9373    0.0000 H   0  0  0  0  0  0  0  0  0  0  0  0
    4.4410    3.0088    0.0000 H   0  0  0  0  0  0  0  0  0  0  0  0
    4.4410    1.1518    0.0000 H   0  0  0  0  0  0  0  0  0  0  0  0
    2.8328    0.2233    0.0000 H   0  0  0  0  0  0  0  0  0  0  0  0
  1 25  1  0  0  0  0
  1 26  1  0  0  0  0
  2  1  1  0  0  0  0
  2  3  1  0  0  0  0
  2 15  1  0  0  0  0
  2 24  1  6  0  0  0
  3  4  1  0  0  0  0
  3 27  1  0  0  0  0
  3 28  1  0  0  0  0
  4  5  1  0  0  0  0
  4  8  2  0  0  0  0
  5  6  2  0  0  0  0
  5  7  1  0  0  0  0
  6  9  1  0  0  0  0
  6 10  1  0  0  0  0
  7 11  2  0  0  0  0
  7 29  1  0  0  0  0
  8  9  1  0  0  0  0
  8 30  1  0  0  0  0
  9 31  1  0  0  0  0
 10 12  2  0  0  0  0
 10 14  1  0  0  0  0
 11 12  1  0  0  0  0
 11 32  1  0  0  0  0
 12 13  1  0  0  0  0
 13 17  1  0  0  0  0
 13 33  1  0  0  0  0
 14 34  1  0  0  0  0
 15 16  2  0  0  0  0
 15 35  1  0  0  0  0
 17 18  1  0  0  0  0
 17 36  1  0  0  0  0
 18 19  2  0  0  0  0
 18 23  1  0  0  0  0
 19 20  1  0  0  0  0
 19 37  1  0  0  0  0
 20 21  2  0  0  0  0
 20 38  1  0  0  0  0
 21 22  1  0  0  0  0
 21 39  1  0  0  0  0
 22 23  2  0  0  0  0
 22 40  1  0  0  0  0
 23 41  1  0  0  0  0
M  END
>  <DRUGBANK_ID>
DB08646

>  <COMMON_NAME>
TRW3-(2-AMINO-3-HYDROXY-PROPYL)-6-(N'-CYCLOHEXYL-HYDRAZINO)OCTAHYDRO-INDOL-7-OL

$$$$
