
 OpenBabel10282417072D

 20 20  0  0  1  0  0  0  0  0999 V2000
    0.7145   -0.4125    0.0000 C   0  0  0  0  0  0  0  0  0  0  0  0
    1.4289    0.0000    0.0000 C   0  0  0  0  0  0  0  0  0  0  0  0
   -0.0000    0.0000    0.0000 C   0  0  0  0  0  0  0  0  0  0  0  0
    1.4289    0.8250    0.0000 C   0  0  0  0  0  0  0  0  0  0  0  0
    0.0000    0.8250    0.0000 C   0  0  1  0  0  0  0  0  0  0  0  0
    0.7145    1.2375    0.0000 C   0  0  1  0  0  0  0  0  0  0  0  0
    2.1434    1.2375    0.0000 C   0  0  0  0  0  0  0  0  0  0  0  0
    0.7145    2.0625    0.0000 N   0  0  0  0  0  0  0  0  0  0  0  0
   -0.7145    1.2375    0.0000 O   0  0  0  0  0  0  0  0  0  0  0  0
    2.1434    2.0625    0.0000 O   0  0  0  0  0  0  0  0  0  0  0  0
    2.8579    0.8250    0.0000 O   0  0  0  0  0  0  0  0  0  0  0  0
   -0.7145    0.4125    0.0000 H   0  0  0  0  0  0  0  0  0  0  0  0
    1.4289    1.6500    0.0000 H   0  0  0  0  0  0  0  0  0  0  0  0
    0.7145   -1.4445    0.0000 H   0  0  0  0  0  0  0  0  0  0  0  0
    2.3226   -0.5160    0.0000 H   0  0  0  0  0  0  0  0  0  0  0  0
   -0.8937   -0.5160    0.0000 H   0  0  0  0  0  0  0  0  0  0  0  0
    1.5978    2.5725    0.0000 H   0  0  0  0  0  0  0  0  0  0  0  0
   -0.1688    2.5725    0.0000 H   0  0  0  0  0  0  0  0  0  0  0  0
   -0.7145    2.2075    0.0000 H   0  0  0  0  0  0  0  0  0  0  0  0
    2.9549    2.5310    0.0000 H   0  0  0  0  0  0  0  0  0  0  0  0
  1 14  1  0  0  0  0
  2  1  1  0  0  0  0
  2 15  1  0  0  0  0
  3  1  2  0  0  0  0
  3 16  1  0  0  0  0
  4  2  2  0  0  0  0
  5  3  1  0  0  0  0
  5  9  1  0  0  0  0
  5 12  1  1  0  0  0
  6  4  1  0  0  0  0
  6  5  1  0  0  0  0
  6  8  1  0  0  0  0
  6 13  1  6  0  0  0
  7  4  1  0  0  0  0
  8 17  1  0  0  0  0
  8 18  1  0  0  0  0
  9 19  1  0  0  0  0
 10  7  1  0  0  0  0
 10 20  1  0  0  0  0
 11  7  2  0  0  0  0
M  END
>  <DRUGBANK_ID>
DB02124

>  <SECONDARY_ACCESSION_NUMBERS>
EXPT01743

>  <COMMON_NAME>
(2s,3s)-Trans-2,3-Dihydro-3-Hydroxyanthranilic Acid

$$$$
