
 OpenBabel10282417072D

 57 58  0  0  0  0  0  0  0  0999 V2000
    4.2868    0.6039    0.0000 C   0  0  0  0  0  0  0  0  0  0  0  0
    3.8743   -0.1105    0.0000 C   0  0  0  0  0  0  0  0  0  0  0  0
    4.2868   -0.8250    0.0000 C   0  0  3  0  0  0  0  0  0  0  0  0
    3.5724   -1.2375    0.0000 C   0  0  0  0  0  0  0  0  0  0  0  0
    3.5724   -2.0625    0.0000 O   0  0  0  0  0  0  0  0  0  0  0  0
    2.8579   -2.4750    0.0000 C   0  0  0  0  0  0  0  0  0  0  0  0
    2.1434   -2.0625    0.0000 O   0  0  0  0  0  0  0  0  0  0  0  0
    2.8579   -3.3000    0.0000 C   0  0  0  0  0  0  0  0  0  0  0  0
    3.5724   -3.7125    0.0000 C   0  0  0  0  0  0  0  0  0  0  0  0
    3.5724   -4.5375    0.0000 C   0  0  0  0  0  0  0  0  0  0  0  0
    2.8579   -4.9500    0.0000 C   0  0  0  0  0  0  0  0  0  0  0  0
    2.1434   -4.5375    0.0000 C   0  0  0  0  0  0  0  0  0  0  0  0
    2.1434   -3.7125    0.0000 C   0  0  0  0  0  0  0  0  0  0  0  0
    1.4289   -4.9500    0.0000 O   0  0  0  0  0  0  0  0  0  0  0  0
    0.7145   -4.5375    0.0000 C   0  0  0  0  0  0  0  0  0  0  0  0
    2.8579   -5.7750    0.0000 O   0  0  0  0  0  0  0  0  0  0  0  0
    2.1434   -6.1875    0.0000 C   0  0  0  0  0  0  0  0  0  0  0  0
    4.2868   -4.9500    0.0000 O   0  0  0  0  0  0  0  0  0  0  0  0
    4.2868   -5.7750    0.0000 C   0  0  0  0  0  0  0  0  0  0  0  0
    5.0013   -0.4125    0.0000 C   0  0  0  0  0  0  0  0  0  0  0  0
    5.0013    0.4125    0.0000 C   0  0  0  0  0  0  0  0  0  0  0  0
    5.7158    0.8250    0.0000 C   0  0  0  0  0  0  0  0  0  0  0  0
    6.4302    0.4125    0.0000 C   0  0  0  0  0  0  0  0  0  0  0  0
    6.4302   -0.4125    0.0000 C   0  0  0  0  0  0  0  0  0  0  0  0
    5.7158   -0.8250    0.0000 C   0  0  0  0  0  0  0  0  0  0  0  0
    4.6993   -1.5395    0.0000 N   0  0  0  0  0  0  0  0  0  0  0  0
    4.2868   -2.2539    0.0000 C   0  0  0  0  0  0  0  0  0  0  0  0
    5.5243   -1.5395    0.0000 C   0  0  0  0  0  0  0  0  0  0  0  0
    5.3568    0.6039    0.0000 H   0  0  0  0  0  0  0  0  0  0  0  0
    3.7518    1.5306    0.0000 H   0  0  0  0  0  0  0  0  0  0  0  0
    4.8218    1.5305    0.0000 H   0  0  0  0  0  0  0  0  0  0  0  0
    2.8043   -0.1105    0.0000 H   0  0  0  0  0  0  0  0  0  0  0  0
    3.3393   -1.0371    0.0000 H   0  0  0  0  0  0  0  0  0  0  0  0
    2.6457   -0.7025    0.0000 H   0  0  0  0  0  0  0  0  0  0  0  0
    2.6458   -1.7725    0.0000 H   0  0  0  0  0  0  0  0  0  0  0  0
    4.4661   -3.1965    0.0000 H   0  0  0  0  0  0  0  0  0  0  0  0
    1.2497   -3.1965    0.0000 H   0  0  0  0  0  0  0  0  0  0  0  0
    0.7145   -3.4675    0.0000 H   0  0  0  0  0  0  0  0  0  0  0  0
   -0.2122   -5.0725    0.0000 H   0  0  0  0  0  0  0  0  0  0  0  0
   -0.2121   -4.0025    0.0000 H   0  0  0  0  0  0  0  0  0  0  0  0
    1.2168   -5.6525    0.0000 H   0  0  0  0  0  0  0  0  0  0  0  0
    2.1434   -7.2575    0.0000 H   0  0  0  0  0  0  0  0  0  0  0  0
    1.2167   -6.7225    0.0000 H   0  0  0  0  0  0  0  0  0  0  0  0
    3.3602   -6.3100    0.0000 H   0  0  0  0  0  0  0  0  0  0  0  0
    5.2134   -6.3100    0.0000 H   0  0  0  0  0  0  0  0  0  0  0  0
    4.2868   -6.8450    0.0000 H   0  0  0  0  0  0  0  0  0  0  0  0
    4.1076    0.9285    0.0000 H   0  0  0  0  0  0  0  0  0  0  0  0
    5.7158    1.8570    0.0000 H   0  0  0  0  0  0  0  0  0  0  0  0
    7.3239    0.9285    0.0000 H   0  0  0  0  0  0  0  0  0  0  0  0
    7.3239   -0.9285    0.0000 H   0  0  0  0  0  0  0  0  0  0  0  0
    5.7158   -1.8570    0.0000 H   0  0  0  0  0  0  0  0  0  0  0  0
    3.2168   -2.2539    0.0000 H   0  0  0  0  0  0  0  0  0  0  0  0
    4.8218   -3.1806    0.0000 H   0  0  0  0  0  0  0  0  0  0  0  0
    3.7518   -3.1805    0.0000 H   0  0  0  0  0  0  0  0  0  0  0  0
    6.0593   -2.4661    0.0000 H   0  0  0  0  0  0  0  0  0  0  0  0
    6.0593   -0.6129    0.0000 H   0  0  0  0  0  0  0  0  0  0  0  0
    6.5943   -1.5395    0.0000 H   0  0  0  0  0  0  0  0  0  0  0  0
  1  2  1  0  0  0  0
  1 29  1  0  0  0  0
  1 30  1  0  0  0  0
  1 31  1  0  0  0  0
  2  3  1  0  0  0  0
  2 32  1  0  0  0  0
  2 33  1  0  0  0  0
  3  4  1  0  0  0  0
  3 20  1  0  0  0  0
  3 26  1  0  0  0  0
  4  5  1  0  0  0  0
  4 34  1  0  0  0  0
  4 35  1  0  0  0  0
  5  6  1  0  0  0  0
  6  7  2  0  0  0  0
  6  8  1  0  0  0  0
  8  9  2  0  0  0  0
  8 13  1  0  0  0  0
  9 10  1  0  0  0  0
  9 36  1  0  0  0  0
 10 11  2  0  0  0  0
 10 18  1  0  0  0  0
 11 12  1  0  0  0  0
 11 16  1  0  0  0  0
 12 13  2  0  0  0  0
 12 14  1  0  0  0  0
 13 37  1  0  0  0  0
 14 15  1  0  0  0  0
 15 38  1  0  0  0  0
 15 39  1  0  0  0  0
 15 40  1  0  0  0  0
 16 17  1  0  0  0  0
 17 41  1  0  0  0  0
 17 42  1  0  0  0  0
 17 43  1  0  0  0  0
 18 19  1  0  0  0  0
 19 44  1  0  0  0  0
 19 45  1  0  0  0  0
 19 46  1  0  0  0  0
 20 21  2  0  0  0  0
 20 25  1  0  0  0  0
 21 22  1  0  0  0  0
 21 47  1  0  0  0  0
 22 23  2  0  0  0  0
 22 48  1  0  0  0  0
 23 24  1  0  0  0  0
 23 49  1  0  0  0  0
 24 25  2  0  0  0  0
 24 50  1  0  0  0  0
 25 51  1  0  0  0  0
 26 27  1  0  0  0  0
 26 28  1  0  0  0  0
 27 52  1  0  0  0  0
 27 53  1  0  0  0  0
 27 54  1  0  0  0  0
 28 55  1  0  0  0  0
 28 56  1  0  0  0  0
 28 57  1  0  0  0  0
M  END
>  <DRUGBANK_ID>
DB09089

>  <COMMON_NAME>
Trimebutine

>  <CAS_NUMBER>
39133-31-8

>  <UNII>
QZ1OJ92E5R

>  <SYNONYMS>
2-Dimethylamino-2-phenylbutyl 3,4,5-trimethoxybenzoat; Trim√©butine; Trimebutine; Trimebutino

$$$$
