715
 OpenBabel10282417072D

 44 47  0  0  1  0  0  0  0  0999 V2000
    2.3645   -2.7308    0.0000 F   0  0  0  0  0  0  0  0  0  0  0  0
    4.5080    0.9818    0.0000 O   0  0  0  0  0  0  0  0  0  0  0  0
    7.4321    0.8206    0.0000 O   0  0  0  0  0  0  0  0  0  0  0  0
    7.4321   -0.5071    0.0000 O   0  0  0  0  0  0  0  0  0  0  0  0
    2.3645    2.2193    0.0000 N   0  0  0  0  0  0  0  0  0  0  0  0
    2.3645    0.5693    0.0000 C   0  0  1  0  0  0  0  0  0  0  0  0
    3.0791    0.9818    0.0000 C   0  0  1  0  0  0  0  0  0  0  0  0
    1.6500    0.9818    0.0000 C   0  0  0  0  0  0  0  0  0  0  0  0
    3.0791    1.8068    0.0000 C   0  0  0  0  0  0  0  0  0  0  0  0
    1.6500    1.8068    0.0000 C   0  0  0  0  0  0  0  0  0  0  0  0
    3.7935    0.5693    0.0000 C   0  0  0  0  0  0  0  0  0  0  0  0
    2.3645   -0.2558    0.0000 C   0  0  0  0  0  0  0  0  0  0  0  0
    3.0791   -0.6683    0.0000 C   0  0  0  0  0  0  0  0  0  0  0  0
    1.6500   -0.6683    0.0000 C   0  0  0  0  0  0  0  0  0  0  0  0
    3.0791   -1.4933    0.0000 C   0  0  0  0  0  0  0  0  0  0  0  0
    1.6500   -1.4933    0.0000 C   0  0  0  0  0  0  0  0  0  0  0  0
    5.2224    0.5693    0.0000 C   0  0  0  0  0  0  0  0  0  0  0  0
    2.3645   -1.9058    0.0000 C   0  0  0  0  0  0  0  0  0  0  0  0
    5.9370    0.9818    0.0000 C   0  0  0  0  0  0  0  0  0  0  0  0
    5.2224   -0.2558    0.0000 C   0  0  0  0  0  0  0  0  0  0  0  0
    6.6515    0.5693    0.0000 C   0  0  0  0  0  0  0  0  0  0  0  0
    6.6515   -0.2558    0.0000 C   0  0  0  0  0  0  0  0  0  0  0  0
    5.9370   -0.6683    0.0000 C   0  0  0  0  0  0  0  0  0  0  0  0
    7.9136    0.1568    0.0000 C   0  0  0  0  0  0  0  0  0  0  0  0
    2.3645    3.2393    0.0000 H   0  0  0  0  0  0  0  0  0  0  0  0
    3.2911    0.0343    0.0000 H   0  0  0  0  0  0  0  0  0  0  0  0
    3.0790   -0.0882    0.0000 H   0  0  0  0  0  0  0  0  0  0  0  0
    0.7234    0.4468    0.0000 H   0  0  0  0  0  0  0  0  0  0  0  0
    0.7234    1.5168    0.0000 H   0  0  0  0  0  0  0  0  0  0  0  0
    4.0057    2.3418    0.0000 H   0  0  0  0  0  0  0  0  0  0  0  0
    4.0058    1.2718    0.0000 H   0  0  0  0  0  0  0  0  0  0  0  0
    0.7234    2.3418    0.0000 H   0  0  0  0  0  0  0  0  0  0  0  0
    0.7234    1.2718    0.0000 H   0  0  0  0  0  0  0  0  0  0  0  0
    3.7935   -0.5007    0.0000 H   0  0  0  0  0  0  0  0  0  0  0  0
    2.8668    0.0343    0.0000 H   0  0  0  0  0  0  0  0  0  0  0  0
    3.9728   -0.1523    0.0000 H   0  0  0  0  0  0  0  0  0  0  0  0
    0.7563   -0.1523    0.0000 H   0  0  0  0  0  0  0  0  0  0  0  0
    3.9728   -2.0093    0.0000 H   0  0  0  0  0  0  0  0  0  0  0  0
    0.7563   -2.0093    0.0000 H   0  0  0  0  0  0  0  0  0  0  0  0
    5.9370    2.0138    0.0000 H   0  0  0  0  0  0  0  0  0  0  0  0
    4.3287   -0.7718    0.0000 H   0  0  0  0  0  0  0  0  0  0  0  0
    5.9370   -1.7003    0.0000 H   0  0  0  0  0  0  0  0  0  0  0  0
    8.9836    0.1568    0.0000 H   0  0  0  0  0  0  0  0  0  0  0  0
    8.3998   -0.7964    0.0000 H   0  0  0  0  0  0  0  0  0  0  0  0
  1 18  1  0  0  0  0
  2 11  1  0  0  0  0
  2 17  1  0  0  0  0
  3 21  1  0  0  0  0
  3 24  1  0  0  0  0
  4 22  1  0  0  0  0
  4 24  1  0  0  0  0
  5  9  1  0  0  0  0
  5 10  1  0  0  0  0
  5 25  1  0  0  0  0
  6  7  1  0  0  0  0
  6  8  1  0  0  0  0
  6 12  1  0  0  0  0
  6 26  1  1  0  0  0
  7  9  1  0  0  0  0
  7 11  1  0  0  0  0
  7 27  1  6  0  0  0
  8 10  1  0  0  0  0
  8 28  1  0  0  0  0
  8 29  1  0  0  0  0
  9 30  1  0  0  0  0
  9 31  1  0  0  0  0
 10 32  1  0  0  0  0
 10 33  1  0  0  0  0
 11 34  1  0  0  0  0
 11 35  1  0  0  0  0
 12 13  2  0  0  0  0
 12 14  1  0  0  0  0
 13 15  1  0  0  0  0
 13 36  1  0  0  0  0
 14 16  2  0  0  0  0
 14 37  1  0  0  0  0
 15 18  2  0  0  0  0
 15 38  1  0  0  0  0
 16 18  1  0  0  0  0
 16 39  1  0  0  0  0
 17 19  2  0  0  0  0
 17 20  1  0  0  0  0
 19 21  1  0  0  0  0
 19 40  1  0  0  0  0
 20 23  2  0  0  0  0
 20 41  1  0  0  0  0
 21 22  2  0  0  0  0
 22 23  1  0  0  0  0
 23 42  1  0  0  0  0
 24 43  1  0  0  0  0
 24 44  1  0  0  0  0
M  END
>  <DRUGBANK_ID>
DB00715

>  <COMMON_NAME>
Paroxetine

>  <CAS_NUMBER>
61869-08-7

>  <UNII>
41VRH5220H

>  <SYNONYMS>
(âˆ’)-(3S,4R)-4-(p-fluorophenyl)-3-((3,4-(methylenedioxy)phenoxy)methyl)piperidine; (3S-trans)-3-((1,3-benzodioxol-5-yloxy)methyl)-4-(4-fluorophenyl)piperidine; Paroxetina; Paroxetine; Paroxetinum

$$$$
