
 OpenBabel10282417072D

 15 15  0  0  0  0  0  0  0  0999 V2000
    1.4294    1.2376    0.0000 O   0  0  0  0  0  0  0  0  0  0  0  0
    0.7144    0.8238    0.0000 C   0  0  0  0  0  0  0  0  0  0  0  0
   -0.0007    1.2364    0.0000 C   0  0  0  0  0  0  0  0  0  0  0  0
    0.7144    0.0000    0.0000 C   0  0  0  0  0  0  0  0  0  0  0  0
    0.0007   -0.4125    0.0000 C   0  0  0  0  0  0  0  0  0  0  0  0
   -0.7145   -0.0012    0.0000 C   0  0  0  0  0  0  0  0  0  0  0  0
   -0.7145    0.8238    0.0000 C   0  0  0  0  0  0  0  0  0  0  0  0
   -1.4294    1.2364    0.0000 O   0  0  0  0  0  0  0  0  0  0  0  0
    0.0007   -1.2376    0.0000 O   0  0  0  0  0  0  0  0  0  0  0  0
    2.2414    0.7699    0.0000 H   0  0  0  0  0  0  0  0  0  0  0  0
   -0.0011    2.2684    0.0000 H   0  0  0  0  0  0  0  0  0  0  0  0
    1.6083   -0.5158    0.0000 H   0  0  0  0  0  0  0  0  0  0  0  0
   -1.6078   -0.5180    0.0000 H   0  0  0  0  0  0  0  0  0  0  0  0
   -1.4295    2.1734    0.0000 H   0  0  0  0  0  0  0  0  0  0  0  0
   -0.8108   -1.7061    0.0000 H   0  0  0  0  0  0  0  0  0  0  0  0
  1  2  1  0  0  0  0
  1 10  1  0  0  0  0
  2  3  1  0  0  0  0
  2  4  2  0  0  0  0
  3  7  2  0  0  0  0
  3 11  1  0  0  0  0
  4  5  1  0  0  0  0
  4 12  1  0  0  0  0
  5  6  2  0  0  0  0
  5  9  1  0  0  0  0
  6  7  1  0  0  0  0
  6 13  1  0  0  0  0
  7  8  1  0  0  0  0
  8 14  1  0  0  0  0
  9 15  1  0  0  0  0
M  END
>  <DRUGBANK_ID>
DB12944

>  <COMMON_NAME>
Phloroglucinol

>  <CAS_NUMBER>
108-73-6

>  <UNII>
DHD7FFG6YS

>  <SYNONYMS>
Phloroglucin; Phloroglucinol

$$$$
