
 OpenBabel10282417072D

 46 46  0  0  0  0  0  0  0  0999 V2000
   -1.0716    0.2062    0.0000 C   0  0  0  0  0  0  0  0  0  0  0  0
   -1.0716   -0.6187    0.0000 C   0  0  0  0  0  0  0  0  0  0  0  0
   -1.7861    0.6187    0.0000 C   0  0  0  0  0  0  0  0  0  0  0  0
   -0.3571    0.6187    0.0000 C   0  0  0  0  0  0  0  0  0  0  0  0
   -1.7861   -1.0312    0.0000 C   0  0  0  0  0  0  0  0  0  0  0  0
   -0.3571   -1.0312    0.0000 O   0  0  0  0  0  0  0  0  0  0  0  0
   -2.5006    0.2062    0.0000 C   0  0  0  0  0  0  0  0  0  0  0  0
    0.3573    0.2062    0.0000 N   0  0  0  0  0  0  0  0  0  0  0  0
   -0.3571    1.4437    0.0000 O   0  0  0  0  0  0  0  0  0  0  0  0
   -2.5006   -0.6187    0.0000 C   0  0  0  0  0  0  0  0  0  0  0  0
   -0.3571   -1.8562    0.0000 C   0  0  0  0  0  0  0  0  0  0  0  0
   -3.2150    0.6187    0.0000 S   0  0  0  0  0  0  0  0  0  0  0  0
    1.0717    0.6187    0.0000 C   0  0  0  0  0  0  0  0  0  0  0  0
   -3.9296    1.0312    0.0000 C   0  0  0  0  0  0  0  0  0  0  0  0
   -3.6276   -0.0957    0.0000 O   0  0  0  0  0  0  0  0  0  0  0  0
   -2.8026    1.3332    0.0000 O   0  0  0  0  0  0  0  0  0  0  0  0
    1.7862    0.2062    0.0000 C   0  0  0  0  0  0  0  0  0  0  0  0
    2.5007    0.6187    0.0000 N   0  0  0  0  0  0  0  0  0  0  0  0
    3.2151    0.2062    0.0000 C   0  0  0  0  0  0  0  0  0  0  0  0
    2.5007    1.4437    0.0000 C   0  0  0  0  0  0  0  0  0  0  0  0
    3.9296    0.6187    0.0000 C   0  0  0  0  0  0  0  0  0  0  0  0
    3.2151    1.8562    0.0000 C   0  0  0  0  0  0  0  0  0  0  0  0
   -1.7861    1.6507    0.0000 H   0  0  0  0  0  0  0  0  0  0  0  0
   -1.7861   -2.0632    0.0000 H   0  0  0  0  0  0  0  0  0  0  0  0
    0.3573   -0.7783    0.0000 H   0  0  0  0  0  0  0  0  0  0  0  0
   -3.3943   -1.1347    0.0000 H   0  0  0  0  0  0  0  0  0  0  0  0
   -1.2837   -2.3912    0.0000 H   0  0  0  0  0  0  0  0  0  0  0  0
    0.5695   -2.3912    0.0000 H   0  0  0  0  0  0  0  0  0  0  0  0
   -0.3571   -2.9262    0.0000 H   0  0  0  0  0  0  0  0  0  0  0  0
    1.0717    1.6887    0.0000 H   0  0  0  0  0  0  0  0  0  0  0  0
    1.9983    1.1537    0.0000 H   0  0  0  0  0  0  0  0  0  0  0  0
   -3.9297    2.1012    0.0000 H   0  0  0  0  0  0  0  0  0  0  0  0
   -4.8562    0.4961    0.0000 H   0  0  0  0  0  0  0  0  0  0  0  0
   -4.8563    1.5661    0.0000 H   0  0  0  0  0  0  0  0  0  0  0  0
    1.7862   -0.8638    0.0000 H   0  0  0  0  0  0  0  0  0  0  0  0
    2.7128   -0.3288    0.0000 H   0  0  0  0  0  0  0  0  0  0  0  0
    3.2151   -0.8638    0.0000 H   0  0  0  0  0  0  0  0  0  0  0  0
    4.1417   -0.3288    0.0000 H   0  0  0  0  0  0  0  0  0  0  0  0
    1.5740    1.9787    0.0000 H   0  0  0  0  0  0  0  0  0  0  0  0
    2.5007    2.5137    0.0000 H   0  0  0  0  0  0  0  0  0  0  0  0
    4.8562    0.0837    0.0000 H   0  0  0  0  0  0  0  0  0  0  0  0
    3.9296    1.6887    0.0000 H   0  0  0  0  0  0  0  0  0  0  0  0
    4.8563    1.1537    0.0000 H   0  0  0  0  0  0  0  0  0  0  0  0
    4.1418    1.3212    0.0000 H   0  0  0  0  0  0  0  0  0  0  0  0
    3.2151    2.9262    0.0000 H   0  0  0  0  0  0  0  0  0  0  0  0
    4.1417    2.3912    0.0000 H   0  0  0  0  0  0  0  0  0  0  0  0
  1  2  1  0  0  0  0
  1  3  2  0  0  0  0
  1  4  1  0  0  0  0
  2  5  2  0  0  0  0
  2  6  1  0  0  0  0
  3  7  1  0  0  0  0
  3 23  1  0  0  0  0
  4  8  1  0  0  0  0
  4  9  2  0  0  0  0
  5 10  1  0  0  0  0
  5 24  1  0  0  0  0
  6 11  1  0  0  0  0
  7 12  1  0  0  0  0
  7 10  2  0  0  0  0
  8 13  1  0  0  0  0
  8 25  1  0  0  0  0
 10 26  1  0  0  0  0
 11 27  1  0  0  0  0
 11 28  1  0  0  0  0
 11 29  1  0  0  0  0
 12 14  1  0  0  0  0
 12 15  2  0  0  0  0
 12 16  2  0  0  0  0
 13 17  1  0  0  0  0
 13 30  1  0  0  0  0
 13 31  1  0  0  0  0
 14 32  1  0  0  0  0
 14 33  1  0  0  0  0
 14 34  1  0  0  0  0
 17 18  1  0  0  0  0
 17 35  1  0  0  0  0
 17 36  1  0  0  0  0
 18 19  1  0  0  0  0
 18 20  1  0  0  0  0
 19 21  1  0  0  0  0
 19 37  1  0  0  0  0
 19 38  1  0  0  0  0
 20 22  1  0  0  0  0
 20 39  1  0  0  0  0
 20 40  1  0  0  0  0
 21 41  1  0  0  0  0
 21 42  1  0  0  0  0
 21 43  1  0  0  0  0
 22 44  1  0  0  0  0
 22 45  1  0  0  0  0
 22 46  1  0  0  0  0
M  END
>  <DRUGBANK_ID>
DB13025

>  <COMMON_NAME>
Tiapride

>  <CAS_NUMBER>
51012-32-9

>  <UNII>
LAH70H9JPH

>  <SYNONYMS>
Thiapride; Tiaprida; Tiapride; Tiapridum

$$$$
