
 OpenBabel10282417072D

 62 63  0  0  0  0  0  0  0  0999 V2000
    3.5724   -0.4125    0.0000 C   0  0  0  0  0  0  0  0  0  0  0  0
    3.5724   -1.2375    0.0000 N   0  0  0  0  0  0  0  0  0  0  0  0
    2.8579   -1.6500    0.0000 C   0  0  0  0  0  0  0  0  0  0  0  0
    4.2868   -1.6500    0.0000 C   0  0  0  0  0  0  0  0  0  0  0  0
    4.2868   -2.4750    0.0000 C   0  0  3  0  0  0  0  0  0  0  0  0
    3.5724   -2.8875    0.0000 C   0  0  0  0  0  0  0  0  0  0  0  0
    2.8579   -2.4750    0.0000 O   0  0  0  0  0  0  0  0  0  0  0  0
    2.1434   -2.8875    0.0000 C   0  0  0  0  0  0  0  0  0  0  0  0
    2.1434   -3.7125    0.0000 C   0  0  0  0  0  0  0  0  0  0  0  0
    1.4289   -4.1250    0.0000 C   0  0  0  0  0  0  0  0  0  0  0  0
    0.7145   -3.7125    0.0000 C   0  0  0  0  0  0  0  0  0  0  0  0
    0.7145   -2.8875    0.0000 C   0  0  0  0  0  0  0  0  0  0  0  0
    1.4289   -2.4750    0.0000 C   0  0  0  0  0  0  0  0  0  0  0  0
    1.4289   -1.6500    0.0000 C   0  0  0  0  0  0  0  0  0  0  0  0
    0.7145   -1.2375    0.0000 C   0  0  0  0  0  0  0  0  0  0  0  0
    0.7145   -0.4125    0.0000 C   0  0  0  0  0  0  0  0  0  0  0  0
    0.0000    0.0000    0.0000 C   0  0  0  0  0  0  0  0  0  0  0  0
    0.0000    0.8250    0.0000 C   0  0  0  0  0  0  0  0  0  0  0  0
    0.7145    1.2375    0.0000 C   0  0  0  0  0  0  0  0  0  0  0  0
    1.4289    0.8250    0.0000 C   0  0  0  0  0  0  0  0  0  0  0  0
    1.4289    0.0000    0.0000 C   0  0  0  0  0  0  0  0  0  0  0  0
    2.1434    1.2375    0.0000 O   0  0  0  0  0  0  0  0  0  0  0  0
    2.1434    2.0625    0.0000 C   0  0  0  0  0  0  0  0  0  0  0  0
    5.0013   -2.8875    0.0000 O   0  0  0  0  0  0  0  0  0  0  0  0
    5.7158   -2.4750    0.0000 C   0  0  0  0  0  0  0  0  0  0  0  0
    5.7158   -1.6500    0.0000 O   0  0  0  0  0  0  0  0  0  0  0  0
    6.4302   -2.8875    0.0000 C   0  0  0  0  0  0  0  0  0  0  0  0
    7.1447   -2.4750    0.0000 C   0  0  0  0  0  0  0  0  0  0  0  0
    7.8592   -2.8875    0.0000 C   0  0  0  0  0  0  0  0  0  0  0  0
    8.5737   -2.4750    0.0000 O   0  0  0  0  0  0  0  0  0  0  0  0
    7.8592   -3.7125    0.0000 O   0  0  0  0  0  0  0  0  0  0  0  0
    4.4990    0.1225    0.0000 H   0  0  0  0  0  0  0  0  0  0  0  0
    2.6458    0.1225    0.0000 H   0  0  0  0  0  0  0  0  0  0  0  0
    3.5724    0.6575    0.0000 H   0  0  0  0  0  0  0  0  0  0  0  0
    1.9313   -1.1150    0.0000 H   0  0  0  0  0  0  0  0  0  0  0  0
    2.8579   -2.7200    0.0000 H   0  0  0  0  0  0  0  0  0  0  0  0
    1.9312   -2.1850    0.0000 H   0  0  0  0  0  0  0  0  0  0  0  0
    5.2135   -1.1150    0.0000 H   0  0  0  0  0  0  0  0  0  0  0  0
    5.2134   -2.1850    0.0000 H   0  0  0  0  0  0  0  0  0  0  0  0
    3.3601   -1.9400    0.0000 H   0  0  0  0  0  0  0  0  0  0  0  0
    3.5724   -3.9575    0.0000 H   0  0  0  0  0  0  0  0  0  0  0  0
    2.6458   -3.4225    0.0000 H   0  0  0  0  0  0  0  0  0  0  0  0
    3.0371   -4.2285    0.0000 H   0  0  0  0  0  0  0  0  0  0  0  0
    1.4289   -5.1570    0.0000 H   0  0  0  0  0  0  0  0  0  0  0  0
   -0.1792   -4.2285    0.0000 H   0  0  0  0  0  0  0  0  0  0  0  0
   -0.1792   -2.3715    0.0000 H   0  0  0  0  0  0  0  0  0  0  0  0
    2.3556   -1.1150    0.0000 H   0  0  0  0  0  0  0  0  0  0  0  0
    1.4289   -0.5800    0.0000 H   0  0  0  0  0  0  0  0  0  0  0  0
   -0.2122   -1.7725    0.0000 H   0  0  0  0  0  0  0  0  0  0  0  0
   -0.2121   -0.7025    0.0000 H   0  0  0  0  0  0  0  0  0  0  0  0
   -0.8937   -0.5160    0.0000 H   0  0  0  0  0  0  0  0  0  0  0  0
   -0.8937    1.3410    0.0000 H   0  0  0  0  0  0  0  0  0  0  0  0
    0.7145    2.2695    0.0000 H   0  0  0  0  0  0  0  0  0  0  0  0
    2.3226   -0.5160    0.0000 H   0  0  0  0  0  0  0  0  0  0  0  0
    3.0700    2.5975    0.0000 H   0  0  0  0  0  0  0  0  0  0  0  0
    1.2168    2.5975    0.0000 H   0  0  0  0  0  0  0  0  0  0  0  0
    2.1434    3.1325    0.0000 H   0  0  0  0  0  0  0  0  0  0  0  0
    6.4302   -3.9575    0.0000 H   0  0  0  0  0  0  0  0  0  0  0  0
    7.3568   -3.4225    0.0000 H   0  0  0  0  0  0  0  0  0  0  0  0
    7.1447   -1.4050    0.0000 H   0  0  0  0  0  0  0  0  0  0  0  0
    8.0713   -1.9400    0.0000 H   0  0  0  0  0  0  0  0  0  0  0  0
    7.0477   -4.1810    0.0000 H   0  0  0  0  0  0  0  0  0  0  0  0
  1  2  1  0  0  0  0
  1 32  1  0  0  0  0
  1 33  1  0  0  0  0
  1 34  1  0  0  0  0
  2  3  1  0  0  0  0
  2  4  1  0  0  0  0
  3 35  1  0  0  0  0
  3 36  1  0  0  0  0
  3 37  1  0  0  0  0
  4  5  1  0  0  0  0
  4 38  1  0  0  0  0
  4 39  1  0  0  0  0
  5  6  1  0  0  0  0
  5 24  1  0  0  0  0
  5 40  1  0  0  0  0
  6  7  1  0  0  0  0
  6 41  1  0  0  0  0
  6 42  1  0  0  0  0
  7  8  1  0  0  0  0
  8  9  2  0  0  0  0
  8 13  1  0  0  0  0
  9 10  1  0  0  0  0
  9 43  1  0  0  0  0
 10 11  2  0  0  0  0
 10 44  1  0  0  0  0
 11 12  1  0  0  0  0
 11 45  1  0  0  0  0
 12 13  2  0  0  0  0
 12 46  1  0  0  0  0
 13 14  1  0  0  0  0
 14 15  1  0  0  0  0
 14 47  1  0  0  0  0
 14 48  1  0  0  0  0
 15 16  1  0  0  0  0
 15 49  1  0  0  0  0
 15 50  1  0  0  0  0
 16 17  2  0  0  0  0
 16 21  1  0  0  0  0
 17 18  1  0  0  0  0
 17 51  1  0  0  0  0
 18 19  2  0  0  0  0
 18 52  1  0  0  0  0
 19 20  1  0  0  0  0
 19 53  1  0  0  0  0
 20 21  2  0  0  0  0
 20 22  1  0  0  0  0
 21 54  1  0  0  0  0
 22 23  1  0  0  0  0
 23 55  1  0  0  0  0
 23 56  1  0  0  0  0
 23 57  1  0  0  0  0
 24 25  1  0  0  0  0
 25 26  2  0  0  0  0
 25 27  1  0  0  0  0
 27 28  1  0  0  0  0
 27 58  1  0  0  0  0
 27 59  1  0  0  0  0
 28 29  1  0  0  0  0
 28 60  1  0  0  0  0
 28 61  1  0  0  0  0
 29 30  2  0  0  0  0
 29 31  1  0  0  0  0
 31 62  1  0  0  0  0
M  END
>  <DRUGBANK_ID>
DB12163

>  <COMMON_NAME>
Sarpogrelate

>  <CAS_NUMBER>
125926-17-2

>  <UNII>
19P708E787

>  <SYNONYMS>
Sarpogrelate

$$$$
