872
 OpenBabel10282417072D

 64 69  0  0  0  0  0  0  0  0999 V2000
    2.4353   -0.6931    0.0000 O   0  0  0  0  0  0  0  0  0  0  0  0
    3.9363    2.7769    0.0000 O   0  0  0  0  0  0  0  0  0  0  0  0
    3.6160   -1.4980    0.0000 N   0  0  0  0  0  0  0  0  0  0  0  0
    5.3370   -3.5416    0.0000 N   0  0  0  0  0  0  0  0  0  0  0  0
    4.1407   -4.1177    0.0000 N   0  0  0  0  0  0  0  0  0  0  0  0
    5.1170    1.9719    0.0000 N   0  0  0  0  0  0  0  0  0  0  0  0
    4.9554   -2.1430    0.0000 C   0  0  0  0  0  0  0  0  0  0  0  0
    4.4410   -1.4980    0.0000 C   0  0  0  0  0  0  0  0  0  0  0  0
    4.7718   -2.9473    0.0000 C   0  0  0  0  0  0  0  0  0  0  0  0
    4.0285   -3.3053    0.0000 C   0  0  0  0  0  0  0  0  0  0  0  0
    3.1016   -2.1430    0.0000 C   0  0  0  0  0  0  0  0  0  0  0  0
    3.2852   -2.9473    0.0000 C   0  0  0  0  0  0  0  0  0  0  0  0
    4.9478   -4.2635    0.0000 C   0  0  0  0  0  0  0  0  0  0  0  0
    3.2580   -0.7547    0.0000 C   0  0  0  0  0  0  0  0  0  0  0  0
    2.2844   -1.8771    0.0000 C   0  0  0  0  0  0  0  0  0  0  0  0
    2.6644   -3.5415    0.0000 C   0  0  0  0  0  0  0  0  0  0  0  0
    3.7228   -0.0731    0.0000 C   0  0  0  0  0  0  0  0  0  0  0  0
    1.6500   -2.4567    0.0000 C   0  0  0  0  0  0  0  0  0  0  0  0
    1.8412   -3.2946    0.0000 C   0  0  0  0  0  0  0  0  0  0  0  0
    5.3057   -5.0068    0.0000 C   0  0  0  0  0  0  0  0  0  0  0  0
    3.3649    0.6702    0.0000 C   0  0  0  0  0  0  0  0  0  0  0  0
    4.5454   -0.1347    0.0000 C   0  0  0  0  0  0  0  0  0  0  0  0
    4.6523    1.2902    0.0000 C   0  0  0  0  0  0  0  0  0  0  0  0
    3.8296    1.3519    0.0000 C   0  0  0  0  0  0  0  0  0  0  0  0
    5.0103    0.5470    0.0000 C   0  0  0  0  0  0  0  0  0  0  0  0
    5.2238    3.3969    0.0000 C   0  0  0  0  0  0  0  0  0  0  0  0
    4.8658    4.1401    0.0000 C   0  0  0  0  0  0  0  0  0  0  0  0
    4.7590    2.7152    0.0000 C   0  0  0  0  0  0  0  0  0  0  0  0
    4.0431    4.2018    0.0000 C   0  0  0  0  0  0  0  0  0  0  0  0
    6.0465    3.3352    0.0000 C   0  0  0  0  0  0  0  0  0  0  0  0
    5.3306    4.8218    0.0000 C   0  0  0  0  0  0  0  0  0  0  0  0
    6.5113    4.0169    0.0000 C   0  0  0  0  0  0  0  0  0  0  0  0
    6.1533    4.7601    0.0000 C   0  0  0  0  0  0  0  0  0  0  0  0
    3.5784    3.5201    0.0000 C   0  0  0  0  0  0  0  0  0  0  0  0
    3.6852    4.9451    0.0000 C   0  0  0  0  0  0  0  0  0  0  0  0
    2.7557    3.5818    0.0000 C   0  0  0  0  0  0  0  0  0  0  0  0
    2.8625    5.0068    0.0000 C   0  0  0  0  0  0  0  0  0  0  0  0
    2.3977    4.3251    0.0000 C   0  0  0  0  0  0  0  0  0  0  0  0
    6.3128   -3.4111    0.0000 H   0  0  0  0  0  0  0  0  0  0  0  0
    6.0988    1.8984    0.0000 H   0  0  0  0  0  0  0  0  0  0  0  0
    5.9986   -1.9049    0.0000 H   0  0  0  0  0  0  0  0  0  0  0  0
    5.7120   -2.8996    0.0000 H   0  0  0  0  0  0  0  0  0  0  0  0
    4.9052   -0.5340    0.0000 H   0  0  0  0  0  0  0  0  0  0  0  0
    5.5043   -1.3782    0.0000 H   0  0  0  0  0  0  0  0  0  0  0  0
    2.0664   -0.8684    0.0000 H   0  0  0  0  0  0  0  0  0  0  0  0
    2.9058   -4.5449    0.0000 H   0  0  0  0  0  0  0  0  0  0  0  0
    0.6650   -2.1487    0.0000 H   0  0  0  0  0  0  0  0  0  0  0  0
    1.0874   -3.9995    0.0000 H   0  0  0  0  0  0  0  0  0  0  0  0
    4.7029   -5.8908    0.0000 H   0  0  0  0  0  0  0  0  0  0  0  0
    6.3727   -5.0868    0.0000 H   0  0  0  0  0  0  0  0  0  0  0  0
    5.7699   -5.9709    0.0000 H   0  0  0  0  0  0  0  0  0  0  0  0
    2.3358    0.7473    0.0000 H   0  0  0  0  0  0  0  0  0  0  0  0
    4.9931   -1.0645    0.0000 H   0  0  0  0  0  0  0  0  0  0  0  0
    3.3818    2.2817    0.0000 H   0  0  0  0  0  0  0  0  0  0  0  0
    6.0394    0.4699    0.0000 H   0  0  0  0  0  0  0  0  0  0  0  0
    6.4942    2.4054    0.0000 H   0  0  0  0  0  0  0  0  0  0  0  0
    4.8829    5.7516    0.0000 H   0  0  0  0  0  0  0  0  0  0  0  0
    7.5404    3.9398    0.0000 H   0  0  0  0  0  0  0  0  0  0  0  0
    6.7346    5.6128    0.0000 H   0  0  0  0  0  0  0  0  0  0  0  0
    4.0262    2.5903    0.0000 H   0  0  0  0  0  0  0  0  0  0  0  0
    4.2666    5.7977    0.0000 H   0  0  0  0  0  0  0  0  0  0  0  0
    2.1744    2.7291    0.0000 H   0  0  0  0  0  0  0  0  0  0  0  0
    2.4148    5.9366    0.0000 H   0  0  0  0  0  0  0  0  0  0  0  0
    1.3686    4.4022    0.0000 H   0  0  0  0  0  0  0  0  0  0  0  0
  1 14  2  0  0  0  0
  2 28  2  0  0  0  0
  3  8  1  0  0  0  0
  3 11  1  0  0  0  0
  3 14  1  0  0  0  0
  4  9  1  0  0  0  0
  4 13  1  0  0  0  0
  4 39  1  0  0  0  0
  5 10  1  0  0  0  0
  5 13  2  0  0  0  0
  6 23  1  0  0  0  0
  6 28  1  0  0  0  0
  6 40  1  0  0  0  0
  7  8  1  0  0  0  0
  7  9  1  0  0  0  0
  7 41  1  0  0  0  0
  7 42  1  0  0  0  0
  8 43  1  0  0  0  0
  8 44  1  0  0  0  0
  9 10  2  0  0  0  0
 10 12  1  0  0  0  0
 11 12  1  0  0  0  0
 11 15  2  0  0  0  0
 12 16  2  0  0  0  0
 13 20  1  0  0  0  0
 14 17  1  0  0  0  0
 15 18  1  0  0  0  0
 15 45  1  0  0  0  0
 16 19  1  0  0  0  0
 16 46  1  0  0  0  0
 17 21  2  0  0  0  0
 17 22  1  0  0  0  0
 18 19  2  0  0  0  0
 18 47  1  0  0  0  0
 19 48  1  0  0  0  0
 20 49  1  0  0  0  0
 20 50  1  0  0  0  0
 20 51  1  0  0  0  0
 21 24  1  0  0  0  0
 21 52  1  0  0  0  0
 22 25  2  0  0  0  0
 22 53  1  0  0  0  0
 23 24  2  0  0  0  0
 23 25  1  0  0  0  0
 24 54  1  0  0  0  0
 25 55  1  0  0  0  0
 26 27  1  0  0  0  0
 26 28  1  0  0  0  0
 26 30  2  0  0  0  0
 27 29  1  0  0  0  0
 27 31  2  0  0  0  0
 29 34  2  0  0  0  0
 29 35  1  0  0  0  0
 30 32  1  0  0  0  0
 30 56  1  0  0  0  0
 31 33  1  0  0  0  0
 31 57  1  0  0  0  0
 32 33  2  0  0  0  0
 32 58  1  0  0  0  0
 33 59  1  0  0  0  0
 34 36  1  0  0  0  0
 34 60  1  0  0  0  0
 35 37  2  0  0  0  0
 35 61  1  0  0  0  0
 36 38  2  0  0  0  0
 36 62  1  0  0  0  0
 37 38  1  0  0  0  0
 37 63  1  0  0  0  0
 38 64  1  0  0  0  0
M  END
>  <DRUGBANK_ID>
DB00872

>  <SECONDARY_ACCESSION_NUMBERS>
APRD01302

>  <COMMON_NAME>
Conivaptan

>  <CAS_NUMBER>
210101-16-9

>  <UNII>
0NJ98Y462X

>  <SYNONYMS>
4'-((4,5-dihydro-2-methylimidazo(4,5-d)(1)benzazepin-6(1H)-yl)carbonyl)-2-biphenylcarboxanilide; Conivaptan

$$$$
