4BC
 OpenBabel10282417072D

 43 46  0  0  0  0  0  0  0  0999 V2000
    0.0324    0.3572    0.0000 C   0  0  0  0  0  0  0  0  0  0  0  0
   -0.6821    0.7697    0.0000 C   0  0  0  0  0  0  0  0  0  0  0  0
   -1.4667    0.5148    0.0000 O   0  0  0  0  0  0  0  0  0  0  0  0
   -1.9516    1.1822    0.0000 C   0  0  0  0  0  0  0  0  0  0  0  0
   -1.4667    1.8497    0.0000 O   0  0  0  0  0  0  0  0  0  0  0  0
   -0.6821    1.5947    0.0000 C   0  0  0  0  0  0  0  0  0  0  0  0
    0.0324    2.0072    0.0000 C   0  0  0  0  0  0  0  0  0  0  0  0
    0.7469    1.5947    0.0000 C   0  0  0  0  0  0  0  0  0  0  0  0
    0.7469    0.7697    0.0000 C   0  0  0  0  0  0  0  0  0  0  0  0
    1.4613    0.3572    0.0000 C   0  0  0  0  0  0  0  0  0  0  0  0
    2.2150    0.6928    0.0000 C   0  0  0  0  0  0  0  0  0  0  0  0
    2.3865    1.4998    0.0000 C   0  0  0  0  0  0  0  0  0  0  0  0
    1.7734    2.0518    0.0000 O   0  0  0  0  0  0  0  0  0  0  0  0
    3.1711    1.7547    0.0000 O   0  0  0  0  0  0  0  0  0  0  0  0
    2.7670    0.0797    0.0000 N   0  0  0  0  0  0  0  0  0  0  0  0
    1.5476   -0.4632    0.0000 C   0  0  0  0  0  0  0  0  0  0  0  0
    2.3545   -0.6348    0.0000 N   0  0  0  0  0  0  0  0  0  0  0  0
    0.9345   -1.0153    0.0000 C   0  0  0  0  0  0  0  0  0  0  0  0
    0.1498   -0.7603    0.0000 C   0  0  0  0  0  0  0  0  0  0  0  0
   -0.4632   -1.3124    0.0000 C   0  0  0  0  0  0  0  0  0  0  0  0
   -1.2479   -1.0574    0.0000 C   0  0  0  0  0  0  0  0  0  0  0  0
   -1.4194   -0.2505    0.0000 C   0  0  0  0  0  0  0  0  0  0  0  0
   -0.2917   -2.1193    0.0000 C   0  0  0  0  0  0  0  0  0  0  0  0
   -0.9048   -2.6714    0.0000 O   0  0  0  0  0  0  0  0  0  0  0  0
    0.4929   -2.3743    0.0000 C   0  0  0  0  0  0  0  0  0  0  0  0
    1.1060   -1.8222    0.0000 C   0  0  0  0  0  0  0  0  0  0  0  0
    1.8906   -2.0772    0.0000 O   0  0  0  0  0  0  0  0  0  0  0  0
    0.0324   -0.6748    0.0000 H   0  0  0  0  0  0  0  0  0  0  0  0
   -3.0216    1.1822    0.0000 H   0  0  0  0  0  0  0  0  0  0  0  0
   -2.4374    2.1356    0.0000 H   0  0  0  0  0  0  0  0  0  0  0  0
    0.0324    3.0392    0.0000 H   0  0  0  0  0  0  0  0  0  0  0  0
    1.6406    2.1107    0.0000 H   0  0  0  0  0  0  0  0  0  0  0  0
    1.9682    2.9683    0.0000 H   0  0  0  0  0  0  0  0  0  0  0  0
    3.7461    0.1826    0.0000 H   0  0  0  0  0  0  0  0  0  0  0  0
   -0.0648    0.2491    0.0000 H   0  0  0  0  0  0  0  0  0  0  0  0
   -2.0431   -1.7733    0.0000 H   0  0  0  0  0  0  0  0  0  0  0  0
   -2.2655   -0.7267    0.0000 H   0  0  0  0  0  0  0  0  0  0  0  0
   -0.6242    0.4655    0.0000 H   0  0  0  0  0  0  0  0  0  0  0  0
   -2.4370    0.0802    0.0000 H   0  0  0  0  0  0  0  0  0  0  0  0
   -1.6419    0.7961    0.0000 H   0  0  0  0  0  0  0  0  0  0  0  0
   -1.7960   -2.3819    0.0000 H   0  0  0  0  0  0  0  0  0  0  0  0
    0.7075   -3.3838    0.0000 H   0  0  0  0  0  0  0  0  0  0  0  0
    2.0853   -2.9937    0.0000 H   0  0  0  0  0  0  0  0  0  0  0  0
  1  2  2  0  0  0  0
  1  9  1  0  0  0  0
  1 28  1  0  0  0  0
  2  3  1  0  0  0  0
  2  6  1  0  0  0  0
  3  4  1  0  0  0  0
  4  5  1  0  0  0  0
  4 29  1  0  0  0  0
  4 30  1  0  0  0  0
  5  6  1  0  0  0  0
  6  7  2  0  0  0  0
  7  8  1  0  0  0  0
  7 31  1  0  0  0  0
  8  9  2  0  0  0  0
  8 32  1  0  0  0  0
  9 10  1  0  0  0  0
 10 11  2  0  0  0  0
 10 16  1  0  0  0  0
 11 12  1  0  0  0  0
 11 15  1  0  0  0  0
 12 13  1  0  0  0  0
 12 14  2  0  0  0  0
 13 33  1  0  0  0  0
 15 17  1  0  0  0  0
 15 34  1  0  0  0  0
 16 17  2  0  0  0  0
 16 18  1  0  0  0  0
 18 19  2  0  0  0  0
 18 26  1  0  0  0  0
 19 20  1  0  0  0  0
 19 35  1  0  0  0  0
 20 21  1  0  0  0  0
 20 23  2  0  0  0  0
 21 22  1  0  0  0  0
 21 36  1  0  0  0  0
 21 37  1  0  0  0  0
 22 38  1  0  0  0  0
 22 39  1  0  0  0  0
 22 40  1  0  0  0  0
 23 24  1  0  0  0  0
 23 25  1  0  0  0  0
 24 41  1  0  0  0  0
 25 26  2  0  0  0  0
 25 42  1  0  0  0  0
 26 27  1  0  0  0  0
 27 43  1  0  0  0  0
M  END
>  <DRUGBANK_ID>
DB02840

>  <SECONDARY_ACCESSION_NUMBERS>
EXPT00204

>  <COMMON_NAME>
4-(1,3-Benzodioxol-5-Yl)-5-(5-Ethyl-2,4-Dihydroxyphenyl)-2h-Pyrazole-3-Carboxylic Acid

$$$$
