M22
 OpenBabel10282417072D

 41 44  0  0  0  0  0  0  0  0999 V2000
    0.3749   -1.1193    0.0000 C   0  0  0  0  0  0  0  0  0  0  0  0
   -0.4321   -1.2908    0.0000 C   0  0  0  0  0  0  0  0  0  0  0  0
   -0.9841   -0.6777    0.0000 C   0  0  0  0  0  0  0  0  0  0  0  0
   -0.7292    0.1069    0.0000 C   0  0  0  0  0  0  0  0  0  0  0  0
    0.0778    0.2784    0.0000 C   0  0  0  0  0  0  0  0  0  0  0  0
    0.6298   -0.3347    0.0000 C   0  0  0  0  0  0  0  0  0  0  0  0
   -0.1350   -2.6885    0.0000 C   0  0  0  0  0  0  0  0  0  0  0  0
    0.6720   -2.5170    0.0000 C   0  0  0  0  0  0  0  0  0  0  0  0
    1.2240   -3.1301    0.0000 C   0  0  0  0  0  0  0  0  0  0  0  0
    0.9691   -3.9147    0.0000 C   0  0  0  0  0  0  0  0  0  0  0  0
    0.1621   -4.0863    0.0000 C   0  0  0  0  0  0  0  0  0  0  0  0
   -0.3899   -3.4732    0.0000 C   0  0  0  0  0  0  0  0  0  0  0  0
    0.9269   -1.7324    0.0000 O   0  0  0  0  0  0  0  0  0  0  0  0
   -1.1969   -3.6447    0.0000 Cl  0  0  0  0  0  0  0  0  0  0  0  0
    0.3327    1.0630    0.0000 O   0  0  0  0  0  0  0  0  0  0  0  0
   -0.2193    1.6761    0.0000 C   0  0  0  0  0  0  0  0  0  0  0  0
    0.0356    2.4608    0.0000 C   0  0  0  0  0  0  0  0  0  0  0  0
   -0.4493    3.1282    0.0000 N   0  0  0  0  0  0  0  0  0  0  0  0
    0.0356    3.7956    0.0000 N   0  0  0  0  0  0  0  0  0  0  0  0
    0.8202    2.7157    0.0000 C   0  0  0  0  0  0  0  0  0  0  0  0
    0.8202    3.5407    0.0000 C   0  0  0  0  0  0  0  0  0  0  0  0
    1.5347    3.9532    0.0000 C   0  0  0  0  0  0  0  0  0  0  0  0
    2.2492    3.5407    0.0000 C   0  0  0  0  0  0  0  0  0  0  0  0
    2.2492    2.7157    0.0000 C   0  0  0  0  0  0  0  0  0  0  0  0
    1.5347    2.3032    0.0000 C   0  0  0  0  0  0  0  0  0  0  0  0
   -0.6870   -2.0754    0.0000 Cl  0  0  0  0  0  0  0  0  0  0  0  0
    1.5211   -4.5278    0.0000 C   0  0  0  0  0  0  0  0  0  0  0  0
    2.0731   -5.1409    0.0000 N   0  0  0  0  0  0  0  0  0  0  0  0
   -1.9935   -0.8923    0.0000 H   0  0  0  0  0  0  0  0  0  0  0  0
   -1.4197    0.8738    0.0000 H   0  0  0  0  0  0  0  0  0  0  0  0
    1.6392   -0.1201    0.0000 H   0  0  0  0  0  0  0  0  0  0  0  0
   -0.8256   -1.9216    0.0000 H   0  0  0  0  0  0  0  0  0  0  0  0
    2.2334   -2.9155    0.0000 H   0  0  0  0  0  0  0  0  0  0  0  0
   -0.1568   -5.0678    0.0000 H   0  0  0  0  0  0  0  0  0  0  0  0
   -1.2659    1.4536    0.0000 H   0  0  0  0  0  0  0  0  0  0  0  0
   -0.9353    2.4712    0.0000 H   0  0  0  0  0  0  0  0  0  0  0  0
   -0.2686    4.7319    0.0000 H   0  0  0  0  0  0  0  0  0  0  0  0
    1.5347    4.9852    0.0000 H   0  0  0  0  0  0  0  0  0  0  0  0
    3.1429    4.0567    0.0000 H   0  0  0  0  0  0  0  0  0  0  0  0
    3.1429    2.1997    0.0000 H   0  0  0  0  0  0  0  0  0  0  0  0
    1.5347    1.2712    0.0000 H   0  0  0  0  0  0  0  0  0  0  0  0
  1  2  2  0  0  0  0
  1  6  1  0  0  0  0
  1 13  1  0  0  0  0
  2  3  1  0  0  0  0
  2 26  1  0  0  0  0
  3  4  2  0  0  0  0
  3 29  1  0  0  0  0
  4  5  1  0  0  0  0
  4 30  1  0  0  0  0
  5  6  2  0  0  0  0
  5 15  1  0  0  0  0
  6 31  1  0  0  0  0
  7  8  2  0  0  0  0
  7 12  1  0  0  0  0
  7 32  1  0  0  0  0
  8  9  1  0  0  0  0
  8 13  1  0  0  0  0
  9 10  2  0  0  0  0
  9 33  1  0  0  0  0
 10 11  1  0  0  0  0
 10 27  1  0  0  0  0
 11 12  2  0  0  0  0
 11 34  1  0  0  0  0
 12 14  1  0  0  0  0
 15 16  1  0  0  0  0
 16 17  1  0  0  0  0
 16 35  1  0  0  0  0
 16 36  1  0  0  0  0
 17 18  2  0  0  0  0
 17 20  1  0  0  0  0
 18 19  1  0  0  0  0
 19 21  1  0  0  0  0
 19 37  1  0  0  0  0
 20 21  2  0  0  0  0
 20 25  1  0  0  0  0
 21 22  1  0  0  0  0
 22 23  2  0  0  0  0
 22 38  1  0  0  0  0
 23 24  1  0  0  0  0
 23 39  1  0  0  0  0
 24 25  2  0  0  0  0
 24 40  1  0  0  0  0
 25 41  1  0  0  0  0
 27 28  3  0  0  0  0
M  END
>  <DRUGBANK_ID>
DB08154

>  <COMMON_NAME>
3-chloro-5-[2-chloro-5-(1H-indazol-3-ylmethoxy)phenoxy]benzonitrile

$$$$
