783
 OpenBabel10282417072D

 46 49  0  0  0  0  0  0  0  0999 V2000
    3.0543   -0.0997    0.0000 C   0  0  0  0  0  0  0  0  0  0  0  0
    3.0543   -0.9247    0.0000 C   0  0  0  0  0  0  0  0  0  0  0  0
    2.3398   -1.3372    0.0000 C   0  0  0  0  0  0  0  0  0  0  0  0
    1.6253   -0.9247    0.0000 C   0  0  0  0  0  0  0  0  0  0  0  0
    1.6253   -0.0997    0.0000 C   0  0  0  0  0  0  0  0  0  0  0  0
    2.3398    0.3128    0.0000 C   0  0  0  0  0  0  0  0  0  0  0  0
    3.7687    0.3128    0.0000 C   0  0  0  0  0  0  0  0  0  0  0  0
    4.4832   -0.0997    0.0000 N   0  0  0  0  0  0  0  0  0  0  0  0
    3.7687    1.1378    0.0000 N   0  3  0  0  0  0  0  0  0  0  0  0
    0.8407   -1.1797    0.0000 N   0  0  0  0  0  0  0  0  0  0  0  0
    0.8407    0.1552    0.0000 C   0  0  0  0  0  0  0  0  0  0  0  0
    0.3558   -0.5122    0.0000 C   0  0  0  0  0  0  0  0  0  0  0  0
   -0.4692   -0.5122    0.0000 C   0  0  0  0  0  0  0  0  0  0  0  0
   -0.8817   -1.2267    0.0000 C   0  0  0  0  0  0  0  0  0  0  0  0
   -1.7067   -1.2267    0.0000 C   0  0  0  0  0  0  0  0  0  0  0  0
   -2.1192   -1.9412    0.0000 O   0  0  0  0  0  0  0  0  0  0  0  0
   -2.9442   -1.9412    0.0000 C   0  0  0  0  0  0  0  0  0  0  0  0
   -2.1192   -0.5122    0.0000 C   0  0  0  0  0  0  0  0  0  0  0  0
   -1.7067    0.2023    0.0000 C   0  0  0  0  0  0  0  0  0  0  0  0
   -0.8817    0.2023    0.0000 C   0  0  0  0  0  0  0  0  0  0  0  0
   -0.4692    0.9167    0.0000 O   0  5  0  0  0  0  0  0  0  0  0  0
   -2.1192    0.9167    0.0000 C   0  0  0  0  0  0  0  0  0  0  0  0
   -2.9442    0.9167    0.0000 C   0  0  0  0  0  0  0  0  0  0  0  0
   -3.3567    1.6312    0.0000 C   0  0  0  0  0  0  0  0  0  0  0  0
   -2.9442    2.3457    0.0000 C   0  0  0  0  0  0  0  0  0  0  0  0
   -2.1192    2.3457    0.0000 C   0  0  0  0  0  0  0  0  0  0  0  0
   -1.7067    1.6312    0.0000 C   0  0  0  0  0  0  0  0  0  0  0  0
    3.9480   -1.4407    0.0000 H   0  0  0  0  0  0  0  0  0  0  0  0
    2.3398   -2.3692    0.0000 H   0  0  0  0  0  0  0  0  0  0  0  0
    2.3398    1.3448    0.0000 H   0  0  0  0  0  0  0  0  0  0  0  0
    4.4832   -1.0842    0.0000 H   0  0  0  0  0  0  0  0  0  0  0  0
    5.3358    0.3926    0.0000 H   0  0  0  0  0  0  0  0  0  0  0  0
    4.6213    1.6301    0.0000 H   0  0  0  0  0  0  0  0  0  0  0  0
    2.9161    1.6300    0.0000 H   0  0  0  0  0  0  0  0  0  0  0  0
    0.5365   -2.1160    0.0000 H   0  0  0  0  0  0  0  0  0  0  0  0
    0.5218    1.1367    0.0000 H   0  0  0  0  0  0  0  0  0  0  0  0
   -0.3657   -2.1204    0.0000 H   0  0  0  0  0  0  0  0  0  0  0  0
   -3.4792   -1.0146    0.0000 H   0  0  0  0  0  0  0  0  0  0  0  0
   -3.4792   -2.8678    0.0000 H   0  0  0  0  0  0  0  0  0  0  0  0
   -4.0142   -1.9412    0.0000 H   0  0  0  0  0  0  0  0  0  0  0  0
   -3.1512   -0.5122    0.0000 H   0  0  0  0  0  0  0  0  0  0  0  0
   -3.4602    0.0230    0.0000 H   0  0  0  0  0  0  0  0  0  0  0  0
   -4.3887    1.6312    0.0000 H   0  0  0  0  0  0  0  0  0  0  0  0
   -3.4602    3.2394    0.0000 H   0  0  0  0  0  0  0  0  0  0  0  0
   -1.6032    3.2394    0.0000 H   0  0  0  0  0  0  0  0  0  0  0  0
   -0.6747    1.6312    0.0000 H   0  0  0  0  0  0  0  0  0  0  0  0
  1  2  2  0  0  0  0
  1  6  1  0  0  0  0
  1  7  1  0  0  0  0
  2  3  1  0  0  0  0
  2 28  1  0  0  0  0
  3  4  2  0  0  0  0
  3 29  1  0  0  0  0
  4  5  1  0  0  0  0
  4 10  1  0  0  0  0
  5  6  2  0  0  0  0
  5 11  1  0  0  0  0
  6 30  1  0  0  0  0
  7  8  1  0  0  0  0
  7  9  2  0  0  0  0
  8 31  1  0  0  0  0
  8 32  1  0  0  0  0
  9 33  1  0  0  0  0
  9 34  1  0  0  0  0
 10 12  1  0  0  0  0
 10 35  1  0  0  0  0
 11 12  2  0  0  0  0
 11 36  1  0  0  0  0
 12 13  1  0  0  0  0
 13 14  2  0  0  0  0
 13 20  1  0  0  0  0
 14 15  1  0  0  0  0
 14 37  1  0  0  0  0
 15 16  1  0  0  0  0
 15 18  2  0  0  0  0
 16 17  1  0  0  0  0
 17 38  1  0  0  0  0
 17 39  1  0  0  0  0
 17 40  1  0  0  0  0
 18 19  1  0  0  0  0
 18 41  1  0  0  0  0
 19 20  2  0  0  0  0
 19 22  1  0  0  0  0
 20 21  1  0  0  0  0
 22 23  2  0  0  0  0
 22 27  1  0  0  0  0
 23 24  1  0  0  0  0
 23 42  1  0  0  0  0
 24 25  2  0  0  0  0
 24 43  1  0  0  0  0
 25 26  1  0  0  0  0
 25 44  1  0  0  0  0
 26 27  2  0  0  0  0
 26 45  1  0  0  0  0
 27 46  1  0  0  0  0
M  CHG  2   9   1  21  -1
M  END
>  <DRUGBANK_ID>
DB07229

>  <COMMON_NAME>
3-{5-[AMINO(IMINIO)METHYL]-1H-INDOL-2-YL}-5-METHOXY-1,1'-BIPHENYL-2-OLATE

$$$$
