
 OpenBabel10282417072D

106110  0  0  0  0  0  0  0  0999 V2000
    0.7144    5.1722    0.0000 Cl  0  0  0  0  0  0  0  0  0  0  0  0
   -1.4520   -4.5451    0.0000 O   0  0  0  0  0  0  0  0  0  0  0  0
    0.7144   -0.6027    0.0000 O   0  0  0  0  0  0  0  0  0  0  0  0
    1.4289   -3.4902    0.0000 O   0  0  0  0  0  0  0  0  0  0  0  0
   -2.1433   -0.6027    0.0000 O   0  0  0  0  0  0  0  0  0  0  0  0
   -1.4289    3.1097    0.0000 O   0  0  0  0  0  0  0  0  0  0  0  0
    0.0000   -3.4902    0.0000 N   0  0  0  0  0  0  0  0  0  0  0  0
   -0.7144    0.2222    0.0000 N   0  0  0  0  0  0  0  0  0  0  0  0
   -0.7144    1.8722    0.0000 N   0  0  0  0  0  0  0  0  0  0  0  0
   -2.8578    0.6347    0.0000 N   0  0  0  0  0  0  0  0  0  0  0  0
    2.1433    4.3472    0.0000 N   0  0  0  0  0  0  0  0  0  0  0  0
    3.5723    5.1722    0.0000 N   0  0  0  0  0  0  0  0  0  0  0  0
    0.0000    3.9347    0.0000 N   0  0  0  0  0  0  0  0  0  0  0  0
    1.4289    3.1097    0.0000 N   0  0  0  0  0  0  0  0  0  0  0  0
    0.0000   -4.3152    0.0000 C   0  0  1  0  0  0  0  0  0  0  0  0
    0.6674   -4.8001    0.0000 C   0  0  2  0  0  0  0  0  0  0  0  0
   -0.6674   -4.8001    0.0000 C   0  0  1  0  0  0  0  0  0  0  0  0
    0.4125   -5.5847    0.0000 C   0  0  0  0  0  0  0  0  0  0  0  0
   -0.4124   -5.5847    0.0000 C   0  0  0  0  0  0  0  0  0  0  0  0
    1.4520   -4.5451    0.0000 C   0  0  0  0  0  0  0  0  0  0  0  0
    0.7144   -2.2527    0.0000 C   0  0  1  0  0  0  0  0  0  0  0  0
    0.7144   -3.0777    0.0000 C   0  0  0  0  0  0  0  0  0  0  0  0
    0.0000   -1.8402    0.0000 C   0  0  0  0  0  0  0  0  0  0  0  0
    0.0000   -1.0152    0.0000 C   0  0  1  0  0  0  0  0  0  0  0  0
   -1.4289    0.6347    0.0000 C   0  0  1  0  0  0  0  0  0  0  0  0
   -0.7144   -0.6027    0.0000 C   0  0  0  0  0  0  0  0  0  0  0  0
    0.0000    0.6347    0.0000 C   0  0  0  0  0  0  0  0  0  0  0  0
   -1.4289    1.4597    0.0000 C   0  0  0  0  0  0  0  0  0  0  0  0
    1.4289   -1.8402    0.0000 C   0  0  0  0  0  0  0  0  0  0  0  0
    0.0000    1.4597    0.0000 C   0  0  0  0  0  0  0  0  0  0  0  0
   -2.1433    0.2222    0.0000 C   0  0  0  0  0  0  0  0  0  0  0  0
    2.1433   -2.2527    0.0000 C   0  0  0  0  0  0  0  0  0  0  0  0
   -3.5723    0.2222    0.0000 C   0  0  0  0  0  0  0  0  0  0  0  0
   -0.7144    2.6972    0.0000 C   0  0  0  0  0  0  0  0  0  0  0  0
    2.8579   -1.8402    0.0000 C   0  0  0  0  0  0  0  0  0  0  0  0
    2.1433   -3.0777    0.0000 C   0  0  0  0  0  0  0  0  0  0  0  0
    0.0000    3.1097    0.0000 C   0  0  0  0  0  0  0  0  0  0  0  0
   -4.2868   -0.1902    0.0000 C   0  0  0  0  0  0  0  0  0  0  0  0
   -3.9848    0.9367    0.0000 C   0  0  0  0  0  0  0  0  0  0  0  0
   -3.1598   -0.4921    0.0000 C   0  0  0  0  0  0  0  0  0  0  0  0
    3.5723   -2.2527    0.0000 C   0  0  0  0  0  0  0  0  0  0  0  0
    2.8579   -3.4902    0.0000 C   0  0  0  0  0  0  0  0  0  0  0  0
    2.1433    5.1722    0.0000 C   0  0  0  0  0  0  0  0  0  0  0  0
    2.8579    3.9347    0.0000 C   0  0  0  0  0  0  0  0  0  0  0  0
    0.7144    2.6972    0.0000 C   0  0  0  0  0  0  0  0  0  0  0  0
    2.8579    5.5847    0.0000 C   0  0  0  0  0  0  0  0  0  0  0  0
    3.5723    4.3472    0.0000 C   0  0  0  0  0  0  0  0  0  0  0  0
    3.5723   -3.0777    0.0000 C   0  0  0  0  0  0  0  0  0  0  0  0
    1.4289    3.9347    0.0000 C   0  0  0  0  0  0  0  0  0  0  0  0
    0.7144    4.3472    0.0000 C   0  0  0  0  0  0  0  0  0  0  0  0
    4.2868    5.5847    0.0000 C   0  0  0  0  0  0  0  0  0  0  0  0
   -0.4429   -3.2344    0.0000 H   0  0  0  0  0  0  0  0  0  0  0  0
   -2.8578    1.1462    0.0000 H   0  0  0  0  0  0  0  0  0  0  0  0
   -1.6536   -3.5963    0.0000 H   0  0  0  0  0  0  0  0  0  0  0  0
    1.5545   -1.0877    0.0000 H   0  0  0  0  0  0  0  0  0  0  0  0
    0.9534   -3.8294    0.0000 H   0  0  0  0  0  0  0  0  0  0  0  0
    0.8347   -3.7433    0.0000 H   0  0  0  0  0  0  0  0  0  0  0  0
   -0.8347   -3.7433    0.0000 H   0  0  0  0  0  0  0  0  0  0  0  0
    1.0414   -6.4503    0.0000 H   0  0  0  0  0  0  0  0  0  0  0  0
   -0.0733   -6.5381    0.0000 H   0  0  0  0  0  0  0  0  0  0  0  0
   -1.0413   -6.4504    0.0000 H   0  0  0  0  0  0  0  0  0  0  0  0
    0.0734   -6.5381    0.0000 H   0  0  0  0  0  0  0  0  0  0  0  0
    2.2472   -5.2610    0.0000 H   0  0  0  0  0  0  0  0  0  0  0  0
    1.6744   -3.4985    0.0000 H   0  0  0  0  0  0  0  0  0  0  0  0
    2.4696   -4.2144    0.0000 H   0  0  0  0  0  0  0  0  0  0  0  0
   -0.2123   -2.7877    0.0000 H   0  0  0  0  0  0  0  0  0  0  0  0
   -0.9267   -2.3752    0.0000 H   0  0  0  0  0  0  0  0  0  0  0  0
   -0.9266   -1.3052    0.0000 H   0  0  0  0  0  0  0  0  0  0  0  0
    0.9267   -1.5502    0.0000 H   0  0  0  0  0  0  0  0  0  0  0  0
   -1.4289   -0.4353    0.0000 H   0  0  0  0  0  0  0  0  0  0  0  0
   -1.6411   -1.1377    0.0000 H   0  0  0  0  0  0  0  0  0  0  0  0
   -0.7144   -1.6727    0.0000 H   0  0  0  0  0  0  0  0  0  0  0  0
    0.9267    0.0997    0.0000 H   0  0  0  0  0  0  0  0  0  0  0  0
    0.9266    1.1697    0.0000 H   0  0  0  0  0  0  0  0  0  0  0  0
   -2.3555    1.9947    0.0000 H   0  0  0  0  0  0  0  0  0  0  0  0
   -2.3555    0.9247    0.0000 H   0  0  0  0  0  0  0  0  0  0  0  0
    1.4289   -0.7702    0.0000 H   0  0  0  0  0  0  0  0  0  0  0  0
    2.3556   -1.3052    0.0000 H   0  0  0  0  0  0  0  0  0  0  0  0
    0.9267    1.9947    0.0000 H   0  0  0  0  0  0  0  0  0  0  0  0
    0.9266    0.9247    0.0000 H   0  0  0  0  0  0  0  0  0  0  0  0
    2.8580   -0.8082    0.0000 H   0  0  0  0  0  0  0  0  0  0  0  0
    1.2496   -3.5937    0.0000 H   0  0  0  0  0  0  0  0  0  0  0  0
   -5.2134    0.3449    0.0000 H   0  0  0  0  0  0  0  0  0  0  0  0
   -4.2869   -1.2602    0.0000 H   0  0  0  0  0  0  0  0  0  0  0  0
   -5.2135   -0.7251    0.0000 H   0  0  0  0  0  0  0  0  0  0  0  0
   -3.4498    1.8633    0.0000 H   0  0  0  0  0  0  0  0  0  0  0  0
   -5.0548    0.9367    0.0000 H   0  0  0  0  0  0  0  0  0  0  0  0
   -4.5198    1.8634    0.0000 H   0  0  0  0  0  0  0  0  0  0  0  0
   -3.6947   -1.4188    0.0000 H   0  0  0  0  0  0  0  0  0  0  0  0
   -2.0898   -0.4920    0.0000 H   0  0  0  0  0  0  0  0  0  0  0  0
   -2.6247   -1.4187    0.0000 H   0  0  0  0  0  0  0  0  0  0  0  0
    4.4660   -1.7367    0.0000 H   0  0  0  0  0  0  0  0  0  0  0  0
    2.8580   -4.5222    0.0000 H   0  0  0  0  0  0  0  0  0  0  0  0
    1.2167    5.7072    0.0000 H   0  0  0  0  0  0  0  0  0  0  0  0
    2.1434    6.2422    0.0000 H   0  0  0  0  0  0  0  0  0  0  0  0
    2.8580    2.8647    0.0000 H   0  0  0  0  0  0  0  0  0  0  0  0
    3.7846    3.3997    0.0000 H   0  0  0  0  0  0  0  0  0  0  0  0
    0.7144    1.6652    0.0000 H   0  0  0  0  0  0  0  0  0  0  0  0
    2.8580    6.6547    0.0000 H   0  0  0  0  0  0  0  0  0  0  0  0
    1.9313    6.1198    0.0000 H   0  0  0  0  0  0  0  0  0  0  0  0
    4.4990    3.8122    0.0000 H   0  0  0  0  0  0  0  0  0  0  0  0
    3.5723    3.2772    0.0000 H   0  0  0  0  0  0  0  0  0  0  0  0
    4.4660   -3.5937    0.0000 H   0  0  0  0  0  0  0  0  0  0  0  0
    5.2134    5.0497    0.0000 H   0  0  0  0  0  0  0  0  0  0  0  0
    4.2868    6.6547    0.0000 H   0  0  0  0  0  0  0  0  0  0  0  0
    5.2135    6.1197    0.0000 H   0  0  0  0  0  0  0  0  0  0  0  0
  1 50  1  0  0  0  0
  2 54  1  0  0  0  0
  3 55  1  0  0  0  0
  4 22  2  0  0  0  0
  5 31  2  0  0  0  0
  6 34  2  0  0  0  0
  7 22  1  0  0  0  0
  7 52  1  0  0  0  0
  8 25  1  0  0  0  0
  8 26  1  0  0  0  0
  8 27  1  0  0  0  0
  9 28  1  0  0  0  0
  9 30  1  0  0  0  0
  9 34  1  0  0  0  0
 10 31  1  0  0  0  0
 10 33  1  0  0  0  0
 10 53  1  0  0  0  0
 11 43  1  0  0  0  0
 11 44  1  0  0  0  0
 11 49  1  0  0  0  0
 12 46  1  0  0  0  0
 12 47  1  0  0  0  0
 12 51  1  0  0  0  0
 13 37  1  0  0  0  0
 13 50  2  0  0  0  0
 14 45  1  0  0  0  0
 14 49  2  0  0  0  0
 15  7  1  0  0  0  0
 15 16  1  0  0  0  0
 15 17  1  0  0  0  0
 15 56  1  6  0  0  0
 16 18  1  0  0  0  0
 16 20  1  0  0  0  0
 16 57  1  6  0  0  0
 17  2  1  0  0  0  0
 17 19  1  0  0  0  0
 17 58  1  6  0  0  0
 18 19  1  0  0  0  0
 18 59  1  0  0  0  0
 18 60  1  0  0  0  0
 19 61  1  0  0  0  0
 19 62  1  0  0  0  0
 20 63  1  0  0  0  0
 20 64  1  0  0  0  0
 20 65  1  0  0  0  0
 21 22  1  0  0  0  0
 21 23  1  0  0  0  0
 21 29  1  0  0  0  0
 21 66  1  6  0  0  0
 23 24  1  0  0  0  0
 23 67  1  0  0  0  0
 23 68  1  0  0  0  0
 24  3  1  0  0  0  0
 24 26  1  0  0  0  0
 24 69  1  6  0  0  0
 25 28  1  0  0  0  0
 25 31  1  0  0  0  0
 25 70  1  1  0  0  0
 26 71  1  0  0  0  0
 26 72  1  0  0  0  0
 27 30  1  0  0  0  0
 27 73  1  0  0  0  0
 27 74  1  0  0  0  0
 28 75  1  0  0  0  0
 28 76  1  0  0  0  0
 29 32  1  0  0  0  0
 29 77  1  0  0  0  0
 29 78  1  0  0  0  0
 30 79  1  0  0  0  0
 30 80  1  0  0  0  0
 32 35  2  0  0  0  0
 32 36  1  0  0  0  0
 33 38  1  0  0  0  0
 33 39  1  0  0  0  0
 33 40  1  0  0  0  0
 34 37  1  0  0  0  0
 35 41  1  0  0  0  0
 35 81  1  0  0  0  0
 36 42  2  0  0  0  0
 36 82  1  0  0  0  0
 37 45  2  0  0  0  0
 38 83  1  0  0  0  0
 38 84  1  0  0  0  0
 38 85  1  0  0  0  0
 39 86  1  0  0  0  0
 39 87  1  0  0  0  0
 39 88  1  0  0  0  0
 40 89  1  0  0  0  0
 40 90  1  0  0  0  0
 40 91  1  0  0  0  0
 41 48  2  0  0  0  0
 41 92  1  0  0  0  0
 42 48  1  0  0  0  0
 42 93  1  0  0  0  0
 43 46  1  0  0  0  0
 43 94  1  0  0  0  0
 43 95  1  0  0  0  0
 44 47  1  0  0  0  0
 44 96  1  0  0  0  0
 44 97  1  0  0  0  0
 45 98  1  0  0  0  0
 46 99  1  0  0  0  0
 46100  1  0  0  0  0
 47101  1  0  0  0  0
 47102  1  0  0  0  0
 48103  1  0  0  0  0
 49 50  1  0  0  0  0
 51104  1  0  0  0  0
 51105  1  0  0  0  0
 51106  1  0  0  0  0
M  END
>  <DRUGBANK_ID>
DB02785

>  <SECONDARY_ACCESSION_NUMBERS>
EXPT00175

>  <COMMON_NAME>
(2S)-1-[(2S,4R)-4-Benzyl-2-hydroxy-5-{[(1S,2R,5S)-2-hydroxy-5-methylcyclopentyl]amino}-5-oxopentyl]-4-{[6-chloro-5-(4-methyl-1-piperazinyl)-2-pyrazinyl]carbonyl}-N-(2-methyl-2-propanyl)-2-piperazineca rboxamide

$$$$
