
 OpenBabel10282417072D

 64 66  0  0  0  0  0  0  0  0999 V2000
    2.4804   -0.3968    0.0000 N   0  0  0  0  0  0  0  0  0  0  0  0
    1.9383   -1.0115    0.0000 C   0  0  0  0  0  0  0  0  0  0  0  0
    3.2982   -0.4791    0.0000 C   0  0  1  0  0  0  0  0  0  0  0  0
    1.1301   -0.8421    0.0000 C   0  0  0  0  0  0  0  0  0  0  0  0
    2.3061    0.4064    0.0000 C   0  0  0  0  0  0  0  0  0  0  0  0
    0.5831   -1.4567    0.0000 P   0  0  3  0  0  0  0  0  0  0  0  0
    3.6322    0.2758    0.0000 C   0  0  0  0  0  0  0  0  0  0  0  0
    3.0175    0.8275    0.0000 C   0  0  1  0  0  0  0  0  0  0  0  0
    3.7145   -1.1906    0.0000 C   0  0  0  0  0  0  0  0  0  0  0  0
    2.1948   -1.7907    0.0000 O   0  0  0  0  0  0  0  0  0  0  0  0
    0.3653   -0.6581    0.0000 O   0  0  0  0  0  0  0  0  0  0  0  0
    3.3080   -1.9020    0.0000 O   0  0  0  0  0  0  0  0  0  0  0  0
    2.4270    1.4131    0.0000 C   0  0  0  0  0  0  0  0  0  0  0  0
    0.8396   -2.2408    0.0000 O   0  0  0  0  0  0  0  0  0  0  0  0
    4.5373   -1.1808    0.0000 O   0  0  0  0  0  0  0  0  0  0  0  0
   -0.2250   -1.2922    0.0000 C   0  0  0  0  0  0  0  0  0  0  0  0
   -2.9305   -2.1875    0.0000 C   0  0  0  0  0  0  0  0  0  0  0  0
    2.6498    2.2165    0.0000 C   0  0  0  0  0  0  0  0  0  0  0  0
    1.6285    1.2003    0.0000 C   0  0  0  0  0  0  0  0  0  0  0  0
   -2.1222   -2.3569    0.0000 C   0  0  0  0  0  0  0  0  0  0  0  0
   -3.4724   -2.8070    0.0000 C   0  0  0  0  0  0  0  0  0  0  0  0
   -3.1820   -1.4084    0.0000 C   0  0  0  0  0  0  0  0  0  0  0  0
   -0.7719   -1.9068    0.0000 C   0  0  0  0  0  0  0  0  0  0  0  0
   -1.5753   -1.7424    0.0000 C   0  0  0  0  0  0  0  0  0  0  0  0
    1.0430    1.7858    0.0000 C   0  0  0  0  0  0  0  0  0  0  0  0
    2.0640    2.8070    0.0000 C   0  0  0  0  0  0  0  0  0  0  0  0
   -3.9904   -1.2438    0.0000 C   0  0  0  0  0  0  0  0  0  0  0  0
   -4.2710   -2.6376    0.0000 C   0  0  0  0  0  0  0  0  0  0  0  0
   -4.5373   -1.8585    0.0000 C   0  0  0  0  0  0  0  0  0  0  0  0
    1.2608    2.5940    0.0000 C   0  0  0  0  0  0  0  0  0  0  0  0
    3.7242    1.2438    0.0000 H   0  0  0  0  0  0  0  0  0  0  0  0
    2.7200   -1.3794    0.0000 H   0  0  0  0  0  0  0  0  0  0  0  0
    0.7951    0.1741    0.0000 H   0  0  0  0  0  0  0  0  0  0  0  0
    0.0824   -0.6249    0.0000 H   0  0  0  0  0  0  0  0  0  0  0  0
    1.3253    0.8342    0.0000 H   0  0  0  0  0  0  0  0  0  0  0  0
    2.2403    1.4744    0.0000 H   0  0  0  0  0  0  0  0  0  0  0  0
    4.6784    0.5003    0.0000 H   0  0  0  0  0  0  0  0  0  0  0  0
    3.9073    1.3098    0.0000 H   0  0  0  0  0  0  0  0  0  0  0  0
    1.6742    2.1735    0.0000 H   0  0  0  0  0  0  0  0  0  0  0  0
    0.1920   -2.9629    0.0000 H   0  0  0  0  0  0  0  0  0  0  0  0
    5.0154   -1.9866    0.0000 H   0  0  0  0  0  0  0  0  0  0  0  0
   -0.5630   -0.2770    0.0000 H   0  0  0  0  0  0  0  0  0  0  0  0
   -1.2731   -1.0766    0.0000 H   0  0  0  0  0  0  0  0  0  0  0  0
    3.6851    2.4869    0.0000 H   0  0  0  0  0  0  0  0  0  0  0  0
    2.9321    3.2486    0.0000 H   0  0  0  0  0  0  0  0  0  0  0  0
    1.3509    0.1669    0.0000 H   0  0  0  0  0  0  0  0  0  0  0  0
    0.5949    0.9237    0.0000 H   0  0  0  0  0  0  0  0  0  0  0  0
   -1.7872   -3.3731    0.0000 H   0  0  0  0  0  0  0  0  0  0  0  0
   -1.0745   -2.5741    0.0000 H   0  0  0  0  0  0  0  0  0  0  0  0
   -3.1463   -3.7861    0.0000 H   0  0  0  0  0  0  0  0  0  0  0  0
   -2.4940   -0.6392    0.0000 H   0  0  0  0  0  0  0  0  0  0  0  0
   -0.4344   -2.9222    0.0000 H   0  0  0  0  0  0  0  0  0  0  0  0
   -1.4822   -2.7071    0.0000 H   0  0  0  0  0  0  0  0  0  0  0  0
   -1.9127   -0.7270    0.0000 H   0  0  0  0  0  0  0  0  0  0  0  0
   -0.8650   -0.9421    0.0000 H   0  0  0  0  0  0  0  0  0  0  0  0
    0.0093    1.5096    0.0000 H   0  0  0  0  0  0  0  0  0  0  0  0
    0.2872    2.5432    0.0000 H   0  0  0  0  0  0  0  0  0  0  0  0
    2.3443    3.8396    0.0000 H   0  0  0  0  0  0  0  0  0  0  0  0
    1.3096    3.5658    0.0000 H   0  0  0  0  0  0  0  0  0  0  0  0
   -4.3164   -0.2646    0.0000 H   0  0  0  0  0  0  0  0  0  0  0  0
   -4.9555   -3.4099    0.0000 H   0  0  0  0  0  0  0  0  0  0  0  0
   -5.5490   -1.6546    0.0000 H   0  0  0  0  0  0  0  0  0  0  0  0
    0.5057    3.3521    0.0000 H   0  0  0  0  0  0  0  0  0  0  0  0
    1.5401    3.6269    0.0000 H   0  0  0  0  0  0  0  0  0  0  0  0
  2  1  1  0  0  0  0
  3  1  1  0  0  0  0
  3  9  1  0  0  0  0
  3 32  1  6  0  0  0
  4  2  1  0  0  0  0
  4 33  1  0  0  0  0
  4 34  1  0  0  0  0
  5  1  1  0  0  0  0
  5 35  1  0  0  0  0
  5 36  1  0  0  0  0
  6  4  1  0  0  0  0
  7  3  1  0  0  0  0
  7 37  1  0  0  0  0
  7 38  1  0  0  0  0
  8  5  1  0  0  0  0
  8 13  1  0  0  0  0
  8 31  1  1  0  0  0
  8  7  1  0  0  0  0
 10  2  2  0  0  0  0
 11  6  2  0  0  0  0
 12  9  2  0  0  0  0
 13 39  1  0  0  0  0
 14  6  1  0  0  0  0
 14 40  1  0  0  0  0
 15  9  1  0  0  0  0
 15 41  1  0  0  0  0
 16  6  1  0  0  0  0
 16 42  1  0  0  0  0
 16 43  1  0  0  0  0
 17 20  1  0  0  0  0
 18 13  1  0  0  0  0
 18 44  1  0  0  0  0
 18 45  1  0  0  0  0
 19 13  1  0  0  0  0
 19 46  1  0  0  0  0
 19 47  1  0  0  0  0
 20 24  1  0  0  0  0
 20 48  1  0  0  0  0
 20 49  1  0  0  0  0
 21 17  1  0  0  0  0
 21 50  1  0  0  0  0
 22 17  2  0  0  0  0
 22 51  1  0  0  0  0
 23 16  1  0  0  0  0
 23 52  1  0  0  0  0
 23 53  1  0  0  0  0
 24 23  1  0  0  0  0
 24 54  1  0  0  0  0
 24 55  1  0  0  0  0
 25 19  1  0  0  0  0
 25 56  1  0  0  0  0
 25 57  1  0  0  0  0
 26 18  1  0  0  0  0
 26 58  1  0  0  0  0
 26 59  1  0  0  0  0
 27 22  1  0  0  0  0
 27 60  1  0  0  0  0
 28 21  2  0  0  0  0
 28 61  1  0  0  0  0
 29 28  1  0  0  0  0
 29 27  2  0  0  0  0
 29 62  1  0  0  0  0
 30 25  1  0  0  0  0
 30 26  1  0  0  0  0
 30 63  1  0  0  0  0
 30 64  1  0  0  0  0
M  END
>  <DRUGBANK_ID>
DB14207

>  <COMMON_NAME>
Fosinoprilat

>  <CAS_NUMBER>
95399-71-6

>  <UNII>
S312EY6ZT8

>  <SYNONYMS>
Fosinopril diacid; Fosinoprilat; Fosinoprilatum; Fosinoprilic acid

$$$$
