136
 OpenBabel10282417072D

 35 36  0  0  0  0  0  0  0  0999 V2000
    0.1196    2.3745    0.0000 C   0  0  0  0  0  0  0  0  0  0  0  0
    0.8340    1.9620    0.0000 C   0  0  0  0  0  0  0  0  0  0  0  0
    1.5485    2.3745    0.0000 Cl  0  0  0  0  0  0  0  0  0  0  0  0
    0.8340    1.1370    0.0000 C   0  0  0  0  0  0  0  0  0  0  0  0
    0.1196    0.7245    0.0000 C   0  0  0  0  0  0  0  0  0  0  0  0
   -0.5949    1.1370    0.0000 C   0  0  0  0  0  0  0  0  0  0  0  0
   -0.5949    1.9620    0.0000 C   0  0  0  0  0  0  0  0  0  0  0  0
    0.1196    3.1995    0.0000 C   0  0  0  0  0  0  0  0  0  0  0  0
   -0.5949    3.6120    0.0000 N   0  0  0  0  0  0  0  0  0  0  0  0
    0.8340    3.6120    0.0000 N   0  0  0  0  0  0  0  0  0  0  0  0
    0.1196   -0.1005    0.0000 N   0  0  0  0  0  0  0  0  0  0  0  0
    0.8340   -0.5130    0.0000 C   0  0  0  0  0  0  0  0  0  0  0  0
    1.5485   -0.1005    0.0000 O   0  0  0  0  0  0  0  0  0  0  0  0
    0.8340   -1.3380    0.0000 C   0  0  0  0  0  0  0  0  0  0  0  0
    1.5485   -1.7505    0.0000 C   0  0  0  0  0  0  0  0  0  0  0  0
    1.5485   -2.5755    0.0000 C   0  0  0  0  0  0  0  0  0  0  0  0
    2.2630   -2.9880    0.0000 C   0  0  0  0  0  0  0  0  0  0  0  0
    0.8340   -2.9880    0.0000 C   0  0  0  0  0  0  0  0  0  0  0  0
    0.1196   -2.5755    0.0000 C   0  0  0  0  0  0  0  0  0  0  0  0
   -0.5949   -2.9880    0.0000 I   0  0  0  0  0  0  0  0  0  0  0  0
    0.1196   -1.7505    0.0000 C   0  0  0  0  0  0  0  0  0  0  0  0
   -0.5949   -1.3380    0.0000 O   0  0  0  0  0  0  0  0  0  0  0  0
    1.7277    0.6210    0.0000 H   0  0  0  0  0  0  0  0  0  0  0  0
   -1.4886    0.6210    0.0000 H   0  0  0  0  0  0  0  0  0  0  0  0
   -1.4886    2.4780    0.0000 H   0  0  0  0  0  0  0  0  0  0  0  0
   -0.5949    4.5965    0.0000 H   0  0  0  0  0  0  0  0  0  0  0  0
   -1.4475    3.1197    0.0000 H   0  0  0  0  0  0  0  0  0  0  0  0
    1.6866    3.1198    0.0000 H   0  0  0  0  0  0  0  0  0  0  0  0
   -0.7330   -0.5927    0.0000 H   0  0  0  0  0  0  0  0  0  0  0  0
    2.4422   -1.2345    0.0000 H   0  0  0  0  0  0  0  0  0  0  0  0
    2.2630   -4.0580    0.0000 H   0  0  0  0  0  0  0  0  0  0  0  0
    3.1896   -2.4530    0.0000 H   0  0  0  0  0  0  0  0  0  0  0  0
    3.1897   -3.5230    0.0000 H   0  0  0  0  0  0  0  0  0  0  0  0
    0.8340   -4.0200    0.0000 H   0  0  0  0  0  0  0  0  0  0  0  0
   -0.5949   -0.4010    0.0000 H   0  0  0  0  0  0  0  0  0  0  0  0
  1  2  2  0  0  0  0
  1  7  1  0  0  0  0
  1  8  1  0  0  0  0
  2  3  1  0  0  0  0
  2  4  1  0  0  0  0
  4  5  2  0  0  0  0
  4 23  1  0  0  0  0
  5  6  1  0  0  0  0
  5 11  1  0  0  0  0
  6  7  2  0  0  0  0
  6 24  1  0  0  0  0
  7 25  1  0  0  0  0
  8  9  1  0  0  0  0
  8 10  2  0  0  0  0
  9 26  1  0  0  0  0
  9 27  1  0  0  0  0
 10 28  1  0  0  0  0
 11 12  1  0  0  0  0
 11 29  1  0  0  0  0
 12 13  2  0  0  0  0
 12 14  1  0  0  0  0
 14 15  2  0  0  0  0
 14 21  1  0  0  0  0
 15 16  1  0  0  0  0
 15 30  1  0  0  0  0
 16 17  1  0  0  0  0
 16 18  2  0  0  0  0
 17 31  1  0  0  0  0
 17 32  1  0  0  0  0
 17 33  1  0  0  0  0
 18 19  1  0  0  0  0
 18 34  1  0  0  0  0
 19 20  1  0  0  0  0
 19 21  2  0  0  0  0
 21 22  1  0  0  0  0
 22 35  1  0  0  0  0
M  END
>  <DRUGBANK_ID>
DB06857

>  <COMMON_NAME>
N-(4-CARBAMIMIDOYL-3-CHORO-PHENYL)-2-HYDROXY-3-IODO-5-METHYL-BENZAMIDE

$$$$
