
 OpenBabel10282417072D

  4  3  0  0  0  0  0  0  0  0999 V2000
   -0.2086   -0.0036    0.0000 Mo  0  0  0  0  0  0  0  0  0  0  0  0
   -0.6186    0.7123    0.0000 O   0  0  0  0  0  0  0  0  0  0  0  0
   -0.6186   -0.7123    0.0000 O   0  0  0  0  0  0  0  0  0  0  0  0
    0.6186   -0.0036    0.0000 O   0  0  0  0  0  0  0  0  0  0  0  0
  1  2  2  0  0  0  0
  1  3  2  0  0  0  0
  1  4  2  0  0  0  0
M  END
>  <DRUGBANK_ID>
DB15924

>  <COMMON_NAME>
Molybdenum trioxide

>  <CAS_NUMBER>
1313-27-5

>  <UNII>
22FQ3F03YS

$$$$
