GD7
 OpenBabel10282417072D

 27 26  0  0  0  0  0  0  0  0999 V2000
   -1.7650    0.5459    0.0000 C   0  0  0  0  0  0  0  0  0  0  0  0
   -1.4630   -0.5811    0.0000 C   0  0  0  0  0  0  0  0  0  0  0  0
   -0.6379    0.8480    0.0000 C   0  0  0  0  0  0  0  0  0  0  0  0
   -0.3360   -1.1042    0.0000 C   0  0  0  0  0  0  0  0  0  0  0  0
   -0.3360   -0.2791    0.0000 C   0  0  2  0  0  0  0  0  0  0  0  0
   -1.0505    0.1334    0.0000 C   0  0  0  0  0  0  0  0  0  0  0  0
    1.8075    0.1334    0.0000 C   0  0  0  0  0  0  0  0  0  0  0  0
    0.3785    0.1334    0.0000 O   0  0  0  0  0  0  0  0  0  0  0  0
    1.0931   -0.2791    0.0000 P   0  0  1  0  0  0  0  0  0  0  0  0
    1.0931   -1.1042    0.0000 O   0  0  0  0  0  0  0  0  0  0  0  0
   -0.9111   -0.1777    0.0000 H   0  0  0  0  0  0  0  0  0  0  0  0
    1.0931    0.4495    0.0000 H   0  0  0  0  0  0  0  0  0  0  0  0
   -1.7650    1.6159    0.0000 H   0  0  0  0  0  0  0  0  0  0  0  0
   -2.6916    0.0109    0.0000 H   0  0  0  0  0  0  0  0  0  0  0  0
   -2.6917    1.0809    0.0000 H   0  0  0  0  0  0  0  0  0  0  0  0
   -2.5330   -0.5811    0.0000 H   0  0  0  0  0  0  0  0  0  0  0  0
   -0.9280   -1.5077    0.0000 H   0  0  0  0  0  0  0  0  0  0  0  0
   -1.9980   -1.5078    0.0000 H   0  0  0  0  0  0  0  0  0  0  0  0
    0.4321    0.8480    0.0000 H   0  0  0  0  0  0  0  0  0  0  0  0
   -1.1729    1.7747    0.0000 H   0  0  0  0  0  0  0  0  0  0  0  0
   -0.1029    1.7746    0.0000 H   0  0  0  0  0  0  0  0  0  0  0  0
   -1.2626   -1.6392    0.0000 H   0  0  0  0  0  0  0  0  0  0  0  0
    0.5906   -1.6392    0.0000 H   0  0  0  0  0  0  0  0  0  0  0  0
   -0.3360   -2.1742    0.0000 H   0  0  0  0  0  0  0  0  0  0  0  0
    2.7342   -0.4016    0.0000 H   0  0  0  0  0  0  0  0  0  0  0  0
    1.8075    1.2034    0.0000 H   0  0  0  0  0  0  0  0  0  0  0  0
    2.7341    0.6684    0.0000 H   0  0  0  0  0  0  0  0  0  0  0  0
  1  6  1  0  0  0  0
  1 13  1  0  0  0  0
  1 14  1  0  0  0  0
  1 15  1  0  0  0  0
  2  6  1  0  0  0  0
  2 16  1  0  0  0  0
  2 17  1  0  0  0  0
  2 18  1  0  0  0  0
  3  6  1  0  0  0  0
  3 19  1  0  0  0  0
  3 20  1  0  0  0  0
  3 21  1  0  0  0  0
  4 22  1  0  0  0  0
  4 23  1  0  0  0  0
  4 24  1  0  0  0  0
  5  4  1  0  0  0  0
  5  6  1  0  0  0  0
  5  8  1  0  0  0  0
  5 11  1  1  0  0  0
  7 25  1  0  0  0  0
  7 26  1  0  0  0  0
  7 27  1  0  0  0  0
  8  9  1  0  0  0  0
  9  7  1  0  0  0  0
  9 10  2  0  0  0  0
  9 12  1  1  0  0  0
M  END
>  <DRUGBANK_ID>
DB07821

>  <COMMON_NAME>
(1R)-1,2,2-trimethylpropyl (R)-methylphosphinate

$$$$
