
 OpenBabel10282417072D

 40 41  0  0  0  0  0  0  0  0999 V2000
    2.6960    0.4677    0.0000 Cl  0  0  0  0  0  0  0  0  0  0  0  0
    1.2671    1.2928    0.0000 S   0  0  0  0  0  0  0  0  0  0  0  0
   -0.2480   -2.0027    0.0000 S   0  0  0  0  0  0  0  0  0  0  0  0
    2.0921    1.2928    0.0000 O   0  0  0  0  0  0  0  0  0  0  0  0
    0.4421    1.2928    0.0000 O   0  0  0  0  0  0  0  0  0  0  0  0
    2.6960    3.7678    0.0000 O   0  0  0  0  0  0  0  0  0  0  0  0
   -2.6960   -2.3467    0.0000 O   0  0  0  0  0  0  0  0  0  0  0  0
    1.2671    2.1178    0.0000 N   0  0  0  0  0  0  0  0  0  0  0  0
   -1.4676   -1.4597    0.0000 N   0  0  0  0  0  0  0  0  0  0  0  0
   -1.3906   -2.9279    0.0000 N   0  0  0  0  0  0  0  0  0  0  0  0
    1.2671    0.4677    0.0000 C   0  0  0  0  0  0  0  0  0  0  0  0
    0.5525   -0.7697    0.0000 C   0  0  0  0  0  0  0  0  0  0  0  0
    0.5525    0.0552    0.0000 C   0  0  0  0  0  0  0  0  0  0  0  0
   -0.1618   -1.1822    0.0000 C   0  0  0  0  0  0  0  0  0  0  0  0
    1.9816    0.0552    0.0000 C   0  0  0  0  0  0  0  0  0  0  0  0
    1.2671   -1.1822    0.0000 C   0  0  0  0  0  0  0  0  0  0  0  0
    1.9816    2.5303    0.0000 C   0  0  0  0  0  0  0  0  0  0  0  0
   -0.9155   -0.8466    0.0000 C   0  0  0  0  0  0  0  0  0  0  0  0
    1.9816   -0.7697    0.0000 C   0  0  0  0  0  0  0  0  0  0  0  0
    1.9816    3.3553    0.0000 C   0  0  0  0  0  0  0  0  0  0  0  0
   -1.0551   -2.1742    0.0000 C   0  0  0  0  0  0  0  0  0  0  0  0
   -1.0870   -0.0396    0.0000 C   0  0  0  0  0  0  0  0  0  0  0  0
   -2.2111   -3.0142    0.0000 C   0  0  0  0  0  0  0  0  0  0  0  0
   -2.5467   -3.7678    0.0000 C   0  0  0  0  0  0  0  0  0  0  0  0
    0.8241    2.3735    0.0000 H   0  0  0  0  0  0  0  0  0  0  0  0
   -1.0900   -3.3417    0.0000 H   0  0  0  0  0  0  0  0  0  0  0  0
    3.5361    3.2828    0.0000 H   0  0  0  0  0  0  0  0  0  0  0  0
   -0.3412    0.5712    0.0000 H   0  0  0  0  0  0  0  0  0  0  0  0
    1.2671   -2.2142    0.0000 H   0  0  0  0  0  0  0  0  0  0  0  0
    2.9082    1.9953    0.0000 H   0  0  0  0  0  0  0  0  0  0  0  0
    2.9082    3.0653    0.0000 H   0  0  0  0  0  0  0  0  0  0  0  0
    2.8753   -1.2857    0.0000 H   0  0  0  0  0  0  0  0  0  0  0  0
    1.0549    3.8903    0.0000 H   0  0  0  0  0  0  0  0  0  0  0  0
    1.0550    2.8203    0.0000 H   0  0  0  0  0  0  0  0  0  0  0  0
   -0.2918    0.6763    0.0000 H   0  0  0  0  0  0  0  0  0  0  0  0
   -2.1046    0.2911    0.0000 H   0  0  0  0  0  0  0  0  0  0  0  0
   -1.3094    1.0070    0.0000 H   0  0  0  0  0  0  0  0  0  0  0  0
   -3.6108   -3.8796    0.0000 H   0  0  0  0  0  0  0  0  0  0  0  0
   -1.9178   -4.6335    0.0000 H   0  0  0  0  0  0  0  0  0  0  0  0
   -2.9820   -4.7453    0.0000 H   0  0  0  0  0  0  0  0  0  0  0  0
  1 15  1  0  0  0  0
  2  4  2  0  0  0  0
  2  5  2  0  0  0  0
  2  8  1  0  0  0  0
  2 11  1  0  0  0  0
  3 14  1  0  0  0  0
  3 21  1  0  0  0  0
  6 20  1  0  0  0  0
  6 27  1  0  0  0  0
  7 23  2  0  0  0  0
  8 17  1  0  0  0  0
  8 25  1  0  0  0  0
  9 18  1  0  0  0  0
  9 21  2  0  0  0  0
 10 21  1  0  0  0  0
 10 23  1  0  0  0  0
 10 26  1  0  0  0  0
 11 13  1  0  0  0  0
 11 15  2  0  0  0  0
 12 13  2  0  0  0  0
 12 14  1  0  0  0  0
 12 16  1  0  0  0  0
 13 28  1  0  0  0  0
 14 18  2  0  0  0  0
 15 19  1  0  0  0  0
 16 19  2  0  0  0  0
 16 29  1  0  0  0  0
 17 20  1  0  0  0  0
 17 30  1  0  0  0  0
 17 31  1  0  0  0  0
 18 22  1  0  0  0  0
 19 32  1  0  0  0  0
 20 33  1  0  0  0  0
 20 34  1  0  0  0  0
 22 35  1  0  0  0  0
 22 36  1  0  0  0  0
 22 37  1  0  0  0  0
 23 24  1  0  0  0  0
 24 38  1  0  0  0  0
 24 39  1  0  0  0  0
 24 40  1  0  0  0  0
M  END
>  <DRUGBANK_ID>
DB06836

>  <COMMON_NAME>
N-(5-{4-Chloro-3-[(2-hydroxyethyl)sulfamoyl]phenyl}-4-methyl-1,3-thiazol-2-yl)acetamide

>  <CAS_NUMBER>
593960-11-3

>  <UNII>
QS3XFL5JRX

$$$$
