
 OpenBabel10282417072D

174184  0  0  0  0  0  0  0  0999 V2000
    0.7146   -0.4123    0.0000 C   0  0  1  0  0  0  0  0  0  0  0  0
    0.7146    0.4123    0.0000 C   0  0  3  0  0  0  0  0  0  0  0  0
    0.0000    0.8245    0.0000 O   0  0  0  0  0  0  0  0  0  0  0  0
   -0.7146    0.4123    0.0000 C   0  0  1  0  0  0  0  0  0  0  0  0
   -0.7146   -0.4123    0.0000 C   0  0  2  0  0  0  0  0  0  0  0  0
    0.0000   -0.8245    0.0000 C   0  0  2  0  0  0  0  0  0  0  0  0
   -1.4293   -0.8245    0.0000 O   0  0  0  0  0  0  0  0  0  0  0  0
   -2.1440   -0.4123    0.0000 C   0  0  0  0  0  0  0  0  0  0  0  0
   -2.8586   -0.8245    0.0000 C   0  0  0  0  0  0  0  0  0  0  0  0
   -3.5733   -0.4123    0.0000 C   0  0  0  0  0  0  0  0  0  0  0  0
   -4.2880   -0.8245    0.0000 C   0  0  0  0  0  0  0  0  0  0  0  0
   -4.2880   -1.6491    0.0000 C   0  0  0  0  0  0  0  0  0  0  0  0
   -3.5733   -2.0616    0.0000 C   0  0  0  0  0  0  0  0  0  0  0  0
   -2.8586   -1.6491    0.0000 C   0  0  0  0  0  0  0  0  0  0  0  0
   -5.0025   -0.4123    0.0000 O   0  0  0  0  0  0  0  0  0  0  0  0
   -5.7173   -0.8245    0.0000 C   0  0  0  0  0  0  0  0  0  0  0  0
   -6.4319   -0.4123    0.0000 C   0  0  0  0  0  0  0  0  0  0  0  0
   -5.7173   -1.6491    0.0000 O   0  0  0  0  0  0  0  0  0  0  0  0
   -6.4319    0.4123    0.0000 C   0  0  0  0  0  0  0  0  0  0  0  0
   -7.1466    0.8245    0.0000 C   0  0  0  0  0  0  0  0  0  0  0  0
   -7.8612    0.4123    0.0000 C   0  0  0  0  0  0  0  0  0  0  0  0
   -7.8612   -0.4123    0.0000 C   0  0  0  0  0  0  0  0  0  0  0  0
   -7.1466   -0.8245    0.0000 C   0  0  0  0  0  0  0  0  0  0  0  0
   -7.1466    1.6492    0.0000 O   0  0  0  0  0  0  0  0  0  0  0  0
   -8.5759    0.8245    0.0000 O   0  0  0  0  0  0  0  0  0  0  0  0
   -8.5759   -0.8245    0.0000 O   0  0  0  0  0  0  0  0  0  0  0  0
   -5.0025   -2.0616    0.0000 O   0  0  0  0  0  0  0  0  0  0  0  0
   -3.5733   -2.8862    0.0000 O   0  0  0  0  0  0  0  0  0  0  0  0
   -2.1440    0.4123    0.0000 O   0  0  0  0  0  0  0  0  0  0  0  0
    0.0000   -1.6491    0.0000 O   0  0  0  0  0  0  0  0  0  0  0  0
   -0.7146   -2.0616    0.0000 C   0  0  0  0  0  0  0  0  0  0  0  0
   -0.7146   -2.8862    0.0000 C   0  0  0  0  0  0  0  0  0  0  0  0
   -1.4293   -3.2984    0.0000 C   0  0  0  0  0  0  0  0  0  0  0  0
   -1.4293   -4.1230    0.0000 C   0  0  0  0  0  0  0  0  0  0  0  0
   -0.7146   -4.5354    0.0000 C   0  0  0  0  0  0  0  0  0  0  0  0
    0.0000   -4.1230    0.0000 C   0  0  0  0  0  0  0  0  0  0  0  0
    0.0000   -3.2984    0.0000 C   0  0  0  0  0  0  0  0  0  0  0  0
   -2.1440   -4.5354    0.0000 O   0  0  0  0  0  0  0  0  0  0  0  0
   -2.1440   -5.3600    0.0000 C   0  0  0  0  0  0  0  0  0  0  0  0
   -2.8586   -5.7723    0.0000 C   0  0  0  0  0  0  0  0  0  0  0  0
   -3.5733   -5.3600    0.0000 C   0  0  0  0  0  0  0  0  0  0  0  0
   -4.2880   -5.7723    0.0000 C   0  0  0  0  0  0  0  0  0  0  0  0
   -4.2880   -6.5968    0.0000 C   0  0  0  0  0  0  0  0  0  0  0  0
   -3.5733   -7.0092    0.0000 C   0  0  0  0  0  0  0  0  0  0  0  0
   -2.8586   -6.5968    0.0000 C   0  0  0  0  0  0  0  0  0  0  0  0
   -5.0025   -7.0092    0.0000 O   0  0  0  0  0  0  0  0  0  0  0  0
   -3.5733   -7.8338    0.0000 O   0  0  0  0  0  0  0  0  0  0  0  0
   -5.0025   -5.3600    0.0000 O   0  0  0  0  0  0  0  0  0  0  0  0
   -1.4293   -5.7723    0.0000 O   0  0  0  0  0  0  0  0  0  0  0  0
   -0.7146   -5.3600    0.0000 O   0  0  0  0  0  0  0  0  0  0  0  0
    0.7146   -4.5354    0.0000 O   0  0  0  0  0  0  0  0  0  0  0  0
   -1.4293   -1.6491    0.0000 O   0  0  0  0  0  0  0  0  0  0  0  0
    1.4293   -0.8245    0.0000 O   0  0  0  0  0  0  0  0  0  0  0  0
    1.4293   -1.6491    0.0000 C   0  0  0  0  0  0  0  0  0  0  0  0
    2.1439   -2.0616    0.0000 C   0  0  0  0  0  0  0  0  0  0  0  0
    2.1439   -2.8862    0.0000 C   0  0  0  0  0  0  0  0  0  0  0  0
    2.8586   -3.2984    0.0000 C   0  0  0  0  0  0  0  0  0  0  0  0
    3.5733   -2.8862    0.0000 C   0  0  0  0  0  0  0  0  0  0  0  0
    3.5733   -2.0616    0.0000 C   0  0  0  0  0  0  0  0  0  0  0  0
    2.8586   -1.6491    0.0000 C   0  0  0  0  0  0  0  0  0  0  0  0
    0.7146   -2.0616    0.0000 O   0  0  0  0  0  0  0  0  0  0  0  0
    4.2879   -1.6491    0.0000 O   0  0  0  0  0  0  0  0  0  0  0  0
    4.2879   -3.2984    0.0000 O   0  0  0  0  0  0  0  0  0  0  0  0
    2.8586   -4.1230    0.0000 O   0  0  0  0  0  0  0  0  0  0  0  0
    3.5733   -4.5354    0.0000 C   0  0  0  0  0  0  0  0  0  0  0  0
    3.5733   -5.3600    0.0000 C   0  0  0  0  0  0  0  0  0  0  0  0
    2.8586   -5.7723    0.0000 C   0  0  0  0  0  0  0  0  0  0  0  0
    2.8586   -6.5968    0.0000 C   0  0  0  0  0  0  0  0  0  0  0  0
    3.5733   -7.0092    0.0000 C   0  0  0  0  0  0  0  0  0  0  0  0
    4.2879   -6.5968    0.0000 C   0  0  0  0  0  0  0  0  0  0  0  0
    4.2879   -5.7723    0.0000 C   0  0  0  0  0  0  0  0  0  0  0  0
    4.2879   -4.1230    0.0000 O   0  0  0  0  0  0  0  0  0  0  0  0
    3.5733   -7.8338    0.0000 O   0  0  0  0  0  0  0  0  0  0  0  0
    2.1439   -7.0092    0.0000 O   0  0  0  0  0  0  0  0  0  0  0  0
    5.0025   -7.0092    0.0000 O   0  0  0  0  0  0  0  0  0  0  0  0
    1.4293    0.8245    0.0000 O   0  0  0  0  0  0  0  0  0  0  0  0
    2.1439    0.4123    0.0000 C   0  0  0  0  0  0  0  0  0  0  0  0
    2.8586    0.8245    0.0000 C   0  0  0  0  0  0  0  0  0  0  0  0
    3.5733    0.4123    0.0000 C   0  0  0  0  0  0  0  0  0  0  0  0
    4.2879    0.8245    0.0000 C   0  0  0  0  0  0  0  0  0  0  0  0
    4.2879    1.6492    0.0000 C   0  0  0  0  0  0  0  0  0  0  0  0
    3.5733    2.0616    0.0000 C   0  0  0  0  0  0  0  0  0  0  0  0
    2.8586    1.6492    0.0000 C   0  0  0  0  0  0  0  0  0  0  0  0
    5.0025    0.4123    0.0000 O   0  0  0  0  0  0  0  0  0  0  0  0
    5.7173    0.8245    0.0000 C   0  0  0  0  0  0  0  0  0  0  0  0
    6.4318    0.4123    0.0000 C   0  0  0  0  0  0  0  0  0  0  0  0
    6.4318   -0.4123    0.0000 C   0  0  0  0  0  0  0  0  0  0  0  0
    7.1466   -0.8245    0.0000 C   0  0  0  0  0  0  0  0  0  0  0  0
    7.8612   -0.4123    0.0000 C   0  0  0  0  0  0  0  0  0  0  0  0
    7.8612    0.4123    0.0000 C   0  0  0  0  0  0  0  0  0  0  0  0
    7.1466    0.8245    0.0000 C   0  0  0  0  0  0  0  0  0  0  0  0
    5.0025    2.0616    0.0000 O   0  0  0  0  0  0  0  0  0  0  0  0
    3.5733    2.8862    0.0000 O   0  0  0  0  0  0  0  0  0  0  0  0
    2.1439   -0.4123    0.0000 O   0  0  0  0  0  0  0  0  0  0  0  0
    5.7173    1.6492    0.0000 O   0  0  0  0  0  0  0  0  0  0  0  0
    8.5759   -0.8245    0.0000 O   0  0  0  0  0  0  0  0  0  0  0  0
    7.1466   -1.6491    0.0000 O   0  0  0  0  0  0  0  0  0  0  0  0
    8.5759    0.8245    0.0000 O   0  0  0  0  0  0  0  0  0  0  0  0
   -1.4293    0.8245    0.0000 C   0  0  0  0  0  0  0  0  0  0  0  0
   -1.4293    1.6492    0.0000 O   0  0  0  0  0  0  0  0  0  0  0  0
   -0.7146    2.0616    0.0000 C   0  0  0  0  0  0  0  0  0  0  0  0
   -0.7146    2.8862    0.0000 C   0  0  0  0  0  0  0  0  0  0  0  0
    0.0000    1.6492    0.0000 O   0  0  0  0  0  0  0  0  0  0  0  0
    0.0000    3.2985    0.0000 C   0  0  0  0  0  0  0  0  0  0  0  0
    0.0000    4.1230    0.0000 C   0  0  0  0  0  0  0  0  0  0  0  0
   -0.7146    4.5354    0.0000 C   0  0  0  0  0  0  0  0  0  0  0  0
   -1.4293    4.1230    0.0000 C   0  0  0  0  0  0  0  0  0  0  0  0
   -1.4293    3.2985    0.0000 C   0  0  0  0  0  0  0  0  0  0  0  0
    0.7146    4.5354    0.0000 O   0  0  0  0  0  0  0  0  0  0  0  0
    0.7146    5.3600    0.0000 C   0  0  0  0  0  0  0  0  0  0  0  0
    1.4293    5.7723    0.0000 C   0  0  0  0  0  0  0  0  0  0  0  0
    2.1439    5.3600    0.0000 C   0  0  0  0  0  0  0  0  0  0  0  0
    2.8586    5.7723    0.0000 C   0  0  0  0  0  0  0  0  0  0  0  0
    2.8586    6.5968    0.0000 C   0  0  0  0  0  0  0  0  0  0  0  0
    2.1439    7.0092    0.0000 C   0  0  0  0  0  0  0  0  0  0  0  0
    1.4293    6.5968    0.0000 C   0  0  0  0  0  0  0  0  0  0  0  0
    3.5733    7.0092    0.0000 O   0  0  0  0  0  0  0  0  0  0  0  0
    2.1439    7.8338    0.0000 O   0  0  0  0  0  0  0  0  0  0  0  0
    3.5733    5.3600    0.0000 O   0  0  0  0  0  0  0  0  0  0  0  0
    0.0000    5.7723    0.0000 O   0  0  0  0  0  0  0  0  0  0  0  0
   -0.7146    5.3600    0.0000 O   0  0  0  0  0  0  0  0  0  0  0  0
   -2.1440    4.5354    0.0000 O   0  0  0  0  0  0  0  0  0  0  0  0
    1.6411    0.1229    0.0000 H   0  0  0  0  0  0  0  0  0  0  0  0
   -0.2119   -0.1229    0.0000 H   0  0  0  0  0  0  0  0  0  0  0  0
   -0.7146    1.4823    0.0000 H   0  0  0  0  0  0  0  0  0  0  0  0
   -1.6411    0.1229    0.0000 H   0  0  0  0  0  0  0  0  0  0  0  0
   -0.9265   -1.3597    0.0000 H   0  0  0  0  0  0  0  0  0  0  0  0
   -3.5733    0.6197    0.0000 H   0  0  0  0  0  0  0  0  0  0  0  0
   -1.9649   -2.1652    0.0000 H   0  0  0  0  0  0  0  0  0  0  0  0
   -5.5383    0.9285    0.0000 H   0  0  0  0  0  0  0  0  0  0  0  0
   -7.1466   -1.8565    0.0000 H   0  0  0  0  0  0  0  0  0  0  0  0
   -6.3351    2.1177    0.0000 H   0  0  0  0  0  0  0  0  0  0  0  0
   -8.5763    1.7615    0.0000 H   0  0  0  0  0  0  0  0  0  0  0  0
   -9.3872   -0.3556    0.0000 H   0  0  0  0  0  0  0  0  0  0  0  0
   -5.8140   -1.5931    0.0000 H   0  0  0  0  0  0  0  0  0  0  0  0
   -4.3848   -3.3547    0.0000 H   0  0  0  0  0  0  0  0  0  0  0  0
   -2.3229   -2.7822    0.0000 H   0  0  0  0  0  0  0  0  0  0  0  0
    0.8936   -2.7822    0.0000 H   0  0  0  0  0  0  0  0  0  0  0  0
   -3.5733   -4.3280    0.0000 H   0  0  0  0  0  0  0  0  0  0  0  0
   -1.9649   -7.1129    0.0000 H   0  0  0  0  0  0  0  0  0  0  0  0
   -5.8139   -6.5406    0.0000 H   0  0  0  0  0  0  0  0  0  0  0  0
   -4.3848   -8.3023    0.0000 H   0  0  0  0  0  0  0  0  0  0  0  0
   -5.0027   -4.4230    0.0000 H   0  0  0  0  0  0  0  0  0  0  0  0
   -1.5261   -5.8285    0.0000 H   0  0  0  0  0  0  0  0  0  0  0  0
    0.7148   -5.4724    0.0000 H   0  0  0  0  0  0  0  0  0  0  0  0
    1.2503   -3.4024    0.0000 H   0  0  0  0  0  0  0  0  0  0  0  0
    2.8586   -0.6171    0.0000 H   0  0  0  0  0  0  0  0  0  0  0  0
    5.0993   -2.1177    0.0000 H   0  0  0  0  0  0  0  0  0  0  0  0
    4.2883   -4.2354    0.0000 H   0  0  0  0  0  0  0  0  0  0  0  0
    1.9650   -5.2561    0.0000 H   0  0  0  0  0  0  0  0  0  0  0  0
    5.1816   -5.2562    0.0000 H   0  0  0  0  0  0  0  0  0  0  0  0
    2.7618   -8.3023    0.0000 H   0  0  0  0  0  0  0  0  0  0  0  0
    1.3325   -6.5405    0.0000 H   0  0  0  0  0  0  0  0  0  0  0  0
    5.0027   -7.9462    0.0000 H   0  0  0  0  0  0  0  0  0  0  0  0
    3.5733   -0.6197    0.0000 H   0  0  0  0  0  0  0  0  0  0  0  0
    1.9649    2.1653    0.0000 H   0  0  0  0  0  0  0  0  0  0  0  0
    5.5382   -0.9285    0.0000 H   0  0  0  0  0  0  0  0  0  0  0  0
    7.1467    1.8565    0.0000 H   0  0  0  0  0  0  0  0  0  0  0  0
    5.8139    1.5930    0.0000 H   0  0  0  0  0  0  0  0  0  0  0  0
    4.3848    3.3547    0.0000 H   0  0  0  0  0  0  0  0  0  0  0  0
    8.5763   -1.7615    0.0000 H   0  0  0  0  0  0  0  0  0  0  0  0
    6.3351   -2.1176    0.0000 H   0  0  0  0  0  0  0  0  0  0  0  0
    9.3872    0.3556    0.0000 H   0  0  0  0  0  0  0  0  0  0  0  0
   -2.3558    0.2893    0.0000 H   0  0  0  0  0  0  0  0  0  0  0  0
   -2.3560    1.3594    0.0000 H   0  0  0  0  0  0  0  0  0  0  0  0
    0.8937    2.7824    0.0000 H   0  0  0  0  0  0  0  0  0  0  0  0
   -2.3229    2.7823    0.0000 H   0  0  0  0  0  0  0  0  0  0  0  0
    2.1439    4.3280    0.0000 H   0  0  0  0  0  0  0  0  0  0  0  0
    0.5356    7.1129    0.0000 H   0  0  0  0  0  0  0  0  0  0  0  0
    4.3847    6.5405    0.0000 H   0  0  0  0  0  0  0  0  0  0  0  0
    2.9554    8.3023    0.0000 H   0  0  0  0  0  0  0  0  0  0  0  0
    3.5736    4.4230    0.0000 H   0  0  0  0  0  0  0  0  0  0  0  0
    0.0969    5.8285    0.0000 H   0  0  0  0  0  0  0  0  0  0  0  0
   -2.1442    5.4724    0.0000 H   0  0  0  0  0  0  0  0  0  0  0  0
  1  2  1  0  0  0  0
  1  6  1  0  0  0  0
  1 53  1  0  0  0  0
  1123  1  1  0  0  0
  2  3  1  0  0  0  0
  2 76  1  0  0  0  0
  2124  1  0  0  0  0
  3  4  1  0  0  0  0
  4  5  1  0  0  0  0
  4 99  1  0  0  0  0
  4125  1  6  0  0  0
  5  6  1  0  0  0  0
  5  7  1  0  0  0  0
  5126  1  1  0  0  0
  6 30  1  0  0  0  0
  6127  1  6  0  0  0
  7  8  1  0  0  0  0
  8  9  1  0  0  0  0
  8 29  2  0  0  0  0
  9 10  2  0  0  0  0
  9 14  1  0  0  0  0
 10 11  1  0  0  0  0
 10128  1  0  0  0  0
 11 12  2  0  0  0  0
 11 15  1  0  0  0  0
 12 13  1  0  0  0  0
 12 27  1  0  0  0  0
 13 14  2  0  0  0  0
 13 28  1  0  0  0  0
 14129  1  0  0  0  0
 15 16  1  0  0  0  0
 16 17  1  0  0  0  0
 16 18  2  0  0  0  0
 17 19  2  0  0  0  0
 17 23  1  0  0  0  0
 19 20  1  0  0  0  0
 19130  1  0  0  0  0
 20 21  2  0  0  0  0
 20 24  1  0  0  0  0
 21 22  1  0  0  0  0
 21 25  1  0  0  0  0
 22 23  2  0  0  0  0
 22 26  1  0  0  0  0
 23131  1  0  0  0  0
 24132  1  0  0  0  0
 25133  1  0  0  0  0
 26134  1  0  0  0  0
 27135  1  0  0  0  0
 28136  1  0  0  0  0
 30 31  1  0  0  0  0
 31 32  1  0  0  0  0
 31 52  2  0  0  0  0
 32 33  2  0  0  0  0
 32 37  1  0  0  0  0
 33 34  1  0  0  0  0
 33137  1  0  0  0  0
 34 35  2  0  0  0  0
 34 38  1  0  0  0  0
 35 36  1  0  0  0  0
 35 50  1  0  0  0  0
 36 37  2  0  0  0  0
 36 51  1  0  0  0  0
 37138  1  0  0  0  0
 38 39  1  0  0  0  0
 39 40  1  0  0  0  0
 39 49  2  0  0  0  0
 40 41  2  0  0  0  0
 40 45  1  0  0  0  0
 41 42  1  0  0  0  0
 41139  1  0  0  0  0
 42 43  2  0  0  0  0
 42 48  1  0  0  0  0
 43 44  1  0  0  0  0
 43 46  1  0  0  0  0
 44 45  2  0  0  0  0
 44 47  1  0  0  0  0
 45140  1  0  0  0  0
 46141  1  0  0  0  0
 47142  1  0  0  0  0
 48143  1  0  0  0  0
 50144  1  0  0  0  0
 51145  1  0  0  0  0
 53 54  1  0  0  0  0
 54 55  1  0  0  0  0
 54 61  2  0  0  0  0
 55 56  2  0  0  0  0
 55 60  1  0  0  0  0
 56 57  1  0  0  0  0
 56146  1  0  0  0  0
 57 58  2  0  0  0  0
 57 64  1  0  0  0  0
 58 59  1  0  0  0  0
 58 63  1  0  0  0  0
 59 60  2  0  0  0  0
 59 62  1  0  0  0  0
 60147  1  0  0  0  0
 62148  1  0  0  0  0
 63149  1  0  0  0  0
 64 65  1  0  0  0  0
 65 66  1  0  0  0  0
 65 72  2  0  0  0  0
 66 67  2  0  0  0  0
 66 71  1  0  0  0  0
 67 68  1  0  0  0  0
 67150  1  0  0  0  0
 68 69  2  0  0  0  0
 68 74  1  0  0  0  0
 69 70  1  0  0  0  0
 69 73  1  0  0  0  0
 70 71  2  0  0  0  0
 70 75  1  0  0  0  0
 71151  1  0  0  0  0
 73152  1  0  0  0  0
 74153  1  0  0  0  0
 75154  1  0  0  0  0
 76 77  1  0  0  0  0
 77 78  1  0  0  0  0
 77 94  2  0  0  0  0
 78 79  2  0  0  0  0
 78 83  1  0  0  0  0
 79 80  1  0  0  0  0
 79155  1  0  0  0  0
 80 81  2  0  0  0  0
 80 84  1  0  0  0  0
 81 82  1  0  0  0  0
 81 92  1  0  0  0  0
 82 83  2  0  0  0  0
 82 93  1  0  0  0  0
 83156  1  0  0  0  0
 84 85  1  0  0  0  0
 85 86  1  0  0  0  0
 85 95  2  0  0  0  0
 86 87  2  0  0  0  0
 86 91  1  0  0  0  0
 87 88  1  0  0  0  0
 87157  1  0  0  0  0
 88 89  2  0  0  0  0
 88 97  1  0  0  0  0
 89 90  1  0  0  0  0
 89 96  1  0  0  0  0
 90 91  2  0  0  0  0
 90 98  1  0  0  0  0
 91158  1  0  0  0  0
 92159  1  0  0  0  0
 93160  1  0  0  0  0
 96161  1  0  0  0  0
 97162  1  0  0  0  0
 98163  1  0  0  0  0
 99100  1  0  0  0  0
 99164  1  0  0  0  0
 99165  1  0  0  0  0
100101  1  0  0  0  0
101102  1  0  0  0  0
101103  2  0  0  0  0
102104  2  0  0  0  0
102108  1  0  0  0  0
104105  1  0  0  0  0
104166  1  0  0  0  0
105106  2  0  0  0  0
105109  1  0  0  0  0
106107  1  0  0  0  0
106121  1  0  0  0  0
107108  2  0  0  0  0
107122  1  0  0  0  0
108167  1  0  0  0  0
109110  1  0  0  0  0
110111  1  0  0  0  0
110120  2  0  0  0  0
111112  2  0  0  0  0
111116  1  0  0  0  0
112113  1  0  0  0  0
112168  1  0  0  0  0
113114  2  0  0  0  0
113119  1  0  0  0  0
114115  1  0  0  0  0
114117  1  0  0  0  0
115116  2  0  0  0  0
115118  1  0  0  0  0
116169  1  0  0  0  0
117170  1  0  0  0  0
118171  1  0  0  0  0
119172  1  0  0  0  0
121173  1  0  0  0  0
122174  1  0  0  0  0
M  END
>  <DRUGBANK_ID>
DB09372

>  <COMMON_NAME>
Tannic acid

>  <CAS_NUMBER>
1401-55-4

>  <UNII>
28F9E0DJY6

>  <SYNONYMS>
ácido tánico; Gallotannic acid; Gallotannin; Tannic acid

$$$$
