
 OpenBabel10282417072D

 18 18  0  0  0  0  0  0  0  0999 V2000
   -2.3866    3.1232    0.0000 N   0  0  0  0  0  0  0  0  0  0  0  0
   -3.1011    2.7107    0.0000 C   0  0  0  0  0  0  0  0  0  0  0  0
   -3.1011    1.8857    0.0000 C   0  0  0  0  0  0  0  0  0  0  0  0
   -2.3866    1.4732    0.0000 C   0  0  0  0  0  0  0  0  0  0  0  0
   -1.6721    1.8857    0.0000 C   0  0  0  0  0  0  0  0  0  0  0  0
   -1.6721    2.7107    0.0000 C   0  0  0  0  0  0  0  0  0  0  0  0
   -0.9577    1.4732    0.0000 C   0  0  0  0  0  0  0  0  0  0  0  0
   -0.2432    1.8857    0.0000 O   0  0  0  0  0  0  0  0  0  0  0  0
   -0.9577    0.6482    0.0000 O   0  0  0  0  0  0  0  0  0  0  0  0
   -2.3866    4.1432    0.0000 H   0  0  0  0  0  0  0  0  0  0  0  0
   -4.0277    3.2457    0.0000 H   0  0  0  0  0  0  0  0  0  0  0  0
   -4.0277    2.1757    0.0000 H   0  0  0  0  0  0  0  0  0  0  0  0
   -4.0277    1.3507    0.0000 H   0  0  0  0  0  0  0  0  0  0  0  0
   -3.1011    0.8157    0.0000 H   0  0  0  0  0  0  0  0  0  0  0  0
   -2.3866    0.4412    0.0000 H   0  0  0  0  0  0  0  0  0  0  0  0
   -0.7455    3.2457    0.0000 H   0  0  0  0  0  0  0  0  0  0  0  0
   -0.7455    2.1757    0.0000 H   0  0  0  0  0  0  0  0  0  0  0  0
    0.5683    1.4172    0.0000 H   0  0  0  0  0  0  0  0  0  0  0  0
  1  2  1  0  0  0  0
  1  6  1  0  0  0  0
  1 10  1  0  0  0  0
  2  3  1  0  0  0  0
  2 11  1  0  0  0  0
  2 12  1  0  0  0  0
  3  4  1  0  0  0  0
  3 13  1  0  0  0  0
  3 14  1  0  0  0  0
  4  5  2  0  0  0  0
  4 15  1  0  0  0  0
  5  6  1  0  0  0  0
  5  7  1  0  0  0  0
  6 16  1  0  0  0  0
  6 17  1  0  0  0  0
  7  8  1  0  0  0  0
  7  9  2  0  0  0  0
  8 18  1  0  0  0  0
M  END
>  <DRUGBANK_ID>
DB08848

>  <COMMON_NAME>
Guvacine

>  <CAS_NUMBER>
498-96-4

>  <UNII>
41538P325K

$$$$
