
 OpenBabel10282417072D

 91 93  0  0  1  0  0  0  0  0999 V2000
    0.0000    8.2500    0.0000 C   0  0  0  0  0  0  0  0  0  0  0  0
    0.7145    9.4875    0.0000 C   0  0  0  0  0  0  0  0  0  0  0  0
    4.2868    8.2500    0.0000 C   0  0  0  0  0  0  0  0  0  0  0  0
    3.5724    9.4875    0.0000 C   0  0  0  0  0  0  0  0  0  0  0  0
    2.8579    5.7750    0.0000 C   0  0  0  0  0  0  0  0  0  0  0  0
    1.4289    5.7750    0.0000 C   0  0  0  0  0  0  0  0  0  0  0  0
    2.8579    3.3000    0.0000 C   0  0  0  0  0  0  0  0  0  0  0  0
    2.8579    4.1250    0.0000 C   0  0  0  0  0  0  0  0  0  0  0  0
    3.5724    2.8875    0.0000 C   0  0  0  0  0  0  0  0  0  0  0  0
    7.8592    7.8375    0.0000 C   0  0  0  0  0  0  0  0  0  0  0  0
    8.5737    8.2500    0.0000 C   0  0  0  0  0  0  0  0  0  0  0  0
    6.4302    7.0125    0.0000 C   0  0  0  0  0  0  0  0  0  0  0  0
    7.1447    5.7750    0.0000 C   0  0  0  0  0  0  0  0  0  0  0  0
    5.7158    6.6000    0.0000 C   0  0  0  0  0  0  0  0  0  0  0  0
    6.4302    5.3625    0.0000 C   0  0  0  0  0  0  0  0  0  0  0  0
    4.2868    4.1250    0.0000 C   0  0  0  0  0  0  0  0  0  0  0  0
    3.5724    5.3625    0.0000 C   0  0  0  0  0  0  0  0  0  0  0  0
    2.1434    8.6625    0.0000 C   0  0  0  0  0  0  0  0  0  0  0  0
    1.4289    7.4250    0.0000 C   0  0  0  0  0  0  0  0  0  0  0  0
    0.7145    8.6625    0.0000 C   0  0  0  0  0  0  0  0  0  0  0  0
    3.5724    8.6625    0.0000 C   0  0  0  0  0  0  0  0  0  0  0  0
    2.1434    6.1875    0.0000 C   0  0  0  0  0  0  0  0  0  0  0  0
    3.5724    4.5375    0.0000 C   0  0  0  0  0  0  0  0  0  0  0  0
    4.2868    3.3000    0.0000 C   0  0  0  0  0  0  0  0  0  0  0  0
    1.4289    8.2500    0.0000 C   0  0  0  0  0  0  0  0  0  0  0  0
    2.8579    8.2500    0.0000 C   0  0  0  0  0  0  0  0  0  0  0  0
    2.1434    7.0125    0.0000 C   0  0  0  0  0  0  0  0  0  0  0  0
    4.2868    5.7750    0.0000 C   0  0  1  0  0  0  0  0  0  0  0  0
    7.8592    7.0125    0.0000 C   0  0  0  0  0  0  0  0  0  0  0  0
    2.8579    7.4250    0.0000 C   0  0  0  0  0  0  0  0  0  0  0  0
    5.0013    2.8875    0.0000 C   0  0  0  0  0  0  0  0  0  0  0  0
    5.0013    5.3625    0.0000 C   0  0  0  0  0  0  0  0  0  0  0  0
    8.5737    9.0750    0.0000 N   0  0  0  0  0  0  0  0  0  0  0  0
    5.7158    3.3000    0.0000 N   0  0  0  0  0  0  0  0  0  0  0  0
    5.0013    2.0625    0.0000 N   0  0  0  0  0  0  0  0  0  0  0  0
    4.2868    6.6000    0.0000 N   0  0  0  0  0  0  0  0  0  0  0  0
    7.1447    6.6000    0.0000 N   0  0  0  0  0  0  0  0  0  0  0  0
    5.7158    5.7750    0.0000 N   0  0  0  0  0  0  0  0  0  0  0  0
    8.5737    6.6000    0.0000 O   0  0  0  0  0  0  0  0  0  0  0  0
    5.0013    4.5375    0.0000 O   0  0  0  0  0  0  0  0  0  0  0  0
    3.1599    6.2980    0.0000 O   0  0  0  0  0  0  0  0  0  0  0  0
    3.9849    7.7270    0.0000 O   0  0  0  0  0  0  0  0  0  0  0  0
    3.5724    7.0125    0.0000 S   0  0  0  0  0  0  0  0  0  0  0  0
    4.2868    4.9500    0.0000 H   0  0  0  0  0  0  0  0  0  0  0  0
   -0.9266    8.7850    0.0000 H   0  0  0  0  0  0  0  0  0  0  0  0
   -0.0000    7.1800    0.0000 H   0  0  0  0  0  0  0  0  0  0  0  0
   -0.9267    7.7150    0.0000 H   0  0  0  0  0  0  0  0  0  0  0  0
    1.6411   10.0225    0.0000 H   0  0  0  0  0  0  0  0  0  0  0  0
   -0.2121   10.0225    0.0000 H   0  0  0  0  0  0  0  0  0  0  0  0
    0.7145   10.5575    0.0000 H   0  0  0  0  0  0  0  0  0  0  0  0
    4.2868    7.1800    0.0000 H   0  0  0  0  0  0  0  0  0  0  0  0
    5.2135    8.7850    0.0000 H   0  0  0  0  0  0  0  0  0  0  0  0
    5.2134    7.7150    0.0000 H   0  0  0  0  0  0  0  0  0  0  0  0
    4.4990   10.0225    0.0000 H   0  0  0  0  0  0  0  0  0  0  0  0
    2.6458   10.0225    0.0000 H   0  0  0  0  0  0  0  0  0  0  0  0
    3.5724   10.5575    0.0000 H   0  0  0  0  0  0  0  0  0  0  0  0
    2.8579    4.7050    0.0000 H   0  0  0  0  0  0  0  0  0  0  0  0
    3.7845    6.3100    0.0000 H   0  0  0  0  0  0  0  0  0  0  0  0
    3.7846    5.2400    0.0000 H   0  0  0  0  0  0  0  0  0  0  0  0
    0.5023    6.3100    0.0000 H   0  0  0  0  0  0  0  0  0  0  0  0
    1.4289    4.7050    0.0000 H   0  0  0  0  0  0  0  0  0  0  0  0
    0.5022    5.2400    0.0000 H   0  0  0  0  0  0  0  0  0  0  0  0
    1.9642    2.7840    0.0000 H   0  0  0  0  0  0  0  0  0  0  0  0
    1.9642    4.6410    0.0000 H   0  0  0  0  0  0  0  0  0  0  0  0
    3.5724    1.8555    0.0000 H   0  0  0  0  0  0  0  0  0  0  0  0
    6.9326    8.3725    0.0000 H   0  0  0  0  0  0  0  0  0  0  0  0
    6.9326    7.3025    0.0000 H   0  0  0  0  0  0  0  0  0  0  0  0
    9.5003    7.7150    0.0000 H   0  0  0  0  0  0  0  0  0  0  0  0
    9.5003    8.7850    0.0000 H   0  0  0  0  0  0  0  0  0  0  0  0
    6.4302    8.0825    0.0000 H   0  0  0  0  0  0  0  0  0  0  0  0
    7.3568    7.5475    0.0000 H   0  0  0  0  0  0  0  0  0  0  0  0
    8.0713    5.2400    0.0000 H   0  0  0  0  0  0  0  0  0  0  0  0
    8.0713    6.3100    0.0000 H   0  0  0  0  0  0  0  0  0  0  0  0
    4.7891    7.1350    0.0000 H   0  0  0  0  0  0  0  0  0  0  0  0
    4.7892    6.0650    0.0000 H   0  0  0  0  0  0  0  0  0  0  0  0
    6.4302    4.2925    0.0000 H   0  0  0  0  0  0  0  0  0  0  0  0
    5.5035    4.8275    0.0000 H   0  0  0  0  0  0  0  0  0  0  0  0
    5.1805    4.6410    0.0000 H   0  0  0  0  0  0  0  0  0  0  0  0
    2.6457    5.8975    0.0000 H   0  0  0  0  0  0  0  0  0  0  0  0
    3.5724    6.4325    0.0000 H   0  0  0  0  0  0  0  0  0  0  0  0
    2.1434    9.6945    0.0000 H   0  0  0  0  0  0  0  0  0  0  0  0
    0.5352    6.9090    0.0000 H   0  0  0  0  0  0  0  0  0  0  0  0
    1.6412    9.1975    0.0000 H   0  0  0  0  0  0  0  0  0  0  0  0
    2.6458    9.1975    0.0000 H   0  0  0  0  0  0  0  0  0  0  0  0
    1.2168    6.7225    0.0000 H   0  0  0  0  0  0  0  0  0  0  0  0
    9.4570    9.5850    0.0000 H   0  0  0  0  0  0  0  0  0  0  0  0
    7.6904    9.5850    0.0000 H   0  0  0  0  0  0  0  0  0  0  0  0
    6.5684    2.8077    0.0000 H   0  0  0  0  0  0  0  0  0  0  0  0
    4.1487    1.5702    0.0000 H   0  0  0  0  0  0  0  0  0  0  0  0
    5.8539    1.5703    0.0000 H   0  0  0  0  0  0  0  0  0  0  0  0
    5.1702    7.1100    0.0000 H   0  0  0  0  0  0  0  0  0  0  0  0
  1 45  1  0  0  0  0
  1 46  1  0  0  0  0
  1 47  1  0  0  0  0
  2 48  1  0  0  0  0
  2 49  1  0  0  0  0
  2 50  1  0  0  0  0
  3 51  1  0  0  0  0
  3 52  1  0  0  0  0
  3 53  1  0  0  0  0
  4 54  1  0  0  0  0
  4 55  1  0  0  0  0
  4 56  1  0  0  0  0
  5 57  1  0  0  0  0
  5 58  1  0  0  0  0
  5 59  1  0  0  0  0
  6 60  1  0  0  0  0
  6 61  1  0  0  0  0
  6 62  1  0  0  0  0
  7 63  1  0  0  0  0
  8  7  2  0  0  0  0
  8 64  1  0  0  0  0
  9  7  1  0  0  0  0
  9 65  1  0  0  0  0
 10 66  1  0  0  0  0
 10 67  1  0  0  0  0
 11 10  1  0  0  0  0
 11 68  1  0  0  0  0
 11 69  1  0  0  0  0
 12 70  1  0  0  0  0
 12 71  1  0  0  0  0
 13 72  1  0  0  0  0
 13 73  1  0  0  0  0
 14 12  1  0  0  0  0
 14 74  1  0  0  0  0
 14 75  1  0  0  0  0
 15 13  1  0  0  0  0
 15 76  1  0  0  0  0
 15 77  1  0  0  0  0
 16 78  1  0  0  0  0
 17 79  1  0  0  0  0
 17 80  1  0  0  0  0
 18 81  1  0  0  0  0
 19 82  1  0  0  0  0
 20  1  1  0  0  0  0
 20  2  1  0  0  0  0
 20 83  1  0  0  0  0
 21  3  1  0  0  0  0
 21  4  1  0  0  0  0
 21 84  1  0  0  0  0
 22  5  1  0  0  0  0
 22  6  1  0  0  0  0
 22 85  1  0  0  0  0
 23  8  1  0  0  0  0
 23 16  2  0  0  0  0
 23 17  1  0  0  0  0
 24  9  2  0  0  0  0
 24 16  1  0  0  0  0
 25 18  2  0  0  0  0
 25 19  1  0  0  0  0
 25 20  1  0  0  0  0
 26 18  1  0  0  0  0
 26 21  1  0  0  0  0
 27 19  2  0  0  0  0
 27 22  1  0  0  0  0
 28 17  1  0  0  0  0
 28 36  1  0  0  0  0
 28 44  1  1  0  0  0
 29 10  1  0  0  0  0
 30 26  2  0  0  0  0
 30 27  1  0  0  0  0
 31 24  1  0  0  0  0
 32 28  1  0  0  0  0
 33 11  1  0  0  0  0
 33 86  1  0  0  0  0
 33 87  1  0  0  0  0
 34 31  2  0  0  0  0
 34 88  1  0  0  0  0
 35 31  1  0  0  0  0
 35 89  1  0  0  0  0
 35 90  1  0  0  0  0
 36 91  1  0  0  0  0
 37 12  1  0  0  0  0
 37 13  1  0  0  0  0
 37 29  1  0  0  0  0
 38 14  1  0  0  0  0
 38 15  1  0  0  0  0
 38 32  1  0  0  0  0
 39 29  2  0  0  0  0
 40 32  2  0  0  0  0
 43 30  1  0  0  0  0
 43 36  1  0  0  0  0
 43 41  2  0  0  0  0
 43 42  2  0  0  0  0
M  END
>  <DRUGBANK_ID>
DB04172

>  <SECONDARY_ACCESSION_NUMBERS>
EXPT03181

>  <COMMON_NAME>
[2,4,6-Triisopropyl-Phenylsulfonyl-L-[3-Amidino-Phenylalanine]]-Piperazine-N'-Beta-Alanine

$$$$
