
 OpenBabel10282417072D

 52 55  0  0  0  0  0  0  0  0999 V2000
   -2.3857   -1.3433    0.0000 C   0  0  0  0  0  0  0  0  0  0  0  0
   -2.3857   -0.5183    0.0000 C   0  0  0  0  0  0  0  0  0  0  0  0
   -1.6712   -0.1058    0.0000 C   0  0  0  0  0  0  0  0  0  0  0  0
   -1.6712   -1.7558    0.0000 C   0  0  0  0  0  0  0  0  0  0  0  0
   -0.9567   -1.3433    0.0000 C   0  0  0  0  0  0  0  0  0  0  0  0
   -0.2423   -1.7558    0.0000 C   0  0  2  0  0  0  0  0  0  0  0  0
    0.4721   -1.3433    0.0000 C   0  0  0  0  0  0  0  0  0  0  0  0
    0.4721   -0.5183    0.0000 C   0  0  1  0  0  0  0  0  0  0  0  0
    1.1866   -0.1058    0.0000 C   0  0  2  0  0  0  0  0  0  0  0  0
    1.9712   -0.3607    0.0000 C   0  0  0  0  0  0  0  0  0  0  0  0
    2.4561    0.3066    0.0000 C   0  0  0  0  0  0  0  0  0  0  0  0
    1.9712    0.9740    0.0000 C   0  0  2  0  0  0  0  0  0  0  0  0
    1.7137    2.0216    0.0000 C   0  0  0  0  0  0  0  0  0  0  0  0
    2.3033    2.5808    0.0000 C   0  0  0  0  0  0  0  0  0  0  0  0
    1.1866    0.7191    0.0000 C   0  0  2  0  0  0  0  0  0  0  0  0
    1.1866    1.5441    0.0000 C   0  0  0  0  0  0  0  0  0  0  0  0
    0.4721    1.1316    0.0000 C   0  0  0  0  0  0  0  0  0  0  0  0
   -0.2423    0.7191    0.0000 C   0  0  0  0  0  0  0  0  0  0  0  0
   -0.2423   -0.1058    0.0000 C   0  0  2  0  0  0  0  0  0  0  0  0
   -0.9567   -0.5183    0.0000 C   0  0  1  0  0  0  0  0  0  0  0  0
   -0.9567    0.3066    0.0000 C   0  0  0  0  0  0  0  0  0  0  0  0
   -3.1001   -1.7558    0.0000 O   0  0  0  0  0  0  0  0  0  0  0  0
   -0.9567    1.1316    0.0000 O   0  0  0  0  0  0  0  0  0  0  0  0
    0.9168    2.2352    0.0000 O   0  0  0  0  0  0  0  0  0  0  0  0
    3.1001    2.3673    0.0000 O   0  0  0  0  0  0  0  0  0  0  0  0
    2.7189    1.3227    0.0000 O   0  0  0  0  0  0  0  0  0  0  0  0
   -0.2423   -2.5808    0.0000 Cl  0  0  0  0  0  0  0  0  0  0  0  0
   -0.2423   -0.9308    0.0000 H   0  0  0  0  0  0  0  0  0  0  0  0
    0.4721    0.3066    0.0000 H   0  0  0  0  0  0  0  0  0  0  0  0
    1.1866   -0.9308    0.0000 H   0  0  0  0  0  0  0  0  0  0  0  0
   -3.2794   -0.0023    0.0000 H   0  0  0  0  0  0  0  0  0  0  0  0
   -1.6712    0.9262    0.0000 H   0  0  0  0  0  0  0  0  0  0  0  0
   -1.6712   -2.7878    0.0000 H   0  0  0  0  0  0  0  0  0  0  0  0
   -1.1690   -2.2908    0.0000 H   0  0  0  0  0  0  0  0  0  0  0  0
    1.3988   -1.8783    0.0000 H   0  0  0  0  0  0  0  0  0  0  0  0
    1.3987   -0.8083    0.0000 H   0  0  0  0  0  0  0  0  0  0  0  0
    2.3018   -1.3783    0.0000 H   0  0  0  0  0  0  0  0  0  0  0  0
    3.0280   -0.5281    0.0000 H   0  0  0  0  0  0  0  0  0  0  0  0
    3.5261    0.3066    0.0000 H   0  0  0  0  0  0  0  0  0  0  0  0
    2.9419    1.2600    0.0000 H   0  0  0  0  0  0  0  0  0  0  0  0
    2.0401    3.6179    0.0000 H   0  0  0  0  0  0  0  0  0  0  0  0
    3.0649    3.3324    0.0000 H   0  0  0  0  0  0  0  0  0  0  0  0
    2.1132    2.0791    0.0000 H   0  0  0  0  0  0  0  0  0  0  0  0
    0.2600    2.0791    0.0000 H   0  0  0  0  0  0  0  0  0  0  0  0
    1.1866    2.6141    0.0000 H   0  0  0  0  0  0  0  0  0  0  0  0
    0.4721    2.2016    0.0000 H   0  0  0  0  0  0  0  0  0  0  0  0
   -0.4546    1.6666    0.0000 H   0  0  0  0  0  0  0  0  0  0  0  0
   -0.0301    0.8416    0.0000 H   0  0  0  0  0  0  0  0  0  0  0  0
   -1.8833    0.8416    0.0000 H   0  0  0  0  0  0  0  0  0  0  0  0
   -0.9567    1.3766    0.0000 H   0  0  0  0  0  0  0  0  0  0  0  0
    3.3512    1.4304    0.0000 H   0  0  0  0  0  0  0  0  0  0  0  0
    3.5135    0.7664    0.0000 H   0  0  0  0  0  0  0  0  0  0  0  0
  1  2  1  0  0  0  0
  1  4  1  0  0  0  0
  1 22  2  0  0  0  0
  2  3  2  0  0  0  0
  2 31  1  0  0  0  0
  3 20  1  0  0  0  0
  3 32  1  0  0  0  0
  4  5  2  0  0  0  0
  4 33  1  0  0  0  0
  5  6  1  0  0  0  0
  5 20  1  0  0  0  0
  6  7  1  0  0  0  0
  6 27  1  0  0  0  0
  6 34  1  1  0  0  0
  7  8  1  0  0  0  0
  7 35  1  0  0  0  0
  7 36  1  0  0  0  0
  8  9  1  0  0  0  0
  8 19  1  0  0  0  0
  8 29  1  1  0  0  0
  9 10  1  0  0  0  0
  9 15  1  0  0  0  0
  9 30  1  6  0  0  0
 10 11  1  0  0  0  0
 10 37  1  0  0  0  0
 10 38  1  0  0  0  0
 11 12  1  0  0  0  0
 11 39  1  0  0  0  0
 11 40  1  0  0  0  0
 12 13  1  1  0  0  0
 12 15  1  0  0  0  0
 12 26  1  0  0  0  0
 13 14  1  0  0  0  0
 13 24  2  0  0  0  0
 14 25  1  0  0  0  0
 14 41  1  0  0  0  0
 14 42  1  0  0  0  0
 15 16  1  1  0  0  0
 15 17  1  0  0  0  0
 16 43  1  0  0  0  0
 16 44  1  0  0  0  0
 16 45  1  0  0  0  0
 17 18  1  0  0  0  0
 17 46  1  0  0  0  0
 17 47  1  0  0  0  0
 18 19  1  0  0  0  0
 18 23  2  0  0  0  0
 19 20  1  0  0  0  0
 19 28  1  6  0  0  0
 20 21  1  1  0  0  0
 21 48  1  0  0  0  0
 21 49  1  0  0  0  0
 21 50  1  0  0  0  0
 25 51  1  0  0  0  0
 26 52  1  0  0  0  0
M  END
>  <DRUGBANK_ID>
DB15970

>  <COMMON_NAME>
Chloroprednisone

>  <CAS_NUMBER>
52080-57-6

>  <UNII>
564IBO56IP

>  <SYNONYMS>
Chloroprednisone; Chloroprednisonum; Cloroprednisona

$$$$
