
 OpenBabel10282417072D

 20 19  0  0  1  0  0  0  0  0999 V2000
   -2.1434   -0.1768    0.0000 N   0  0  0  0  0  0  0  0  0  0  0  0
   -1.4289    0.2357    0.0000 C   0  0  0  0  0  0  0  0  0  0  0  0
    1.4289    0.2357    0.0000 C   0  0  0  0  0  0  0  0  0  0  0  0
    2.1434   -0.1768    0.0000 O   0  0  0  0  0  0  0  0  0  0  0  0
    0.7145   -0.1768    0.0000 C   0  0  2  0  0  0  0  0  0  0  0  0
    0.0000    0.2357    0.0000 C   0  0  0  0  0  0  0  0  0  0  0  0
   -0.7145   -0.1768    0.0000 C   0  0  0  0  0  0  0  0  0  0  0  0
    1.4289    1.0606    0.0000 O   0  0  0  0  0  0  0  0  0  0  0  0
    0.7144   -1.0018    0.0000 N   0  0  0  0  0  0  0  0  0  0  0  0
   -1.4290    1.0607    0.0000 O   0  0  0  0  0  0  0  0  0  0  0  0
   -2.9960    0.3155    0.0000 H   0  0  0  0  0  0  0  0  0  0  0  0
   -2.1434   -1.1613    0.0000 H   0  0  0  0  0  0  0  0  0  0  0  0
    2.1434   -1.1138    0.0000 H   0  0  0  0  0  0  0  0  0  0  0  0
    1.6411   -0.7118    0.0000 H   0  0  0  0  0  0  0  0  0  0  0  0
    0.0000    1.3057    0.0000 H   0  0  0  0  0  0  0  0  0  0  0  0
   -0.9266    0.7707    0.0000 H   0  0  0  0  0  0  0  0  0  0  0  0
   -0.7145   -1.2468    0.0000 H   0  0  0  0  0  0  0  0  0  0  0  0
    0.2121   -0.7118    0.0000 H   0  0  0  0  0  0  0  0  0  0  0  0
   -0.1690   -1.5117    0.0000 H   0  0  0  0  0  0  0  0  0  0  0  0
    1.5977   -1.5119    0.0000 H   0  0  0  0  0  0  0  0  0  0  0  0
  1  2  1  0  0  0  0
  1 11  1  0  0  0  0
  1 12  1  0  0  0  0
  3  8  2  0  0  0  0
  4  3  1  0  0  0  0
  4 13  1  0  0  0  0
  5  3  1  0  0  0  0
  5  9  1  0  0  0  0
  5 14  1  6  0  0  0
  6  5  1  0  0  0  0
  6 15  1  0  0  0  0
  6 16  1  0  0  0  0
  7  2  1  0  0  0  0
  7  6  1  0  0  0  0
  7 17  1  0  0  0  0
  7 18  1  0  0  0  0
  9 19  1  0  0  0  0
  9 20  1  0  0  0  0
 10  2  2  0  0  0  0
M  END
>  <DRUGBANK_ID>
DB00130

>  <SECONDARY_ACCESSION_NUMBERS>
NUTR00026

>  <COMMON_NAME>
L-Glutamine

>  <CAS_NUMBER>
56-85-9

>  <UNII>
0RH81L854J

>  <SYNONYMS>
(2S)-2-amino-4-carbamoylbutanoic acid; (2S)-2,5-diamino-5-oxopentanoic acid; (S)-2,5-diamino-5-oxopentanoic acid; Glutamic acid 5-amide; Glutamic acid amide; Glutamina; Glutamine; L-(+)-glutamine; L-2-aminoglutaramic acid; L-glutamic acid γ-amide; L-Glutamin; L-Glutamine; L-Glutaminsäure-5-amid; Levoglutamide; Q

$$$$
