ZZ4
 OpenBabel10282417072D

 34 36  0  0  0  0  0  0  0  0999 V2000
    0.7733    3.0302    0.0000 Cl  0  0  0  0  0  0  0  0  0  0  0  0
    0.7733    2.2052    0.0000 C   0  0  0  0  0  0  0  0  0  0  0  0
    1.4877    1.7927    0.0000 C   0  0  0  0  0  0  0  0  0  0  0  0
    1.4877    0.9677    0.0000 C   0  0  0  0  0  0  0  0  0  0  0  0
    0.0588    1.7927    0.0000 C   0  0  0  0  0  0  0  0  0  0  0  0
    0.0588    0.9677    0.0000 C   0  0  0  0  0  0  0  0  0  0  0  0
   -0.6557    0.5552    0.0000 Cl  0  0  0  0  0  0  0  0  0  0  0  0
    0.7733    0.5552    0.0000 C   0  0  0  0  0  0  0  0  0  0  0  0
    0.7733   -0.2698    0.0000 C   0  0  0  0  0  0  0  0  0  0  0  0
    1.4877   -0.6823    0.0000 N   0  0  0  0  0  0  0  0  0  0  0  0
    0.0588   -0.6823    0.0000 C   0  0  0  0  0  0  0  0  0  0  0  0
    0.0588   -1.5073    0.0000 C   0  0  0  0  0  0  0  0  0  0  0  0
    0.7733   -1.9198    0.0000 N   0  0  0  0  0  0  0  0  0  0  0  0
    1.4877   -1.5073    0.0000 C   0  0  0  0  0  0  0  0  0  0  0  0
    2.2022   -1.9198    0.0000 N   0  0  0  0  0  0  0  0  0  0  0  0
   -0.6557   -0.2698    0.0000 N   0  0  0  0  0  0  0  0  0  0  0  0
   -1.3702   -0.6823    0.0000 N   0  0  0  0  0  0  0  0  0  0  0  0
   -2.0846   -0.2698    0.0000 C   0  0  0  0  0  0  0  0  0  0  0  0
   -2.7991   -0.6823    0.0000 C   0  0  0  0  0  0  0  0  0  0  0  0
   -3.5136   -0.2698    0.0000 C   0  0  0  0  0  0  0  0  0  0  0  0
   -3.5136    0.5552    0.0000 C   0  0  0  0  0  0  0  0  0  0  0  0
   -2.7991    0.9677    0.0000 C   0  0  0  0  0  0  0  0  0  0  0  0
   -2.0846    0.5552    0.0000 C   0  0  0  0  0  0  0  0  0  0  0  0
    2.3814    2.3087    0.0000 H   0  0  0  0  0  0  0  0  0  0  0  0
    2.3814    0.4517    0.0000 H   0  0  0  0  0  0  0  0  0  0  0  0
   -0.8349    2.3087    0.0000 H   0  0  0  0  0  0  0  0  0  0  0  0
   -0.8349   -2.0233    0.0000 H   0  0  0  0  0  0  0  0  0  0  0  0
    2.2022   -2.9043    0.0000 H   0  0  0  0  0  0  0  0  0  0  0  0
    3.0548   -1.4275    0.0000 H   0  0  0  0  0  0  0  0  0  0  0  0
   -2.7991   -1.7143    0.0000 H   0  0  0  0  0  0  0  0  0  0  0  0
   -4.4073   -0.7858    0.0000 H   0  0  0  0  0  0  0  0  0  0  0  0
   -4.4073    1.0712    0.0000 H   0  0  0  0  0  0  0  0  0  0  0  0
   -2.7991    1.9997    0.0000 H   0  0  0  0  0  0  0  0  0  0  0  0
   -1.1909    1.0712    0.0000 H   0  0  0  0  0  0  0  0  0  0  0  0
  1  2  1  0  0  0  0
  2  3  1  0  0  0  0
  2  5  2  0  0  0  0
  3  4  2  0  0  0  0
  3 24  1  0  0  0  0
  4  8  1  0  0  0  0
  4 25  1  0  0  0  0
  5  6  1  0  0  0  0
  5 26  1  0  0  0  0
  6  7  1  0  0  0  0
  6  8  2  0  0  0  0
  8  9  1  0  0  0  0
  9 10  1  0  0  0  0
  9 11  2  0  0  0  0
 10 14  2  0  0  0  0
 11 12  1  0  0  0  0
 11 16  1  0  0  0  0
 12 13  2  0  0  0  0
 12 27  1  0  0  0  0
 13 14  1  0  0  0  0
 14 15  1  0  0  0  0
 15 28  1  0  0  0  0
 15 29  1  0  0  0  0
 16 17  2  0  0  0  0
 17 18  1  0  0  0  0
 18 19  1  0  0  0  0
 18 23  2  0  0  0  0
 19 20  2  0  0  0  0
 19 30  1  0  0  0  0
 20 21  1  0  0  0  0
 20 31  1  0  0  0  0
 21 22  2  0  0  0  0
 21 32  1  0  0  0  0
 22 23  1  0  0  0  0
 22 33  1  0  0  0  0
 23 34  1  0  0  0  0
M  END
>  <DRUGBANK_ID>
DB08787

>  <COMMON_NAME>
4-(2,4-dichlorophenyl)-5-phenyldiazenyl-pyrimidin-2-amine

$$$$
