
 OpenBabel10282417072D

 42 46  0  0  0  0  0  0  0  0999 V2000
    1.3807   -4.6280    0.0000 O   0  0  0  0  0  0  0  0  0  0  0  0
    1.1258   -3.8434    0.0000 C   0  0  0  0  0  0  0  0  0  0  0  0
    0.3188   -3.6718    0.0000 C   0  0  0  0  0  0  0  0  0  0  0  0
    0.0639   -2.8872    0.0000 C   0  0  0  0  0  0  0  0  0  0  0  0
    0.6159   -2.2741    0.0000 C   0  0  0  0  0  0  0  0  0  0  0  0
    1.4229   -2.4457    0.0000 C   0  0  0  0  0  0  0  0  0  0  0  0
    1.6778   -3.2303    0.0000 C   0  0  0  0  0  0  0  0  0  0  0  0
    1.9749   -1.8326    0.0000 C   0  0  0  0  0  0  0  0  0  0  0  0
    1.7200   -1.0479    0.0000 N   0  0  0  0  0  0  0  0  0  0  0  0
    2.2720   -0.4349    0.0000 C   0  0  0  0  0  0  0  0  0  0  0  0
    2.0171    0.3498    0.0000 N   0  0  0  0  0  0  0  0  0  0  0  0
    1.2101    0.5213    0.0000 C   0  0  0  0  0  0  0  0  0  0  0  0
    0.9552    1.3059    0.0000 C   0  0  0  0  0  0  0  0  0  0  0  0
    1.5072    1.9190    0.0000 O   0  0  0  0  0  0  0  0  0  0  0  0
    2.3142    1.7475    0.0000 C   0  0  0  0  0  0  0  0  0  0  0  0
    2.5691    0.9629    0.0000 C   0  0  0  0  0  0  0  0  0  0  0  0
    3.0790   -0.6064    0.0000 C   0  0  0  0  0  0  0  0  0  0  0  0
    3.7464   -0.1215    0.0000 O   0  0  0  0  0  0  0  0  0  0  0  0
    4.4139   -0.6064    0.0000 C   0  0  0  0  0  0  0  0  0  0  0  0
    5.2208   -0.4349    0.0000 N   0  0  0  0  0  0  0  0  0  0  0  0
    5.7729   -1.0479    0.0000 C   0  0  0  0  0  0  0  0  0  0  0  0
    5.5179   -1.8326    0.0000 C   0  0  0  0  0  0  0  0  0  0  0  0
    4.7110   -2.0041    0.0000 C   0  0  0  0  0  0  0  0  0  0  0  0
    4.1589   -1.3910    0.0000 C   0  0  0  0  0  0  0  0  0  0  0  0
    3.3339   -1.3910    0.0000 C   0  0  0  0  0  0  0  0  0  0  0  0
    2.7819   -2.0041    0.0000 N   0  0  0  0  0  0  0  0  0  0  0  0
    0.7537   -5.3243    0.0000 H   0  0  0  0  0  0  0  0  0  0  0  0
   -0.3718   -4.4387    0.0000 H   0  0  0  0  0  0  0  0  0  0  0  0
   -0.9455   -2.6726    0.0000 H   0  0  0  0  0  0  0  0  0  0  0  0
    0.2970   -1.2926    0.0000 H   0  0  0  0  0  0  0  0  0  0  0  0
    2.6872   -3.4449    0.0000 H   0  0  0  0  0  0  0  0  0  0  0  0
    0.4941   -0.2739    0.0000 H   0  0  0  0  0  0  0  0  0  0  0  0
    0.1635    0.7438    0.0000 H   0  0  0  0  0  0  0  0  0  0  0  0
   -0.0914    1.5284    0.0000 H   0  0  0  0  0  0  0  0  0  0  0  0
    0.6245    2.3235    0.0000 H   0  0  0  0  0  0  0  0  0  0  0  0
    3.0302    2.5427    0.0000 H   0  0  0  0  0  0  0  0  0  0  0  0
    3.3608    1.5250    0.0000 H   0  0  0  0  0  0  0  0  0  0  0  0
    3.6157    0.7404    0.0000 H   0  0  0  0  0  0  0  0  0  0  0  0
    2.8998   -0.0547    0.0000 H   0  0  0  0  0  0  0  0  0  0  0  0
    6.7823   -0.8333    0.0000 H   0  0  0  0  0  0  0  0  0  0  0  0
    6.2084   -2.5995    0.0000 H   0  0  0  0  0  0  0  0  0  0  0  0
    4.3921   -2.9856    0.0000 H   0  0  0  0  0  0  0  0  0  0  0  0
  1  2  1  0  0  0  0
  1 27  1  0  0  0  0
  2  3  2  0  0  0  0
  2  7  1  0  0  0  0
  3  4  1  0  0  0  0
  3 28  1  0  0  0  0
  4  5  2  0  0  0  0
  4 29  1  0  0  0  0
  5  6  1  0  0  0  0
  5 30  1  0  0  0  0
  6  7  2  0  0  0  0
  6  8  1  0  0  0  0
  7 31  1  0  0  0  0
  8  9  2  0  0  0  0
  8 26  1  0  0  0  0
  9 10  1  0  0  0  0
 10 11  1  0  0  0  0
 10 17  2  0  0  0  0
 11 12  1  0  0  0  0
 11 16  1  0  0  0  0
 12 13  1  0  0  0  0
 12 32  1  0  0  0  0
 12 33  1  0  0  0  0
 13 14  1  0  0  0  0
 13 34  1  0  0  0  0
 13 35  1  0  0  0  0
 14 15  1  0  0  0  0
 15 16  1  0  0  0  0
 15 36  1  0  0  0  0
 15 37  1  0  0  0  0
 16 38  1  0  0  0  0
 16 39  1  0  0  0  0
 17 18  1  0  0  0  0
 17 25  1  0  0  0  0
 18 19  1  0  0  0  0
 19 20  2  0  0  0  0
 19 24  1  0  0  0  0
 20 21  1  0  0  0  0
 21 22  2  0  0  0  0
 21 40  1  0  0  0  0
 22 23  1  0  0  0  0
 22 41  1  0  0  0  0
 23 24  2  0  0  0  0
 23 42  1  0  0  0  0
 24 25  1  0  0  0  0
 25 26  2  0  0  0  0
M  END
>  <DRUGBANK_ID>
DB17046

>  <COMMON_NAME>
PI-103

>  <CAS_NUMBER>
371935-74-9

>  <UNII>
YQX02F616F

>  <SYNONYMS>
Phenol, 3-(4-(4-morpholinyl)pyrido(3',2':4,5)furo(3,2-d)pyrimidin-2-yl)-

$$$$
