NIU
 OpenBabel10282417072D

 44 46  0  0  0  0  0  0  0  0999 V2000
   -0.6139   -0.4904    0.0000 C   0  0  0  0  0  0  0  0  0  0  0  0
   -0.6139   -1.3154    0.0000 C   0  0  0  0  0  0  0  0  0  0  0  0
   -1.3284   -1.7279    0.0000 O   0  0  0  0  0  0  0  0  0  0  0  0
    0.1005   -1.7279    0.0000 O   0  0  0  0  0  0  0  0  0  0  0  0
    0.8150   -1.3154    0.0000 C   0  0  0  0  0  0  0  0  0  0  0  0
    0.8150   -0.4904    0.0000 C   0  0  0  0  0  0  0  0  0  0  0  0
    0.1005   -0.0779    0.0000 C   0  0  0  0  0  0  0  0  0  0  0  0
    0.1005    0.7471    0.0000 O   0  0  0  0  0  0  0  0  0  0  0  0
   -1.3284    0.7471    0.0000 C   0  0  0  0  0  0  0  0  0  0  0  0
   -2.0429    1.1596    0.0000 C   0  0  0  0  0  0  0  0  0  0  0  0
   -2.0429    1.9846    0.0000 C   0  0  0  0  0  0  0  0  0  0  0  0
   -1.3284    2.3971    0.0000 C   0  0  0  0  0  0  0  0  0  0  0  0
   -0.6139    1.9846    0.0000 C   0  0  0  0  0  0  0  0  0  0  0  0
   -0.6139    1.1596    0.0000 C   0  0  0  0  0  0  0  0  0  0  0  0
   -1.3284   -0.0779    0.0000 C   0  0  2  0  0  0  0  0  0  0  0  0
   -2.0429   -0.4904    0.0000 C   0  0  0  0  0  0  0  0  0  0  0  0
   -2.7574   -0.0779    0.0000 C   0  0  0  0  0  0  0  0  0  0  0  0
    1.4600   -1.8298    0.0000 C   0  0  0  0  0  0  0  0  0  0  0  0
    2.2643   -1.6462    0.0000 C   0  0  0  0  0  0  0  0  0  0  0  0
    2.6223   -0.9029    0.0000 C   0  0  0  0  0  0  0  0  0  0  0  0
    2.2643   -0.1596    0.0000 C   0  0  0  0  0  0  0  0  0  0  0  0
    1.4600    0.0239    0.0000 C   0  0  0  0  0  0  0  0  0  0  0  0
   -0.8227    0.2140    0.0000 H   0  0  0  0  0  0  0  0  0  0  0  0
    0.9120    1.2156    0.0000 H   0  0  0  0  0  0  0  0  0  0  0  0
   -2.9366    0.6436    0.0000 H   0  0  0  0  0  0  0  0  0  0  0  0
   -2.9366    2.5006    0.0000 H   0  0  0  0  0  0  0  0  0  0  0  0
   -1.3284    3.4291    0.0000 H   0  0  0  0  0  0  0  0  0  0  0  0
    0.2798    2.5006    0.0000 H   0  0  0  0  0  0  0  0  0  0  0  0
    0.2798    0.6436    0.0000 H   0  0  0  0  0  0  0  0  0  0  0  0
   -2.0429   -1.5604    0.0000 H   0  0  0  0  0  0  0  0  0  0  0  0
   -2.9695   -1.0254    0.0000 H   0  0  0  0  0  0  0  0  0  0  0  0
   -2.7574    0.9921    0.0000 H   0  0  0  0  0  0  0  0  0  0  0  0
   -3.6840   -0.6129    0.0000 H   0  0  0  0  0  0  0  0  0  0  0  0
   -3.6841    0.4571    0.0000 H   0  0  0  0  0  0  0  0  0  0  0  0
    1.2219   -2.8730    0.0000 H   0  0  0  0  0  0  0  0  0  0  0  0
    2.2166   -2.5864    0.0000 H   0  0  0  0  0  0  0  0  0  0  0  0
    2.9314   -2.4828    0.0000 H   0  0  0  0  0  0  0  0  0  0  0  0
    3.3276   -1.5264    0.0000 H   0  0  0  0  0  0  0  0  0  0  0  0
    3.6923   -0.9029    0.0000 H   0  0  0  0  0  0  0  0  0  0  0  0
    3.1916    0.0031    0.0000 H   0  0  0  0  0  0  0  0  0  0  0  0
    2.9314    0.6770    0.0000 H   0  0  0  0  0  0  0  0  0  0  0  0
    1.9108    0.8503    0.0000 H   0  0  0  0  0  0  0  0  0  0  0  0
    1.2219    1.0671    0.0000 H   0  0  0  0  0  0  0  0  0  0  0  0
    2.2166    0.7805    0.0000 H   0  0  0  0  0  0  0  0  0  0  0  0
  1  2  1  0  0  0  0
  1  7  2  0  0  0  0
  1 15  1  0  0  0  0
  2  3  2  0  0  0  0
  2  4  1  0  0  0  0
  4  5  1  0  0  0  0
  5  6  2  0  0  0  0
  5 18  1  0  0  0  0
  6  7  1  0  0  0  0
  6 22  1  0  0  0  0
  7  8  1  0  0  0  0
  8 24  1  0  0  0  0
  9 10  2  0  0  0  0
  9 14  1  0  0  0  0
  9 15  1  0  0  0  0
 10 11  1  0  0  0  0
 10 25  1  0  0  0  0
 11 12  2  0  0  0  0
 11 26  1  0  0  0  0
 12 13  1  0  0  0  0
 12 27  1  0  0  0  0
 13 14  2  0  0  0  0
 13 28  1  0  0  0  0
 14 29  1  0  0  0  0
 15 16  1  0  0  0  0
 15 23  1  6  0  0  0
 16 17  1  0  0  0  0
 16 30  1  0  0  0  0
 16 31  1  0  0  0  0
 17 32  1  0  0  0  0
 17 33  1  0  0  0  0
 17 34  1  0  0  0  0
 18 19  1  0  0  0  0
 18 35  1  0  0  0  0
 18 36  1  0  0  0  0
 19 20  1  0  0  0  0
 19 37  1  0  0  0  0
 19 38  1  0  0  0  0
 20 21  1  0  0  0  0
 20 39  1  0  0  0  0
 20 40  1  0  0  0  0
 21 22  1  0  0  0  0
 21 41  1  0  0  0  0
 21 42  1  0  0  0  0
 22 43  1  0  0  0  0
 22 44  1  0  0  0  0
M  END
>  <DRUGBANK_ID>
DB08274

>  <COMMON_NAME>
6,7,8,9-TETRAHYDRO-4-HYDROXY-3-(1-PHENYLPROPYL)CYCLOHEPTA[B]PYRAN-2-ONE

$$$$
