
 OpenBabel10282417072D

 61 64  0  0  0  0  0  0  0  0999 V2000
   -3.1250   -0.5885    0.0000 C   0  0  0  0  0  0  0  0  0  0  0  0
   -3.1250   -1.4135    0.0000 C   0  0  0  0  0  0  0  0  0  0  0  0
   -2.4106   -1.8259    0.0000 C   0  0  0  0  0  0  0  0  0  0  0  0
   -1.6963   -1.4135    0.0000 C   0  0  0  0  0  0  0  0  0  0  0  0
   -1.6963   -0.5885    0.0000 C   0  0  2  0  0  0  0  0  0  0  0  0
   -2.4106   -0.1761    0.0000 C   0  0  0  0  0  0  0  0  0  0  0  0
   -0.9818   -1.8259    0.0000 C   0  0  0  0  0  0  0  0  0  0  0  0
   -0.2675   -1.4135    0.0000 C   0  0  0  0  0  0  0  0  0  0  0  0
   -0.2675   -0.5885    0.0000 C   0  0  2  0  0  0  0  0  0  0  0  0
   -0.9818   -0.1761    0.0000 C   0  0  2  0  0  0  0  0  0  0  0  0
    0.4469   -0.1761    0.0000 C   0  0  1  0  0  0  0  0  0  0  0  0
    0.4469    0.6487    0.0000 C   0  0  2  0  0  0  0  0  0  0  0  0
   -0.2675    1.0610    0.0000 C   0  0  0  0  0  0  0  0  0  0  0  0
   -0.9818    0.6487    0.0000 C   0  0  0  0  0  0  0  0  0  0  0  0
    1.8755   -0.1761    0.0000 C   0  0  0  0  0  0  0  0  0  0  0  0
    1.8755    0.6487    0.0000 C   0  0  0  0  0  0  0  0  0  0  0  0
    1.1611    1.0610    0.0000 C   0  0  2  0  0  0  0  0  0  0  0  0
   -0.9803   -1.0011    0.0000 H   0  0  0  0  0  0  0  0  0  0  0  0
    0.4632   -1.0011    0.0000 H   0  0  0  0  0  0  0  0  0  0  0  0
   -0.2366    0.2362    0.0000 H   0  0  0  0  0  0  0  0  0  0  0  0
    0.4632    1.4735    0.0000 C   0  0  0  0  0  0  0  0  0  0  0  0
   -1.6981    0.2600    0.0000 C   0  0  0  0  0  0  0  0  0  0  0  0
   -0.9818   -2.6688    0.0000 C   0  0  0  0  0  0  0  0  0  0  0  0
   -3.8647   -1.8408    0.0000 O   0  0  0  0  0  0  0  0  0  0  0  0
    1.1612    1.8977    0.0000 C   0  0  0  0  0  0  0  0  0  0  0  0
    1.8998    2.3242    0.0000 O   0  0  0  0  0  0  0  0  0  0  0  0
    0.4447    2.3116    0.0000 C   0  0  0  0  0  0  0  0  0  0  0  0
    2.6089    1.0723    0.0000 C   0  0  0  0  0  0  0  0  0  0  0  0
    2.6028    1.9432    0.0000 O   0  0  0  0  0  0  0  0  0  0  0  0
    3.4429    1.9432    0.0000 C   0  0  0  0  0  0  0  0  0  0  0  0
    3.8647    1.2125    0.0000 O   0  0  0  0  0  0  0  0  0  0  0  0
    3.8619    2.6688    0.0000 C   0  0  0  0  0  0  0  0  0  0  0  0
   -4.0516   -0.0535    0.0000 H   0  0  0  0  0  0  0  0  0  0  0  0
   -3.1250    0.4815    0.0000 H   0  0  0  0  0  0  0  0  0  0  0  0
   -2.4106   -2.8579    0.0000 H   0  0  0  0  0  0  0  0  0  0  0  0
   -2.4106    0.8939    0.0000 H   0  0  0  0  0  0  0  0  0  0  0  0
   -3.3372    0.3589    0.0000 H   0  0  0  0  0  0  0  0  0  0  0  0
    0.6262   -1.9295    0.0000 H   0  0  0  0  0  0  0  0  0  0  0  0
   -0.2675    2.1310    0.0000 H   0  0  0  0  0  0  0  0  0  0  0  0
   -1.1941    1.5960    0.0000 H   0  0  0  0  0  0  0  0  0  0  0  0
   -1.9084    1.1837    0.0000 H   0  0  0  0  0  0  0  0  0  0  0  0
   -1.9085    0.1137    0.0000 H   0  0  0  0  0  0  0  0  0  0  0  0
    2.6321   -0.9327    0.0000 H   0  0  0  0  0  0  0  0  0  0  0  0
    2.8641    0.2334    0.0000 H   0  0  0  0  0  0  0  0  0  0  0  0
    1.4002    1.9901    0.0000 H   0  0  0  0  0  0  0  0  0  0  0  0
   -0.4527    2.0267    0.0000 H   0  0  0  0  0  0  0  0  0  0  0  0
    0.4843    2.5433    0.0000 H   0  0  0  0  0  0  0  0  0  0  0  0
   -0.7726    0.7970    0.0000 H   0  0  0  0  0  0  0  0  0  0  0  0
   -2.6259    0.7930    0.0000 H   0  0  0  0  0  0  0  0  0  0  0  0
   -1.7004    1.3300    0.0000 H   0  0  0  0  0  0  0  0  0  0  0  0
   -1.9084   -3.2038    0.0000 H   0  0  0  0  0  0  0  0  0  0  0  0
   -0.0552   -3.2038    0.0000 H   0  0  0  0  0  0  0  0  0  0  0  0
   -0.9818   -3.7388    0.0000 H   0  0  0  0  0  0  0  0  0  0  0  0
    0.4450    3.3816    0.0000 H   0  0  0  0  0  0  0  0  0  0  0  0
   -0.4821    1.7768    0.0000 H   0  0  0  0  0  0  0  0  0  0  0  0
   -0.4818    2.8468    0.0000 H   0  0  0  0  0  0  0  0  0  0  0  0
    3.5027    0.5565    0.0000 H   0  0  0  0  0  0  0  0  0  0  0  0
    2.6087    2.1043    0.0000 H   0  0  0  0  0  0  0  0  0  0  0  0
    4.9319    2.6687    0.0000 H   0  0  0  0  0  0  0  0  0  0  0  0
    3.3270    3.5955    0.0000 H   0  0  0  0  0  0  0  0  0  0  0  0
    4.3970    3.5954    0.0000 H   0  0  0  0  0  0  0  0  0  0  0  0
  1  2  1  0  0  0  0
  1  6  1  0  0  0  0
  1 33  1  0  0  0  0
  1 34  1  0  0  0  0
  2  3  1  0  0  0  0
  2 24  2  0  0  0  0
  3  4  2  0  0  0  0
  3 35  1  0  0  0  0
  4  5  1  0  0  0  0
  4  7  1  0  0  0  0
  5  6  1  0  0  0  0
  5 10  1  0  0  0  0
  5 22  1  1  0  0  0
  6 36  1  0  0  0  0
  6 37  1  0  0  0  0
  7  8  2  0  0  0  0
  7 23  1  0  0  0  0
  8  9  1  0  0  0  0
  8 38  1  0  0  0  0
  9 10  1  0  0  0  0
  9 11  1  0  0  0  0
  9 20  1  1  0  0  0
 10 14  1  0  0  0  0
 10 18  1  6  0  0  0
 11 12  1  0  0  0  0
 11 15  1  0  0  0  0
 11 19  1  6  0  0  0
 12 13  1  0  0  0  0
 12 17  1  0  0  0  0
 12 21  1  1  0  0  0
 13 14  1  0  0  0  0
 13 39  1  0  0  0  0
 13 40  1  0  0  0  0
 14 41  1  0  0  0  0
 14 42  1  0  0  0  0
 15 16  1  0  0  0  0
 15 43  1  0  0  0  0
 15 44  1  0  0  0  0
 16 17  1  0  0  0  0
 16 28  2  0  0  0  0
 17 25  1  1  0  0  0
 17 29  1  0  0  0  0
 21 45  1  0  0  0  0
 21 46  1  0  0  0  0
 21 47  1  0  0  0  0
 22 48  1  0  0  0  0
 22 49  1  0  0  0  0
 22 50  1  0  0  0  0
 23 51  1  0  0  0  0
 23 52  1  0  0  0  0
 23 53  1  0  0  0  0
 25 26  2  0  0  0  0
 25 27  1  0  0  0  0
 27 54  1  0  0  0  0
 27 55  1  0  0  0  0
 27 56  1  0  0  0  0
 28 57  1  0  0  0  0
 28 58  1  0  0  0  0
 29 30  1  0  0  0  0
 30 31  2  0  0  0  0
 30 32  1  0  0  0  0
 32 59  1  0  0  0  0
 32 60  1  0  0  0  0
 32 61  1  0  0  0  0
M  END
>  <DRUGBANK_ID>
DB14659

>  <SECONDARY_ACCESSION_NUMBERS>
DBSALT001692

>  <COMMON_NAME>
Melengestrol acetate

>  <CAS_NUMBER>
2919-66-6

>  <UNII>
4W5HDS3936

>  <SYNONYMS>
Melengestrol acetate

$$$$
