
 OpenBabel10282417072D

 54 57  0  0  0  0  0  0  0  0999 V2000
   -1.4639   -0.3336    0.0000 C   0  0  0  0  0  0  0  0  0  0  0  0
   -2.1784   -0.7461    0.0000 C   0  0  0  0  0  0  0  0  0  0  0  0
   -2.1784   -1.5712    0.0000 C   0  0  0  0  0  0  0  0  0  0  0  0
   -1.4639   -1.9837    0.0000 C   0  0  0  0  0  0  0  0  0  0  0  0
   -0.7495   -1.5712    0.0000 C   0  0  0  0  0  0  0  0  0  0  0  0
   -0.7495   -0.7461    0.0000 C   0  0  1  0  0  0  0  0  0  0  0  0
   -0.0350   -0.3336    0.0000 C   0  0  2  0  0  0  0  0  0  0  0  0
   -0.0350   -1.9837    0.0000 C   0  0  0  0  0  0  0  0  0  0  0  0
    0.6794   -1.5712    0.0000 C   0  0  0  0  0  0  0  0  0  0  0  0
    0.6794   -0.7461    0.0000 C   0  0  1  0  0  0  0  0  0  0  0  0
    0.6794    0.9038    0.0000 C   0  0  0  0  0  0  0  0  0  0  0  0
   -0.0350    0.4913    0.0000 C   0  0  2  0  0  0  0  0  0  0  0  0
    1.3938   -0.3336    0.0000 C   0  0  1  0  0  0  0  0  0  0  0  0
    1.3938    0.4913    0.0000 C   0  0  1  0  0  0  0  0  0  0  0  0
    2.1785    0.7462    0.0000 C   0  0  2  0  0  0  0  0  0  0  0  0
    2.1785   -0.5885    0.0000 C   0  0  0  0  0  0  0  0  0  0  0  0
    2.6634    0.0788    0.0000 C   0  0  0  0  0  0  0  0  0  0  0  0
   -2.8929   -1.9837    0.0000 O   0  0  0  0  0  0  0  0  0  0  0  0
   -0.7495    0.0788    0.0000 C   0  0  0  0  0  0  0  0  0  0  0  0
    1.3938    1.3163    0.0000 C   0  0  0  0  0  0  0  0  0  0  0  0
   -0.7495    0.9038    0.0000 O   0  0  0  0  0  0  0  0  0  0  0  0
    2.1785    1.5712    0.0000 C   0  0  0  0  0  0  0  0  0  0  0  0
    0.6794    0.0788    0.0000 H   0  0  0  0  0  0  0  0  0  0  0  0
   -0.0350   -1.1586    0.0000 H   0  0  0  0  0  0  0  0  0  0  0  0
    1.3938   -1.1586    0.0000 H   0  0  0  0  0  0  0  0  0  0  0  0
    2.8929    1.1587    0.0000 O   0  0  0  0  0  0  0  0  0  0  0  0
    1.4640    1.9837    0.0000 O   0  0  0  0  0  0  0  0  0  0  0  0
    2.8929    1.9837    0.0000 O   0  0  0  0  0  0  0  0  0  0  0  0
    0.7495    1.5712    0.0000 C   0  0  0  0  0  0  0  0  0  0  0  0
    0.0350    1.9837    0.0000 Cl  0  0  0  0  0  0  0  0  0  0  0  0
   -1.4639    0.6984    0.0000 H   0  0  0  0  0  0  0  0  0  0  0  0
   -3.0721   -0.2301    0.0000 H   0  0  0  0  0  0  0  0  0  0  0  0
   -1.4639   -3.0157    0.0000 H   0  0  0  0  0  0  0  0  0  0  0  0
   -0.0350   -3.0537    0.0000 H   0  0  0  0  0  0  0  0  0  0  0  0
    0.8917   -2.5187    0.0000 H   0  0  0  0  0  0  0  0  0  0  0  0
    1.6061   -2.1062    0.0000 H   0  0  0  0  0  0  0  0  0  0  0  0
    1.6060   -1.0362    0.0000 H   0  0  0  0  0  0  0  0  0  0  0  0
    0.6794    1.9738    0.0000 H   0  0  0  0  0  0  0  0  0  0  0  0
    1.6061    1.4388    0.0000 H   0  0  0  0  0  0  0  0  0  0  0  0
   -0.9616   -0.0437    0.0000 H   0  0  0  0  0  0  0  0  0  0  0  0
    2.5091   -1.6061    0.0000 H   0  0  0  0  0  0  0  0  0  0  0  0
    3.2353   -0.7559    0.0000 H   0  0  0  0  0  0  0  0  0  0  0  0
    3.7334    0.0788    0.0000 H   0  0  0  0  0  0  0  0  0  0  0  0
    3.1492    1.0322    0.0000 H   0  0  0  0  0  0  0  0  0  0  0  0
    0.1771    0.6138    0.0000 H   0  0  0  0  0  0  0  0  0  0  0  0
   -1.6761    0.6138    0.0000 H   0  0  0  0  0  0  0  0  0  0  0  0
   -0.7495    1.1488    0.0000 H   0  0  0  0  0  0  0  0  0  0  0  0
    2.3204    1.8513    0.0000 H   0  0  0  0  0  0  0  0  0  0  0  0
    0.4672    1.8513    0.0000 H   0  0  0  0  0  0  0  0  0  0  0  0
    1.3938    2.3863    0.0000 H   0  0  0  0  0  0  0  0  0  0  0  0
   -0.7495    1.8738    0.0000 H   0  0  0  0  0  0  0  0  0  0  0  0
    3.7330    0.6737    0.0000 H   0  0  0  0  0  0  0  0  0  0  0  0
    0.7495    0.5012    0.0000 H   0  0  0  0  0  0  0  0  0  0  0  0
   -0.1771    1.0362    0.0000 H   0  0  0  0  0  0  0  0  0  0  0  0
  1  2  2  0  0  0  0
  1  6  1  0  0  0  0
  1 31  1  0  0  0  0
  2  3  1  0  0  0  0
  2 32  1  0  0  0  0
  3  4  1  0  0  0  0
  3 18  2  0  0  0  0
  4  5  2  0  0  0  0
  4 33  1  0  0  0  0
  5  8  1  0  0  0  0
  6  5  1  0  0  0  0
  6 19  1  1  0  0  0
  7  6  1  0  0  0  0
  7 10  1  0  0  0  0
  7 24  1  6  0  0  0
  8  9  1  0  0  0  0
  8 34  1  0  0  0  0
  8 35  1  0  0  0  0
  9 10  1  0  0  0  0
  9 36  1  0  0  0  0
  9 37  1  0  0  0  0
 10 13  1  0  0  0  0
 10 23  1  1  0  0  0
 11 12  1  0  0  0  0
 11 14  1  0  0  0  0
 11 38  1  0  0  0  0
 11 39  1  0  0  0  0
 12  7  1  0  0  0  0
 12 21  1  0  0  0  0
 12 40  1  6  0  0  0
 13 16  1  0  0  0  0
 13 25  1  6  0  0  0
 14 13  1  0  0  0  0
 14 20  1  1  0  0  0
 15 14  1  0  0  0  0
 15 17  1  0  0  0  0
 15 22  1  1  0  0  0
 15 26  1  0  0  0  0
 16 17  1  0  0  0  0
 16 41  1  0  0  0  0
 16 42  1  0  0  0  0
 17 43  1  0  0  0  0
 17 44  1  0  0  0  0
 19 45  1  0  0  0  0
 19 46  1  0  0  0  0
 19 47  1  0  0  0  0
 20 48  1  0  0  0  0
 20 49  1  0  0  0  0
 20 50  1  0  0  0  0
 21 51  1  0  0  0  0
 22 27  1  0  0  0  0
 22 28  2  0  0  0  0
 26 52  1  0  0  0  0
 27 29  1  0  0  0  0
 29 30  1  0  0  0  0
 29 53  1  0  0  0  0
 29 54  1  0  0  0  0
M  END
>  <DRUGBANK_ID>
DB00873

>  <SECONDARY_ACCESSION_NUMBERS>
APRD01078

>  <COMMON_NAME>
Loteprednol

>  <CAS_NUMBER>
129260-79-3

>  <UNII>
Z8CBU6KR16

>  <SYNONYMS>
Loteprednol

$$$$
