
 OpenBabel10282417072D

 49 50  0  0  0  0  0  0  0  0999 V2000
   -4.1331    0.7837    0.0000 C   0  0  0  0  0  0  0  0  0  0  0  0
   -3.4220    1.1963    0.0000 N   0  0  0  0  0  0  0  0  0  0  0  0
   -4.1331   -0.0490    0.0000 C   0  0  0  0  0  0  0  0  0  0  0  0
   -4.8522    1.1923    0.0000 C   0  0  0  0  0  0  0  0  0  0  0  0
   -2.7069    0.7877    0.0000 C   0  0  0  0  0  0  0  0  0  0  0  0
   -4.8482   -0.4616    0.0000 C   0  0  0  0  0  0  0  0  0  0  0  0
   -5.5633    0.7798    0.0000 C   0  0  0  0  0  0  0  0  0  0  0  0
   -1.9918    1.2042    0.0000 N   0  0  0  0  0  0  0  0  0  0  0  0
   -2.7069   -0.0373    0.0000 O   0  0  0  0  0  0  0  0  0  0  0  0
   -5.5671   -0.0490    0.0000 C   0  0  0  0  0  0  0  0  0  0  0  0
   -1.2807    0.7916    0.0000 C   0  0  0  0  0  0  0  0  0  0  0  0
   -6.2822   -0.4616    0.0000 N   0  3  0  0  0  0  0  0  0  0  0  0
   -1.2807   -0.0333    0.0000 C   0  0  0  0  0  0  0  0  0  0  0  0
   -0.5774    1.2080    0.0000 C   0  0  0  0  0  0  0  0  0  0  0  0
   -6.2822   -1.2866    0.0000 O   0  0  0  0  0  0  0  0  0  0  0  0
   -6.9934   -0.0490    0.0000 O   0  5  0  0  0  0  0  0  0  0  0  0
   -0.5696   -0.4380    0.0000 C   0  0  0  0  0  0  0  0  0  0  0  0
    0.1375    0.7995    0.0000 C   0  0  0  0  0  0  0  0  0  0  0  0
    0.1414   -0.0255    0.0000 C   0  0  0  0  0  0  0  0  0  0  0  0
    0.8604   -0.4340    0.0000 N   0  3  0  0  0  0  0  0  0  0  0  0
    0.8644   -1.2631    0.0000 O   0  0  0  0  0  0  0  0  0  0  0  0
    1.5754   -0.0216    0.0000 O   0  5  0  0  0  0  0  0  0  0  0  0
    6.3215    0.8584    0.0000 C   0  0  0  0  0  0  0  0  0  0  0  0
    6.3215   -0.0373    0.0000 C   0  0  0  0  0  0  0  0  0  0  0  0
    5.5751    1.2866    0.0000 N   0  0  0  0  0  0  0  0  0  0  0  0
    6.9934    1.1609    0.0000 C   0  0  0  0  0  0  0  0  0  0  0  0
    5.5751   -0.4695    0.0000 C   0  0  0  0  0  0  0  0  0  0  0  0
    4.7854    0.8584    0.0000 C   0  0  0  0  0  0  0  0  0  0  0  0
    4.7854   -0.0373    0.0000 N   0  0  0  0  0  0  0  0  0  0  0  0
    5.5751   -1.1177    0.0000 C   0  0  0  0  0  0  0  0  0  0  0  0
    4.1803    1.2277    0.0000 O   0  0  0  0  0  0  0  0  0  0  0  0
   -3.4253    2.1808    0.0000 H   0  0  0  0  0  0  0  0  0  0  0  0
   -3.2394   -0.5651    0.0000 H   0  0  0  0  0  0  0  0  0  0  0  0
   -4.8568    2.2243    0.0000 H   0  0  0  0  0  0  0  0  0  0  0  0
   -4.8470   -1.4936    0.0000 H   0  0  0  0  0  0  0  0  0  0  0  0
   -6.4564    1.2969    0.0000 H   0  0  0  0  0  0  0  0  0  0  0  0
   -1.9926    2.1887    0.0000 H   0  0  0  0  0  0  0  0  0  0  0  0
   -2.1728   -0.5521    0.0000 H   0  0  0  0  0  0  0  0  0  0  0  0
   -0.5854    2.2400    0.0000 H   0  0  0  0  0  0  0  0  0  0  0  0
   -0.5653   -1.4700    0.0000 H   0  0  0  0  0  0  0  0  0  0  0  0
    1.0289    1.3196    0.0000 H   0  0  0  0  0  0  0  0  0  0  0  0
    7.2156   -0.5527    0.0000 H   0  0  0  0  0  0  0  0  0  0  0  0
    7.8617    0.5356    0.0000 H   0  0  0  0  0  0  0  0  0  0  0  0
    7.1008    2.2255    0.0000 H   0  0  0  0  0  0  0  0  0  0  0  0
    7.9691    1.6002    0.0000 H   0  0  0  0  0  0  0  0  0  0  0  0
    4.6485   -1.6527    0.0000 H   0  0  0  0  0  0  0  0  0  0  0  0
    6.5017   -1.6527    0.0000 H   0  0  0  0  0  0  0  0  0  0  0  0
    5.5751   -2.1877    0.0000 H   0  0  0  0  0  0  0  0  0  0  0  0
    4.2031    2.1644    0.0000 H   0  0  0  0  0  0  0  0  0  0  0  0
  1  2  1  0  0  0  0
  1  3  1  0  0  0  0
  1  4  2  0  0  0  0
  2  5  1  0  0  0  0
  2 32  1  0  0  0  0
  3  6  2  0  0  0  0
  3 33  1  0  0  0  0
  4  7  1  0  0  0  0
  4 34  1  0  0  0  0
  5  8  1  0  0  0  0
  5  9  2  0  0  0  0
  6 10  1  0  0  0  0
  6 35  1  0  0  0  0
  7 10  2  0  0  0  0
  7 36  1  0  0  0  0
  8 11  1  0  0  0  0
  8 37  1  0  0  0  0
 10 12  1  0  0  0  0
 11 13  2  0  0  0  0
 11 14  1  0  0  0  0
 12 16  1  0  0  0  0
 12 15  2  0  0  0  0
 13 17  1  0  0  0  0
 13 38  1  0  0  0  0
 14 18  2  0  0  0  0
 14 39  1  0  0  0  0
 17 19  2  0  0  0  0
 17 40  1  0  0  0  0
 18 19  1  0  0  0  0
 18 41  1  0  0  0  0
 19 20  1  0  0  0  0
 20 21  2  0  0  0  0
 20 22  1  0  0  0  0
 23 24  1  0  0  0  0
 23 25  2  0  0  0  0
 23 26  1  0  0  0  0
 24 27  2  0  0  0  0
 24 42  1  0  0  0  0
 25 28  1  0  0  0  0
 26 43  1  0  0  0  0
 26 44  1  0  0  0  0
 26 45  1  0  0  0  0
 27 29  1  0  0  0  0
 27 30  1  0  0  0  0
 28 31  1  0  0  0  0
 28 29  2  0  0  0  0
 30 46  1  0  0  0  0
 30 47  1  0  0  0  0
 30 48  1  0  0  0  0
 31 49  1  0  0  0  0
M  CHG  4  12   1  16  -1  20   1  22  -1
M  END
>  <DRUGBANK_ID>
DB11434

>  <COMMON_NAME>
Nicarbazin

>  <CAS_NUMBER>
330-95-0

>  <UNII>
11P9NUA12U

>  <SYNONYMS>
Nicarbazin

$$$$
