
 OpenBabel10282417072D

 27 27  0  0  0  0  0  0  0  0999 V2000
    0.7145   -0.4125    0.0000 N   0  0  0  0  0  0  0  0  0  0  0  0
    0.7145    0.4125    0.0000 C   0  0  2  0  0  0  0  0  0  0  0  0
    1.4289    0.8250    0.0000 C   0  0  0  0  0  0  0  0  0  0  0  0
    1.4289    1.6500    0.0000 O   0  0  0  0  0  0  0  0  0  0  0  0
    2.1434    0.4125    0.0000 O   0  0  0  0  0  0  0  0  0  0  0  0
    0.0000    0.8250    0.0000 C   0  0  0  0  0  0  0  0  0  0  0  0
   -0.7144    0.4125    0.0000 C   0  0  0  0  0  0  0  0  0  0  0  0
   -1.4289    0.8250    0.0000 C   0  0  0  0  0  0  0  0  0  0  0  0
   -2.1434    0.4125    0.0000 C   0  0  0  0  0  0  0  0  0  0  0  0
   -2.1434   -0.4125    0.0000 C   0  0  0  0  0  0  0  0  0  0  0  0
   -1.4289   -0.8249    0.0000 C   0  0  0  0  0  0  0  0  0  0  0  0
   -0.7144   -0.4125    0.0000 C   0  0  0  0  0  0  0  0  0  0  0  0
    1.4289   -0.8249    0.0000 C   0  0  0  0  0  0  0  0  0  0  0  0
    1.4289   -1.6500    0.0000 N   0  0  0  0  0  0  0  0  0  0  0  0
    2.1434   -0.4125    0.0000 O   0  0  0  0  0  0  0  0  0  0  0  0
   -0.1381   -0.9048    0.0000 H   0  0  0  0  0  0  0  0  0  0  0  0
   -0.2121   -0.1225    0.0000 H   0  0  0  0  0  0  0  0  0  0  0  0
    2.1434   -0.5245    0.0000 H   0  0  0  0  0  0  0  0  0  0  0  0
   -0.0000    1.8950    0.0000 H   0  0  0  0  0  0  0  0  0  0  0  0
   -0.9267    1.3600    0.0000 H   0  0  0  0  0  0  0  0  0  0  0  0
   -1.4289    1.8570    0.0000 H   0  0  0  0  0  0  0  0  0  0  0  0
   -3.0371    0.9285    0.0000 H   0  0  0  0  0  0  0  0  0  0  0  0
   -3.0371   -0.9286    0.0000 H   0  0  0  0  0  0  0  0  0  0  0  0
   -1.4289   -1.8569    0.0000 H   0  0  0  0  0  0  0  0  0  0  0  0
    0.1793   -0.9286    0.0000 H   0  0  0  0  0  0  0  0  0  0  0  0
    0.5763   -2.1422    0.0000 H   0  0  0  0  0  0  0  0  0  0  0  0
    2.2815   -2.1422    0.0000 H   0  0  0  0  0  0  0  0  0  0  0  0
  1 13  1  0  0  0  0
  1 16  1  0  0  0  0
  2  1  1  0  0  0  0
  2  6  1  0  0  0  0
  2 17  1  6  0  0  0
  3  2  1  0  0  0  0
  3  5  1  0  0  0  0
  4  3  2  0  0  0  0
  5 18  1  0  0  0  0
  6  7  1  0  0  0  0
  6 19  1  0  0  0  0
  6 20  1  0  0  0  0
  7 12  1  0  0  0  0
  8  7  2  0  0  0  0
  8 21  1  0  0  0  0
  9  8  1  0  0  0  0
  9 22  1  0  0  0  0
 10  9  2  0  0  0  0
 10 23  1  0  0  0  0
 11 10  1  0  0  0  0
 11 24  1  0  0  0  0
 12 11  2  0  0  0  0
 12 25  1  0  0  0  0
 13 14  1  0  0  0  0
 13 15  2  0  0  0  0
 14 26  1  0  0  0  0
 14 27  1  0  0  0  0
M  END
>  <DRUGBANK_ID>
DB04058

>  <SECONDARY_ACCESSION_NUMBERS>
EXPT01885

>  <COMMON_NAME>
N-Carbamoylphenylalanine

>  <CAS_NUMBER>
949-45-1

>  <UNII>
7XS3UG99LC

>  <SYNONYMS>
(-)-N-Carbamoylphenylalanine; N-(Aminocarbonyl)-L-phenylalanine

$$$$
