I46
 OpenBabel10282417072D

 28 30  0  0  0  0  0  0  0  0999 V2000
    0.0307    0.5608    0.0000 C   0  0  0  0  0  0  0  0  0  0  0  0
    1.4597    0.5608    0.0000 C   0  0  0  0  0  0  0  0  0  0  0  0
    0.0307    1.3858    0.0000 C   0  0  0  0  0  0  0  0  0  0  0  0
    1.4597    1.3858    0.0000 C   0  0  0  0  0  0  0  0  0  0  0  0
   -0.8784   -0.0997    0.0000 C   0  0  0  0  0  0  0  0  0  0  0  0
   -1.6630    0.1552    0.0000 C   0  0  0  0  0  0  0  0  0  0  0  0
   -1.3200   -1.4587    0.0000 C   0  0  0  0  0  0  0  0  0  0  0  0
    1.4126   -1.1617    0.0000 C   0  0  0  0  0  0  0  0  0  0  0  0
    0.7452    0.1483    0.0000 C   0  0  0  0  0  0  0  0  0  0  0  0
    0.7452    1.7983    0.0000 C   0  0  0  0  0  0  0  0  0  0  0  0
   -0.7069   -0.9067    0.0000 C   0  0  0  0  0  0  0  0  0  0  0  0
   -2.1046   -1.2038    0.0000 C   0  0  0  0  0  0  0  0  0  0  0  0
    0.7452   -0.6767    0.0000 C   0  0  0  0  0  0  0  0  0  0  0  0
    0.0778   -1.1617    0.0000 C   0  0  0  0  0  0  0  0  0  0  0  0
    1.1577   -1.9463    0.0000 N   0  0  0  0  0  0  0  0  0  0  0  0
   -2.2761   -0.3968    0.0000 N   0  0  0  0  0  0  0  0  0  0  0  0
    0.3327   -1.9463    0.0000 N   0  0  0  0  0  0  0  0  0  0  0  0
    0.7452    2.6233    0.0000 F   0  0  0  0  0  0  0  0  0  0  0  0
   -2.7177   -1.7558    0.0000 F   0  0  0  0  0  0  0  0  0  0  0  0
   -0.8630    0.0448    0.0000 H   0  0  0  0  0  0  0  0  0  0  0  0
    2.3534    0.0448    0.0000 H   0  0  0  0  0  0  0  0  0  0  0  0
   -0.8630    1.9018    0.0000 H   0  0  0  0  0  0  0  0  0  0  0  0
    2.3534    1.9018    0.0000 H   0  0  0  0  0  0  0  0  0  0  0  0
   -0.1115    0.5908    0.0000 H   0  0  0  0  0  0  0  0  0  0  0  0
   -1.8776    1.1646    0.0000 H   0  0  0  0  0  0  0  0  0  0  0  0
   -1.1054   -2.4681    0.0000 H   0  0  0  0  0  0  0  0  0  0  0  0
    2.3941   -0.8428    0.0000 H   0  0  0  0  0  0  0  0  0  0  0  0
    1.7364   -2.7428    0.0000 H   0  0  0  0  0  0  0  0  0  0  0  0
  1  3  1  0  0  0  0
  1 20  1  0  0  0  0
  2  9  1  0  0  0  0
  2  4  2  0  0  0  0
  2 21  1  0  0  0  0
  3 22  1  0  0  0  0
  4 10  1  0  0  0  0
  4 23  1  0  0  0  0
  5 11  1  0  0  0  0
  5 24  1  0  0  0  0
  6  5  2  0  0  0  0
  6 16  1  0  0  0  0
  6 25  1  0  0  0  0
  7 26  1  0  0  0  0
  8 27  1  0  0  0  0
  9  1  2  0  0  0  0
 10  3  2  0  0  0  0
 10 18  1  0  0  0  0
 11  7  2  0  0  0  0
 11 14  1  0  0  0  0
 12  7  1  0  0  0  0
 12 19  1  0  0  0  0
 13  8  2  0  0  0  0
 13  9  1  0  0  0  0
 14 13  1  0  0  0  0
 15  8  1  0  0  0  0
 15 28  1  0  0  0  0
 16 12  2  0  0  0  0
 17 14  2  0  0  0  0
 17 15  1  0  0  0  0
M  END
>  <DRUGBANK_ID>
DB07942

>  <COMMON_NAME>
2-fluoro-4-[4-(4-fluorophenyl)-1H-pyrazol-3-yl]pyridine

$$$$
