TNL
 OpenBabel10282417072D

 21 21  0  0  0  0  0  0  0  0999 V2000
    0.4705    0.2768    0.0000 C   0  0  0  0  0  0  0  0  0  0  0  0
    1.1850    0.6893    0.0000 C   0  0  0  0  0  0  0  0  0  0  0  0
    0.4705   -0.5482    0.0000 C   0  0  0  0  0  0  0  0  0  0  0  0
    1.1850   -0.9607    0.0000 N   0  3  0  0  0  0  0  0  0  0  0  0
    1.1850   -1.7857    0.0000 O   0  0  0  0  0  0  0  0  0  0  0  0
    1.8994   -0.5482    0.0000 O   0  5  0  0  0  0  0  0  0  0  0  0
   -0.2440   -0.9607    0.0000 C   0  0  0  0  0  0  0  0  0  0  0  0
   -0.9584   -0.5482    0.0000 C   0  0  0  0  0  0  0  0  0  0  0  0
   -1.6729   -0.9607    0.0000 N   0  3  0  0  0  0  0  0  0  0  0  0
   -1.6729   -1.7857    0.0000 O   0  0  0  0  0  0  0  0  0  0  0  0
   -2.3874   -0.5482    0.0000 O   0  5  0  0  0  0  0  0  0  0  0  0
   -0.9584    0.2768    0.0000 C   0  0  0  0  0  0  0  0  0  0  0  0
   -0.2440    0.6893    0.0000 C   0  0  0  0  0  0  0  0  0  0  0  0
   -0.2440    1.5143    0.0000 N   0  3  0  0  0  0  0  0  0  0  0  0
   -0.9584    1.9268    0.0000 O   0  0  0  0  0  0  0  0  0  0  0  0
    0.4705    1.9268    0.0000 O   0  5  0  0  0  0  0  0  0  0  0  0
    2.1116    0.1543    0.0000 H   0  0  0  0  0  0  0  0  0  0  0  0
    1.1850    1.7593    0.0000 H   0  0  0  0  0  0  0  0  0  0  0  0
    2.1117    1.2243    0.0000 H   0  0  0  0  0  0  0  0  0  0  0  0
   -0.2440   -1.9927    0.0000 H   0  0  0  0  0  0  0  0  0  0  0  0
   -1.8521    0.7928    0.0000 H   0  0  0  0  0  0  0  0  0  0  0  0
  1  2  1  0  0  0  0
  1  3  2  0  0  0  0
  1 13  1  0  0  0  0
  2 17  1  0  0  0  0
  2 18  1  0  0  0  0
  2 19  1  0  0  0  0
  3  4  1  0  0  0  0
  3  7  1  0  0  0  0
  4  5  2  0  0  0  0
  4  6  1  0  0  0  0
  7  8  2  0  0  0  0
  7 20  1  0  0  0  0
  8  9  1  0  0  0  0
  8 12  1  0  0  0  0
  9 10  2  0  0  0  0
  9 11  1  0  0  0  0
 12 13  2  0  0  0  0
 12 21  1  0  0  0  0
 13 14  1  0  0  0  0
 14 15  2  0  0  0  0
 14 16  1  0  0  0  0
M  CHG  6   4   1   6  -1   9   1  11  -1  14   1  16  -1
M  END
>  <DRUGBANK_ID>
DB01676

>  <SECONDARY_ACCESSION_NUMBERS>
EXPT03079

>  <COMMON_NAME>
Trinitrotoluene

>  <CAS_NUMBER>
118-96-7

>  <UNII>
H43RF5TRM5

>  <SYNONYMS>
2,4,6-TNT; 2,4,6-trinitrotoluene; 2,4,6-trinitrotoluol; TNT; Î±-TNT

$$$$
