1218
 OpenBabel10282417072D

 63 65  0  0  1  0  0  0  0  0999 V2000
    7.4502    1.8251    0.0000 Cl  0  0  0  0  0  0  0  0  0  0  0  0
    5.9997    4.3598    0.0000 Cl  0  0  0  0  0  0  0  0  0  0  0  0
    2.7781    2.9730    0.0000 F   0  0  0  0  0  0  0  0  0  0  0  0
    1.9477    1.5472    0.0000 F   0  0  0  0  0  0  0  0  0  0  0  0
    1.6500    2.6754    0.0000 F   0  0  0  0  0  0  0  0  0  0  0  0
    4.5608   -0.6473    0.0000 O   0  0  0  0  0  0  0  0  0  0  0  0
    6.7043   -1.8848    0.0000 N   0  0  0  0  0  0  0  0  0  0  0  0
    5.9897   -1.4723    0.0000 C   0  0  0  0  0  0  0  0  0  0  0  0
    5.9897   -0.6473    0.0000 C   0  0  0  0  0  0  0  0  0  0  0  0
    5.2753   -0.2348    0.0000 C   0  0  3  0  0  0  0  0  0  0  0  0
    6.7043   -2.7098    0.0000 C   0  0  0  0  0  0  0  0  0  0  0  0
    7.4187   -1.4723    0.0000 C   0  0  0  0  0  0  0  0  0  0  0  0
    5.2753    0.5902    0.0000 C   0  0  0  0  0  0  0  0  0  0  0  0
    7.4187   -3.1223    0.0000 C   0  0  0  0  0  0  0  0  0  0  0  0
    8.1332   -1.8848    0.0000 C   0  0  0  0  0  0  0  0  0  0  0  0
    4.5608    1.0027    0.0000 C   0  0  0  0  0  0  0  0  0  0  0  0
    4.5608    1.8277    0.0000 C   0  0  0  0  0  0  0  0  0  0  0  0
    5.9897    1.0027    0.0000 C   0  0  0  0  0  0  0  0  0  0  0  0
    5.2753    2.2402    0.0000 C   0  0  0  0  0  0  0  0  0  0  0  0
    5.9897    1.8277    0.0000 C   0  0  0  0  0  0  0  0  0  0  0  0
    7.4187   -3.9473    0.0000 C   0  0  0  0  0  0  0  0  0  0  0  0
    8.8476   -1.4723    0.0000 C   0  0  0  0  0  0  0  0  0  0  0  0
    3.8233    0.5616    0.0000 C   0  0  0  0  0  0  0  0  0  0  0  0
    3.8233    2.2688    0.0000 C   0  0  0  0  0  0  0  0  0  0  0  0
    3.0758    1.8449    0.0000 C   0  0  0  0  0  0  0  0  0  0  0  0
    5.2621    3.0995    0.0000 C   0  0  0  0  0  0  0  0  0  0  0  0
    3.0758    0.9856    0.0000 C   0  0  0  0  0  0  0  0  0  0  0  0
    6.7405    2.2458    0.0000 C   0  0  0  0  0  0  0  0  0  0  0  0
    8.1332   -4.3598    0.0000 C   0  0  0  0  0  0  0  0  0  0  0  0
    9.5622   -1.8848    0.0000 C   0  0  0  0  0  0  0  0  0  0  0  0
    6.0029    3.5348    0.0000 C   0  0  0  0  0  0  0  0  0  0  0  0
    6.7472    3.1052    0.0000 C   0  0  0  0  0  0  0  0  0  0  0  0
    2.3629    2.2601    0.0000 C   0  0  0  0  0  0  0  0  0  0  0  0
    3.7208   -0.1623    0.0000 H   0  0  0  0  0  0  0  0  0  0  0  0
    5.0631   -2.0073    0.0000 H   0  0  0  0  0  0  0  0  0  0  0  0
    5.0630   -0.9373    0.0000 H   0  0  0  0  0  0  0  0  0  0  0  0
    6.9164   -0.1123    0.0000 H   0  0  0  0  0  0  0  0  0  0  0  0
    5.9897    0.4227    0.0000 H   0  0  0  0  0  0  0  0  0  0  0  0
    5.2753   -1.3048    0.0000 H   0  0  0  0  0  0  0  0  0  0  0  0
    5.7776   -3.2448    0.0000 H   0  0  0  0  0  0  0  0  0  0  0  0
    6.7043   -3.7798    0.0000 H   0  0  0  0  0  0  0  0  0  0  0  0
    7.4187   -0.4023    0.0000 H   0  0  0  0  0  0  0  0  0  0  0  0
    8.3453   -0.9373    0.0000 H   0  0  0  0  0  0  0  0  0  0  0  0
    8.3454   -2.5873    0.0000 H   0  0  0  0  0  0  0  0  0  0  0  0
    8.3453   -3.6573    0.0000 H   0  0  0  0  0  0  0  0  0  0  0  0
    8.1332   -2.9548    0.0000 H   0  0  0  0  0  0  0  0  0  0  0  0
    9.0599   -2.4198    0.0000 H   0  0  0  0  0  0  0  0  0  0  0  0
    6.8834    0.4867    0.0000 H   0  0  0  0  0  0  0  0  0  0  0  0
    6.4921   -4.4823    0.0000 H   0  0  0  0  0  0  0  0  0  0  0  0
    7.4187   -5.0173    0.0000 H   0  0  0  0  0  0  0  0  0  0  0  0
    8.8475   -0.4023    0.0000 H   0  0  0  0  0  0  0  0  0  0  0  0
    9.7742   -0.9372    0.0000 H   0  0  0  0  0  0  0  0  0  0  0  0
    3.8352   -0.4703    0.0000 H   0  0  0  0  0  0  0  0  0  0  0  0
    3.8352    3.3007    0.0000 H   0  0  0  0  0  0  0  0  0  0  0  0
    4.3625    3.6052    0.0000 H   0  0  0  0  0  0  0  0  0  0  0  0
    2.1840    0.4662    0.0000 H   0  0  0  0  0  0  0  0  0  0  0  0
    8.1332   -5.4298    0.0000 H   0  0  0  0  0  0  0  0  0  0  0  0
    9.0598   -3.8248    0.0000 H   0  0  0  0  0  0  0  0  0  0  0  0
    9.0599   -4.8948    0.0000 H   0  0  0  0  0  0  0  0  0  0  0  0
    9.5623   -2.9548    0.0000 H   0  0  0  0  0  0  0  0  0  0  0  0
   10.4888   -1.3497    0.0000 H   0  0  0  0  0  0  0  0  0  0  0  0
   10.4889   -2.4197    0.0000 H   0  0  0  0  0  0  0  0  0  0  0  0
    7.6429    3.6178    0.0000 H   0  0  0  0  0  0  0  0  0  0  0  0
  1 28  1  0  0  0  0
  2 31  1  0  0  0  0
  3 33  1  0  0  0  0
  4 33  1  0  0  0  0
  5 33  1  0  0  0  0
  6 10  1  0  0  0  0
  6 34  1  0  0  0  0
  7  8  1  0  0  0  0
  7 11  1  0  0  0  0
  7 12  1  0  0  0  0
  8  9  1  0  0  0  0
  8 35  1  0  0  0  0
  8 36  1  0  0  0  0
  9 10  1  0  0  0  0
  9 37  1  0  0  0  0
  9 38  1  0  0  0  0
 10 13  1  0  0  0  0
 10 39  1  0  0  0  0
 11 14  1  0  0  0  0
 11 40  1  0  0  0  0
 11 41  1  0  0  0  0
 12 15  1  0  0  0  0
 12 42  1  0  0  0  0
 12 43  1  0  0  0  0
 13 16  2  0  0  0  0
 13 18  1  0  0  0  0
 14 21  1  0  0  0  0
 14 44  1  0  0  0  0
 14 45  1  0  0  0  0
 15 22  1  0  0  0  0
 15 46  1  0  0  0  0
 15 47  1  0  0  0  0
 16 17  1  0  0  0  0
 16 23  1  0  0  0  0
 17 19  2  0  0  0  0
 17 24  1  0  0  0  0
 18 20  2  0  0  0  0
 18 48  1  0  0  0  0
 19 20  1  0  0  0  0
 19 26  1  0  0  0  0
 20 28  1  0  0  0  0
 21 29  1  0  0  0  0
 21 49  1  0  0  0  0
 21 50  1  0  0  0  0
 22 30  1  0  0  0  0
 22 51  1  0  0  0  0
 22 52  1  0  0  0  0
 23 27  2  0  0  0  0
 23 53  1  0  0  0  0
 24 25  2  0  0  0  0
 24 54  1  0  0  0  0
 25 27  1  0  0  0  0
 25 33  1  0  0  0  0
 26 31  2  0  0  0  0
 26 55  1  0  0  0  0
 27 56  1  0  0  0  0
 28 32  2  0  0  0  0
 29 57  1  0  0  0  0
 29 58  1  0  0  0  0
 29 59  1  0  0  0  0
 30 60  1  0  0  0  0
 30 61  1  0  0  0  0
 30 62  1  0  0  0  0
 31 32  1  0  0  0  0
 32 63  1  0  0  0  0
M  END
>  <DRUGBANK_ID>
DB01218

>  <SECONDARY_ACCESSION_NUMBERS>
APRD00419

>  <COMMON_NAME>
Halofantrine

>  <CAS_NUMBER>
69756-53-2

>  <UNII>
Q2OS4303HZ

>  <SYNONYMS>
Halofantrina; Halofantrine; Halofantrinum

$$$$
