1408
 OpenBabel10282417072D

 55 55  0  0  1  0  0  0  0  0999 V2000
    3.7935    1.4991    0.0000 O   0  0  0  0  0  0  0  0  0  0  0  0
    3.0791   -1.3885    0.0000 O   0  0  0  0  0  0  0  0  0  0  0  0
    5.9370   -1.3885    0.0000 O   0  0  0  0  0  0  0  0  0  0  0  0
    3.7935   -2.6260    0.0000 O   0  0  0  0  0  0  0  0  0  0  0  0
    5.2224   -2.6260    0.0000 O   0  0  0  0  0  0  0  0  0  0  0  0
    5.2224    2.3241    0.0000 N   0  0  0  0  0  0  0  0  0  0  0  0
    2.3645   -2.6260    0.0000 N   0  0  0  0  0  0  0  0  0  0  0  0
    6.6515   -2.6260    0.0000 N   0  0  0  0  0  0  0  0  0  0  0  0
    5.9370    2.7366    0.0000 C   0  0  0  0  0  0  0  0  0  0  0  0
    5.2224    1.4991    0.0000 C   0  0  0  0  0  0  0  0  0  0  0  0
    4.5080    1.0865    0.0000 C   0  0  3  0  0  0  0  0  0  0  0  0
    6.3495    2.0221    0.0000 C   0  0  0  0  0  0  0  0  0  0  0  0
    5.5245    3.4511    0.0000 C   0  0  0  0  0  0  0  0  0  0  0  0
    6.6515    3.1491    0.0000 C   0  0  0  0  0  0  0  0  0  0  0  0
    4.5080    0.2615    0.0000 C   0  0  0  0  0  0  0  0  0  0  0  0
    5.2224   -0.1510    0.0000 C   0  0  0  0  0  0  0  0  0  0  0  0
    3.7935   -0.1510    0.0000 C   0  0  0  0  0  0  0  0  0  0  0  0
    3.7935   -0.9760    0.0000 C   0  0  0  0  0  0  0  0  0  0  0  0
    5.2224   -0.9760    0.0000 C   0  0  0  0  0  0  0  0  0  0  0  0
    4.5080   -1.3885    0.0000 C   0  0  0  0  0  0  0  0  0  0  0  0
    3.0791   -2.2135    0.0000 C   0  0  0  0  0  0  0  0  0  0  0  0
    5.9370   -2.2135    0.0000 C   0  0  0  0  0  0  0  0  0  0  0  0
    1.6500   -2.2135    0.0000 C   0  0  0  0  0  0  0  0  0  0  0  0
    2.3645   -3.4511    0.0000 C   0  0  0  0  0  0  0  0  0  0  0  0
    7.3659   -2.2135    0.0000 C   0  0  0  0  0  0  0  0  0  0  0  0
    6.6515   -3.4511    0.0000 C   0  0  0  0  0  0  0  0  0  0  0  0
    3.7936    2.4691    0.0000 H   0  0  0  0  0  0  0  0  0  0  0  0
    4.3391    2.8341    0.0000 H   0  0  0  0  0  0  0  0  0  0  0  0
    6.1491    0.9642    0.0000 H   0  0  0  0  0  0  0  0  0  0  0  0
    5.2225    0.4291    0.0000 H   0  0  0  0  0  0  0  0  0  0  0  0
    4.5080    2.1565    0.0000 H   0  0  0  0  0  0  0  0  0  0  0  0
    5.8145    1.0955    0.0000 H   0  0  0  0  0  0  0  0  0  0  0  0
    7.4195    2.0221    0.0000 H   0  0  0  0  0  0  0  0  0  0  0  0
    6.8845    1.0954    0.0000 H   0  0  0  0  0  0  0  0  0  0  0  0
    6.0595    4.3777    0.0000 H   0  0  0  0  0  0  0  0  0  0  0  0
    4.4545    3.4511    0.0000 H   0  0  0  0  0  0  0  0  0  0  0  0
    4.9895    4.3778    0.0000 H   0  0  0  0  0  0  0  0  0  0  0  0
    7.5781    2.6141    0.0000 H   0  0  0  0  0  0  0  0  0  0  0  0
    6.6515    4.2191    0.0000 H   0  0  0  0  0  0  0  0  0  0  0  0
    7.5782    3.6841    0.0000 H   0  0  0  0  0  0  0  0  0  0  0  0
    6.1161    0.3650    0.0000 H   0  0  0  0  0  0  0  0  0  0  0  0
    2.8998    0.3650    0.0000 H   0  0  0  0  0  0  0  0  0  0  0  0
    4.5080   -2.4205    0.0000 H   0  0  0  0  0  0  0  0  0  0  0  0
    1.6500   -1.1435    0.0000 H   0  0  0  0  0  0  0  0  0  0  0  0
    0.7234   -2.7485    0.0000 H   0  0  0  0  0  0  0  0  0  0  0  0
    0.7233   -1.6785    0.0000 H   0  0  0  0  0  0  0  0  0  0  0  0
    1.4379   -3.9861    0.0000 H   0  0  0  0  0  0  0  0  0  0  0  0
    3.2911   -3.9861    0.0000 H   0  0  0  0  0  0  0  0  0  0  0  0
    2.3645   -4.5211    0.0000 H   0  0  0  0  0  0  0  0  0  0  0  0
    8.2926   -2.7485    0.0000 H   0  0  0  0  0  0  0  0  0  0  0  0
    7.3659   -1.1435    0.0000 H   0  0  0  0  0  0  0  0  0  0  0  0
    8.2925   -1.6785    0.0000 H   0  0  0  0  0  0  0  0  0  0  0  0
    5.7249   -3.9861    0.0000 H   0  0  0  0  0  0  0  0  0  0  0  0
    7.5781   -3.9861    0.0000 H   0  0  0  0  0  0  0  0  0  0  0  0
    6.6515   -4.5211    0.0000 H   0  0  0  0  0  0  0  0  0  0  0  0
  1 11  1  0  0  0  0
  1 27  1  0  0  0  0
  2 18  1  0  0  0  0
  2 21  1  0  0  0  0
  3 19  1  0  0  0  0
  3 22  1  0  0  0  0
  4 21  2  0  0  0  0
  5 22  2  0  0  0  0
  6  9  1  0  0  0  0
  6 10  1  0  0  0  0
  6 28  1  0  0  0  0
  7 21  1  0  0  0  0
  7 23  1  0  0  0  0
  7 24  1  0  0  0  0
  8 22  1  0  0  0  0
  8 25  1  0  0  0  0
  8 26  1  0  0  0  0
  9 12  1  0  0  0  0
  9 13  1  0  0  0  0
  9 14  1  0  0  0  0
 10 11  1  0  0  0  0
 10 29  1  0  0  0  0
 10 30  1  0  0  0  0
 11 15  1  0  0  0  0
 11 31  1  0  0  0  0
 12 32  1  0  0  0  0
 12 33  1  0  0  0  0
 12 34  1  0  0  0  0
 13 35  1  0  0  0  0
 13 36  1  0  0  0  0
 13 37  1  0  0  0  0
 14 38  1  0  0  0  0
 14 39  1  0  0  0  0
 14 40  1  0  0  0  0
 15 16  2  0  0  0  0
 15 17  1  0  0  0  0
 16 19  1  0  0  0  0
 16 41  1  0  0  0  0
 17 18  2  0  0  0  0
 17 42  1  0  0  0  0
 18 20  1  0  0  0  0
 19 20  2  0  0  0  0
 20 43  1  0  0  0  0
 23 44  1  0  0  0  0
 23 45  1  0  0  0  0
 23 46  1  0  0  0  0
 24 47  1  0  0  0  0
 24 48  1  0  0  0  0
 24 49  1  0  0  0  0
 25 50  1  0  0  0  0
 25 51  1  0  0  0  0
 25 52  1  0  0  0  0
 26 53  1  0  0  0  0
 26 54  1  0  0  0  0
 26 55  1  0  0  0  0
M  END
>  <DRUGBANK_ID>
DB01408

>  <COMMON_NAME>
Bambuterol

>  <CAS_NUMBER>
81732-65-2

>  <UNII>
Y1850G1OVC

>  <SYNONYMS>
(±)-5-(2-(tert-butylamino)-1-hydroxyethyl)-m-phenylene bis(dimethylcarbamate); bambutérol; Bambuterol; Bambuterolum

$$$$
