CQU
 OpenBabel10282417072D

 35 38  0  0  0  0  0  0  0  0999 V2000
    0.0055   -0.1135    0.0000 N   0  0  0  0  0  0  0  0  0  0  0  0
    0.7200    0.2990    0.0000 C   0  0  0  0  0  0  0  0  0  0  0  0
   -1.4936   -1.0960    0.0000 C   0  0  0  0  0  0  0  0  0  0  0  0
    1.4345   -0.1135    0.0000 C   0  0  0  0  0  0  0  0  0  0  0  0
   -1.3002    1.8141    0.0000 C   0  0  0  0  0  0  0  0  0  0  0  0
    0.7200   -2.1760    0.0000 C   0  0  0  0  0  0  0  0  0  0  0  0
    2.1489    0.2990    0.0000 C   0  0  0  0  0  0  0  0  0  0  0  0
    2.1489    1.1240    0.0000 C   0  0  0  0  0  0  0  0  0  0  0  0
   -2.1207    1.7278    0.0000 C   0  0  0  0  0  0  0  0  0  0  0  0
   -0.7481    1.2010    0.0000 N   0  0  0  0  0  0  0  0  0  0  0  0
   -0.8877    2.5285    0.0000 N   0  0  0  0  0  0  0  0  0  0  0  0
   -0.0807    2.3570    0.0000 N   0  0  0  0  0  0  0  0  0  0  0  0
    0.0055    1.5365    0.0000 C   0  0  0  0  0  0  0  0  0  0  0  0
    0.7200    1.1240    0.0000 C   0  0  0  0  0  0  0  0  0  0  0  0
    1.4345    1.5365    0.0000 C   0  0  0  0  0  0  0  0  0  0  0  0
    0.0055   -0.9385    0.0000 C   0  0  0  0  0  0  0  0  0  0  0  0
   -0.7089   -1.3510    0.0000 C   0  0  0  0  0  0  0  0  0  0  0  0
   -0.7089   -2.1760    0.0000 C   0  0  0  0  0  0  0  0  0  0  0  0
   -1.4936   -2.4309    0.0000 N   0  0  0  0  0  0  0  0  0  0  0  0
   -1.9785   -1.7635    0.0000 C   0  0  0  0  0  0  0  0  0  0  0  0
    0.0055   -2.5885    0.0000 N   0  0  0  0  0  0  0  0  0  0  0  0
    0.7200   -1.3510    0.0000 N   0  0  0  0  0  0  0  0  0  0  0  0
   -0.8471    0.3788    0.0000 H   0  0  0  0  0  0  0  0  0  0  0  0
   -1.8125   -0.1145    0.0000 H   0  0  0  0  0  0  0  0  0  0  0  0
    1.4345   -1.1455    0.0000 H   0  0  0  0  0  0  0  0  0  0  0  0
    1.6137   -2.6920    0.0000 H   0  0  0  0  0  0  0  0  0  0  0  0
    3.0426   -0.2170    0.0000 H   0  0  0  0  0  0  0  0  0  0  0  0
    3.0426    1.6400    0.0000 H   0  0  0  0  0  0  0  0  0  0  0  0
   -2.7497    2.5934    0.0000 H   0  0  0  0  0  0  0  0  0  0  0  0
   -2.5558    0.7503    0.0000 H   0  0  0  0  0  0  0  0  0  0  0  0
   -3.1848    1.6159    0.0000 H   0  0  0  0  0  0  0  0  0  0  0  0
   -0.9528    0.2380    0.0000 H   0  0  0  0  0  0  0  0  0  0  0  0
    1.4345    2.5685    0.0000 H   0  0  0  0  0  0  0  0  0  0  0  0
   -1.7979   -3.3672    0.0000 H   0  0  0  0  0  0  0  0  0  0  0  0
   -3.0105   -1.7635    0.0000 H   0  0  0  0  0  0  0  0  0  0  0  0
  1  2  1  0  0  0  0
  1 16  1  0  0  0  0
  1 23  1  0  0  0  0
  2  4  2  0  0  0  0
  2 14  1  0  0  0  0
  3 17  1  0  0  0  0
  3 20  2  0  0  0  0
  3 24  1  0  0  0  0
  4  7  1  0  0  0  0
  4 25  1  0  0  0  0
  5  9  1  0  0  0  0
  5 10  1  0  0  0  0
  5 11  2  0  0  0  0
  6 21  2  0  0  0  0
  6 22  1  0  0  0  0
  6 26  1  0  0  0  0
  7  8  2  0  0  0  0
  7 27  1  0  0  0  0
  8 15  1  0  0  0  0
  8 28  1  0  0  0  0
  9 29  1  0  0  0  0
  9 30  1  0  0  0  0
  9 31  1  0  0  0  0
 10 13  1  0  0  0  0
 10 32  1  0  0  0  0
 11 12  1  0  0  0  0
 12 13  2  0  0  0  0
 13 14  1  0  0  0  0
 14 15  2  0  0  0  0
 15 33  1  0  0  0  0
 16 17  1  0  0  0  0
 16 22  2  0  0  0  0
 17 18  2  0  0  0  0
 18 19  1  0  0  0  0
 18 21  1  0  0  0  0
 19 20  1  0  0  0  0
 19 34  1  0  0  0  0
 20 35  1  0  0  0  0
M  END
>  <DRUGBANK_ID>
DB07584

>  <COMMON_NAME>
N-[2-(5-methyl-4H-1,2,4-triazol-3-yl)phenyl]-7H-pyrrolo[2,3-d]pyrimidin-4-amine

$$$$
