
 OpenBabel10282417072D

 37 38  0  0  0  0  0  0  0  0999 V2000
    1.0164   -0.7145    0.0000 C   0  0  0  0  0  0  0  0  0  0  0  0
    1.4289    0.0000    0.0000 C   0  0  0  0  0  0  0  0  0  0  0  0
    1.8414    0.7145    0.0000 C   0  0  0  0  0  0  0  0  0  0  0  0
    0.7145    0.4125    0.0000 C   0  0  0  0  0  0  0  0  0  0  0  0
    0.7145    1.2375    0.0000 O   0  0  0  0  0  0  0  0  0  0  0  0
    0.0000    0.0000    0.0000 O   0  0  0  0  0  0  0  0  0  0  0  0
    2.1434   -0.4125    0.0000 O   0  0  0  0  0  0  0  0  0  0  0  0
    2.1434   -1.2375    0.0000 C   0  0  0  0  0  0  0  0  0  0  0  0
    2.8579   -1.6500    0.0000 C   0  0  0  0  0  0  0  0  0  0  0  0
    2.8579   -2.4750    0.0000 C   0  0  0  0  0  0  0  0  0  0  0  0
    2.1434   -2.8875    0.0000 C   0  0  0  0  0  0  0  0  0  0  0  0
    1.4289   -2.4750    0.0000 C   0  0  0  0  0  0  0  0  0  0  0  0
    1.4289   -1.6500    0.0000 C   0  0  0  0  0  0  0  0  0  0  0  0
    2.1434   -3.7125    0.0000 C   0  0  0  0  0  0  0  0  0  0  0  0
    2.8579   -4.1250    0.0000 O   0  0  0  0  0  0  0  0  0  0  0  0
    1.4289   -4.1250    0.0000 C   0  0  0  0  0  0  0  0  0  0  0  0
    1.4289   -4.9500    0.0000 C   0  0  0  0  0  0  0  0  0  0  0  0
    0.7145   -5.3625    0.0000 C   0  0  0  0  0  0  0  0  0  0  0  0
   -0.0000   -4.9500    0.0000 C   0  0  0  0  0  0  0  0  0  0  0  0
   -0.0000   -4.1250    0.0000 C   0  0  0  0  0  0  0  0  0  0  0  0
    0.7145   -3.7125    0.0000 C   0  0  0  0  0  0  0  0  0  0  0  0
   -0.7145   -5.3625    0.0000 Cl  0  0  0  0  0  0  0  0  0  0  0  0
   -0.0536   -0.7145    0.0000 H   0  0  0  0  0  0  0  0  0  0  0  0
    1.5514   -1.6411    0.0000 H   0  0  0  0  0  0  0  0  0  0  0  0
    0.4814   -1.6412    0.0000 H   0  0  0  0  0  0  0  0  0  0  0  0
    2.9114    0.7145    0.0000 H   0  0  0  0  0  0  0  0  0  0  0  0
    1.3064    1.6411    0.0000 H   0  0  0  0  0  0  0  0  0  0  0  0
    2.3764    1.6412    0.0000 H   0  0  0  0  0  0  0  0  0  0  0  0
   -0.8115    0.4685    0.0000 H   0  0  0  0  0  0  0  0  0  0  0  0
    3.7516   -1.1340    0.0000 H   0  0  0  0  0  0  0  0  0  0  0  0
    3.7516   -2.9910    0.0000 H   0  0  0  0  0  0  0  0  0  0  0  0
    0.5352   -2.9910    0.0000 H   0  0  0  0  0  0  0  0  0  0  0  0
    0.5352   -1.1340    0.0000 H   0  0  0  0  0  0  0  0  0  0  0  0
    2.3226   -5.4660    0.0000 H   0  0  0  0  0  0  0  0  0  0  0  0
    0.7145   -6.3945    0.0000 H   0  0  0  0  0  0  0  0  0  0  0  0
   -0.8937   -3.6090    0.0000 H   0  0  0  0  0  0  0  0  0  0  0  0
    0.7145   -2.6805    0.0000 H   0  0  0  0  0  0  0  0  0  0  0  0
  1  2  1  0  0  0  0
  1 23  1  0  0  0  0
  1 24  1  0  0  0  0
  1 25  1  0  0  0  0
  2  3  1  0  0  0  0
  2  4  1  0  0  0  0
  2  7  1  0  0  0  0
  3 26  1  0  0  0  0
  3 27  1  0  0  0  0
  3 28  1  0  0  0  0
  4  5  2  0  0  0  0
  4  6  1  0  0  0  0
  6 29  1  0  0  0  0
  7  8  1  0  0  0  0
  8  9  2  0  0  0  0
  8 13  1  0  0  0  0
  9 10  1  0  0  0  0
  9 30  1  0  0  0  0
 10 11  2  0  0  0  0
 10 31  1  0  0  0  0
 11 12  1  0  0  0  0
 11 14  1  0  0  0  0
 12 13  2  0  0  0  0
 12 32  1  0  0  0  0
 13 33  1  0  0  0  0
 14 15  2  0  0  0  0
 14 16  1  0  0  0  0
 16 17  2  0  0  0  0
 16 21  1  0  0  0  0
 17 18  1  0  0  0  0
 17 34  1  0  0  0  0
 18 19  2  0  0  0  0
 18 35  1  0  0  0  0
 19 20  1  0  0  0  0
 19 22  1  0  0  0  0
 20 21  2  0  0  0  0
 20 36  1  0  0  0  0
 21 37  1  0  0  0  0
M  END
>  <DRUGBANK_ID>
DB13873

>  <COMMON_NAME>
Fenofibric acid

>  <CAS_NUMBER>
42017-89-0

>  <UNII>
BGF9MN2HU1

$$$$
