
 OpenBabel10282417072D

 23 24  0  0  0  0  0  0  0  0999 V2000
   -0.6945   -2.9035    0.0000 F   0  0  0  0  0  0  0  0  0  0  0  0
   -0.6945    0.3964    0.0000 N   0  0  0  0  0  0  0  0  0  0  0  0
    0.0198    0.8089    0.0000 N   0  0  0  0  0  0  0  0  0  0  0  0
   -0.3926    2.9035    0.0000 N   0  0  0  0  0  0  0  0  0  0  0  0
    0.4323    2.9035    0.0000 N   0  0  0  0  0  0  0  0  0  0  0  0
   -1.4321    1.8640    0.0000 N   0  0  0  0  0  0  0  0  0  0  0  0
    1.4719    1.8640    0.0000 N   0  0  0  0  0  0  0  0  0  0  0  0
   -0.6945   -0.4285    0.0000 C   0  0  0  0  0  0  0  0  0  0  0  0
    0.0198   -0.8410    0.0000 C   0  0  0  0  0  0  0  0  0  0  0  0
   -1.4090   -0.8410    0.0000 C   0  0  0  0  0  0  0  0  0  0  0  0
    0.0198    1.6339    0.0000 C   0  0  0  0  0  0  0  0  0  0  0  0
    0.0198   -1.6660    0.0000 C   0  0  0  0  0  0  0  0  0  0  0  0
   -1.4090   -1.6660    0.0000 C   0  0  0  0  0  0  0  0  0  0  0  0
   -0.6945   -2.0785    0.0000 C   0  0  0  0  0  0  0  0  0  0  0  0
   -0.6475    2.1189    0.0000 C   0  0  0  0  0  0  0  0  0  0  0  0
    0.6873    2.1189    0.0000 C   0  0  0  0  0  0  0  0  0  0  0  0
   -1.5471    0.8886    0.0000 H   0  0  0  0  0  0  0  0  0  0  0  0
   -2.1637    2.5228    0.0000 H   0  0  0  0  0  0  0  0  0  0  0  0
    1.6766    0.9010    0.0000 H   0  0  0  0  0  0  0  0  0  0  0  0
    0.9136   -0.3250    0.0000 H   0  0  0  0  0  0  0  0  0  0  0  0
   -2.3027   -0.3250    0.0000 H   0  0  0  0  0  0  0  0  0  0  0  0
    0.9136   -2.1820    0.0000 H   0  0  0  0  0  0  0  0  0  0  0  0
   -2.3027   -2.1820    0.0000 H   0  0  0  0  0  0  0  0  0  0  0  0
  1 14  1  0  0  0  0
  2  3  1  0  0  0  0
  2  8  1  0  0  0  0
  2 17  1  0  0  0  0
  3 11  2  0  0  0  0
  4  5  2  0  0  0  0
  4 15  1  0  0  0  0
  5 16  1  0  0  0  0
  6 15  2  0  0  0  0
  6 18  1  0  0  0  0
  7 16  2  0  0  0  0
  7 19  1  0  0  0  0
  8  9  2  0  0  0  0
  8 10  1  0  0  0  0
  9 12  1  0  0  0  0
  9 20  1  0  0  0  0
 10 13  2  0  0  0  0
 10 21  1  0  0  0  0
 11 15  1  0  0  0  0
 11 16  1  0  0  0  0
 12 14  2  0  0  0  0
 12 22  1  0  0  0  0
 13 14  1  0  0  0  0
 13 23  1  0  0  0  0
M  END
>  <DRUGBANK_ID>
DB08667

>  <COMMON_NAME>
4-(4-fluoro-phenylazo)-5-imino-5H-pyrazol-3-ylamine

$$$$
