
 OpenBabel10282417072D

 81 87  0  0  1  0  0  0  0  0999 V2000
    9.2083    1.8694    0.0000 C   0  0  0  0  0  0  0  0  0  0  0  0
    2.0645   -0.8920    0.0000 C   0  0  0  0  0  0  0  0  0  0  0  0
    5.7332   -1.8051    0.0000 C   0  0  0  0  0  0  0  0  0  0  0  0
    7.5030   -0.5678    0.0000 C   0  0  0  0  0  0  0  0  0  0  0  0
    2.2183    0.2936    0.0000 C   0  0  0  0  0  0  0  0  0  0  0  0
    2.9987    0.5611    0.0000 C   0  0  0  0  0  0  0  0  0  0  0  0
    1.4485    0.5904    0.0000 C   0  0  0  0  0  0  0  0  0  0  0  0
    8.1718    3.1532    0.0000 C   0  0  0  0  0  0  0  0  0  0  0  0
    7.6536    3.7951    0.0000 C   0  0  0  0  0  0  0  0  0  0  0  0
    2.6749    2.6248    0.0000 C   0  0  0  0  0  0  0  0  0  0  0  0
    1.8501    2.6404    0.0000 C   0  0  0  0  0  0  0  0  0  0  0  0
    8.0965    0.9717    0.0000 C   0  0  0  0  0  0  0  0  0  0  0  0
    4.0324    2.4561    0.0000 C   0  0  0  0  0  0  0  0  0  0  0  0
    6.7632    1.4858    0.0000 C   0  0  0  0  0  0  0  0  0  0  0  0
   -0.0094    2.9461    0.0000 C   0  0  0  0  0  0  0  0  0  0  0  0
    8.3933    1.7415    0.0000 C   0  0  0  0  0  0  0  0  0  0  0  0
    2.8883   -0.9363    0.0000 C   0  0  2  0  0  0  0  0  0  0  0  0
    3.2968    2.0827    0.0000 C   0  0  0  0  0  0  0  0  0  0  0  0
    7.2815    0.8439    0.0000 C   0  0  0  0  0  0  0  0  0  0  0  0
    7.8751    2.3834    0.0000 C   0  0  0  0  0  0  0  0  0  0  0  0
    3.4247    1.2676    0.0000 C   0  0  0  0  0  0  0  0  0  0  0  0
    7.0600    2.2555    0.0000 C   0  0  0  0  0  0  0  0  0  0  0  0
    6.8385    3.6672    0.0000 C   0  0  0  0  0  0  0  0  0  0  0  0
    4.6149    1.8719    0.0000 C   0  0  2  0  0  0  0  0  0  0  0  0
    1.0496    1.3126    0.0000 C   0  0  2  0  0  0  0  0  0  0  0  0
    0.8093    2.8443    0.0000 C   0  0  2  0  0  0  0  0  0  0  0  0
    6.5418    2.8974    0.0000 C   0  0  0  0  0  0  0  0  0  0  0  0
    4.5359   -1.0251    0.0000 C   0  0  2  0  0  0  0  0  0  0  0  0
    3.2618   -1.6720    0.0000 C   0  0  1  0  0  0  0  0  0  0  0  0
    4.0856   -1.7164    0.0000 C   0  0  2  0  0  0  0  0  0  0  0  0
    4.2393    1.1374    0.0000 C   0  0  2  0  0  0  0  0  0  0  0  0
    5.7267    2.7696    0.0000 C   0  0  0  0  0  0  0  0  0  0  0  0
    4.1624   -0.2895    0.0000 C   0  0  2  0  0  0  0  0  0  0  0  0
    0.5565    4.1550    0.0000 C   0  0  0  0  0  0  0  0  0  0  0  0
    1.2082    2.1222    0.0000 C   0  0  2  0  0  0  0  0  0  0  0  0
    5.3597   -1.0695    0.0000 N   0  0  0  0  0  0  0  0  0  0  0  0
    6.3203    4.3091    0.0000 O   0  0  0  0  0  0  0  0  0  0  0  0
    2.8114   -2.3632    0.0000 O   0  0  0  0  0  0  0  0  0  0  0  0
    4.4590   -2.4520    0.0000 O   0  0  0  0  0  0  0  0  0  0  0  0
    5.2085    3.4115    0.0000 O   0  0  0  0  0  0  0  0  0  0  0  0
    0.6582    4.9737    0.0000 O   0  0  0  0  0  0  0  0  0  0  0  0
    6.9847    0.0741    0.0000 O   0  0  0  0  0  0  0  0  0  0  0  0
   -0.1657    3.7561    0.0000 O   0  0  0  0  0  0  0  0  0  0  0  0
    3.3386   -0.2451    0.0000 O   0  0  0  0  0  0  0  0  0  0  0  0
    5.4300    1.9998    0.0000 O   0  0  0  0  0  0  0  0  0  0  0  0
    1.1590    3.5915    0.0000 O   0  0  0  0  0  0  0  0  0  0  0  0
    4.6128    0.4018    0.0000 O   0  0  0  0  0  0  0  0  0  0  0  0
    0.4277    1.8547    0.0000 O   0  0  0  0  0  0  0  0  0  0  0  0
    3.7053    0.1352    0.0000 H   0  0  0  0  0  0  0  0  0  0  0  0
    2.7015   -1.7399    0.0000 H   0  0  0  0  0  0  0  0  0  0  0  0
    4.8710    2.6562    0.0000 H   0  0  0  0  0  0  0  0  0  0  0  0
    0.4077    0.7943    0.0000 H   0  0  0  0  0  0  0  0  0  0  0  0
    0.3469    2.1610    0.0000 H   0  0  0  0  0  0  0  0  0  0  0  0
    5.1385   -1.5886    0.0000 H   0  0  0  0  0  0  0  0  0  0  0  0
    2.4725   -1.9120    0.0000 H   0  0  0  0  0  0  0  0  0  0  0  0
    4.8445   -2.0398    0.0000 H   0  0  0  0  0  0  0  0  0  0  0  0
    3.7534    0.4707    0.0000 H   0  0  0  0  0  0  0  0  0  0  0  0
    4.9863   -0.3339    0.0000 H   0  0  0  0  0  0  0  0  0  0  0  0
    9.8805    1.0369    0.0000 H   0  0  0  0  0  0  0  0  0  0  0  0
    9.5932    2.8678    0.0000 H   0  0  0  0  0  0  0  0  0  0  0  0
   10.2654    2.0353    0.0000 H   0  0  0  0  0  0  0  0  0  0  0  0
    1.5800    0.0620    0.0000 H   0  0  0  0  0  0  0  0  0  0  0  0
    1.4805   -1.7886    0.0000 H   0  0  0  0  0  0  0  0  0  0  0  0
    0.9960   -0.8345    0.0000 H   0  0  0  0  0  0  0  0  0  0  0  0
    5.1492   -2.7017    0.0000 H   0  0  0  0  0  0  0  0  0  0  0  0
    6.8017   -1.8626    0.0000 H   0  0  0  0  0  0  0  0  0  0  0  0
    6.2176   -2.7592    0.0000 H   0  0  0  0  0  0  0  0  0  0  0  0
    7.1181   -1.5662    0.0000 H   0  0  0  0  0  0  0  0  0  0  0  0
    8.5601   -0.4019    0.0000 H   0  0  0  0  0  0  0  0  0  0  0  0
    8.1752   -1.4003    0.0000 H   0  0  0  0  0  0  0  0  0  0  0  0
    9.1913    3.3132    0.0000 H   0  0  0  0  0  0  0  0  0  0  0  0
    8.0249    4.7580    0.0000 H   0  0  0  0  0  0  0  0  0  0  0  0
    8.7448    0.1687    0.0000 H   0  0  0  0  0  0  0  0  0  0  0  0
    4.1954    3.4752    0.0000 H   0  0  0  0  0  0  0  0  0  0  0  0
    5.7437    1.3259    0.0000 H   0  0  0  0  0  0  0  0  0  0  0  0
   -0.7403    2.1646    0.0000 H   0  0  0  0  0  0  0  0  0  0  0  0
   -1.0375    3.2425    0.0000 H   0  0  0  0  0  0  0  0  0  0  0  0
    5.9165   -0.2149    0.0000 H   0  0  0  0  0  0  0  0  0  0  0  0
    6.6574    5.1834    0.0000 H   0  0  0  0  0  0  0  0  0  0  0  0
    1.8428   -2.3109    0.0000 H   0  0  0  0  0  0  0  0  0  0  0  0
    3.9295   -3.2647    0.0000 H   0  0  0  0  0  0  0  0  0  0  0  0
  1 59  1  0  0  0  0
  1 60  1  0  0  0  0
  1 61  1  0  0  0  0
  2 62  1  0  0  0  0
  2 63  1  0  0  0  0
  2 64  1  0  0  0  0
  3 65  1  0  0  0  0
  3 66  1  0  0  0  0
  3 67  1  0  0  0  0
  4 68  1  0  0  0  0
  4 69  1  0  0  0  0
  4 70  1  0  0  0  0
  6  5  1  0  0  0  0
  7  5  3  0  0  0  0
  8 71  1  0  0  0  0
  9  8  2  0  0  0  0
  9 72  1  0  0  0  0
 11 10  3  0  0  0  0
 12 73  1  0  0  0  0
 13 74  1  0  0  0  0
 14 75  1  0  0  0  0
 15 76  1  0  0  0  0
 15 77  1  0  0  0  0
 16  1  1  0  0  0  0
 16 12  2  0  0  0  0
 17  2  1  0  0  0  0
 17 50  1  6  0  0  0
 18 10  1  0  0  0  0
 18 13  2  0  0  0  0
 19 12  1  0  0  0  0
 19 14  2  0  0  0  0
 20  8  1  0  0  0  0
 20 16  1  0  0  0  0
 21  6  2  0  0  0  0
 21 18  1  0  0  0  0
 22 14  1  0  0  0  0
 22 20  2  0  0  0  0
 23  9  1  0  0  0  0
 24 13  1  0  0  0  0
 24 45  1  0  0  0  0
 24 51  1  6  0  0  0
 25  7  1  0  0  0  0
 25 52  1  6  0  0  0
 26 15  1  0  0  0  0
 26 35  1  0  0  0  0
 26 53  1  6  0  0  0
 27 22  1  0  0  0  0
 27 23  2  0  0  0  0
 28 36  1  0  0  0  0
 28 54  1  1  0  0  0
 29 17  1  0  0  0  0
 29 38  1  0  0  0  0
 29 55  1  6  0  0  0
 30 28  1  0  0  0  0
 30 29  1  0  0  0  0
 30 39  1  0  0  0  0
 30 56  1  6  0  0  0
 31 21  1  0  0  0  0
 31 24  1  0  0  0  0
 31 47  1  0  0  0  0
 31 57  1  1  0  0  0
 32 27  1  0  0  0  0
 33 28  1  0  0  0  0
 33 47  1  0  0  0  0
 33 58  1  1  0  0  0
 35 11  1  1  0  0  0
 35 25  1  0  0  0  0
 35 48  1  0  0  0  0
 36  3  1  0  0  0  0
 36 78  1  0  0  0  0
 37 23  1  0  0  0  0
 37 79  1  0  0  0  0
 38 80  1  0  0  0  0
 39 81  1  0  0  0  0
 40 32  2  0  0  0  0
 41 34  2  0  0  0  0
 42  4  1  0  0  0  0
 42 19  1  0  0  0  0
 43 15  1  0  0  0  0
 43 34  1  0  0  0  0
 44 17  1  0  0  0  0
 44 33  1  0  0  0  0
 45 32  1  0  0  0  0
 46 26  1  0  0  0  0
 46 34  1  0  0  0  0
 48 25  1  0  0  0  0
 49  6  1  0  0  0  0
M  END
>  <DRUGBANK_ID>
DB04408

>  <SECONDARY_ACCESSION_NUMBERS>
EXPT00912

>  <COMMON_NAME>
Ncs-Chromophore

>  <CAS_NUMBER>
81604-85-5

>  <UNII>
2SJ8J82D90

$$$$
