
 OpenBabel10282417072D

 45 47  0  0  0  0  0  0  0  0999 V2000
    2.7512   -4.1866    0.0000 C   0  0  0  0  0  0  0  0  0  0  0  0
    2.7512   -5.0116    0.0000 C   0  0  0  0  0  0  0  0  0  0  0  0
    3.4186   -5.4965    0.0000 C   0  0  0  0  0  0  0  0  0  0  0  0
    3.1637   -6.2812    0.0000 S   0  0  0  0  0  0  0  0  0  0  0  0
    2.3387   -6.2812    0.0000 C   0  0  0  0  0  0  0  0  0  0  0  0
    2.0837   -5.4965    0.0000 N   0  0  0  0  0  0  0  0  0  0  0  0
    1.8538   -6.9486    0.0000 N   0  0  0  0  0  0  0  0  0  0  0  0
    2.1893   -7.7023    0.0000 C   0  0  0  0  0  0  0  0  0  0  0  0
    1.0333   -6.8624    0.0000 C   0  0  0  0  0  0  0  0  0  0  0  0
    0.6977   -6.1087    0.0000 O   0  0  0  0  0  0  0  0  0  0  0  0
    0.5484   -7.5298    0.0000 C   0  0  0  0  0  0  0  0  0  0  0  0
   -0.2721   -7.4436    0.0000 C   0  0  0  0  0  0  0  0  0  0  0  0
   -0.7571   -8.1110    0.0000 C   0  0  0  0  0  0  0  0  0  0  0  0
   -1.5775   -8.0248    0.0000 C   0  0  0  0  0  0  0  0  0  0  0  0
   -1.9131   -7.2711    0.0000 C   0  0  0  0  0  0  0  0  0  0  0  0
   -1.4282   -6.6036    0.0000 C   0  0  0  0  0  0  0  0  0  0  0  0
   -0.6077   -6.6899    0.0000 C   0  0  0  0  0  0  0  0  0  0  0  0
   -2.7336   -7.1848    0.0000 C   0  0  0  0  0  0  0  0  0  0  0  0
   -3.2185   -7.8523    0.0000 C   0  0  0  0  0  0  0  0  0  0  0  0
   -4.0390   -7.7661    0.0000 C   0  0  0  0  0  0  0  0  0  0  0  0
   -4.3745   -7.0124    0.0000 C   0  0  0  0  0  0  0  0  0  0  0  0
   -3.8896   -6.3449    0.0000 C   0  0  0  0  0  0  0  0  0  0  0  0
   -3.0691   -6.4312    0.0000 N   0  0  0  0  0  0  0  0  0  0  0  0
    4.2032   -5.2416    0.0000 S   0  0  0  0  0  0  0  0  0  0  0  0
    4.9879   -4.9867    0.0000 O   0  0  0  0  0  0  0  0  0  0  0  0
    4.4582   -6.0262    0.0000 O   0  0  0  0  0  0  0  0  0  0  0  0
    3.9483   -4.4570    0.0000 N   0  0  0  0  0  0  0  0  0  0  0  0
    3.6778   -3.6516    0.0000 H   0  0  0  0  0  0  0  0  0  0  0  0
    1.8246   -3.6516    0.0000 H   0  0  0  0  0  0  0  0  0  0  0  0
    2.7512   -3.1166    0.0000 H   0  0  0  0  0  0  0  0  0  0  0  0
    1.5603   -8.5679    0.0000 H   0  0  0  0  0  0  0  0  0  0  0  0
    3.2534   -7.8142    0.0000 H   0  0  0  0  0  0  0  0  0  0  0  0
    2.6244   -8.6798    0.0000 H   0  0  0  0  0  0  0  0  0  0  0  0
    0.9836   -8.5073    0.0000 H   0  0  0  0  0  0  0  0  0  0  0  0
   -0.0805   -8.3955    0.0000 H   0  0  0  0  0  0  0  0  0  0  0  0
   -0.3374   -9.0538    0.0000 H   0  0  0  0  0  0  0  0  0  0  0  0
   -2.1841   -8.8597    0.0000 H   0  0  0  0  0  0  0  0  0  0  0  0
   -1.8479   -5.6608    0.0000 H   0  0  0  0  0  0  0  0  0  0  0  0
   -0.0011   -5.8550    0.0000 H   0  0  0  0  0  0  0  0  0  0  0  0
   -2.7987   -8.7951    0.0000 H   0  0  0  0  0  0  0  0  0  0  0  0
   -4.6456   -8.6010    0.0000 H   0  0  0  0  0  0  0  0  0  0  0  0
   -5.4008   -6.9045    0.0000 H   0  0  0  0  0  0  0  0  0  0  0  0
   -4.3093   -5.4021    0.0000 H   0  0  0  0  0  0  0  0  0  0  0  0
    4.6308   -3.6990    0.0000 H   0  0  0  0  0  0  0  0  0  0  0  0
    2.9506   -4.2449    0.0000 H   0  0  0  0  0  0  0  0  0  0  0  0
  1  2  1  0  0  0  0
  1 28  1  0  0  0  0
  1 29  1  0  0  0  0
  1 30  1  0  0  0  0
  2  3  2  0  0  0  0
  2  6  1  0  0  0  0
  3  4  1  0  0  0  0
  3 24  1  0  0  0  0
  4  5  1  0  0  0  0
  5  6  2  0  0  0  0
  5  7  1  0  0  0  0
  7  8  1  0  0  0  0
  7  9  1  0  0  0  0
  8 31  1  0  0  0  0
  8 32  1  0  0  0  0
  8 33  1  0  0  0  0
  9 10  2  0  0  0  0
  9 11  1  0  0  0  0
 11 12  1  0  0  0  0
 11 34  1  0  0  0  0
 11 35  1  0  0  0  0
 12 13  2  0  0  0  0
 12 17  1  0  0  0  0
 13 14  1  0  0  0  0
 13 36  1  0  0  0  0
 14 15  2  0  0  0  0
 14 37  1  0  0  0  0
 15 16  1  0  0  0  0
 15 18  1  0  0  0  0
 16 17  2  0  0  0  0
 16 38  1  0  0  0  0
 17 39  1  0  0  0  0
 18 19  2  0  0  0  0
 18 23  1  0  0  0  0
 19 20  1  0  0  0  0
 19 40  1  0  0  0  0
 20 21  2  0  0  0  0
 20 41  1  0  0  0  0
 21 22  1  0  0  0  0
 21 42  1  0  0  0  0
 22 23  2  0  0  0  0
 22 43  1  0  0  0  0
 24 25  2  0  0  0  0
 24 26  2  0  0  0  0
 24 27  1  0  0  0  0
 27 44  1  0  0  0  0
 27 45  1  0  0  0  0
M  END
>  <DRUGBANK_ID>
DB11844

>  <COMMON_NAME>
Pritelivir

>  <CAS_NUMBER>
348086-71-5

>  <UNII>
07HQ1TJ4JE

>  <SYNONYMS>
Pritelivir

$$$$
