
 OpenBabel10282417072D

 31 33  0  0  0  0  0  0  0  0999 V2000
   -1.1550    0.7128    0.0000 C   0  0  0  0  0  0  0  0  0  0  0  0
   -1.8744    0.3035    0.0000 C   0  0  0  0  0  0  0  0  0  0  0  0
   -1.8744   -0.5214    0.0000 C   0  0  0  0  0  0  0  0  0  0  0  0
   -1.1550   -0.9373    0.0000 C   0  0  0  0  0  0  0  0  0  0  0  0
   -0.4421   -0.5214    0.0000 C   0  0  0  0  0  0  0  0  0  0  0  0
   -0.4421    0.3035    0.0000 C   0  0  0  0  0  0  0  0  0  0  0  0
    0.8250   -0.1122    0.0000 C   0  0  0  0  0  0  0  0  0  0  0  0
    0.3431    0.5609    0.0000 N   0  0  0  0  0  0  0  0  0  0  0  0
    1.6500   -0.1122    0.0000 C   0  0  0  0  0  0  0  0  0  0  0  0
    3.3001   -0.1122    0.0000 C   0  0  0  0  0  0  0  0  0  0  0  0
    2.8909    0.6072    0.0000 C   0  0  0  0  0  0  0  0  0  0  0  0
    2.0659    0.6072    0.0000 C   0  0  0  0  0  0  0  0  0  0  0  0
    2.0659   -0.8250    0.0000 C   0  0  0  0  0  0  0  0  0  0  0  0
    0.3431   -0.7788    0.0000 N   0  0  0  0  0  0  0  0  0  0  0  0
    2.8909   -0.8250    0.0000 N   0  0  0  0  0  0  0  0  0  0  0  0
    1.6500   -1.5378    0.0000 O   0  0  0  0  0  0  0  0  0  0  0  0
   -2.5874    0.7128    0.0000 C   0  0  0  0  0  0  0  0  0  0  0  0
   -2.5874    1.5378    0.0000 N   0  3  0  0  0  0  0  0  0  0  0  0
   -3.3001    0.3035    0.0000 N   0  0  0  0  0  0  0  0  0  0  0  0
   -1.1530    1.7448    0.0000 H   0  0  0  0  0  0  0  0  0  0  0  0
   -2.7683   -1.0371    0.0000 H   0  0  0  0  0  0  0  0  0  0  0  0
   -1.1530   -1.9693    0.0000 H   0  0  0  0  0  0  0  0  0  0  0  0
    4.3321   -0.1142    0.0000 H   0  0  0  0  0  0  0  0  0  0  0  0
    3.4098    1.4993    0.0000 H   0  0  0  0  0  0  0  0  0  0  0  0
    1.5502    1.5011    0.0000 H   0  0  0  0  0  0  0  0  0  0  0  0
    0.6472   -1.7152    0.0000 H   0  0  0  0  0  0  0  0  0  0  0  0
    3.3842   -1.6770    0.0000 H   0  0  0  0  0  0  0  0  0  0  0  0
   -1.7348    2.0301    0.0000 H   0  0  0  0  0  0  0  0  0  0  0  0
   -3.4400    2.0301    0.0000 H   0  0  0  0  0  0  0  0  0  0  0  0
   -4.1516    0.7977    0.0000 H   0  0  0  0  0  0  0  0  0  0  0  0
   -3.3024   -0.6810    0.0000 H   0  0  0  0  0  0  0  0  0  0  0  0
  1  2  2  0  0  0  0
  1  6  1  0  0  0  0
  1 20  1  0  0  0  0
  2  3  1  0  0  0  0
  2 17  1  0  0  0  0
  3  4  2  0  0  0  0
  3 21  1  0  0  0  0
  4  5  1  0  0  0  0
  4 22  1  0  0  0  0
  5 14  1  0  0  0  0
  5  6  2  0  0  0  0
  6  8  1  0  0  0  0
  7  9  1  0  0  0  0
  7  8  2  0  0  0  0
  7 14  1  0  0  0  0
  9 13  1  0  0  0  0
  9 12  2  0  0  0  0
 10 15  1  0  0  0  0
 10 11  2  0  0  0  0
 10 23  1  0  0  0  0
 11 12  1  0  0  0  0
 11 24  1  0  0  0  0
 12 25  1  0  0  0  0
 13 15  1  0  0  0  0
 13 16  2  0  0  0  0
 14 26  1  0  0  0  0
 15 27  1  0  0  0  0
 17 19  1  0  0  0  0
 17 18  2  0  0  0  0
 18 28  1  0  0  0  0
 18 29  1  0  0  0  0
 19 30  1  0  0  0  0
 19 31  1  0  0  0  0
M  CHG  1  18   1
M  END
>  <DRUGBANK_ID>
DB04442

>  <SECONDARY_ACCESSION_NUMBERS>
EXPT00015

>  <COMMON_NAME>
Imino[2-(2-oxo-1,2-dihydro-3-pyridinyl)-1H-benzimidazol-5-yl]methanaminium

$$$$
