
 OpenBabel10282417072D

 62 61  0  0  0  0  0  0  0  0999 V2000
    3.8526    4.6993    0.0000 C   0  0  0  0  0  0  0  0  0  0  0  0
    4.5671    4.2868    0.0000 S   0  0  0  0  0  0  0  0  0  0  0  0
    5.2816    4.6993    0.0000 C   0  0  0  0  0  0  0  0  0  0  0  0
    5.2816    5.5243    0.0000 N   0  0  0  0  0  0  0  0  0  0  0  0
    5.9961    4.2868    0.0000 N   0  0  0  0  0  0  0  0  0  0  0  0
    6.7105    4.6993    0.0000 C   0  0  0  0  0  0  0  0  0  0  0  0
    7.4250    4.2868    0.0000 C   0  0  0  0  0  0  0  0  0  0  0  0
    8.1395    4.6993    0.0000 C   0  0  0  0  0  0  0  0  0  0  0  0
    8.8539    4.2868    0.0000 C   0  0  0  0  0  0  0  0  0  0  0  0
    9.5684    4.6993    0.0000 C   0  0  0  0  0  0  0  0  0  0  0  0
   10.2829    4.2868    0.0000 C   0  0  0  0  0  0  0  0  0  0  0  0
   10.9974    4.6993    0.0000 C   0  0  0  0  0  0  0  0  0  0  0  0
   11.7118    4.2868    0.0000 C   0  0  0  0  0  0  0  0  0  0  0  0
   12.4263    4.6993    0.0000 C   0  0  0  0  0  0  0  0  0  0  0  0
   13.1408    4.2868    0.0000 C   0  0  0  0  0  0  0  0  0  0  0  0
   13.8552    4.6993    0.0000 C   0  0  0  0  0  0  0  0  0  0  0  0
   14.5697    4.2868    0.0000 C   0  0  0  0  0  0  0  0  0  0  0  0
   15.2842    4.6993    0.0000 C   0  0  0  0  0  0  0  0  0  0  0  0
   15.9987    4.2868    0.0000 C   0  0  0  0  0  0  0  0  0  0  0  0
   16.7131    4.6993    0.0000 N   0  0  0  0  0  0  0  0  0  0  0  0
   17.4276    4.2868    0.0000 C   0  0  0  0  0  0  0  0  0  0  0  0
   17.4276    3.4618    0.0000 N   0  0  0  0  0  0  0  0  0  0  0  0
   18.1421    4.6993    0.0000 S   0  0  0  0  0  0  0  0  0  0  0  0
   18.1421    5.5243    0.0000 C   0  0  0  0  0  0  0  0  0  0  0  0
    3.8526    5.7693    0.0000 H   0  0  0  0  0  0  0  0  0  0  0  0
    2.9260    4.1643    0.0000 H   0  0  0  0  0  0  0  0  0  0  0  0
    2.9259    5.2343    0.0000 H   0  0  0  0  0  0  0  0  0  0  0  0
    6.1342    6.0166    0.0000 H   0  0  0  0  0  0  0  0  0  0  0  0
    4.4290    6.0166    0.0000 H   0  0  0  0  0  0  0  0  0  0  0  0
    6.7105    5.7693    0.0000 H   0  0  0  0  0  0  0  0  0  0  0  0
    7.6371    5.2343    0.0000 H   0  0  0  0  0  0  0  0  0  0  0  0
    7.4250    3.2168    0.0000 H   0  0  0  0  0  0  0  0  0  0  0  0
    8.3516    3.7518    0.0000 H   0  0  0  0  0  0  0  0  0  0  0  0
    8.1395    5.7693    0.0000 H   0  0  0  0  0  0  0  0  0  0  0  0
    9.0662    5.2343    0.0000 H   0  0  0  0  0  0  0  0  0  0  0  0
    8.8539    3.2168    0.0000 H   0  0  0  0  0  0  0  0  0  0  0  0
    9.7805    3.7518    0.0000 H   0  0  0  0  0  0  0  0  0  0  0  0
    9.5684    5.7693    0.0000 H   0  0  0  0  0  0  0  0  0  0  0  0
   10.4950    5.2343    0.0000 H   0  0  0  0  0  0  0  0  0  0  0  0
   10.2829    3.2168    0.0000 H   0  0  0  0  0  0  0  0  0  0  0  0
   11.2095    3.7518    0.0000 H   0  0  0  0  0  0  0  0  0  0  0  0
   10.9974    5.7693    0.0000 H   0  0  0  0  0  0  0  0  0  0  0  0
   11.9241    5.2343    0.0000 H   0  0  0  0  0  0  0  0  0  0  0  0
   11.7118    3.2168    0.0000 H   0  0  0  0  0  0  0  0  0  0  0  0
   12.6384    3.7518    0.0000 H   0  0  0  0  0  0  0  0  0  0  0  0
   12.4263    5.7693    0.0000 H   0  0  0  0  0  0  0  0  0  0  0  0
   13.3529    5.2343    0.0000 H   0  0  0  0  0  0  0  0  0  0  0  0
   13.1408    3.2168    0.0000 H   0  0  0  0  0  0  0  0  0  0  0  0
   14.0675    3.7518    0.0000 H   0  0  0  0  0  0  0  0  0  0  0  0
   13.8552    5.7693    0.0000 H   0  0  0  0  0  0  0  0  0  0  0  0
   14.7818    5.2343    0.0000 H   0  0  0  0  0  0  0  0  0  0  0  0
   14.5697    3.2168    0.0000 H   0  0  0  0  0  0  0  0  0  0  0  0
   15.4963    3.7518    0.0000 H   0  0  0  0  0  0  0  0  0  0  0  0
   15.2842    5.7693    0.0000 H   0  0  0  0  0  0  0  0  0  0  0  0
   16.2108    5.2343    0.0000 H   0  0  0  0  0  0  0  0  0  0  0  0
   15.9987    3.2168    0.0000 H   0  0  0  0  0  0  0  0  0  0  0  0
   16.9254    3.7518    0.0000 H   0  0  0  0  0  0  0  0  0  0  0  0
   16.5750    2.9695    0.0000 H   0  0  0  0  0  0  0  0  0  0  0  0
   18.2802    2.9695    0.0000 H   0  0  0  0  0  0  0  0  0  0  0  0
   19.0687    6.0593    0.0000 H   0  0  0  0  0  0  0  0  0  0  0  0
   17.2155    6.0593    0.0000 H   0  0  0  0  0  0  0  0  0  0  0  0
   18.1421    6.5943    0.0000 H   0  0  0  0  0  0  0  0  0  0  0  0
  1  2  1  0  0  0  0
  1 25  1  0  0  0  0
  1 26  1  0  0  0  0
  1 27  1  0  0  0  0
  2  3  1  0  0  0  0
  3  4  1  0  0  0  0
  3  5  2  0  0  0  0
  4 28  1  0  0  0  0
  4 29  1  0  0  0  0
  5  6  1  0  0  0  0
  6  7  1  0  0  0  0
  6 30  1  0  0  0  0
  6 31  1  0  0  0  0
  7  8  1  0  0  0  0
  7 32  1  0  0  0  0
  7 33  1  0  0  0  0
  8  9  1  0  0  0  0
  8 34  1  0  0  0  0
  8 35  1  0  0  0  0
  9 10  1  0  0  0  0
  9 36  1  0  0  0  0
  9 37  1  0  0  0  0
 10 11  1  0  0  0  0
 10 38  1  0  0  0  0
 10 39  1  0  0  0  0
 11 12  1  0  0  0  0
 11 40  1  0  0  0  0
 11 41  1  0  0  0  0
 12 13  1  0  0  0  0
 12 42  1  0  0  0  0
 12 43  1  0  0  0  0
 13 14  1  0  0  0  0
 13 44  1  0  0  0  0
 13 45  1  0  0  0  0
 14 15  1  0  0  0  0
 14 46  1  0  0  0  0
 14 47  1  0  0  0  0
 15 16  1  0  0  0  0
 15 48  1  0  0  0  0
 15 49  1  0  0  0  0
 16 17  1  0  0  0  0
 16 50  1  0  0  0  0
 16 51  1  0  0  0  0
 17 18  1  0  0  0  0
 17 52  1  0  0  0  0
 17 53  1  0  0  0  0
 18 19  1  0  0  0  0
 18 54  1  0  0  0  0
 18 55  1  0  0  0  0
 19 20  1  0  0  0  0
 19 56  1  0  0  0  0
 19 57  1  0  0  0  0
 20 21  2  0  0  0  0
 21 22  1  0  0  0  0
 21 23  1  0  0  0  0
 22 58  1  0  0  0  0
 22 59  1  0  0  0  0
 23 24  1  0  0  0  0
 24 60  1  0  0  0  0
 24 61  1  0  0  0  0
 24 62  1  0  0  0  0
M  END
>  <DRUGBANK_ID>
DB02979

>  <SECONDARY_ACCESSION_NUMBERS>
EXPT02394

>  <COMMON_NAME>
N1,N14-Bis((S-Methyl)Isothioureido)Tetradecane

$$$$
