
 OpenBabel10282417072D

 25 24  0  0  0  0  0  0  0  0999 V2000
   -1.7861   -1.0313    0.0000 C   0  0  0  0  0  0  0  0  0  0  0  0
   -1.0717   -0.6187    0.0000 C   0  0  0  0  0  0  0  0  0  0  0  0
   -0.3572   -1.0313    0.0000 N   0  0  0  0  0  0  0  0  0  0  0  0
    0.3571   -0.6187    0.0000 C   0  0  2  0  0  0  0  0  0  0  0  0
    1.0717   -1.0313    0.0000 C   0  0  0  0  0  0  0  0  0  0  0  0
    1.7861   -0.6187    0.0000 O   0  0  0  0  0  0  0  0  0  0  0  0
    1.0717   -1.8562    0.0000 O   0  0  0  0  0  0  0  0  0  0  0  0
    0.3571    0.2062    0.0000 C   0  0  0  0  0  0  0  0  0  0  0  0
    1.0717    0.6186    0.0000 C   0  0  0  0  0  0  0  0  0  0  0  0
    1.0717    1.4437    0.0000 S   0  0  0  0  0  0  0  0  0  0  0  0
    1.7861    1.8562    0.0000 C   0  0  0  0  0  0  0  0  0  0  0  0
   -1.0717    0.2062    0.0000 O   0  0  0  0  0  0  0  0  0  0  0  0
   -2.7128   -0.4964    0.0000 H   0  0  0  0  0  0  0  0  0  0  0  0
   -1.7859   -2.1013    0.0000 H   0  0  0  0  0  0  0  0  0  0  0  0
   -2.7127   -1.5664    0.0000 H   0  0  0  0  0  0  0  0  0  0  0  0
   -0.3571   -2.0158    0.0000 H   0  0  0  0  0  0  0  0  0  0  0  0
   -0.5696   -0.0838    0.0000 H   0  0  0  0  0  0  0  0  0  0  0  0
    2.5976   -1.0871    0.0000 H   0  0  0  0  0  0  0  0  0  0  0  0
   -0.5695    0.7413    0.0000 H   0  0  0  0  0  0  0  0  0  0  0  0
    0.3572    1.2762    0.0000 H   0  0  0  0  0  0  0  0  0  0  0  0
    1.9983    0.0835    0.0000 H   0  0  0  0  0  0  0  0  0  0  0  0
    1.9984    1.1536    0.0000 H   0  0  0  0  0  0  0  0  0  0  0  0
    2.7128    1.3212    0.0000 H   0  0  0  0  0  0  0  0  0  0  0  0
    1.7861    2.9262    0.0000 H   0  0  0  0  0  0  0  0  0  0  0  0
    2.7127    2.3912    0.0000 H   0  0  0  0  0  0  0  0  0  0  0  0
  1  2  1  0  0  0  0
  1 13  1  0  0  0  0
  1 14  1  0  0  0  0
  1 15  1  0  0  0  0
  2  3  1  0  0  0  0
  2 12  2  0  0  0  0
  3  4  1  0  0  0  0
  3 16  1  0  0  0  0
  4  5  1  0  0  0  0
  4  8  1  0  0  0  0
  4 17  1  6  0  0  0
  5  6  1  0  0  0  0
  5  7  2  0  0  0  0
  6 18  1  0  0  0  0
  8  9  1  0  0  0  0
  8 19  1  0  0  0  0
  8 20  1  0  0  0  0
  9 10  1  0  0  0  0
  9 21  1  0  0  0  0
  9 22  1  0  0  0  0
 10 11  1  0  0  0  0
 11 23  1  0  0  0  0
 11 24  1  0  0  0  0
 11 25  1  0  0  0  0
M  END
>  <DRUGBANK_ID>
DB01646

>  <SECONDARY_ACCESSION_NUMBERS>
EXPT00506

>  <COMMON_NAME>
N-Acetylmethionine

>  <CAS_NUMBER>
65-82-7

>  <UNII>
9J12WX5B6A

>  <SYNONYMS>
(2S)-2-acetamido-4-(methylsulfanyl)butanoic acid; Acetyl-L-methionine; Acetylmethionine; AcMet; L-(N-Acetyl)methionine; Methionamine; Methionin; N-Ac-Met; N-acetyl-L-methionine; NÎ±-acetyl-L-methionine; Thiomedon

$$$$
