
 OpenBabel10282417072D

 82 86  0  0  0  0  0  0  0  0999 V2000
    1.0817    0.3832    0.0000 N   0  0  0  0  0  0  0  0  0  0  0  0
    0.4000   -0.0815    0.0000 S   0  0  0  0  0  0  0  0  0  0  0  0
   -0.3882    0.1616    0.0000 N   0  0  0  0  0  0  0  0  0  0  0  0
   -0.6896    0.9296    0.0000 C   0  0  1  0  0  0  0  0  0  0  0  0
   -0.2771    1.6440    0.0000 C   0  0  1  0  0  0  0  0  0  0  0  0
    0.5387    1.7670    0.0000 C   0  0  2  0  0  0  0  0  0  0  0  0
    1.1433    1.2059    0.0000 C   0  0  1  0  0  0  0  0  0  0  0  0
    1.7963   -0.0292    0.0000 C   0  0  0  0  0  0  0  0  0  0  0  0
    1.7963   -0.8542    0.0000 C   0  0  0  0  0  0  0  0  0  0  0  0
    2.5107   -1.2667    0.0000 C   0  0  0  0  0  0  0  0  0  0  0  0
    2.5107   -2.0917    0.0000 C   0  0  0  0  0  0  0  0  0  0  0  0
    1.7963   -2.5042    0.0000 C   0  0  0  0  0  0  0  0  0  0  0  0
    1.0817   -2.0917    0.0000 C   0  0  0  0  0  0  0  0  0  0  0  0
    1.0817   -1.2667    0.0000 C   0  0  0  0  0  0  0  0  0  0  0  0
    0.8801   -0.7525    0.0000 O   0  0  0  0  0  0  0  0  0  0  0  0
   -1.8703    1.7345    0.0000 O   0  0  0  0  0  0  0  0  0  0  0  0
   -2.6930    1.7962    0.0000 C   0  0  0  0  0  0  0  0  0  0  0  0
   -3.1577    1.1145    0.0000 C   0  0  0  0  0  0  0  0  0  0  0  0
   -3.9803    1.1762    0.0000 C   0  0  0  0  0  0  0  0  0  0  0  0
   -4.3382    1.9195    0.0000 C   0  0  0  0  0  0  0  0  0  0  0  0
   -3.8736    2.6011    0.0000 C   0  0  0  0  0  0  0  0  0  0  0  0
   -3.0509    2.5395    0.0000 C   0  0  0  0  0  0  0  0  0  0  0  0
   -0.9493   -0.4431    0.0000 C   0  0  0  0  0  0  0  0  0  0  0  0
   -1.7537   -0.2595    0.0000 C   0  0  0  0  0  0  0  0  0  0  0  0
   -2.3148   -0.8643    0.0000 C   0  0  0  0  0  0  0  0  0  0  0  0
   -3.1191   -0.6807    0.0000 C   0  0  0  0  0  0  0  0  0  0  0  0
   -3.3623    0.1076    0.0000 C   0  0  0  0  0  0  0  0  0  0  0  0
   -2.8012    0.7123    0.0000 C   0  0  0  0  0  0  0  0  0  0  0  0
   -1.9968    0.5288    0.0000 C   0  0  0  0  0  0  0  0  0  0  0  0
   -0.7419    2.3257    0.0000 O   0  0  0  0  0  0  0  0  0  0  0  0
    0.7818    2.5554    0.0000 O   0  0  0  0  0  0  0  0  0  0  0  0
    1.9114    1.5073    0.0000 C   0  0  0  0  0  0  0  0  0  0  0  0
    2.0344    2.3231    0.0000 O   0  0  0  0  0  0  0  0  0  0  0  0
    2.8022    2.6245    0.0000 C   0  0  0  0  0  0  0  0  0  0  0  0
    2.9253    3.4402    0.0000 C   0  0  0  0  0  0  0  0  0  0  0  0
    3.6933    3.7417    0.0000 C   0  0  0  0  0  0  0  0  0  0  0  0
    4.3383    3.2273    0.0000 C   0  0  0  0  0  0  0  0  0  0  0  0
    4.2153    2.4115    0.0000 C   0  0  0  0  0  0  0  0  0  0  0  0
    3.4474    2.1101    0.0000 C   0  0  0  0  0  0  0  0  0  0  0  0
    0.1392   -0.8642    0.0000 O   0  0  0  0  0  0  0  0  0  0  0  0
   -1.5123    0.9912    0.0000 C   0  0  0  0  0  0  0  0  0  0  0  0
    3.2252   -2.5042    0.0000 C   0  0  0  0  0  0  0  0  0  0  0  0
    3.9397   -2.0917    0.0000 O   0  0  0  0  0  0  0  0  0  0  0  0
    3.2252   -3.3292    0.0000 N   0  0  0  0  0  0  0  0  0  0  0  0
    3.9397   -3.7417    0.0000 C   0  0  0  0  0  0  0  0  0  0  0  0
   -1.3250    0.0687    0.0000 H   0  0  0  0  0  0  0  0  0  0  0  0
   -1.3464    1.6040    0.0000 H   0  0  0  0  0  0  0  0  0  0  0  0
   -0.1593    2.5780    0.0000 H   0  0  0  0  0  0  0  0  0  0  0  0
    2.0042    0.5705    0.0000 H   0  0  0  0  0  0  0  0  0  0  0  0
    2.7229    0.5059    0.0000 H   0  0  0  0  0  0  0  0  0  0  0  0
    2.7230   -0.5642    0.0000 H   0  0  0  0  0  0  0  0  0  0  0  0
    3.4044   -0.7507    0.0000 H   0  0  0  0  0  0  0  0  0  0  0  0
    1.7964   -3.5362    0.0000 H   0  0  0  0  0  0  0  0  0  0  0  0
    0.1880   -2.6077    0.0000 H   0  0  0  0  0  0  0  0  0  0  0  0
    0.1880   -0.7507    0.0000 H   0  0  0  0  0  0  0  0  0  0  0  0
   -2.7099    0.1847    0.0000 H   0  0  0  0  0  0  0  0  0  0  0  0
   -4.5617    0.3236    0.0000 H   0  0  0  0  0  0  0  0  0  0  0  0
   -5.3673    1.9966    0.0000 H   0  0  0  0  0  0  0  0  0  0  0  0
   -4.3214    3.5309    0.0000 H   0  0  0  0  0  0  0  0  0  0  0  0
   -2.4696    3.3922    0.0000 H   0  0  0  0  0  0  0  0  0  0  0  0
   -0.6339   -1.4656    0.0000 H   0  0  0  0  0  0  0  0  0  0  0  0
   -1.6771   -1.2275    0.0000 H   0  0  0  0  0  0  0  0  0  0  0  0
   -2.0106   -1.8504    0.0000 H   0  0  0  0  0  0  0  0  0  0  0  0
   -3.8210   -1.4372    0.0000 H   0  0  0  0  0  0  0  0  0  0  0  0
   -4.3684    0.3372    0.0000 H   0  0  0  0  0  0  0  0  0  0  0  0
   -3.1054    1.6984    0.0000 H   0  0  0  0  0  0  0  0  0  0  0  0
   -1.2949    1.2853    0.0000 H   0  0  0  0  0  0  0  0  0  0  0  0
   -0.3211    3.1997    0.0000 H   0  0  0  0  0  0  0  0  0  0  0  0
    1.7275    2.7713    0.0000 H   0  0  0  0  0  0  0  0  0  0  0  0
    2.7479    0.8401    0.0000 H   0  0  0  0  0  0  0  0  0  0  0  0
    2.9075    1.8982    0.0000 H   0  0  0  0  0  0  0  0  0  0  0  0
    2.1185    4.0837    0.0000 H   0  0  0  0  0  0  0  0  0  0  0  0
    3.8471    4.7622    0.0000 H   0  0  0  0  0  0  0  0  0  0  0  0
    5.2990    3.6043    0.0000 H   0  0  0  0  0  0  0  0  0  0  0  0
    5.0221    1.7680    0.0000 H   0  0  0  0  0  0  0  0  0  0  0  0
    3.2937    1.0896    0.0000 H   0  0  0  0  0  0  0  0  0  0  0  0
   -2.1150    0.1071    0.0000 H   0  0  0  0  0  0  0  0  0  0  0  0
   -2.5793    1.0711    0.0000 H   0  0  0  0  0  0  0  0  0  0  0  0
    2.3726   -3.8215    0.0000 H   0  0  0  0  0  0  0  0  0  0  0  0
    3.9397   -4.8117    0.0000 H   0  0  0  0  0  0  0  0  0  0  0  0
    4.8663   -3.2067    0.0000 H   0  0  0  0  0  0  0  0  0  0  0  0
    4.8664   -4.2767    0.0000 H   0  0  0  0  0  0  0  0  0  0  0  0
  1  2  1  0  0  0  0
  3  2  1  0  0  0  0
  4  3  1  0  0  0  0
  4  5  1  0  0  0  0
  4 41  1  0  0  0  0
  4 46  1  1  0  0  0
  5  6  1  0  0  0  0
  5 30  1  0  0  0  0
  5 47  1  1  0  0  0
  6  7  1  0  0  0  0
  6 31  1  0  0  0  0
  6 48  1  6  0  0  0
  7  1  1  0  0  0  0
  7 32  1  0  0  0  0
  7 49  1  6  0  0  0
  8  1  1  0  0  0  0
  8  9  1  0  0  0  0
  8 50  1  0  0  0  0
  8 51  1  0  0  0  0
  9 10  2  0  0  0  0
  9 14  1  0  0  0  0
 10 11  1  0  0  0  0
 10 52  1  0  0  0  0
 11 12  2  0  0  0  0
 11 42  1  0  0  0  0
 12 13  1  0  0  0  0
 12 53  1  0  0  0  0
 13 14  2  0  0  0  0
 13 54  1  0  0  0  0
 14 55  1  0  0  0  0
 15  2  2  0  0  0  0
 17 16  1  0  0  0  0
 17 18  2  0  0  0  0
 17 22  1  0  0  0  0
 18 19  1  0  0  0  0
 18 56  1  0  0  0  0
 19 20  2  0  0  0  0
 19 57  1  0  0  0  0
 20 21  1  0  0  0  0
 20 58  1  0  0  0  0
 21 22  2  0  0  0  0
 21 59  1  0  0  0  0
 22 60  1  0  0  0  0
 23  3  1  0  0  0  0
 23 24  1  0  0  0  0
 23 61  1  0  0  0  0
 23 62  1  0  0  0  0
 24 25  2  0  0  0  0
 24 29  1  0  0  0  0
 25 26  1  0  0  0  0
 25 63  1  0  0  0  0
 26 27  2  0  0  0  0
 26 64  1  0  0  0  0
 27 28  1  0  0  0  0
 27 65  1  0  0  0  0
 28 29  2  0  0  0  0
 28 66  1  0  0  0  0
 29 67  1  0  0  0  0
 30 68  1  0  0  0  0
 31 69  1  0  0  0  0
 32 33  1  0  0  0  0
 32 70  1  0  0  0  0
 32 71  1  0  0  0  0
 34 33  1  0  0  0  0
 34 35  2  0  0  0  0
 34 39  1  0  0  0  0
 35 36  1  0  0  0  0
 35 72  1  0  0  0  0
 36 37  2  0  0  0  0
 36 73  1  0  0  0  0
 37 38  1  0  0  0  0
 37 74  1  0  0  0  0
 38 39  2  0  0  0  0
 38 75  1  0  0  0  0
 39 76  1  0  0  0  0
 40  2  2  0  0  0  0
 41 16  1  0  0  0  0
 41 77  1  0  0  0  0
 41 78  1  0  0  0  0
 42 43  2  0  0  0  0
 42 44  1  0  0  0  0
 44 79  1  0  0  0  0
 45 44  1  0  0  0  0
 45 80  1  0  0  0  0
 45 81  1  0  0  0  0
 45 82  1  0  0  0  0
M  END
>  <DRUGBANK_ID>
DB03076

>  <SECONDARY_ACCESSION_NUMBERS>
EXPT02360

>  <COMMON_NAME>
3-[[(3R,4S,5S,6R)-7-Benzyl-4,5-dihydroxy-1,1-dioxo-3,6-bis(phenoxymethyl)-1,2,7-thiadiazepan-2-yl]methyl]-N-methylbenzamide

$$$$
