NU1
 OpenBabel10282417072D

 21 22  0  0  0  0  0  0  0  0999 V2000
   -0.9166    0.6423    0.0000 C   0  0  0  0  0  0  0  0  0  0  0  0
   -0.9166    1.4673    0.0000 O   0  0  0  0  0  0  0  0  0  0  0  0
   -0.2021    0.2298    0.0000 C   0  0  0  0  0  0  0  0  0  0  0  0
    0.5124    0.6423    0.0000 N   0  0  0  0  0  0  0  0  0  0  0  0
    1.2269    0.2298    0.0000 C   0  0  0  0  0  0  0  0  0  0  0  0
    1.9413    0.6423    0.0000 C   0  0  0  0  0  0  0  0  0  0  0  0
    1.2269   -0.5952    0.0000 N   0  0  0  0  0  0  0  0  0  0  0  0
    0.5124   -1.0077    0.0000 C   0  0  0  0  0  0  0  0  0  0  0  0
    0.5124   -1.8327    0.0000 O   0  0  0  0  0  0  0  0  0  0  0  0
   -0.2021   -0.5952    0.0000 C   0  0  0  0  0  0  0  0  0  0  0  0
   -0.9166   -1.0077    0.0000 C   0  0  0  0  0  0  0  0  0  0  0  0
   -1.6310   -0.5952    0.0000 C   0  0  0  0  0  0  0  0  0  0  0  0
   -1.6310    0.2298    0.0000 C   0  0  0  0  0  0  0  0  0  0  0  0
   -0.1051    1.9358    0.0000 H   0  0  0  0  0  0  0  0  0  0  0  0
    2.8680    0.1073    0.0000 H   0  0  0  0  0  0  0  0  0  0  0  0
    1.9413    1.7123    0.0000 H   0  0  0  0  0  0  0  0  0  0  0  0
    2.8679    1.1773    0.0000 H   0  0  0  0  0  0  0  0  0  0  0  0
    2.0795   -1.0875    0.0000 H   0  0  0  0  0  0  0  0  0  0  0  0
   -0.9166   -2.0397    0.0000 H   0  0  0  0  0  0  0  0  0  0  0  0
   -2.5247   -1.1112    0.0000 H   0  0  0  0  0  0  0  0  0  0  0  0
   -2.5247    0.7458    0.0000 H   0  0  0  0  0  0  0  0  0  0  0  0
  1  2  1  0  0  0  0
  1  3  1  0  0  0  0
  1 13  2  0  0  0  0
  2 14  1  0  0  0  0
  3  4  1  0  0  0  0
  3 10  2  0  0  0  0
  4  5  2  0  0  0  0
  5  6  1  0  0  0  0
  5  7  1  0  0  0  0
  6 15  1  0  0  0  0
  6 16  1  0  0  0  0
  6 17  1  0  0  0  0
  7  8  1  0  0  0  0
  7 18  1  0  0  0  0
  8  9  2  0  0  0  0
  8 10  1  0  0  0  0
 10 11  1  0  0  0  0
 11 12  2  0  0  0  0
 11 19  1  0  0  0  0
 12 13  1  0  0  0  0
 12 20  1  0  0  0  0
 13 21  1  0  0  0  0
M  END
>  <DRUGBANK_ID>
DB02690

>  <SECONDARY_ACCESSION_NUMBERS>
EXPT02396

>  <COMMON_NAME>
NU1025

>  <CAS_NUMBER>
90417-38-2

>  <UNII>
X5ZL2C7V9B

$$$$
