1488
 OpenBabel10282417072D

 30 31  0  0  0  0  0  0  0  0999 V2000
    5.1796    1.4693    0.0000 N   0  0  0  0  0  0  0  0  0  0  0  0
    3.8597   -1.5972    0.0000 N   0  0  0  0  0  0  0  0  0  0  0  0
    4.1160    0.5149    0.0000 C   0  0  0  0  0  0  0  0  0  0  0  0
    3.8597   -0.2693    0.0000 C   0  0  0  0  0  0  0  0  0  0  0  0
    4.9233    0.6851    0.0000 C   0  0  0  0  0  0  0  0  0  0  0  0
    3.0791   -0.5207    0.0000 C   0  0  0  0  0  0  0  0  0  0  0  0
    3.0791   -1.3457    0.0000 C   0  0  0  0  0  0  0  0  0  0  0  0
    4.3412   -0.9332    0.0000 C   0  0  0  0  0  0  0  0  0  0  0  0
    2.3645   -0.1082    0.0000 C   0  0  0  0  0  0  0  0  0  0  0  0
    2.3645   -1.7582    0.0000 C   0  0  0  0  0  0  0  0  0  0  0  0
    5.9869    1.6394    0.0000 C   0  0  0  0  0  0  0  0  0  0  0  0
    4.6286    2.0834    0.0000 C   0  0  0  0  0  0  0  0  0  0  0  0
    1.6501   -0.5207    0.0000 C   0  0  0  0  0  0  0  0  0  0  0  0
    1.6501   -1.3457    0.0000 C   0  0  0  0  0  0  0  0  0  0  0  0
    4.1655   -2.5330    0.0000 H   0  0  0  0  0  0  0  0  0  0  0  0
    3.4014    1.3113    0.0000 H   0  0  0  0  0  0  0  0  0  0  0  0
    4.4484    1.5320    0.0000 H   0  0  0  0  0  0  0  0  0  0  0  0
    5.6379   -0.1113    0.0000 H   0  0  0  0  0  0  0  0  0  0  0  0
    4.5909   -0.3320    0.0000 H   0  0  0  0  0  0  0  0  0  0  0  0
    5.3732   -0.9332    0.0000 H   0  0  0  0  0  0  0  0  0  0  0  0
    2.3644    0.9238    0.0000 H   0  0  0  0  0  0  0  0  0  0  0  0
    2.3644   -2.7902    0.0000 H   0  0  0  0  0  0  0  0  0  0  0  0
    6.7015    0.8430    0.0000 H   0  0  0  0  0  0  0  0  0  0  0  0
    6.3194    2.6564    0.0000 H   0  0  0  0  0  0  0  0  0  0  0  0
    7.0339    1.8600    0.0000 H   0  0  0  0  0  0  0  0  0  0  0  0
    4.9610    3.1005    0.0000 H   0  0  0  0  0  0  0  0  0  0  0  0
    3.5816    1.8628    0.0000 H   0  0  0  0  0  0  0  0  0  0  0  0
    3.9140    2.8798    0.0000 H   0  0  0  0  0  0  0  0  0  0  0  0
    0.7564   -0.0047    0.0000 H   0  0  0  0  0  0  0  0  0  0  0  0
    0.7564   -1.8617    0.0000 H   0  0  0  0  0  0  0  0  0  0  0  0
  1  5  1  0  0  0  0
  1 11  1  0  0  0  0
  1 12  1  0  0  0  0
  2  7  1  0  0  0  0
  2  8  1  0  0  0  0
  2 15  1  0  0  0  0
  3  4  1  0  0  0  0
  3  5  1  0  0  0  0
  3 16  1  0  0  0  0
  3 17  1  0  0  0  0
  4  6  1  0  0  0  0
  4  8  2  0  0  0  0
  5 18  1  0  0  0  0
  5 19  1  0  0  0  0
  6  7  1  0  0  0  0
  6  9  2  0  0  0  0
  7 10  2  0  0  0  0
  8 20  1  0  0  0  0
  9 13  1  0  0  0  0
  9 21  1  0  0  0  0
 10 14  1  0  0  0  0
 10 22  1  0  0  0  0
 11 23  1  0  0  0  0
 11 24  1  0  0  0  0
 11 25  1  0  0  0  0
 12 26  1  0  0  0  0
 12 27  1  0  0  0  0
 12 28  1  0  0  0  0
 13 14  2  0  0  0  0
 13 29  1  0  0  0  0
 14 30  1  0  0  0  0
M  END
>  <DRUGBANK_ID>
DB01488

>  <COMMON_NAME>
Dimethyltryptamine

>  <CAS_NUMBER>
61-50-7

>  <UNII>
WUB601BHAA

>  <SYNONYMS>
2-(3-indolyl)ethyldimethylamine; 3-(2-dimethylaminoethyl)indole; 3-[2-(dimethylamino)ethyl]indole; DMT; N,N-dimethyl-1H-indole-3-ethylamine; N,N-dimethyltryptamine

$$$$
