3B4
 OpenBabel10282417072D

 33 34  0  0  0  0  0  0  0  0999 V2000
   -0.4980    1.5594    0.0000 C   0  0  0  0  0  0  0  0  0  0  0  0
   -1.2125    1.9719    0.0000 C   0  0  0  0  0  0  0  0  0  0  0  0
   -1.9270    1.5594    0.0000 C   0  0  0  0  0  0  0  0  0  0  0  0
   -1.9270    0.7344    0.0000 C   0  0  0  0  0  0  0  0  0  0  0  0
   -1.2125    0.3219    0.0000 C   0  0  0  0  0  0  0  0  0  0  0  0
   -0.4980    0.7344    0.0000 C   0  0  0  0  0  0  0  0  0  0  0  0
    0.2165    0.3219    0.0000 N   0  0  0  0  0  0  0  0  0  0  0  0
    0.2165   -0.5031    0.0000 C   0  0  0  0  0  0  0  0  0  0  0  0
   -0.4980   -0.9156    0.0000 C   0  0  0  0  0  0  0  0  0  0  0  0
   -0.4980   -1.7406    0.0000 C   0  0  0  0  0  0  0  0  0  0  0  0
    0.2165   -2.1531    0.0000 C   0  0  0  0  0  0  0  0  0  0  0  0
    0.9309   -1.7406    0.0000 C   0  0  0  0  0  0  0  0  0  0  0  0
    0.9309   -0.9156    0.0000 C   0  0  0  0  0  0  0  0  0  0  0  0
    1.6454   -0.5031    0.0000 C   0  0  0  0  0  0  0  0  0  0  0  0
    2.3599   -0.9156    0.0000 O   0  0  0  0  0  0  0  0  0  0  0  0
    1.6454    0.3219    0.0000 O   0  0  0  0  0  0  0  0  0  0  0  0
    0.4286    2.0944    0.0000 H   0  0  0  0  0  0  0  0  0  0  0  0
    0.4286    1.0244    0.0000 H   0  0  0  0  0  0  0  0  0  0  0  0
   -1.2125    3.0419    0.0000 H   0  0  0  0  0  0  0  0  0  0  0  0
   -2.1391    2.5069    0.0000 H   0  0  0  0  0  0  0  0  0  0  0  0
   -2.8536    2.0944    0.0000 H   0  0  0  0  0  0  0  0  0  0  0  0
   -2.8536    1.0244    0.0000 H   0  0  0  0  0  0  0  0  0  0  0  0
   -2.8536    0.1994    0.0000 H   0  0  0  0  0  0  0  0  0  0  0  0
   -1.9270   -0.3356    0.0000 H   0  0  0  0  0  0  0  0  0  0  0  0
   -1.2125   -0.7481    0.0000 H   0  0  0  0  0  0  0  0  0  0  0  0
   -0.2859   -0.2131    0.0000 H   0  0  0  0  0  0  0  0  0  0  0  0
    0.4286    1.2694    0.0000 H   0  0  0  0  0  0  0  0  0  0  0  0
    1.0691    0.8142    0.0000 H   0  0  0  0  0  0  0  0  0  0  0  0
   -1.3917   -0.3996    0.0000 H   0  0  0  0  0  0  0  0  0  0  0  0
   -1.3917   -2.2566    0.0000 H   0  0  0  0  0  0  0  0  0  0  0  0
    0.2165   -3.1851    0.0000 H   0  0  0  0  0  0  0  0  0  0  0  0
    1.8246   -2.2566    0.0000 H   0  0  0  0  0  0  0  0  0  0  0  0
    2.3599   -1.8526    0.0000 H   0  0  0  0  0  0  0  0  0  0  0  0
  1 17  1  0  0  0  0
  1 18  1  0  0  0  0
  2  1  1  0  0  0  0
  2 19  1  0  0  0  0
  2 20  1  0  0  0  0
  3  2  1  0  0  0  0
  3 21  1  0  0  0  0
  3 22  1  0  0  0  0
  4  3  1  0  0  0  0
  4 23  1  0  0  0  0
  4 24  1  0  0  0  0
  5  4  1  0  0  0  0
  5  6  1  0  0  0  0
  5 25  1  0  0  0  0
  5 26  1  0  0  0  0
  6  1  1  0  0  0  0
  6  7  1  0  0  0  0
  6 27  1  0  0  0  0
  7  8  1  0  0  0  0
  7 28  1  0  0  0  0
  8 13  1  0  0  0  0
  9  8  2  0  0  0  0
  9 10  1  0  0  0  0
  9 29  1  0  0  0  0
 10 11  2  0  0  0  0
 10 30  1  0  0  0  0
 11 12  1  0  0  0  0
 11 31  1  0  0  0  0
 12 32  1  0  0  0  0
 13 12  2  0  0  0  0
 13 14  1  0  0  0  0
 14 15  1  0  0  0  0
 15 33  1  0  0  0  0
 16 14  2  0  0  0  0
M  END
>  <DRUGBANK_ID>
DB07038

>  <COMMON_NAME>
2-(cyclohexylamino)benzoic acid

>  <UNII>
B519KGK87P

$$$$
