C4P
 OpenBabel10282417072D

 61 63  0  0  0  0  0  0  0  0999 V2000
   -1.9028   -0.3589    0.0000 N   0  0  0  0  0  0  0  0  0  0  0  0
   -2.6173    0.0536    0.0000 C   0  0  0  0  0  0  0  0  0  0  0  0
   -2.6173    0.8786    0.0000 O   0  0  0  0  0  0  0  0  0  0  0  0
   -3.3318   -0.3589    0.0000 N   0  0  0  0  0  0  0  0  0  0  0  0
   -3.3318   -1.1839    0.0000 C   0  0  0  0  0  0  0  0  0  0  0  0
   -4.0463   -1.5964    0.0000 C   0  0  0  0  0  0  0  0  0  0  0  0
   -4.7607   -1.1839    0.0000 O   0  0  0  0  0  0  0  0  0  0  0  0
   -4.7607   -0.3589    0.0000 C   0  0  0  0  0  0  0  0  0  0  0  0
   -4.0463    0.0536    0.0000 C   0  0  0  0  0  0  0  0  0  0  0  0
   -1.1884    0.0536    0.0000 C   0  0  2  0  0  0  0  0  0  0  0  0
   -0.4739   -0.3589    0.0000 C   0  0  0  0  0  0  0  0  0  0  0  0
   -0.4739   -1.1839    0.0000 O   0  0  0  0  0  0  0  0  0  0  0  0
    0.2406    0.0536    0.0000 N   0  0  0  0  0  0  0  0  0  0  0  0
    0.9550   -0.3589    0.0000 C   0  0  2  0  0  0  0  0  0  0  0  0
    0.9550   -1.1839    0.0000 C   0  0  0  0  0  0  0  0  0  0  0  0
    1.6695   -1.5964    0.0000 O   0  0  0  0  0  0  0  0  0  0  0  0
    1.6695    0.0536    0.0000 C   0  0  0  0  0  0  0  0  0  0  0  0
    2.3840   -0.3589    0.0000 S   0  0  0  0  0  0  0  0  0  0  0  0
    3.0985    0.0536    0.0000 C   0  0  0  0  0  0  0  0  0  0  0  0
    3.8129   -0.3589    0.0000 C   0  0  0  0  0  0  0  0  0  0  0  0
    4.5274    0.0536    0.0000 C   0  0  0  0  0  0  0  0  0  0  0  0
    5.2419   -0.3589    0.0000 C   0  0  0  0  0  0  0  0  0  0  0  0
    5.2419   -1.1839    0.0000 C   0  0  0  0  0  0  0  0  0  0  0  0
    4.5274   -1.5964    0.0000 C   0  0  0  0  0  0  0  0  0  0  0  0
    3.8129   -1.1839    0.0000 C   0  0  0  0  0  0  0  0  0  0  0  0
   -1.1884    0.8786    0.0000 C   0  0  0  0  0  0  0  0  0  0  0  0
   -0.4739    1.2911    0.0000 C   0  0  0  0  0  0  0  0  0  0  0  0
   -0.4739    2.1161    0.0000 C   0  0  0  0  0  0  0  0  0  0  0  0
    0.2406    2.5286    0.0000 C   0  0  0  0  0  0  0  0  0  0  0  0
    0.9550    2.1161    0.0000 C   0  0  0  0  0  0  0  0  0  0  0  0
    0.9550    1.2911    0.0000 C   0  0  0  0  0  0  0  0  0  0  0  0
    0.2406    0.8786    0.0000 C   0  0  0  0  0  0  0  0  0  0  0  0
   -1.1884   -0.5303    0.0000 H   0  0  0  0  0  0  0  0  0  0  0  0
    0.4493   -0.6508    0.0000 H   0  0  0  0  0  0  0  0  0  0  0  0
   -1.9028   -1.3434    0.0000 H   0  0  0  0  0  0  0  0  0  0  0  0
   -2.4052   -1.7189    0.0000 H   0  0  0  0  0  0  0  0  0  0  0  0
   -3.3318   -2.2539    0.0000 H   0  0  0  0  0  0  0  0  0  0  0  0
   -4.0463   -2.6664    0.0000 H   0  0  0  0  0  0  0  0  0  0  0  0
   -4.9730   -2.1314    0.0000 H   0  0  0  0  0  0  0  0  0  0  0  0
   -5.6874    0.1761    0.0000 H   0  0  0  0  0  0  0  0  0  0  0  0
   -4.7607    0.7111    0.0000 H   0  0  0  0  0  0  0  0  0  0  0  0
   -4.0463    1.1236    0.0000 H   0  0  0  0  0  0  0  0  0  0  0  0
   -4.9730    0.5886    0.0000 H   0  0  0  0  0  0  0  0  0  0  0  0
    0.2406    1.0381    0.0000 H   0  0  0  0  0  0  0  0  0  0  0  0
    0.0613   -1.6999    0.0000 H   0  0  0  0  0  0  0  0  0  0  0  0
    1.6695    1.1236    0.0000 H   0  0  0  0  0  0  0  0  0  0  0  0
    2.5961    0.5886    0.0000 H   0  0  0  0  0  0  0  0  0  0  0  0
    3.0985    1.1236    0.0000 H   0  0  0  0  0  0  0  0  0  0  0  0
    4.0252    0.5886    0.0000 H   0  0  0  0  0  0  0  0  0  0  0  0
    4.5274    1.0856    0.0000 H   0  0  0  0  0  0  0  0  0  0  0  0
    6.1356    0.1571    0.0000 H   0  0  0  0  0  0  0  0  0  0  0  0
    6.1356   -1.6999    0.0000 H   0  0  0  0  0  0  0  0  0  0  0  0
    4.5274   -2.6284    0.0000 H   0  0  0  0  0  0  0  0  0  0  0  0
    2.9192   -1.6999    0.0000 H   0  0  0  0  0  0  0  0  0  0  0  0
   -2.1150    1.4136    0.0000 H   0  0  0  0  0  0  0  0  0  0  0  0
   -1.1884    1.9486    0.0000 H   0  0  0  0  0  0  0  0  0  0  0  0
   -1.3676    2.6321    0.0000 H   0  0  0  0  0  0  0  0  0  0  0  0
    0.2406    3.5606    0.0000 H   0  0  0  0  0  0  0  0  0  0  0  0
    1.8487    2.6321    0.0000 H   0  0  0  0  0  0  0  0  0  0  0  0
    1.8487    0.7751    0.0000 H   0  0  0  0  0  0  0  0  0  0  0  0
    0.2406   -0.1534    0.0000 H   0  0  0  0  0  0  0  0  0  0  0  0
  1  2  1  0  0  0  0
  1 35  1  0  0  0  0
  2  3  2  0  0  0  0
  2  4  1  0  0  0  0
  4  5  1  0  0  0  0
  4  9  1  0  0  0  0
  5  6  1  0  0  0  0
  5 36  1  0  0  0  0
  5 37  1  0  0  0  0
  6  7  1  0  0  0  0
  6 38  1  0  0  0  0
  6 39  1  0  0  0  0
  7  8  1  0  0  0  0
  8  9  1  0  0  0  0
  8 40  1  0  0  0  0
  8 41  1  0  0  0  0
  9 42  1  0  0  0  0
  9 43  1  0  0  0  0
 10  1  1  0  0  0  0
 10 11  1  0  0  0  0
 10 26  1  0  0  0  0
 10 33  1  6  0  0  0
 11 12  2  0  0  0  0
 11 13  1  0  0  0  0
 13 44  1  0  0  0  0
 14 13  1  0  0  0  0
 14 15  1  0  0  0  0
 14 17  1  0  0  0  0
 14 34  1  6  0  0  0
 15 16  2  0  0  0  0
 15 45  1  0  0  0  0
 17 18  1  0  0  0  0
 17 46  1  0  0  0  0
 17 47  1  0  0  0  0
 18 19  1  0  0  0  0
 19 20  1  0  0  0  0
 19 48  1  0  0  0  0
 19 49  1  0  0  0  0
 20 21  2  0  0  0  0
 20 25  1  0  0  0  0
 21 22  1  0  0  0  0
 21 50  1  0  0  0  0
 22 23  2  0  0  0  0
 22 51  1  0  0  0  0
 23 24  1  0  0  0  0
 23 52  1  0  0  0  0
 24 25  2  0  0  0  0
 24 53  1  0  0  0  0
 25 54  1  0  0  0  0
 26 27  1  0  0  0  0
 26 55  1  0  0  0  0
 26 56  1  0  0  0  0
 27 28  2  0  0  0  0
 27 32  1  0  0  0  0
 28 29  1  0  0  0  0
 28 57  1  0  0  0  0
 29 30  2  0  0  0  0
 29 58  1  0  0  0  0
 30 31  1  0  0  0  0
 30 59  1  0  0  0  0
 31 32  2  0  0  0  0
 31 60  1  0  0  0  0
 32 61  1  0  0  0  0
M  END
>  <DRUGBANK_ID>
DB03984

>  <SECONDARY_ACCESSION_NUMBERS>
EXPT00813

>  <COMMON_NAME>
Morpholine-4-Carboxylic Acid [1-(2-Benzylsulfanyl-1-Formyl-Ethylcarbamoyl)-2-Phenyl-Ethyl]-Amide

$$$$
