
 OpenBabel10282417072D

 71 75  0  0  1  0  0  0  0  0999 V2000
    0.3339    6.2564    0.0000 C   0  0  0  0  0  0  0  0  0  0  0  0
   -0.3806    5.8439    0.0000 C   0  0  0  0  0  0  0  0  0  0  0  0
   -0.3806    5.0189    0.0000 O   0  0  0  0  0  0  0  0  0  0  0  0
   -1.0950    4.6064    0.0000 C   0  0  0  0  0  0  0  0  0  0  0  0
   -1.8095    5.0189    0.0000 O   0  0  0  0  0  0  0  0  0  0  0  0
   -1.0950    3.7814    0.0000 O   0  0  0  0  0  0  0  0  0  0  0  0
   -1.8095    3.3689    0.0000 C   0  0  1  0  0  0  0  0  0  0  0  0
   -2.5240    3.7814    0.0000 C   0  0  0  0  0  0  0  0  0  0  0  0
   -1.8095    2.5439    0.0000 N   0  0  0  0  0  0  0  0  0  0  0  0
   -1.1421    2.0590    0.0000 N   0  0  0  0  0  0  0  0  0  0  0  0
   -1.3970    1.2743    0.0000 N   0  0  0  0  0  0  0  0  0  0  0  0
   -2.2220    1.2743    0.0000 N   0  0  0  0  0  0  0  0  0  0  0  0
   -2.4769    2.0590    0.0000 C   0  0  0  0  0  0  0  0  0  0  0  0
   -3.2616    2.3139    0.0000 C   0  0  0  0  0  0  0  0  0  0  0  0
   -3.9290    1.8290    0.0000 C   0  0  0  0  0  0  0  0  0  0  0  0
   -4.5964    2.3139    0.0000 C   0  0  0  0  0  0  0  0  0  0  0  0
   -4.3415    3.0985    0.0000 N   0  0  0  0  0  0  0  0  0  0  0  0
   -3.5165    3.0985    0.0000 N   0  0  0  0  0  0  0  0  0  0  0  0
   -3.0316    3.7660    0.0000 C   0  0  0  0  0  0  0  0  0  0  0  0
   -3.9290    1.0040    0.0000 C   0  0  0  0  0  0  0  0  0  0  0  0
   -3.2145    0.5915    0.0000 C   0  0  0  0  0  0  0  0  0  0  0  0
   -3.2145   -0.2335    0.0000 C   0  0  0  0  0  0  0  0  0  0  0  0
   -3.9290   -0.6460    0.0000 C   0  0  0  0  0  0  0  0  0  0  0  0
   -4.6435   -0.2335    0.0000 C   0  0  0  0  0  0  0  0  0  0  0  0
   -4.6435    0.5915    0.0000 C   0  0  0  0  0  0  0  0  0  0  0  0
   -5.3579    1.0040    0.0000 F   0  0  0  0  0  0  0  0  0  0  0  0
   -3.9290   -1.4710    0.0000 C   0  0  0  0  0  0  0  0  0  0  0  0
   -4.6435   -1.8835    0.0000 O   0  0  0  0  0  0  0  0  0  0  0  0
   -3.2145   -1.8835    0.0000 N   0  0  0  0  0  0  0  0  0  0  0  0
   -3.2145   -2.7085    0.0000 C   0  0  2  0  0  0  0  0  0  0  0  0
   -2.5001   -3.1210    0.0000 C   0  0  0  0  0  0  0  0  0  0  0  0
   -2.5001   -3.9460    0.0000 C   0  0  0  0  0  0  0  0  0  0  0  0
   -3.2145   -4.3585    0.0000 C   0  0  0  0  0  0  0  0  0  0  0  0
   -3.9290   -3.9460    0.0000 N   0  0  0  0  0  0  0  0  0  0  0  0
   -3.9290   -3.1210    0.0000 C   0  0  0  0  0  0  0  0  0  0  0  0
   -2.5001   -1.4710    0.0000 C   0  0  0  0  0  0  0  0  0  0  0  0
   -2.5001   -0.6460    0.0000 N   0  0  0  0  0  0  0  0  0  0  0  0
   -1.7856   -0.2335    0.0000 C   0  0  0  0  0  0  0  0  0  0  0  0
   -1.0711   -0.6460    0.0000 C   0  0  0  0  0  0  0  0  0  0  0  0
   -1.0711   -1.4710    0.0000 C   0  0  0  0  0  0  0  0  0  0  0  0
   -1.7856   -1.8835    0.0000 C   0  0  0  0  0  0  0  0  0  0  0  0
   -1.7856   -2.7085    0.0000 Cl  0  0  0  0  0  0  0  0  0  0  0  0
    1.2605    5.7214    0.0000 H   0  0  0  0  0  0  0  0  0  0  0  0
    0.3339    7.3264    0.0000 H   0  0  0  0  0  0  0  0  0  0  0  0
    1.2606    6.7914    0.0000 H   0  0  0  0  0  0  0  0  0  0  0  0
   -1.3072    6.3789    0.0000 H   0  0  0  0  0  0  0  0  0  0  0  0
   -1.3072    5.3089    0.0000 H   0  0  0  0  0  0  0  0  0  0  0  0
   -1.8095    4.4389    0.0000 H   0  0  0  0  0  0  0  0  0  0  0  0
   -2.5240    4.8514    0.0000 H   0  0  0  0  0  0  0  0  0  0  0  0
   -3.4506    3.2464    0.0000 H   0  0  0  0  0  0  0  0  0  0  0  0
   -3.4507    4.3164    0.0000 H   0  0  0  0  0  0  0  0  0  0  0  0
   -5.5779    1.9950    0.0000 H   0  0  0  0  0  0  0  0  0  0  0  0
   -1.9675    3.6542    0.0000 H   0  0  0  0  0  0  0  0  0  0  0  0
   -3.4669    4.7435    0.0000 H   0  0  0  0  0  0  0  0  0  0  0  0
   -2.4027    4.6317    0.0000 H   0  0  0  0  0  0  0  0  0  0  0  0
   -2.3208    1.1075    0.0000 H   0  0  0  0  0  0  0  0  0  0  0  0
   -2.3208   -0.7495    0.0000 H   0  0  0  0  0  0  0  0  0  0  0  0
   -5.5372   -0.7495    0.0000 H   0  0  0  0  0  0  0  0  0  0  0  0
   -2.2878   -2.1735    0.0000 H   0  0  0  0  0  0  0  0  0  0  0  0
   -1.5734   -2.5860    0.0000 H   0  0  0  0  0  0  0  0  0  0  0  0
   -1.5735   -3.6560    0.0000 H   0  0  0  0  0  0  0  0  0  0  0  0
   -1.5734   -4.4810    0.0000 H   0  0  0  0  0  0  0  0  0  0  0  0
   -2.5001   -5.0160    0.0000 H   0  0  0  0  0  0  0  0  0  0  0  0
   -3.2145   -5.4285    0.0000 H   0  0  0  0  0  0  0  0  0  0  0  0
   -4.1411   -4.8935    0.0000 H   0  0  0  0  0  0  0  0  0  0  0  0
   -4.8123   -4.4560    0.0000 H   0  0  0  0  0  0  0  0  0  0  0  0
   -4.8556   -2.5860    0.0000 H   0  0  0  0  0  0  0  0  0  0  0  0
   -3.9290   -2.0510    0.0000 H   0  0  0  0  0  0  0  0  0  0  0  0
   -1.7856    0.7985    0.0000 H   0  0  0  0  0  0  0  0  0  0  0  0
   -0.1774   -0.1300    0.0000 H   0  0  0  0  0  0  0  0  0  0  0  0
   -0.1774   -1.9870    0.0000 H   0  0  0  0  0  0  0  0  0  0  0  0
  1  2  1  0  0  0  0
  1 43  1  0  0  0  0
  1 44  1  0  0  0  0
  1 45  1  0  0  0  0
  2  3  1  0  0  0  0
  2 46  1  0  0  0  0
  2 47  1  0  0  0  0
  3  4  1  0  0  0  0
  4  5  2  0  0  0  0
  4  6  1  0  0  0  0
  7  6  1  0  0  0  0
  7  8  1  0  0  0  0
  7  9  1  0  0  0  0
  7 48  1  1  0  0  0
  8 49  1  0  0  0  0
  8 50  1  0  0  0  0
  8 51  1  0  0  0  0
  9 10  1  0  0  0  0
  9 13  1  0  0  0  0
 10 11  2  0  0  0  0
 11 12  1  0  0  0  0
 12 13  2  0  0  0  0
 13 14  1  0  0  0  0
 14 15  2  0  0  0  0
 14 18  1  0  0  0  0
 15 16  1  0  0  0  0
 15 20  1  0  0  0  0
 16 17  2  0  0  0  0
 16 52  1  0  0  0  0
 17 18  1  0  0  0  0
 18 19  1  0  0  0  0
 19 53  1  0  0  0  0
 19 54  1  0  0  0  0
 19 55  1  0  0  0  0
 20 21  2  0  0  0  0
 20 25  1  0  0  0  0
 21 22  1  0  0  0  0
 21 56  1  0  0  0  0
 22 23  2  0  0  0  0
 22 57  1  0  0  0  0
 23 24  1  0  0  0  0
 23 27  1  0  0  0  0
 24 25  2  0  0  0  0
 24 58  1  0  0  0  0
 25 26  1  0  0  0  0
 27 28  2  0  0  0  0
 27 29  1  0  0  0  0
 29 36  1  0  0  0  0
 30 29  1  0  0  0  0
 30 31  1  0  0  0  0
 30 35  1  0  0  0  0
 30 59  1  1  0  0  0
 31 32  1  0  0  0  0
 31 60  1  0  0  0  0
 31 61  1  0  0  0  0
 32 33  1  0  0  0  0
 32 62  1  0  0  0  0
 32 63  1  0  0  0  0
 33 34  1  0  0  0  0
 33 64  1  0  0  0  0
 33 65  1  0  0  0  0
 34 35  1  0  0  0  0
 34 66  1  0  0  0  0
 35 67  1  0  0  0  0
 35 68  1  0  0  0  0
 36 37  2  0  0  0  0
 36 41  1  0  0  0  0
 37 38  1  0  0  0  0
 38 39  2  0  0  0  0
 38 69  1  0  0  0  0
 39 40  1  0  0  0  0
 39 70  1  0  0  0  0
 40 41  2  0  0  0  0
 40 71  1  0  0  0  0
 41 42  1  0  0  0  0
M  END
>  <DRUGBANK_ID>
DB14862

>  <COMMON_NAME>
PF-06815345

>  <CAS_NUMBER>
1900686-46-5

>  <UNII>
4H9X9HO87K

$$$$
