
 OpenBabel10282417072D

 42 40  0  0  0  0  0  0  0  0999 V2000
    1.5395   -1.2375    0.0000 C   0  0  0  0  0  0  0  0  0  0  0  0
    1.5395   -2.0625    0.0000 C   0  0  0  0  0  0  0  0  0  0  0  0
    2.2539   -2.4750    0.0000 N   0  0  0  0  0  0  0  0  0  0  0  0
    2.2539   -3.3000    0.0000 C   0  0  0  0  0  0  0  0  0  0  0  0
    1.5395   -3.7125    0.0000 P   0  0  3  0  0  0  0  0  0  0  0  0
    1.1270   -2.9980    0.0000 O   0  0  0  0  0  0  0  0  0  0  0  0
    1.9520   -4.4270    0.0000 O   0  0  0  0  0  0  0  0  0  0  0  0
    0.8250   -4.1250    0.0000 O   0  5  0  0  0  0  0  0  0  0  0  0
    2.9684   -2.0625    0.0000 C   0  0  0  0  0  0  0  0  0  0  0  0
    3.6829   -2.4750    0.0000 P   0  0  3  0  0  0  0  0  0  0  0  0
    4.0954   -1.7605    0.0000 O   0  0  0  0  0  0  0  0  0  0  0  0
    4.3974   -2.8875    0.0000 O   0  0  0  0  0  0  0  0  0  0  0  0
    3.2704   -3.1895    0.0000 O   0  5  0  0  0  0  0  0  0  0  0  0
    0.8250   -0.8250    0.0000 N   0  0  0  0  0  0  0  0  0  0  0  0
    0.1105   -1.2375    0.0000 C   0  0  0  0  0  0  0  0  0  0  0  0
   -0.6039   -0.8250    0.0000 P   0  0  0  0  0  0  0  0  0  0  0  0
   -0.1914   -0.1105    0.0000 O   0  0  0  0  0  0  0  0  0  0  0  0
   -1.3184   -0.4125    0.0000 O   0  0  0  0  0  0  0  0  0  0  0  0
   -1.0164   -1.5395    0.0000 O   0  0  0  0  0  0  0  0  0  0  0  0
    0.8250    0.0000    0.0000 C   0  0  0  0  0  0  0  0  0  0  0  0
    1.5395    0.4125    0.0000 P   0  0  3  0  0  0  0  0  0  0  0  0
    1.9520   -0.3020    0.0000 O   0  0  0  0  0  0  0  0  0  0  0  0
    1.1270    1.1270    0.0000 O   0  0  0  0  0  0  0  0  0  0  0  0
    2.2539    0.8250    0.0000 O   0  5  0  0  0  0  0  0  0  0  0  0
    0.1105   -4.5375    0.0000 Sm  0  1  0  0  0  0  0  0  0  0  0  0
    2.4661   -0.7025    0.0000 H   0  0  0  0  0  0  0  0  0  0  0  0
    1.5395   -0.1675    0.0000 H   0  0  0  0  0  0  0  0  0  0  0  0
    0.6128   -2.5975    0.0000 H   0  0  0  0  0  0  0  0  0  0  0  0
    1.5395   -3.1325    0.0000 H   0  0  0  0  0  0  0  0  0  0  0  0
    3.1806   -3.8350    0.0000 H   0  0  0  0  0  0  0  0  0  0  0  0
    2.2539   -4.3700    0.0000 H   0  0  0  0  0  0  0  0  0  0  0  0
    1.4670   -5.2670    0.0000 H   0  0  0  0  0  0  0  0  0  0  0  0
    2.9684   -0.9925    0.0000 H   0  0  0  0  0  0  0  0  0  0  0  0
    3.8950   -1.5275    0.0000 H   0  0  0  0  0  0  0  0  0  0  0  0
    4.3974   -3.8575    0.0000 H   0  0  0  0  0  0  0  0  0  0  0  0
    0.1105   -2.3075    0.0000 H   0  0  0  0  0  0  0  0  0  0  0  0
   -0.8162   -1.7725    0.0000 H   0  0  0  0  0  0  0  0  0  0  0  0
   -1.3184    0.5575    0.0000 H   0  0  0  0  0  0  0  0  0  0  0  0
   -1.9864   -1.5395    0.0000 H   0  0  0  0  0  0  0  0  0  0  0  0
   -0.1016    0.5350    0.0000 H   0  0  0  0  0  0  0  0  0  0  0  0
    0.8250    1.0700    0.0000 H   0  0  0  0  0  0  0  0  0  0  0  0
    1.6120    1.9670    0.0000 H   0  0  0  0  0  0  0  0  0  0  0  0
  1  2  1  0  0  0  0
  1 14  1  0  0  0  0
  1 26  1  0  0  0  0
  1 27  1  0  0  0  0
  2  3  1  0  0  0  0
  2 28  1  0  0  0  0
  2 29  1  0  0  0  0
  3  4  1  0  0  0  0
  3  9  1  0  0  0  0
  4  5  1  0  0  0  0
  4 30  1  0  0  0  0
  4 31  1  0  0  0  0
  5  6  2  0  0  0  0
  5  7  1  0  0  0  0
  5  8  1  0  0  0  0
  7 32  1  0  0  0  0
  9 10  1  0  0  0  0
  9 33  1  0  0  0  0
  9 34  1  0  0  0  0
 10 11  2  0  0  0  0
 10 12  1  0  0  0  0
 10 13  1  0  0  0  0
 12 35  1  0  0  0  0
 14 15  1  0  0  0  0
 14 20  1  0  0  0  0
 15 16  1  0  0  0  0
 15 36  1  0  0  0  0
 15 37  1  0  0  0  0
 16 17  2  0  0  0  0
 16 18  1  0  0  0  0
 16 19  1  0  0  0  0
 18 38  1  0  0  0  0
 19 39  1  0  0  0  0
 20 21  1  0  0  0  0
 20 40  1  0  0  0  0
 20 41  1  0  0  0  0
 21 22  2  0  0  0  0
 21 23  1  0  0  0  0
 21 24  1  0  0  0  0
 23 42  1  0  0  0  0
M  ISO  1  25 153
M  CHG  4   8  -1  13  -1  24  -1  25   3
M  END
>  <DRUGBANK_ID>
DB05273

>  <COMMON_NAME>
Samarium (153Sm) lexidronam

>  <CAS_NUMBER>
122575-21-7

>  <UNII>
745X144DZY

>  <SYNONYMS>
153SM-EDTMP; Samarium (153 Sm) lexidronam; Samarium (153Sm) lexidronam; Samarium Sm-153 lexidronam; Samarium-153 lexidronam; Samarium-153-EDTMP

$$$$
