8AP
 OpenBabel10282417072D

 28 29  0  0  0  0  0  0  0  0999 V2000
    2.3450   -0.0326    0.0000 N   0  0  0  0  0  0  0  0  0  0  0  0
    2.3450   -0.8576    0.0000 C   0  0  0  0  0  0  0  0  0  0  0  0
    3.0594   -1.2701    0.0000 N   0  0  0  0  0  0  0  0  0  0  0  0
    3.0594   -2.0951    0.0000 C   0  0  0  0  0  0  0  0  0  0  0  0
    2.3450   -2.5076    0.0000 C   0  0  0  0  0  0  0  0  0  0  0  0
    1.6305   -2.0951    0.0000 C   0  0  0  0  0  0  0  0  0  0  0  0
    1.6305   -1.2701    0.0000 C   0  0  0  0  0  0  0  0  0  0  0  0
    0.9160   -0.8576    0.0000 N   0  0  0  0  0  0  0  0  0  0  0  0
    0.2016   -1.2701    0.0000 C   0  0  0  0  0  0  0  0  0  0  0  0
   -0.5129   -0.8576    0.0000 C   0  0  0  0  0  0  0  0  0  0  0  0
   -1.2274   -1.2701    0.0000 C   0  0  0  0  0  0  0  0  0  0  0  0
   -1.9419   -0.8576    0.0000 C   0  0  0  0  0  0  0  0  0  0  0  0
   -1.9419   -0.0326    0.0000 C   0  0  0  0  0  0  0  0  0  0  0  0
   -1.2274    0.3799    0.0000 C   0  0  0  0  0  0  0  0  0  0  0  0
   -0.5129   -0.0326    0.0000 C   0  0  0  0  0  0  0  0  0  0  0  0
    3.1976    0.4597    0.0000 H   0  0  0  0  0  0  0  0  0  0  0  0
    1.4924    0.4596    0.0000 H   0  0  0  0  0  0  0  0  0  0  0  0
    3.9531   -2.6111    0.0000 H   0  0  0  0  0  0  0  0  0  0  0  0
    2.3450   -3.5396    0.0000 H   0  0  0  0  0  0  0  0  0  0  0  0
    0.7368   -2.6111    0.0000 H   0  0  0  0  0  0  0  0  0  0  0  0
    0.9160    0.1269    0.0000 H   0  0  0  0  0  0  0  0  0  0  0  0
    0.2016   -2.3401    0.0000 H   0  0  0  0  0  0  0  0  0  0  0  0
   -0.7250   -1.8051    0.0000 H   0  0  0  0  0  0  0  0  0  0  0  0
   -1.2274   -2.3021    0.0000 H   0  0  0  0  0  0  0  0  0  0  0  0
   -2.8356   -1.3736    0.0000 H   0  0  0  0  0  0  0  0  0  0  0  0
   -2.8356    0.4834    0.0000 H   0  0  0  0  0  0  0  0  0  0  0  0
   -1.2274    1.4119    0.0000 H   0  0  0  0  0  0  0  0  0  0  0  0
    0.3808    0.4834    0.0000 H   0  0  0  0  0  0  0  0  0  0  0  0
  1  2  1  0  0  0  0
  1 16  1  0  0  0  0
  1 17  1  0  0  0  0
  2  3  2  0  0  0  0
  2  7  1  0  0  0  0
  3  4  1  0  0  0  0
  4  5  2  0  0  0  0
  4 18  1  0  0  0  0
  5  6  1  0  0  0  0
  5 19  1  0  0  0  0
  6  7  2  0  0  0  0
  6 20  1  0  0  0  0
  7  8  1  0  0  0  0
  8  9  1  0  0  0  0
  8 21  1  0  0  0  0
  9 10  1  0  0  0  0
  9 22  1  0  0  0  0
  9 23  1  0  0  0  0
 10 11  1  0  0  0  0
 10 15  2  0  0  0  0
 11 12  2  0  0  0  0
 11 24  1  0  0  0  0
 12 13  1  0  0  0  0
 12 25  1  0  0  0  0
 13 14  2  0  0  0  0
 13 26  1  0  0  0  0
 14 15  1  0  0  0  0
 14 27  1  0  0  0  0
 15 28  1  0  0  0  0
M  END
>  <DRUGBANK_ID>
DB07281

>  <COMMON_NAME>
N~3~-BENZYLPYRIDINE-2,3-DIAMINE

$$$$
