
 OpenBabel10282417072D

 80 84  0  0  1  0  0  0  0  0999 V2000
    4.9470   -0.2655    0.0000 C   0  0  0  0  0  0  0  0  0  0  0  0
   -2.2135    4.2815    0.0000 C   0  0  0  0  0  0  0  0  0  0  0  0
    1.3609   -3.3368    0.0000 C   0  0  0  0  0  0  0  0  0  0  0  0
   -3.0215    2.3887    0.0000 C   0  0  0  0  0  0  0  0  0  0  0  0
    2.0754   -2.9243    0.0000 C   0  0  0  0  0  0  0  0  0  0  0  0
    0.6464   -2.9243    0.0000 C   0  0  0  0  0  0  0  0  0  0  0  0
   -3.4863    1.7071    0.0000 C   0  0  0  0  0  0  0  0  0  0  0  0
   -2.1988    2.3271    0.0000 C   0  0  0  0  0  0  0  0  0  0  0  0
    2.0754   -2.0993    0.0000 C   0  0  0  0  0  0  0  0  0  0  0  0
    0.6464   -2.0993    0.0000 C   0  0  0  0  0  0  0  0  0  0  0  0
   -3.1283    0.9638    0.0000 C   0  0  0  0  0  0  0  0  0  0  0  0
   -1.8409    1.5838    0.0000 C   0  0  0  0  0  0  0  0  0  0  0  0
    1.9981   -0.6553    0.0000 C   0  0  0  0  0  0  0  0  0  0  0  0
    0.0034    2.2982    0.0000 C   0  0  0  0  0  0  0  0  0  0  0  0
    2.6431   -1.1697    0.0000 C   0  0  0  0  0  0  0  0  0  0  0  0
    0.3614    3.0415    0.0000 C   0  0  0  0  0  0  0  0  0  0  0  0
    1.3609   -0.8618    0.0000 C   0  0  0  0  0  0  0  0  0  0  0  0
    2.8890    0.4619    0.0000 C   0  0  0  0  0  0  0  0  0  0  0  0
   -1.2840    2.9182    0.0000 C   0  0  0  0  0  0  0  0  0  0  0  0
   -1.9477    0.1588    0.0000 C   0  0  0  0  0  0  0  0  0  0  0  0
    1.4760    0.6748    0.0000 C   0  0  0  0  0  0  0  0  0  0  0  0
   -1.1772    1.4933    0.0000 C   0  0  0  0  0  0  0  0  0  0  0  0
   -0.8236   -0.6708    0.0000 C   0  0  0  0  0  0  0  0  0  0  0  0
    1.3609   -1.6868    0.0000 C   0  0  0  0  0  0  0  0  0  0  0  0
   -2.3056    0.9021    0.0000 C   0  0  0  0  0  0  0  0  0  0  0  0
    2.1211    0.1605    0.0000 C   0  0  0  0  0  0  0  0  0  0  0  0
   -0.8193    2.2366    0.0000 C   0  0  0  0  0  0  0  0  0  0  0  0
    0.6464   -0.4493    0.0000 C   0  0  2  0  0  0  0  0  0  0  0  0
    3.4111   -0.8683    0.0000 C   0  0  0  0  0  0  0  0  0  0  0  0
   -0.1034    3.7232    0.0000 C   0  0  0  0  0  0  0  0  0  0  0  0
   -0.0352   -0.9140    0.0000 C   0  0  2  0  0  0  0  0  0  0  0  0
    3.5340   -0.0525    0.0000 C   0  0  0  0  0  0  0  0  0  0  0  0
   -0.9260    3.6615    0.0000 C   0  0  0  0  0  0  0  0  0  0  0  0
    0.1033    0.9346    0.0000 C   0  0  0  0  0  0  0  0  0  0  0  0
   -1.1250    0.0972    0.0000 N   0  0  0  0  0  0  0  0  0  0  0  0
    0.7081    0.3734    0.0000 N   0  0  0  0  0  0  0  0  0  0  0  0
   -0.7125    0.8116    0.0000 N   0  0  0  0  0  0  0  0  0  0  0  0
    4.0561   -1.3827    0.0000 O   0  0  0  0  0  0  0  0  0  0  0  0
    0.2546    4.4665    0.0000 O   0  0  0  0  0  0  0  0  0  0  0  0
    0.0877   -1.7298    0.0000 O   0  0  0  0  0  0  0  0  0  0  0  0
    0.3465    1.7229    0.0000 O   0  0  0  0  0  0  0  0  0  0  0  0
    4.3020    0.2489    0.0000 O   0  0  0  0  0  0  0  0  0  0  0  0
   -1.3908    4.3432    0.0000 O   0  0  0  0  0  0  0  0  0  0  0  0
    0.6773   -1.2737    0.0000 H   0  0  0  0  0  0  0  0  0  0  0  0
   -0.6606   -1.4521    0.0000 H   0  0  0  0  0  0  0  0  0  0  0  0
    4.7875   -1.3235    0.0000 H   0  0  0  0  0  0  0  0  0  0  0  0
    5.9430    0.1254    0.0000 H   0  0  0  0  0  0  0  0  0  0  0  0
    5.7835   -0.9327    0.0000 H   0  0  0  0  0  0  0  0  0  0  0  0
   -2.8163    5.1655    0.0000 H   0  0  0  0  0  0  0  0  0  0  0  0
   -2.6777    3.3174    0.0000 H   0  0  0  0  0  0  0  0  0  0  0  0
   -3.2805    4.2015    0.0000 H   0  0  0  0  0  0  0  0  0  0  0  0
    1.3609   -4.3688    0.0000 H   0  0  0  0  0  0  0  0  0  0  0  0
   -3.4693    3.3185    0.0000 H   0  0  0  0  0  0  0  0  0  0  0  0
    2.9691   -3.4403    0.0000 H   0  0  0  0  0  0  0  0  0  0  0  0
   -0.2473   -3.4403    0.0000 H   0  0  0  0  0  0  0  0  0  0  0  0
   -4.5154    1.7842    0.0000 H   0  0  0  0  0  0  0  0  0  0  0  0
   -1.6175    3.1798    0.0000 H   0  0  0  0  0  0  0  0  0  0  0  0
    2.9691   -1.5833    0.0000 H   0  0  0  0  0  0  0  0  0  0  0  0
   -0.2473   -1.5833    0.0000 H   0  0  0  0  0  0  0  0  0  0  0  0
   -3.7096    0.1111    0.0000 H   0  0  0  0  0  0  0  0  0  0  0  0
   -0.8118    1.5067    0.0000 H   0  0  0  0  0  0  0  0  0  0  0  0
    1.0374   -1.0323    0.0000 H   0  0  0  0  0  0  0  0  0  0  0  0
    0.5847    1.4455    0.0000 H   0  0  0  0  0  0  0  0  0  0  0  0
    2.4893   -2.1902    0.0000 H   0  0  0  0  0  0  0  0  0  0  0  0
    1.3905    3.1186    0.0000 H   0  0  0  0  0  0  0  0  0  0  0  0
    2.2875   -0.3268    0.0000 H   0  0  0  0  0  0  0  0  0  0  0  0
    1.3609    0.2082    0.0000 H   0  0  0  0  0  0  0  0  0  0  0  0
    3.0428    1.4824    0.0000 H   0  0  0  0  0  0  0  0  0  0  0  0
   -2.3131    2.8411    0.0000 H   0  0  0  0  0  0  0  0  0  0  0  0
   -2.5505   -0.7253    0.0000 H   0  0  0  0  0  0  0  0  0  0  0  0
   -1.4834   -0.8052    0.0000 H   0  0  0  0  0  0  0  0  0  0  0  0
    1.6354    1.7329    0.0000 H   0  0  0  0  0  0  0  0  0  0  0  0
    0.6394    1.3419    0.0000 H   0  0  0  0  0  0  0  0  0  0  0  0
   -2.2442    1.4133    0.0000 H   0  0  0  0  0  0  0  0  0  0  0  0
   -1.6415    0.5293    0.0000 H   0  0  0  0  0  0  0  0  0  0  0  0
   -1.5514   -1.4552    0.0000 H   0  0  0  0  0  0  0  0  0  0  0  0
   -1.8749   -0.4719    0.0000 H   0  0  0  0  0  0  0  0  0  0  0  0
    3.9164   -2.3092    0.0000 H   0  0  0  0  0  0  0  0  0  0  0  0
    1.1890    4.5365    0.0000 H   0  0  0  0  0  0  0  0  0  0  0  0
   -0.6707   -2.3345    0.0000 H   0  0  0  0  0  0  0  0  0  0  0  0
  1 46  1  0  0  0  0
  1 47  1  0  0  0  0
  1 48  1  0  0  0  0
  2 49  1  0  0  0  0
  2 50  1  0  0  0  0
  2 51  1  0  0  0  0
  3 52  1  0  0  0  0
  4 53  1  0  0  0  0
  5  3  2  0  0  0  0
  5 54  1  0  0  0  0
  6  3  1  0  0  0  0
  6 55  1  0  0  0  0
  7  4  2  0  0  0  0
  7 56  1  0  0  0  0
  8  4  1  0  0  0  0
  8 57  1  0  0  0  0
  9  5  1  0  0  0  0
  9 58  1  0  0  0  0
 10  6  2  0  0  0  0
 10 59  1  0  0  0  0
 11  7  1  0  0  0  0
 11 60  1  0  0  0  0
 12  8  2  0  0  0  0
 12 61  1  0  0  0  0
 13 62  1  0  0  0  0
 14 63  1  0  0  0  0
 15 13  2  0  0  0  0
 15 64  1  0  0  0  0
 16 14  2  0  0  0  0
 16 65  1  0  0  0  0
 17 66  1  0  0  0  0
 17 67  1  0  0  0  0
 18 68  1  0  0  0  0
 19 69  1  0  0  0  0
 20 70  1  0  0  0  0
 20 71  1  0  0  0  0
 21 72  1  0  0  0  0
 21 73  1  0  0  0  0
 22 74  1  0  0  0  0
 22 75  1  0  0  0  0
 23 76  1  0  0  0  0
 23 77  1  0  0  0  0
 24  9  2  0  0  0  0
 24 10  1  0  0  0  0
 24 17  1  0  0  0  0
 25 11  2  0  0  0  0
 25 12  1  0  0  0  0
 25 20  1  0  0  0  0
 26 13  1  0  0  0  0
 26 18  2  0  0  0  0
 26 21  1  0  0  0  0
 27 14  1  0  0  0  0
 27 19  2  0  0  0  0
 27 22  1  0  0  0  0
 28 17  1  0  0  0  0
 28 44  1  1  0  0  0
 29 15  1  0  0  0  0
 30 16  1  0  0  0  0
 31 23  1  0  0  0  0
 31 28  1  0  0  0  0
 31 40  1  0  0  0  0
 31 45  1  1  0  0  0
 32 18  1  0  0  0  0
 32 29  2  0  0  0  0
 33 19  1  0  0  0  0
 33 30  2  0  0  0  0
 35 20  1  0  0  0  0
 35 23  1  0  0  0  0
 36 21  1  0  0  0  0
 36 28  1  0  0  0  0
 36 34  1  0  0  0  0
 37 22  1  0  0  0  0
 37 34  1  0  0  0  0
 37 35  1  0  0  0  0
 38 29  1  0  0  0  0
 38 78  1  0  0  0  0
 39 30  1  0  0  0  0
 39 79  1  0  0  0  0
 40 80  1  0  0  0  0
 41 34  2  0  0  0  0
 42  1  1  0  0  0  0
 42 32  1  0  0  0  0
 43  2  1  0  0  0  0
 43 33  1  0  0  0  0
M  END
>  <DRUGBANK_ID>
DB02804

>  <SECONDARY_ACCESSION_NUMBERS>
EXPT00377

>  <COMMON_NAME>
A-98881

$$$$
