
 OpenBabel10282417072D

 37 38  0  0  1  0  0  0  0  0999 V2000
   -3.0677   -3.1317    0.0000 N   0  0  0  0  0  0  0  0  0  0  0  0
   -2.3532   -2.7192    0.0000 C   0  0  0  0  0  0  0  0  0  0  0  0
   -1.6387   -3.1317    0.0000 C   0  0  0  0  0  0  0  0  0  0  0  0
   -0.9243   -2.7192    0.0000 O   0  0  0  0  0  0  0  0  0  0  0  0
   -0.2098   -3.1317    0.0000 N   0  0  0  0  0  0  0  0  0  0  0  0
    0.5047   -2.7192    0.0000 C   0  0  0  0  0  0  0  0  0  0  0  0
    0.5047   -1.8942    0.0000 O   0  0  0  0  0  0  0  0  0  0  0  0
    1.2192   -3.1317    0.0000 C   0  0  2  0  0  0  0  0  0  0  0  0
    1.1575   -3.9544    0.0000 C   0  0  0  0  0  0  0  0  0  0  0  0
    1.7623   -4.5156    0.0000 C   0  0  0  0  0  0  0  0  0  0  0  0
    2.5781   -4.3926    0.0000 C   0  0  2  0  0  0  0  0  0  0  0  0
    2.4551   -3.4452    0.0000 C   0  0  0  0  0  0  0  0  0  0  0  0
    1.9008   -2.6670    0.0000 N   0  0  0  0  0  0  0  0  0  0  0  0
    2.6891   -2.9102    0.0000 C   0  0  0  0  0  0  0  0  0  0  0  0
    3.2503   -2.3054    0.0000 O   0  0  0  0  0  0  0  0  0  0  0  0
    2.9906   -3.6782    0.0000 N   0  0  0  0  0  0  0  0  0  0  0  0
    3.8132   -3.7398    0.0000 O   0  0  0  0  0  0  0  0  0  0  0  0
    4.2780   -3.0582    0.0000 S   0  0  0  0  0  0  0  0  0  0  0  0
    4.7427   -2.3765    0.0000 O   0  0  0  0  0  0  0  0  0  0  0  0
    4.9596   -3.5229    0.0000 O   0  0  0  0  0  0  0  0  0  0  0  0
    3.5963   -2.5934    0.0000 O   0  0  0  0  0  0  0  0  0  0  0  0
   -3.9510   -2.6217    0.0000 H   0  0  0  0  0  0  0  0  0  0  0  0
   -3.0677   -4.1517    0.0000 H   0  0  0  0  0  0  0  0  0  0  0  0
   -2.3532   -1.6492    0.0000 H   0  0  0  0  0  0  0  0  0  0  0  0
   -1.4266   -2.1842    0.0000 H   0  0  0  0  0  0  0  0  0  0  0  0
   -1.6387   -4.2017    0.0000 H   0  0  0  0  0  0  0  0  0  0  0  0
   -0.7120   -3.6667    0.0000 H   0  0  0  0  0  0  0  0  0  0  0  0
   -0.2098   -4.1162    0.0000 H   0  0  0  0  0  0  0  0  0  0  0  0
    0.2732   -3.6317    0.0000 H   0  0  0  0  0  0  0  0  0  0  0  0
    0.1614   -4.3453    0.0000 H   0  0  0  0  0  0  0  0  0  0  0  0
    0.9585   -5.0057    0.0000 H   0  0  0  0  0  0  0  0  0  0  0  0
    1.4469   -5.5381    0.0000 H   0  0  0  0  0  0  0  0  0  0  0  0
    2.4603   -5.3266    0.0000 H   0  0  0  0  0  0  0  0  0  0  0  0
    1.7237   -3.7484    0.0000 H   0  0  0  0  0  0  0  0  0  0  0  0
    3.4511   -3.0543    0.0000 H   0  0  0  0  0  0  0  0  0  0  0  0
    2.7600   -2.4196    0.0000 H   0  0  0  0  0  0  0  0  0  0  0  0
    5.7100   -2.4489    0.0000 H   0  0  0  0  0  0  0  0  0  0  0  0
  1  2  1  0  0  0  0
  1 22  1  0  0  0  0
  1 23  1  0  0  0  0
  2  3  1  0  0  0  0
  2 24  1  0  0  0  0
  2 25  1  0  0  0  0
  3  4  1  0  0  0  0
  3 26  1  0  0  0  0
  3 27  1  0  0  0  0
  4  5  1  0  0  0  0
  5  6  1  0  0  0  0
  5 28  1  0  0  0  0
  6  7  2  0  0  0  0
  8  6  1  0  0  0  0
  8  9  1  0  0  0  0
  8 13  1  0  0  0  0
  8 29  1  6  0  0  0
  9 10  1  0  0  0  0
  9 30  1  0  0  0  0
  9 31  1  0  0  0  0
 10 32  1  0  0  0  0
 10 33  1  0  0  0  0
 11 10  1  0  0  0  0
 11 12  1  0  0  0  0
 11 16  1  0  0  0  0
 11 34  1  1  0  0  0
 12 35  1  0  0  0  0
 12 36  1  0  0  0  0
 13 12  1  0  0  0  0
 13 14  1  0  0  0  0
 14 15  2  0  0  0  0
 14 16  1  0  0  0  0
 16 17  1  0  0  0  0
 17 18  1  0  0  0  0
 18 19  1  0  0  0  0
 18 20  2  0  0  0  0
 18 21  2  0  0  0  0
 19 37  1  0  0  0  0
M  END
>  <DRUGBANK_ID>
DB15353

>  <COMMON_NAME>
Nacubactam

>  <CAS_NUMBER>
1452458-86-4

>  <UNII>
832O37V7MZ

>  <SYNONYMS>
Nacubactam

$$$$
