754
 OpenBabel10282417072D

 27 28  0  0  1  0  0  0  0  0999 V2000
    4.2559    0.1222    0.0000 O   0  0  0  0  0  0  0  0  0  0  0  0
    1.9065    1.8292    0.0000 O   0  0  0  0  0  0  0  0  0  0  0  0
    3.2164    1.1617    0.0000 N   0  0  0  0  0  0  0  0  0  0  0  0
    2.1365    0.3771    0.0000 N   0  0  0  0  0  0  0  0  0  0  0  0
    2.8039   -0.1078    0.0000 C   0  0  3  0  0  0  0  0  0  0  0  0
    3.4714    0.3771    0.0000 C   0  0  0  0  0  0  0  0  0  0  0  0
    2.8039   -0.9328    0.0000 C   0  0  0  0  0  0  0  0  0  0  0  0
    2.3914    1.1617    0.0000 C   0  0  0  0  0  0  0  0  0  0  0  0
    3.7014    1.8292    0.0000 C   0  0  0  0  0  0  0  0  0  0  0  0
    3.5184   -1.3453    0.0000 C   0  0  0  0  0  0  0  0  0  0  0  0
    2.0894   -1.3453    0.0000 C   0  0  0  0  0  0  0  0  0  0  0  0
    3.3658    2.5828    0.0000 C   0  0  0  0  0  0  0  0  0  0  0  0
    3.5184   -2.1703    0.0000 C   0  0  0  0  0  0  0  0  0  0  0  0
    2.0894   -2.1703    0.0000 C   0  0  0  0  0  0  0  0  0  0  0  0
    2.8039   -2.5828    0.0000 C   0  0  0  0  0  0  0  0  0  0  0  0
    1.2002    0.0729    0.0000 H   0  0  0  0  0  0  0  0  0  0  0  0
    2.8039    0.9622    0.0000 H   0  0  0  0  0  0  0  0  0  0  0  0
    4.7655    1.7174    0.0000 H   0  0  0  0  0  0  0  0  0  0  0  0
    4.3303    2.6949    0.0000 H   0  0  0  0  0  0  0  0  0  0  0  0
    4.4121   -0.8293    0.0000 H   0  0  0  0  0  0  0  0  0  0  0  0
    1.1957   -0.8293    0.0000 H   0  0  0  0  0  0  0  0  0  0  0  0
    3.9947    3.4485    0.0000 H   0  0  0  0  0  0  0  0  0  0  0  0
    2.3017    2.6946    0.0000 H   0  0  0  0  0  0  0  0  0  0  0  0
    2.9305    3.5603    0.0000 H   0  0  0  0  0  0  0  0  0  0  0  0
    4.4121   -2.6863    0.0000 H   0  0  0  0  0  0  0  0  0  0  0  0
    1.1957   -2.6863    0.0000 H   0  0  0  0  0  0  0  0  0  0  0  0
    2.8039   -3.6148    0.0000 H   0  0  0  0  0  0  0  0  0  0  0  0
  1  6  2  0  0  0  0
  2  8  2  0  0  0  0
  3  6  1  0  0  0  0
  3  8  1  0  0  0  0
  3  9  1  0  0  0  0
  4  5  1  0  0  0  0
  4  8  1  0  0  0  0
  4 16  1  0  0  0  0
  5  6  1  0  0  0  0
  5  7  1  0  0  0  0
  5 17  1  0  0  0  0
  7 10  2  0  0  0  0
  7 11  1  0  0  0  0
  9 12  1  0  0  0  0
  9 18  1  0  0  0  0
  9 19  1  0  0  0  0
 10 13  1  0  0  0  0
 10 20  1  0  0  0  0
 11 14  2  0  0  0  0
 11 21  1  0  0  0  0
 12 22  1  0  0  0  0
 12 23  1  0  0  0  0
 12 24  1  0  0  0  0
 13 15  2  0  0  0  0
 13 25  1  0  0  0  0
 14 15  1  0  0  0  0
 14 26  1  0  0  0  0
 15 27  1  0  0  0  0
M  END
>  <DRUGBANK_ID>
DB00754

>  <SECONDARY_ACCESSION_NUMBERS>
APRD00962

>  <COMMON_NAME>
Ethotoin

>  <CAS_NUMBER>
86-35-1

>  <UNII>
46QG38NC4U

>  <SYNONYMS>
(±)-3-ethyl-5-phenylhydantoin; 1-ethyl-2,5-dioxo-4-phenylimidazolidine; 3-ethyl-5-phenyl-2,4-imidazolidinedione; 3-Ethyl-5-phenyl-imidazolidine-2,4-dione; 3-ethyl-5-phenylhydantoin; 3-ethyl-5-phenylimidazolidin-2,4-dione; Ethotoin; Ethotoïne; Ethotoinum; Etotoina

$$$$
