405
 OpenBabel10282417072D

 38 39  0  0  1  0  0  0  0  0999 V2000
    3.7935   -2.8876    0.0000 Br  0  0  0  0  0  0  0  0  0  0  0  0
    2.3645    2.0625    0.0000 N   0  0  0  0  0  0  0  0  0  0  0  0
    4.5080    1.6500    0.0000 N   0  0  0  0  0  0  0  0  0  0  0  0
    3.7935    0.4125    0.0000 C   0  0  1  0  0  0  0  0  0  0  0  0
    3.0791    0.8250    0.0000 C   0  0  0  0  0  0  0  0  0  0  0  0
    3.0791    1.6500    0.0000 C   0  0  0  0  0  0  0  0  0  0  0  0
    3.7935   -0.4125    0.0000 C   0  0  0  0  0  0  0  0  0  0  0  0
    4.5080    0.8250    0.0000 C   0  0  0  0  0  0  0  0  0  0  0  0
    4.5080   -0.8250    0.0000 C   0  0  0  0  0  0  0  0  0  0  0  0
    3.0791   -0.8250    0.0000 C   0  0  0  0  0  0  0  0  0  0  0  0
    5.2224    0.4125    0.0000 C   0  0  0  0  0  0  0  0  0  0  0  0
    1.6500    1.6500    0.0000 C   0  0  0  0  0  0  0  0  0  0  0  0
    2.3645    2.8876    0.0000 C   0  0  0  0  0  0  0  0  0  0  0  0
    4.5080   -1.6500    0.0000 C   0  0  0  0  0  0  0  0  0  0  0  0
    3.0791   -1.6500    0.0000 C   0  0  0  0  0  0  0  0  0  0  0  0
    5.9370    0.8250    0.0000 C   0  0  0  0  0  0  0  0  0  0  0  0
    3.7935   -2.0625    0.0000 C   0  0  0  0  0  0  0  0  0  0  0  0
    5.2224    2.0625    0.0000 C   0  0  0  0  0  0  0  0  0  0  0  0
    5.9370    1.6500    0.0000 C   0  0  0  0  0  0  0  0  0  0  0  0
    2.8668   -0.1225    0.0000 H   0  0  0  0  0  0  0  0  0  0  0  0
    2.1524    0.2900    0.0000 H   0  0  0  0  0  0  0  0  0  0  0  0
    2.1525    1.3600    0.0000 H   0  0  0  0  0  0  0  0  0  0  0  0
    4.0057    2.1850    0.0000 H   0  0  0  0  0  0  0  0  0  0  0  0
    4.0058    1.1150    0.0000 H   0  0  0  0  0  0  0  0  0  0  0  0
    5.4017   -0.3090    0.0000 H   0  0  0  0  0  0  0  0  0  0  0  0
    2.1854   -0.3090    0.0000 H   0  0  0  0  0  0  0  0  0  0  0  0
    5.2223   -0.6195    0.0000 H   0  0  0  0  0  0  0  0  0  0  0  0
    0.7234    2.1850    0.0000 H   0  0  0  0  0  0  0  0  0  0  0  0
    1.6500    0.5800    0.0000 H   0  0  0  0  0  0  0  0  0  0  0  0
    0.7233    1.1150    0.0000 H   0  0  0  0  0  0  0  0  0  0  0  0
    3.2911    3.4226    0.0000 H   0  0  0  0  0  0  0  0  0  0  0  0
    1.4379    3.4226    0.0000 H   0  0  0  0  0  0  0  0  0  0  0  0
    2.3645    3.9576    0.0000 H   0  0  0  0  0  0  0  0  0  0  0  0
    5.4017   -2.1660    0.0000 H   0  0  0  0  0  0  0  0  0  0  0  0
    2.1854   -2.1660    0.0000 H   0  0  0  0  0  0  0  0  0  0  0  0
    6.8307    0.3090    0.0000 H   0  0  0  0  0  0  0  0  0  0  0  0
    5.2223    3.0945    0.0000 H   0  0  0  0  0  0  0  0  0  0  0  0
    6.8307    2.1660    0.0000 H   0  0  0  0  0  0  0  0  0  0  0  0
  1 17  1  0  0  0  0
  2  6  1  0  0  0  0
  2 12  1  0  0  0  0
  2 13  1  0  0  0  0
  3  8  1  0  0  0  0
  3 18  2  0  0  0  0
  4  5  1  0  0  0  0
  4  7  1  0  0  0  0
  4  8  1  0  0  0  0
  4 20  1  1  0  0  0
  5  6  1  0  0  0  0
  5 21  1  0  0  0  0
  5 22  1  0  0  0  0
  6 23  1  0  0  0  0
  6 24  1  0  0  0  0
  7  9  2  0  0  0  0
  7 10  1  0  0  0  0
  8 11  2  0  0  0  0
  9 14  1  0  0  0  0
  9 25  1  0  0  0  0
 10 15  2  0  0  0  0
 10 26  1  0  0  0  0
 11 16  1  0  0  0  0
 11 27  1  0  0  0  0
 12 28  1  0  0  0  0
 12 29  1  0  0  0  0
 12 30  1  0  0  0  0
 13 31  1  0  0  0  0
 13 32  1  0  0  0  0
 13 33  1  0  0  0  0
 14 17  2  0  0  0  0
 14 34  1  0  0  0  0
 15 17  1  0  0  0  0
 15 35  1  0  0  0  0
 16 19  2  0  0  0  0
 16 36  1  0  0  0  0
 18 19  1  0  0  0  0
 18 37  1  0  0  0  0
 19 38  1  0  0  0  0
M  END
>  <DRUGBANK_ID>
DB00405

>  <SECONDARY_ACCESSION_NUMBERS>
APRD00770

>  <COMMON_NAME>
Dexbrompheniramine

>  <CAS_NUMBER>
132-21-8

>  <UNII>
75T64B71RP

>  <SYNONYMS>
(+)-brompheniraminum; (R)-3-(4-Bromophenyl)-3-(2-pyridyl)propyldimethylamine; (S)-(+)-brompheniramine; (S)-brompheniramine; 3-(4-bromophenyl)- N,N-dimethyl- 3-pyridin-2-yl-propan-1-amine; d-brompheniramine; Desbrofeniramina; Dexbromfeniramina; Dexbrompheniramin; Dexbromph√©niramine; Dexbrompheniramine; Dexbrompheniraminum

$$$$
