
 OpenBabel10282417072D

 23 23  0  0  0  0  0  0  0  0999 V2000
   -0.3572    1.6500    0.0000 C   0  0  0  0  0  0  0  0  0  0  0  0
   -0.3572    0.8250    0.0000 C   0  0  0  0  0  0  0  0  0  0  0  0
    0.3571    0.4124    0.0000 C   0  0  0  0  0  0  0  0  0  0  0  0
    0.3571   -0.4125    0.0000 C   0  0  0  0  0  0  0  0  0  0  0  0
    1.0716   -0.8250    0.0000 C   0  0  0  0  0  0  0  0  0  0  0  0
    1.0716   -1.6500    0.0000 C   0  0  0  0  0  0  0  0  0  0  0  0
    0.3571   -2.0625    0.0000 C   0  0  0  0  0  0  0  0  0  0  0  0
   -0.3572   -1.6500    0.0000 C   0  0  0  0  0  0  0  0  0  0  0  0
   -0.3572   -0.8250    0.0000 C   0  0  0  0  0  0  0  0  0  0  0  0
   -1.0716    2.0625    0.0000 N   0  0  0  0  0  0  0  0  0  0  0  0
    0.5695    2.1850    0.0000 H   0  0  0  0  0  0  0  0  0  0  0  0
   -0.3572    2.7200    0.0000 H   0  0  0  0  0  0  0  0  0  0  0  0
   -1.2839    0.2901    0.0000 H   0  0  0  0  0  0  0  0  0  0  0  0
   -0.3574   -0.2450    0.0000 H   0  0  0  0  0  0  0  0  0  0  0  0
    1.2838    0.9473    0.0000 H   0  0  0  0  0  0  0  0  0  0  0  0
    1.2837   -0.1226    0.0000 H   0  0  0  0  0  0  0  0  0  0  0  0
    1.9653   -0.3090    0.0000 H   0  0  0  0  0  0  0  0  0  0  0  0
    1.9653   -2.1660    0.0000 H   0  0  0  0  0  0  0  0  0  0  0  0
    0.3570   -3.0945    0.0000 H   0  0  0  0  0  0  0  0  0  0  0  0
   -1.2510   -2.1660    0.0000 H   0  0  0  0  0  0  0  0  0  0  0  0
   -1.2510   -0.3090    0.0000 H   0  0  0  0  0  0  0  0  0  0  0  0
   -1.0716    3.0825    0.0000 H   0  0  0  0  0  0  0  0  0  0  0  0
   -1.9550    1.5525    0.0000 H   0  0  0  0  0  0  0  0  0  0  0  0
  1  2  1  0  0  0  0
  1 10  1  0  0  0  0
  1 11  1  0  0  0  0
  1 12  1  0  0  0  0
  2  3  1  0  0  0  0
  2 13  1  0  0  0  0
  2 14  1  0  0  0  0
  3 15  1  0  0  0  0
  3 16  1  0  0  0  0
  4  3  1  0  0  0  0
  4  5  2  0  0  0  0
  4  9  1  0  0  0  0
  5  6  1  0  0  0  0
  5 17  1  0  0  0  0
  6  7  2  0  0  0  0
  6 18  1  0  0  0  0
  7  8  1  0  0  0  0
  7 19  1  0  0  0  0
  8  9  2  0  0  0  0
  8 20  1  0  0  0  0
  9 21  1  0  0  0  0
 10 22  1  0  0  0  0
 10 23  1  0  0  0  0
M  END
>  <DRUGBANK_ID>
DB04410

>  <SECONDARY_ACCESSION_NUMBERS>
EXPT02655

>  <COMMON_NAME>
3-Phenylpropylamine

>  <CAS_NUMBER>
2038-57-5

>  <UNII>
P8326EZ31P

>  <SYNONYMS>
3-phenyl-1-aminopropane; 3-phenyl-1-propylamine; 3-phenyl-N-propylamine; 3-phenylpropanamine; benzenepropanamine; gamma-phenyl-n-propylamine; gamma-phenylpropylamine; hydrocinnamylamine

$$$$
