
 OpenBabel10282417072D

 80 84  0  0  1  0  0  0  0  0999 V2000
    8.2393    4.2185    0.0000 C   0  0  0  0  0  0  0  0  0  0  0  0
    9.2881    1.2375    0.0000 C   0  0  0  0  0  0  0  0  0  0  0  0
    8.5737   -1.6500    0.0000 C   0  0  0  0  0  0  0  0  0  0  0  0
    7.1447   -1.6500    0.0000 C   0  0  0  0  0  0  0  0  0  0  0  0
    2.8579    0.8250    0.0000 C   0  0  0  0  0  0  0  0  0  0  0  0
    7.8592    4.5375    0.0000 C   0  0  0  0  0  0  0  0  0  0  0  0
    7.4269    4.0752    0.0000 C   0  0  0  0  0  0  0  0  0  0  0  0
    1.4289    3.3000    0.0000 C   0  0  0  0  0  0  0  0  0  0  0  0
    2.1434    3.7125    0.0000 C   0  0  0  0  0  0  0  0  0  0  0  0
    1.4289    2.4750    0.0000 C   0  0  0  0  0  0  0  0  0  0  0  0
    7.1447    0.0000    0.0000 C   0  0  0  0  0  0  0  0  0  0  0  0
    7.1447    2.4750    0.0000 C   0  0  0  0  0  0  0  0  0  0  0  0
    8.5737    0.8250    0.0000 C   0  0  1  0  0  0  0  0  0  0  0  0
    2.8579    3.3000    0.0000 C   0  0  0  0  0  0  0  0  0  0  0  0
    7.8592   -0.4125    0.0000 C   0  0  1  0  0  0  0  0  0  0  0  0
    2.1434    2.0625    0.0000 C   0  0  0  0  0  0  0  0  0  0  0  0
    6.4302    2.0625    0.0000 C   0  0  1  0  0  0  0  0  0  0  0  0
    7.1447    0.8250    0.0000 C   0  0  1  0  0  0  0  0  0  0  0  0
    2.8579    2.4750    0.0000 C   0  0  0  0  0  0  0  0  0  0  0  0
    5.7158    2.4750    0.0000 C   0  0  0  0  0  0  0  0  0  0  0  0
    5.7158    3.3000    0.0000 C   0  0  0  0  0  0  0  0  0  0  0  0
    4.2868    3.3000    0.0000 C   0  0  0  0  0  0  0  0  0  0  0  0
    4.2868    2.4750    0.0000 C   0  0  0  0  0  0  0  0  0  0  0  0
    6.4302    3.7125    0.0000 C   0  0  1  0  0  0  0  0  0  0  0  0
    8.5737    0.0000    0.0000 C   0  0  2  0  0  0  0  0  0  0  0  0
    3.5724    3.7125    0.0000 C   0  0  0  0  0  0  0  0  0  0  0  0
    3.5724    2.0625    0.0000 C   0  0  0  0  0  0  0  0  0  0  0  0
    5.0013    2.0625    0.0000 C   0  0  0  0  0  0  0  0  0  0  0  0
    5.0013    3.7125    0.0000 C   0  0  0  0  0  0  0  0  0  0  0  0
    6.4302    4.5375    0.0000 C   0  0  0  0  0  0  0  0  0  0  0  0
    7.1447    3.3000    0.0000 C   0  0  1  0  0  0  0  0  0  0  0  0
    7.8592   -1.2375    0.0000 N   0  0  0  0  0  0  0  0  0  0  0  0
    9.2881   -0.4125    0.0000 O   0  0  0  0  0  0  0  0  0  0  0  0
    3.5724    4.5375    0.0000 O   0  0  0  0  0  0  0  0  0  0  0  0
    3.5724    1.2375    0.0000 O   0  0  0  0  0  0  0  0  0  0  0  0
    5.0013    1.2375    0.0000 O   0  0  0  0  0  0  0  0  0  0  0  0
    5.0013    4.5375    0.0000 O   0  0  0  0  0  0  0  0  0  0  0  0
    5.7158    4.9500    0.0000 O   0  0  0  0  0  0  0  0  0  0  0  0
    7.9572    3.1567    0.0000 O   0  0  0  0  0  0  0  0  0  0  0  0
    2.1434    1.2375    0.0000 O   0  0  0  0  0  0  0  0  0  0  0  0
    7.1447    4.9500    0.0000 O   0  0  0  0  0  0  0  0  0  0  0  0
    7.8592    1.2375    0.0000 O   0  0  0  0  0  0  0  0  0  0  0  0
    6.4302    1.2375    0.0000 O   0  0  0  0  0  0  0  0  0  0  0  0
    9.3861    0.6817    0.0000 H   0  0  0  0  0  0  0  0  0  0  0  0
    7.1447   -0.8250    0.0000 H   0  0  0  0  0  0  0  0  0  0  0  0
    7.1447    1.6500    0.0000 H   0  0  0  0  0  0  0  0  0  0  0  0
    6.4302    0.4125    0.0000 H   0  0  0  0  0  0  0  0  0  0  0  0
    5.7158    4.1250    0.0000 H   0  0  0  0  0  0  0  0  0  0  0  0
    9.3861    0.1433    0.0000 H   0  0  0  0  0  0  0  0  0  0  0  0
    8.9271    3.3989    0.0000 H   0  0  0  0  0  0  0  0  0  0  0  0
    8.6052    5.2240    0.0000 H   0  0  0  0  0  0  0  0  0  0  0  0
    9.2930    4.4044    0.0000 H   0  0  0  0  0  0  0  0  0  0  0  0
   10.2148    0.7025    0.0000 H   0  0  0  0  0  0  0  0  0  0  0  0
    9.2881    2.3075    0.0000 H   0  0  0  0  0  0  0  0  0  0  0  0
   10.2147    1.7725    0.0000 H   0  0  0  0  0  0  0  0  0  0  0  0
    8.5737   -2.7200    0.0000 H   0  0  0  0  0  0  0  0  0  0  0  0
    9.5003   -1.1150    0.0000 H   0  0  0  0  0  0  0  0  0  0  0  0
    9.5004   -2.1850    0.0000 H   0  0  0  0  0  0  0  0  0  0  0  0
    6.2181   -1.1150    0.0000 H   0  0  0  0  0  0  0  0  0  0  0  0
    7.1447   -2.7200    0.0000 H   0  0  0  0  0  0  0  0  0  0  0  0
    6.2180   -2.1850    0.0000 H   0  0  0  0  0  0  0  0  0  0  0  0
    2.8579   -0.2450    0.0000 H   0  0  0  0  0  0  0  0  0  0  0  0
    3.7845    1.3600    0.0000 H   0  0  0  0  0  0  0  0  0  0  0  0
    3.7846    0.2900    0.0000 H   0  0  0  0  0  0  0  0  0  0  0  0
    7.8592    3.4675    0.0000 H   0  0  0  0  0  0  0  0  0  0  0  0
    8.7858    5.0725    0.0000 H   0  0  0  0  0  0  0  0  0  0  0  0
    8.7859    4.0025    0.0000 H   0  0  0  0  0  0  0  0  0  0  0  0
    6.7391    4.8949    0.0000 H   0  0  0  0  0  0  0  0  0  0  0  0
    6.3732    3.8894    0.0000 H   0  0  0  0  0  0  0  0  0  0  0  0
    0.5352    3.8160    0.0000 H   0  0  0  0  0  0  0  0  0  0  0  0
    2.1434    4.7445    0.0000 H   0  0  0  0  0  0  0  0  0  0  0  0
    0.5352    1.9590    0.0000 H   0  0  0  0  0  0  0  0  0  0  0  0
    6.2181   -0.5350    0.0000 H   0  0  0  0  0  0  0  0  0  0  0  0
    6.2181    0.5350    0.0000 H   0  0  0  0  0  0  0  0  0  0  0  0
    8.0713    1.9400    0.0000 H   0  0  0  0  0  0  0  0  0  0  0  0
    8.0713    3.0100    0.0000 H   0  0  0  0  0  0  0  0  0  0  0  0
    9.2881   -1.3825    0.0000 H   0  0  0  0  0  0  0  0  0  0  0  0
    4.1898    0.7690    0.0000 H   0  0  0  0  0  0  0  0  0  0  0  0
    5.8128    5.0060    0.0000 H   0  0  0  0  0  0  0  0  0  0  0  0
    8.2889    2.2452    0.0000 H   0  0  0  0  0  0  0  0  0  0  0  0
  1 50  1  0  0  0  0
  1 51  1  0  0  0  0
  1 52  1  0  0  0  0
  2 53  1  0  0  0  0
  2 54  1  0  0  0  0
  2 55  1  0  0  0  0
  3 56  1  0  0  0  0
  3 57  1  0  0  0  0
  3 58  1  0  0  0  0
  4 59  1  0  0  0  0
  4 60  1  0  0  0  0
  4 61  1  0  0  0  0
  5 62  1  0  0  0  0
  5 63  1  0  0  0  0
  5 64  1  0  0  0  0
  6 65  1  0  0  0  0
  6 66  1  0  0  0  0
  6 67  1  0  0  0  0
  7  1  1  0  0  0  0
  7 68  1  0  0  0  0
  7 69  1  0  0  0  0
  8 70  1  0  0  0  0
  9  8  2  0  0  0  0
  9 71  1  0  0  0  0
 10  8  1  0  0  0  0
 10 72  1  0  0  0  0
 11 73  1  0  0  0  0
 11 74  1  0  0  0  0
 12 75  1  0  0  0  0
 12 76  1  0  0  0  0
 13  2  1  0  0  0  0
 13 44  1  6  0  0  0
 14  9  1  0  0  0  0
 15 11  1  0  0  0  0
 15 32  1  0  0  0  0
 15 45  1  6  0  0  0
 16 10  2  0  0  0  0
 17 12  1  0  0  0  0
 17 43  1  0  0  0  0
 17 46  1  1  0  0  0
 18 11  1  0  0  0  0
 18 43  1  0  0  0  0
 18 47  1  1  0  0  0
 19 14  2  0  0  0  0
 19 16  1  0  0  0  0
 20 17  1  0  0  0  0
 21 20  1  0  0  0  0
 23 22  2  0  0  0  0
 24 21  1  0  0  0  0
 24 30  1  0  0  0  0
 24 48  1  6  0  0  0
 25 13  1  0  0  0  0
 25 15  1  0  0  0  0
 25 33  1  0  0  0  0
 25 49  1  6  0  0  0
 26 14  1  0  0  0  0
 26 22  1  0  0  0  0
 27 19  1  0  0  0  0
 27 23  1  0  0  0  0
 28 20  2  0  0  0  0
 28 23  1  0  0  0  0
 29 21  2  0  0  0  0
 29 22  1  0  0  0  0
 31  7  1  0  0  0  0
 31 12  1  0  0  0  0
 31 24  1  0  0  0  0
 31 39  1  6  0  0  0
 32  3  1  0  0  0  0
 32  4  1  0  0  0  0
 33 77  1  0  0  0  0
 34 26  2  0  0  0  0
 35 27  2  0  0  0  0
 36 28  1  0  0  0  0
 36 78  1  0  0  0  0
 37 29  1  0  0  0  0
 37 79  1  0  0  0  0
 38 30  2  0  0  0  0
 39 80  1  0  0  0  0
 40  5  1  0  0  0  0
 40 16  1  0  0  0  0
 41  6  1  0  0  0  0
 41 30  1  0  0  0  0
 42 13  1  0  0  0  0
 42 18  1  0  0  0  0
M  END
>  <DRUGBANK_ID>
DB03199

>  <SECONDARY_ACCESSION_NUMBERS>
EXPT01358

>  <COMMON_NAME>
4-Methoxy-E-Rhodomycin T

$$$$
