164
 OpenBabel10282417072D

 29 29  0  0  0  0  0  0  0  0999 V2000
   -2.4034    0.4108    0.0000 O   0  0  0  0  0  0  0  0  0  0  0  0
   -1.6889   -0.0017    0.0000 C   0  0  0  0  0  0  0  0  0  0  0  0
   -1.6889   -0.8267    0.0000 O   0  0  0  0  0  0  0  0  0  0  0  0
   -0.9744    0.4108    0.0000 C   0  0  1  0  0  0  0  0  0  0  0  0
   -0.9744    1.2358    0.0000 C   0  0  1  0  0  0  0  0  0  0  0  0
   -0.2600    1.6483    0.0000 C   0  0  0  0  0  0  0  0  0  0  0  0
    0.4545    1.2358    0.0000 C   0  0  0  0  0  0  0  0  0  0  0  0
    0.4545    0.4108    0.0000 C   0  0  0  0  0  0  0  0  0  0  0  0
   -1.6889    1.6483    0.0000 O   0  0  0  0  0  0  0  0  0  0  0  0
   -0.2600   -0.0017    0.0000 C   0  0  0  0  0  0  0  0  0  0  0  0
   -0.2600   -0.8267    0.0000 C   0  0  0  0  0  0  0  0  0  0  0  0
   -0.9744   -1.2392    0.0000 O   0  0  0  0  0  0  0  0  0  0  0  0
    0.4545   -1.2392    0.0000 C   0  0  0  0  0  0  0  0  0  0  0  0
    1.1690   -0.8267    0.0000 C   0  0  0  0  0  0  0  0  0  0  0  0
    1.8835   -1.2392    0.0000 C   0  0  0  0  0  0  0  0  0  0  0  0
    2.5979   -0.8267    0.0000 O   0  0  0  0  0  0  0  0  0  0  0  0
    1.8835   -2.0642    0.0000 O   0  0  0  0  0  0  0  0  0  0  0  0
   -1.5495    0.5122    0.0000 H   0  0  0  0  0  0  0  0  0  0  0  0
   -1.5495    1.1344    0.0000 H   0  0  0  0  0  0  0  0  0  0  0  0
   -2.5004   -1.2952    0.0000 H   0  0  0  0  0  0  0  0  0  0  0  0
   -0.2600    2.6803    0.0000 H   0  0  0  0  0  0  0  0  0  0  0  0
    1.3482    1.7518    0.0000 H   0  0  0  0  0  0  0  0  0  0  0  0
    1.3482   -0.1052    0.0000 H   0  0  0  0  0  0  0  0  0  0  0  0
   -1.6889    2.6183    0.0000 H   0  0  0  0  0  0  0  0  0  0  0  0
    0.4545   -2.3092    0.0000 H   0  0  0  0  0  0  0  0  0  0  0  0
    1.3811   -1.7742    0.0000 H   0  0  0  0  0  0  0  0  0  0  0  0
    1.1690    0.2433    0.0000 H   0  0  0  0  0  0  0  0  0  0  0  0
    2.0956   -0.2917    0.0000 H   0  0  0  0  0  0  0  0  0  0  0  0
    3.4094   -1.2952    0.0000 H   0  0  0  0  0  0  0  0  0  0  0  0
  1  2  2  0  0  0  0
  2  3  1  0  0  0  0
  3 20  1  0  0  0  0
  4  2  1  0  0  0  0
  4  5  1  0  0  0  0
  4 10  1  0  0  0  0
  4 18  1  6  0  0  0
  5  6  1  0  0  0  0
  5  9  1  0  0  0  0
  5 19  1  1  0  0  0
  6  7  2  0  0  0  0
  6 21  1  0  0  0  0
  7  8  1  0  0  0  0
  7 22  1  0  0  0  0
  8 10  2  0  0  0  0
  8 23  1  0  0  0  0
  9 24  1  0  0  0  0
 10 11  1  0  0  0  0
 11 12  2  0  0  0  0
 11 13  1  0  0  0  0
 13 14  1  0  0  0  0
 13 25  1  0  0  0  0
 13 26  1  0  0  0  0
 14 15  1  0  0  0  0
 14 27  1  0  0  0  0
 14 28  1  0  0  0  0
 15 16  1  0  0  0  0
 15 17  2  0  0  0  0
 16 29  1  0  0  0  0
M  END
>  <DRUGBANK_ID>
DB06864

>  <COMMON_NAME>
2-(3-CARBOXYPROPIONYL)-6-HYDROXY-CYCLOHEXA-2,4-DIENE CARBOXYLIC ACID

$$$$
