
 OpenBabel10282417072D

 38 37  0  0  0  0  0  0  0  0999 V2000
    3.9298    1.0313    0.0000 S   0  0  0  0  0  0  0  0  0  0  0  0
   -1.7862    1.0313    0.0000 O   0  0  0  0  0  0  0  0  0  0  0  0
   -3.9298   -0.2062    0.0000 O   0  0  0  0  0  0  0  0  0  0  0  0
   -1.0718   -1.0313    0.0000 O   0  0  0  0  0  0  0  0  0  0  0  0
    1.7862   -1.0313    0.0000 O   0  0  0  0  0  0  0  0  0  0  0  0
   -0.3571    0.2062    0.0000 N   0  0  0  0  0  0  0  0  0  0  0  0
    2.5008    0.2062    0.0000 N   0  0  0  0  0  0  0  0  0  0  0  0
   -2.5008   -0.2062    0.0000 C   0  0  0  0  0  0  0  0  0  0  0  0
   -1.7862    0.2062    0.0000 C   0  0  2  0  0  0  0  0  0  0  0  0
   -3.2152   -0.6187    0.0000 C   0  0  0  0  0  0  0  0  0  0  0  0
   -2.9133    0.5082    0.0000 C   0  0  0  0  0  0  0  0  0  0  0  0
   -2.0883   -0.9208    0.0000 C   0  0  0  0  0  0  0  0  0  0  0  0
   -1.0718   -0.2062    0.0000 C   0  0  0  0  0  0  0  0  0  0  0  0
    0.3572   -0.2062    0.0000 C   0  0  0  0  0  0  0  0  0  0  0  0
    1.0718    0.2062    0.0000 C   0  0  0  0  0  0  0  0  0  0  0  0
    1.7862   -0.2062    0.0000 C   0  0  0  0  0  0  0  0  0  0  0  0
    3.2153   -0.2062    0.0000 C   0  0  0  0  0  0  0  0  0  0  0  0
    3.9298    0.2062    0.0000 C   0  0  0  0  0  0  0  0  0  0  0  0
   -0.3571    0.7178    0.0000 H   0  0  0  0  0  0  0  0  0  0  0  0
    2.5008    0.7178    0.0000 H   0  0  0  0  0  0  0  0  0  0  0  0
    5.1076    1.7113    0.0000 H   0  0  0  0  0  0  0  0  0  0  0  0
   -0.9462    1.5163    0.0000 H   0  0  0  0  0  0  0  0  0  0  0  0
   -3.9299    0.7638    0.0000 H   0  0  0  0  0  0  0  0  0  0  0  0
   -2.7128    0.7413    0.0000 H   0  0  0  0  0  0  0  0  0  0  0  0
   -3.2151   -1.6887    0.0000 H   0  0  0  0  0  0  0  0  0  0  0  0
   -2.2885   -1.1537    0.0000 H   0  0  0  0  0  0  0  0  0  0  0  0
   -2.3783    1.4349    0.0000 H   0  0  0  0  0  0  0  0  0  0  0  0
   -3.9833    0.5082    0.0000 H   0  0  0  0  0  0  0  0  0  0  0  0
   -3.4483    1.4348    0.0000 H   0  0  0  0  0  0  0  0  0  0  0  0
   -2.6234   -1.8474    0.0000 H   0  0  0  0  0  0  0  0  0  0  0  0
   -1.0183   -0.9209    0.0000 H   0  0  0  0  0  0  0  0  0  0  0  0
   -1.5534   -1.8475    0.0000 H   0  0  0  0  0  0  0  0  0  0  0  0
    0.3571   -1.2762    0.0000 H   0  0  0  0  0  0  0  0  0  0  0  0
    1.2838   -0.7413    0.0000 H   0  0  0  0  0  0  0  0  0  0  0  0
    1.0719    1.2762    0.0000 H   0  0  0  0  0  0  0  0  0  0  0  0
    1.9984    0.7412    0.0000 H   0  0  0  0  0  0  0  0  0  0  0  0
    3.2153   -1.2382    0.0000 H   0  0  0  0  0  0  0  0  0  0  0  0
    4.8235   -0.3099    0.0000 H   0  0  0  0  0  0  0  0  0  0  0  0
  1 18  1  0  0  0  0
  1 21  1  0  0  0  0
  2 22  1  0  0  0  0
  3 10  1  0  0  0  0
  3 23  1  0  0  0  0
  4 13  2  0  0  0  0
  5 16  2  0  0  0  0
  6 13  1  0  0  0  0
  6 14  1  0  0  0  0
  6 19  1  0  0  0  0
  7 16  1  0  0  0  0
  7 17  1  0  0  0  0
  7 20  1  0  0  0  0
  8  9  1  0  0  0  0
  8 10  1  0  0  0  0
  8 11  1  0  0  0  0
  8 12  1  0  0  0  0
  9  2  1  0  0  0  0
  9 13  1  0  0  0  0
  9 24  1  6  0  0  0
 10 25  1  0  0  0  0
 10 26  1  0  0  0  0
 11 27  1  0  0  0  0
 11 28  1  0  0  0  0
 11 29  1  0  0  0  0
 12 30  1  0  0  0  0
 12 31  1  0  0  0  0
 12 32  1  0  0  0  0
 14 15  1  0  0  0  0
 14 33  1  0  0  0  0
 14 34  1  0  0  0  0
 15 16  1  0  0  0  0
 15 35  1  0  0  0  0
 15 36  1  0  0  0  0
 17 18  2  0  0  0  0
 17 37  1  0  0  0  0
 18 38  1  0  0  0  0
M  END
>  <DRUGBANK_ID>
DB03738

>  <SECONDARY_ACCESSION_NUMBERS>
EXPT02522

>  <COMMON_NAME>
Pantothenoylaminoethenethiol

>  <SYNONYMS>
2,4-Dihydroxy-N-[2-(2-mercapto-vinylcarbamoyl)-ethyl]-3,3-dimethyl-butyramide

$$$$
