194
 OpenBabel10282417072D

 45 47  0  0  0  0  0  0  0  0999 V2000
   -1.5933    1.4385    0.0000 C   0  0  0  0  0  0  0  0  0  0  0  0
   -0.8788    1.0260    0.0000 C   0  0  0  0  0  0  0  0  0  0  0  0
   -0.8788    0.2010    0.0000 C   0  0  0  0  0  0  0  0  0  0  0  0
   -1.5933   -0.2115    0.0000 C   0  0  0  0  0  0  0  0  0  0  0  0
   -2.3078    0.2010    0.0000 C   0  0  0  0  0  0  0  0  0  0  0  0
   -2.3078    1.0260    0.0000 C   0  0  0  0  0  0  0  0  0  0  0  0
   -3.0222    1.4385    0.0000 C   0  0  0  0  0  0  0  0  0  0  0  0
   -3.7367    1.0260    0.0000 O   0  0  0  0  0  0  0  0  0  0  0  0
   -3.0222    2.2635    0.0000 O   0  0  0  0  0  0  0  0  0  0  0  0
   -3.0222   -0.2115    0.0000 C   0  0  0  0  0  0  0  0  0  0  0  0
   -3.7367    0.2010    0.0000 O   0  0  0  0  0  0  0  0  0  0  0  0
   -3.0222   -1.0365    0.0000 O   0  0  0  0  0  0  0  0  0  0  0  0
   -0.1644   -0.2115    0.0000 O   0  0  0  0  0  0  0  0  0  0  0  0
   -0.1644   -1.0365    0.0000 C   0  0  0  0  0  0  0  0  0  0  0  0
    0.5501   -1.4490    0.0000 C   0  0  0  0  0  0  0  0  0  0  0  0
    0.5501   -2.2740    0.0000 C   0  0  0  0  0  0  0  0  0  0  0  0
   -0.1644   -2.6865    0.0000 C   0  0  0  0  0  0  0  0  0  0  0  0
   -0.8788   -2.2740    0.0000 C   0  0  0  0  0  0  0  0  0  0  0  0
   -0.8788   -1.4490    0.0000 C   0  0  0  0  0  0  0  0  0  0  0  0
    1.2646   -1.0365    0.0000 N   0  0  0  0  0  0  0  0  0  0  0  0
    1.2646   -0.2115    0.0000 C   0  0  0  0  0  0  0  0  0  0  0  0
    0.5501    0.2010    0.0000 O   0  0  0  0  0  0  0  0  0  0  0  0
    1.9791    0.2010    0.0000 C   0  0  0  0  0  0  0  0  0  0  0  0
    1.9791    1.0260    0.0000 C   0  0  0  0  0  0  0  0  0  0  0  0
    2.6935    1.4385    0.0000 C   0  0  0  0  0  0  0  0  0  0  0  0
    3.4080    1.0260    0.0000 C   0  0  0  0  0  0  0  0  0  0  0  0
    3.4080    0.2010    0.0000 C   0  0  0  0  0  0  0  0  0  0  0  0
    2.6935   -0.2115    0.0000 C   0  0  0  0  0  0  0  0  0  0  0  0
    2.6935    2.2635    0.0000 N   0  3  0  0  0  0  0  0  0  0  0  0
    3.4080    2.6760    0.0000 O   0  5  0  0  0  0  0  0  0  0  0  0
    1.9791    2.6760    0.0000 O   0  0  0  0  0  0  0  0  0  0  0  0
   -1.5933    2.4705    0.0000 H   0  0  0  0  0  0  0  0  0  0  0  0
    0.0149    1.5420    0.0000 H   0  0  0  0  0  0  0  0  0  0  0  0
   -1.5933   -1.2435    0.0000 H   0  0  0  0  0  0  0  0  0  0  0  0
   -4.5482    1.4945    0.0000 H   0  0  0  0  0  0  0  0  0  0  0  0
   -3.7367    1.1380    0.0000 H   0  0  0  0  0  0  0  0  0  0  0  0
    1.4438   -2.7900    0.0000 H   0  0  0  0  0  0  0  0  0  0  0  0
   -0.1644   -3.7185    0.0000 H   0  0  0  0  0  0  0  0  0  0  0  0
   -1.7725   -2.7900    0.0000 H   0  0  0  0  0  0  0  0  0  0  0  0
   -1.7725   -0.9330    0.0000 H   0  0  0  0  0  0  0  0  0  0  0  0
    2.1172   -1.5288    0.0000 H   0  0  0  0  0  0  0  0  0  0  0  0
    1.0854    1.5420    0.0000 H   0  0  0  0  0  0  0  0  0  0  0  0
    4.3017    1.5420    0.0000 H   0  0  0  0  0  0  0  0  0  0  0  0
    4.3017   -0.3150    0.0000 H   0  0  0  0  0  0  0  0  0  0  0  0
    2.6935   -1.2435    0.0000 H   0  0  0  0  0  0  0  0  0  0  0  0
  1  2  2  0  0  0  0
  1  6  1  0  0  0  0
  1 32  1  0  0  0  0
  2  3  1  0  0  0  0
  2 33  1  0  0  0  0
  3  4  2  0  0  0  0
  3 13  1  0  0  0  0
  4  5  1  0  0  0  0
  4 34  1  0  0  0  0
  5  6  2  0  0  0  0
  5 10  1  0  0  0  0
  6  7  1  0  0  0  0
  7  8  1  0  0  0  0
  7  9  2  0  0  0  0
  8 35  1  0  0  0  0
 10 11  1  0  0  0  0
 10 12  2  0  0  0  0
 11 36  1  0  0  0  0
 13 14  1  0  0  0  0
 14 15  2  0  0  0  0
 14 19  1  0  0  0  0
 15 16  1  0  0  0  0
 15 20  1  0  0  0  0
 16 17  2  0  0  0  0
 16 37  1  0  0  0  0
 17 18  1  0  0  0  0
 17 38  1  0  0  0  0
 18 19  2  0  0  0  0
 18 39  1  0  0  0  0
 19 40  1  0  0  0  0
 20 21  1  0  0  0  0
 20 41  1  0  0  0  0
 21 22  2  0  0  0  0
 21 23  1  0  0  0  0
 23 24  2  0  0  0  0
 23 28  1  0  0  0  0
 24 25  1  0  0  0  0
 24 42  1  0  0  0  0
 25 26  2  0  0  0  0
 25 29  1  0  0  0  0
 26 27  1  0  0  0  0
 26 43  1  0  0  0  0
 27 28  2  0  0  0  0
 27 44  1  0  0  0  0
 28 45  1  0  0  0  0
 29 30  1  0  0  0  0
 29 31  2  0  0  0  0
M  CHG  2  29   1  30  -1
M  END
>  <DRUGBANK_ID>
DB04044

>  <SECONDARY_ACCESSION_NUMBERS>
EXPT00061

>  <COMMON_NAME>
4-{2-[(3-Nitrobenzoyl)Amino]Phenoxy}Phthalic Acid

$$$$
