
 OpenBabel10282417072D

 83 86  0  0  0  0  0  0  0  0999 V2000
   -2.4804    2.9827    0.0000 C   0  0  0  0  0  0  0  0  0  0  0  0
   -1.6554    2.9827    0.0000 C   0  0  0  0  0  0  0  0  0  0  0  0
   -1.3986    3.7669    0.0000 C   0  0  0  0  0  0  0  0  0  0  0  0
   -2.0678    4.2536    0.0000 N   0  0  0  0  0  0  0  0  0  0  0  0
   -2.7328    3.7669    0.0000 C   0  0  0  0  0  0  0  0  0  0  0  0
   -1.1712    2.3147    0.0000 N   0  0  0  0  0  0  0  0  0  0  0  0
   -0.3469    2.3161    0.0000 C   0  0  0  0  0  0  0  0  0  0  0  0
    0.0667    1.6023    0.0000 C   0  0  0  0  0  0  0  0  0  0  0  0
    0.0642    3.0313    0.0000 O   0  0  0  0  0  0  0  0  0  0  0  0
   -0.2658    0.8488    0.0000 N   0  0  0  0  0  0  0  0  0  0  0  0
    0.3481    0.2977    0.0000 C   0  0  0  0  0  0  0  0  0  0  0  0
    1.0621    0.7115    0.0000 C   0  0  0  0  0  0  0  0  0  0  0  0
    0.8890    1.5181    0.0000 C   0  0  0  0  0  0  0  0  0  0  0  0
    1.8163    0.3772    0.0000 N   0  0  0  0  0  0  0  0  0  0  0  0
    2.3987    0.9661    0.0000 C   0  0  0  0  0  0  0  0  0  0  0  0
    3.1968    0.7569    0.0000 C   0  0  0  0  0  0  0  0  0  0  0  0
    2.1810    1.7618    0.0000 O   0  0  0  0  0  0  0  0  0  0  0  0
    3.4967   -0.0089    0.0000 C   0  0  0  0  0  0  0  0  0  0  0  0
    4.3202    0.0387    0.0000 C   0  0  0  0  0  0  0  0  0  0  0  0
    4.5295    0.8368    0.0000 C   0  0  0  0  0  0  0  0  0  0  0  0
    3.8351    1.2822    0.0000 N   0  0  0  0  0  0  0  0  0  0  0  0
    4.8429   -0.5996    0.0000 N   0  0  0  0  0  0  0  0  0  0  0  0
    5.6654   -0.5963    0.0000 C   0  0  0  0  0  0  0  0  0  0  0  0
    6.0808   -1.3091    0.0000 C   0  0  0  0  0  0  0  0  0  0  0  0
    6.0752    0.1197    0.0000 O   0  0  0  0  0  0  0  0  0  0  0  0
    5.7498   -2.0614    0.0000 C   0  0  0  0  0  0  0  0  0  0  0  0
    6.3650   -2.6110    0.0000 C   0  0  0  0  0  0  0  0  0  0  0  0
    7.0780   -2.1957    0.0000 C   0  0  0  0  0  0  0  0  0  0  0  0
    6.9032   -1.3894    0.0000 N   0  0  0  0  0  0  0  0  0  0  0  0
    6.2821   -3.4318    0.0000 N   0  0  0  0  0  0  0  0  0  0  0  0
    6.9904   -3.8421    0.0000 C   0  0  0  0  0  0  0  0  0  0  0  0
    6.9892   -4.6671    0.0000 C   0  0  0  0  0  0  0  0  0  0  0  0
    7.7056   -3.4306    0.0000 O   0  0  0  0  0  0  0  0  0  0  0  0
    6.2743   -5.0786    0.0000 C   0  0  0  0  0  0  0  0  0  0  0  0
    7.6988   -5.0755    0.0000 Br  0  0  0  0  0  0  0  0  0  0  0  0
    7.4516   -0.7732    0.0000 C   0  0  0  0  0  0  0  0  0  0  0  0
    3.7863    2.1057    0.0000 C   0  0  0  0  0  0  0  0  0  0  0  0
   -1.0723    0.6752    0.0000 C   0  0  0  0  0  0  0  0  0  0  0  0
   -2.0690    5.0786    0.0000 C   0  0  0  0  0  0  0  0  0  0  0  0
   -3.5175    4.0215    0.0000 C   0  0  0  0  0  0  0  0  0  0  0  0
   -3.6894    4.8283    0.0000 O   0  0  0  0  0  0  0  0  0  0  0  0
   -4.1305    3.4691    0.0000 N   0  0  0  0  0  0  0  0  0  0  0  0
   -4.9344    3.6869    0.0000 C   0  0  0  0  0  0  0  0  0  0  0  0
   -5.5220    3.1036    0.0000 C   0  0  0  0  0  0  0  0  0  0  0  0
   -6.3219    3.3203    0.0000 N   0  0  0  0  0  0  0  0  0  0  0  0
   -6.9095    2.7369    0.0000 C   0  0  0  0  0  0  0  0  0  0  0  0
   -7.7056    2.9534    0.0000 N   0  0  0  0  0  0  0  0  0  0  0  0
   -6.6988    1.9393    0.0000 N   0  0  0  0  0  0  0  0  0  0  0  0
   -3.0882    2.1486    0.0000 H   0  0  0  0  0  0  0  0  0  0  0  0
   -0.4167    4.0844    0.0000 H   0  0  0  0  0  0  0  0  0  0  0  0
   -1.6179    1.4374    0.0000 H   0  0  0  0  0  0  0  0  0  0  0  0
    0.2418   -0.7288    0.0000 H   0  0  0  0  0  0  0  0  0  0  0  0
    1.5778    2.2866    0.0000 H   0  0  0  0  0  0  0  0  0  0  0  0
    1.9992   -0.5902    0.0000 H   0  0  0  0  0  0  0  0  0  0  0  0
    2.9399   -0.8778    0.0000 H   0  0  0  0  0  0  0  0  0  0  0  0
    5.4909    1.2119    0.0000 H   0  0  0  0  0  0  0  0  0  0  0  0
    4.4233   -1.4902    0.0000 H   0  0  0  0  0  0  0  0  0  0  0  0
    4.7412   -2.2801    0.0000 H   0  0  0  0  0  0  0  0  0  0  0  0
    8.0224   -2.6117    0.0000 H   0  0  0  0  0  0  0  0  0  0  0  0
    5.4055   -3.8799    0.0000 H   0  0  0  0  0  0  0  0  0  0  0  0
    5.3812   -4.5614    0.0000 H   0  0  0  0  0  0  0  0  0  0  0  0
    6.2729   -6.1106    0.0000 H   0  0  0  0  0  0  0  0  0  0  0  0
    8.4995   -0.9896    0.0000 H   0  0  0  0  0  0  0  0  0  0  0  0
    7.1151    0.2425    0.0000 H   0  0  0  0  0  0  0  0  0  0  0  0
    8.1630    0.0261    0.0000 H   0  0  0  0  0  0  0  0  0  0  0  0
    4.6797    2.6946    0.0000 H   0  0  0  0  0  0  0  0  0  0  0  0
    2.8296    2.5849    0.0000 H   0  0  0  0  0  0  0  0  0  0  0  0
    3.7230    3.1738    0.0000 H   0  0  0  0  0  0  0  0  0  0  0  0
   -1.7903    1.4685    0.0000 H   0  0  0  0  0  0  0  0  0  0  0  0
   -1.4003   -0.3433    0.0000 H   0  0  0  0  0  0  0  0  0  0  0  0
   -2.1183    0.4500    0.0000 H   0  0  0  0  0  0  0  0  0  0  0  0
   -1.1431    5.6149    0.0000 H   0  0  0  0  0  0  0  0  0  0  0  0
   -2.9964    5.6123    0.0000 H   0  0  0  0  0  0  0  0  0  0  0  0
   -2.0706    6.1486    0.0000 H   0  0  0  0  0  0  0  0  0  0  0  0
   -3.9018    2.5115    0.0000 H   0  0  0  0  0  0  0  0  0  0  0  0
   -5.2080    4.7213    0.0000 H   0  0  0  0  0  0  0  0  0  0  0  0
   -5.9670    3.9674    0.0000 H   0  0  0  0  0  0  0  0  0  0  0  0
   -5.2484    2.0692    0.0000 H   0  0  0  0  0  0  0  0  0  0  0  0
   -6.2809    2.3493    0.0000 H   0  0  0  0  0  0  0  0  0  0  0  0
   -7.9569    3.9053    0.0000 H   0  0  0  0  0  0  0  0  0  0  0  0
   -8.4043    2.2599    0.0000 H   0  0  0  0  0  0  0  0  0  0  0  0
   -7.3974    1.2456    0.0000 H   0  0  0  0  0  0  0  0  0  0  0  0
   -5.7488    1.6811    0.0000 H   0  0  0  0  0  0  0  0  0  0  0  0
  1  2  1  0  0  0  0
  1 49  1  0  0  0  0
  2  6  1  0  0  0  0
  2  3  2  0  0  0  0
  3  4  1  0  0  0  0
  3 50  1  0  0  0  0
  4 39  1  0  0  0  0
  4  5  1  0  0  0  0
  5 40  1  0  0  0  0
  5  1  2  0  0  0  0
  6  7  1  0  0  0  0
  6 51  1  0  0  0  0
  7  8  1  0  0  0  0
  7  9  2  0  0  0  0
  8 10  1  0  0  0  0
 10 11  1  0  0  0  0
 10 38  1  0  0  0  0
 11 12  2  0  0  0  0
 11 52  1  0  0  0  0
 12 13  1  0  0  0  0
 12 14  1  0  0  0  0
 13  8  2  0  0  0  0
 13 53  1  0  0  0  0
 14 15  1  0  0  0  0
 14 54  1  0  0  0  0
 15 16  1  0  0  0  0
 15 17  2  0  0  0  0
 16 18  2  0  0  0  0
 18 19  1  0  0  0  0
 18 55  1  0  0  0  0
 19 20  2  0  0  0  0
 19 22  1  0  0  0  0
 20 21  1  0  0  0  0
 20 56  1  0  0  0  0
 21 37  1  0  0  0  0
 21 16  1  0  0  0  0
 22 23  1  0  0  0  0
 22 57  1  0  0  0  0
 23 24  1  0  0  0  0
 23 25  2  0  0  0  0
 24 26  2  0  0  0  0
 26 27  1  0  0  0  0
 26 58  1  0  0  0  0
 27 28  2  0  0  0  0
 27 30  1  0  0  0  0
 28 29  1  0  0  0  0
 28 59  1  0  0  0  0
 29 24  1  0  0  0  0
 29 36  1  0  0  0  0
 30 31  1  0  0  0  0
 30 60  1  0  0  0  0
 31 32  1  0  0  0  0
 31 33  2  0  0  0  0
 32 34  2  0  0  0  0
 32 35  1  0  0  0  0
 34 61  1  0  0  0  0
 34 62  1  0  0  0  0
 36 63  1  0  0  0  0
 36 64  1  0  0  0  0
 36 65  1  0  0  0  0
 37 66  1  0  0  0  0
 37 67  1  0  0  0  0
 37 68  1  0  0  0  0
 38 69  1  0  0  0  0
 38 70  1  0  0  0  0
 38 71  1  0  0  0  0
 39 72  1  0  0  0  0
 39 73  1  0  0  0  0
 39 74  1  0  0  0  0
 40 41  2  0  0  0  0
 40 42  1  0  0  0  0
 42 43  1  0  0  0  0
 42 75  1  0  0  0  0
 43 44  1  0  0  0  0
 43 76  1  0  0  0  0
 43 77  1  0  0  0  0
 44 45  1  0  0  0  0
 44 78  1  0  0  0  0
 44 79  1  0  0  0  0
 45 46  2  0  0  0  0
 46 47  1  0  0  0  0
 46 48  1  0  0  0  0
 47 80  1  0  0  0  0
 47 81  1  0  0  0  0
 48 82  1  0  0  0  0
 48 83  1  0  0  0  0
M  END
>  <DRUGBANK_ID>
DB06598

>  <COMMON_NAME>
Brostallicin

>  <CAS_NUMBER>
203258-60-0

>  <UNII>
RPC6R41K4I

>  <SYNONYMS>
Brostalicina; Brostallicin; Brostallicine; Brostallicinum

$$$$
