
 OpenBabel10282417072D

 38 40  0  0  1  0  0  0  0  0999 V2000
   17.6010  -11.5418    0.0000 N   0  0  0  0  0  0  0  0  0  0  0  0
   17.0779  -12.9290    0.0000 C   0  0  1  0  0  0  0  0  0  0  0  0
   16.8771  -11.2916    0.0000 C   0  0  0  0  0  0  0  0  0  0  0  0
   18.1014  -10.8179    0.0000 C   0  0  0  0  0  0  0  0  0  0  0  0
   16.8240  -13.7136    0.0000 C   0  0  1  0  0  0  0  0  0  0  0  0
   16.4109  -12.4438    0.0000 O   0  0  0  0  0  0  0  0  0  0  0  0
   16.8808  -10.3819    0.0000 C   0  0  0  0  0  0  0  0  0  0  0  0
   16.1607  -11.7124    0.0000 N   0  0  0  0  0  0  0  0  0  0  0  0
   17.5935  -10.1242    0.0000 N   0  0  0  0  0  0  0  0  0  0  0  0
   15.9978  -13.7136    0.0000 C   0  0  1  0  0  0  0  0  0  0  0  0
   17.2258  -14.4223    0.0000 O   0  0  0  0  0  0  0  0  0  0  0  0
   15.7438  -12.9290    0.0000 C   0  0  1  0  0  0  0  0  0  0  0  0
   16.1797   -9.9689    0.0000 C   0  0  0  0  0  0  0  0  0  0  0  0
   15.4141  -11.2879    0.0000 C   0  0  0  0  0  0  0  0  0  0  0  0
   15.5770  -14.4223    0.0000 O   0  0  0  0  0  0  0  0  0  0  0  0
   15.0275  -12.5120    0.0000 C   0  0  0  0  0  0  0  0  0  0  0  0
   15.4103  -10.4047    0.0000 N   0  0  0  0  0  0  0  0  0  0  0  0
   16.1797   -9.1501    0.0000 O   0  0  0  0  0  0  0  0  0  0  0  0
   14.7129  -11.7009    0.0000 N   0  0  0  0  0  0  0  0  0  0  0  0
   15.5733  -15.2486    0.0000 P   0  0  0  0  0  0  0  0  0  0  0  0
   14.3111  -12.9215    0.0000 O   0  0  0  0  0  0  0  0  0  0  0  0
   14.7470  -15.2410    0.0000 O   0  0  0  0  0  0  0  0  0  0  0  0
   16.3957  -15.2486    0.0000 O   0  0  0  0  0  0  0  0  0  0  0  0
   15.6085  -16.0711    0.0000 O   0  0  0  0  0  0  0  0  0  0  0  0
   18.0878  -13.2826    0.0000 H   0  0  0  0  0  0  0  0  0  0  0  0
   19.1333  -10.8039    0.0000 H   0  0  0  0  0  0  0  0  0  0  0  0
   17.8885  -13.6053    0.0000 H   0  0  0  0  0  0  0  0  0  0  0  0
   16.5271  -14.6435    0.0000 H   0  0  0  0  0  0  0  0  0  0  0  0
   16.7342  -15.2585    0.0000 H   0  0  0  0  0  0  0  0  0  0  0  0
   15.6894  -11.8604    0.0000 H   0  0  0  0  0  0  0  0  0  0  0  0
   15.0317  -11.4420    0.0000 H   0  0  0  0  0  0  0  0  0  0  0  0
   14.1031  -11.9732    0.0000 H   0  0  0  0  0  0  0  0  0  0  0  0
   14.5587   -9.9108    0.0000 H   0  0  0  0  0  0  0  0  0  0  0  0
   13.8561  -11.2161    0.0000 H   0  0  0  0  0  0  0  0  0  0  0  0
   14.7215  -12.6854    0.0000 H   0  0  0  0  0  0  0  0  0  0  0  0
   13.4732  -12.4329    0.0000 H   0  0  0  0  0  0  0  0  0  0  0  0
   14.2697  -14.3965    0.0000 H   0  0  0  0  0  0  0  0  0  0  0  0
   16.8807  -16.0886    0.0000 H   0  0  0  0  0  0  0  0  0  0  0  0
  1  3  1  0  0  0  0
  1  4  1  0  0  0  0
  2  1  1  0  0  0  0
  2  5  1  0  0  0  0
  2  6  1  0  0  0  0
  2 25  1  6  0  0  0
  3  7  2  0  0  0  0
  3  8  1  0  0  0  0
  4  9  2  0  0  0  0
  4 26  1  0  0  0  0
  5 10  1  0  0  0  0
  5 11  1  0  0  0  0
  5 27  1  1  0  0  0
  6 12  1  0  0  0  0
  7 13  1  0  0  0  0
  7  9  1  0  0  0  0
  8 14  2  0  0  0  0
 10 15  1  0  0  0  0
 10 12  1  0  0  0  0
 10 28  1  1  0  0  0
 11 29  1  0  0  0  0
 12 16  1  0  0  0  0
 12 30  1  6  0  0  0
 13 17  1  0  0  0  0
 13 18  2  0  0  0  0
 14 19  1  0  0  0  0
 14 17  1  0  0  0  0
 15 20  1  0  0  0  0
 16 21  1  0  0  0  0
 16 31  1  0  0  0  0
 16 32  1  0  0  0  0
 17 33  1  0  0  0  0
 19 34  1  0  0  0  0
 19 35  1  0  0  0  0
 20 22  1  0  0  0  0
 20 23  1  0  0  0  0
 20 24  2  0  0  0  0
 21 36  1  0  0  0  0
 22 37  1  0  0  0  0
 23 38  1  0  0  0  0
M  END
>  <DRUGBANK_ID>
DB03315

>  <SECONDARY_ACCESSION_NUMBERS>
EXPT00169

>  <COMMON_NAME>
Guanosine 3'-monophosphate

>  <CAS_NUMBER>
117-68-0

>  <UNII>
839SG0O89X

>  <SYNONYMS>
3'-GMP; 3'-Guanylic acid; Guanosine 3'-phosphate; Guanosine-3'-monophosphate; Guanylic acid

$$$$
