
 OpenBabel10282417072D

 45 46  0  0  0  0  0  0  0  0999 V2000
   -1.7861    1.8562    0.0000 C   0  0  0  0  0  0  0  0  0  0  0  0
   -1.7861    1.0312    0.0000 C   0  0  3  0  0  0  0  0  0  0  0  0
   -2.5006    0.6187    0.0000 C   0  0  0  0  0  0  0  0  0  0  0  0
   -2.5006   -0.2062    0.0000 C   0  0  0  0  0  0  0  0  0  0  0  0
   -1.7861   -0.6187    0.0000 C   0  0  3  0  0  0  0  0  0  0  0  0
   -1.0717   -0.2062    0.0000 C   0  0  3  0  0  0  0  0  0  0  0  0
   -1.0717    0.6187    0.0000 C   0  0  0  0  0  0  0  0  0  0  0  0
   -0.3572   -0.6187    0.0000 O   0  0  0  0  0  0  0  0  0  0  0  0
    0.3572   -0.2062    0.0000 C   0  0  0  0  0  0  0  0  0  0  0  0
    0.3572    0.6187    0.0000 O   0  0  0  0  0  0  0  0  0  0  0  0
    1.0717   -0.6187    0.0000 C   0  0  0  0  0  0  0  0  0  0  0  0
    1.7861   -0.2062    0.0000 C   0  0  0  0  0  0  0  0  0  0  0  0
    2.5006   -0.6187    0.0000 C   0  0  0  0  0  0  0  0  0  0  0  0
    2.5006   -1.4437    0.0000 C   0  0  0  0  0  0  0  0  0  0  0  0
    1.7861   -1.8562    0.0000 C   0  0  0  0  0  0  0  0  0  0  0  0
    1.0717   -1.4437    0.0000 C   0  0  0  0  0  0  0  0  0  0  0  0
    0.3572   -1.8562    0.0000 N   0  0  0  0  0  0  0  0  0  0  0  0
   -1.7861   -1.4437    0.0000 C   0  0  0  0  0  0  0  0  0  0  0  0
   -2.5006   -1.8562    0.0000 C   0  0  0  0  0  0  0  0  0  0  0  0
   -1.0717   -1.8562    0.0000 C   0  0  0  0  0  0  0  0  0  0  0  0
   -0.8595    2.3912    0.0000 H   0  0  0  0  0  0  0  0  0  0  0  0
   -2.7127    2.3912    0.0000 H   0  0  0  0  0  0  0  0  0  0  0  0
   -1.7861    2.9262    0.0000 H   0  0  0  0  0  0  0  0  0  0  0  0
   -2.7127    1.5662    0.0000 H   0  0  0  0  0  0  0  0  0  0  0  0
   -3.4272    1.1537    0.0000 H   0  0  0  0  0  0  0  0  0  0  0  0
   -3.4272    0.0837    0.0000 H   0  0  0  0  0  0  0  0  0  0  0  0
   -3.4272   -0.7412    0.0000 H   0  0  0  0  0  0  0  0  0  0  0  0
   -2.5006   -1.2762    0.0000 H   0  0  0  0  0  0  0  0  0  0  0  0
   -1.7861    0.4513    0.0000 H   0  0  0  0  0  0  0  0  0  0  0  0
   -1.9984    0.3288    0.0000 H   0  0  0  0  0  0  0  0  0  0  0  0
   -0.1450    1.1537    0.0000 H   0  0  0  0  0  0  0  0  0  0  0  0
   -1.0717    1.6887    0.0000 H   0  0  0  0  0  0  0  0  0  0  0  0
    1.7861    0.8258    0.0000 H   0  0  0  0  0  0  0  0  0  0  0  0
    3.3943   -0.1027    0.0000 H   0  0  0  0  0  0  0  0  0  0  0  0
    3.3943   -1.9597    0.0000 H   0  0  0  0  0  0  0  0  0  0  0  0
    1.7861   -2.8882    0.0000 H   0  0  0  0  0  0  0  0  0  0  0  0
   -0.4954   -1.3639    0.0000 H   0  0  0  0  0  0  0  0  0  0  0  0
    0.3572   -2.8407    0.0000 H   0  0  0  0  0  0  0  0  0  0  0  0
   -1.7861   -2.5137    0.0000 H   0  0  0  0  0  0  0  0  0  0  0  0
   -3.4272   -1.3212    0.0000 H   0  0  0  0  0  0  0  0  0  0  0  0
   -2.5006   -2.9262    0.0000 H   0  0  0  0  0  0  0  0  0  0  0  0
   -3.4273   -2.3912    0.0000 H   0  0  0  0  0  0  0  0  0  0  0  0
   -1.0717   -2.9262    0.0000 H   0  0  0  0  0  0  0  0  0  0  0  0
   -0.1450   -1.3212    0.0000 H   0  0  0  0  0  0  0  0  0  0  0  0
   -0.1451   -2.3912    0.0000 H   0  0  0  0  0  0  0  0  0  0  0  0
  1  2  1  0  0  0  0
  1 21  1  0  0  0  0
  1 22  1  0  0  0  0
  1 23  1  0  0  0  0
  2  3  1  0  0  0  0
  2  7  1  0  0  0  0
  2 24  1  0  0  0  0
  3  4  1  0  0  0  0
  3 25  1  0  0  0  0
  3 26  1  0  0  0  0
  4  5  1  0  0  0  0
  4 27  1  0  0  0  0
  4 28  1  0  0  0  0
  5  6  1  0  0  0  0
  5 18  1  0  0  0  0
  5 29  1  0  0  0  0
  6  7  1  0  0  0  0
  6  8  1  0  0  0  0
  6 30  1  0  0  0  0
  7 31  1  0  0  0  0
  7 32  1  0  0  0  0
  8  9  1  0  0  0  0
  9 10  2  0  0  0  0
  9 11  1  0  0  0  0
 11 12  2  0  0  0  0
 11 16  1  0  0  0  0
 12 13  1  0  0  0  0
 12 33  1  0  0  0  0
 13 14  2  0  0  0  0
 13 34  1  0  0  0  0
 14 15  1  0  0  0  0
 14 35  1  0  0  0  0
 15 16  2  0  0  0  0
 15 36  1  0  0  0  0
 16 17  1  0  0  0  0
 17 37  1  0  0  0  0
 17 38  1  0  0  0  0
 18 19  1  0  0  0  0
 18 20  1  0  0  0  0
 18 39  1  0  0  0  0
 19 40  1  0  0  0  0
 19 41  1  0  0  0  0
 19 42  1  0  0  0  0
 20 43  1  0  0  0  0
 20 44  1  0  0  0  0
 20 45  1  0  0  0  0
M  END
>  <DRUGBANK_ID>
DB11096

>  <COMMON_NAME>
Meradimate

>  <CAS_NUMBER>
134-09-8

>  <UNII>
J9QGD60OUZ

>  <SYNONYMS>
Menthyl anthranilate; Menthyl-O-aminobenzoate; Meradimate

$$$$
