
 OpenBabel10282417072D

  1  0  0  0  0  0  0  0  0  0999 V2000
    0.0000    0.0000    0.0000 Ca  0  2  0  0  0  0  0  0  0  0  0  0
M  CHG  1   1   2
M  END
>  <DRUGBANK_ID>
DB14577

>  <COMMON_NAME>
Calcium cation

>  <CAS_NUMBER>
14127-61-8

>  <UNII>
2M83C4R6ZB

>  <SYNONYMS>
Calcium (2+); Calcium ions; calcium(2+) ion; Calcium(2+)ions

$$$$
