
 OpenBabel10282417072D

 52 51  0  0  1  0  0  0  0  0999 V2000
   -1.8118    5.1711    0.0000 C   0  0  0  0  0  0  0  0  0  0  0  0
   -1.0974    4.7586    0.0000 C   0  0  0  0  0  0  0  0  0  0  0  0
   -0.3829    5.1711    0.0000 C   0  0  0  0  0  0  0  0  0  0  0  0
   -1.0974    3.9336    0.0000 C   0  0  0  0  0  0  0  0  0  0  0  0
   -0.3829    3.5211    0.0000 C   0  0  0  0  0  0  0  0  0  0  0  0
   -0.3829    2.6961    0.0000 C   0  0  0  0  0  0  0  0  0  0  0  0
    0.3316    2.2836    0.0000 C   0  0  0  0  0  0  0  0  0  0  0  0
    1.0461    2.6961    0.0000 C   0  0  0  0  0  0  0  0  0  0  0  0
    0.3316    1.4586    0.0000 C   0  0  0  0  0  0  0  0  0  0  0  0
    1.0461    1.0461    0.0000 C   0  0  0  0  0  0  0  0  0  0  0  0
    1.0461    0.2211    0.0000 C   0  0  0  0  0  0  0  0  0  0  0  0
    1.7605   -0.1914    0.0000 C   0  0  0  0  0  0  0  0  0  0  0  0
    1.7605   -1.0164    0.0000 C   0  0  0  0  0  0  0  0  0  0  0  0
    2.4750   -1.4289    0.0000 C   0  0  0  0  0  0  0  0  0  0  0  0
    3.1895   -1.0164    0.0000 O   0  0  0  0  0  0  0  0  0  0  0  0
    3.9039   -1.4289    0.0000 P   0  0  2  0  0  0  0  0  0  0  0  0
    3.4914   -2.1434    0.0000 O   0  0  0  0  0  0  0  0  0  0  0  0
    4.3164   -0.7145    0.0000 O   0  0  0  0  0  0  0  0  0  0  0  0
    4.6184   -1.8414    0.0000 O   0  0  0  0  0  0  0  0  0  0  0  0
    5.3329   -1.4289    0.0000 P   0  0  0  0  0  0  0  0  0  0  0  0
    6.0474   -1.0164    0.0000 O   0  0  0  0  0  0  0  0  0  0  0  0
    5.7454   -2.1434    0.0000 O   0  0  0  0  0  0  0  0  0  0  0  0
    4.9204   -0.7145    0.0000 O   0  0  0  0  0  0  0  0  0  0  0  0
    2.4750    0.2211    0.0000 C   0  0  0  0  0  0  0  0  0  0  0  0
    3.1895    0.6336    0.0000 F   0  0  0  0  0  0  0  0  0  0  0  0
    2.8875   -0.4934    0.0000 F   0  0  0  0  0  0  0  0  0  0  0  0
    2.0625    0.9355    0.0000 F   0  0  0  0  0  0  0  0  0  0  0  0
   -1.8118    6.2411    0.0000 H   0  0  0  0  0  0  0  0  0  0  0  0
   -2.7385    4.6361    0.0000 H   0  0  0  0  0  0  0  0  0  0  0  0
   -2.7384    5.7061    0.0000 H   0  0  0  0  0  0  0  0  0  0  0  0
    0.5437    4.6361    0.0000 H   0  0  0  0  0  0  0  0  0  0  0  0
   -0.3829    6.2411    0.0000 H   0  0  0  0  0  0  0  0  0  0  0  0
    0.5438    5.7061    0.0000 H   0  0  0  0  0  0  0  0  0  0  0  0
   -1.9911    3.4176    0.0000 H   0  0  0  0  0  0  0  0  0  0  0  0
    0.5437    4.0561    0.0000 H   0  0  0  0  0  0  0  0  0  0  0  0
    0.5437    2.9861    0.0000 H   0  0  0  0  0  0  0  0  0  0  0  0
   -1.3095    2.1611    0.0000 H   0  0  0  0  0  0  0  0  0  0  0  0
   -0.3829    1.6261    0.0000 H   0  0  0  0  0  0  0  0  0  0  0  0
    1.9727    2.1611    0.0000 H   0  0  0  0  0  0  0  0  0  0  0  0
    1.0461    3.7661    0.0000 H   0  0  0  0  0  0  0  0  0  0  0  0
    1.9728    3.2311    0.0000 H   0  0  0  0  0  0  0  0  0  0  0  0
   -0.5621    0.9426    0.0000 H   0  0  0  0  0  0  0  0  0  0  0  0
    1.9727    1.5811    0.0000 H   0  0  0  0  0  0  0  0  0  0  0  0
    1.9727    0.5111    0.0000 H   0  0  0  0  0  0  0  0  0  0  0  0
    0.1194   -0.3139    0.0000 H   0  0  0  0  0  0  0  0  0  0  0  0
    1.0461   -0.8489    0.0000 H   0  0  0  0  0  0  0  0  0  0  0  0
    0.8668   -1.5324    0.0000 H   0  0  0  0  0  0  0  0  0  0  0  0
    2.4750   -2.4989    0.0000 H   0  0  0  0  0  0  0  0  0  0  0  0
    3.4016   -1.9639    0.0000 H   0  0  0  0  0  0  0  0  0  0  0  0
    2.5214   -2.1434    0.0000 H   0  0  0  0  0  0  0  0  0  0  0  0
    6.8874   -1.5014    0.0000 H   0  0  0  0  0  0  0  0  0  0  0  0
    5.2604   -2.9834    0.0000 H   0  0  0  0  0  0  0  0  0  0  0  0
  1  2  1  0  0  0  0
  1 28  1  0  0  0  0
  1 29  1  0  0  0  0
  1 30  1  0  0  0  0
  2  3  1  0  0  0  0
  2  4  2  0  0  0  0
  3 31  1  0  0  0  0
  3 32  1  0  0  0  0
  3 33  1  0  0  0  0
  4  5  1  0  0  0  0
  4 34  1  0  0  0  0
  5  6  1  0  0  0  0
  5 35  1  0  0  0  0
  5 36  1  0  0  0  0
  6  7  1  0  0  0  0
  6 37  1  0  0  0  0
  6 38  1  0  0  0  0
  7  8  1  0  0  0  0
  7  9  2  0  0  0  0
  8 39  1  0  0  0  0
  8 40  1  0  0  0  0
  8 41  1  0  0  0  0
  9 10  1  0  0  0  0
  9 42  1  0  0  0  0
 10 11  1  0  0  0  0
 10 43  1  0  0  0  0
 10 44  1  0  0  0  0
 11 12  1  0  0  0  0
 11 45  1  0  0  0  0
 11 46  1  0  0  0  0
 12 13  2  0  0  0  0
 12 24  1  0  0  0  0
 13 14  1  0  0  0  0
 13 47  1  0  0  0  0
 14 15  1  0  0  0  0
 14 48  1  0  0  0  0
 14 49  1  0  0  0  0
 16 15  1  0  0  0  0
 16 17  1  0  0  0  0
 16 18  2  1  0  0  0
 16 19  1  0  0  0  0
 17 50  1  0  0  0  0
 19 20  1  0  0  0  0
 20 21  1  0  0  0  0
 20 22  1  0  0  0  0
 20 23  2  0  0  0  0
 21 51  1  0  0  0  0
 22 52  1  0  0  0  0
 24 25  1  0  0  0  0
 24 26  1  0  0  0  0
 24 27  1  0  0  0  0
M  END
>  <DRUGBANK_ID>
DB02808

>  <SECONDARY_ACCESSION_NUMBERS>
EXPT01427

>  <COMMON_NAME>
Trifluorofurnesyl Diphosphate

$$$$
