JI7
 OpenBabel10282417072D

 54 56  0  0  0  0  0  0  0  0999 V2000
   -0.9711   -2.5758    0.0000 C   0  0  0  0  0  0  0  0  0  0  0  0
   -1.5842   -2.0238    0.0000 C   0  0  0  0  0  0  0  0  0  0  0  0
   -1.4126   -1.2168    0.0000 C   0  0  0  0  0  0  0  0  0  0  0  0
   -0.6280   -0.9618    0.0000 C   0  0  0  0  0  0  0  0  0  0  0  0
   -0.0149   -1.5139    0.0000 N   0  0  0  0  0  0  0  0  0  0  0  0
   -0.1864   -2.3208    0.0000 C   0  0  0  0  0  0  0  0  0  0  0  0
   -0.4565   -0.1549    0.0000 C   0  0  0  0  0  0  0  0  0  0  0  0
   -1.0696    0.3972    0.0000 C   0  0  2  0  0  0  0  0  0  0  0  0
   -0.9833    1.2176    0.0000 C   0  0  2  0  0  0  0  0  0  0  0  0
   -1.7370    1.5532    0.0000 C   0  0  0  0  0  0  0  0  0  0  0  0
   -2.2890    0.9401    0.0000 N   0  0  0  0  0  0  0  0  0  0  0  0
   -1.8765    0.2256    0.0000 C   0  0  0  0  0  0  0  0  0  0  0  0
   -0.2689    1.6301    0.0000 N   0  0  0  0  0  0  0  0  0  0  0  0
    0.4456    1.2176    0.0000 C   0  0  0  0  0  0  0  0  0  0  0  0
    1.1601    1.6301    0.0000 C   0  0  0  0  0  0  0  0  0  0  0  0
    1.8746    1.2176    0.0000 N   0  0  0  0  0  0  0  0  0  0  0  0
    2.5890    1.6301    0.0000 C   0  0  0  0  0  0  0  0  0  0  0  0
    3.3035    1.2176    0.0000 C   0  0  0  0  0  0  0  0  0  0  0  0
    4.0180    1.6301    0.0000 C   0  0  0  0  0  0  0  0  0  0  0  0
    4.7324    1.2176    0.0000 C   0  0  0  0  0  0  0  0  0  0  0  0
    4.7324    0.3926    0.0000 C   0  0  0  0  0  0  0  0  0  0  0  0
    4.0180   -0.0199    0.0000 C   0  0  0  0  0  0  0  0  0  0  0  0
    3.3035    0.3926    0.0000 C   0  0  0  0  0  0  0  0  0  0  0  0
    4.0180   -0.8449    0.0000 Cl  0  0  0  0  0  0  0  0  0  0  0  0
   -2.3688   -2.2787    0.0000 C   0  0  0  0  0  0  0  0  0  0  0  0
    0.4267   -2.8729    0.0000 N   0  0  0  0  0  0  0  0  0  0  0  0
   -1.2207   -0.1669    0.0000 H   0  0  0  0  0  0  0  0  0  0  0  0
   -0.4936    0.8996    0.0000 H   0  0  0  0  0  0  0  0  0  0  0  0
   -1.1856   -3.5853    0.0000 H   0  0  0  0  0  0  0  0  0  0  0  0
   -2.1795   -0.5263    0.0000 H   0  0  0  0  0  0  0  0  0  0  0  0
    0.5611    0.1757    0.0000 H   0  0  0  0  0  0  0  0  0  0  0  0
    0.3387   -0.8709    0.0000 H   0  0  0  0  0  0  0  0  0  0  0  0
   -1.9595    2.5998    0.0000 H   0  0  0  0  0  0  0  0  0  0  0  0
   -0.9054    2.2266    0.0000 H   0  0  0  0  0  0  0  0  0  0  0  0
   -3.3034    1.0467    0.0000 H   0  0  0  0  0  0  0  0  0  0  0  0
   -2.3117   -0.7519    0.0000 H   0  0  0  0  0  0  0  0  0  0  0  0
   -2.9450    0.1696    0.0000 H   0  0  0  0  0  0  0  0  0  0  0  0
   -0.2689    2.6501    0.0000 H   0  0  0  0  0  0  0  0  0  0  0  0
    0.4456    0.1476    0.0000 H   0  0  0  0  0  0  0  0  0  0  0  0
    1.3722    0.6826    0.0000 H   0  0  0  0  0  0  0  0  0  0  0  0
    1.1601    2.7001    0.0000 H   0  0  0  0  0  0  0  0  0  0  0  0
    2.0867    2.1651    0.0000 H   0  0  0  0  0  0  0  0  0  0  0  0
    1.8746    0.1976    0.0000 H   0  0  0  0  0  0  0  0  0  0  0  0
    2.5890    2.7001    0.0000 H   0  0  0  0  0  0  0  0  0  0  0  0
    3.5156    2.1651    0.0000 H   0  0  0  0  0  0  0  0  0  0  0  0
    4.0180    2.6621    0.0000 H   0  0  0  0  0  0  0  0  0  0  0  0
    5.6261    1.7336    0.0000 H   0  0  0  0  0  0  0  0  0  0  0  0
    5.6261   -0.1234    0.0000 H   0  0  0  0  0  0  0  0  0  0  0  0
    2.4098   -0.1234    0.0000 H   0  0  0  0  0  0  0  0  0  0  0  0
   -3.1639   -1.5627    0.0000 H   0  0  0  0  0  0  0  0  0  0  0  0
   -2.5913   -3.3253    0.0000 H   0  0  0  0  0  0  0  0  0  0  0  0
   -3.3864   -2.6093    0.0000 H   0  0  0  0  0  0  0  0  0  0  0  0
    0.2220   -3.8359    0.0000 H   0  0  0  0  0  0  0  0  0  0  0  0
    1.3630   -2.5687    0.0000 H   0  0  0  0  0  0  0  0  0  0  0  0
  1  2  1  0  0  0  0
  1 29  1  0  0  0  0
  2 25  1  0  0  0  0
  3  2  2  0  0  0  0
  3 30  1  0  0  0  0
  4  3  1  0  0  0  0
  5  4  2  0  0  0  0
  5  6  1  0  0  0  0
  6  1  2  0  0  0  0
  7  4  1  0  0  0  0
  7 31  1  0  0  0  0
  7 32  1  0  0  0  0
  8  7  1  0  0  0  0
  8 12  1  0  0  0  0
  8 27  1  6  0  0  0
  9 13  1  0  0  0  0
  9  8  1  0  0  0  0
  9 28  1  1  0  0  0
 10 11  1  0  0  0  0
 10  9  1  0  0  0  0
 10 33  1  0  0  0  0
 10 34  1  0  0  0  0
 11 12  1  0  0  0  0
 11 35  1  0  0  0  0
 12 36  1  0  0  0  0
 12 37  1  0  0  0  0
 13 38  1  0  0  0  0
 14 13  1  0  0  0  0
 14 39  1  0  0  0  0
 14 40  1  0  0  0  0
 15 14  1  0  0  0  0
 15 41  1  0  0  0  0
 15 42  1  0  0  0  0
 16 15  1  0  0  0  0
 16 43  1  0  0  0  0
 17 16  1  0  0  0  0
 17 44  1  0  0  0  0
 17 45  1  0  0  0  0
 18 19  1  0  0  0  0
 18 17  1  0  0  0  0
 19 46  1  0  0  0  0
 20 19  2  0  0  0  0
 20 47  1  0  0  0  0
 21 20  1  0  0  0  0
 21 48  1  0  0  0  0
 22 21  2  0  0  0  0
 22 23  1  0  0  0  0
 23 18  2  0  0  0  0
 23 49  1  0  0  0  0
 24 22  1  0  0  0  0
 25 50  1  0  0  0  0
 25 51  1  0  0  0  0
 25 52  1  0  0  0  0
 26  6  1  0  0  0  0
 26 53  1  0  0  0  0
 26 54  1  0  0  0  0
M  END
>  <DRUGBANK_ID>
DB08019

>  <COMMON_NAME>
N-{(3R,4S)-4-[(6-amino-4-methylpyridin-2-yl)methyl]pyrrolidin-3-yl}-N'-(3-chlorobenzyl)ethane-1,2-diamine

$$$$
