
 OpenBabel10282417072D

 41 42  0  0  1  0  0  0  0  0999 V2000
    4.5080   -1.6500    0.0000 Cl  0  0  0  0  0  0  0  0  0  0  0  0
    3.0791    0.8250    0.0000 O   0  0  0  0  0  0  0  0  0  0  0  0
    4.5080    0.0000    0.0000 O   0  0  0  0  0  0  0  0  0  0  0  0
    6.6515   -3.7126    0.0000 O   0  5  0  0  0  0  0  0  0  0  0  0
    3.0791    2.4751    0.0000 N   0  0  0  0  0  0  0  0  0  0  0  0
    5.2224   -0.4125    0.0000 N   0  0  0  0  0  0  0  0  0  0  0  0
    6.6515   -2.8876    0.0000 N   0  3  0  0  0  0  0  0  0  0  0  0
    3.0791    3.3001    0.0000 C   0  0  0  0  0  0  0  0  0  0  0  0
    2.3645    2.0625    0.0000 C   0  0  0  0  0  0  0  0  0  0  0  0
    2.3645    3.7126    0.0000 C   0  0  0  0  0  0  0  0  0  0  0  0
    1.6500    2.4751    0.0000 C   0  0  0  0  0  0  0  0  0  0  0  0
    1.6500    3.3001    0.0000 C   0  0  0  0  0  0  0  0  0  0  0  0
    3.7935    2.0625    0.0000 C   0  0  0  0  0  0  0  0  0  0  0  0
    3.7935    1.2375    0.0000 C   0  0  2  0  0  0  0  0  0  0  0  0
    4.5080    0.8250    0.0000 C   0  0  0  0  0  0  0  0  0  0  0  0
    5.2224   -1.2375    0.0000 C   0  0  0  0  0  0  0  0  0  0  0  0
    5.9370   -1.6500    0.0000 C   0  0  0  0  0  0  0  0  0  0  0  0
    5.9370   -2.4751    0.0000 C   0  0  0  0  0  0  0  0  0  0  0  0
    6.6515   -1.2375    0.0000 C   0  0  0  0  0  0  0  0  0  0  0  0
    7.3659   -1.6500    0.0000 C   0  0  0  0  0  0  0  0  0  0  0  0
    7.3659   -2.4751    0.0000 C   0  0  0  0  0  0  0  0  0  0  0  0
    2.2390    1.3100    0.0000 H   0  0  0  0  0  0  0  0  0  0  0  0
    4.0057    3.8351    0.0000 H   0  0  0  0  0  0  0  0  0  0  0  0
    3.0790    4.3701    0.0000 H   0  0  0  0  0  0  0  0  0  0  0  0
    2.3645    0.9925    0.0000 H   0  0  0  0  0  0  0  0  0  0  0  0
    1.4378    1.5276    0.0000 H   0  0  0  0  0  0  0  0  0  0  0  0
    2.3645    4.7826    0.0000 H   0  0  0  0  0  0  0  0  0  0  0  0
    1.4378    4.2476    0.0000 H   0  0  0  0  0  0  0  0  0  0  0  0
    0.7233    1.9401    0.0000 H   0  0  0  0  0  0  0  0  0  0  0  0
    0.7234    3.0101    0.0000 H   0  0  0  0  0  0  0  0  0  0  0  0
    0.7234    3.8351    0.0000 H   0  0  0  0  0  0  0  0  0  0  0  0
    0.7234    2.7651    0.0000 H   0  0  0  0  0  0  0  0  0  0  0  0
    4.7202    2.5974    0.0000 H   0  0  0  0  0  0  0  0  0  0  0  0
    4.7201    1.5275    0.0000 H   0  0  0  0  0  0  0  0  0  0  0  0
    2.8668    1.7725    0.0000 H   0  0  0  0  0  0  0  0  0  0  0  0
    5.4346    1.3600    0.0000 H   0  0  0  0  0  0  0  0  0  0  0  0
    4.5080    1.8950    0.0000 H   0  0  0  0  0  0  0  0  0  0  0  0
    5.0433   -2.9911    0.0000 H   0  0  0  0  0  0  0  0  0  0  0  0
    6.6515   -0.2055    0.0000 H   0  0  0  0  0  0  0  0  0  0  0  0
    8.2596   -1.1340    0.0000 H   0  0  0  0  0  0  0  0  0  0  0  0
    8.2596   -2.9911    0.0000 H   0  0  0  0  0  0  0  0  0  0  0  0
  1 16  1  0  0  0  0
  2 22  1  0  0  0  0
  3  6  1  0  0  0  0
  3 15  1  0  0  0  0
  4  7  1  0  0  0  0
  5  8  1  0  0  0  0
  5  9  1  0  0  0  0
  5 13  1  0  0  0  0
  6 16  2  3  0  0  0
  7 18  1  0  0  0  0
  7 21  2  0  0  0  0
  8 10  1  0  0  0  0
  8 23  1  0  0  0  0
  8 24  1  0  0  0  0
  9 11  1  0  0  0  0
  9 25  1  0  0  0  0
  9 26  1  0  0  0  0
 10 12  1  0  0  0  0
 10 27  1  0  0  0  0
 10 28  1  0  0  0  0
 11 12  1  0  0  0  0
 11 29  1  0  0  0  0
 11 30  1  0  0  0  0
 12 31  1  0  0  0  0
 12 32  1  0  0  0  0
 13 14  1  0  0  0  0
 13 33  1  0  0  0  0
 13 34  1  0  0  0  0
 14  2  1  0  0  0  0
 14 15  1  0  0  0  0
 14 35  1  1  0  0  0
 15 36  1  0  0  0  0
 15 37  1  0  0  0  0
 16 17  1  0  0  0  0
 17 18  2  0  0  0  0
 17 19  1  0  0  0  0
 18 38  1  0  0  0  0
 19 20  2  0  0  0  0
 19 39  1  0  0  0  0
 20 21  1  0  0  0  0
 20 40  1  0  0  0  0
 21 41  1  0  0  0  0
M  CHG  2   4  -1   7   1
M  END
>  <DRUGBANK_ID>
DB05025

>  <COMMON_NAME>
Arimoclomol

>  <CAS_NUMBER>
289893-25-0

>  <UNII>
EUT3557RT5

>  <SYNONYMS>
Arimoclomol

$$$$
