
 OpenBabel10282417072D

 17 15  0  0  1  0  0  0  0  0999 V2000
    0.3572    0.2062    0.0000 C   0  0  2  0  0  0  0  0  0  0  0  0
   -0.3572   -0.2063    0.0000 C   0  0  1  0  0  0  0  0  0  0  0  0
   -1.0717    0.2063    0.0000 C   0  0  0  0  0  0  0  0  0  0  0  0
   -1.7862   -0.2062    0.0000 O   0  0  0  0  0  0  0  0  0  0  0  0
   -1.0717    1.0313    0.0000 O   0  0  0  0  0  0  0  0  0  0  0  0
   -0.3572   -1.0313    0.0000 S   0  0  0  0  0  0  0  0  0  0  0  0
    1.0717   -0.2063    0.0000 C   0  0  0  0  0  0  0  0  0  0  0  0
    1.7862    0.2062    0.0000 O   0  0  0  0  0  0  0  0  0  0  0  0
    1.0717   -1.0313    0.0000 O   0  0  0  0  0  0  0  0  0  0  0  0
    0.3572    1.0312    0.0000 S   0  0  0  0  0  0  0  0  0  0  0  0
    4.2612    0.0000    0.0000 Tc  0  0  0  0  0  0  0  0  0  0  0  0
   -0.5695    0.7412    0.0000 H   0  0  0  0  0  0  0  0  0  0  0  0
    0.5695   -0.7413    0.0000 H   0  0  0  0  0  0  0  0  0  0  0  0
   -0.2602    1.4998    0.0000 H   0  0  0  0  0  0  0  0  0  0  0  0
   -1.5350   -1.7113    0.0000 H   0  0  0  0  0  0  0  0  0  0  0  0
    0.2602   -1.4998    0.0000 H   0  0  0  0  0  0  0  0  0  0  0  0
    1.5350    1.7112    0.0000 H   0  0  0  0  0  0  0  0  0  0  0  0
  1  2  1  0  0  0  0
  1  7  1  0  0  0  0
  1 10  1  0  0  0  0
  1 12  1  6  0  0  0
  2  3  1  0  0  0  0
  2  6  1  0  0  0  0
  2 13  1  1  0  0  0
  3  4  2  0  0  0  0
  3  5  1  0  0  0  0
  5 14  1  0  0  0  0
  6 15  1  0  0  0  0
  7  8  2  0  0  0  0
  7  9  1  0  0  0  0
  9 16  1  0  0  0  0
 10 17  1  0  0  0  0
M  ISO  1  11  99
M  END
>  <DRUGBANK_ID>
DB09436

>  <COMMON_NAME>
Technetium Tc-99m succimer

>  <CAS_NUMBER>
65438-08-6

>  <UNII>
494JNQ8L28

>  <SYNONYMS>
(99m)Tc-DMSA; Technetium (99mTc) succimer; Technetium Tc 99m dimercaptosuccinic acid; Technetium tc 99m succimer

$$$$
