
 OpenBabel10282417072D

 75 76  0  0  0  0  0  0  0  0999 V2000
    5.7158   -3.5211    0.0000 C   0  0  0  0  0  0  0  0  0  0  0  0
    6.9533   -4.2355    0.0000 C   0  0  0  0  0  0  0  0  0  0  0  0
    2.8579   -5.7750    0.0000 C   0  0  0  0  0  0  0  0  0  0  0  0
   -2.1434   -3.7125    0.0000 C   0  0  0  0  0  0  0  0  0  0  0  0
   -2.1434   -4.5375    0.0000 C   0  0  0  0  0  0  0  0  0  0  0  0
    9.2881   -5.3625    0.0000 C   0  0  0  0  0  0  0  0  0  0  0  0
    7.8592   -7.8375    0.0000 C   0  0  0  0  0  0  0  0  0  0  0  0
    9.2881   -6.1875    0.0000 C   0  0  0  0  0  0  0  0  0  0  0  0
    4.2868   -4.9500    0.0000 C   0  0  0  0  0  0  0  0  0  0  0  0
    0.7145   -3.7125    0.0000 C   0  0  0  0  0  0  0  0  0  0  0  0
    0.0000   -3.3000    0.0000 C   0  0  0  0  0  0  0  0  0  0  0  0
    1.4289   -4.9500    0.0000 C   0  0  0  0  0  0  0  0  0  0  0  0
    5.0013   -4.5375    0.0000 C   0  0  0  0  0  0  0  0  0  0  0  0
    3.5724   -4.5375    0.0000 C   0  0  0  0  0  0  0  0  0  0  0  0
    2.1434   -4.5375    0.0000 C   0  0  0  0  0  0  0  0  0  0  0  0
    0.0000   -4.9500    0.0000 C   0  0  0  0  0  0  0  0  0  0  0  0
    7.1447   -4.9500    0.0000 C   0  0  0  0  0  0  0  0  0  0  0  0
    6.4302   -6.1875    0.0000 C   0  0  0  0  0  0  0  0  0  0  0  0
    5.3033   -5.6645    0.0000 C   0  0  0  0  0  0  0  0  0  0  0  0
    6.1283   -4.2355    0.0000 C   0  0  0  0  0  0  0  0  0  0  0  0
    0.7145   -4.5375    0.0000 C   0  0  0  0  0  0  0  0  0  0  0  0
    6.4302   -5.3625    0.0000 C   0  0  0  0  0  0  0  0  0  0  0  0
   -0.7145   -3.7125    0.0000 C   0  0  0  0  0  0  0  0  0  0  0  0
   -0.7145   -4.5375    0.0000 C   0  0  0  0  0  0  0  0  0  0  0  0
    7.8592   -5.3625    0.0000 C   0  0  0  0  0  0  0  0  0  0  0  0
    7.1447   -6.6000    0.0000 C   0  0  0  0  0  0  0  0  0  0  0  0
    7.8592   -6.1875    0.0000 C   0  0  0  0  0  0  0  0  0  0  0  0
    5.7158   -4.9500    0.0000 C   0  0  3  0  0  0  0  0  0  0  0  0
    4.8908   -6.3789    0.0000 N   0  0  0  0  0  0  0  0  0  0  0  0
    2.8579   -4.9500    0.0000 N   0  0  0  0  0  0  0  0  0  0  0  0
   -1.4289   -3.3000    0.0000 O   0  0  0  0  0  0  0  0  0  0  0  0
   -1.4289   -4.9500    0.0000 O   0  0  0  0  0  0  0  0  0  0  0  0
    8.5737   -4.9500    0.0000 O   0  0  0  0  0  0  0  0  0  0  0  0
    7.1447   -7.4250    0.0000 O   0  0  0  0  0  0  0  0  0  0  0  0
    8.5737   -6.6000    0.0000 O   0  0  0  0  0  0  0  0  0  0  0  0
    6.2508   -2.5944    0.0000 H   0  0  0  0  0  0  0  0  0  0  0  0
    4.6458   -3.5211    0.0000 H   0  0  0  0  0  0  0  0  0  0  0  0
    5.1808   -2.5945    0.0000 H   0  0  0  0  0  0  0  0  0  0  0  0
    7.4883   -5.1621    0.0000 H   0  0  0  0  0  0  0  0  0  0  0  0
    7.4883   -3.3089    0.0000 H   0  0  0  0  0  0  0  0  0  0  0  0
    8.0233   -4.2355    0.0000 H   0  0  0  0  0  0  0  0  0  0  0  0
    1.9313   -6.3100    0.0000 H   0  0  0  0  0  0  0  0  0  0  0  0
    3.7845   -6.3100    0.0000 H   0  0  0  0  0  0  0  0  0  0  0  0
    2.8579   -6.8450    0.0000 H   0  0  0  0  0  0  0  0  0  0  0  0
   -3.0700   -3.1775    0.0000 H   0  0  0  0  0  0  0  0  0  0  0  0
   -2.1434   -4.7825    0.0000 H   0  0  0  0  0  0  0  0  0  0  0  0
   -3.0701   -4.2475    0.0000 H   0  0  0  0  0  0  0  0  0  0  0  0
   -2.1434   -3.4675    0.0000 H   0  0  0  0  0  0  0  0  0  0  0  0
   -3.0700   -5.0725    0.0000 H   0  0  0  0  0  0  0  0  0  0  0  0
   -3.0701   -4.0025    0.0000 H   0  0  0  0  0  0  0  0  0  0  0  0
    9.2881   -6.4325    0.0000 H   0  0  0  0  0  0  0  0  0  0  0  0
   10.2148   -4.8275    0.0000 H   0  0  0  0  0  0  0  0  0  0  0  0
   10.2147   -5.8975    0.0000 H   0  0  0  0  0  0  0  0  0  0  0  0
    7.8592   -8.9075    0.0000 H   0  0  0  0  0  0  0  0  0  0  0  0
    8.7858   -7.3025    0.0000 H   0  0  0  0  0  0  0  0  0  0  0  0
    8.7859   -8.3725    0.0000 H   0  0  0  0  0  0  0  0  0  0  0  0
   10.2148   -6.7225    0.0000 H   0  0  0  0  0  0  0  0  0  0  0  0
    9.2881   -5.1175    0.0000 H   0  0  0  0  0  0  0  0  0  0  0  0
   10.2147   -5.6525    0.0000 H   0  0  0  0  0  0  0  0  0  0  0  0
    4.2868   -6.0200    0.0000 H   0  0  0  0  0  0  0  0  0  0  0  0
    3.3601   -5.4850    0.0000 H   0  0  0  0  0  0  0  0  0  0  0  0
    1.6082   -3.1965    0.0000 H   0  0  0  0  0  0  0  0  0  0  0  0
    0.0000   -2.2680    0.0000 H   0  0  0  0  0  0  0  0  0  0  0  0
    1.4289   -6.0200    0.0000 H   0  0  0  0  0  0  0  0  0  0  0  0
    0.5022   -5.4850    0.0000 H   0  0  0  0  0  0  0  0  0  0  0  0
    5.0013   -3.4675    0.0000 H   0  0  0  0  0  0  0  0  0  0  0  0
    5.9279   -4.0025    0.0000 H   0  0  0  0  0  0  0  0  0  0  0  0
    3.5724   -3.4675    0.0000 H   0  0  0  0  0  0  0  0  0  0  0  0
    2.6458   -4.0025    0.0000 H   0  0  0  0  0  0  0  0  0  0  0  0
    2.1434   -3.4675    0.0000 H   0  0  0  0  0  0  0  0  0  0  0  0
    3.0700   -4.0025    0.0000 H   0  0  0  0  0  0  0  0  0  0  0  0
    0.0000   -5.9820    0.0000 H   0  0  0  0  0  0  0  0  0  0  0  0
    7.1447   -3.9180    0.0000 H   0  0  0  0  0  0  0  0  0  0  0  0
    5.5365   -6.7035    0.0000 H   0  0  0  0  0  0  0  0  0  0  0  0
    6.6633   -5.1621    0.0000 H   0  0  0  0  0  0  0  0  0  0  0  0
  1 36  1  0  0  0  0
  1 37  1  0  0  0  0
  1 38  1  0  0  0  0
  2 39  1  0  0  0  0
  2 40  1  0  0  0  0
  2 41  1  0  0  0  0
  3 42  1  0  0  0  0
  3 43  1  0  0  0  0
  3 44  1  0  0  0  0
  4 45  1  0  0  0  0
  4 46  1  0  0  0  0
  4 47  1  0  0  0  0
  5 48  1  0  0  0  0
  5 49  1  0  0  0  0
  5 50  1  0  0  0  0
  6 51  1  0  0  0  0
  6 52  1  0  0  0  0
  6 53  1  0  0  0  0
  7 54  1  0  0  0  0
  7 55  1  0  0  0  0
  7 56  1  0  0  0  0
  8 57  1  0  0  0  0
  8 58  1  0  0  0  0
  8 59  1  0  0  0  0
  9 60  1  0  0  0  0
  9 61  1  0  0  0  0
 10 62  1  0  0  0  0
 11 10  2  0  0  0  0
 11 63  1  0  0  0  0
 12 64  1  0  0  0  0
 12 65  1  0  0  0  0
 13  9  1  0  0  0  0
 13 66  1  0  0  0  0
 13 67  1  0  0  0  0
 14  9  1  0  0  0  0
 14 68  1  0  0  0  0
 14 69  1  0  0  0  0
 15 12  1  0  0  0  0
 15 70  1  0  0  0  0
 15 71  1  0  0  0  0
 16 72  1  0  0  0  0
 17 73  1  0  0  0  0
 18 74  1  0  0  0  0
 20  1  1  0  0  0  0
 20  2  1  0  0  0  0
 20 75  1  0  0  0  0
 21 10  1  0  0  0  0
 21 12  1  0  0  0  0
 21 16  2  0  0  0  0
 22 17  2  0  0  0  0
 22 18  1  0  0  0  0
 23 11  1  0  0  0  0
 24 16  1  0  0  0  0
 24 23  2  0  0  0  0
 25 17  1  0  0  0  0
 26 18  2  0  0  0  0
 27 25  2  0  0  0  0
 27 26  1  0  0  0  0
 28 13  1  0  0  0  0
 28 19  1  0  0  0  0
 28 20  1  0  0  0  0
 28 22  1  0  0  0  0
 29 19  3  0  0  0  0
 30  3  1  0  0  0  0
 30 14  1  0  0  0  0
 30 15  1  0  0  0  0
 31  4  1  0  0  0  0
 31 23  1  0  0  0  0
 32  5  1  0  0  0  0
 32 24  1  0  0  0  0
 33  6  1  0  0  0  0
 33 25  1  0  0  0  0
 34  7  1  0  0  0  0
 34 26  1  0  0  0  0
 35  8  1  0  0  0  0
 35 27  1  0  0  0  0
M  END
>  <DRUGBANK_ID>
DB12923

>  <COMMON_NAME>
Gallopamil

>  <CAS_NUMBER>
16662-47-8

>  <UNII>
39WPC8JHR8

>  <SYNONYMS>
Gallopamil

$$$$
