
 OpenBabel10282417072D

 41 43  0  0  0  0  0  0  0  0999 V2000
    1.0993   -0.0375    0.0000 C   0  0  0  0  0  0  0  0  0  0  0  0
    1.8138    0.3748    0.0000 C   0  0  0  0  0  0  0  0  0  0  0  0
    1.8138    1.1999    0.0000 C   0  0  0  0  0  0  0  0  0  0  0  0
    1.0993    1.6124    0.0000 C   0  0  0  0  0  0  0  0  0  0  0  0
    0.3847    0.3748    0.0000 C   0  0  0  0  0  0  0  0  0  0  0  0
    0.3847    1.1999    0.0000 C   0  0  0  0  0  0  0  0  0  0  0  0
   -1.0441    0.3748    0.0000 C   0  0  0  0  0  0  0  0  0  0  0  0
   -2.4730    0.3748    0.0000 C   0  0  0  0  0  0  0  0  0  0  0  0
   -1.7586   -0.0375    0.0000 C   0  0  2  0  0  0  0  0  0  0  0  0
   -1.7586   -0.8625    0.0000 C   0  0  0  0  0  0  0  0  0  0  0  0
   -0.3296   -0.0375    0.0000 C   0  0  0  0  0  0  0  0  0  0  0  0
   -0.3296   -0.8625    0.0000 O   0  0  0  0  0  0  0  0  0  0  0  0
   -0.3296    1.6124    0.0000 O   0  0  0  0  0  0  0  0  0  0  0  0
   -1.0441    1.1999    0.0000 C   0  0  0  0  0  0  0  0  0  0  0  0
   -1.7586    1.6124    0.0000 O   0  0  0  0  0  0  0  0  0  0  0  0
   -3.1875   -0.0375    0.0000 C   0  0  0  0  0  0  0  0  0  0  0  0
   -2.4730    1.2000    0.0000 C   0  0  0  0  0  0  0  0  0  0  0  0
   -3.1873    1.6125    0.0000 C   0  0  0  0  0  0  0  0  0  0  0  0
   -3.9019    1.2000    0.0000 C   0  0  0  0  0  0  0  0  0  0  0  0
   -3.9019    0.3750    0.0000 C   0  0  0  0  0  0  0  0  0  0  0  0
   -2.4730   -1.2750    0.0000 C   0  0  2  0  0  0  0  0  0  0  0  0
   -3.1875   -0.8624    0.0000 O   0  0  0  0  0  0  0  0  0  0  0  0
   -2.4730   -2.1000    0.0000 C   0  0  0  0  0  0  0  0  0  0  0  0
   -1.7585    0.7875    0.0000 H   0  0  0  0  0  0  0  0  0  0  0  0
   -1.7585   -1.6875    0.0000 H   0  0  0  0  0  0  0  0  0  0  0  0
    1.0993   -1.0695    0.0000 H   0  0  0  0  0  0  0  0  0  0  0  0
    2.7075   -0.1413    0.0000 H   0  0  0  0  0  0  0  0  0  0  0  0
    2.7075    1.7159    0.0000 H   0  0  0  0  0  0  0  0  0  0  0  0
    1.0993    2.6444    0.0000 H   0  0  0  0  0  0  0  0  0  0  0  0
   -0.8319   -1.3975    0.0000 H   0  0  0  0  0  0  0  0  0  0  0  0
   -1.7586   -1.9325    0.0000 H   0  0  0  0  0  0  0  0  0  0  0  0
   -1.1411   -1.3310    0.0000 H   0  0  0  0  0  0  0  0  0  0  0  0
   -3.1876   -1.0695    0.0000 H   0  0  0  0  0  0  0  0  0  0  0  0
   -1.5792    1.7160    0.0000 H   0  0  0  0  0  0  0  0  0  0  0  0
   -3.1872    2.6445    0.0000 H   0  0  0  0  0  0  0  0  0  0  0  0
   -4.7956    1.7160    0.0000 H   0  0  0  0  0  0  0  0  0  0  0  0
   -4.7956   -0.1410    0.0000 H   0  0  0  0  0  0  0  0  0  0  0  0
   -3.1874    0.1076    0.0000 H   0  0  0  0  0  0  0  0  0  0  0  0
   -3.3996   -2.6350    0.0000 H   0  0  0  0  0  0  0  0  0  0  0  0
   -1.5464   -2.6350    0.0000 H   0  0  0  0  0  0  0  0  0  0  0  0
   -2.4730   -3.1700    0.0000 H   0  0  0  0  0  0  0  0  0  0  0  0
  1  2  2  0  0  0  0
  1  5  1  0  0  0  0
  1 26  1  0  0  0  0
  2  3  1  0  0  0  0
  2 27  1  0  0  0  0
  3  4  2  0  0  0  0
  3 28  1  0  0  0  0
  4  6  1  0  0  0  0
  4 29  1  0  0  0  0
  6  5  2  0  0  0  0
  6 13  1  0  0  0  0
  7  9  1  0  0  0  0
  8 16  2  0  0  0  0
  8 17  1  0  0  0  0
  9  8  1  0  0  0  0
  9 10  1  0  0  0  0
  9 24  1  6  0  0  0
 10 21  1  0  0  0  0
 10 30  1  0  0  0  0
 10 31  1  0  0  0  0
 11  5  1  0  0  0  0
 11  7  2  0  0  0  0
 11 12  1  0  0  0  0
 12 32  1  0  0  0  0
 13 14  1  0  0  0  0
 14  7  1  0  0  0  0
 14 15  2  0  0  0  0
 16 33  1  0  0  0  0
 17 18  2  0  0  0  0
 17 34  1  0  0  0  0
 18 19  1  0  0  0  0
 18 35  1  0  0  0  0
 19 20  2  0  0  0  0
 19 36  1  0  0  0  0
 20 16  1  0  0  0  0
 20 37  1  0  0  0  0
 21 22  1  0  0  0  0
 21 23  1  0  0  0  0
 21 25  1  6  0  0  0
 22 38  1  0  0  0  0
 23 39  1  0  0  0  0
 23 40  1  0  0  0  0
 23 41  1  0  0  0  0
M  END
>  <DRUGBANK_ID>
DB08736

>  <COMMON_NAME>
S,R-Warfarin alcohol

>  <CAS_NUMBER>
40281-79-6

>  <UNII>
62GD2Z2LXM

$$$$
