
 OpenBabel10282417072D

 45 47  0  0  0  0  0  0  0  0999 V2000
   -0.7145   -0.4125    0.0000 C   0  0  0  0  0  0  0  0  0  0  0  0
    0.0000    0.0000    0.0000 O   0  0  0  0  0  0  0  0  0  0  0  0
    0.7145   -0.4125    0.0000 C   0  0  0  0  0  0  0  0  0  0  0  0
    1.4289    0.0000    0.0000 C   0  0  0  0  0  0  0  0  0  0  0  0
    2.1434   -0.4125    0.0000 C   0  0  0  0  0  0  0  0  0  0  0  0
    2.8579    0.0000    0.0000 C   0  0  0  0  0  0  0  0  0  0  0  0
    3.5724   -0.4125    0.0000 C   0  0  0  0  0  0  0  0  0  0  0  0
    3.5724   -1.2375    0.0000 C   0  0  0  0  0  0  0  0  0  0  0  0
    2.8579   -1.6500    0.0000 C   0  0  0  0  0  0  0  0  0  0  0  0
    2.1434   -1.2375    0.0000 C   0  0  0  0  0  0  0  0  0  0  0  0
    1.4289   -1.6500    0.0000 C   0  0  0  0  0  0  0  0  0  0  0  0
    0.7145   -1.2375    0.0000 C   0  0  0  0  0  0  0  0  0  0  0  0
    4.2868   -1.6500    0.0000 C   0  0  3  0  0  0  0  0  0  0  0  0
    4.2868   -2.4750    0.0000 C   0  0  0  0  0  0  0  0  0  0  0  0
    5.0013   -1.2375    0.0000 C   0  0  0  0  0  0  0  0  0  0  0  0
    5.7158   -1.6500    0.0000 O   0  0  0  0  0  0  0  0  0  0  0  0
    5.0013   -0.4125    0.0000 O   0  0  0  0  0  0  0  0  0  0  0  0
    5.7158   -0.0000    0.0000 C   0  0  0  0  0  0  0  0  0  0  0  0
    5.7158    0.8250    0.0000 C   0  0  0  0  0  0  0  0  0  0  0  0
    6.4302    1.2375    0.0000 C   0  0  0  0  0  0  0  0  0  0  0  0
    7.1447    0.8250    0.0000 C   0  0  0  0  0  0  0  0  0  0  0  0
    7.1447   -0.0000    0.0000 C   0  0  0  0  0  0  0  0  0  0  0  0
    6.4302   -0.4125    0.0000 C   0  0  0  0  0  0  0  0  0  0  0  0
    7.8592    1.2375    0.0000 C   0  0  0  0  0  0  0  0  0  0  0  0
    7.8592    2.0625    0.0000 N   0  0  0  0  0  0  0  0  0  0  0  0
    8.5737    0.8250    0.0000 S   0  0  0  0  0  0  0  0  0  0  0  0
   -1.6411    0.1225    0.0000 H   0  0  0  0  0  0  0  0  0  0  0  0
   -0.7145   -1.4825    0.0000 H   0  0  0  0  0  0  0  0  0  0  0  0
   -1.6412   -0.9475    0.0000 H   0  0  0  0  0  0  0  0  0  0  0  0
    1.4289    1.0320    0.0000 H   0  0  0  0  0  0  0  0  0  0  0  0
    2.8579    1.0320    0.0000 H   0  0  0  0  0  0  0  0  0  0  0  0
    4.4661    0.1035    0.0000 H   0  0  0  0  0  0  0  0  0  0  0  0
    2.8579   -2.6820    0.0000 H   0  0  0  0  0  0  0  0  0  0  0  0
    1.4289   -2.6820    0.0000 H   0  0  0  0  0  0  0  0  0  0  0  0
   -0.1792   -1.7535    0.0000 H   0  0  0  0  0  0  0  0  0  0  0  0
    3.3601   -2.1850    0.0000 H   0  0  0  0  0  0  0  0  0  0  0  0
    3.3602   -3.0100    0.0000 H   0  0  0  0  0  0  0  0  0  0  0  0
    5.2134   -3.0100    0.0000 H   0  0  0  0  0  0  0  0  0  0  0  0
    4.2868   -3.5450    0.0000 H   0  0  0  0  0  0  0  0  0  0  0  0
    4.8221    1.3410    0.0000 H   0  0  0  0  0  0  0  0  0  0  0  0
    6.4302    2.2695    0.0000 H   0  0  0  0  0  0  0  0  0  0  0  0
    8.0384   -0.5160    0.0000 H   0  0  0  0  0  0  0  0  0  0  0  0
    6.4302   -1.4445    0.0000 H   0  0  0  0  0  0  0  0  0  0  0  0
    8.7118    2.5548    0.0000 H   0  0  0  0  0  0  0  0  0  0  0  0
    7.0066    2.5547    0.0000 H   0  0  0  0  0  0  0  0  0  0  0  0
  1  2  1  0  0  0  0
  1 27  1  0  0  0  0
  1 28  1  0  0  0  0
  1 29  1  0  0  0  0
  2  3  1  0  0  0  0
  3  4  2  0  0  0  0
  3 12  1  0  0  0  0
  4  5  1  0  0  0  0
  4 30  1  0  0  0  0
  5  6  2  0  0  0  0
  5 10  1  0  0  0  0
  6  7  1  0  0  0  0
  6 31  1  0  0  0  0
  7  8  2  0  0  0  0
  7 32  1  0  0  0  0
  8  9  1  0  0  0  0
  8 13  1  0  0  0  0
  9 10  2  0  0  0  0
  9 33  1  0  0  0  0
 10 11  1  0  0  0  0
 11 12  2  0  0  0  0
 11 34  1  0  0  0  0
 12 35  1  0  0  0  0
 13 14  1  0  0  0  0
 13 15  1  0  0  0  0
 13 36  1  0  0  0  0
 14 37  1  0  0  0  0
 14 38  1  0  0  0  0
 14 39  1  0  0  0  0
 15 16  2  0  0  0  0
 15 17  1  0  0  0  0
 17 18  1  0  0  0  0
 18 19  2  0  0  0  0
 18 23  1  0  0  0  0
 19 20  1  0  0  0  0
 19 40  1  0  0  0  0
 20 21  2  0  0  0  0
 20 41  1  0  0  0  0
 21 22  1  0  0  0  0
 21 24  1  0  0  0  0
 22 23  2  0  0  0  0
 22 42  1  0  0  0  0
 23 43  1  0  0  0  0
 24 25  1  0  0  0  0
 24 26  2  0  0  0  0
 25 44  1  0  0  0  0
 25 45  1  0  0  0  0
M  END
>  <DRUGBANK_ID>
DB15377

>  <COMMON_NAME>
ATB-346

>  <CAS_NUMBER>
1226895-20-0

>  <UNII>
3096O7WP53

$$$$
