
 OpenBabel10282417072D

 66 69  0  0  1  0  0  0  0  0999 V2000
    4.1960   -5.8286    0.0000 N   0  0  0  0  0  0  0  0  0  0  0  0
    3.3890   -6.0001    0.0000 C   0  0  0  0  0  0  0  0  0  0  0  0
    2.8370   -5.3870    0.0000 N   0  0  0  0  0  0  0  0  0  0  0  0
    2.0300   -5.5585    0.0000 C   0  0  0  0  0  0  0  0  0  0  0  0
    1.4780   -4.9454    0.0000 C   0  0  0  0  0  0  0  0  0  0  0  0
    1.7329   -4.1608    0.0000 C   0  0  3  0  0  0  0  0  0  0  0  0
    2.5399   -3.9893    0.0000 C   0  0  0  0  0  0  0  0  0  0  0  0
    3.0919   -4.6024    0.0000 C   0  0  0  0  0  0  0  0  0  0  0  0
    1.1809   -3.5477    0.0000 C   0  0  0  0  0  0  0  0  0  0  0  0
    1.4358   -2.7631    0.0000 N   0  0  0  0  0  0  0  0  0  0  0  0
    0.8838   -2.1500    0.0000 C   0  0  0  0  0  0  0  0  0  0  0  0
    0.0768   -2.3215    0.0000 O   0  0  0  0  0  0  0  0  0  0  0  0
    1.1387   -1.3654    0.0000 C   0  0  2  0  0  0  0  0  0  0  0  0
    0.6538   -0.6979    0.0000 C   0  0  0  0  0  0  0  0  0  0  0  0
    1.1387   -0.0305    0.0000 C   0  0  0  0  0  0  0  0  0  0  0  0
    1.9233   -0.2854    0.0000 C   0  0  1  0  0  0  0  0  0  0  0  0
    2.6378    0.1271    0.0000 C   0  0  0  0  0  0  0  0  0  0  0  0
    3.3523   -0.2854    0.0000 N   0  0  0  0  0  0  0  0  0  0  0  0
    3.3523   -1.1104    0.0000 C   0  0  0  0  0  0  0  0  0  0  0  0
    2.6378   -1.5229    0.0000 C   0  0  0  0  0  0  0  0  0  0  0  0
    2.6378   -2.3479    0.0000 O   0  0  0  0  0  0  0  0  0  0  0  0
    1.9233   -1.1104    0.0000 N   0  0  0  0  0  0  0  0  0  0  0  0
    4.0668    0.1271    0.0000 S   0  0  0  0  0  0  0  0  0  0  0  0
    3.6543    0.8415    0.0000 O   0  0  0  0  0  0  0  0  0  0  0  0
    4.4793   -0.5874    0.0000 O   0  0  0  0  0  0  0  0  0  0  0  0
    4.7812    0.5396    0.0000 C   0  0  0  0  0  0  0  0  0  0  0  0
    5.4957    0.1271    0.0000 C   0  0  0  0  0  0  0  0  0  0  0  0
    6.2102    0.5396    0.0000 C   0  0  0  0  0  0  0  0  0  0  0  0
    6.9246    0.1271    0.0000 C   0  0  0  0  0  0  0  0  0  0  0  0
    6.9246   -0.6979    0.0000 C   0  0  0  0  0  0  0  0  0  0  0  0
    6.2102   -1.1104    0.0000 C   0  0  0  0  0  0  0  0  0  0  0  0
    5.4957   -0.6979    0.0000 C   0  0  0  0  0  0  0  0  0  0  0  0
    3.1341   -6.7847    0.0000 N   0  0  0  0  0  0  0  0  0  0  0  0
    3.6861   -7.3978    0.0000 O   0  0  0  0  0  0  0  0  0  0  0  0
    4.8547   -6.5603    0.0000 H   0  0  0  0  0  0  0  0  0  0  0  0
    4.5003   -4.8923    0.0000 H   0  0  0  0  0  0  0  0  0  0  0  0
    1.6993   -6.5761    0.0000 H   0  0  0  0  0  0  0  0  0  0  0  0
    0.9834   -5.7809    0.0000 H   0  0  0  0  0  0  0  0  0  0  0  0
    0.4314   -5.1679    0.0000 H   0  0  0  0  0  0  0  0  0  0  0  0
    0.7620   -4.1502    0.0000 H   0  0  0  0  0  0  0  0  0  0  0  0
    2.4489   -4.9560    0.0000 H   0  0  0  0  0  0  0  0  0  0  0  0
    2.8706   -2.9717    0.0000 H   0  0  0  0  0  0  0  0  0  0  0  0
    3.5865   -3.7669    0.0000 H   0  0  0  0  0  0  0  0  0  0  0  0
    4.1385   -4.3799    0.0000 H   0  0  0  0  0  0  0  0  0  0  0  0
    3.8079   -5.3976    0.0000 H   0  0  0  0  0  0  0  0  0  0  0  0
    0.1343   -3.7702    0.0000 H   0  0  0  0  0  0  0  0  0  0  0  0
    0.4649   -2.7525    0.0000 H   0  0  0  0  0  0  0  0  0  0  0  0
    2.3988   -2.5584    0.0000 H   0  0  0  0  0  0  0  0  0  0  0  0
    0.0819   -1.5328    0.0000 H   0  0  0  0  0  0  0  0  0  0  0  0
   -0.4162   -0.6979    0.0000 H   0  0  0  0  0  0  0  0  0  0  0  0
    0.1680    0.2555    0.0000 H   0  0  0  0  0  0  0  0  0  0  0  0
    0.8080    0.9871    0.0000 H   0  0  0  0  0  0  0  0  0  0  0  0
    1.8953    0.7261    0.0000 H   0  0  0  0  0  0  0  0  0  0  0  0
    1.0577   -0.9143    0.0000 H   0  0  0  0  0  0  0  0  0  0  0  0
    2.6378    1.1971    0.0000 H   0  0  0  0  0  0  0  0  0  0  0  0
    3.5644    0.6621    0.0000 H   0  0  0  0  0  0  0  0  0  0  0  0
    4.2789   -1.6454    0.0000 H   0  0  0  0  0  0  0  0  0  0  0  0
    3.3523   -2.1804    0.0000 H   0  0  0  0  0  0  0  0  0  0  0  0
    4.7812    1.6096    0.0000 H   0  0  0  0  0  0  0  0  0  0  0  0
    5.7078    1.0746    0.0000 H   0  0  0  0  0  0  0  0  0  0  0  0
    6.2102    1.5716    0.0000 H   0  0  0  0  0  0  0  0  0  0  0  0
    7.8183    0.6431    0.0000 H   0  0  0  0  0  0  0  0  0  0  0  0
    7.8183   -1.2139    0.0000 H   0  0  0  0  0  0  0  0  0  0  0  0
    6.2102   -2.1424    0.0000 H   0  0  0  0  0  0  0  0  0  0  0  0
    4.6020   -1.2139    0.0000 H   0  0  0  0  0  0  0  0  0  0  0  0
    3.3965   -8.2889    0.0000 H   0  0  0  0  0  0  0  0  0  0  0  0
  1  2  1  0  0  0  0
  1 35  1  0  0  0  0
  1 36  1  0  0  0  0
  2  3  1  0  0  0  0
  2 33  2  0  0  0  0
  3  4  1  0  0  0  0
  3  8  1  0  0  0  0
  4  5  1  0  0  0  0
  4 37  1  0  0  0  0
  4 38  1  0  0  0  0
  5  6  1  0  0  0  0
  5 39  1  0  0  0  0
  5 40  1  0  0  0  0
  6  7  1  0  0  0  0
  6  9  1  0  0  0  0
  6 41  1  0  0  0  0
  7  8  1  0  0  0  0
  7 42  1  0  0  0  0
  7 43  1  0  0  0  0
  8 44  1  0  0  0  0
  8 45  1  0  0  0  0
  9 10  1  0  0  0  0
  9 46  1  0  0  0  0
  9 47  1  0  0  0  0
 10 11  1  0  0  0  0
 10 48  1  0  0  0  0
 11 12  2  0  0  0  0
 13 11  1  0  0  0  0
 13 14  1  0  0  0  0
 13 22  1  0  0  0  0
 13 49  1  1  0  0  0
 14 15  1  0  0  0  0
 14 50  1  0  0  0  0
 14 51  1  0  0  0  0
 15 16  1  0  0  0  0
 15 52  1  0  0  0  0
 15 53  1  0  0  0  0
 16 17  1  0  0  0  0
 16 22  1  0  0  0  0
 16 54  1  6  0  0  0
 17 18  1  0  0  0  0
 17 55  1  0  0  0  0
 17 56  1  0  0  0  0
 18 19  1  0  0  0  0
 18 23  1  0  0  0  0
 19 20  1  0  0  0  0
 19 57  1  0  0  0  0
 19 58  1  0  0  0  0
 20 21  2  0  0  0  0
 20 22  1  0  0  0  0
 23 24  2  0  0  0  0
 23 25  2  0  0  0  0
 23 26  1  0  0  0  0
 26 27  1  0  0  0  0
 26 59  1  0  0  0  0
 26 60  1  0  0  0  0
 27 28  2  0  0  0  0
 27 32  1  0  0  0  0
 28 29  1  0  0  0  0
 28 61  1  0  0  0  0
 29 30  2  0  0  0  0
 29 62  1  0  0  0  0
 30 31  1  0  0  0  0
 30 63  1  0  0  0  0
 31 32  2  0  0  0  0
 31 64  1  0  0  0  0
 32 65  1  0  0  0  0
 33 34  1  0  0  0  0
 34 66  1  0  0  0  0
M  END
>  <DRUGBANK_ID>
DB02723

>  <SECONDARY_ACCESSION_NUMBERS>
EXPT00716

>  <COMMON_NAME>
4-Oxo-2-Phenylmethanesulfonyl-Octahydro-Pyrrolo[1,2-a]Pyrazine-6-Carboxylic Acid [1-(N-Hydroxycarbamimidoyl)-Piperidin-4-Ylmethyl]-Amide

$$$$
