FC3
 OpenBabel10282417072D

 25 26  0  0  0  0  0  0  0  0999 V2000
    0.6727   -1.0068    0.0000 O   0  0  0  0  0  0  0  0  0  0  0  0
    0.4177   -1.7914    0.0000 C   0  0  0  0  0  0  0  0  0  0  0  0
    0.9026   -2.4589    0.0000 C   0  0  0  0  0  0  0  0  0  0  0  0
    0.5671   -3.2126    0.0000 O   0  0  0  0  0  0  0  0  0  0  0  0
   -0.4073   -1.7914    0.0000 C   0  0  0  0  0  0  0  0  0  0  0  0
   -0.6622   -1.0068    0.0000 C   0  0  0  0  0  0  0  0  0  0  0  0
    0.0052   -0.5219    0.0000 C   0  0  0  0  0  0  0  0  0  0  0  0
    1.7231   -2.3726    0.0000 O   0  0  0  0  0  0  0  0  0  0  0  0
    0.0052    0.3031    0.0000 C   0  0  0  0  0  0  0  0  0  0  0  0
   -0.7092    0.7156    0.0000 C   0  0  0  0  0  0  0  0  0  0  0  0
   -0.7092    1.5406    0.0000 C   0  0  0  0  0  0  0  0  0  0  0  0
    0.0052    1.9531    0.0000 C   0  0  0  0  0  0  0  0  0  0  0  0
    0.7197    1.5406    0.0000 C   0  0  0  0  0  0  0  0  0  0  0  0
    0.7197    0.7156    0.0000 C   0  0  0  0  0  0  0  0  0  0  0  0
   -1.4237    0.3031    0.0000 C   0  0  0  0  0  0  0  0  0  0  0  0
   -2.1382   -0.1094    0.0000 F   0  0  0  0  0  0  0  0  0  0  0  0
   -1.8362    1.0176    0.0000 F   0  0  0  0  0  0  0  0  0  0  0  0
   -1.0112   -0.4114    0.0000 F   0  0  0  0  0  0  0  0  0  0  0  0
   -0.3648   -3.3106    0.0000 H   0  0  0  0  0  0  0  0  0  0  0  0
   -1.0139   -2.6263    0.0000 H   0  0  0  0  0  0  0  0  0  0  0  0
   -1.6437   -0.6879    0.0000 H   0  0  0  0  0  0  0  0  0  0  0  0
   -1.6029    2.0566    0.0000 H   0  0  0  0  0  0  0  0  0  0  0  0
    0.0052    2.9851    0.0000 H   0  0  0  0  0  0  0  0  0  0  0  0
    1.6134    2.0566    0.0000 H   0  0  0  0  0  0  0  0  0  0  0  0
    1.6134    0.1996    0.0000 H   0  0  0  0  0  0  0  0  0  0  0  0
  1  2  1  0  0  0  0
  1  7  1  0  0  0  0
  2  3  1  0  0  0  0
  2  5  2  0  0  0  0
  3  4  1  0  0  0  0
  3  8  2  0  0  0  0
  4 19  1  0  0  0  0
  5  6  1  0  0  0  0
  5 20  1  0  0  0  0
  6  7  2  0  0  0  0
  6 21  1  0  0  0  0
  7  9  1  0  0  0  0
  9 10  1  0  0  0  0
  9 14  2  0  0  0  0
 10 11  2  0  0  0  0
 10 15  1  0  0  0  0
 11 12  1  0  0  0  0
 11 22  1  0  0  0  0
 12 13  2  0  0  0  0
 12 23  1  0  0  0  0
 13 14  1  0  0  0  0
 13 24  1  0  0  0  0
 14 25  1  0  0  0  0
 15 16  1  0  0  0  0
 15 17  1  0  0  0  0
 15 18  1  0  0  0  0
M  END
>  <DRUGBANK_ID>
DB07759

>  <COMMON_NAME>
5-[2-(TRIFLUOROMETHYL)PHENYL]-2-FUROIC ACID

$$$$
