
 OpenBabel10282417072D

 18 17  0  0  0  0  0  0  0  0999 V2000
    1.7605    1.8414    0.0000 O   0  0  0  0  0  0  0  0  0  0  0  0
    2.4750    1.4289    0.0000 C   0  0  0  0  0  0  0  0  0  0  0  0
    3.1895    1.8414    0.0000 C   0  0  0  0  0  0  0  0  0  0  0  0
    3.9039    1.4289    0.0000 C   0  0  0  0  0  0  0  0  0  0  0  0
    4.6184    1.8414    0.0000 C   0  0  0  0  0  0  0  0  0  0  0  0
    5.3329    1.4289    0.0000 C   0  0  0  0  0  0  0  0  0  0  0  0
    6.0474    1.8414    0.0000 O   0  0  0  0  0  0  0  0  0  0  0  0
    5.3329    0.6039    0.0000 O   0  0  0  0  0  0  0  0  0  0  0  0
    1.7605    2.8114    0.0000 H   0  0  0  0  0  0  0  0  0  0  0  0
    2.4750    0.3589    0.0000 H   0  0  0  0  0  0  0  0  0  0  0  0
    3.4016    0.8939    0.0000 H   0  0  0  0  0  0  0  0  0  0  0  0
    3.1895    2.9114    0.0000 H   0  0  0  0  0  0  0  0  0  0  0  0
    4.1162    2.3764    0.0000 H   0  0  0  0  0  0  0  0  0  0  0  0
    3.9039    0.3589    0.0000 H   0  0  0  0  0  0  0  0  0  0  0  0
    4.8305    0.8939    0.0000 H   0  0  0  0  0  0  0  0  0  0  0  0
    4.6184    2.9114    0.0000 H   0  0  0  0  0  0  0  0  0  0  0  0
    5.5450    2.3764    0.0000 H   0  0  0  0  0  0  0  0  0  0  0  0
    6.8589    1.3729    0.0000 H   0  0  0  0  0  0  0  0  0  0  0  0
  1  2  1  0  0  0  0
  1  9  1  0  0  0  0
  2  3  1  0  0  0  0
  2 10  1  0  0  0  0
  2 11  1  0  0  0  0
  3  4  1  0  0  0  0
  3 12  1  0  0  0  0
  3 13  1  0  0  0  0
  4  5  1  0  0  0  0
  4 14  1  0  0  0  0
  4 15  1  0  0  0  0
  5  6  1  0  0  0  0
  5 16  1  0  0  0  0
  5 17  1  0  0  0  0
  6  7  1  0  0  0  0
  6  8  2  0  0  0  0
  7 18  1  0  0  0  0
M  END
>  <DRUGBANK_ID>
DB04781

>  <COMMON_NAME>
5-hydroxyvaleric acid

>  <CAS_NUMBER>
13392-69-3

>  <UNII>
H5EVV4LP59

>  <SYNONYMS>
4-oxy-butan-carbonsäure; 5-hydroxy-pentansäure; 5-hydroxypentanoic acid; delta-hydroxypentanoic acid; delta-hydroxyvaleric acid

$$$$
