
 OpenBabel10282417072D

 88 90  0  0  0  0  0  0  0  0999 V2000
   -5.9657    2.7370    0.0000 P   0  0  0  0  0  0  0  0  0  0  0  0
   -3.3912    1.7142    0.0000 P   0  0  3  0  0  0  0  0  0  0  0  0
   -1.9698    1.8610    0.0000 P   0  0  3  0  0  0  0  0  0  0  0  0
   -5.4825    0.2584    0.0000 O   0  0  0  0  0  0  0  0  0  0  0  0
   -6.5188    2.1249    0.0000 O   0  0  0  0  0  0  0  0  0  0  0  0
   -7.5765    0.6745    0.0000 O   0  0  0  0  0  0  0  0  0  0  0  0
   -4.0596    1.2304    0.0000 O   0  0  0  0  0  0  0  0  0  0  0  0
   -6.5779    3.2902    0.0000 O   0  0  0  0  0  0  0  0  0  0  0  0
   -5.4126    3.3492    0.0000 O   0  0  0  0  0  0  0  0  0  0  0  0
   -2.7229    2.1979    0.0000 O   0  0  0  0  0  0  0  0  0  0  0  0
   -1.2166    1.5242    0.0000 O   0  0  0  0  0  0  0  0  0  0  0  0
   -5.3535    2.1839    0.0000 O   0  0  0  0  0  0  0  0  0  0  0  0
    1.0427    0.5136    0.0000 O   0  0  0  0  0  0  0  0  0  0  0  0
   -2.9075    1.0458    0.0000 O   0  0  0  0  0  0  0  0  0  0  0  0
   -3.8750    2.3825    0.0000 O   0  0  0  0  0  0  0  0  0  0  0  0
   -1.6329    2.6142    0.0000 O   0  0  0  0  0  0  0  0  0  0  0  0
    1.5414    2.6387    0.0000 O   0  0  0  0  0  0  0  0  0  0  0  0
   -2.3067    1.1079    0.0000 O   0  0  0  0  0  0  0  0  0  0  0  0
    4.3844    2.9325    0.0000 O   0  0  0  0  0  0  0  0  0  0  0  0
    8.7336    2.5526    0.0000 O   0  5  0  0  0  0  0  0  0  0  0  0
    8.1502    1.2481    0.0000 O   0  0  0  0  0  0  0  0  0  0  0  0
   -6.5239   -0.7794    0.0000 N   0  0  0  0  0  0  0  0  0  0  0  0
   -6.5239   -2.1072    0.0000 N   0  0  0  0  0  0  0  0  0  0  0  0
   -8.0191   -0.6183    0.0000 N   0  0  0  0  0  0  0  0  0  0  0  0
   -8.7336   -1.8558    0.0000 N   0  0  0  0  0  0  0  0  0  0  0  0
   -8.0191   -3.0934    0.0000 N   0  0  0  0  0  0  0  0  0  0  0  0
    2.3794    1.4811    0.0000 N   0  0  0  0  0  0  0  0  0  0  0  0
    5.2223    1.7750    0.0000 N   0  0  0  0  0  0  0  0  0  0  0  0
    8.0653    2.0688    0.0000 N   0  3  0  0  0  0  0  0  0  0  0  0
   -6.2653    1.3398    0.0000 C   0  0  1  0  0  0  0  0  0  0  0  0
   -6.7514    0.6731    0.0000 C   0  0  2  0  0  0  0  0  0  0  0  0
   -5.4810    1.0834    0.0000 C   0  0  1  0  0  0  0  0  0  0  0  0
   -6.2676    0.0047    0.0000 C   0  0  1  0  0  0  0  0  0  0  0  0
   -4.8127    1.5672    0.0000 C   0  0  0  0  0  0  0  0  0  0  0  0
   -7.3045   -1.0308    0.0000 C   0  0  0  0  0  0  0  0  0  0  0  0
   -6.0424   -1.4433    0.0000 C   0  0  0  0  0  0  0  0  0  0  0  0
   -7.3045   -1.8558    0.0000 C   0  0  0  0  0  0  0  0  0  0  0  0
    0.2047    1.6711    0.0000 C   0  0  0  0  0  0  0  0  0  0  0  0
    0.9579    1.3342    0.0000 C   0  0  2  0  0  0  0  0  0  0  0  0
   -0.5483    2.0080    0.0000 C   0  0  0  0  0  0  0  0  0  0  0  0
   -0.1320    0.9179    0.0000 C   0  0  0  0  0  0  0  0  0  0  0  0
    0.5417    2.4242    0.0000 C   0  0  0  0  0  0  0  0  0  0  0  0
   -8.0191   -2.2684    0.0000 C   0  0  0  0  0  0  0  0  0  0  0  0
    1.6262    1.8180    0.0000 C   0  0  0  0  0  0  0  0  0  0  0  0
   -8.7336   -1.0308    0.0000 C   0  0  0  0  0  0  0  0  0  0  0  0
    3.0477    1.9649    0.0000 C   0  0  0  0  0  0  0  0  0  0  0  0
    3.8008    1.6280    0.0000 C   0  0  0  0  0  0  0  0  0  0  0  0
    4.4692    2.1119    0.0000 C   0  0  0  0  0  0  0  0  0  0  0  0
    5.8906    2.2587    0.0000 C   0  0  0  0  0  0  0  0  0  0  0  0
    6.6438    1.9218    0.0000 C   0  0  0  0  0  0  0  0  0  0  0  0
    7.3121    2.4057    0.0000 C   0  0  0  0  0  0  0  0  0  0  0  0
    2.4320    0.9723    0.0000 H   0  0  0  0  0  0  0  0  0  0  0  0
   -8.4621   -3.3492    0.0000 H   0  0  0  0  0  0  0  0  0  0  0  0
   -7.5761   -3.3492    0.0000 H   0  0  0  0  0  0  0  0  0  0  0  0
    5.2749    1.2661    0.0000 H   0  0  0  0  0  0  0  0  0  0  0  0
   -8.0601    1.5154    0.0000 H   0  0  0  0  0  0  0  0  0  0  0  0
   -6.3745    4.2386    0.0000 H   0  0  0  0  0  0  0  0  0  0  0  0
   -4.4641    3.1459    0.0000 H   0  0  0  0  0  0  0  0  0  0  0  0
    0.2570   -0.0552    0.0000 H   0  0  0  0  0  0  0  0  0  0  0  0
   -3.3037    0.1604    0.0000 H   0  0  0  0  0  0  0  0  0  0  0  0
   -0.6680    2.7139    0.0000 H   0  0  0  0  0  0  0  0  0  0  0  0
   -7.3218    1.5090    0.0000 H   0  0  0  0  0  0  0  0  0  0  0  0
   -7.2356    1.6273    0.0000 H   0  0  0  0  0  0  0  0  0  0  0  0
   -4.5285    0.5959    0.0000 H   0  0  0  0  0  0  0  0  0  0  0  0
   -5.5123   -0.7532    0.0000 H   0  0  0  0  0  0  0  0  0  0  0  0
   -4.9228    2.6315    0.0000 H   0  0  0  0  0  0  0  0  0  0  0  0
   -5.7895    2.0041    0.0000 H   0  0  0  0  0  0  0  0  0  0  0  0
   -5.0104   -1.4433    0.0000 H   0  0  0  0  0  0  0  0  0  0  0  0
    0.0912    0.7068    0.0000 H   0  0  0  0  0  0  0  0  0  0  0  0
   -0.6583    3.0723    0.0000 H   0  0  0  0  0  0  0  0  0  0  0  0
    0.3185    2.6354    0.0000 H   0  0  0  0  0  0  0  0  0  0  0  0
   -1.1963    0.8076    0.0000 H   0  0  0  0  0  0  0  0  0  0  0  0
    0.4956    0.0513    0.0000 H   0  0  0  0  0  0  0  0  0  0  0  0
   -0.5687   -0.0589    0.0000 H   0  0  0  0  0  0  0  0  0  0  0  0
    1.6060    2.5340    0.0000 H   0  0  0  0  0  0  0  0  0  0  0  0
   -0.0856    3.2910    0.0000 H   0  0  0  0  0  0  0  0  0  0  0  0
    0.9787    3.4009    0.0000 H   0  0  0  0  0  0  0  0  0  0  0  0
   -9.6273   -0.5148    0.0000 H   0  0  0  0  0  0  0  0  0  0  0  0
    2.9377    3.0292    0.0000 H   0  0  0  0  0  0  0  0  0  0  0  0
    3.9145    2.5923    0.0000 H   0  0  0  0  0  0  0  0  0  0  0  0
    3.9108    0.5637    0.0000 H   0  0  0  0  0  0  0  0  0  0  0  0
    4.7775    1.1911    0.0000 H   0  0  0  0  0  0  0  0  0  0  0  0
    5.7806    3.3230    0.0000 H   0  0  0  0  0  0  0  0  0  0  0  0
    6.7573    2.8861    0.0000 H   0  0  0  0  0  0  0  0  0  0  0  0
    6.7539    0.8575    0.0000 H   0  0  0  0  0  0  0  0  0  0  0  0
    7.6206    1.4850    0.0000 H   0  0  0  0  0  0  0  0  0  0  0  0
    7.2020    3.4700    0.0000 H   0  0  0  0  0  0  0  0  0  0  0  0
    6.3353    2.8425    0.0000 H   0  0  0  0  0  0  0  0  0  0  0  0
  1  5  1  0  0  0  0
  1  8  1  0  0  0  0
  1  9  1  0  0  0  0
  1 12  2  0  0  0  0
  2  7  1  0  0  0  0
  2 10  1  0  0  0  0
  2 14  1  0  0  0  0
  2 15  2  0  0  0  0
  3 10  1  0  0  0  0
  3 11  1  0  0  0  0
  3 16  1  0  0  0  0
  3 18  2  0  0  0  0
  4 32  1  0  0  0  0
  4 33  1  0  0  0  0
  6 56  1  0  0  0  0
  7 34  1  0  0  0  0
  8 57  1  0  0  0  0
  9 58  1  0  0  0  0
 11 40  1  0  0  0  0
 13 59  1  0  0  0  0
 14 60  1  0  0  0  0
 16 61  1  0  0  0  0
 17 44  2  0  0  0  0
 19 48  2  0  0  0  0
 20 29  1  0  0  0  0
 21 29  2  0  0  0  0
 22 35  1  0  0  0  0
 22 36  1  0  0  0  0
 23 36  2  0  0  0  0
 23 37  1  0  0  0  0
 24 35  2  0  0  0  0
 24 45  1  0  0  0  0
 25 43  1  0  0  0  0
 25 45  2  0  0  0  0
 26 43  1  0  0  0  0
 26 53  1  0  0  0  0
 26 54  1  0  0  0  0
 27 44  1  0  0  0  0
 27 46  1  0  0  0  0
 27 52  1  0  0  0  0
 28 48  1  0  0  0  0
 28 49  1  0  0  0  0
 28 55  1  0  0  0  0
 29 51  1  0  0  0  0
 30  5  1  0  0  0  0
 30 31  1  0  0  0  0
 30 32  1  0  0  0  0
 30 62  1  1  0  0  0
 31  6  1  0  0  0  0
 31 33  1  0  0  0  0
 31 63  1  1  0  0  0
 32 34  1  0  0  0  0
 32 64  1  6  0  0  0
 33 22  1  0  0  0  0
 33 65  1  6  0  0  0
 34 66  1  0  0  0  0
 34 67  1  0  0  0  0
 35 37  1  0  0  0  0
 36 68  1  0  0  0  0
 37 43  2  0  0  0  0
 38 39  1  0  0  0  0
 38 40  1  0  0  0  0
 38 41  1  0  0  0  0
 38 42  1  0  0  0  0
 39 13  1  0  0  0  0
 39 44  1  0  0  0  0
 39 69  1  1  0  0  0
 40 70  1  0  0  0  0
 40 71  1  0  0  0  0
 41 72  1  0  0  0  0
 41 73  1  0  0  0  0
 41 74  1  0  0  0  0
 42 75  1  0  0  0  0
 42 76  1  0  0  0  0
 42 77  1  0  0  0  0
 45 78  1  0  0  0  0
 46 47  1  0  0  0  0
 46 79  1  0  0  0  0
 46 80  1  0  0  0  0
 47 48  1  0  0  0  0
 47 81  1  0  0  0  0
 47 82  1  0  0  0  0
 49 50  1  0  0  0  0
 49 83  1  0  0  0  0
 49 84  1  0  0  0  0
 50 51  1  0  0  0  0
 50 85  1  0  0  0  0
 50 86  1  0  0  0  0
 51 87  1  0  0  0  0
 51 88  1  0  0  0  0
M  CHG  2  20  -1  29   1
M  END
>  <DRUGBANK_ID>
DB04230

>  <SECONDARY_ACCESSION_NUMBERS>
EXPT02369

>  <COMMON_NAME>
Nitromethyldethia coenzyme A

$$$$
