
 OpenBabel10282417072D

 30 31  0  0  0  0  0  0  0  0999 V2000
    0.7145   -1.8562    0.0000 C   0  0  0  0  0  0  0  0  0  0  0  0
    0.7145   -1.0312    0.0000 C   0  0  0  0  0  0  0  0  0  0  0  0
    0.0000   -0.6188    0.0000 C   0  0  0  0  0  0  0  0  0  0  0  0
   -0.7144   -1.0313    0.0000 N   0  0  0  0  0  0  0  0  0  0  0  0
   -1.4289   -0.6188    0.0000 C   0  0  0  0  0  0  0  0  0  0  0  0
   -2.1433   -1.0314    0.0000 N   0  0  0  0  0  0  0  0  0  0  0  0
   -1.4289    0.2061    0.0000 N   0  0  0  0  0  0  0  0  0  0  0  0
   -0.7144    0.6186    0.0000 C   0  0  0  0  0  0  0  0  0  0  0  0
   -0.7145    1.4436    0.0000 N   0  0  0  0  0  0  0  0  0  0  0  0
    0.0000    0.2061    0.0000 C   0  0  0  0  0  0  0  0  0  0  0  0
    0.7144    0.6187    0.0000 C   0  0  0  0  0  0  0  0  0  0  0  0
    0.7144    1.4437    0.0000 C   0  0  0  0  0  0  0  0  0  0  0  0
    1.4288    1.8562    0.0000 C   0  0  0  0  0  0  0  0  0  0  0  0
    2.1433    1.4437    0.0000 C   0  0  0  0  0  0  0  0  0  0  0  0
    2.1433    0.6187    0.0000 C   0  0  0  0  0  0  0  0  0  0  0  0
    1.4289    0.2062    0.0000 C   0  0  0  0  0  0  0  0  0  0  0  0
   -0.2121   -2.3912    0.0000 H   0  0  0  0  0  0  0  0  0  0  0  0
    1.6411   -2.3912    0.0000 H   0  0  0  0  0  0  0  0  0  0  0  0
    0.7145   -2.9262    0.0000 H   0  0  0  0  0  0  0  0  0  0  0  0
    1.6411   -0.4961    0.0000 H   0  0  0  0  0  0  0  0  0  0  0  0
    0.7144    0.0388    0.0000 H   0  0  0  0  0  0  0  0  0  0  0  0
   -2.9960   -0.5393    0.0000 H   0  0  0  0  0  0  0  0  0  0  0  0
   -2.1432   -2.0159    0.0000 H   0  0  0  0  0  0  0  0  0  0  0  0
    0.1380    1.9360    0.0000 H   0  0  0  0  0  0  0  0  0  0  0  0
   -1.5672    1.9357    0.0000 H   0  0  0  0  0  0  0  0  0  0  0  0
   -0.1793    1.9597    0.0000 H   0  0  0  0  0  0  0  0  0  0  0  0
    1.4288    2.8882    0.0000 H   0  0  0  0  0  0  0  0  0  0  0  0
    3.0370    1.9597    0.0000 H   0  0  0  0  0  0  0  0  0  0  0  0
    3.0370    0.1027    0.0000 H   0  0  0  0  0  0  0  0  0  0  0  0
    1.4289   -0.8258    0.0000 H   0  0  0  0  0  0  0  0  0  0  0  0
  1  2  1  0  0  0  0
  1 17  1  0  0  0  0
  1 18  1  0  0  0  0
  1 19  1  0  0  0  0
  2  3  1  0  0  0  0
  2 20  1  0  0  0  0
  2 21  1  0  0  0  0
  3  4  1  0  0  0  0
  4  5  2  0  0  0  0
  5  6  1  0  0  0  0
  5  7  1  0  0  0  0
  6 22  1  0  0  0  0
  6 23  1  0  0  0  0
  7  8  2  0  0  0  0
  8  9  1  0  0  0  0
  8 10  1  0  0  0  0
  9 24  1  0  0  0  0
  9 25  1  0  0  0  0
 10  3  2  0  0  0  0
 10 11  1  0  0  0  0
 11 12  1  0  0  0  0
 12 13  2  0  0  0  0
 12 26  1  0  0  0  0
 13 14  1  0  0  0  0
 13 27  1  0  0  0  0
 14 15  2  0  0  0  0
 14 28  1  0  0  0  0
 15 16  1  0  0  0  0
 15 29  1  0  0  0  0
 16 11  2  0  0  0  0
 16 30  1  0  0  0  0
M  END
>  <DRUGBANK_ID>
DB07577

>  <COMMON_NAME>
2,4-Diamino-5-phenyl-6-ethylpyrimidine

>  <CAS_NUMBER>
27653-49-2

>  <UNII>
KMJ59LN22F

>  <SYNONYMS>
2,4-Diamino-6-ethyl-5-phenylpyrimidine

$$$$
