
 OpenBabel10282417072D

 32 34  0  0  0  0  0  0  0  0999 V2000
    0.2122   -2.0569    0.0000 C   0  0  0  0  0  0  0  0  0  0  0  0
    0.0407   -1.2500    0.0000 C   0  0  0  0  0  0  0  0  0  0  0  0
    0.6538   -0.6979    0.0000 C   0  0  3  0  0  0  0  0  0  0  0  0
    1.1387   -0.0305    0.0000 C   0  0  0  0  0  0  0  0  0  0  0  0
    1.9233   -0.2854    0.0000 C   0  0  0  0  0  0  0  0  0  0  0  0
    2.6378    0.1271    0.0000 C   0  0  0  0  0  0  0  0  0  0  0  0
    3.3523   -0.2854    0.0000 C   0  0  0  0  0  0  0  0  0  0  0  0
    3.3523   -1.1104    0.0000 C   0  0  0  0  0  0  0  0  0  0  0  0
    2.6378   -1.5229    0.0000 C   0  0  0  0  0  0  0  0  0  0  0  0
    1.9233   -1.1104    0.0000 C   0  0  0  0  0  0  0  0  0  0  0  0
    1.1387   -1.3654    0.0000 C   0  0  0  0  0  0  0  0  0  0  0  0
    4.0668   -1.5229    0.0000 F   0  0  0  0  0  0  0  0  0  0  0  0
    0.0407   -0.1459    0.0000 C   0  0  0  0  0  0  0  0  0  0  0  0
   -0.7663   -0.3174    0.0000 C   0  0  0  0  0  0  0  0  0  0  0  0
   -1.1788    0.3970    0.0000 N   0  0  0  0  0  0  0  0  0  0  0  0
   -0.6267    1.0101    0.0000 C   0  0  0  0  0  0  0  0  0  0  0  0
    0.1269    0.6746    0.0000 N   0  0  0  0  0  0  0  0  0  0  0  0
   -0.5830   -2.7729    0.0000 H   0  0  0  0  0  0  0  0  0  0  0  0
    1.2298   -2.3876    0.0000 H   0  0  0  0  0  0  0  0  0  0  0  0
    0.4347   -3.1035    0.0000 H   0  0  0  0  0  0  0  0  0  0  0  0
   -0.9769   -0.9194    0.0000 H   0  0  0  0  0  0  0  0  0  0  0  0
   -0.1818   -0.2034    0.0000 H   0  0  0  0  0  0  0  0  0  0  0  0
    0.8080    0.9871    0.0000 H   0  0  0  0  0  0  0  0  0  0  0  0
    1.8953    0.7261    0.0000 H   0  0  0  0  0  0  0  0  0  0  0  0
    2.6378    1.1591    0.0000 H   0  0  0  0  0  0  0  0  0  0  0  0
    4.2460    0.2306    0.0000 H   0  0  0  0  0  0  0  0  0  0  0  0
    2.6378   -2.5549    0.0000 H   0  0  0  0  0  0  0  0  0  0  0  0
    0.8081   -2.3830    0.0000 H   0  0  0  0  0  0  0  0  0  0  0  0
    0.0819   -1.5328    0.0000 H   0  0  0  0  0  0  0  0  0  0  0  0
   -1.1861   -1.2602    0.0000 H   0  0  0  0  0  0  0  0  0  0  0  0
   -2.1579    0.4999    0.0000 H   0  0  0  0  0  0  0  0  0  0  0  0
   -0.8413    2.0196    0.0000 H   0  0  0  0  0  0  0  0  0  0  0  0
  1  2  1  0  0  0  0
  1 18  1  0  0  0  0
  1 19  1  0  0  0  0
  1 20  1  0  0  0  0
  2  3  1  0  0  0  0
  2 21  1  0  0  0  0
  2 22  1  0  0  0  0
  3  4  1  0  0  0  0
  3 11  1  0  0  0  0
  3 13  1  0  0  0  0
  4  5  1  0  0  0  0
  4 23  1  0  0  0  0
  4 24  1  0  0  0  0
  5  6  2  0  0  0  0
  5 10  1  0  0  0  0
  6  7  1  0  0  0  0
  6 25  1  0  0  0  0
  7  8  2  0  0  0  0
  7 26  1  0  0  0  0
  8  9  1  0  0  0  0
  8 12  1  0  0  0  0
  9 10  2  0  0  0  0
  9 27  1  0  0  0  0
 10 11  1  0  0  0  0
 11 28  1  0  0  0  0
 11 29  1  0  0  0  0
 13 14  2  0  0  0  0
 13 17  1  0  0  0  0
 14 15  1  0  0  0  0
 14 30  1  0  0  0  0
 15 16  1  0  0  0  0
 15 31  1  0  0  0  0
 16 17  2  0  0  0  0
 16 32  1  0  0  0  0
M  END
>  <DRUGBANK_ID>
DB06585

>  <COMMON_NAME>
Fipamezole

>  <CAS_NUMBER>
150586-58-6

>  <UNII>
T5RCK09KHV

>  <SYNONYMS>
Fipamezole

$$$$
