
 OpenBabel10282417072D

 65 64  0  0  0  0  0  0  0  0999 V2000
    5.4537    0.3333    0.0000 C   0  0  0  0  0  0  0  0  0  0  0  0
    5.3253    1.1483    0.0000 C   0  0  0  0  0  0  0  0  0  0  0  0
    4.8121   -0.1852    0.0000 C   0  0  0  0  0  0  0  0  0  0  0  0
    4.5554    1.4447    0.0000 C   0  0  0  0  0  0  0  0  0  0  0  0
    4.0421    0.1111    0.0000 C   0  0  0  0  0  0  0  0  0  0  0  0
   -2.5022    0.3333    0.0000 C   0  0  0  0  0  0  0  0  0  0  0  0
   -3.1439   -0.1852    0.0000 C   0  0  0  0  0  0  0  0  0  0  0  0
   -1.0907    0.5556    0.0000 C   0  0  0  0  0  0  0  0  0  0  0  0
   -0.3208    0.2593    0.0000 C   0  0  0  0  0  0  0  0  0  0  0  0
   -1.6040   -0.7779    0.0000 C   0  0  0  0  0  0  0  0  0  0  0  0
   -4.5554   -0.4074    0.0000 C   0  0  0  0  0  0  0  0  0  0  0  0
   -4.0421    0.9260    0.0000 C   0  0  0  0  0  0  0  0  0  0  0  0
    0.1924    1.5928    0.0000 C   0  0  0  0  0  0  0  0  0  0  0  0
    3.1439    1.2224    0.0000 C   0  0  0  0  0  0  0  0  0  0  0  0
    1.7323    1.0001    0.0000 C   0  0  0  0  0  0  0  0  0  0  0  0
    3.9138    0.9260    0.0000 C   0  0  0  0  0  0  0  0  0  0  0  0
    1.0907    0.4815    0.0000 C   0  0  3  0  0  0  0  0  0  0  0  0
   -0.8340   -1.0742    0.0000 C   0  0  0  0  0  0  0  0  0  0  0  0
   -4.4271   -1.2224    0.0000 C   0  0  0  0  0  0  0  0  0  0  0  0
   -4.8121    1.2224    0.0000 C   0  0  0  0  0  0  0  0  0  0  0  0
   -0.5774    1.8892    0.0000 C   0  0  0  0  0  0  0  0  0  0  0  0
    1.2190   -0.3333    0.0000 C   0  0  0  0  0  0  0  0  0  0  0  0
   -1.7323    0.0370    0.0000 N   0  0  0  0  0  0  0  0  0  0  0  0
   -3.9138    0.1111    0.0000 N   0  0  0  0  0  0  0  0  0  0  0  0
    0.3208    0.7779    0.0000 N   0  0  0  0  0  0  0  0  0  0  0  0
   -0.1924   -0.5556    0.0000 O   0  0  0  0  0  0  0  0  0  0  0  0
   -0.7057   -1.8892    0.0000 O   0  5  0  0  0  0  0  0  0  0  0  0
   -3.6571   -1.5187    0.0000 O   0  0  0  0  0  0  0  0  0  0  0  0
   -5.0687   -1.7410    0.0000 O   0  5  0  0  0  0  0  0  0  0  0  0
   -5.4537    0.7038    0.0000 O   0  0  0  0  0  0  0  0  0  0  0  0
   -4.9404    2.0373    0.0000 O   0  5  0  0  0  0  0  0  0  0  0  0
   -1.2190    1.3706    0.0000 O   0  0  0  0  0  0  0  0  0  0  0  0
   -0.7057    2.7041    0.0000 O   0  0  0  0  0  0  0  0  0  0  0  0
    0.5774   -0.8520    0.0000 O   0  0  0  0  0  0  0  0  0  0  0  0
    1.9890   -0.6297    0.0000 O   0  0  0  0  0  0  0  0  0  0  0  0
    2.5022    0.7038    0.0000 O   0  0  0  0  0  0  0  0  0  0  0  0
   -0.5774   -2.7041    0.0000 Gd  0  1  0  0  0  0  0  0  0  0  0  0
    6.4168   -0.0374    0.0000 H   0  0  0  0  0  0  0  0  0  0  0  0
    6.1279    1.7970    0.0000 H   0  0  0  0  0  0  0  0  0  0  0  0
    4.9726   -1.2046    0.0000 H   0  0  0  0  0  0  0  0  0  0  0  0
    4.3949    2.4641    0.0000 H   0  0  0  0  0  0  0  0  0  0  0  0
    3.2395   -0.5377    0.0000 H   0  0  0  0  0  0  0  0  0  0  0  0
   -2.6686    1.3903    0.0000 H   0  0  0  0  0  0  0  0  0  0  0  0
   -1.6700    1.0059    0.0000 H   0  0  0  0  0  0  0  0  0  0  0  0
   -2.9775   -1.2422    0.0000 H   0  0  0  0  0  0  0  0  0  0  0  0
   -3.9761   -0.8578    0.0000 H   0  0  0  0  0  0  0  0  0  0  0  0
   -1.2572    1.6126    0.0000 H   0  0  0  0  0  0  0  0  0  0  0  0
   -2.0893    0.9399    0.0000 H   0  0  0  0  0  0  0  0  0  0  0  0
   -0.1543   -0.7977    0.0000 H   0  0  0  0  0  0  0  0  0  0  0  0
    0.6778   -0.1250    0.0000 H   0  0  0  0  0  0  0  0  0  0  0  0
   -2.4361   -1.4505    0.0000 H   0  0  0  0  0  0  0  0  0  0  0  0
   -2.6026   -0.3936    0.0000 H   0  0  0  0  0  0  0  0  0  0  0  0
   -5.5540   -0.0230    0.0000 H   0  0  0  0  0  0  0  0  0  0  0  0
   -4.7217    0.6496    0.0000 H   0  0  0  0  0  0  0  0  0  0  0  0
   -3.2099    1.5986    0.0000 H   0  0  0  0  0  0  0  0  0  0  0  0
   -3.0435    0.5416    0.0000 H   0  0  0  0  0  0  0  0  0  0  0  0
    1.0246    2.2654    0.0000 H   0  0  0  0  0  0  0  0  0  0  0  0
    1.1910    1.2085    0.0000 H   0  0  0  0  0  0  0  0  0  0  0  0
    2.9775    2.2794    0.0000 H   0  0  0  0  0  0  0  0  0  0  0  0
    2.1453    1.6068    0.0000 H   0  0  0  0  0  0  0  0  0  0  0  0
    1.5658    2.0571    0.0000 H   0  0  0  0  0  0  0  0  0  0  0  0
    2.5644    1.6727    0.0000 H   0  0  0  0  0  0  0  0  0  0  0  0
    2.0893    0.0971    0.0000 H   0  0  0  0  0  0  0  0  0  0  0  0
    0.0230    3.2931    0.0000 H   0  0  0  0  0  0  0  0  0  0  0  0
    2.1347   -1.5553    0.0000 H   0  0  0  0  0  0  0  0  0  0  0  0
  1 38  1  0  0  0  0
  2  1  2  0  0  0  0
  2 39  1  0  0  0  0
  3  1  1  0  0  0  0
  3 40  1  0  0  0  0
  4  2  1  0  0  0  0
  4 41  1  0  0  0  0
  5  3  2  0  0  0  0
  5 42  1  0  0  0  0
  6 43  1  0  0  0  0
  6 44  1  0  0  0  0
  7  6  1  0  0  0  0
  7 45  1  0  0  0  0
  7 46  1  0  0  0  0
  8 47  1  0  0  0  0
  8 48  1  0  0  0  0
  9  8  1  0  0  0  0
  9 49  1  0  0  0  0
  9 50  1  0  0  0  0
 10 51  1  0  0  0  0
 10 52  1  0  0  0  0
 11 53  1  0  0  0  0
 11 54  1  0  0  0  0
 12 55  1  0  0  0  0
 12 56  1  0  0  0  0
 13 57  1  0  0  0  0
 13 58  1  0  0  0  0
 14 59  1  0  0  0  0
 14 60  1  0  0  0  0
 15 61  1  0  0  0  0
 15 62  1  0  0  0  0
 16  4  2  0  0  0  0
 16  5  1  0  0  0  0
 16 14  1  0  0  0  0
 17 15  1  0  0  0  0
 17 63  1  0  0  0  0
 18 10  1  0  0  0  0
 19 11  1  0  0  0  0
 20 12  1  0  0  0  0
 21 13  1  0  0  0  0
 22 17  1  0  0  0  0
 23  6  1  0  0  0  0
 23  8  1  0  0  0  0
 23 10  1  0  0  0  0
 24  7  1  0  0  0  0
 24 11  1  0  0  0  0
 24 12  1  0  0  0  0
 25  9  1  0  0  0  0
 25 13  1  0  0  0  0
 25 17  1  0  0  0  0
 26 18  2  0  0  0  0
 27 18  1  0  0  0  0
 28 19  2  0  0  0  0
 29 19  1  0  0  0  0
 30 20  2  0  0  0  0
 31 20  1  0  0  0  0
 32 21  2  0  0  0  0
 33 21  1  0  0  0  0
 33 64  1  0  0  0  0
 34 22  2  0  0  0  0
 35 22  1  0  0  0  0
 35 65  1  0  0  0  0
 36 14  1  0  0  0  0
 36 15  1  0  0  0  0
M  CHG  4  27  -1  29  -1  31  -1  37   3
M  END
>  <DRUGBANK_ID>
DB00743

>  <SECONDARY_ACCESSION_NUMBERS>
APRD00989

>  <COMMON_NAME>
Gadobenic acid

>  <CAS_NUMBER>
113662-23-0

>  <UNII>
15G12L5X8K

>  <SYNONYMS>
Acide gadobenique; Acido gadobenico; Acidum gadobenicum; Gadobenate; Gadobenic acid; Gadobens√§ure

$$$$
