
 OpenBabel10282417072D

 24 24  0  0  1  0  0  0  0  0999 V2000
    0.5678    1.9393    0.0000 C   0  0  0  0  0  0  0  0  0  0  0  0
    1.2352    0.6294    0.0000 C   0  0  0  0  0  0  0  0  0  0  0  0
    0.5678    1.1143    0.0000 C   0  0  2  0  0  0  0  0  0  0  0  0
    0.9803   -0.1553    0.0000 C   0  0  1  0  0  0  0  0  0  0  0  0
   -0.0997    0.6294    0.0000 C   0  0  2  0  0  0  0  0  0  0  0  0
   -0.8843    0.8843    0.0000 C   0  0  0  0  0  0  0  0  0  0  0  0
    0.1553   -0.1553    0.0000 N   0  0  0  0  0  0  0  0  0  0  0  0
   -1.0558    1.6913    0.0000 O   0  0  0  0  0  0  0  0  0  0  0  0
   -1.4974    0.3323    0.0000 O   0  0  0  0  0  0  0  0  0  0  0  0
    1.9501   -1.4901    0.0000 O   0  0  0  0  0  0  0  0  0  0  0  0
    0.7977   -1.3076    0.0000 O   0  0  0  0  0  0  0  0  0  0  0  0
    2.1326   -0.3378    0.0000 O   0  0  0  0  0  0  0  0  0  0  0  0
    1.4652   -0.8227    0.0000 S   0  0  0  0  0  0  0  0  0  0  0  0
    1.3028    1.4888    0.0000 H   0  0  0  0  0  0  0  0  0  0  0  0
    1.7951   -0.0262    0.0000 H   0  0  0  0  0  0  0  0  0  0  0  0
   -0.2287    1.4442    0.0000 H   0  0  0  0  0  0  0  0  0  0  0  0
    1.4944    2.4743    0.0000 H   0  0  0  0  0  0  0  0  0  0  0  0
   -0.3588    2.4743    0.0000 H   0  0  0  0  0  0  0  0  0  0  0  0
    0.5678    3.0093    0.0000 H   0  0  0  0  0  0  0  0  0  0  0  0
    2.2528    0.9601    0.0000 H   0  0  0  0  0  0  0  0  0  0  0  0
    1.9918   -0.1272    0.0000 H   0  0  0  0  0  0  0  0  0  0  0  0
   -0.4442   -0.9805    0.0000 H   0  0  0  0  0  0  0  0  0  0  0  0
   -2.3885    0.6219    0.0000 H   0  0  0  0  0  0  0  0  0  0  0  0
    1.5556   -2.3762    0.0000 H   0  0  0  0  0  0  0  0  0  0  0  0
  1 17  1  0  0  0  0
  1 18  1  0  0  0  0
  1 19  1  0  0  0  0
  2 20  1  0  0  0  0
  2 21  1  0  0  0  0
  3  1  1  0  0  0  0
  3  2  1  0  0  0  0
  3 14  1  1  0  0  0
  4  2  1  0  0  0  0
  4 13  1  0  0  0  0
  4 15  1  1  0  0  0
  5  3  1  0  0  0  0
  5  6  1  0  0  0  0
  5 16  1  6  0  0  0
  7  4  1  0  0  0  0
  7  5  1  0  0  0  0
  7 22  1  0  0  0  0
  8  6  2  0  0  0  0
  9  6  1  0  0  0  0
  9 23  1  0  0  0  0
 10 24  1  0  0  0  0
 13 10  1  0  0  0  0
 13 11  2  0  0  0  0
 13 12  2  0  0  0  0
M  END
>  <DRUGBANK_ID>
DB02248

>  <SECONDARY_ACCESSION_NUMBERS>
EXPT00681

>  <COMMON_NAME>
3-Methyl-5-Sulfo-Pyrrolidine-2-Carboxylic Acid

$$$$
