
 OpenBabel10282417072D

111119  0  0  0  0  0  0  0  0999 V2000
   -0.9475    1.4731    0.0000 C   0  0  2  0  0  0  0  0  0  0  0  0
   -0.9475    2.2880    0.0000 C   0  0  2  0  0  0  0  0  0  0  0  0
   -0.2183    2.7169    0.0000 C   0  0  0  0  0  0  0  0  0  0  0  0
    0.4678    2.2880    0.0000 C   0  0  0  0  0  0  0  0  0  0  0  0
    1.1970    2.7169    0.0000 C   0  0  0  0  0  0  0  0  0  0  0  0
    1.8832    2.2880    0.0000 C   0  0  1  0  0  0  0  0  0  0  0  0
    2.6123    2.7169    0.0000 C   0  0  0  0  0  0  0  0  0  0  0  0
    3.2986    2.2880    0.0000 C   0  0  0  0  0  0  0  0  0  0  0  0
    3.2986    1.4731    0.0000 C   0  0  1  0  0  0  0  0  0  0  0  0
    2.5694    1.0442    0.0000 C   0  0  1  0  0  0  0  0  0  0  0  0
    2.5694    0.2293    0.0000 C   0  0  1  0  0  0  0  0  0  0  0  0
    3.2986   -0.1994    0.0000 C   0  0  1  0  0  0  0  0  0  0  0  0
    4.0276    0.2293    0.0000 C   0  0  1  0  0  0  0  0  0  0  0  0
    4.0276    1.0442    0.0000 O   0  0  0  0  0  0  0  0  0  0  0  0
    1.8403   -0.1994    0.0000 O   0  0  0  0  0  0  0  0  0  0  0  0
    1.8403   -1.0573    0.0000 C   0  0  2  0  0  0  0  0  0  0  0  0
    2.5694   -1.4432    0.0000 C   0  0  0  0  0  0  0  0  0  0  0  0
    3.2986   -1.0573    0.0000 O   0  0  0  0  0  0  0  0  0  0  0  0
    3.8132   -1.4432    0.0000 C   0  0  1  0  0  0  0  0  0  0  0  0
    4.7568   -0.1994    0.0000 C   0  0  2  0  0  0  0  0  0  0  0  0
    1.1111   -1.4432    0.0000 C   0  0  0  0  0  0  0  0  0  0  0  0
    1.1111   -2.3011    0.0000 C   0  0  0  0  0  0  0  0  0  0  0  0
    0.4249   -2.6871    0.0000 C   0  0  1  0  0  0  0  0  0  0  0  0
    0.4249   -3.5449    0.0000 C   0  0  0  0  0  0  0  0  0  0  0  0
   -0.3040   -2.3011    0.0000 O   0  0  0  0  0  0  0  0  0  0  0  0
   -1.0333   -2.7300    0.0000 C   0  0  1  0  0  0  0  0  0  0  0  0
   -1.7623   -2.3011    0.0000 C   0  0  0  0  0  0  0  0  0  0  0  0
   -1.0333   -3.5449    0.0000 C   0  0  0  0  0  0  0  0  0  0  0  0
   -1.7623   -1.4432    0.0000 C   0  0  0  0  0  0  0  0  0  0  0  0
   -1.0333   -1.0573    0.0000 C   0  0  2  0  0  0  0  0  0  0  0  0
   -1.0333   -0.1994    0.0000 O   0  0  0  0  0  0  0  0  0  0  0  0
   -0.3470   -1.4432    0.0000 C   0  0  0  0  0  0  0  0  0  0  0  0
    0.3821   -1.0573    0.0000 C   0  0  2  0  0  0  0  0  0  0  0  0
    0.3821   -0.1994    0.0000 C   0  0  0  0  0  0  0  0  0  0  0  0
   -0.3040    0.2293    0.0000 C   0  0  1  0  0  0  0  0  0  0  0  0
   -0.3040    1.0442    0.0000 C   0  0  0  0  0  0  0  0  0  0  0  0
    1.0254    0.2293    0.0000 C   0  0  0  0  0  0  0  0  0  0  0  0
   -0.9475    3.1029    0.0000 H   0  0  0  0  0  0  0  0  0  0  0  0
   -0.9475    0.6153    0.0000 H   0  0  0  0  0  0  0  0  0  0  0  0
    0.4678    1.4731    0.0000 O   0  0  0  0  0  0  0  0  0  0  0  0
    1.8832    3.1457    0.0000 H   0  0  0  0  0  0  0  0  0  0  0  0
    1.8832    1.4731    0.0000 O   0  0  0  0  0  0  0  0  0  0  0  0
    4.0276    1.9019    0.0000 H   0  0  0  0  0  0  0  0  0  0  0  0
    2.5694   -0.6284    0.0000 O   0  0  0  0  0  0  0  0  0  0  0  0
    2.5694    1.8591    0.0000 H   0  0  0  0  0  0  0  0  0  0  0  0
    1.8403    0.6153    0.0000 H   0  0  0  0  0  0  0  0  0  0  0  0
    3.2986    0.6153    0.0000 H   0  0  0  0  0  0  0  0  0  0  0  0
    4.7568    0.6153    0.0000 H   0  0  0  0  0  0  0  0  0  0  0  0
   -1.7623   -3.1160    0.0000 H   0  0  0  0  0  0  0  0  0  0  0  0
   -0.3470   -0.6284    0.0000 H   0  0  0  0  0  0  0  0  0  0  0  0
   -1.6337   -4.1025    0.0000 C   0  0  0  0  0  0  0  0  0  0  0  0
    4.4566   -2.0438    0.0000 H   0  0  0  0  0  0  0  0  0  0  0  0
    1.2397   -3.1160    0.0000 H   0  0  0  0  0  0  0  0  0  0  0  0
   -1.7225    2.5398    0.0000 C   0  0  2  0  0  0  0  0  0  0  0  0
   -2.2013    1.8806    0.0000 C   0  0  2  0  0  0  0  0  0  0  0  0
   -1.7225    1.2213    0.0000 O   0  0  0  0  0  0  0  0  0  0  0  0
   -1.9889    3.3597    0.0000 O   0  0  0  0  0  0  0  0  0  0  0  0
   -3.0487    1.8803    0.0000 C   0  0  0  0  0  0  0  0  0  0  0  0
   -3.4688    2.6071    0.0000 C   0  0  1  0  0  0  0  0  0  0  0  0
   -4.3355    2.6068    0.0000 C   0  0  0  0  0  0  0  0  0  0  0  0
   -4.7568    3.3355    0.0000 N   0  0  0  0  0  0  0  0  0  0  0  0
   -1.5600    4.1025    0.0000 C   0  0  0  0  0  0  0  0  0  0  0  0
   -3.0507    3.3319    0.0000 O   0  0  0  0  0  0  0  0  0  0  0  0
   -1.7761   -0.6284    0.0000 H   0  0  0  0  0  0  0  0  0  0  0  0
    0.8538   -0.7142    0.0000 C   0  0  0  0  0  0  0  0  0  0  0  0
   -0.2039    3.7868    0.0000 H   0  0  0  0  0  0  0  0  0  0  0  0
    0.7211    3.2292    0.0000 H   0  0  0  0  0  0  0  0  0  0  0  0
    1.2114    3.7868    0.0000 H   0  0  0  0  0  0  0  0  0  0  0  0
    2.1363    3.2293    0.0000 H   0  0  0  0  0  0  0  0  0  0  0  0
    2.6266    3.7868    0.0000 H   0  0  0  0  0  0  0  0  0  0  0  0
    3.5516    3.2293    0.0000 H   0  0  0  0  0  0  0  0  0  0  0  0
    4.2345    2.8067    0.0000 H   0  0  0  0  0  0  0  0  0  0  0  0
    4.2205    1.7449    0.0000 H   0  0  0  0  0  0  0  0  0  0  0  0
    2.3115   -2.4817    0.0000 H   0  0  0  0  0  0  0  0  0  0  0  0
    3.2286   -2.2861    0.0000 H   0  0  0  0  0  0  0  0  0  0  0  0
    3.7020   -0.0195    0.0000 H   0  0  0  0  0  0  0  0  0  0  0  0
    0.1945   -0.8912    0.0000 H   0  0  0  0  0  0  0  0  0  0  0  0
    0.1796   -1.9696    0.0000 H   0  0  0  0  0  0  0  0  0  0  0  0
    2.0347   -2.8413    0.0000 H   0  0  0  0  0  0  0  0  0  0  0  0
    1.1021   -3.3711    0.0000 H   0  0  0  0  0  0  0  0  0  0  0  0
    1.1815   -4.3015    0.0000 H   0  0  0  0  0  0  0  0  0  0  0  0
    0.0154   -4.5335    0.0000 H   0  0  0  0  0  0  0  0  0  0  0  0
   -2.6911   -2.8323    0.0000 H   0  0  0  0  0  0  0  0  0  0  0  0
   -2.6878   -1.7642    0.0000 H   0  0  0  0  0  0  0  0  0  0  0  0
   -2.6790   -0.8913    0.0000 H   0  0  0  0  0  0  0  0  0  0  0  0
   -1.7328   -0.3736    0.0000 H   0  0  0  0  0  0  0  0  0  0  0  0
   -0.3606   -2.5131    0.0000 H   0  0  0  0  0  0  0  0  0  0  0  0
    0.5661   -2.0010    0.0000 H   0  0  0  0  0  0  0  0  0  0  0  0
   -0.1843   -0.1495    0.0000 H   0  0  0  0  0  0  0  0  0  0  0  0
    0.6394    1.5491    0.0000 H   0  0  0  0  0  0  0  0  0  0  0  0
    0.6139    0.4944    0.0000 H   0  0  0  0  0  0  0  0  0  0  0  0
    1.9504   -0.2283    0.0000 H   0  0  0  0  0  0  0  0  0  0  0  0
    0.9592    1.2592    0.0000 H   0  0  0  0  0  0  0  0  0  0  0  0
   -2.6200   -3.7988    0.0000 H   0  0  0  0  0  0  0  0  0  0  0  0
   -1.4036   -5.1085    0.0000 H   0  0  0  0  0  0  0  0  0  0  0  0
   -0.9659    3.2964    0.0000 H   0  0  0  0  0  0  0  0  0  0  0  0
   -2.6873    2.8339    0.0000 H   0  0  0  0  0  0  0  0  0  0  0  0
   -3.5833    0.9534    0.0000 H   0  0  0  0  0  0  0  0  0  0  0  0
   -4.1187    1.8798    0.0000 H   0  0  0  0  0  0  0  0  0  0  0  0
   -2.3988    2.6076    0.0000 H   0  0  0  0  0  0  0  0  0  0  0  0
   -4.8701    1.6799    0.0000 H   0  0  0  0  0  0  0  0  0  0  0  0
   -5.4055    2.6062    0.0000 H   0  0  0  0  0  0  0  0  0  0  0  0
   -4.2473    4.2192    0.0000 H   0  0  0  0  0  0  0  0  0  0  0  0
   -5.7768    3.3349    0.0000 H   0  0  0  0  0  0  0  0  0  0  0  0
   -0.4900    4.1025    0.0000 H   0  0  0  0  0  0  0  0  0  0  0  0
   -2.0950    5.0292    0.0000 H   0  0  0  0  0  0  0  0  0  0  0  0
   -1.0250    5.0291    0.0000 H   0  0  0  0  0  0  0  0  0  0  0  0
   -2.0807    3.3323    0.0000 H   0  0  0  0  0  0  0  0  0  0  0  0
    1.8315   -1.1489    0.0000 H   0  0  0  0  0  0  0  0  0  0  0  0
    0.7414    0.3499    0.0000 H   0  0  0  0  0  0  0  0  0  0  0  0
    1.7191   -0.0848    0.0000 H   0  0  0  0  0  0  0  0  0  0  0  0
  1  2  1  0  0  0  0
  1 36  1  0  0  0  0
  1 39  1  1  0  0  0
  1 56  1  0  0  0  0
  2  3  1  0  0  0  0
  2 38  1  6  0  0  0
  2 54  1  0  0  0  0
  3  4  1  0  0  0  0
  3 66  1  0  0  0  0
  3 67  1  0  0  0  0
  4  5  1  0  0  0  0
  4 40  2  0  0  0  0
  5  6  1  0  0  0  0
  5 68  1  0  0  0  0
  5 69  1  0  0  0  0
  6  7  1  0  0  0  0
  6 41  1  6  0  0  0
  6 42  1  0  0  0  0
  7  8  1  0  0  0  0
  7 70  1  0  0  0  0
  7 71  1  0  0  0  0
  8  9  1  0  0  0  0
  8 72  1  0  0  0  0
  8 73  1  0  0  0  0
  9 10  1  0  0  0  0
  9 14  1  0  0  0  0
  9 43  1  1  0  0  0
 10 11  1  0  0  0  0
 10 45  1  6  0  0  0
 11 12  1  0  0  0  0
 11 15  1  0  0  0  0
 11 46  1  6  0  0  0
 12 13  1  0  0  0  0
 12 18  1  0  0  0  0
 12 47  1  6  0  0  0
 13 14  1  0  0  0  0
 13 20  1  0  0  0  0
 13 48  1  6  0  0  0
 16 15  1  6  0  0  0
 16 17  1  0  0  0  0
 16 21  1  0  0  0  0
 16 44  1  0  0  0  0
 17 19  1  0  0  0  0
 17 74  1  0  0  0  0
 17 75  1  0  0  0  0
 19 18  1  0  0  0  0
 19 52  1  6  0  0  0
 20 19  1  0  0  0  0
 20 44  1  0  0  0  0
 20 76  1  1  0  0  0
 21 22  1  0  0  0  0
 21 77  1  0  0  0  0
 21 78  1  0  0  0  0
 22 23  1  0  0  0  0
 22 79  1  0  0  0  0
 22 80  1  0  0  0  0
 23 24  1  0  0  0  0
 23 25  1  0  0  0  0
 23 53  1  6  0  0  0
 24 81  1  0  0  0  0
 24 82  1  0  0  0  0
 25 26  1  0  0  0  0
 26 27  1  0  0  0  0
 26 28  1  0  0  0  0
 26 49  1  1  0  0  0
 27 29  1  0  0  0  0
 27 83  1  0  0  0  0
 27 84  1  0  0  0  0
 28 24  1  0  0  0  0
 28 51  2  0  0  0  0
 29 30  1  0  0  0  0
 29 85  1  0  0  0  0
 29 86  1  0  0  0  0
 30 31  1  0  0  0  0
 30 32  1  0  0  0  0
 30 64  1  1  0  0  0
 31 35  1  0  0  0  0
 32 33  1  0  0  0  0
 32 87  1  0  0  0  0
 32 88  1  0  0  0  0
 33 34  1  0  0  0  0
 33 65  1  0  0  0  0
 33 89  1  1  0  0  0
 34 35  1  0  0  0  0
 34 37  2  0  0  0  0
 35 50  1  1  0  0  0
 36 35  1  0  0  0  0
 36 90  1  0  0  0  0
 36 91  1  0  0  0  0
 37 92  1  0  0  0  0
 37 93  1  0  0  0  0
 42 10  1  0  0  0  0
 51 94  1  0  0  0  0
 51 95  1  0  0  0  0
 54 55  1  0  0  0  0
 54 57  1  0  0  0  0
 54 96  1  1  0  0  0
 55 56  1  0  0  0  0
 55 58  1  0  0  0  0
 55 97  1  1  0  0  0
 57 62  1  0  0  0  0
 58 59  1  0  0  0  0
 58 98  1  0  0  0  0
 58 99  1  0  0  0  0
 59 60  1  0  0  0  0
 59 63  1  0  0  0  0
 59100  1  6  0  0  0
 60 61  1  0  0  0  0
 60101  1  0  0  0  0
 60102  1  0  0  0  0
 61103  1  0  0  0  0
 61104  1  0  0  0  0
 62105  1  0  0  0  0
 62106  1  0  0  0  0
 62107  1  0  0  0  0
 63108  1  0  0  0  0
 65109  1  0  0  0  0
 65110  1  0  0  0  0
 65111  1  0  0  0  0
M  END
>  <DRUGBANK_ID>
DB08871

>  <SECONDARY_ACCESSION_NUMBERS>
DB04940

>  <COMMON_NAME>
Eribulin

>  <CAS_NUMBER>
253128-41-5

>  <UNII>
LR24G6354G

>  <SYNONYMS>
Eribulin; Eribulina

$$$$
