849
 OpenBabel10282417072D

 32 33  0  0  1  0  0  0  0  0999 V2000
    1.6500    0.1658    0.0000 O   0  0  0  0  0  0  0  0  0  0  0  0
    4.5080    0.1658    0.0000 O   0  0  0  0  0  0  0  0  0  0  0  0
    3.0791   -2.3092    0.0000 O   0  0  0  0  0  0  0  0  0  0  0  0
    2.3645   -1.0717    0.0000 N   0  0  0  0  0  0  0  0  0  0  0  0
    3.7935   -1.0717    0.0000 N   0  0  0  0  0  0  0  0  0  0  0  0
    3.0791    0.1658    0.0000 C   0  0  3  0  0  0  0  0  0  0  0  0
    2.6665    0.8803    0.0000 C   0  0  0  0  0  0  0  0  0  0  0  0
    3.4916    0.8803    0.0000 C   0  0  0  0  0  0  0  0  0  0  0  0
    2.3645   -0.2467    0.0000 C   0  0  0  0  0  0  0  0  0  0  0  0
    3.7935   -0.2467    0.0000 C   0  0  0  0  0  0  0  0  0  0  0  0
    1.8415    0.8803    0.0000 C   0  0  0  0  0  0  0  0  0  0  0  0
    3.0791   -1.4842    0.0000 C   0  0  0  0  0  0  0  0  0  0  0  0
    3.0791    1.5948    0.0000 C   0  0  0  0  0  0  0  0  0  0  0  0
    4.3166    0.8803    0.0000 C   0  0  0  0  0  0  0  0  0  0  0  0
    1.6500   -1.4842    0.0000 C   0  0  0  0  0  0  0  0  0  0  0  0
    3.4916    2.3092    0.0000 C   0  0  0  0  0  0  0  0  0  0  0  0
    4.7291    1.5948    0.0000 C   0  0  0  0  0  0  0  0  0  0  0  0
    4.3166    2.3092    0.0000 C   0  0  0  0  0  0  0  0  0  0  0  0
    4.6461   -1.5639    0.0000 H   0  0  0  0  0  0  0  0  0  0  0  0
    3.2015    1.8070    0.0000 H   0  0  0  0  0  0  0  0  0  0  0  0
    2.1315    1.8069    0.0000 H   0  0  0  0  0  0  0  0  0  0  0  0
    1.3065    1.8069    0.0000 H   0  0  0  0  0  0  0  0  0  0  0  0
    1.3065   -0.0463    0.0000 H   0  0  0  0  0  0  0  0  0  0  0  0
    0.7715    0.8803    0.0000 H   0  0  0  0  0  0  0  0  0  0  0  0
    2.0471    1.5948    0.0000 H   0  0  0  0  0  0  0  0  0  0  0  0
    4.8326   -0.0134    0.0000 H   0  0  0  0  0  0  0  0  0  0  0  0
    0.7234   -0.9492    0.0000 H   0  0  0  0  0  0  0  0  0  0  0  0
    1.6500   -2.5542    0.0000 H   0  0  0  0  0  0  0  0  0  0  0  0
    0.7233   -2.0192    0.0000 H   0  0  0  0  0  0  0  0  0  0  0  0
    2.9756    3.2029    0.0000 H   0  0  0  0  0  0  0  0  0  0  0  0
    5.7611    1.5948    0.0000 H   0  0  0  0  0  0  0  0  0  0  0  0
    4.8326    3.2029    0.0000 H   0  0  0  0  0  0  0  0  0  0  0  0
  1  9  2  0  0  0  0
  2 10  2  0  0  0  0
  3 12  2  0  0  0  0
  4  9  1  0  0  0  0
  4 12  1  0  0  0  0
  4 15  1  0  0  0  0
  5 10  1  0  0  0  0
  5 12  1  0  0  0  0
  5 19  1  0  0  0  0
  6  7  1  0  0  0  0
  6  8  1  0  0  0  0
  6  9  1  0  0  0  0
  6 10  1  0  0  0  0
  7 11  1  0  0  0  0
  7 20  1  0  0  0  0
  7 21  1  0  0  0  0
  8 13  2  0  0  0  0
  8 14  1  0  0  0  0
 11 22  1  0  0  0  0
 11 23  1  0  0  0  0
 11 24  1  0  0  0  0
 13 16  1  0  0  0  0
 13 25  1  0  0  0  0
 14 17  2  0  0  0  0
 14 26  1  0  0  0  0
 15 27  1  0  0  0  0
 15 28  1  0  0  0  0
 15 29  1  0  0  0  0
 16 18  2  0  0  0  0
 16 30  1  0  0  0  0
 17 18  1  0  0  0  0
 17 31  1  0  0  0  0
 18 32  1  0  0  0  0
M  END
>  <DRUGBANK_ID>
DB00849

>  <SECONDARY_ACCESSION_NUMBERS>
APRD00047

>  <COMMON_NAME>
Methylphenobarbital

>  <CAS_NUMBER>
115-38-8

>  <UNII>
5NC67NU76B

>  <SYNONYMS>
1-Methylphenobarbital; 5-ethyl-1-methyl-5-phenyl-2,4,6(1H,3H,5H)-pyrimidinetrione; 5-Ethyl-1-methyl-5-phenyl-pyrimidine-2,4,6-trione; 5-ethyl-1-methyl-5-phenylbarbituric acid; Enphenemal; Mephobarbital; Mephobarbitone; Méthylphénobarbital; Methylphenobarbital; Methylphenobarbitalum; Methylphenobarbitone; Metilfenobarbital; Metilfenobarbitale; N-Methylphenobarbital

$$$$
