
 OpenBabel10282417072D

106109  0  0  1  0  0  0  0  0999 V2000
   15.0461    5.6087    0.0000 C   0  0  0  0  0  0  0  0  0  0  0  0
   15.7327    5.1513    0.0000 O   0  0  0  0  0  0  0  0  0  0  0  0
   15.6799    4.3280    0.0000 C   0  0  0  0  0  0  0  0  0  0  0  0
   16.3665    3.8706    0.0000 C   0  0  0  0  0  0  0  0  0  0  0  0
   16.3137    3.0473    0.0000 C   0  0  0  0  0  0  0  0  0  0  0  0
   17.0003    2.5899    0.0000 C   0  0  0  0  0  0  0  0  0  0  0  0
   16.9474    1.7666    0.0000 C   0  0  0  0  0  0  0  0  0  0  0  0
   17.6340    1.3092    0.0000 C   0  0  0  0  0  0  0  0  0  0  0  0
   17.5812    0.4859    0.0000 O   0  0  0  0  0  0  0  0  0  0  0  0
   18.3735    1.6751    0.0000 S   0  0  0  0  0  0  0  0  0  0  0  0
   19.0600    1.2177    0.0000 C   0  0  0  0  0  0  0  0  0  0  0  0
   19.7995    1.5836    0.0000 C   0  0  0  0  0  0  0  0  0  0  0  0
   20.4861    1.1262    0.0000 N   0  0  0  0  0  0  0  0  0  0  0  0
   21.2255    1.4921    0.0000 C   0  0  0  0  0  0  0  0  0  0  0  0
   21.2783    2.3154    0.0000 O   0  0  0  0  0  0  0  0  0  0  0  0
   21.9121    1.0347    0.0000 C   0  0  0  0  0  0  0  0  0  0  0  0
   22.6515    1.4006    0.0000 C   0  0  0  0  0  0  0  0  0  0  0  0
   23.3381    0.9433    0.0000 N   0  0  0  0  0  0  0  0  0  0  0  0
   24.0775    1.3092    0.0000 C   0  0  0  0  0  0  0  0  0  0  0  0
   24.1303    2.1325    0.0000 O   0  0  0  0  0  0  0  0  0  0  0  0
   24.7641    0.8518    0.0000 C   0  0  2  0  0  0  0  0  0  0  0  0
   24.7113    0.0285    0.0000 O   0  0  0  0  0  0  0  0  0  0  0  0
   25.5035    1.2177    0.0000 C   0  0  0  0  0  0  0  0  0  0  0  0
   25.8694    0.4783    0.0000 C   0  0  0  0  0  0  0  0  0  0  0  0
   25.1376    1.9571    0.0000 C   0  0  0  0  0  0  0  0  0  0  0  0
   26.2429    1.5836    0.0000 C   0  0  0  0  0  0  0  0  0  0  0  0
   26.9295    1.1262    0.0000 O   0  0  0  0  0  0  0  0  0  0  0  0
   27.6689    1.4921    0.0000 P   0  0  2  0  0  0  0  0  0  0  0  0
   28.0348    0.7527    0.0000 O   0  0  0  0  0  0  0  0  0  0  0  0
   27.3030    2.2315    0.0000 O   0  0  0  0  0  0  0  0  0  0  0  0
   28.4083    1.8580    0.0000 O   0  0  0  0  0  0  0  0  0  0  0  0
   29.0949    1.4006    0.0000 P   0  0  2  0  0  0  0  0  0  0  0  0
   28.6375    0.7141    0.0000 O   0  0  0  0  0  0  0  0  0  0  0  0
   29.5523    2.0872    0.0000 O   0  0  0  0  0  0  0  0  0  0  0  0
   29.7815    0.9433    0.0000 O   0  0  0  0  0  0  0  0  0  0  0  0
   30.5210    1.3092    0.0000 C   0  0  0  0  0  0  0  0  0  0  0  0
   31.2075    0.8518    0.0000 C   0  0  1  0  0  0  0  0  0  0  0  0
   31.9812    1.1384    0.0000 O   0  0  0  0  0  0  0  0  0  0  0  0
   32.4928    0.4912    0.0000 C   0  0  2  0  0  0  0  0  0  0  0  0
   32.0354   -0.1954    0.0000 C   0  0  2  0  0  0  0  0  0  0  0  0
   32.3220   -0.9690    0.0000 O   0  0  0  0  0  0  0  0  0  0  0  0
   31.2411    0.0275    0.0000 C   0  0  2  0  0  0  0  0  0  0  0  0
   30.5939   -0.4842    0.0000 O   0  0  0  0  0  0  0  0  0  0  0  0
   29.8272   -0.1795    0.0000 P   0  0  0  0  0  0  0  0  0  0  0  0
   30.1319    0.5871    0.0000 O   0  0  0  0  0  0  0  0  0  0  0  0
   29.5226   -0.9462    0.0000 O   0  0  0  0  0  0  0  0  0  0  0  0
   29.0605    0.1251    0.0000 O   0  0  0  0  0  0  0  0  0  0  0  0
   33.3171    0.5248    0.0000 N   0  0  0  0  0  0  0  0  0  0  0  0
   33.7745    1.2114    0.0000 C   0  0  0  0  0  0  0  0  0  0  0  0
   34.5689    0.9885    0.0000 N   0  0  0  0  0  0  0  0  0  0  0  0
   34.6024    0.1642    0.0000 C   0  0  0  0  0  0  0  0  0  0  0  0
   35.2374   -0.3625    0.0000 C   0  0  0  0  0  0  0  0  0  0  0  0
   36.0110   -0.0758    0.0000 N   0  0  0  0  0  0  0  0  0  0  0  0
   35.0988   -1.1757    0.0000 N   0  0  0  0  0  0  0  0  0  0  0  0
   34.3252   -1.4624    0.0000 C   0  0  0  0  0  0  0  0  0  0  0  0
   33.6902   -0.9357    0.0000 N   0  0  0  0  0  0  0  0  0  0  0  0
   33.8288   -0.1224    0.0000 C   0  0  0  0  0  0  0  0  0  0  0  0
   15.5742    2.6813    0.0000 C   0  0  0  0  0  0  0  0  0  0  0  0
   14.8876    3.1387    0.0000 C   0  0  0  0  0  0  0  0  0  0  0  0
   14.1482    2.7728    0.0000 O   0  0  0  0  0  0  0  0  0  0  0  0
   14.9405    3.9621    0.0000 C   0  0  0  0  0  0  0  0  0  0  0  0
   14.2539    4.4194    0.0000 O   0  0  0  0  0  0  0  0  0  0  0  0
   15.1146    6.6765    0.0000 H   0  0  0  0  0  0  0  0  0  0  0  0
   14.0871    5.1341    0.0000 H   0  0  0  0  0  0  0  0  0  0  0  0
   14.1556    6.2019    0.0000 H   0  0  0  0  0  0  0  0  0  0  0  0
   17.2914    4.3283    0.0000 H   0  0  0  0  0  0  0  0  0  0  0  0
   17.9253    3.0476    0.0000 H   0  0  0  0  0  0  0  0  0  0  0  0
   16.0224    1.3089    0.0000 H   0  0  0  0  0  0  0  0  0  0  0  0
   18.9914    0.1499    0.0000 H   0  0  0  0  0  0  0  0  0  0  0  0
   19.9505    0.6244    0.0000 H   0  0  0  0  0  0  0  0  0  0  0  0
   19.8680    2.6514    0.0000 H   0  0  0  0  0  0  0  0  0  0  0  0
   20.7585    2.0582    0.0000 H   0  0  0  0  0  0  0  0  0  0  0  0
   20.4231    0.1437    0.0000 H   0  0  0  0  0  0  0  0  0  0  0  0
   21.8436   -0.0331    0.0000 H   0  0  0  0  0  0  0  0  0  0  0  0
   22.8026    0.4415    0.0000 H   0  0  0  0  0  0  0  0  0  0  0  0
   22.7200    2.4684    0.0000 H   0  0  0  0  0  0  0  0  0  0  0  0
   23.6105    1.8752    0.0000 H   0  0  0  0  0  0  0  0  0  0  0  0
   23.2751   -0.0392    0.0000 H   0  0  0  0  0  0  0  0  0  0  0  0
   23.8051    0.3772    0.0000 H   0  0  0  0  0  0  0  0  0  0  0  0
   23.8419   -0.4017    0.0000 H   0  0  0  0  0  0  0  0  0  0  0  0
   25.2762   -0.4122    0.0000 H   0  0  0  0  0  0  0  0  0  0  0  0
   26.9372    0.4098    0.0000 H   0  0  0  0  0  0  0  0  0  0  0  0
   26.3440   -0.4807    0.0000 H   0  0  0  0  0  0  0  0  0  0  0  0
   25.7308    2.8476    0.0000 H   0  0  0  0  0  0  0  0  0  0  0  0
   24.0698    2.0256    0.0000 H   0  0  0  0  0  0  0  0  0  0  0  0
   24.6630    2.9161    0.0000 H   0  0  0  0  0  0  0  0  0  0  0  0
   26.3114    2.6514    0.0000 H   0  0  0  0  0  0  0  0  0  0  0  0
   27.2019    2.0582    0.0000 H   0  0  0  0  0  0  0  0  0  0  0  0
   27.4970   -0.0546    0.0000 H   0  0  0  0  0  0  0  0  0  0  0  0
   27.6695    0.7763    0.0000 H   0  0  0  0  0  0  0  0  0  0  0  0
   30.5896    2.3770    0.0000 H   0  0  0  0  0  0  0  0  0  0  0  0
   31.4800    1.7837    0.0000 H   0  0  0  0  0  0  0  0  0  0  0  0
   31.3319    1.9145    0.0000 H   0  0  0  0  0  0  0  0  0  0  0  0
   32.9394    1.4635    0.0000 H   0  0  0  0  0  0  0  0  0  0  0  0
   33.0982   -0.3197    0.0000 H   0  0  0  0  0  0  0  0  0  0  0  0
   31.7028   -1.7156    0.0000 H   0  0  0  0  0  0  0  0  0  0  0  0
   31.4513   -1.0217    0.0000 H   0  0  0  0  0  0  0  0  0  0  0  0
   31.0917    0.7275    0.0000 H   0  0  0  0  0  0  0  0  0  0  0  0
   28.5628   -1.0868    0.0000 H   0  0  0  0  0  0  0  0  0  0  0  0
   33.4160    2.1791    0.0000 H   0  0  0  0  0  0  0  0  0  0  0  0
   36.7689   -0.7042    0.0000 H   0  0  0  0  0  0  0  0  0  0  0  0
   36.1763    0.8947    0.0000 H   0  0  0  0  0  0  0  0  0  0  0  0
   34.1519   -2.4797    0.0000 H   0  0  0  0  0  0  0  0  0  0  0  0
   15.5082    1.6514    0.0000 H   0  0  0  0  0  0  0  0  0  0  0  0
   13.3684    3.2923    0.0000 H   0  0  0  0  0  0  0  0  0  0  0  0
   14.3138    5.3545    0.0000 H   0  0  0  0  0  0  0  0  0  0  0  0
  1  2  1  0  0  0  0
  1 63  1  0  0  0  0
  1 64  1  0  0  0  0
  1 65  1  0  0  0  0
  2  3  1  0  0  0  0
  3  4  2  0  0  0  0
  3 61  1  0  0  0  0
  4  5  1  0  0  0  0
  4 66  1  0  0  0  0
  5  6  1  0  0  0  0
  5 58  2  0  0  0  0
  6  7  2  0  0  0  0
  6 67  1  0  0  0  0
  7  8  1  0  0  0  0
  7 68  1  0  0  0  0
  8  9  2  0  0  0  0
  8 10  1  0  0  0  0
 10 11  1  0  0  0  0
 11 12  1  0  0  0  0
 11 69  1  0  0  0  0
 11 70  1  0  0  0  0
 12 13  1  0  0  0  0
 12 71  1  0  0  0  0
 12 72  1  0  0  0  0
 13 14  1  0  0  0  0
 13 73  1  0  0  0  0
 14 15  2  0  0  0  0
 14 16  1  0  0  0  0
 16 17  1  0  0  0  0
 16 74  1  0  0  0  0
 16 75  1  0  0  0  0
 17 18  1  0  0  0  0
 17 76  1  0  0  0  0
 17 77  1  0  0  0  0
 18 19  1  0  0  0  0
 18 78  1  0  0  0  0
 19 20  2  0  0  0  0
 19 21  1  0  0  0  0
 21 22  1  0  0  0  0
 21 23  1  0  0  0  0
 21 79  1  6  0  0  0
 22 80  1  0  0  0  0
 23 24  1  0  0  0  0
 23 25  1  0  0  0  0
 23 26  1  0  0  0  0
 24 81  1  0  0  0  0
 24 82  1  0  0  0  0
 24 83  1  0  0  0  0
 25 84  1  0  0  0  0
 25 85  1  0  0  0  0
 25 86  1  0  0  0  0
 26 27  1  0  0  0  0
 26 87  1  0  0  0  0
 26 88  1  0  0  0  0
 28 27  1  0  0  0  0
 28 29  1  0  0  0  0
 28 30  2  1  0  0  0
 28 31  1  0  0  0  0
 29 89  1  0  0  0  0
 32 31  1  0  0  0  0
 32 33  1  0  0  0  0
 32 34  2  1  0  0  0
 32 35  1  0  0  0  0
 33 90  1  0  0  0  0
 35 36  1  0  0  0  0
 36 91  1  0  0  0  0
 36 92  1  0  0  0  0
 37 36  1  0  0  0  0
 37 38  1  0  0  0  0
 37 42  1  0  0  0  0
 37 93  1  6  0  0  0
 38 39  1  0  0  0  0
 39 40  1  0  0  0  0
 39 48  1  0  0  0  0
 39 94  1  6  0  0  0
 40 41  1  0  0  0  0
 40 42  1  0  0  0  0
 40 95  1  1  0  0  0
 41 96  1  0  0  0  0
 42 43  1  0  0  0  0
 42 97  1  1  0  0  0
 43 44  1  0  0  0  0
 44 45  1  0  0  0  0
 44 46  1  0  0  0  0
 44 47  2  0  0  0  0
 45 98  1  0  0  0  0
 46 99  1  0  0  0  0
 48 49  1  0  0  0  0
 48 57  1  0  0  0  0
 49 50  2  0  0  0  0
 49100  1  0  0  0  0
 50 51  1  0  0  0  0
 51 52  2  0  0  0  0
 51 57  1  0  0  0  0
 52 53  1  0  0  0  0
 52 54  1  0  0  0  0
 53101  1  0  0  0  0
 53102  1  0  0  0  0
 54 55  2  0  0  0  0
 55 56  1  0  0  0  0
 55103  1  0  0  0  0
 56 57  2  0  0  0  0
 58 59  1  0  0  0  0
 58104  1  0  0  0  0
 59 60  1  0  0  0  0
 59 61  2  0  0  0  0
 60105  1  0  0  0  0
 61 62  1  0  0  0  0
 62106  1  0  0  0  0
M  END
>  <DRUGBANK_ID>
DB03923

>  <SECONDARY_ACCESSION_NUMBERS>
EXPT01489

>  <COMMON_NAME>
Feruloyl Coenzyme A

$$$$
