
 OpenBabel10282417072D

 39 40  0  0  1  0  0  0  0  0999 V2000
   -0.1431   -0.4131    0.0000 C   0  0  0  0  0  0  0  0  0  0  0  0
    0.8131    0.6488    0.0000 C   0  0  0  0  0  0  0  0  0  0  0  0
    0.4700   -0.9651    0.0000 C   0  0  0  0  0  0  0  0  0  0  0  0
    1.4262    0.0968    0.0000 C   0  0  0  0  0  0  0  0  0  0  0  0
   -0.5846    0.9459    0.0000 C   0  0  0  0  0  0  0  0  0  0  0  0
   -3.7546   -0.6749    0.0000 C   0  0  0  0  0  0  0  0  0  0  0  0
   -3.4888    0.9459    0.0000 C   0  0  0  0  0  0  0  0  0  0  0  0
    0.0284    0.3939    0.0000 C   0  0  0  0  0  0  0  0  0  0  0  0
    1.2546   -0.7102    0.0000 C   0  0  0  0  0  0  0  0  0  0  0  0
   -2.9341   -0.7611    0.0000 C   0  0  1  0  0  0  0  0  0  0  0  0
   -1.3693    0.6910    0.0000 C   0  0  0  0  0  0  0  0  0  0  0  0
   -4.2395   -1.3423    0.0000 C   0  0  0  0  0  0  0  0  0  0  0  0
   -3.6603    1.7529    0.0000 C   0  0  0  0  0  0  0  0  0  0  0  0
   -2.4492   -0.0937    0.0000 C   0  0  0  0  0  0  0  0  0  0  0  0
   -2.0367    1.1759    0.0000 C   0  0  0  0  0  0  0  0  0  0  0  0
   -2.5986   -1.5148    0.0000 N   0  0  0  0  0  0  0  0  0  0  0  0
   -1.6242   -0.0937    0.0000 N   0  0  0  0  0  0  0  0  0  0  0  0
   -2.7041    0.6910    0.0000 N   0  0  0  0  0  0  0  0  0  0  0  0
    1.8677   -1.2622    0.0000 O   0  0  0  0  0  0  0  0  0  0  0  0
   -5.0600   -1.2561    0.0000 O   0  0  0  0  0  0  0  0  0  0  0  0
   -3.9040   -2.0960    0.0000 O   0  0  0  0  0  0  0  0  0  0  0  0
   -4.4449    2.0078    0.0000 O   0  0  0  0  0  0  0  0  0  0  0  0
   -3.0472    2.3049    0.0000 O   0  0  0  0  0  0  0  0  0  0  0  0
   -2.0367    2.0009    0.0000 O   0  0  0  0  0  0  0  0  0  0  0  0
   -0.4131    1.7529    0.0000 H   0  0  0  0  0  0  0  0  0  0  0  0
   -3.2697   -0.0074    0.0000 H   0  0  0  0  0  0  0  0  0  0  0  0
   -1.1246   -0.7320    0.0000 H   0  0  0  0  0  0  0  0  0  0  0  0
    1.0277    1.6582    0.0000 H   0  0  0  0  0  0  0  0  0  0  0  0
    0.2554   -1.9745    0.0000 H   0  0  0  0  0  0  0  0  0  0  0  0
    2.4077    0.4157    0.0000 H   0  0  0  0  0  0  0  0  0  0  0  0
   -4.1898    0.3026    0.0000 H   0  0  0  0  0  0  0  0  0  0  0  0
   -4.8187   -0.5631    0.0000 H   0  0  0  0  0  0  0  0  0  0  0  0
   -4.2840    0.2299    0.0000 H   0  0  0  0  0  0  0  0  0  0  0  0
   -3.2663   -0.1007    0.0000 H   0  0  0  0  0  0  0  0  0  0  0  0
   -3.1982   -2.3400    0.0000 H   0  0  0  0  0  0  0  0  0  0  0  0
   -1.5842   -1.6215    0.0000 H   0  0  0  0  0  0  0  0  0  0  0  0
    1.6729   -2.1787    0.0000 H   0  0  0  0  0  0  0  0  0  0  0  0
   -4.4548   -2.8540    0.0000 H   0  0  0  0  0  0  0  0  0  0  0  0
   -2.1561    2.0153    0.0000 H   0  0  0  0  0  0  0  0  0  0  0  0
  1 27  1  0  0  0  0
  2 28  1  0  0  0  0
  3  1  1  0  0  0  0
  3 29  1  0  0  0  0
  4  2  2  0  0  0  0
  4 30  1  0  0  0  0
  6 31  1  0  0  0  0
  6 32  1  0  0  0  0
  7 33  1  0  0  0  0
  7 34  1  0  0  0  0
  8  1  2  0  0  0  0
  8  2  1  0  0  0  0
  8  5  1  0  0  0  0
  9  3  2  0  0  0  0
  9  4  1  0  0  0  0
 10  6  1  0  0  0  0
 10 16  1  0  0  0  0
 10 26  1  6  0  0  0
 11  5  2  0  0  0  0
 12  6  1  0  0  0  0
 13  7  1  0  0  0  0
 14 10  1  0  0  0  0
 15 11  1  0  0  0  0
 16 35  1  0  0  0  0
 16 36  1  0  0  0  0
 17 11  1  0  0  0  0
 17 14  2  0  0  0  0
 18  7  1  0  0  0  0
 18 14  1  0  0  0  0
 18 15  1  0  0  0  0
 19  9  1  0  0  0  0
 19 37  1  0  0  0  0
 20 12  2  0  0  0  0
 21 12  1  0  0  0  0
 21 38  1  0  0  0  0
 22 13  2  0  0  0  0
 23 13  1  0  0  0  0
 23 39  1  0  0  0  0
 24 15  2  0  0  0  0
 25  5  1  0  0  0  0
M  END
>  <DRUGBANK_ID>
DB04686

>  <COMMON_NAME>
CHROMOPHORE (ASP-TYR-GLY)

$$$$
