
 OpenBabel10282417072D

 61 64  0  0  0  0  0  0  0  0999 V2000
    4.0668    2.3479    0.0000 C   0  0  0  0  0  0  0  0  0  0  0  0
    3.3523    1.9354    0.0000 C   0  0  0  0  0  0  0  0  0  0  0  0
    3.3523    1.1104    0.0000 C   0  0  0  0  0  0  0  0  0  0  0  0
    2.6378    0.6979    0.0000 C   0  0  0  0  0  0  0  0  0  0  0  0
    1.9233    1.1104    0.0000 C   0  0  0  0  0  0  0  0  0  0  0  0
    1.9233    1.9354    0.0000 C   0  0  0  0  0  0  0  0  0  0  0  0
    2.6378    2.3479    0.0000 C   0  0  0  0  0  0  0  0  0  0  0  0
    1.1387    2.1904    0.0000 N   0  0  0  0  0  0  0  0  0  0  0  0
    0.6538    1.5229    0.0000 C   0  0  0  0  0  0  0  0  0  0  0  0
    1.1387    0.8555    0.0000 N   0  0  0  0  0  0  0  0  0  0  0  0
   -0.1712    1.5229    0.0000 C   0  0  0  0  0  0  0  0  0  0  0  0
   -0.5837    0.8085    0.0000 C   0  0  0  0  0  0  0  0  0  0  0  0
   -1.4087    0.8085    0.0000 N   0  0  0  0  0  0  0  0  0  0  0  0
   -1.8212    1.5229    0.0000 C   0  0  0  0  0  0  0  0  0  0  0  0
   -1.4087    2.2374    0.0000 N   0  0  0  0  0  0  0  0  0  0  0  0
   -0.5837    2.2374    0.0000 C   0  0  0  0  0  0  0  0  0  0  0  0
   -0.1712    2.9519    0.0000 C   0  0  0  0  0  0  0  0  0  0  0  0
   -2.6462    1.5229    0.0000 N   0  0  0  0  0  0  0  0  0  0  0  0
   -3.0587    0.8085    0.0000 C   0  0  0  0  0  0  0  0  0  0  0  0
   -3.8837    0.8085    0.0000 C   0  0  0  0  0  0  0  0  0  0  0  0
   -4.2962    0.0940    0.0000 C   0  0  0  0  0  0  0  0  0  0  0  0
   -5.1212    0.0940    0.0000 C   0  0  0  0  0  0  0  0  0  0  0  0
   -5.5337   -0.6205    0.0000 C   0  0  0  0  0  0  0  0  0  0  0  0
   -6.3587   -0.6205    0.0000 C   0  0  0  0  0  0  0  0  0  0  0  0
   -6.7712    0.0940    0.0000 N   0  0  0  0  0  0  0  0  0  0  0  0
   -6.3587    0.8085    0.0000 C   0  0  0  0  0  0  0  0  0  0  0  0
   -5.5337    0.8085    0.0000 C   0  0  0  0  0  0  0  0  0  0  0  0
   -7.5962    0.0940    0.0000 C   0  0  0  0  0  0  0  0  0  0  0  0
    2.6378   -0.1271    0.0000 C   0  0  0  0  0  0  0  0  0  0  0  0
    4.9934    1.8129    0.0000 H   0  0  0  0  0  0  0  0  0  0  0  0
    4.0668    3.4179    0.0000 H   0  0  0  0  0  0  0  0  0  0  0  0
    4.9935    2.8829    0.0000 H   0  0  0  0  0  0  0  0  0  0  0  0
    4.2460    0.5944    0.0000 H   0  0  0  0  0  0  0  0  0  0  0  0
    2.6378    3.3799    0.0000 H   0  0  0  0  0  0  0  0  0  0  0  0
    0.8345    3.1267    0.0000 H   0  0  0  0  0  0  0  0  0  0  0  0
   -0.0677   -0.0852    0.0000 H   0  0  0  0  0  0  0  0  0  0  0  0
    0.8988    2.9519    0.0000 H   0  0  0  0  0  0  0  0  0  0  0  0
   -0.7062    3.8785    0.0000 H   0  0  0  0  0  0  0  0  0  0  0  0
    0.3638    3.8786    0.0000 H   0  0  0  0  0  0  0  0  0  0  0  0
   -3.1384    2.3755    0.0000 H   0  0  0  0  0  0  0  0  0  0  0  0
   -2.5237   -0.1182    0.0000 H   0  0  0  0  0  0  0  0  0  0  0  0
   -3.5937   -0.1181    0.0000 H   0  0  0  0  0  0  0  0  0  0  0  0
   -4.4187    1.7351    0.0000 H   0  0  0  0  0  0  0  0  0  0  0  0
   -4.9537    0.8085    0.0000 H   0  0  0  0  0  0  0  0  0  0  0  0
   -3.7612   -0.8326    0.0000 H   0  0  0  0  0  0  0  0  0  0  0  0
   -4.8312   -0.8326    0.0000 H   0  0  0  0  0  0  0  0  0  0  0  0
   -6.1912    0.0940    0.0000 H   0  0  0  0  0  0  0  0  0  0  0  0
   -4.9987   -1.5471    0.0000 H   0  0  0  0  0  0  0  0  0  0  0  0
   -6.0687   -1.5471    0.0000 H   0  0  0  0  0  0  0  0  0  0  0  0
   -6.8937   -1.5471    0.0000 H   0  0  0  0  0  0  0  0  0  0  0  0
   -7.4287   -0.6205    0.0000 H   0  0  0  0  0  0  0  0  0  0  0  0
   -6.8937    1.7351    0.0000 H   0  0  0  0  0  0  0  0  0  0  0  0
   -5.8237    1.7351    0.0000 H   0  0  0  0  0  0  0  0  0  0  0  0
   -4.9987    1.7351    0.0000 H   0  0  0  0  0  0  0  0  0  0  0  0
   -4.4637    0.8085    0.0000 H   0  0  0  0  0  0  0  0  0  0  0  0
   -8.1312    1.0206    0.0000 H   0  0  0  0  0  0  0  0  0  0  0  0
   -8.1312   -0.8326    0.0000 H   0  0  0  0  0  0  0  0  0  0  0  0
   -8.6662    0.0940    0.0000 H   0  0  0  0  0  0  0  0  0  0  0  0
    1.7112   -0.6621    0.0000 H   0  0  0  0  0  0  0  0  0  0  0  0
    3.5644   -0.6621    0.0000 H   0  0  0  0  0  0  0  0  0  0  0  0
    2.6378   -1.1971    0.0000 H   0  0  0  0  0  0  0  0  0  0  0  0
  1  2  1  0  0  0  0
  1 30  1  0  0  0  0
  1 31  1  0  0  0  0
  1 32  1  0  0  0  0
  2  3  2  0  0  0  0
  2  7  1  0  0  0  0
  3  4  1  0  0  0  0
  3 33  1  0  0  0  0
  4  5  2  0  0  0  0
  4 29  1  0  0  0  0
  5  6  1  0  0  0  0
  5 10  1  0  0  0  0
  6  7  2  0  0  0  0
  6  8  1  0  0  0  0
  7 34  1  0  0  0  0
  8  9  1  0  0  0  0
  8 35  1  0  0  0  0
  9 10  2  0  0  0  0
  9 11  1  0  0  0  0
 11 12  2  0  0  0  0
 11 16  1  0  0  0  0
 12 13  1  0  0  0  0
 12 36  1  0  0  0  0
 13 14  2  0  0  0  0
 14 15  1  0  0  0  0
 14 18  1  0  0  0  0
 15 16  2  0  0  0  0
 16 17  1  0  0  0  0
 17 37  1  0  0  0  0
 17 38  1  0  0  0  0
 17 39  1  0  0  0  0
 18 19  1  0  0  0  0
 18 40  1  0  0  0  0
 19 20  1  0  0  0  0
 19 41  1  0  0  0  0
 19 42  1  0  0  0  0
 20 21  1  0  0  0  0
 20 43  1  0  0  0  0
 20 44  1  0  0  0  0
 21 22  1  0  0  0  0
 21 45  1  0  0  0  0
 21 46  1  0  0  0  0
 22 23  1  0  0  0  0
 22 27  1  0  0  0  0
 22 47  1  0  0  0  0
 23 24  1  0  0  0  0
 23 48  1  0  0  0  0
 23 49  1  0  0  0  0
 24 25  1  0  0  0  0
 24 50  1  0  0  0  0
 24 51  1  0  0  0  0
 25 26  1  0  0  0  0
 25 28  1  0  0  0  0
 26 27  1  0  0  0  0
 26 52  1  0  0  0  0
 26 53  1  0  0  0  0
 27 54  1  0  0  0  0
 27 55  1  0  0  0  0
 28 56  1  0  0  0  0
 28 57  1  0  0  0  0
 28 58  1  0  0  0  0
 29 59  1  0  0  0  0
 29 60  1  0  0  0  0
 29 61  1  0  0  0  0
M  END
>  <DRUGBANK_ID>
DB12522

>  <COMMON_NAME>
Toreforant

>  <CAS_NUMBER>
952494-46-1

>  <UNII>
U6LA7G393X

>  <SYNONYMS>
Toreforant

$$$$
