
 OpenBabel10282417072D

 35 36  0  0  0  0  0  0  0  0999 V2000
   -1.0717    0.8250    0.0000 C   0  0  0  0  0  0  0  0  0  0  0  0
   -1.7861    0.4125    0.0000 N   0  0  0  0  0  0  0  0  0  0  0  0
   -1.7861   -0.4125    0.0000 C   0  0  0  0  0  0  0  0  0  0  0  0
   -1.0717   -0.8250    0.0000 C   0  0  0  0  0  0  0  0  0  0  0  0
   -1.0717   -1.6500    0.0000 C   0  0  0  0  0  0  0  0  0  0  0  0
   -1.7861   -2.0625    0.0000 C   0  0  0  0  0  0  0  0  0  0  0  0
   -2.5006   -1.6500    0.0000 C   0  0  0  0  0  0  0  0  0  0  0  0
   -2.5006   -0.8250    0.0000 C   0  0  0  0  0  0  0  0  0  0  0  0
   -1.0717    1.6500    0.0000 C   0  0  0  0  0  0  0  0  0  0  0  0
   -0.3572    2.0625    0.0000 C   0  0  0  0  0  0  0  0  0  0  0  0
    0.3572    1.6500    0.0000 C   0  0  0  0  0  0  0  0  0  0  0  0
    1.0717    2.0625    0.0000 N   0  0  0  0  0  0  0  0  0  0  0  0
    1.7861    1.6500    0.0000 C   0  0  0  0  0  0  0  0  0  0  0  0
    2.5006    2.0625    0.0000 C   0  0  0  0  0  0  0  0  0  0  0  0
    1.7861    0.8250    0.0000 C   0  0  0  0  0  0  0  0  0  0  0  0
    0.3572    0.8250    0.0000 C   0  0  0  0  0  0  0  0  0  0  0  0
   -0.3572    0.4125    0.0000 C   0  0  0  0  0  0  0  0  0  0  0  0
   -2.6387    0.9047    0.0000 H   0  0  0  0  0  0  0  0  0  0  0  0
   -0.1780   -0.3090    0.0000 H   0  0  0  0  0  0  0  0  0  0  0  0
   -0.1780   -2.1660    0.0000 H   0  0  0  0  0  0  0  0  0  0  0  0
   -1.7861   -3.0945    0.0000 H   0  0  0  0  0  0  0  0  0  0  0  0
   -3.3943   -2.1660    0.0000 H   0  0  0  0  0  0  0  0  0  0  0  0
   -3.3943   -0.3090    0.0000 H   0  0  0  0  0  0  0  0  0  0  0  0
   -1.9654    2.1660    0.0000 H   0  0  0  0  0  0  0  0  0  0  0  0
   -0.3572    3.0945    0.0000 H   0  0  0  0  0  0  0  0  0  0  0  0
    1.0717    3.0470    0.0000 H   0  0  0  0  0  0  0  0  0  0  0  0
    2.7127    1.1150    0.0000 H   0  0  0  0  0  0  0  0  0  0  0  0
    3.4272    1.5275    0.0000 H   0  0  0  0  0  0  0  0  0  0  0  0
    2.5006    3.1325    0.0000 H   0  0  0  0  0  0  0  0  0  0  0  0
    3.4273    2.5975    0.0000 H   0  0  0  0  0  0  0  0  0  0  0  0
    0.8595    0.2900    0.0000 H   0  0  0  0  0  0  0  0  0  0  0  0
    2.7127    0.2900    0.0000 H   0  0  0  0  0  0  0  0  0  0  0  0
    1.7861   -0.2450    0.0000 H   0  0  0  0  0  0  0  0  0  0  0  0
    1.2509    0.3090    0.0000 H   0  0  0  0  0  0  0  0  0  0  0  0
   -0.3572   -0.6195    0.0000 H   0  0  0  0  0  0  0  0  0  0  0  0
  1  2  1  0  0  0  0
  1  9  2  0  0  0  0
  1 17  1  0  0  0  0
  2  3  1  0  0  0  0
  2 18  1  0  0  0  0
  3  4  2  0  0  0  0
  3  8  1  0  0  0  0
  4  5  1  0  0  0  0
  4 19  1  0  0  0  0
  5  6  2  0  0  0  0
  5 20  1  0  0  0  0
  6  7  1  0  0  0  0
  6 21  1  0  0  0  0
  7  8  2  0  0  0  0
  7 22  1  0  0  0  0
  8 23  1  0  0  0  0
  9 10  1  0  0  0  0
  9 24  1  0  0  0  0
 10 11  2  0  0  0  0
 10 25  1  0  0  0  0
 11 12  1  0  0  0  0
 11 16  1  0  0  0  0
 12 13  1  0  0  0  0
 12 26  1  0  0  0  0
 13 14  1  0  0  0  0
 13 15  1  0  0  0  0
 13 27  1  0  0  0  0
 14 28  1  0  0  0  0
 14 29  1  0  0  0  0
 14 30  1  0  0  0  0
 15 31  1  0  0  0  0
 15 32  1  0  0  0  0
 15 33  1  0  0  0  0
 16 17  2  0  0  0  0
 16 34  1  0  0  0  0
 17 35  1  0  0  0  0
M  END
>  <DRUGBANK_ID>
DB14195

>  <COMMON_NAME>
4-(Isopropylamino)diphenylamine

>  <CAS_NUMBER>
101-72-4

>  <UNII>
0M7PSL4100

>  <SYNONYMS>
1,4-Benzenediamine, N-(1-methylethyl)-N'-phenyl-; 4-Anilino-N-isopropylaniline; Cyzone; IPPD; N-Fenyl-N'-isopropyl-p-fenylendiamin; N-Isopropyl-N'-phenyl-1,4-phenylenediamine; N-Isopropyl-N'-phenyl-p-phenylenediamine; Nonox ZA; p-Phenylenediamine, N-isopropyl-N'-phenyl

$$$$
