
 OpenBabel10282417072D

 95 98  0  0  0  0  0  0  0  0999 V2000
    0.3562   -0.2067    0.0000 O   0  0  0  0  0  0  0  0  0  0  0  0
    0.3562   -1.0316    0.0000 C   0  0  0  0  0  0  0  0  0  0  0  0
   -0.3562   -1.4432    0.0000 C   0  0  0  0  0  0  0  0  0  0  0  0
    1.0727   -1.4432    0.0000 C   0  0  0  0  0  0  0  0  0  0  0  0
   -1.0706   -1.0316    0.0000 C   0  0  0  0  0  0  0  0  0  0  0  0
   -0.3562   -2.2682    0.0000 C   0  0  0  0  0  0  0  0  0  0  0  0
    1.0727   -2.2682    0.0000 C   0  0  0  0  0  0  0  0  0  0  0  0
   -1.0706   -0.2067    0.0000 N   0  0  0  0  0  0  0  0  0  0  0  0
   -1.7851   -1.4432    0.0000 N   0  0  0  0  0  0  0  0  0  0  0  0
    0.3562   -2.6817    0.0000 C   0  0  0  0  0  0  0  0  0  0  0  0
    1.7871   -2.6817    0.0000 O   0  0  0  0  0  0  0  0  0  0  0  0
   -1.7851    0.2067    0.0000 C   0  0  0  0  0  0  0  0  0  0  0  0
   -2.5016   -1.0316    0.0000 C   0  0  0  0  0  0  0  0  0  0  0  0
    2.5016   -2.2682    0.0000 C   0  0  0  0  0  0  0  0  0  0  0  0
   -2.5016   -0.2067    0.0000 N   0  0  0  0  0  0  0  0  0  0  0  0
   -1.7851    1.0317    0.0000 C   0  0  0  0  0  0  0  0  0  0  0  0
   -3.2160   -1.4432    0.0000 C   0  0  0  0  0  0  0  0  0  0  0  0
    3.2160   -2.6817    0.0000 C   0  0  3  0  0  0  0  0  0  0  0  0
   -2.4975    1.4432    0.0000 C   0  0  0  0  0  0  0  0  0  0  0  0
   -1.0686    1.4432    0.0000 C   0  0  0  0  0  0  0  0  0  0  0  0
   -3.2160   -2.2682    0.0000 C   0  0  0  0  0  0  0  0  0  0  0  0
   -3.9284   -1.0316    0.0000 C   0  0  0  0  0  0  0  0  0  0  0  0
    3.9305   -2.2682    0.0000 C   0  0  0  0  0  0  0  0  0  0  0  0
    3.2160   -3.5066    0.0000 C   0  0  0  0  0  0  0  0  0  0  0  0
   -3.2119    1.0317    0.0000 O   0  0  0  0  0  0  0  0  0  0  0  0
   -2.4975    2.2682    0.0000 C   0  0  0  0  0  0  0  0  0  0  0  0
   -1.0686    2.2682    0.0000 C   0  0  0  0  0  0  0  0  0  0  0  0
   -3.9284   -2.6817    0.0000 C   0  0  0  0  0  0  0  0  0  0  0  0
   -4.6449   -1.4432    0.0000 C   0  0  0  0  0  0  0  0  0  0  0  0
    4.6449   -2.6817    0.0000 C   0  0  0  0  0  0  0  0  0  0  0  0
    3.9305   -3.9182    0.0000 C   0  0  0  0  0  0  0  0  0  0  0  0
   -1.7851    2.6817    0.0000 C   0  0  0  0  0  0  0  0  0  0  0  0
   -4.6449   -2.2682    0.0000 C   0  0  0  0  0  0  0  0  0  0  0  0
    5.3594   -2.2682    0.0000 C   0  0  0  0  0  0  0  0  0  0  0  0
   -1.7851    3.5067    0.0000 O   0  0  0  0  0  0  0  0  0  0  0  0
   -5.3594   -2.6817    0.0000 O   0  0  0  0  0  0  0  0  0  0  0  0
    6.0738   -2.6817    0.0000 C   0  0  0  0  0  0  0  0  0  0  0  0
   -1.0706    3.9182    0.0000 C   0  0  0  0  0  0  0  0  0  0  0  0
   -6.0738   -2.2682    0.0000 C   0  0  0  0  0  0  0  0  0  0  0  0
   -0.3562    3.5067    0.0000 C   0  0  3  0  0  0  0  0  0  0  0  0
    0.3581    3.9182    0.0000 C   0  0  0  0  0  0  0  0  0  0  0  0
   -0.3562    2.6817    0.0000 C   0  0  0  0  0  0  0  0  0  0  0  0
    1.0727    3.5067    0.0000 C   0  0  0  0  0  0  0  0  0  0  0  0
    0.3581    2.2682    0.0000 C   0  0  0  0  0  0  0  0  0  0  0  0
    1.7871    3.9182    0.0000 C   0  0  0  0  0  0  0  0  0  0  0  0
    2.5016    3.5067    0.0000 C   0  0  0  0  0  0  0  0  0  0  0  0
    1.1677    0.2618    0.0000 H   0  0  0  0  0  0  0  0  0  0  0  0
    1.9659   -0.9262    0.0000 H   0  0  0  0  0  0  0  0  0  0  0  0
   -1.2505   -2.7832    0.0000 H   0  0  0  0  0  0  0  0  0  0  0  0
    0.3549   -3.7137    0.0000 H   0  0  0  0  0  0  0  0  0  0  0  0
    2.5016   -1.1982    0.0000 H   0  0  0  0  0  0  0  0  0  0  0  0
    3.4285   -1.7337    0.0000 H   0  0  0  0  0  0  0  0  0  0  0  0
    3.2160   -1.6117    0.0000 H   0  0  0  0  0  0  0  0  0  0  0  0
   -0.1754    0.9262    0.0000 H   0  0  0  0  0  0  0  0  0  0  0  0
   -2.3217   -2.7832    0.0000 H   0  0  0  0  0  0  0  0  0  0  0  0
   -3.9271    0.0004    0.0000 H   0  0  0  0  0  0  0  0  0  0  0  0
    3.9305   -1.1982    0.0000 H   0  0  0  0  0  0  0  0  0  0  0  0
    4.8574   -1.7337    0.0000 H   0  0  0  0  0  0  0  0  0  0  0  0
    2.2896   -4.0420    0.0000 H   0  0  0  0  0  0  0  0  0  0  0  0
    3.2168   -4.5766    0.0000 H   0  0  0  0  0  0  0  0  0  0  0  0
   -4.0229    1.5010    0.0000 H   0  0  0  0  0  0  0  0  0  0  0  0
   -3.3918    2.7832    0.0000 H   0  0  0  0  0  0  0  0  0  0  0  0
   -0.1749    2.7843    0.0000 H   0  0  0  0  0  0  0  0  0  0  0  0
   -3.9271   -3.7137    0.0000 H   0  0  0  0  0  0  0  0  0  0  0  0
   -5.5381   -0.9262    0.0000 H   0  0  0  0  0  0  0  0  0  0  0  0
    4.6449   -3.7517    0.0000 H   0  0  0  0  0  0  0  0  0  0  0  0
    5.5718   -3.2162    0.0000 H   0  0  0  0  0  0  0  0  0  0  0  0
    3.9315   -4.9882    0.0000 H   0  0  0  0  0  0  0  0  0  0  0  0
    4.8566   -3.3823    0.0000 H   0  0  0  0  0  0  0  0  0  0  0  0
    4.8577   -4.4523    0.0000 H   0  0  0  0  0  0  0  0  0  0  0  0
    5.3594   -1.1982    0.0000 H   0  0  0  0  0  0  0  0  0  0  0  0
    6.2863   -1.7337    0.0000 H   0  0  0  0  0  0  0  0  0  0  0  0
    6.0726   -3.7517    0.0000 H   0  0  0  0  0  0  0  0  0  0  0  0
    7.0010   -2.1477    0.0000 H   0  0  0  0  0  0  0  0  0  0  0  0
    6.9999   -3.2177    0.0000 H   0  0  0  0  0  0  0  0  0  0  0  0
   -1.0706    4.9882    0.0000 H   0  0  0  0  0  0  0  0  0  0  0  0
   -0.1442    4.4537    0.0000 H   0  0  0  0  0  0  0  0  0  0  0  0
   -6.0726   -1.1982    0.0000 H   0  0  0  0  0  0  0  0  0  0  0  0
   -7.0010   -2.8022    0.0000 H   0  0  0  0  0  0  0  0  0  0  0  0
   -6.9999   -1.7322    0.0000 H   0  0  0  0  0  0  0  0  0  0  0  0
   -0.3562    4.5767    0.0000 H   0  0  0  0  0  0  0  0  0  0  0  0
    0.3580    4.9882    0.0000 H   0  0  0  0  0  0  0  0  0  0  0  0
    1.2844    4.4538    0.0000 H   0  0  0  0  0  0  0  0  0  0  0  0
   -1.2832    2.1472    0.0000 H   0  0  0  0  0  0  0  0  0  0  0  0
   -0.3571    1.6117    0.0000 H   0  0  0  0  0  0  0  0  0  0  0  0
    1.0728    2.4367    0.0000 H   0  0  0  0  0  0  0  0  0  0  0  0
    1.9991    2.9713    0.0000 H   0  0  0  0  0  0  0  0  0  0  0  0
    0.3569    1.1982    0.0000 H   0  0  0  0  0  0  0  0  0  0  0  0
    1.2854    2.8021    0.0000 H   0  0  0  0  0  0  0  0  0  0  0  0
    1.2841    1.7321    0.0000 H   0  0  0  0  0  0  0  0  0  0  0  0
    1.7871    4.9882    0.0000 H   0  0  0  0  0  0  0  0  0  0  0  0
    2.7135    4.4537    0.0000 H   0  0  0  0  0  0  0  0  0  0  0  0
    2.5027    2.4367    0.0000 H   0  0  0  0  0  0  0  0  0  0  0  0
    3.4277    4.0427    0.0000 H   0  0  0  0  0  0  0  0  0  0  0  0
    3.4288    2.9727    0.0000 H   0  0  0  0  0  0  0  0  0  0  0  0
  1  2  1  0  0  0  0
  1 47  1  0  0  0  0
  2  3  2  0  0  0  0
  2  4  1  0  0  0  0
  3  5  1  0  0  0  0
  3  6  1  0  0  0  0
  4  7  2  0  0  0  0
  4 48  1  0  0  0  0
  5  8  1  0  0  0  0
  5  9  2  0  0  0  0
  6 10  2  0  0  0  0
  6 49  1  0  0  0  0
  7 10  1  0  0  0  0
  7 11  1  0  0  0  0
  8 12  2  0  0  0  0
  9 13  1  0  0  0  0
 10 50  1  0  0  0  0
 11 14  1  0  0  0  0
 12 15  1  0  0  0  0
 12 16  1  0  0  0  0
 13 15  2  0  0  0  0
 13 17  1  0  0  0  0
 14 18  1  0  0  0  0
 14 51  1  0  0  0  0
 14 52  1  0  0  0  0
 16 19  2  0  0  0  0
 16 20  1  0  0  0  0
 17 21  2  0  0  0  0
 17 22  1  0  0  0  0
 18 23  1  0  0  0  0
 18 24  1  0  0  0  0
 18 53  1  0  0  0  0
 19 25  1  0  0  0  0
 19 26  1  0  0  0  0
 20 27  2  0  0  0  0
 20 54  1  0  0  0  0
 21 28  1  0  0  0  0
 21 55  1  0  0  0  0
 22 29  2  0  0  0  0
 22 56  1  0  0  0  0
 23 30  1  0  0  0  0
 23 57  1  0  0  0  0
 23 58  1  0  0  0  0
 24 31  1  0  0  0  0
 24 59  1  0  0  0  0
 24 60  1  0  0  0  0
 25 61  1  0  0  0  0
 26 32  2  0  0  0  0
 26 62  1  0  0  0  0
 27 32  1  0  0  0  0
 27 63  1  0  0  0  0
 28 33  2  0  0  0  0
 28 64  1  0  0  0  0
 29 33  1  0  0  0  0
 29 65  1  0  0  0  0
 30 34  1  0  0  0  0
 30 66  1  0  0  0  0
 30 67  1  0  0  0  0
 31 68  1  0  0  0  0
 31 69  1  0  0  0  0
 31 70  1  0  0  0  0
 32 35  1  0  0  0  0
 33 36  1  0  0  0  0
 34 37  1  0  0  0  0
 34 71  1  0  0  0  0
 34 72  1  0  0  0  0
 35 38  1  0  0  0  0
 36 39  1  0  0  0  0
 37 73  1  0  0  0  0
 37 74  1  0  0  0  0
 37 75  1  0  0  0  0
 38 40  1  0  0  0  0
 38 76  1  0  0  0  0
 38 77  1  0  0  0  0
 39 78  1  0  0  0  0
 39 79  1  0  0  0  0
 39 80  1  0  0  0  0
 40 41  1  0  0  0  0
 40 42  1  0  0  0  0
 40 81  1  0  0  0  0
 41 43  1  0  0  0  0
 41 82  1  0  0  0  0
 41 83  1  0  0  0  0
 42 44  1  0  0  0  0
 42 84  1  0  0  0  0
 42 85  1  0  0  0  0
 43 45  1  0  0  0  0
 43 86  1  0  0  0  0
 43 87  1  0  0  0  0
 44 88  1  0  0  0  0
 44 89  1  0  0  0  0
 44 90  1  0  0  0  0
 45 46  1  0  0  0  0
 45 91  1  0  0  0  0
 45 92  1  0  0  0  0
 46 93  1  0  0  0  0
 46 94  1  0  0  0  0
 46 95  1  0  0  0  0
M  END
>  <DRUGBANK_ID>
DB11206

>  <COMMON_NAME>
Bemotrizinol

>  <CAS_NUMBER>
187393-00-6

>  <UNII>
PWZ1720CBH

>  <SYNONYMS>
Bemotrizinol; BEMT

$$$$
