
 OpenBabel10282417072D

 32 33  0  0  1  0  0  0  0  0999 V2000
    2.4324   -3.0882    0.0000 O   0  0  0  0  0  0  0  0  0  0  0  0
    1.6119   -3.1745    0.0000 C   0  0  0  0  0  0  0  0  0  0  0  0
    1.1270   -2.5070    0.0000 C   0  0  1  0  0  0  0  0  0  0  0  0
    0.3020   -2.5070    0.0000 O   0  0  0  0  0  0  0  0  0  0  0  0
    0.0470   -1.7224    0.0000 C   0  0  1  0  0  0  0  0  0  0  0  0
   -0.7376   -1.4675    0.0000 N   0  0  0  0  0  0  0  0  0  0  0  0
   -1.3507   -2.0195    0.0000 C   0  0  0  0  0  0  0  0  0  0  0  0
   -2.1353   -1.7646    0.0000 C   0  0  0  0  0  0  0  0  0  0  0  0
   -2.3068   -0.9576    0.0000 C   0  0  1  0  0  0  0  0  0  0  0  0
   -3.0915   -0.7027    0.0000 O   0  0  0  0  0  0  0  0  0  0  0  0
   -1.6937   -0.4056    0.0000 N   0  0  0  0  0  0  0  0  0  0  0  0
   -0.9091   -0.6605    0.0000 C   0  0  0  0  0  0  0  0  0  0  0  0
   -0.2960   -0.1085    0.0000 O   0  0  0  0  0  0  0  0  0  0  0  0
    0.7145   -1.2375    0.0000 C   0  0  0  0  0  0  0  0  0  0  0  0
    0.1624   -0.6244    0.0000 F   0  0  0  0  0  0  0  0  0  0  0  0
    1.2665   -0.6244    0.0000 F   0  0  0  0  0  0  0  0  0  0  0  0
    1.3819   -1.7224    0.0000 C   0  0  2  0  0  0  0  0  0  0  0  0
    2.1665   -1.4675    0.0000 O   0  0  0  0  0  0  0  0  0  0  0  0
    3.0026   -3.8729    0.0000 H   0  0  0  0  0  0  0  0  0  0  0  0
    1.1767   -4.1520    0.0000 H   0  0  0  0  0  0  0  0  0  0  0  0
    0.5478   -3.2863    0.0000 H   0  0  0  0  0  0  0  0  0  0  0  0
    0.6412   -3.4604    0.0000 H   0  0  0  0  0  0  0  0  0  0  0  0
   -0.7096   -2.4790    0.0000 H   0  0  0  0  0  0  0  0  0  0  0  0
   -1.1282   -3.0661    0.0000 H   0  0  0  0  0  0  0  0  0  0  0  0
   -2.1459   -2.7355    0.0000 H   0  0  0  0  0  0  0  0  0  0  0  0
   -2.9305   -2.4806    0.0000 H   0  0  0  0  0  0  0  0  0  0  0  0
   -3.1529   -1.4339    0.0000 H   0  0  0  0  0  0  0  0  0  0  0  0
   -3.1020   -1.6736    0.0000 H   0  0  0  0  0  0  0  0  0  0  0  0
   -3.2932    0.2461    0.0000 H   0  0  0  0  0  0  0  0  0  0  0  0
   -1.8984    0.5574    0.0000 H   0  0  0  0  0  0  0  0  0  0  0  0
    1.5493   -0.6656    0.0000 H   0  0  0  0  0  0  0  0  0  0  0  0
    2.8873   -2.1166    0.0000 H   0  0  0  0  0  0  0  0  0  0  0  0
  1  2  1  0  0  0  0
  1 19  1  0  0  0  0
  2 20  1  0  0  0  0
  2 21  1  0  0  0  0
  3  2  1  0  0  0  0
  3  4  1  0  0  0  0
  3 17  1  0  0  0  0
  3 22  1  6  0  0  0
  5  4  1  0  0  0  0
  5  6  1  0  0  0  0
  5 14  1  0  0  0  0
  5 23  1  6  0  0  0
  6  7  1  0  0  0  0
  6 12  1  0  0  0  0
  7  8  1  0  0  0  0
  7 24  1  0  0  0  0
  7 25  1  0  0  0  0
  8 26  1  0  0  0  0
  8 27  1  0  0  0  0
  9  8  1  0  0  0  0
  9 10  1  0  0  0  0
  9 11  1  0  0  0  0
  9 28  1  6  0  0  0
 10 29  1  0  0  0  0
 11 12  1  0  0  0  0
 11 30  1  0  0  0  0
 12 13  2  0  0  0  0
 14 15  1  0  0  0  0
 14 16  1  0  0  0  0
 17 14  1  0  0  0  0
 17 18  1  0  0  0  0
 17 31  1  1  0  0  0
 18 32  1  0  0  0  0
M  END
>  <DRUGBANK_ID>
DB15694

>  <COMMON_NAME>
Cedazuridine

>  <CAS_NUMBER>
1141397-80-9

>  <UNII>
39IS23Q1EW

>  <SYNONYMS>
(4R)-2'-Deoxy-2',2'-difluoro-3,4,5,6-tetrahydrouridine; Cedazuridine

$$$$
