
 OpenBabel10282417072D

 33 33  0  0  0  0  0  0  0  0999 V2000
   -0.3764    0.4182    0.0000 C   0  0  0  0  0  0  0  0  0  0  0  0
   -0.3764   -0.4182    0.0000 C   0  0  0  0  0  0  0  0  0  0  0  0
    0.3764   -0.8364    0.0000 C   0  0  0  0  0  0  0  0  0  0  0  0
    1.0873   -0.4182    0.0000 C   0  0  0  0  0  0  0  0  0  0  0  0
    1.0873    0.4182    0.0000 C   0  0  0  0  0  0  0  0  0  0  0  0
    0.3764    0.8365    0.0000 C   0  0  0  0  0  0  0  0  0  0  0  0
    1.7984    0.8365    0.0000 C   0  0  0  0  0  0  0  0  0  0  0  0
    2.5094    0.4182    0.0000 C   0  0  0  0  0  0  0  0  0  0  0  0
    3.2624    0.8365    0.0000 N   0  0  0  0  0  0  0  0  0  0  0  0
    2.5094   -0.4182    0.0000 O   0  0  0  0  0  0  0  0  0  0  0  0
    3.9734    0.4182    0.0000 O   0  0  0  0  0  0  0  0  0  0  0  0
   -1.0875   -0.8364    0.0000 O   0  0  0  0  0  0  0  0  0  0  0  0
   -1.7986   -0.4182    0.0000 C   0  0  0  0  0  0  0  0  0  0  0  0
   -2.5514   -0.8364    0.0000 C   0  0  0  0  0  0  0  0  0  0  0  0
   -3.2625   -0.4182    0.0000 C   0  0  0  0  0  0  0  0  0  0  0  0
   -3.9734   -0.8364    0.0000 C   0  0  0  0  0  0  0  0  0  0  0  0
   -1.2659    0.9415    0.0000 H   0  0  0  0  0  0  0  0  0  0  0  0
    0.3891   -1.8683    0.0000 H   0  0  0  0  0  0  0  0  0  0  0  0
    1.9831   -0.9306    0.0000 H   0  0  0  0  0  0  0  0  0  0  0  0
    0.3891    1.8684    0.0000 H   0  0  0  0  0  0  0  0  0  0  0  0
    1.7984    1.9065    0.0000 H   0  0  0  0  0  0  0  0  0  0  0  0
    0.8696    1.3677    0.0000 H   0  0  0  0  0  0  0  0  0  0  0  0
    3.2746    1.8209    0.0000 H   0  0  0  0  0  0  0  0  0  0  0  0
    3.9655   -0.5518    0.0000 H   0  0  0  0  0  0  0  0  0  0  0  0
   -1.7855    0.6517    0.0000 H   0  0  0  0  0  0  0  0  0  0  0  0
   -2.7174    0.1301    0.0000 H   0  0  0  0  0  0  0  0  0  0  0  0
   -2.5645   -1.9063    0.0000 H   0  0  0  0  0  0  0  0  0  0  0  0
   -3.4834   -1.3620    0.0000 H   0  0  0  0  0  0  0  0  0  0  0  0
   -3.2626    0.6518    0.0000 H   0  0  0  0  0  0  0  0  0  0  0  0
   -4.1913    0.1130    0.0000 H   0  0  0  0  0  0  0  0  0  0  0  0
   -4.9044   -0.3090    0.0000 H   0  0  0  0  0  0  0  0  0  0  0  0
   -3.9647   -1.9064    0.0000 H   0  0  0  0  0  0  0  0  0  0  0  0
   -4.8957   -1.3789    0.0000 H   0  0  0  0  0  0  0  0  0  0  0  0
  1  2  1  0  0  0  0
  1 17  1  0  0  0  0
  2  3  2  0  0  0  0
  2 12  1  0  0  0  0
  3  4  1  0  0  0  0
  3 18  1  0  0  0  0
  4  5  2  0  0  0  0
  4 19  1  0  0  0  0
  5  6  1  0  0  0  0
  5  7  1  0  0  0  0
  6  1  2  0  0  0  0
  6 20  1  0  0  0  0
  7  8  1  0  0  0  0
  7 21  1  0  0  0  0
  7 22  1  0  0  0  0
  8  9  1  0  0  0  0
  8 10  2  0  0  0  0
  9 11  1  0  0  0  0
  9 23  1  0  0  0  0
 11 24  1  0  0  0  0
 12 13  1  0  0  0  0
 13 14  1  0  0  0  0
 13 25  1  0  0  0  0
 13 26  1  0  0  0  0
 14 15  1  0  0  0  0
 14 27  1  0  0  0  0
 14 28  1  0  0  0  0
 15 16  1  0  0  0  0
 15 29  1  0  0  0  0
 15 30  1  0  0  0  0
 16 31  1  0  0  0  0
 16 32  1  0  0  0  0
 16 33  1  0  0  0  0
M  END
>  <DRUGBANK_ID>
DB13346

>  <COMMON_NAME>
Bufexamac

>  <CAS_NUMBER>
2438-72-4

>  <UNII>
4T3C38J78L

>  <SYNONYMS>
2-(p-Butoxyphenyl)-acetohydroxamic acid; 4-Butoxy-N-hydroxybenzeneacetamide; 4-Butoxyphenylacetohydroxamic acid; Acide p-butoxyphenylacethydroxamique; Bufexamac; bufexamaco; bufexamacum; Bufexamic acid; p-Butoxyphenylacetohydroxamic acid

$$$$
