ALR
 OpenBabel10282417072D

 28 30  0  0  0  0  0  0  0  0999 V2000
   -0.2498   -0.8256    0.0000 C   0  0  0  0  0  0  0  0  0  0  0  0
    0.4646    0.4119    0.0000 C   0  0  0  0  0  0  0  0  0  0  0  0
   -0.2498    0.8244    0.0000 C   0  0  0  0  0  0  0  0  0  0  0  0
   -0.9643   -0.4131    0.0000 C   0  0  0  0  0  0  0  0  0  0  0  0
   -0.2498    1.6494    0.0000 O   0  0  0  0  0  0  0  0  0  0  0  0
   -1.6788   -0.8256    0.0000 O   0  0  0  0  0  0  0  0  0  0  0  0
   -1.6788    0.8244    0.0000 C   0  0  0  0  0  0  0  0  0  0  0  0
    0.4646   -0.4131    0.0000 C   0  0  0  0  0  0  0  0  0  0  0  0
    1.1791   -0.8256    0.0000 C   0  0  0  0  0  0  0  0  0  0  0  0
    1.8936   -0.4131    0.0000 C   0  0  0  0  0  0  0  0  0  0  0  0
    1.8936    0.4119    0.0000 C   0  0  0  0  0  0  0  0  0  0  0  0
    1.1791    0.8244    0.0000 C   0  0  0  0  0  0  0  0  0  0  0  0
   -0.2498   -1.6506    0.0000 C   0  0  0  0  0  0  0  0  0  0  0  0
    0.4646   -2.0631    0.0000 C   0  0  0  0  0  0  0  0  0  0  0  0
    1.1791   -1.6506    0.0000 C   0  0  0  0  0  0  0  0  0  0  0  0
   -0.9643    0.4119    0.0000 N   0  0  0  0  0  0  0  0  0  0  0  0
   -1.6788    1.6494    0.0000 C   0  0  0  0  0  0  0  0  0  0  0  0
   -2.3932    2.0619    0.0000 O   0  0  0  0  0  0  0  0  0  0  0  0
   -0.9643    2.0619    0.0000 O   0  0  0  0  0  0  0  0  0  0  0  0
   -2.6054    0.2894    0.0000 H   0  0  0  0  0  0  0  0  0  0  0  0
   -2.6054    1.3594    0.0000 H   0  0  0  0  0  0  0  0  0  0  0  0
    2.7873   -0.9291    0.0000 H   0  0  0  0  0  0  0  0  0  0  0  0
    2.7873    0.9279    0.0000 H   0  0  0  0  0  0  0  0  0  0  0  0
    1.1791    1.8564    0.0000 H   0  0  0  0  0  0  0  0  0  0  0  0
   -1.1435   -2.1666    0.0000 H   0  0  0  0  0  0  0  0  0  0  0  0
    0.4646   -3.0951    0.0000 H   0  0  0  0  0  0  0  0  0  0  0  0
    2.0728   -2.1666    0.0000 H   0  0  0  0  0  0  0  0  0  0  0  0
   -0.1528    1.5934    0.0000 H   0  0  0  0  0  0  0  0  0  0  0  0
  1  4  1  0  0  0  0
  1  8  2  0  0  0  0
  1 13  1  0  0  0  0
  2  3  1  0  0  0  0
  2  8  1  0  0  0  0
  2 12  2  0  0  0  0
  3  5  2  0  0  0  0
  3 16  1  0  0  0  0
  4  6  2  0  0  0  0
  4 16  1  0  0  0  0
  7 16  1  0  0  0  0
  7 17  1  0  0  0  0
  7 20  1  0  0  0  0
  7 21  1  0  0  0  0
  8  9  1  0  0  0  0
  9 10  1  0  0  0  0
  9 15  2  0  0  0  0
 10 11  2  0  0  0  0
 10 22  1  0  0  0  0
 11 12  1  0  0  0  0
 11 23  1  0  0  0  0
 12 24  1  0  0  0  0
 13 14  2  0  0  0  0
 13 25  1  0  0  0  0
 14 15  1  0  0  0  0
 14 26  1  0  0  0  0
 15 27  1  0  0  0  0
 17 18  2  0  0  0  0
 17 19  1  0  0  0  0
 19 28  1  0  0  0  0
M  END
>  <DRUGBANK_ID>
DB02020

>  <SECONDARY_ACCESSION_NUMBERS>
EXPT00502

>  <COMMON_NAME>
Alrestatin

>  <CAS_NUMBER>
51411-04-2

>  <UNII>
515DHK15LG

>  <SYNONYMS>
Alrestatin

$$$$
