
 OpenBabel10282417072D

 51 54  0  0  1  0  0  0  0  0999 V2000
    4.2868   -1.6500    0.0000 C   0  0  0  0  0  0  0  0  0  0  0  0
    3.5724   -1.2375    0.0000 O   0  0  0  0  0  0  0  0  0  0  0  0
    2.8579   -1.6500    0.0000 C   0  0  0  0  0  0  0  0  0  0  0  0
    2.8579   -2.4750    0.0000 C   0  0  0  0  0  0  0  0  0  0  0  0
    2.1434   -2.8875    0.0000 C   0  0  0  0  0  0  0  0  0  0  0  0
    1.4289   -2.4750    0.0000 C   0  0  0  0  0  0  0  0  0  0  0  0
    1.4289   -1.6500    0.0000 C   0  0  0  0  0  0  0  0  0  0  0  0
    2.1434   -1.2375    0.0000 C   0  0  0  0  0  0  0  0  0  0  0  0
    0.7145   -1.2375    0.0000 N   0  0  0  0  0  0  0  0  0  0  0  0
    0.7145   -0.4125    0.0000 C   0  0  0  0  0  0  0  0  0  0  0  0
    0.0000    0.0000    0.0000 C   0  0  0  0  0  0  0  0  0  0  0  0
   -0.7846   -0.2549    0.0000 C   0  0  0  0  0  0  0  0  0  0  0  0
   -1.2695    0.4125    0.0000 C   0  0  0  0  0  0  0  0  0  0  0  0
   -0.7846    1.0799    0.0000 C   0  0  0  0  0  0  0  0  0  0  0  0
    0.0000    0.8250    0.0000 N   0  0  0  0  0  0  0  0  0  0  0  0
    0.7145    1.2375    0.0000 N   0  0  0  0  0  0  0  0  0  0  0  0
    1.4289    0.8250    0.0000 C   0  0  0  0  0  0  0  0  0  0  0  0
    1.4289    0.0000    0.0000 N   0  0  0  0  0  0  0  0  0  0  0  0
   -1.0396   -1.0396    0.0000 C   0  0  0  0  0  0  0  0  0  0  0  0
   -1.8465   -1.2111    0.0000 N   0  0  0  0  0  0  0  0  0  0  0  0
   -2.1015   -1.9957    0.0000 C   0  0  0  0  0  0  0  0  0  0  0  0
   -2.9084   -2.1672    0.0000 C   0  0  0  0  0  0  0  0  0  0  0  0
   -3.4605   -1.5541    0.0000 C   0  0  2  0  0  0  0  0  0  0  0  0
   -3.2055   -0.7695    0.0000 C   0  0  1  0  0  0  0  0  0  0  0  0
   -2.3986   -0.5980    0.0000 C   0  0  0  0  0  0  0  0  0  0  0  0
   -3.7576   -0.1564    0.0000 O   0  0  0  0  0  0  0  0  0  0  0  0
   -4.2674   -1.7257    0.0000 N   0  0  0  0  0  0  0  0  0  0  0  0
    4.2868   -2.7200    0.0000 H   0  0  0  0  0  0  0  0  0  0  0  0
    5.2135   -1.1150    0.0000 H   0  0  0  0  0  0  0  0  0  0  0  0
    5.2134   -2.1850    0.0000 H   0  0  0  0  0  0  0  0  0  0  0  0
    3.7516   -2.9910    0.0000 H   0  0  0  0  0  0  0  0  0  0  0  0
    2.1434   -3.9195    0.0000 H   0  0  0  0  0  0  0  0  0  0  0  0
    0.5352   -2.9910    0.0000 H   0  0  0  0  0  0  0  0  0  0  0  0
    2.1434   -0.2055    0.0000 H   0  0  0  0  0  0  0  0  0  0  0  0
   -0.1381   -1.7297    0.0000 H   0  0  0  0  0  0  0  0  0  0  0  0
   -2.3015    0.4125    0.0000 H   0  0  0  0  0  0  0  0  0  0  0  0
   -1.1035    2.0614    0.0000 H   0  0  0  0  0  0  0  0  0  0  0  0
    2.3226    1.3410    0.0000 H   0  0  0  0  0  0  0  0  0  0  0  0
   -0.3237   -1.8348    0.0000 H   0  0  0  0  0  0  0  0  0  0  0  0
   -1.3703   -2.0572    0.0000 H   0  0  0  0  0  0  0  0  0  0  0  0
   -1.3856   -2.7909    0.0000 H   0  0  0  0  0  0  0  0  0  0  0  0
   -2.4322   -3.0133    0.0000 H   0  0  0  0  0  0  0  0  0  0  0  0
   -3.2390   -3.1848    0.0000 H   0  0  0  0  0  0  0  0  0  0  0  0
   -3.9550   -2.3897    0.0000 H   0  0  0  0  0  0  0  0  0  0  0  0
   -3.7911   -2.5718    0.0000 H   0  0  0  0  0  0  0  0  0  0  0  0
   -4.2521   -0.9920    0.0000 H   0  0  0  0  0  0  0  0  0  0  0  0
   -2.0680    0.4196    0.0000 H   0  0  0  0  0  0  0  0  0  0  0  0
   -1.3520   -0.3755    0.0000 H   0  0  0  0  0  0  0  0  0  0  0  0
   -3.4579    0.7661    0.0000 H   0  0  0  0  0  0  0  0  0  0  0  0
   -4.9500   -0.9678    0.0000 H   0  0  0  0  0  0  0  0  0  0  0  0
   -4.5825   -2.6958    0.0000 H   0  0  0  0  0  0  0  0  0  0  0  0
  1  2  1  0  0  0  0
  1 28  1  0  0  0  0
  1 29  1  0  0  0  0
  1 30  1  0  0  0  0
  2  3  1  0  0  0  0
  3  4  2  0  0  0  0
  3  8  1  0  0  0  0
  4  5  1  0  0  0  0
  4 31  1  0  0  0  0
  5  6  2  0  0  0  0
  5 32  1  0  0  0  0
  6  7  1  0  0  0  0
  6 33  1  0  0  0  0
  7  8  2  0  0  0  0
  7  9  1  0  0  0  0
  8 34  1  0  0  0  0
  9 10  1  0  0  0  0
  9 35  1  0  0  0  0
 10 11  1  0  0  0  0
 10 18  2  0  0  0  0
 11 12  2  0  0  0  0
 11 15  1  0  0  0  0
 12 13  1  0  0  0  0
 12 19  1  0  0  0  0
 13 14  2  0  0  0  0
 13 36  1  0  0  0  0
 14 15  1  0  0  0  0
 14 37  1  0  0  0  0
 15 16  1  0  0  0  0
 16 17  2  0  0  0  0
 17 18  1  0  0  0  0
 17 38  1  0  0  0  0
 19 20  1  0  0  0  0
 19 39  1  0  0  0  0
 19 40  1  0  0  0  0
 20 21  1  0  0  0  0
 20 25  1  0  0  0  0
 21 22  1  0  0  0  0
 21 41  1  0  0  0  0
 21 42  1  0  0  0  0
 22 23  1  0  0  0  0
 22 43  1  0  0  0  0
 22 44  1  0  0  0  0
 23 24  1  0  0  0  0
 23 27  1  0  0  0  0
 23 45  1  6  0  0  0
 24 25  1  0  0  0  0
 24 26  1  0  0  0  0
 24 46  1  1  0  0  0
 25 47  1  0  0  0  0
 25 48  1  0  0  0  0
 26 49  1  0  0  0  0
 27 50  1  0  0  0  0
 27 51  1  0  0  0  0
M  END
>  <DRUGBANK_ID>
DB11665

>  <COMMON_NAME>
BMS-690514

>  <CAS_NUMBER>
859853-30-8

>  <UNII>
VKU5X213Q7

$$$$
