
 OpenBabel10282417072D

 52 55  0  0  0  0  0  0  0  0999 V2000
    3.5724    0.1202    0.0000 C   0  0  0  0  0  0  0  0  0  0  0  0
    4.3825   -0.0357    0.0000 N   0  0  0  0  0  0  0  0  0  0  0  0
    4.9226    0.5880    0.0000 C   0  0  0  0  0  0  0  0  0  0  0  0
    5.7327    0.4321    0.0000 C   0  0  0  0  0  0  0  0  0  0  0  0
    6.2728    1.0557    0.0000 C   0  0  0  0  0  0  0  0  0  0  0  0
    7.0829    0.8998    0.0000 C   0  0  0  0  0  0  0  0  0  0  0  0
    7.3530    0.1202    0.0000 C   0  0  0  0  0  0  0  0  0  0  0  0
    6.8129   -0.5034    0.0000 O   0  0  0  0  0  0  0  0  0  0  0  0
    7.0829   -1.2829    0.0000 C   0  0  0  0  0  0  0  0  0  0  0  0
    6.5428   -1.9066    0.0000 C   0  0  0  0  0  0  0  0  0  0  0  0
    6.8129   -2.6861    0.0000 C   0  0  0  0  0  0  0  0  0  0  0  0
    7.6230   -2.8421    0.0000 C   0  0  0  0  0  0  0  0  0  0  0  0
    8.1631   -2.2184    0.0000 C   0  0  0  0  0  0  0  0  0  0  0  0
    7.8931   -1.4389    0.0000 C   0  0  0  0  0  0  0  0  0  0  0  0
    6.2728   -3.3098    0.0000 C   0  0  0  0  0  0  0  0  0  0  0  0
    6.5428   -4.0893    0.0000 C   0  0  0  0  0  0  0  0  0  0  0  0
    6.0028   -4.7130    0.0000 C   0  0  0  0  0  0  0  0  0  0  0  0
    5.1926   -4.5571    0.0000 N   0  0  0  0  0  0  0  0  0  0  0  0
    4.9226   -3.7775    0.0000 C   0  0  0  0  0  0  0  0  0  0  0  0
    4.1124   -3.6216    0.0000 N   0  0  0  0  0  0  0  0  0  0  0  0
    3.8424   -2.8421    0.0000 C   0  0  0  0  0  0  0  0  0  0  0  0
    3.0323   -2.6861    0.0000 C   0  0  0  0  0  0  0  0  0  0  0  0
    2.7622   -1.9066    0.0000 C   0  0  0  0  0  0  0  0  0  0  0  0
    3.3023   -1.2829    0.0000 C   0  0  0  0  0  0  0  0  0  0  0  0
    4.1124   -1.4389    0.0000 C   0  0  0  0  0  0  0  0  0  0  0  0
    4.6525   -0.8152    0.0000 C   0  0  0  0  0  0  0  0  0  0  0  0
    4.3825   -2.2184    0.0000 C   0  0  0  0  0  0  0  0  0  0  0  0
    5.4627   -3.1539    0.0000 N   0  0  0  0  0  0  0  0  0  0  0  0
    3.2222    1.1313    0.0000 H   0  0  0  0  0  0  0  0  0  0  0  0
    2.8719   -0.6886    0.0000 H   0  0  0  0  0  0  0  0  0  0  0  0
    2.5217    0.3224    0.0000 H   0  0  0  0  0  0  0  0  0  0  0  0
    4.5723    1.5990    0.0000 H   0  0  0  0  0  0  0  0  0  0  0  0
    5.6231    1.3969    0.0000 H   0  0  0  0  0  0  0  0  0  0  0  0
    6.0705   -0.5431    0.0000 H   0  0  0  0  0  0  0  0  0  0  0  0
    5.9350    2.0309    0.0000 H   0  0  0  0  0  0  0  0  0  0  0  0
    7.7834    1.7087    0.0000 H   0  0  0  0  0  0  0  0  0  0  0  0
    8.1336    0.6976    0.0000 H   0  0  0  0  0  0  0  0  0  0  0  0
    8.4037   -0.0820    0.0000 H   0  0  0  0  0  0  0  0  0  0  0  0
    7.7032   -0.8909    0.0000 H   0  0  0  0  0  0  0  0  0  0  0  0
    5.5294   -1.7116    0.0000 H   0  0  0  0  0  0  0  0  0  0  0  0
    7.9608   -3.8173    0.0000 H   0  0  0  0  0  0  0  0  0  0  0  0
    9.1765   -2.4134    0.0000 H   0  0  0  0  0  0  0  0  0  0  0  0
    8.5688   -0.6588    0.0000 H   0  0  0  0  0  0  0  0  0  0  0  0
    7.5562   -4.2843    0.0000 H   0  0  0  0  0  0  0  0  0  0  0  0
    6.3407   -5.6881    0.0000 H   0  0  0  0  0  0  0  0  0  0  0  0
    3.4679   -4.3658    0.0000 H   0  0  0  0  0  0  0  0  0  0  0  0
    2.3567   -3.4662    0.0000 H   0  0  0  0  0  0  0  0  0  0  0  0
    1.7488   -1.7116    0.0000 H   0  0  0  0  0  0  0  0  0  0  0  0
    2.9645   -0.3077    0.0000 H   0  0  0  0  0  0  0  0  0  0  0  0
    5.7032   -1.0174    0.0000 H   0  0  0  0  0  0  0  0  0  0  0  0
    5.3530   -0.0064    0.0000 H   0  0  0  0  0  0  0  0  0  0  0  0
    5.3959   -2.4134    0.0000 H   0  0  0  0  0  0  0  0  0  0  0  0
  1  2  1  0  0  0  0
  1 29  1  0  0  0  0
  1 30  1  0  0  0  0
  1 31  1  0  0  0  0
  2  3  1  0  0  0  0
  2 26  1  0  0  0  0
  3  4  1  0  0  0  0
  3 32  1  0  0  0  0
  3 33  1  0  0  0  0
  4  5  2  0  0  0  0
  4 34  1  0  0  0  0
  5  6  1  0  0  0  0
  5 35  1  0  0  0  0
  6  7  1  0  0  0  0
  6 36  1  0  0  0  0
  6 37  1  0  0  0  0
  7  8  1  0  0  0  0
  7 38  1  0  0  0  0
  7 39  1  0  0  0  0
  8  9  1  0  0  0  0
  9 10  2  0  0  0  0
  9 14  1  0  0  0  0
 10 11  1  0  0  0  0
 10 40  1  0  0  0  0
 11 12  2  0  0  0  0
 11 15  1  0  0  0  0
 12 13  1  0  0  0  0
 12 41  1  0  0  0  0
 13 14  2  0  0  0  0
 13 42  1  0  0  0  0
 14 43  1  0  0  0  0
 15 16  2  0  0  0  0
 15 28  1  0  0  0  0
 16 17  1  0  0  0  0
 16 44  1  0  0  0  0
 17 18  2  0  0  0  0
 17 45  1  0  0  0  0
 18 19  1  0  0  0  0
 19 20  1  0  0  0  0
 19 28  2  0  0  0  0
 20 21  1  0  0  0  0
 20 46  1  0  0  0  0
 21 22  2  0  0  0  0
 21 27  1  0  0  0  0
 22 23  1  0  0  0  0
 22 47  1  0  0  0  0
 23 24  2  0  0  0  0
 23 48  1  0  0  0  0
 24 25  1  0  0  0  0
 24 49  1  0  0  0  0
 25 26  1  0  0  0  0
 25 27  2  0  0  0  0
 26 50  1  0  0  0  0
 26 51  1  0  0  0  0
 27 52  1  0  0  0  0
M  END
>  <DRUGBANK_ID>
DB16656

>  <COMMON_NAME>
Zotiraciclib

>  <CAS_NUMBER>
1204918-72-8

>  <UNII>
40D08182TT

$$$$
