
 OpenBabel10282417072D

 54 56  0  0  1  0  0  0  0  0999 V2000
   -0.5683   -1.4940    0.0000 C   0  0  0  0  0  0  0  0  0  0  0  0
    3.3523    1.1104    0.0000 C   0  0  0  0  0  0  0  0  0  0  0  0
    0.6538    1.5229    0.0000 C   0  0  0  0  0  0  0  0  0  0  0  0
   -1.6444   -4.9253    0.0000 C   0  0  0  0  0  0  0  0  0  0  0  0
    0.0992   -1.0091    0.0000 C   0  0  2  0  0  0  0  0  0  0  0  0
    1.9233    1.9354    0.0000 C   0  0  0  0  0  0  0  0  0  0  0  0
    0.8838   -1.2640    0.0000 C   0  0  2  0  0  0  0  0  0  0  0  0
    1.3687   -0.5966    0.0000 C   0  0  2  0  0  0  0  0  0  0  0  0
    2.6378    2.3479    0.0000 C   0  0  0  0  0  0  0  0  0  0  0  0
    1.9233    1.1104    0.0000 C   0  0  0  0  0  0  0  0  0  0  0  0
    0.8838    0.0709    0.0000 C   0  0  2  0  0  0  0  0  0  0  0  0
    2.6378    3.1729    0.0000 N   0  0  0  0  0  0  0  0  0  0  0  0
    3.3523    1.9354    0.0000 N   0  0  0  0  0  0  0  0  0  0  0  0
    2.6378    0.6979    0.0000 N   0  0  0  0  0  0  0  0  0  0  0  0
    1.1387    2.1904    0.0000 N   0  0  0  0  0  0  0  0  0  0  0  0
    1.1387    0.8555    0.0000 N   0  0  0  0  0  0  0  0  0  0  0  0
    1.1387   -2.0486    0.0000 O   0  0  0  0  0  0  0  0  0  0  0  0
    2.1937   -0.5966    0.0000 O   0  0  0  0  0  0  0  0  0  0  0  0
   -2.7968   -4.7428    0.0000 O   0  0  0  0  0  0  0  0  0  0  0  0
   -1.8270   -6.0776    0.0000 O   0  0  0  0  0  0  0  0  0  0  0  0
   -2.5512   -4.1910    0.0000 O   0  0  0  0  0  0  0  0  0  0  0  0
   -0.9102   -4.0186    0.0000 O   0  0  0  0  0  0  0  0  0  0  0  0
   -2.8069   -7.5361    0.0000 O   0  0  0  0  0  0  0  0  0  0  0  0
   -3.7136   -6.8018    0.0000 O   0  0  0  0  0  0  0  0  0  0  0  0
   -2.0726   -6.6294    0.0000 O   0  0  0  0  0  0  0  0  0  0  0  0
   -1.6344   -2.1319    0.0000 O   0  0  0  0  0  0  0  0  0  0  0  0
   -0.6646   -3.4668    0.0000 O   0  0  0  0  0  0  0  0  0  0  0  0
   -0.4820   -2.3145    0.0000 O   0  0  0  0  0  0  0  0  0  0  0  0
    0.0992   -0.1841    0.0000 O   0  0  0  0  0  0  0  0  0  0  0  0
   -2.9793   -5.8951    0.0000 O   0  0  0  0  0  0  0  0  0  0  0  0
   -1.8169   -3.2843    0.0000 O   0  0  0  0  0  0  0  0  0  0  0  0
   -2.3119   -5.4102    0.0000 P   0  0  3  0  0  0  0  0  0  0  0  0
   -1.7307   -4.1048    0.0000 P   0  0  3  0  0  0  0  0  0  0  0  0
   -2.8931   -6.7156    0.0000 P   0  0  0  0  0  0  0  0  0  0  0  0
   -1.1495   -2.7994    0.0000 P   0  0  3  0  0  0  0  0  0  0  0  0
    0.4991   -1.7306    0.0000 H   0  0  0  0  0  0  0  0  0  0  0  0
    0.5351   -2.0117    0.0000 H   0  0  0  0  0  0  0  0  0  0  0  0
    1.7432   -1.3316    0.0000 H   0  0  0  0  0  0  0  0  0  0  0  0
    1.6986    0.1999    0.0000 H   0  0  0  0  0  0  0  0  0  0  0  0
   -1.5458   -1.0588    0.0000 H   0  0  0  0  0  0  0  0  0  0  0  0
   -1.4339   -2.1230    0.0000 H   0  0  0  0  0  0  0  0  0  0  0  0
    4.2460    0.5944    0.0000 H   0  0  0  0  0  0  0  0  0  0  0  0
   -0.3782    1.5229    0.0000 H   0  0  0  0  0  0  0  0  0  0  0  0
   -0.6669   -5.3605    0.0000 H   0  0  0  0  0  0  0  0  0  0  0  0
   -0.7788   -4.2963    0.0000 H   0  0  0  0  0  0  0  0  0  0  0  0
    3.4904    3.6651    0.0000 H   0  0  0  0  0  0  0  0  0  0  0  0
    1.7852    3.6651    0.0000 H   0  0  0  0  0  0  0  0  0  0  0  0
    0.4896   -2.7694    0.0000 H   0  0  0  0  0  0  0  0  0  0  0  0
    2.6787   -1.4366    0.0000 H   0  0  0  0  0  0  0  0  0  0  0  0
   -2.4023   -3.8567    0.0000 H   0  0  0  0  0  0  0  0  0  0  0  0
   -3.1213   -3.4062    0.0000 H   0  0  0  0  0  0  0  0  0  0  0  0
   -3.5917   -8.1062    0.0000 H   0  0  0  0  0  0  0  0  0  0  0  0
   -4.2837   -6.0170    0.0000 H   0  0  0  0  0  0  0  0  0  0  0  0
   -1.2398   -1.2458    0.0000 H   0  0  0  0  0  0  0  0  0  0  0  0
  1 40  1  0  0  0  0
  1 41  1  0  0  0  0
  2 42  1  0  0  0  0
  3 43  1  0  0  0  0
  4 44  1  0  0  0  0
  4 45  1  0  0  0  0
  5  1  1  0  0  0  0
  5 36  1  6  0  0  0
  7  5  1  0  0  0  0
  7 17  1  0  0  0  0
  7 37  1  1  0  0  0
  8  7  1  0  0  0  0
  8 18  1  0  0  0  0
  8 38  1  1  0  0  0
  9  6  2  0  0  0  0
 10  6  1  0  0  0  0
 11  8  1  0  0  0  0
 11 16  1  0  0  0  0
 11 39  1  6  0  0  0
 12  9  1  0  0  0  0
 12 46  1  0  0  0  0
 12 47  1  0  0  0  0
 13  2  2  0  0  0  0
 13  9  1  0  0  0  0
 14  2  1  0  0  0  0
 14 10  2  0  0  0  0
 15  3  2  0  0  0  0
 15  6  1  0  0  0  0
 16  3  1  0  0  0  0
 16 10  1  0  0  0  0
 17 48  1  0  0  0  0
 18 49  1  0  0  0  0
 19 50  1  0  0  0  0
 21 51  1  0  0  0  0
 23 52  1  0  0  0  0
 24 53  1  0  0  0  0
 26 54  1  0  0  0  0
 28  1  1  0  0  0  0
 29  5  1  0  0  0  0
 29 11  1  0  0  0  0
 32  4  1  0  0  0  0
 32 19  1  0  0  0  0
 32 20  2  0  0  0  0
 32 30  1  0  0  0  0
 33  4  1  0  0  0  0
 33 21  1  0  0  0  0
 33 22  2  0  0  0  0
 33 31  1  0  0  0  0
 34 23  1  0  0  0  0
 34 24  1  0  0  0  0
 34 25  2  0  0  0  0
 34 30  1  0  0  0  0
 35 26  1  0  0  0  0
 35 27  2  0  0  0  0
 35 28  1  0  0  0  0
 35 31  1  0  0  0  0
M  END
>  <DRUGBANK_ID>
DB03755

>  <SECONDARY_ACCESSION_NUMBERS>
EXPT00417

>  <COMMON_NAME>
Adenosine-5'-[Beta, Gamma-Methylene]Tetraphosphate

$$$$
