
 OpenBabel10282417072D

125129  0  0  1  0  0  0  0  0999 V2000
    4.9058   -4.4378    0.0000 C   0  0  0  0  0  0  0  0  0  0  0  0
    6.1642    0.3496    0.0000 C   0  0  0  0  0  0  0  0  0  0  0  0
    7.9656    1.5821    0.0000 C   0  0  0  0  0  0  0  0  0  0  0  0
    5.5350   -2.0441    0.0000 C   0  0  0  0  0  0  0  0  0  0  0  0
    8.2990   -2.7706    0.0000 C   0  0  0  0  0  0  0  0  0  0  0  0
    8.0100   -0.3352    0.0000 C   0  0  0  0  0  0  0  0  0  0  0  0
    6.7830   -4.0268    0.0000 C   0  0  0  0  0  0  0  0  0  0  0  0
    3.6512   -3.2503    0.0000 C   0  0  0  0  0  0  0  0  0  0  0  0
   10.9393    1.6535    0.0000 C   0  0  0  0  0  0  0  0  0  0  0  0
   11.3157    0.2750    0.0000 C   0  0  0  0  0  0  0  0  0  0  0  0
    7.4542    0.6125    0.0000 C   0  0  0  0  0  0  0  0  0  0  0  0
    4.3196   -3.8572    0.0000 C   0  0  0  0  0  0  0  0  0  0  0  0
    4.0545    0.8651    0.0000 C   0  0  0  0  0  0  0  0  0  0  0  0
    4.1016    0.0415    0.0000 C   0  0  0  0  0  0  0  0  0  0  0  0
   -0.7540   -0.1836    0.0000 C   0  0  0  0  0  0  0  0  0  0  0  0
    0.0701   -0.2228    0.0000 C   0  0  0  0  0  0  0  0  0  0  0  0
   -1.1320    0.5497    0.0000 C   0  0  0  0  0  0  0  0  0  0  0  0
    3.3177    1.2362    0.0000 C   0  0  0  0  0  0  0  0  0  0  0  0
    3.4118   -0.4111    0.0000 C   0  0  0  0  0  0  0  0  0  0  0  0
    9.3476    1.2188    0.0000 C   0  0  0  0  0  0  0  0  0  0  0  0
    0.1381    1.2045    0.0000 C   0  0  0  0  0  0  0  0  0  0  0  0
    6.5406   -1.0289    0.0000 C   0  0  0  0  0  0  0  0  0  0  0  0
    1.8563    1.0755    0.0000 C   0  0  0  0  0  0  0  0  0  0  0  0
    5.9544   -0.4483    0.0000 C   0  0  2  0  0  0  0  0  0  0  0  0
    8.5518    1.0015    0.0000 C   0  0  2  0  0  0  0  0  0  0  0  0
    4.9488   -1.4635    0.0000 C   0  0  1  0  0  0  0  0  0  0  0  0
    7.7128   -2.1901    0.0000 C   0  0  1  0  0  0  0  0  0  0  0  0
    0.5161    0.4712    0.0000 C   0  0  0  0  0  0  0  0  0  0  0  0
   -0.6860    1.2437    0.0000 C   0  0  0  0  0  0  0  0  0  0  0  0
    1.3402    0.4319    0.0000 C   0  0  0  0  0  0  0  0  0  0  0  0
    9.9338    0.6383    0.0000 C   0  0  1  0  0  0  0  0  0  0  0  0
    4.5294   -3.0593    0.0000 C   0  0  2  0  0  0  0  0  0  0  0  0
    5.1586   -0.6656    0.0000 C   0  0  0  0  0  0  0  0  0  0  0  0
    9.7240   -0.1596    0.0000 C   0  0  2  0  0  0  0  0  0  0  0  0
    4.1530   -1.6808    0.0000 C   0  0  2  0  0  0  0  0  0  0  0  0
    6.9170   -2.4074    0.0000 C   0  0  0  0  0  0  0  0  0  0  0  0
    7.9226   -1.3922    0.0000 C   0  0  2  0  0  0  0  0  0  0  0  0
    8.9282   -0.3769    0.0000 C   0  0  1  0  0  0  0  0  0  0  0  0
    5.9114   -3.4226    0.0000 C   0  0  0  0  0  0  0  0  0  0  0  0
    2.8203   -1.7570    0.0000 C   0  0  0  0  0  0  0  0  0  0  0  0
    7.3364   -0.8116    0.0000 C   0  0  1  0  0  0  0  0  0  0  0  0
    6.7072   -3.2053    0.0000 C   0  0  2  0  0  0  0  0  0  0  0  0
    3.9432   -2.4787    0.0000 C   0  0  1  0  0  0  0  0  0  0  0  0
    7.5294   -3.2733    0.0000 F   0  0  0  0  0  0  0  0  0  0  0  0
   -1.0640    1.9770    0.0000 N   0  0  0  0  0  0  0  0  0  0  0  0
    1.7928   -0.2578    0.0000 N   0  0  0  0  0  0  0  0  0  0  0  0
    2.5886   -0.0405    0.0000 N   0  0  0  0  0  0  0  0  0  0  0  0
   10.7296    0.8556    0.0000 N   0  0  0  0  0  0  0  0  0  0  0  0
    2.6279    0.7836    0.0000 N   0  0  0  0  0  0  0  0  0  0  0  0
    3.4589   -1.2348    0.0000 N   0  0  0  0  0  0  0  0  0  0  0  0
    4.5724   -0.0850    0.0000 O   0  0  0  0  0  0  0  0  0  0  0  0
   10.3101   -0.7402    0.0000 O   0  0  0  0  0  0  0  0  0  0  0  0
    6.3308   -1.8268    0.0000 O   0  0  0  0  0  0  0  0  0  0  0  0
    5.7016   -4.2205    0.0000 O   0  0  0  0  0  0  0  0  0  0  0  0
    2.0224   -1.5473    0.0000 O   0  0  0  0  0  0  0  0  0  0  0  0
    6.9842   -0.0655    0.0000 O   0  0  0  0  0  0  0  0  0  0  0  0
    8.3420    0.2036    0.0000 O   0  0  0  0  0  0  0  0  0  0  0  0
    5.3252   -2.8420    0.0000 O   0  0  0  0  0  0  0  0  0  0  0  0
    8.7184   -1.1748    0.0000 O   0  0  0  0  0  0  0  0  0  0  0  0
    3.1196   -2.5258    0.0000 O   0  0  0  0  0  0  0  0  0  0  0  0
    6.7503   -0.2310    0.0000 H   0  0  0  0  0  0  0  0  0  0  0  0
    8.7615    1.7994    0.0000 H   0  0  0  0  0  0  0  0  0  0  0  0
    5.7447   -1.2462    0.0000 H   0  0  0  0  0  0  0  0  0  0  0  0
    7.5031   -2.9879    0.0000 H   0  0  0  0  0  0  0  0  0  0  0  0
   10.1435    1.4362    0.0000 H   0  0  0  0  0  0  0  0  0  0  0  0
    3.8558   -3.5357    0.0000 H   0  0  0  0  0  0  0  0  0  0  0  0
   10.5199    0.0577    0.0000 H   0  0  0  0  0  0  0  0  0  0  0  0
    4.2782   -0.8654    0.0000 H   0  0  0  0  0  0  0  0  0  0  0  0
    8.5087   -1.9727    0.0000 H   0  0  0  0  0  0  0  0  0  0  0  0
    9.5143   -0.9575    0.0000 H   0  0  0  0  0  0  0  0  0  0  0  0
    4.6338   -5.4727    0.0000 H   0  0  0  0  0  0  0  0  0  0  0  0
    5.9380   -4.1559    0.0000 H   0  0  0  0  0  0  0  0  0  0  0  0
    5.6660   -5.1908    0.0000 H   0  0  0  0  0  0  0  0  0  0  0  0
    7.1964    0.6314    0.0000 H   0  0  0  0  0  0  0  0  0  0  0  0
    5.4041    1.1027    0.0000 H   0  0  0  0  0  0  0  0  0  0  0  0
    6.4363    1.3844    0.0000 H   0  0  0  0  0  0  0  0  0  0  0  0
    8.2376    2.6170    0.0000 H   0  0  0  0  0  0  0  0  0  0  0  0
    6.9334    1.3002    0.0000 H   0  0  0  0  0  0  0  0  0  0  0  0
    7.2054    2.3351    0.0000 H   0  0  0  0  0  0  0  0  0  0  0  0
    5.2630   -3.0790    0.0000 H   0  0  0  0  0  0  0  0  0  0  0  0
    6.5672   -1.7622    0.0000 H   0  0  0  0  0  0  0  0  0  0  0  0
    6.2952   -2.7971    0.0000 H   0  0  0  0  0  0  0  0  0  0  0  0
    8.0271   -3.8055    0.0000 H   0  0  0  0  0  0  0  0  0  0  0  0
    9.3312   -2.4886    0.0000 H   0  0  0  0  0  0  0  0  0  0  0  0
    9.0593   -3.5235    0.0000 H   0  0  0  0  0  0  0  0  0  0  0  0
    8.9819   -0.7828    0.0000 H   0  0  0  0  0  0  0  0  0  0  0  0
    7.9117    0.7303    0.0000 H   0  0  0  0  0  0  0  0  0  0  0  0
    8.8836    0.2826    0.0000 H   0  0  0  0  0  0  0  0  0  0  0  0
    5.9094   -4.6447    0.0000 H   0  0  0  0  0  0  0  0  0  0  0  0
    7.7549   -4.4744    0.0000 H   0  0  0  0  0  0  0  0  0  0  0  0
    6.8813   -5.0923    0.0000 H   0  0  0  0  0  0  0  0  0  0  0  0
    2.5952   -3.4227    0.0000 H   0  0  0  0  0  0  0  0  0  0  0  0
    4.3285   -4.0786    0.0000 H   0  0  0  0  0  0  0  0  0  0  0  0
    3.2725   -4.2510    0.0000 H   0  0  0  0  0  0  0  0  0  0  0  0
   11.9715    1.9354    0.0000 H   0  0  0  0  0  0  0  0  0  0  0  0
   10.1791    2.4065    0.0000 H   0  0  0  0  0  0  0  0  0  0  0  0
   11.2113    2.6884    0.0000 H   0  0  0  0  0  0  0  0  0  0  0  0
   11.0436   -0.7598    0.0000 H   0  0  0  0  0  0  0  0  0  0  0  0
   12.3479    0.5568    0.0000 H   0  0  0  0  0  0  0  0  0  0  0  0
   12.0759   -0.4780    0.0000 H   0  0  0  0  0  0  0  0  0  0  0  0
    8.5206    0.5243    0.0000 H   0  0  0  0  0  0  0  0  0  0  0  0
    6.9974    1.5801    0.0000 H   0  0  0  0  0  0  0  0  0  0  0  0
    8.0638    1.4919    0.0000 H   0  0  0  0  0  0  0  0  0  0  0  0
    3.2874   -4.1390    0.0000 H   0  0  0  0  0  0  0  0  0  0  0  0
    3.5594   -3.1042    0.0000 H   0  0  0  0  0  0  0  0  0  0  0  0
    4.9491    1.4521    0.0000 H   0  0  0  0  0  0  0  0  0  0  0  0
    3.9935    1.9334    0.0000 H   0  0  0  0  0  0  0  0  0  0  0  0
    5.0573   -0.4397    0.0000 H   0  0  0  0  0  0  0  0  0  0  0  0
    4.1627   -1.0268    0.0000 H   0  0  0  0  0  0  0  0  0  0  0  0
   -1.3119   -1.0518    0.0000 H   0  0  0  0  0  0  0  0  0  0  0  0
    0.5430   -1.1401    0.0000 H   0  0  0  0  0  0  0  0  0  0  0  0
   -2.1628    0.5988    0.0000 H   0  0  0  0  0  0  0  0  0  0  0  0
    3.2567    2.3045    0.0000 H   0  0  0  0  0  0  0  0  0  0  0  0
    2.3620    1.7175    0.0000 H   0  0  0  0  0  0  0  0  0  0  0  0
    2.4561    0.0701    0.0000 H   0  0  0  0  0  0  0  0  0  0  0  0
    2.5172   -0.9981    0.0000 H   0  0  0  0  0  0  0  0  0  0  0  0
    9.6195    2.2537    0.0000 H   0  0  0  0  0  0  0  0  0  0  0  0
   10.3798    1.5008    0.0000 H   0  0  0  0  0  0  0  0  0  0  0  0
    0.6960    2.0727    0.0000 H   0  0  0  0  0  0  0  0  0  0  0  0
    6.2686   -2.0638    0.0000 H   0  0  0  0  0  0  0  0  0  0  0  0
    7.3008   -1.7819    0.0000 H   0  0  0  0  0  0  0  0  0  0  0  0
    1.5844    2.0710    0.0000 H   0  0  0  0  0  0  0  0  0  0  0  0
   -0.5317    2.8052    0.0000 H   0  0  0  0  0  0  0  0  0  0  0  0
   -2.0474    2.0239    0.0000 H   0  0  0  0  0  0  0  0  0  0  0  0
   10.0635   -1.6783    0.0000 H   0  0  0  0  0  0  0  0  0  0  0  0
  1 71  1  0  0  0  0
  1 72  1  0  0  0  0
  1 73  1  0  0  0  0
  2 74  1  0  0  0  0
  2 75  1  0  0  0  0
  2 76  1  0  0  0  0
  3 77  1  0  0  0  0
  3 78  1  0  0  0  0
  3 79  1  0  0  0  0
  4 80  1  0  0  0  0
  4 81  1  0  0  0  0
  4 82  1  0  0  0  0
  5 83  1  0  0  0  0
  5 84  1  0  0  0  0
  5 85  1  0  0  0  0
  6 86  1  0  0  0  0
  6 87  1  0  0  0  0
  6 88  1  0  0  0  0
  7 89  1  0  0  0  0
  7 90  1  0  0  0  0
  7 91  1  0  0  0  0
  8 92  1  0  0  0  0
  8 93  1  0  0  0  0
  8 94  1  0  0  0  0
  9 95  1  0  0  0  0
  9 96  1  0  0  0  0
  9 97  1  0  0  0  0
 10 98  1  0  0  0  0
 10 99  1  0  0  0  0
 10100  1  0  0  0  0
 11101  1  0  0  0  0
 11102  1  0  0  0  0
 11103  1  0  0  0  0
 12  1  1  0  0  0  0
 12104  1  0  0  0  0
 12105  1  0  0  0  0
 13106  1  0  0  0  0
 13107  1  0  0  0  0
 14 13  1  0  0  0  0
 14108  1  0  0  0  0
 14109  1  0  0  0  0
 15110  1  0  0  0  0
 16 15  2  0  0  0  0
 16111  1  0  0  0  0
 17 15  1  0  0  0  0
 17112  1  0  0  0  0
 18 13  1  0  0  0  0
 18113  1  0  0  0  0
 18114  1  0  0  0  0
 19 14  1  0  0  0  0
 19115  1  0  0  0  0
 19116  1  0  0  0  0
 20117  1  0  0  0  0
 20118  1  0  0  0  0
 21119  1  0  0  0  0
 22120  1  0  0  0  0
 22121  1  0  0  0  0
 23122  1  0  0  0  0
 24  2  1  0  0  0  0
 24 22  1  0  0  0  0
 24 61  1  1  0  0  0
 25  3  1  0  0  0  0
 25 20  1  0  0  0  0
 25 62  1  1  0  0  0
 26  4  1  0  0  0  0
 26 63  1  1  0  0  0
 27  5  1  0  0  0  0
 27 64  1  6  0  0  0
 28 16  1  0  0  0  0
 28 21  2  0  0  0  0
 29 17  2  0  0  0  0
 29 21  1  0  0  0  0
 30 23  2  0  0  0  0
 30 28  1  0  0  0  0
 31 20  1  0  0  0  0
 31 48  1  0  0  0  0
 31 65  1  1  0  0  0
 32 12  1  0  0  0  0
 32 66  1  1  0  0  0
 33 24  1  0  0  0  0
 33 26  1  0  0  0  0
 34 31  1  0  0  0  0
 34 52  1  0  0  0  0
 34 67  1  6  0  0  0
 35 26  1  0  0  0  0
 35 68  1  1  0  0  0
 36 27  1  0  0  0  0
 37 27  1  0  0  0  0
 37 59  1  0  0  0  0
 37 69  1  1  0  0  0
 38 34  1  0  0  0  0
 38 59  1  0  0  0  0
 38 70  1  1  0  0  0
 41  6  1  0  0  0  0
 41 22  1  0  0  0  0
 41 37  1  0  0  0  0
 41 56  1  1  0  0  0
 42  7  1  0  0  0  0
 42 36  1  0  0  0  0
 42 39  1  0  0  0  0
 42 44  1  6  0  0  0
 43  8  1  6  0  0  0
 43 32  1  0  0  0  0
 43 35  1  0  0  0  0
 45 29  1  0  0  0  0
 45123  1  0  0  0  0
 45124  1  0  0  0  0
 46 30  1  0  0  0  0
 47 46  2  0  0  0  0
 48  9  1  0  0  0  0
 48 10  1  0  0  0  0
 49 18  1  0  0  0  0
 49 23  1  0  0  0  0
 49 47  1  0  0  0  0
 50 19  1  0  0  0  0
 50 35  1  0  0  0  0
 50 40  1  0  0  0  0
 51 33  2  0  0  0  0
 52125  1  0  0  0  0
 53 36  2  0  0  0  0
 54 39  2  0  0  0  0
 55 40  2  0  0  0  0
 56 11  1  0  0  0  0
 57 25  1  0  0  0  0
 57 38  1  0  0  0  0
 58 32  1  0  0  0  0
 58 39  1  0  0  0  0
 60 40  1  0  0  0  0
 60 43  1  0  0  0  0
M  END
>  <DRUGBANK_ID>
DB09308

>  <COMMON_NAME>
Solithromycin

>  <CAS_NUMBER>
760981-83-7

>  <UNII>
9U1ETH79CK

>  <SYNONYMS>
Solithromycin

$$$$
