FIP
 OpenBabel10282417072D

 31 32  0  0  0  0  0  0  0  0999 V2000
   -0.7824   -0.2583    0.0000 C   0  0  0  0  0  0  0  0  0  0  0  0
   -1.5361    0.0772    0.0000 C   0  0  0  0  0  0  0  0  0  0  0  0
   -2.0881   -0.5359    0.0000 C   0  0  0  0  0  0  0  0  0  0  0  0
   -1.7910    0.8619    0.0000 C   0  0  0  0  0  0  0  0  0  0  0  0
   -0.8687   -1.0788    0.0000 C   0  0  0  0  0  0  0  0  0  0  0  0
   -1.6756   -1.2503    0.0000 N   0  0  0  0  0  0  0  0  0  0  0  0
   -2.8951   -0.3643    0.0000 C   0  0  0  0  0  0  0  0  0  0  0  0
   -2.5980    1.0334    0.0000 C   0  0  0  0  0  0  0  0  0  0  0  0
   -3.1500    0.4203    0.0000 C   0  0  0  0  0  0  0  0  0  0  0  0
   -2.8529    1.8180    0.0000 F   0  0  0  0  0  0  0  0  0  0  0  0
   -0.0680    0.1542    0.0000 C   0  0  0  0  0  0  0  0  0  0  0  0
    0.6465   -0.2583    0.0000 C   0  0  0  0  0  0  0  0  0  0  0  0
    1.3610    0.1542    0.0000 C   0  0  0  0  0  0  0  0  0  0  0  0
    2.7899    0.1542    0.0000 P   0  0  0  0  0  0  0  0  0  0  0  0
    3.5044    0.5667    0.0000 O   0  0  0  0  0  0  0  0  0  0  0  0
    3.2024   -0.5603    0.0000 O   0  0  0  0  0  0  0  0  0  0  0  0
    2.3774    0.8687    0.0000 O   0  0  0  0  0  0  0  0  0  0  0  0
    2.0755   -0.2583    0.0000 O   0  0  0  0  0  0  0  0  0  0  0  0
   -1.1004    1.6288    0.0000 H   0  0  0  0  0  0  0  0  0  0  0  0
   -0.1018   -1.7694    0.0000 H   0  0  0  0  0  0  0  0  0  0  0  0
   -2.0760   -2.1497    0.0000 H   0  0  0  0  0  0  0  0  0  0  0  0
   -3.5857   -1.1312    0.0000 H   0  0  0  0  0  0  0  0  0  0  0  0
   -4.1594    0.6349    0.0000 H   0  0  0  0  0  0  0  0  0  0  0  0
   -0.0680    1.2242    0.0000 H   0  0  0  0  0  0  0  0  0  0  0  0
    0.8586    0.6892    0.0000 H   0  0  0  0  0  0  0  0  0  0  0  0
    0.6465   -1.3283    0.0000 H   0  0  0  0  0  0  0  0  0  0  0  0
    1.5731   -0.7933    0.0000 H   0  0  0  0  0  0  0  0  0  0  0  0
    1.3610    1.2242    0.0000 H   0  0  0  0  0  0  0  0  0  0  0  0
    2.2876    0.6892    0.0000 H   0  0  0  0  0  0  0  0  0  0  0  0
    2.7174   -1.4003    0.0000 H   0  0  0  0  0  0  0  0  0  0  0  0
    2.8624    1.7087    0.0000 H   0  0  0  0  0  0  0  0  0  0  0  0
  1  2  1  0  0  0  0
  1  5  2  0  0  0  0
  1 11  1  0  0  0  0
  2  3  2  0  0  0  0
  2  4  1  0  0  0  0
  3  6  1  0  0  0  0
  3  7  1  0  0  0  0
  4  8  2  0  0  0  0
  4 19  1  0  0  0  0
  5  6  1  0  0  0  0
  5 20  1  0  0  0  0
  6 21  1  0  0  0  0
  7  9  2  0  0  0  0
  7 22  1  0  0  0  0
  8  9  1  0  0  0  0
  8 10  1  0  0  0  0
  9 23  1  0  0  0  0
 11 12  1  0  0  0  0
 11 24  1  0  0  0  0
 11 25  1  0  0  0  0
 12 13  1  0  0  0  0
 12 26  1  0  0  0  0
 12 27  1  0  0  0  0
 13 18  1  0  0  0  0
 13 28  1  0  0  0  0
 13 29  1  0  0  0  0
 14 15  2  0  0  0  0
 14 16  1  0  0  0  0
 14 17  1  0  0  0  0
 14 18  1  0  0  0  0
 16 30  1  0  0  0  0
 17 31  1  0  0  0  0
M  END
>  <DRUGBANK_ID>
DB07773

>  <COMMON_NAME>
5-FLUOROINDOLE PROPANOL PHOSPHATE

$$$$
