
 OpenBabel10282417072D

 74 78  0  0  0  0  0  0  0  0999 V2000
   -1.9702    3.2795    0.0000 C   0  0  0  0  0  0  0  0  0  0  0  0
   -1.1633    3.1080    0.0000 O   0  0  0  0  0  0  0  0  0  0  0  0
   -0.6112    3.7211    0.0000 C   0  0  0  0  0  0  0  0  0  0  0  0
   -0.8662    4.5057    0.0000 C   0  0  0  0  0  0  0  0  0  0  0  0
   -0.3141    5.1188    0.0000 C   0  0  0  0  0  0  0  0  0  0  0  0
   -0.5691    5.9034    0.0000 N   0  0  0  0  0  0  0  0  0  0  0  0
   -1.3760    6.0749    0.0000 C   0  0  0  0  0  0  0  0  0  0  0  0
   -0.0170    6.5165    0.0000 C   0  0  0  0  0  0  0  0  0  0  0  0
   -0.2720    7.3011    0.0000 C   0  0  0  0  0  0  0  0  0  0  0  0
    0.2801    7.9142    0.0000 N   0  0  0  0  0  0  0  0  0  0  0  0
    0.0251    8.6988    0.0000 C   0  0  0  0  0  0  0  0  0  0  0  0
    1.0870    7.7427    0.0000 C   0  0  0  0  0  0  0  0  0  0  0  0
    0.4928    4.9473    0.0000 C   0  0  0  0  0  0  0  0  0  0  0  0
    1.0449    5.5604    0.0000 N   0  0  0  0  0  0  0  0  0  0  0  0
    1.8518    5.3888    0.0000 C   0  0  0  0  0  0  0  0  0  0  0  0
    2.1068    4.6042    0.0000 O   0  0  0  0  0  0  0  0  0  0  0  0
    2.4039    6.0019    0.0000 C   0  0  0  0  0  0  0  0  0  0  0  0
    3.2108    5.8304    0.0000 C   0  0  0  0  0  0  0  0  0  0  0  0
    0.7478    4.1626    0.0000 C   0  0  0  0  0  0  0  0  0  0  0  0
    0.1957    3.5496    0.0000 C   0  0  0  0  0  0  0  0  0  0  0  0
    0.4507    2.7649    0.0000 N   0  0  0  0  0  0  0  0  0  0  0  0
   -0.1014    2.1518    0.0000 C   0  0  0  0  0  0  0  0  0  0  0  0
    0.1536    1.3672    0.0000 N   0  0  0  0  0  0  0  0  0  0  0  0
   -0.3984    0.7541    0.0000 C   0  0  0  0  0  0  0  0  0  0  0  0
   -1.2054    0.9256    0.0000 C   0  0  0  0  0  0  0  0  0  0  0  0
   -1.4604    1.7103    0.0000 C   0  0  0  0  0  0  0  0  0  0  0  0
   -0.9083    2.3234    0.0000 N   0  0  0  0  0  0  0  0  0  0  0  0
   -0.1435   -0.0305    0.0000 C   0  0  0  0  0  0  0  0  0  0  0  0
   -0.6284   -0.6979    0.0000 C   0  0  0  0  0  0  0  0  0  0  0  0
   -0.1435   -1.3654    0.0000 N   0  0  0  0  0  0  0  0  0  0  0  0
   -0.3984   -2.1500    0.0000 C   0  0  0  0  0  0  0  0  0  0  0  0
   -0.2269   -2.9570    0.0000 C   0  0  0  0  0  0  0  0  0  0  0  0
   -1.0115   -2.7020    0.0000 C   0  0  0  0  0  0  0  0  0  0  0  0
    0.6411   -1.1104    0.0000 C   0  0  0  0  0  0  0  0  0  0  0  0
    0.6411   -0.2854    0.0000 C   0  0  0  0  0  0  0  0  0  0  0  0
    1.3556    0.1271    0.0000 C   0  0  0  0  0  0  0  0  0  0  0  0
    2.0701   -0.2854    0.0000 C   0  0  0  0  0  0  0  0  0  0  0  0
    2.0701   -1.1104    0.0000 C   0  0  0  0  0  0  0  0  0  0  0  0
    1.3556   -1.5229    0.0000 C   0  0  0  0  0  0  0  0  0  0  0  0
   -2.3009    4.2971    0.0000 H   0  0  0  0  0  0  0  0  0  0  0  0
   -2.6862    2.4843    0.0000 H   0  0  0  0  0  0  0  0  0  0  0  0
   -3.0168    3.5020    0.0000 H   0  0  0  0  0  0  0  0  0  0  0  0
   -1.8757    4.7203    0.0000 H   0  0  0  0  0  0  0  0  0  0  0  0
   -1.7067    7.0925    0.0000 H   0  0  0  0  0  0  0  0  0  0  0  0
   -2.0920    5.2797    0.0000 H   0  0  0  0  0  0  0  0  0  0  0  0
   -2.4226    6.2974    0.0000 H   0  0  0  0  0  0  0  0  0  0  0  0
    1.0296    6.2940    0.0000 H   0  0  0  0  0  0  0  0  0  0  0  0
    0.6989    7.3117    0.0000 H   0  0  0  0  0  0  0  0  0  0  0  0
   -1.3186    7.5236    0.0000 H   0  0  0  0  0  0  0  0  0  0  0  0
   -0.6026    8.3187    0.0000 H   0  0  0  0  0  0  0  0  0  0  0  0
    0.7410    9.4940    0.0000 H   0  0  0  0  0  0  0  0  0  0  0  0
   -1.0215    8.9212    0.0000 H   0  0  0  0  0  0  0  0  0  0  0  0
   -0.3056    9.7164    0.0000 H   0  0  0  0  0  0  0  0  0  0  0  0
    1.4177    6.7251    0.0000 H   0  0  0  0  0  0  0  0  0  0  0  0
    1.8030    8.5379    0.0000 H   0  0  0  0  0  0  0  0  0  0  0  0
    2.1336    7.5202    0.0000 H   0  0  0  0  0  0  0  0  0  0  0  0
    0.7407    6.4967    0.0000 H   0  0  0  0  0  0  0  0  0  0  0  0
    2.0850    6.9834    0.0000 H   0  0  0  0  0  0  0  0  0  0  0  0
    3.5297    4.8489    0.0000 H   0  0  0  0  0  0  0  0  0  0  0  0
    3.9013    6.5973    0.0000 H   0  0  0  0  0  0  0  0  0  0  0  0
    1.7572    3.9480    0.0000 H   0  0  0  0  0  0  0  0  0  0  0  0
    1.4137    2.5602    0.0000 H   0  0  0  0  0  0  0  0  0  0  0  0
   -1.8959    0.1586    0.0000 H   0  0  0  0  0  0  0  0  0  0  0  0
   -2.4698    1.9249    0.0000 H   0  0  0  0  0  0  0  0  0  0  0  0
   -1.6604   -0.6979    0.0000 H   0  0  0  0  0  0  0  0  0  0  0  0
   -0.7291   -3.1676    0.0000 H   0  0  0  0  0  0  0  0  0  0  0  0
    0.4890   -3.7522    0.0000 H   0  0  0  0  0  0  0  0  0  0  0  0
   -0.8097   -3.8543    0.0000 H   0  0  0  0  0  0  0  0  0  0  0  0
   -2.0581   -2.9244    0.0000 H   0  0  0  0  0  0  0  0  0  0  0  0
   -1.4972   -1.7486    0.0000 H   0  0  0  0  0  0  0  0  0  0  0  0
    1.3556    1.1591    0.0000 H   0  0  0  0  0  0  0  0  0  0  0  0
    2.9638    0.2306    0.0000 H   0  0  0  0  0  0  0  0  0  0  0  0
    2.9638   -1.6264    0.0000 H   0  0  0  0  0  0  0  0  0  0  0  0
    1.3556   -2.5549    0.0000 H   0  0  0  0  0  0  0  0  0  0  0  0
  1  2  1  0  0  0  0
  1 40  1  0  0  0  0
  1 41  1  0  0  0  0
  1 42  1  0  0  0  0
  2  3  1  0  0  0  0
  3  4  2  0  0  0  0
  3 20  1  0  0  0  0
  4  5  1  0  0  0  0
  4 43  1  0  0  0  0
  5  6  1  0  0  0  0
  5 13  2  0  0  0  0
  6  7  1  0  0  0  0
  6  8  1  0  0  0  0
  7 44  1  0  0  0  0
  7 45  1  0  0  0  0
  7 46  1  0  0  0  0
  8  9  1  0  0  0  0
  8 47  1  0  0  0  0
  8 48  1  0  0  0  0
  9 10  1  0  0  0  0
  9 49  1  0  0  0  0
  9 50  1  0  0  0  0
 10 11  1  0  0  0  0
 10 12  1  0  0  0  0
 11 51  1  0  0  0  0
 11 52  1  0  0  0  0
 11 53  1  0  0  0  0
 12 54  1  0  0  0  0
 12 55  1  0  0  0  0
 12 56  1  0  0  0  0
 13 14  1  0  0  0  0
 13 19  1  0  0  0  0
 14 15  1  0  0  0  0
 14 57  1  0  0  0  0
 15 16  2  0  0  0  0
 15 17  1  0  0  0  0
 17 18  2  0  0  0  0
 17 58  1  0  0  0  0
 18 59  1  0  0  0  0
 18 60  1  0  0  0  0
 19 20  2  0  0  0  0
 19 61  1  0  0  0  0
 20 21  1  0  0  0  0
 21 22  1  0  0  0  0
 21 62  1  0  0  0  0
 22 23  2  0  0  0  0
 22 27  1  0  0  0  0
 23 24  1  0  0  0  0
 24 25  2  0  0  0  0
 24 28  1  0  0  0  0
 25 26  1  0  0  0  0
 25 63  1  0  0  0  0
 26 27  2  0  0  0  0
 26 64  1  0  0  0  0
 28 29  2  0  0  0  0
 28 35  1  0  0  0  0
 29 30  1  0  0  0  0
 29 65  1  0  0  0  0
 30 31  1  0  0  0  0
 30 34  1  0  0  0  0
 31 32  1  0  0  0  0
 31 33  1  0  0  0  0
 31 66  1  0  0  0  0
 32 33  1  0  0  0  0
 32 67  1  0  0  0  0
 32 68  1  0  0  0  0
 33 69  1  0  0  0  0
 33 70  1  0  0  0  0
 34 35  2  0  0  0  0
 34 39  1  0  0  0  0
 35 36  1  0  0  0  0
 36 37  2  0  0  0  0
 36 71  1  0  0  0  0
 37 38  1  0  0  0  0
 37 72  1  0  0  0  0
 38 39  2  0  0  0  0
 38 73  1  0  0  0  0
 39 74  1  0  0  0  0
M  END
>  <DRUGBANK_ID>
DB16640

>  <COMMON_NAME>
Almonertinib

>  <CAS_NUMBER>
1899921-05-1

>  <UNII>
T4RS462G19

>  <SYNONYMS>
Almonertinib; HS-10296

$$$$
