
 OpenBabel10282417072D

 65 67  0  0  0  0  0  0  0  0999 V2000
   -4.6718   -2.0074    0.0000 C   0  0  0  0  0  0  0  0  0  0  0  0
   -5.3862   -1.5949    0.0000 C   0  0  0  0  0  0  0  0  0  0  0  0
   -5.3862   -0.7699    0.0000 C   0  0  0  0  0  0  0  0  0  0  0  0
   -3.9573   -1.5949    0.0000 C   0  0  0  0  0  0  0  0  0  0  0  0
   -3.9573   -0.7699    0.0000 C   0  0  0  0  0  0  0  0  0  0  0  0
   -4.6718   -0.3574    0.0000 C   0  0  0  0  0  0  0  0  0  0  0  0
   -3.2428   -0.3574    0.0000 C   0  0  2  0  0  0  0  0  0  0  0  0
   -2.5284   -0.7699    0.0000 C   0  0  2  0  0  0  0  0  0  0  0  0
   -1.8139   -0.3574    0.0000 N   0  0  0  0  0  0  0  0  0  0  0  0
   -1.0994   -0.7699    0.0000 C   0  0  0  0  0  0  0  0  0  0  0  0
   -1.0994   -1.5949    0.0000 C   0  0  0  0  0  0  0  0  0  0  0  0
   -1.8139   -2.0074    0.0000 C   0  0  0  0  0  0  0  0  0  0  0  0
   -2.5284   -1.5949    0.0000 C   0  0  0  0  0  0  0  0  0  0  0  0
   -1.8414    0.3849    0.0000 C   0  0  0  0  0  0  0  0  0  0  0  0
   -1.0994    0.8799    0.0000 O   0  0  0  0  0  0  0  0  0  0  0  0
   -0.3294    0.3574    0.0000 C   0  0  0  0  0  0  0  0  0  0  0  0
    0.3849    0.7699    0.0000 N   0  3  0  0  0  0  0  0  0  0  0  0
    0.3849    1.5949    0.0000 C   0  0  0  0  0  0  0  0  0  0  0  0
    1.0994    2.0074    0.0000 C   0  0  0  0  0  0  0  0  0  0  0  0
    1.0994    0.3574    0.0000 C   0  0  0  0  0  0  0  0  0  0  0  0
    1.8139    0.7699    0.0000 C   0  0  0  0  0  0  0  0  0  0  0  0
    1.8139    1.5949    0.0000 C   0  0  0  0  0  0  0  0  0  0  0  0
    2.5284    0.3574    0.0000 C   0  0  0  0  0  0  0  0  0  0  0  0
    3.2428    0.7699    0.0000 N   0  0  0  0  0  0  0  0  0  0  0  0
    3.9573    0.3574    0.0000 C   0  0  2  0  0  0  0  0  0  0  0  0
    4.6718    0.7699    0.0000 C   0  0  0  0  0  0  0  0  0  0  0  0
    2.5284   -0.4674    0.0000 O   0  0  0  0  0  0  0  0  0  0  0  0
   -3.2703    0.4399    0.0000 C   0  0  0  0  0  0  0  0  0  0  0  0
   -2.8573    1.1274    0.0000 O   0  0  0  0  0  0  0  0  0  0  0  0
   -2.8843    1.8974    0.0000 C   0  0  0  0  0  0  0  0  0  0  0  0
   -4.0403    0.7969    0.0000 O   0  0  0  0  0  0  0  0  0  0  0  0
   -2.5559    0.7974    0.0000 O   0  0  0  0  0  0  0  0  0  0  0  0
    4.6718    1.5949    0.0000 O   0  0  0  0  0  0  0  0  0  0  0  0
    5.3862    0.3574    0.0000 O   0  5  0  0  0  0  0  0  0  0  0  0
    3.9573   -0.4674    0.0000 C   0  0  0  0  0  0  0  0  0  0  0  0
    4.6718   -0.8799    0.0000 O   0  0  0  0  0  0  0  0  0  0  0  0
   -2.5284    0.0549    0.0000 H   0  0  0  0  0  0  0  0  0  0  0  0
   -4.6718   -3.0394    0.0000 H   0  0  0  0  0  0  0  0  0  0  0  0
   -6.2799   -2.1109    0.0000 H   0  0  0  0  0  0  0  0  0  0  0  0
   -6.2799   -0.2539    0.0000 H   0  0  0  0  0  0  0  0  0  0  0  0
   -3.0636   -2.1109    0.0000 H   0  0  0  0  0  0  0  0  0  0  0  0
   -4.6718    0.6746    0.0000 H   0  0  0  0  0  0  0  0  0  0  0  0
   -4.1785    0.1616    0.0000 H   0  0  0  0  0  0  0  0  0  0  0  0
   -0.1728   -0.2349    0.0000 H   0  0  0  0  0  0  0  0  0  0  0  0
   -0.1728   -1.3049    0.0000 H   0  0  0  0  0  0  0  0  0  0  0  0
   -0.1728   -2.1299    0.0000 H   0  0  0  0  0  0  0  0  0  0  0  0
   -1.0994   -2.6649    0.0000 H   0  0  0  0  0  0  0  0  0  0  0  0
   -1.8139   -3.0774    0.0000 H   0  0  0  0  0  0  0  0  0  0  0  0
   -2.7405   -2.5424    0.0000 H   0  0  0  0  0  0  0  0  0  0  0  0
   -3.4550   -2.1299    0.0000 H   0  0  0  0  0  0  0  0  0  0  0  0
   -3.4550   -1.0599    0.0000 H   0  0  0  0  0  0  0  0  0  0  0  0
   -0.3682   -0.7119    0.0000 H   0  0  0  0  0  0  0  0  0  0  0  0
    0.5874   -0.1943    0.0000 H   0  0  0  0  0  0  0  0  0  0  0  0
   -0.5088    2.1109    0.0000 H   0  0  0  0  0  0  0  0  0  0  0  0
    1.0994    3.0394    0.0000 H   0  0  0  0  0  0  0  0  0  0  0  0
    1.0994   -0.6746    0.0000 H   0  0  0  0  0  0  0  0  0  0  0  0
    2.7076    2.1109    0.0000 H   0  0  0  0  0  0  0  0  0  0  0  0
    3.2428    1.7544    0.0000 H   0  0  0  0  0  0  0  0  0  0  0  0
    3.0307   -0.1776    0.0000 H   0  0  0  0  0  0  0  0  0  0  0  0
   -1.9770    2.4645    0.0000 H   0  0  0  0  0  0  0  0  0  0  0  0
   -3.8291    2.3996    0.0000 H   0  0  0  0  0  0  0  0  0  0  0  0
   -2.9218    2.9667    0.0000 H   0  0  0  0  0  0  0  0  0  0  0  0
    3.0307   -1.0024    0.0000 H   0  0  0  0  0  0  0  0  0  0  0  0
    3.9573   -1.5374    0.0000 H   0  0  0  0  0  0  0  0  0  0  0  0
    4.6718   -1.8499    0.0000 H   0  0  0  0  0  0  0  0  0  0  0  0
  1  2  2  0  0  0  0
  1  4  1  0  0  0  0
  1 38  1  0  0  0  0
  2  3  1  0  0  0  0
  2 39  1  0  0  0  0
  3 40  1  0  0  0  0
  4  5  2  0  0  0  0
  4 41  1  0  0  0  0
  5  6  1  0  0  0  0
  5  7  1  0  0  0  0
  6  3  2  0  0  0  0
  6 42  1  0  0  0  0
  7  8  1  0  0  0  0
  7 28  1  0  0  0  0
  7 43  1  6  0  0  0
  8  9  1  0  0  0  0
  8 37  1  1  0  0  0
  9 10  1  0  0  0  0
  9 14  1  0  0  0  0
 10 11  1  0  0  0  0
 10 44  1  0  0  0  0
 10 45  1  0  0  0  0
 11 12  1  0  0  0  0
 11 46  1  0  0  0  0
 11 47  1  0  0  0  0
 12 13  1  0  0  0  0
 12 48  1  0  0  0  0
 12 49  1  0  0  0  0
 13  8  1  0  0  0  0
 13 50  1  0  0  0  0
 13 51  1  0  0  0  0
 14 15  1  0  0  0  0
 14 32  2  0  0  0  0
 15 16  1  0  0  0  0
 16 17  1  0  0  0  0
 16 52  1  0  0  0  0
 16 53  1  0  0  0  0
 17 18  2  0  0  0  0
 17 20  1  0  0  0  0
 18 19  1  0  0  0  0
 18 54  1  0  0  0  0
 19 55  1  0  0  0  0
 20 21  2  0  0  0  0
 20 56  1  0  0  0  0
 21 22  1  0  0  0  0
 21 23  1  0  0  0  0
 22 19  2  0  0  0  0
 22 57  1  0  0  0  0
 23 24  1  0  0  0  0
 23 27  2  0  0  0  0
 24 25  1  0  0  0  0
 24 58  1  0  0  0  0
 25 26  1  0  0  0  0
 25 35  1  0  0  0  0
 25 59  1  1  0  0  0
 26 33  2  0  0  0  0
 26 34  1  0  0  0  0
 28 29  1  0  0  0  0
 28 31  2  0  0  0  0
 29 30  1  0  0  0  0
 30 60  1  0  0  0  0
 30 61  1  0  0  0  0
 30 62  1  0  0  0  0
 35 36  1  0  0  0  0
 35 63  1  0  0  0  0
 35 64  1  0  0  0  0
 36 65  1  0  0  0  0
M  CHG  2  17   1  34  -1
M  END
>  <DRUGBANK_ID>
DB16629

>  <COMMON_NAME>
Serdexmethylphenidate

>  <CAS_NUMBER>
1996626-29-9

>  <UNII>
0H8KZ470DW

>  <SYNONYMS>
Serdexmethylphenidate

$$$$
