
 OpenBabel10282417072D

 53 56  0  0  0  0  0  0  0  0999 V2000
    0.3486    0.4125    0.0000 C   0  0  0  0  0  0  0  0  0  0  0  0
   -0.3658    0.8250    0.0000 N   0  0  0  0  0  0  0  0  0  0  0  0
   -0.3658    1.6500    0.0000 C   0  0  0  0  0  0  0  0  0  0  0  0
    0.3486    2.0625    0.0000 C   0  0  0  0  0  0  0  0  0  0  0  0
    1.0630    1.6500    0.0000 C   0  0  0  0  0  0  0  0  0  0  0  0
    1.0630    0.8250    0.0000 N   0  0  0  0  0  0  0  0  0  0  0  0
   -1.0803    2.0625    0.0000 N   0  0  0  0  0  0  0  0  0  0  0  0
    0.3486   -0.4124    0.0000 C   0  0  0  0  0  0  0  0  0  0  0  0
   -0.3658   -0.8249    0.0000 C   0  0  0  0  0  0  0  0  0  0  0  0
   -0.3658   -1.6499    0.0000 C   0  0  0  0  0  0  0  0  0  0  0  0
    0.3486   -2.0625    0.0000 C   0  0  0  0  0  0  0  0  0  0  0  0
    0.3486   -2.8874    0.0000 C   0  0  0  0  0  0  0  0  0  0  0  0
   -0.3658   -3.3000    0.0000 C   0  0  0  0  0  0  0  0  0  0  0  0
   -1.0803   -2.8874    0.0000 C   0  0  0  0  0  0  0  0  0  0  0  0
   -1.0803   -2.0625    0.0000 C   0  0  0  0  0  0  0  0  0  0  0  0
   -2.6880    0.6578    0.0000 N   0  0  0  0  0  0  0  0  0  0  0  0
   -1.8810    0.8295    0.0000 N   0  0  0  0  0  0  0  0  0  0  0  0
   -1.7948    1.6500    0.0000 C   0  0  0  0  0  0  0  0  0  0  0  0
   -2.5484    1.9855    0.0000 C   0  0  0  0  0  0  0  0  0  0  0  0
   -3.1005    1.3724    0.0000 C   0  0  0  0  0  0  0  0  0  0  0  0
   -3.9209    1.4587    0.0000 C   0  0  0  0  0  0  0  0  0  0  0  0
    1.7775    2.0625    0.0000 N   0  0  0  0  0  0  0  0  0  0  0  0
    1.7775    2.8875    0.0000 C   0  0  0  0  0  0  0  0  0  0  0  0
    2.4920    3.3000    0.0000 C   0  0  0  0  0  0  0  0  0  0  0  0
    3.2064    2.8875    0.0000 N   0  0  0  0  0  0  0  0  0  0  0  0
    3.2064    2.0625    0.0000 C   0  0  0  0  0  0  0  0  0  0  0  0
    2.4920    1.6500    0.0000 C   0  0  0  0  0  0  0  0  0  0  0  0
    3.9209    3.3000    0.0000 C   0  0  0  0  0  0  0  0  0  0  0  0
    0.3486    3.0945    0.0000 H   0  0  0  0  0  0  0  0  0  0  0  0
   -1.0803    3.0470    0.0000 H   0  0  0  0  0  0  0  0  0  0  0  0
    1.2423   -0.9284    0.0000 H   0  0  0  0  0  0  0  0  0  0  0  0
   -1.2595   -0.3089    0.0000 H   0  0  0  0  0  0  0  0  0  0  0  0
    1.2424   -1.5466    0.0000 H   0  0  0  0  0  0  0  0  0  0  0  0
    1.2424   -3.4033    0.0000 H   0  0  0  0  0  0  0  0  0  0  0  0
   -0.3658   -4.3320    0.0000 H   0  0  0  0  0  0  0  0  0  0  0  0
   -1.9741   -3.4034    0.0000 H   0  0  0  0  0  0  0  0  0  0  0  0
   -1.9741   -1.5465    0.0000 H   0  0  0  0  0  0  0  0  0  0  0  0
   -3.0884   -0.2416    0.0000 H   0  0  0  0  0  0  0  0  0  0  0  0
   -2.7630    2.9950    0.0000 H   0  0  0  0  0  0  0  0  0  0  0  0
   -4.3560    2.4362    0.0000 H   0  0  0  0  0  0  0  0  0  0  0  0
   -4.5499    0.5931    0.0000 H   0  0  0  0  0  0  0  0  0  0  0  0
   -4.9850    1.5706    0.0000 H   0  0  0  0  0  0  0  0  0  0  0  0
    0.8509    3.4225    0.0000 H   0  0  0  0  0  0  0  0  0  0  0  0
    1.7775    3.9575    0.0000 H   0  0  0  0  0  0  0  0  0  0  0  0
    2.4920    4.3700    0.0000 H   0  0  0  0  0  0  0  0  0  0  0  0
    3.4187    3.8350    0.0000 H   0  0  0  0  0  0  0  0  0  0  0  0
    4.1331    1.5275    0.0000 H   0  0  0  0  0  0  0  0  0  0  0  0
    3.2064    0.9925    0.0000 H   0  0  0  0  0  0  0  0  0  0  0  0
    2.4920    0.5800    0.0000 H   0  0  0  0  0  0  0  0  0  0  0  0
    1.5654    1.1150    0.0000 H   0  0  0  0  0  0  0  0  0  0  0  0
    4.8475    2.7650    0.0000 H   0  0  0  0  0  0  0  0  0  0  0  0
    3.9209    4.3700    0.0000 H   0  0  0  0  0  0  0  0  0  0  0  0
    4.8476    3.8350    0.0000 H   0  0  0  0  0  0  0  0  0  0  0  0
  1  2  1  0  0  0  0
  1  6  2  0  0  0  0
  1  8  1  0  0  0  0
  2  3  2  0  0  0  0
  3  4  1  0  0  0  0
  3  7  1  0  0  0  0
  4  5  2  0  0  0  0
  4 29  1  0  0  0  0
  5  6  1  0  0  0  0
  5 22  1  0  0  0  0
  7 18  1  0  0  0  0
  7 30  1  0  0  0  0
  8  9  2  0  0  0  0
  8 31  1  0  0  0  0
  9 10  1  0  0  0  0
  9 32  1  0  0  0  0
 10 11  1  0  0  0  0
 10 15  2  0  0  0  0
 11 12  2  0  0  0  0
 11 33  1  0  0  0  0
 12 13  1  0  0  0  0
 12 34  1  0  0  0  0
 13 14  2  0  0  0  0
 13 35  1  0  0  0  0
 14 15  1  0  0  0  0
 14 36  1  0  0  0  0
 15 37  1  0  0  0  0
 16 17  1  0  0  0  0
 16 20  1  0  0  0  0
 16 38  1  0  0  0  0
 17 18  2  0  0  0  0
 18 19  1  0  0  0  0
 19 20  2  0  0  0  0
 19 39  1  0  0  0  0
 20 21  1  0  0  0  0
 21 40  1  0  0  0  0
 21 41  1  0  0  0  0
 21 42  1  0  0  0  0
 22 23  1  0  0  0  0
 22 27  1  0  0  0  0
 23 24  1  0  0  0  0
 23 43  1  0  0  0  0
 23 44  1  0  0  0  0
 24 25  1  0  0  0  0
 24 45  1  0  0  0  0
 24 46  1  0  0  0  0
 25 26  1  0  0  0  0
 25 28  1  0  0  0  0
 26 27  1  0  0  0  0
 26 47  1  0  0  0  0
 26 48  1  0  0  0  0
 27 49  1  0  0  0  0
 27 50  1  0  0  0  0
 28 51  1  0  0  0  0
 28 52  1  0  0  0  0
 28 53  1  0  0  0  0
M  END
>  <DRUGBANK_ID>
DB16891

>  <COMMON_NAME>
ENMD-981693

>  <CAS_NUMBER>
934353-76-1

>  <UNII>
J6U9WP10T7

>  <SYNONYMS>
(E)-N-(5-Methyl-1H-pyrazol-3-yl)-6-(4-methylpiperazin-1-yl)-2-styrylpyrimidin-4-amine; ENMD-2076 free base

$$$$
