KHP
 OpenBabel10282417072D

 32 33  0  0  0  0  0  0  0  0999 V2000
   -0.9051    2.9961    0.0000 O   0  0  0  0  0  0  0  0  0  0  0  0
   -0.1907    2.5836    0.0000 C   0  0  0  0  0  0  0  0  0  0  0  0
   -0.1907    1.7586    0.0000 C   0  0  2  0  0  0  0  0  0  0  0  0
    0.4768    1.2737    0.0000 O   0  0  0  0  0  0  0  0  0  0  0  0
    0.2218    0.4890    0.0000 C   0  0  2  0  0  0  0  0  0  0  0  0
   -0.6032    0.4890    0.0000 C   0  0  2  0  0  0  0  0  0  0  0  0
   -1.0881   -0.1784    0.0000 O   0  0  0  0  0  0  0  0  0  0  0  0
   -0.8581    1.2737    0.0000 C   0  0  1  0  0  0  0  0  0  0  0  0
   -1.6427    1.5286    0.0000 O   0  0  0  0  0  0  0  0  0  0  0  0
    0.7068   -0.1784    0.0000 O   0  0  0  0  0  0  0  0  0  0  0  0
    0.3712   -0.9321    0.0000 C   0  0  0  0  0  0  0  0  0  0  0  0
    0.8561   -1.5995    0.0000 C   0  0  0  0  0  0  0  0  0  0  0  0
    0.5206   -2.3532    0.0000 C   0  0  0  0  0  0  0  0  0  0  0  0
   -0.2999   -2.4394    0.0000 C   0  0  0  0  0  0  0  0  0  0  0  0
   -0.6355   -3.1931    0.0000 N   0  3  0  0  0  0  0  0  0  0  0  0
   -0.1506   -3.8605    0.0000 O   0  5  0  0  0  0  0  0  0  0  0  0
   -1.4560   -3.2793    0.0000 O   0  0  0  0  0  0  0  0  0  0  0  0
   -0.7848   -1.7720    0.0000 C   0  0  0  0  0  0  0  0  0  0  0  0
   -0.4493   -1.0183    0.0000 C   0  0  0  0  0  0  0  0  0  0  0  0
    0.3296    2.0237    0.0000 H   0  0  0  0  0  0  0  0  0  0  0  0
    0.7986    0.5804    0.0000 H   0  0  0  0  0  0  0  0  0  0  0  0
   -0.3381   -0.0312    0.0000 H   0  0  0  0  0  0  0  0  0  0  0  0
   -0.9495    1.8504    0.0000 H   0  0  0  0  0  0  0  0  0  0  0  0
   -0.9051    3.9661    0.0000 H   0  0  0  0  0  0  0  0  0  0  0  0
    0.7360    3.1186    0.0000 H   0  0  0  0  0  0  0  0  0  0  0  0
    0.7359    2.0486    0.0000 H   0  0  0  0  0  0  0  0  0  0  0  0
   -2.0528   -0.0770    0.0000 H   0  0  0  0  0  0  0  0  0  0  0  0
   -1.8444    2.4774    0.0000 H   0  0  0  0  0  0  0  0  0  0  0  0
    1.8824   -1.4916    0.0000 H   0  0  0  0  0  0  0  0  0  0  0  0
    1.1272   -3.1881    0.0000 H   0  0  0  0  0  0  0  0  0  0  0  0
   -1.8111   -1.8799    0.0000 H   0  0  0  0  0  0  0  0  0  0  0  0
   -1.0559   -0.1834    0.0000 H   0  0  0  0  0  0  0  0  0  0  0  0
  1  2  1  0  0  0  0
  1 24  1  0  0  0  0
  2 25  1  0  0  0  0
  2 26  1  0  0  0  0
  3  2  1  0  0  0  0
  3  4  1  0  0  0  0
  3  8  1  0  0  0  0
  3 20  1  1  0  0  0
  4  5  1  0  0  0  0
  5  6  1  0  0  0  0
  5 10  1  0  0  0  0
  5 21  1  6  0  0  0
  6  7  1  0  0  0  0
  6  8  1  0  0  0  0
  6 22  1  1  0  0  0
  7 27  1  0  0  0  0
  8  9  1  0  0  0  0
  8 23  1  6  0  0  0
  9 28  1  0  0  0  0
 10 11  1  0  0  0  0
 11 12  2  0  0  0  0
 11 19  1  0  0  0  0
 12 13  1  0  0  0  0
 12 29  1  0  0  0  0
 13 14  2  0  0  0  0
 13 30  1  0  0  0  0
 14 15  1  0  0  0  0
 14 18  1  0  0  0  0
 15 16  1  0  0  0  0
 15 17  2  0  0  0  0
 18 19  2  0  0  0  0
 18 31  1  0  0  0  0
 19 32  1  0  0  0  0
M  CHG  2  15   1  16  -1
M  END
>  <DRUGBANK_ID>
DB03196

>  <SECONDARY_ACCESSION_NUMBERS>
EXPT01972

>  <COMMON_NAME>
4-Nitrophenyl-Ara

$$$$
