
 OpenBabel10282417072D

 30 30  0  0  0  0  0  0  0  0999 V2000
   -2.4750    2.1434    0.0000 C   0  0  0  0  0  0  0  0  0  0  0  0
   -1.6500    2.1434    0.0000 C   0  0  0  0  0  0  0  0  0  0  0  0
   -1.2375    1.4289    0.0000 N   0  0  0  0  0  0  0  0  0  0  0  0
   -1.6500    0.7144    0.0000 C   0  0  0  0  0  0  0  0  0  0  0  0
   -2.4750    0.7144    0.0000 C   0  0  0  0  0  0  0  0  0  0  0  0
   -0.4125    1.4289    0.0000 C   0  0  0  0  0  0  0  0  0  0  0  0
    0.0000    2.1434    0.0000 O   0  0  0  0  0  0  0  0  0  0  0  0
    0.0000    0.7144    0.0000 C   0  0  0  0  0  0  0  0  0  0  0  0
    0.8250    0.7144    0.0000 S   0  0  0  0  0  0  0  0  0  0  0  0
    1.2375    0.0000    0.0000 C   0  0  0  0  0  0  0  0  0  0  0  0
    2.0625    0.0000    0.0000 C   0  0  0  0  0  0  0  0  0  0  0  0
    2.4750   -0.7144    0.0000 C   0  0  0  0  0  0  0  0  0  0  0  0
    2.0625   -1.4289    0.0000 C   0  0  0  0  0  0  0  0  0  0  0  0
    1.2375   -1.4289    0.0000 N   0  0  0  0  0  0  0  0  0  0  0  0
    0.8250   -0.7144    0.0000 N   0  0  0  0  0  0  0  0  0  0  0  0
    2.4750   -2.1434    0.0000 Cl  0  0  0  0  0  0  0  0  0  0  0  0
   -3.0100    3.0700    0.0000 H   0  0  0  0  0  0  0  0  0  0  0  0
   -3.0100    1.2168    0.0000 H   0  0  0  0  0  0  0  0  0  0  0  0
   -3.5450    2.1434    0.0000 H   0  0  0  0  0  0  0  0  0  0  0  0
   -1.1150    3.0700    0.0000 H   0  0  0  0  0  0  0  0  0  0  0  0
   -0.5800    2.1434    0.0000 H   0  0  0  0  0  0  0  0  0  0  0  0
   -1.1150   -0.2122    0.0000 H   0  0  0  0  0  0  0  0  0  0  0  0
   -2.1850   -0.2122    0.0000 H   0  0  0  0  0  0  0  0  0  0  0  0
   -3.0100    1.6410    0.0000 H   0  0  0  0  0  0  0  0  0  0  0  0
   -3.0100   -0.2122    0.0000 H   0  0  0  0  0  0  0  0  0  0  0  0
   -3.5450    0.7144    0.0000 H   0  0  0  0  0  0  0  0  0  0  0  0
   -0.5350   -0.2122    0.0000 H   0  0  0  0  0  0  0  0  0  0  0  0
    0.5350   -0.2122    0.0000 H   0  0  0  0  0  0  0  0  0  0  0  0
    2.5785    0.8937    0.0000 H   0  0  0  0  0  0  0  0  0  0  0  0
    3.5070   -0.7144    0.0000 H   0  0  0  0  0  0  0  0  0  0  0  0
  1  2  1  0  0  0  0
  1 17  1  0  0  0  0
  1 18  1  0  0  0  0
  1 19  1  0  0  0  0
  2  3  1  0  0  0  0
  2 20  1  0  0  0  0
  2 21  1  0  0  0  0
  3  4  1  0  0  0  0
  3  6  1  0  0  0  0
  4  5  1  0  0  0  0
  4 22  1  0  0  0  0
  4 23  1  0  0  0  0
  5 24  1  0  0  0  0
  5 25  1  0  0  0  0
  5 26  1  0  0  0  0
  6  7  2  0  0  0  0
  6  8  1  0  0  0  0
  8  9  1  0  0  0  0
  8 27  1  0  0  0  0
  8 28  1  0  0  0  0
  9 10  1  0  0  0  0
 10 11  2  0  0  0  0
 10 15  1  0  0  0  0
 11 12  1  0  0  0  0
 11 29  1  0  0  0  0
 12 13  2  0  0  0  0
 12 30  1  0  0  0  0
 13 14  1  0  0  0  0
 13 16  1  0  0  0  0
 14 15  2  0  0  0  0
M  END
>  <DRUGBANK_ID>
DB13992

>  <COMMON_NAME>
Azintamide

>  <CAS_NUMBER>
1830-32-6

>  <UNII>
ACZ6L64B41

>  <SYNONYMS>
Azintamid; Azintamida; Azintamide; Azintamidum; Oragallin

$$$$
