
 OpenBabel10282417072D

 65 69  0  0  1  0  0  0  0  0999 V2000
    2.0307    1.7357    0.0000 C   0  0  0  0  0  0  0  0  0  0  0  0
   -2.0411    3.9503    0.0000 C   0  0  0  0  0  0  0  0  0  0  0  0
   -2.6924    3.4440    0.0000 C   0  0  0  0  0  0  0  0  0  0  0  0
   -1.3583    3.4873    0.0000 C   0  0  0  0  0  0  0  0  0  0  0  0
   -2.4121    2.6680    0.0000 C   0  0  0  0  0  0  0  0  0  0  0  0
   -1.0812    2.0435    0.0000 C   0  0  0  0  0  0  0  0  0  0  0  0
    4.5754   -0.8489    0.0000 C   0  0  0  0  0  0  0  0  0  0  0  0
    6.1708    1.0432    0.0000 C   0  0  0  0  0  0  0  0  0  0  0  0
    3.7633   -0.7037    0.0000 C   0  0  0  0  0  0  0  0  0  0  0  0
    5.3587    1.1884    0.0000 C   0  0  0  0  0  0  0  0  0  0  0  0
    2.0195   -0.2889    0.0000 C   0  0  0  0  0  0  0  0  0  0  0  0
    1.3367    0.1741    0.0000 C   0  0  0  0  0  0  0  0  0  0  0  0
   -0.2640    2.1564    0.0000 C   0  0  0  0  0  0  0  0  0  0  0  0
    3.7345    1.4789    0.0000 C   0  0  0  0  0  0  0  0  0  0  0  0
    2.9224    1.6241    0.0000 C   0  0  0  0  0  0  0  0  0  0  0  0
    5.9193   -0.3634    0.0000 C   0  0  0  0  0  0  0  0  0  0  0  0
   -1.5876    2.6948    0.0000 C   0  0  0  0  0  0  0  0  0  0  0  0
    5.1072   -0.2182    0.0000 C   0  0  0  0  0  0  0  0  0  0  0  0
    6.4511    0.2673    0.0000 C   0  0  0  0  0  0  0  0  0  0  0  0
    4.8269    0.5577    0.0000 C   0  0  0  0  0  0  0  0  0  0  0  0
    4.0148    0.7029    0.0000 C   0  0  2  0  0  0  0  0  0  0  0  0
    3.4830    0.0722    0.0000 C   0  0  2  0  0  0  0  0  0  0  0  0
    2.6708    0.2174    0.0000 C   0  0  1  0  0  0  0  0  0  0  0  0
    1.5660    0.9666    0.0000 C   0  0  1  0  0  0  0  0  0  0  0  0
    0.2424    1.5050    0.0000 C   0  0  0  0  0  0  0  0  0  0  0  0
    2.3905    0.9934    0.0000 C   0  0  2  0  0  0  0  0  0  0  0  0
    7.2632    0.1221    0.0000 O   0  0  0  0  0  0  0  0  0  0  0  0
   -0.0685    0.7409    0.0000 O   0  0  0  0  0  0  0  0  0  0  0  0
    1.0596    1.6179    0.0000 O   0  0  0  0  0  0  0  0  0  0  0  0
    4.5466    1.3336    0.0000 H   0  0  0  0  0  0  0  0  0  0  0  0
    3.1989   -0.7023    0.0000 H   0  0  0  0  0  0  0  0  0  0  0  0
    2.5826   -0.6028    0.0000 H   0  0  0  0  0  0  0  0  0  0  0  0
    0.7557    0.8111    0.0000 H   0  0  0  0  0  0  0  0  0  0  0  0
    2.6312    2.6213    0.0000 H   0  0  0  0  0  0  0  0  0  0  0  0
    0.9635    1.8129    0.0000 H   0  0  0  0  0  0  0  0  0  0  0  0
    1.5640    2.6986    0.0000 H   0  0  0  0  0  0  0  0  0  0  0  0
   -2.0758    5.0197    0.0000 H   0  0  0  0  0  0  0  0  0  0  0  0
   -1.1040    4.4667    0.0000 H   0  0  0  0  0  0  0  0  0  0  0  0
   -3.7202    3.7414    0.0000 H   0  0  0  0  0  0  0  0  0  0  0  0
   -3.4240    2.6632    0.0000 H   0  0  0  0  0  0  0  0  0  0  0  0
   -0.3519    3.8508    0.0000 H   0  0  0  0  0  0  0  0  0  0  0  0
   -0.5775    2.7557    0.0000 H   0  0  0  0  0  0  0  0  0  0  0  0
   -3.0126    1.7824    0.0000 H   0  0  0  0  0  0  0  0  0  0  0  0
   -1.8956    1.7309    0.0000 H   0  0  0  0  0  0  0  0  0  0  0  0
   -1.4844    1.0524    0.0000 H   0  0  0  0  0  0  0  0  0  0  0  0
   -2.1411    1.8971    0.0000 H   0  0  0  0  0  0  0  0  0  0  0  0
    4.9390   -1.8552    0.0000 H   0  0  0  0  0  0  0  0  0  0  0  0
    5.6287   -1.0372    0.0000 H   0  0  0  0  0  0  0  0  0  0  0  0
    6.8360    1.8322    0.0000 H   0  0  0  0  0  0  0  0  0  0  0  0
    3.0736   -1.5217    0.0000 H   0  0  0  0  0  0  0  0  0  0  0  0
    2.7100   -0.5154    0.0000 H   0  0  0  0  0  0  0  0  0  0  0  0
    5.0081    2.1590    0.0000 H   0  0  0  0  0  0  0  0  0  0  0  0
    2.0542   -1.3583    0.0000 H   0  0  0  0  0  0  0  0  0  0  0  0
    2.9881   -0.7435    0.0000 H   0  0  0  0  0  0  0  0  0  0  0  0
    0.3303   -0.1894    0.0000 H   0  0  0  0  0  0  0  0  0  0  0  0
    0.5559    0.9057    0.0000 H   0  0  0  0  0  0  0  0  0  0  0  0
    0.1392    3.1475    0.0000 H   0  0  0  0  0  0  0  0  0  0  0  0
    0.7959    2.3028    0.0000 H   0  0  0  0  0  0  0  0  0  0  0  0
    4.4243    2.2969    0.0000 H   0  0  0  0  0  0  0  0  0  0  0  0
    4.7878    1.2905    0.0000 H   0  0  0  0  0  0  0  0  0  0  0  0
    2.5589    2.6305    0.0000 H   0  0  0  0  0  0  0  0  0  0  0  0
    1.8691    1.8125    0.0000 H   0  0  0  0  0  0  0  0  0  0  0  0
    6.2699   -1.3340    0.0000 H   0  0  0  0  0  0  0  0  0  0  0  0
   -2.0421    1.7261    0.0000 H   0  0  0  0  0  0  0  0  0  0  0  0
    7.5816   -0.7592    0.0000 H   0  0  0  0  0  0  0  0  0  0  0  0
  1 34  1  0  0  0  0
  1 35  1  0  0  0  0
  1 36  1  0  0  0  0
  2 37  1  0  0  0  0
  2 38  1  0  0  0  0
  3  2  1  0  0  0  0
  3 39  1  0  0  0  0
  3 40  1  0  0  0  0
  4  2  1  0  0  0  0
  4 41  1  0  0  0  0
  4 42  1  0  0  0  0
  5  3  1  0  0  0  0
  5 43  1  0  0  0  0
  5 44  1  0  0  0  0
  6 45  1  0  0  0  0
  6 46  1  0  0  0  0
  7 47  1  0  0  0  0
  7 48  1  0  0  0  0
  8 49  1  0  0  0  0
  9  7  1  0  0  0  0
  9 50  1  0  0  0  0
  9 51  1  0  0  0  0
 10  8  1  0  0  0  0
 10 52  1  0  0  0  0
 11 53  1  0  0  0  0
 11 54  1  0  0  0  0
 12 11  1  0  0  0  0
 12 55  1  0  0  0  0
 12 56  1  0  0  0  0
 13  6  1  0  0  0  0
 13 57  1  0  0  0  0
 13 58  1  0  0  0  0
 14 59  1  0  0  0  0
 14 60  1  0  0  0  0
 15 14  1  0  0  0  0
 15 61  1  0  0  0  0
 15 62  1  0  0  0  0
 16 63  1  0  0  0  0
 17  4  1  0  0  0  0
 17  5  1  0  0  0  0
 17  6  1  0  0  0  0
 17 64  1  0  0  0  0
 18  7  1  0  0  0  0
 18 16  2  0  0  0  0
 19  8  2  0  0  0  0
 19 16  1  0  0  0  0
 20 10  2  0  0  0  0
 20 18  1  0  0  0  0
 21 14  1  0  0  0  0
 21 20  1  0  0  0  0
 21 30  1  1  0  0  0
 22  9  1  0  0  0  0
 22 21  1  0  0  0  0
 22 31  1  6  0  0  0
 23 11  1  0  0  0  0
 23 22  1  0  0  0  0
 23 32  1  1  0  0  0
 24 12  1  0  0  0  0
 24 29  1  0  0  0  0
 24 33  1  1  0  0  0
 25 13  1  0  0  0  0
 26  1  1  6  0  0  0
 26 15  1  0  0  0  0
 26 23  1  0  0  0  0
 26 24  1  0  0  0  0
 27 19  1  0  0  0  0
 27 65  1  0  0  0  0
 28 25  2  0  0  0  0
 29 25  1  0  0  0  0
M  END
>  <DRUGBANK_ID>
DB13954

>  <SECONDARY_ACCESSION_NUMBERS>
DBSALT000067

>  <COMMON_NAME>
Estradiol cypionate

>  <CAS_NUMBER>
313-06-4

>  <UNII>
7E1DV054LO

>  <SYNONYMS>
Estradiol cypionate

$$$$
