
 OpenBabel10282417072D

 51 53  0  0  0  0  0  0  0  0999 V2000
    0.7144    0.2222    0.0000 O   0  0  0  0  0  0  0  0  0  0  0  0
    1.4289    0.6347    0.0000 C   0  0  0  0  0  0  0  0  0  0  0  0
    1.4289    1.4597    0.0000 N   0  0  0  0  0  0  0  0  0  0  0  0
    0.7144    1.8722    0.0000 N   0  0  0  0  0  0  0  0  0  0  0  0
    0.0000    1.4597    0.0000 C   0  0  0  0  0  0  0  0  0  0  0  0
   -0.7144    1.8722    0.0000 C   0  0  0  0  0  0  0  0  0  0  0  0
   -1.4289    1.4597    0.0000 C   0  0  0  0  0  0  0  0  0  0  0  0
   -2.1433    1.8722    0.0000 C   0  0  0  0  0  0  0  0  0  0  0  0
   -2.8578    1.4597    0.0000 O   0  0  0  0  0  0  0  0  0  0  0  0
   -3.5723    1.8722    0.0000 C   0  0  0  0  0  0  0  0  0  0  0  0
   -2.1433    2.6972    0.0000 C   0  0  0  0  0  0  0  0  0  0  0  0
   -2.8578    3.1097    0.0000 Br  0  0  0  0  0  0  0  0  0  0  0  0
   -1.4289    3.1097    0.0000 C   0  0  0  0  0  0  0  0  0  0  0  0
   -1.4289    3.9347    0.0000 O   0  0  0  0  0  0  0  0  0  0  0  0
   -0.7144    4.3472    0.0000 C   0  0  0  0  0  0  0  0  0  0  0  0
   -0.7144    2.6972    0.0000 C   0  0  0  0  0  0  0  0  0  0  0  0
    2.1433    0.2222    0.0000 C   0  0  3  0  0  0  0  0  0  0  0  0
    2.1433   -0.6027    0.0000 C   0  0  0  0  0  0  0  0  0  0  0  0
    2.8578   -1.0152    0.0000 C   0  0  0  0  0  0  0  0  0  0  0  0
    2.8578   -1.8402    0.0000 C   0  0  0  0  0  0  0  0  0  0  0  0
    2.1433   -2.2527    0.0000 C   0  0  0  0  0  0  0  0  0  0  0  0
    2.1433   -3.0777    0.0000 N   0  0  0  0  0  0  0  0  0  0  0  0
    2.8108   -3.5626    0.0000 N   0  0  0  0  0  0  0  0  0  0  0  0
    2.5558   -4.3472    0.0000 C   0  0  0  0  0  0  0  0  0  0  0  0
    1.7308   -4.3472    0.0000 C   0  0  0  0  0  0  0  0  0  0  0  0
    1.4760   -3.5626    0.0000 C   0  0  0  0  0  0  0  0  0  0  0  0
    1.4289   -1.8402    0.0000 C   0  0  0  0  0  0  0  0  0  0  0  0
    1.4289   -1.0152    0.0000 C   0  0  0  0  0  0  0  0  0  0  0  0
    2.8578    0.6347    0.0000 O   0  0  0  0  0  0  0  0  0  0  0  0
    3.5723    0.2222    0.0000 C   0  0  0  0  0  0  0  0  0  0  0  0
    2.2815    1.9520    0.0000 H   0  0  0  0  0  0  0  0  0  0  0  0
    0.0000    0.4277    0.0000 H   0  0  0  0  0  0  0  0  0  0  0  0
   -1.4289    0.4277    0.0000 H   0  0  0  0  0  0  0  0  0  0  0  0
   -3.5723    2.9422    0.0000 H   0  0  0  0  0  0  0  0  0  0  0  0
   -4.4989    1.3372    0.0000 H   0  0  0  0  0  0  0  0  0  0  0  0
   -4.4990    2.4072    0.0000 H   0  0  0  0  0  0  0  0  0  0  0  0
    0.2122    3.8122    0.0000 H   0  0  0  0  0  0  0  0  0  0  0  0
   -0.7144    5.4172    0.0000 H   0  0  0  0  0  0  0  0  0  0  0  0
    0.2123    4.8822    0.0000 H   0  0  0  0  0  0  0  0  0  0  0  0
    0.1793    3.2132    0.0000 H   0  0  0  0  0  0  0  0  0  0  0  0
    1.2166   -0.3128    0.0000 H   0  0  0  0  0  0  0  0  0  0  0  0
    3.7515   -0.4992    0.0000 H   0  0  0  0  0  0  0  0  0  0  0  0
    3.7515   -2.3562    0.0000 H   0  0  0  0  0  0  0  0  0  0  0  0
    3.1624   -5.1821    0.0000 H   0  0  0  0  0  0  0  0  0  0  0  0
    1.1241   -5.1821    0.0000 H   0  0  0  0  0  0  0  0  0  0  0  0
    0.4945   -3.2437    0.0000 H   0  0  0  0  0  0  0  0  0  0  0  0
    0.5352   -2.3562    0.0000 H   0  0  0  0  0  0  0  0  0  0  0  0
    0.5352   -0.4992    0.0000 H   0  0  0  0  0  0  0  0  0  0  0  0
    3.5723   -0.8478    0.0000 H   0  0  0  0  0  0  0  0  0  0  0  0
    4.4989    0.7572    0.0000 H   0  0  0  0  0  0  0  0  0  0  0  0
    4.4990   -0.3128    0.0000 H   0  0  0  0  0  0  0  0  0  0  0  0
  1  2  2  0  0  0  0
  2  3  1  0  0  0  0
  2 17  1  0  0  0  0
  3  4  1  0  0  0  0
  3 31  1  0  0  0  0
  4  5  2  0  0  0  0
  5  6  1  0  0  0  0
  5 32  1  0  0  0  0
  6  7  2  0  0  0  0
  6 16  1  0  0  0  0
  7  8  1  0  0  0  0
  7 33  1  0  0  0  0
  8  9  1  0  0  0  0
  8 11  2  0  0  0  0
  9 10  1  0  0  0  0
 10 34  1  0  0  0  0
 10 35  1  0  0  0  0
 10 36  1  0  0  0  0
 11 12  1  0  0  0  0
 11 13  1  0  0  0  0
 13 14  1  0  0  0  0
 13 16  2  0  0  0  0
 14 15  1  0  0  0  0
 15 37  1  0  0  0  0
 15 38  1  0  0  0  0
 15 39  1  0  0  0  0
 16 40  1  0  0  0  0
 17 18  1  0  0  0  0
 17 29  1  0  0  0  0
 17 41  1  0  0  0  0
 18 19  2  0  0  0  0
 18 28  1  0  0  0  0
 19 20  1  0  0  0  0
 19 42  1  0  0  0  0
 20 21  2  0  0  0  0
 20 43  1  0  0  0  0
 21 22  1  0  0  0  0
 21 27  1  0  0  0  0
 22 23  1  0  0  0  0
 22 26  1  0  0  0  0
 23 24  2  0  0  0  0
 24 25  1  0  0  0  0
 24 44  1  0  0  0  0
 25 26  2  0  0  0  0
 25 45  1  0  0  0  0
 26 46  1  0  0  0  0
 27 28  2  0  0  0  0
 27 47  1  0  0  0  0
 28 48  1  0  0  0  0
 29 30  1  0  0  0  0
 30 49  1  0  0  0  0
 30 50  1  0  0  0  0
 30 51  1  0  0  0  0
M  END
>  <DRUGBANK_ID>
DB17874

>  <COMMON_NAME>
OMS-824

>  <CAS_NUMBER>
1207549-69-6

$$$$
