
 OpenBabel10282417072D

 64 66  0  0  0  0  0  0  0  0999 V2000
   -1.5065    1.8642    0.0000 C   0  0  0  0  0  0  0  0  0  0  0  0
   -1.5065    1.0392    0.0000 C   0  0  0  0  0  0  0  0  0  0  0  0
   -0.7903    0.6268    0.0000 C   0  0  3  0  0  0  0  0  0  0  0  0
   -0.0784    1.0392    0.0000 C   0  0  0  0  0  0  0  0  0  0  0  0
   -0.0784    1.8642    0.0000 C   0  0  0  0  0  0  0  0  0  0  0  0
   -0.7903    2.2767    0.0000 N   0  0  0  0  0  0  0  0  0  0  0  0
   -0.7893   -0.1981    0.0000 C   0  0  0  0  0  0  0  0  0  0  0  0
   -1.4996   -0.6086    0.0000 C   0  0  0  0  0  0  0  0  0  0  0  0
   -1.4985   -1.4335    0.0000 C   0  0  0  0  0  0  0  0  0  0  0  0
   -0.7836   -1.8451    0.0000 C   0  0  0  0  0  0  0  0  0  0  0  0
   -0.0696   -1.4317    0.0000 C   0  0  0  0  0  0  0  0  0  0  0  0
   -0.0706   -0.6068    0.0000 C   0  0  0  0  0  0  0  0  0  0  0  0
    0.6453   -1.8433    0.0000 N   0  3  0  0  0  0  0  0  0  0  0  0
    0.6364    0.6274    0.0000 C   0  0  0  0  0  0  0  0  0  0  0  0
    0.6370   -0.1975    0.0000 O   0  0  0  0  0  0  0  0  0  0  0  0
    1.3503    1.0404    0.0000 O   0  0  0  0  0  0  0  0  0  0  0  0
    2.0651    0.6284    0.0000 C   0  0  0  0  0  0  0  0  0  0  0  0
    2.7793    1.0415    0.0000 C   0  0  0  0  0  0  0  0  0  0  0  0
    3.6015    1.0435    0.0000 C   0  0  0  0  0  0  0  0  0  0  0  0
    0.6364    2.2762    0.0000 C   0  0  0  0  0  0  0  0  0  0  0  0
   -2.2207    2.2771    0.0000 C   0  0  0  0  0  0  0  0  0  0  0  0
   -2.2207    0.6265    0.0000 C   0  0  0  0  0  0  0  0  0  0  0  0
   -2.9354    1.0386    0.0000 O   0  0  0  0  0  0  0  0  0  0  0  0
   -2.2203   -0.1984    0.0000 O   0  0  0  0  0  0  0  0  0  0  0  0
   -3.6496    0.6257    0.0000 C   0  0  0  0  0  0  0  0  0  0  0  0
   -4.3643    1.0379    0.0000 C   0  0  0  0  0  0  0  0  0  0  0  0
   -5.0784    0.6250    0.0000 O   0  0  0  0  0  0  0  0  0  0  0  0
    1.5242   -1.2649    0.0000 O   0  0  0  0  0  0  0  0  0  0  0  0
    0.6463   -2.6683    0.0000 O   0  5  0  0  0  0  0  0  0  0  0  0
    4.3140    1.4602    0.0000 C   0  0  0  0  0  0  0  0  0  0  0  0
    4.3509    2.2854    0.0000 C   0  0  0  0  0  0  0  0  0  0  0  0
   -5.7931    1.0370    0.0000 C   0  0  0  0  0  0  0  0  0  0  0  0
    5.0142    1.0130    0.0000 C   0  0  0  0  0  0  0  0  0  0  0  0
    5.7931    1.3958    0.0000 C   0  0  0  0  0  0  0  0  0  0  0  0
    5.7885    2.2210    0.0000 C   0  0  0  0  0  0  0  0  0  0  0  0
    5.0882    2.6683    0.0000 C   0  0  0  0  0  0  0  0  0  0  0  0
    0.1371    0.0930    0.0000 H   0  0  0  0  0  0  0  0  0  0  0  0
   -0.7890    3.2612    0.0000 H   0  0  0  0  0  0  0  0  0  0  0  0
   -2.3938   -0.0934    0.0000 H   0  0  0  0  0  0  0  0  0  0  0  0
   -2.3916   -1.9506    0.0000 H   0  0  0  0  0  0  0  0  0  0  0  0
   -0.7823   -2.8771    0.0000 H   0  0  0  0  0  0  0  0  0  0  0  0
    0.8211   -0.0873    0.0000 H   0  0  0  0  0  0  0  0  0  0  0  0
    2.0659   -0.4416    0.0000 H   0  0  0  0  0  0  0  0  0  0  0  0
    1.1388    0.0927    0.0000 H   0  0  0  0  0  0  0  0  0  0  0  0
    2.5106    2.0379    0.0000 H   0  0  0  0  0  0  0  0  0  0  0  0
    3.8726    0.0477    0.0000 H   0  0  0  0  0  0  0  0  0  0  0  0
    1.5627    1.7405    0.0000 H   0  0  0  0  0  0  0  0  0  0  0  0
    0.6372    3.3462    0.0000 H   0  0  0  0  0  0  0  0  0  0  0  0
    1.5634    2.8105    0.0000 H   0  0  0  0  0  0  0  0  0  0  0  0
   -2.2201    3.3471    0.0000 H   0  0  0  0  0  0  0  0  0  0  0  0
   -3.1477    1.7426    0.0000 H   0  0  0  0  0  0  0  0  0  0  0  0
   -3.1470    2.8126    0.0000 H   0  0  0  0  0  0  0  0  0  0  0  0
   -3.6490   -0.4443    0.0000 H   0  0  0  0  0  0  0  0  0  0  0  0
   -4.5760    0.0902    0.0000 H   0  0  0  0  0  0  0  0  0  0  0  0
   -4.3649    2.1079    0.0000 H   0  0  0  0  0  0  0  0  0  0  0  0
   -5.2913    1.5723    0.0000 H   0  0  0  0  0  0  0  0  0  0  0  0
    3.4811    2.8408    0.0000 H   0  0  0  0  0  0  0  0  0  0  0  0
   -5.7938    2.1070    0.0000 H   0  0  0  0  0  0  0  0  0  0  0  0
   -6.7194    0.5014    0.0000 H   0  0  0  0  0  0  0  0  0  0  0  0
   -6.7201    1.5714    0.0000 H   0  0  0  0  0  0  0  0  0  0  0  0
    4.9567   -0.0174    0.0000 H   0  0  0  0  0  0  0  0  0  0  0  0
    6.6706    0.8527    0.0000 H   0  0  0  0  0  0  0  0  0  0  0  0
    6.6922    2.7194    0.0000 H   0  0  0  0  0  0  0  0  0  0  0  0
    5.1343    3.6993    0.0000 H   0  0  0  0  0  0  0  0  0  0  0  0
  1 21  1  0  0  0  0
  1  2  2  0  0  0  0
  2 22  1  0  0  0  0
  2  3  1  0  0  0  0
  3  4  1  0  0  0  0
  3  7  1  0  0  0  0
  3 37  1  0  0  0  0
  4  5  2  0  0  0  0
  4 14  1  0  0  0  0
  5  6  1  0  0  0  0
  5 20  1  0  0  0  0
  6  1  1  0  0  0  0
  6 38  1  0  0  0  0
  7  8  2  0  0  0  0
  8  9  1  0  0  0  0
  8 39  1  0  0  0  0
  9 10  2  0  0  0  0
  9 40  1  0  0  0  0
 10 11  1  0  0  0  0
 10 41  1  0  0  0  0
 11 12  2  0  0  0  0
 11 13  1  0  0  0  0
 12  7  1  0  0  0  0
 12 42  1  0  0  0  0
 13 28  2  0  0  0  0
 13 29  1  0  0  0  0
 14 15  2  0  0  0  0
 14 16  1  0  0  0  0
 16 17  1  0  0  0  0
 17 18  1  0  0  0  0
 17 43  1  0  0  0  0
 17 44  1  0  0  0  0
 18 19  2  0  0  0  0
 18 45  1  0  0  0  0
 19 30  1  0  0  0  0
 19 46  1  0  0  0  0
 20 47  1  0  0  0  0
 20 48  1  0  0  0  0
 20 49  1  0  0  0  0
 21 50  1  0  0  0  0
 21 51  1  0  0  0  0
 21 52  1  0  0  0  0
 22 23  1  0  0  0  0
 22 24  2  0  0  0  0
 23 25  1  0  0  0  0
 25 26  1  0  0  0  0
 25 53  1  0  0  0  0
 25 54  1  0  0  0  0
 26 27  1  0  0  0  0
 26 55  1  0  0  0  0
 26 56  1  0  0  0  0
 27 32  1  0  0  0  0
 30 33  2  0  0  0  0
 31 30  1  0  0  0  0
 31 36  2  0  0  0  0
 31 57  1  0  0  0  0
 32 58  1  0  0  0  0
 32 59  1  0  0  0  0
 32 60  1  0  0  0  0
 33 34  1  0  0  0  0
 33 61  1  0  0  0  0
 34 35  2  0  0  0  0
 34 62  1  0  0  0  0
 35 36  1  0  0  0  0
 35 63  1  0  0  0  0
 36 64  1  0  0  0  0
M  CHG  2  13   1  29  -1
M  END
>  <DRUGBANK_ID>
DB09232

>  <COMMON_NAME>
Cilnidipine

>  <CAS_NUMBER>
132203-70-4

>  <UNII>
97T5AZ1JIP

>  <SYNONYMS>
Cilnidipine

$$$$
