RSS
 OpenBabel10282417072D

 67 69  0  0  0  0  0  0  0  0999 V2000
    1.0417   -1.7376    0.0000 C   0  0  0  0  0  0  0  0  0  0  0  0
    0.7816   -2.5205    0.0000 O   0  0  0  0  0  0  0  0  0  0  0  0
    1.8498   -1.5714    0.0000 O   0  0  0  0  0  0  0  0  0  0  0  0
    0.4142   -1.0313    0.0000 C   0  0  0  0  0  0  0  0  0  0  0  0
    0.8352   -0.2817    0.0000 C   0  0  2  0  0  0  0  0  0  0  0  0
    0.1366    0.1540    0.0000 C   0  0  0  0  0  0  0  0  0  0  0  0
   -0.1520    0.7954    0.0000 O   0  0  0  0  0  0  0  0  0  0  0  0
   -0.4477    0.7537    0.0000 N   0  0  0  0  0  0  0  0  0  0  0  0
   -1.0330    1.2703    0.0000 C   0  0  2  0  0  0  0  0  0  0  0  0
   -1.1242    2.0902    0.0000 C   0  0  0  0  0  0  0  0  0  0  0  0
   -1.7376    2.6584    0.0000 O   0  0  0  0  0  0  0  0  0  0  0  0
   -0.3726    2.4303    0.0000 N   0  0  0  0  0  0  0  0  0  0  0  0
    0.1831    1.8206    0.0000 C   0  0  0  0  0  0  0  0  0  0  0  0
    1.2881    1.8457    0.0000 C   0  0  0  0  0  0  0  0  0  0  0  0
    1.3980    1.0562    0.0000 C   0  0  0  0  0  0  0  0  0  0  0  0
    0.9360    0.2707    0.0000 C   0  0  0  0  0  0  0  0  0  0  0  0
    1.2761   -0.4810    0.0000 C   0  0  0  0  0  0  0  0  0  0  0  0
    0.7952   -1.1513    0.0000 C   0  0  0  0  0  0  0  0  0  0  0  0
   -0.0258   -1.0700    0.0000 N   0  0  0  0  0  0  0  0  0  0  0  0
    1.6856    0.1649    0.0000 C   0  0  0  0  0  0  0  0  0  0  0  0
    1.0466    0.7537    0.0000 C   0  0  0  0  0  0  0  0  0  0  0  0
    0.4477    1.2992    0.0000 C   0  0  0  0  0  0  0  0  0  0  0  0
    0.7068    1.5267    0.0000 C   0  0  0  0  0  0  0  0  0  0  0  0
   -1.5270    0.5146    0.0000 C   0  0  0  0  0  0  0  0  0  0  0  0
   -1.1869   -0.2371    0.0000 C   0  0  0  0  0  0  0  0  0  0  0  0
   -0.3659   -0.3184    0.0000 C   0  0  0  0  0  0  0  0  0  0  0  0
   -1.3606   -1.0780    0.0000 C   0  0  0  0  0  0  0  0  0  0  0  0
   -0.6903   -1.5589    0.0000 C   0  0  0  0  0  0  0  0  0  0  0  0
   -2.1123   -1.4181    0.0000 C   0  0  0  0  0  0  0  0  0  0  0  0
   -0.7716   -2.3799    0.0000 C   0  0  0  0  0  0  0  0  0  0  0  0
   -2.1936   -2.2391    0.0000 C   0  0  0  0  0  0  0  0  0  0  0  0
   -1.5232   -2.7200    0.0000 C   0  0  0  0  0  0  0  0  0  0  0  0
    0.2695   -0.4266    0.0000 H   0  0  0  0  0  0  0  0  0  0  0  0
   -0.5149    1.5396    0.0000 H   0  0  0  0  0  0  0  0  0  0  0  0
    2.4722   -2.2718    0.0000 H   0  0  0  0  0  0  0  0  0  0  0  0
   -0.6496   -1.1459    0.0000 H   0  0  0  0  0  0  0  0  0  0  0  0
   -0.1750   -0.1382    0.0000 H   0  0  0  0  0  0  0  0  0  0  0  0
    0.2311    1.4668    0.0000 H   0  0  0  0  0  0  0  0  0  0  0  0
   -0.1737    3.3945    0.0000 H   0  0  0  0  0  0  0  0  0  0  0  0
   -0.2380    0.8369    0.0000 H   0  0  0  0  0  0  0  0  0  0  0  0
    0.7824    0.9342    0.0000 H   0  0  0  0  0  0  0  0  0  0  0  0
    1.9814    2.6607    0.0000 H   0  0  0  0  0  0  0  0  0  0  0  0
    2.3155    1.5466    0.0000 H   0  0  0  0  0  0  0  0  0  0  0  0
    2.4474    0.8471    0.0000 H   0  0  0  0  0  0  0  0  0  0  0  0
    1.8355    0.0797    0.0000 H   0  0  0  0  0  0  0  0  0  0  0  0
   -0.1325    0.3278    0.0000 H   0  0  0  0  0  0  0  0  0  0  0  0
    0.3321   -0.6126    0.0000 H   0  0  0  0  0  0  0  0  0  0  0  0
    2.3409   -0.5865    0.0000 H   0  0  0  0  0  0  0  0  0  0  0  0
    1.7172   -1.4559    0.0000 H   0  0  0  0  0  0  0  0  0  0  0  0
    1.2363   -2.1262    0.0000 H   0  0  0  0  0  0  0  0  0  0  0  0
    0.1715   -2.0207    0.0000 H   0  0  0  0  0  0  0  0  0  0  0  0
    2.7465    0.0257    0.0000 H   0  0  0  0  0  0  0  0  0  0  0  0
    2.1389    1.1341    0.0000 H   0  0  0  0  0  0  0  0  0  0  0  0
    0.4222    1.6226    0.0000 H   0  0  0  0  0  0  0  0  0  0  0  0
    0.6762    2.3445    0.0000 H   0  0  0  0  0  0  0  0  0  0  0  0
   -0.5718    0.9744    0.0000 H   0  0  0  0  0  0  0  0  0  0  0  0
   -0.3433    2.0197    0.0000 H   0  0  0  0  0  0  0  0  0  0  0  0
    1.3398    2.3894    0.0000 H   0  0  0  0  0  0  0  0  0  0  0  0
   -0.3568    1.6436    0.0000 H   0  0  0  0  0  0  0  0  0  0  0  0
    0.2762    2.5062    0.0000 H   0  0  0  0  0  0  0  0  0  0  0  0
   -2.5938    0.5970    0.0000 H   0  0  0  0  0  0  0  0  0  0  0  0
   -2.1413   -0.3615    0.0000 H   0  0  0  0  0  0  0  0  0  0  0  0
    0.2356    0.5202    0.0000 H   0  0  0  0  0  0  0  0  0  0  0  0
   -2.9508   -0.8165    0.0000 H   0  0  0  0  0  0  0  0  0  0  0  0
    0.0670   -2.9814    0.0000 H   0  0  0  0  0  0  0  0  0  0  0  0
   -3.1338   -2.6645    0.0000 H   0  0  0  0  0  0  0  0  0  0  0  0
   -1.6249   -3.7470    0.0000 H   0  0  0  0  0  0  0  0  0  0  0  0
  1  2  2  0  0  0  0
  1  3  1  0  0  0  0
  1  4  1  0  0  0  0
  3 35  1  0  0  0  0
  4  5  1  0  0  0  0
  4 36  1  0  0  0  0
  4 37  1  0  0  0  0
  5  6  1  0  0  0  0
  5 20  1  0  0  0  0
  5 33  1  1  0  0  0
  6  7  2  0  0  0  0
  6  8  1  0  0  0  0
  8 38  1  0  0  0  0
  9  8  1  0  0  0  0
  9 10  1  0  0  0  0
  9 24  1  0  0  0  0
  9 34  1  6  0  0  0
 10 11  2  0  0  0  0
 10 12  1  0  0  0  0
 12 13  1  0  0  0  0
 12 39  1  0  0  0  0
 13 14  1  0  0  0  0
 13 40  1  0  0  0  0
 13 41  1  0  0  0  0
 14 15  1  0  0  0  0
 14 42  1  0  0  0  0
 14 43  1  0  0  0  0
 15 16  1  0  0  0  0
 15 44  1  0  0  0  0
 15 45  1  0  0  0  0
 16 17  1  0  0  0  0
 16 46  1  0  0  0  0
 16 47  1  0  0  0  0
 17 18  1  0  0  0  0
 17 48  1  0  0  0  0
 17 49  1  0  0  0  0
 18 19  1  0  0  0  0
 18 50  1  0  0  0  0
 18 51  1  0  0  0  0
 19 26  1  0  0  0  0
 19 28  1  0  0  0  0
 20 21  1  0  0  0  0
 20 52  1  0  0  0  0
 20 53  1  0  0  0  0
 21 22  1  0  0  0  0
 21 23  1  0  0  0  0
 21 54  1  0  0  0  0
 22 55  1  0  0  0  0
 22 56  1  0  0  0  0
 22 57  1  0  0  0  0
 23 58  1  0  0  0  0
 23 59  1  0  0  0  0
 23 60  1  0  0  0  0
 24 25  1  0  0  0  0
 24 61  1  0  0  0  0
 24 62  1  0  0  0  0
 25 26  2  0  0  0  0
 25 27  1  0  0  0  0
 26 63  1  0  0  0  0
 27 28  2  0  0  0  0
 27 29  1  0  0  0  0
 28 30  1  0  0  0  0
 29 31  2  0  0  0  0
 29 64  1  0  0  0  0
 30 32  2  0  0  0  0
 30 65  1  0  0  0  0
 31 32  1  0  0  0  0
 31 66  1  0  0  0  0
 32 67  1  0  0  0  0
M  END
>  <DRUGBANK_ID>
DB08493

>  <COMMON_NAME>
5-METHYL-3-(9-OXO-1,8-DIAZA-TRICYCLO[10.6.1.013,18]NONADECA-12(19),13,15,17-TETRAEN-10-YLCARBAMOYL)-HEXANOIC ACID

$$$$
