
 OpenBabel10282417072D

 22 23  0  0  0  0  0  0  0  0999 V2000
    0.0000    0.4677    0.0000 C   0  0  0  0  0  0  0  0  0  0  0  0
    0.7145    0.0552    0.0000 C   0  0  0  0  0  0  0  0  0  0  0  0
    0.7145   -0.7697    0.0000 C   0  0  0  0  0  0  0  0  0  0  0  0
    0.0000   -1.1822    0.0000 C   0  0  0  0  0  0  0  0  0  0  0  0
   -1.4288   -1.1822    0.0000 C   0  0  0  0  0  0  0  0  0  0  0  0
   -2.1433   -0.7697    0.0000 C   0  0  0  0  0  0  0  0  0  0  0  0
   -2.1433    0.0552    0.0000 C   0  0  0  0  0  0  0  0  0  0  0  0
   -1.4288    0.4677    0.0000 C   0  0  0  0  0  0  0  0  0  0  0  0
   -0.7143    0.0552    0.0000 C   0  0  0  0  0  0  0  0  0  0  0  0
   -0.7143   -0.7697    0.0000 C   0  0  0  0  0  0  0  0  0  0  0  0
    1.4290    0.4677    0.0000 S   0  0  0  0  0  0  0  0  0  0  0  0
    1.0165    1.1822    0.0000 O   0  0  0  0  0  0  0  0  0  0  0  0
    1.8415   -0.2466    0.0000 O   0  0  0  0  0  0  0  0  0  0  0  0
    2.1433    0.8802    0.0000 O   0  0  0  0  0  0  0  0  0  0  0  0
   -0.0001    1.4997    0.0000 H   0  0  0  0  0  0  0  0  0  0  0  0
    1.6082   -1.2857    0.0000 H   0  0  0  0  0  0  0  0  0  0  0  0
   -0.0001   -2.2142    0.0000 H   0  0  0  0  0  0  0  0  0  0  0  0
   -1.4288   -2.2142    0.0000 H   0  0  0  0  0  0  0  0  0  0  0  0
   -3.0370   -1.2857    0.0000 H   0  0  0  0  0  0  0  0  0  0  0  0
   -3.0370    0.5712    0.0000 H   0  0  0  0  0  0  0  0  0  0  0  0
   -1.4288    1.4997    0.0000 H   0  0  0  0  0  0  0  0  0  0  0  0
    2.9834    0.3953    0.0000 H   0  0  0  0  0  0  0  0  0  0  0  0
  1  9  1  0  0  0  0
  1 15  1  0  0  0  0
  2  1  2  0  0  0  0
  3  4  2  0  0  0  0
  3  2  1  0  0  0  0
  3 16  1  0  0  0  0
  4 10  1  0  0  0  0
  4 17  1  0  0  0  0
  5 10  2  0  0  0  0
  5 18  1  0  0  0  0
  6  5  1  0  0  0  0
  6 19  1  0  0  0  0
  7  8  1  0  0  0  0
  7  6  2  0  0  0  0
  7 20  1  0  0  0  0
  8  9  2  0  0  0  0
  8 21  1  0  0  0  0
 10  9  1  0  0  0  0
 11  2  1  0  0  0  0
 12 11  2  0  0  0  0
 13 11  2  0  0  0  0
 14 11  1  0  0  0  0
 14 22  1  0  0  0  0
M  END
>  <DRUGBANK_ID>
DB08254

>  <COMMON_NAME>
2-Naphthalenesulfonic acid

>  <CAS_NUMBER>
120-18-3

>  <UNII>
O9S4K2S25E

>  <SYNONYMS>
beta-Naphthalenesulfonic acid; beta-Naphthylsulfonic acid; Naphthalene-2-sulfonic acid; β-naphthalenesulfonic acid; β-naphthylsulfonic acid

$$$$
