1PL
 OpenBabel10282417072D

 39 41  0  0  0  0  0  0  0  0999 V2000
    0.4200   -1.1401    0.0000 C   0  0  0  0  0  0  0  0  0  0  0  0
   -0.0649   -0.4726    0.0000 C   0  0  1  0  0  0  0  0  0  0  0  0
   -0.8899   -0.4726    0.0000 C   0  0  0  0  0  0  0  0  0  0  0  0
   -1.1448    0.3120    0.0000 C   0  0  0  0  0  0  0  0  0  0  0  0
   -0.4774    0.7969    0.0000 C   0  0  1  0  0  0  0  0  0  0  0  0
    0.1900    0.3120    0.0000 C   0  0  1  0  0  0  0  0  0  0  0  0
    0.4450   -0.4726    0.0000 C   0  0  0  0  0  0  0  0  0  0  0  0
    1.2700   -0.4726    0.0000 C   0  0  0  0  0  0  0  0  0  0  0  0
    2.0769   -0.6441    0.0000 C   0  0  0  0  0  0  0  0  0  0  0  0
    1.1837   -1.2931    0.0000 C   0  0  0  0  0  0  0  0  0  0  0  0
    1.5249    0.3120    0.0000 C   0  0  0  0  0  0  0  0  0  0  0  0
    0.8575    0.7969    0.0000 C   0  0  2  0  0  0  0  0  0  0  0  0
    0.6025    1.5816    0.0000 C   0  0  0  0  0  0  0  0  0  0  0  0
   -0.2225    1.5816    0.0000 C   0  0  0  0  0  0  0  0  0  0  0  0
   -0.7074    2.2490    0.0000 C   0  0  0  0  0  0  0  0  0  0  0  0
   -1.5279    2.1628    0.0000 O   0  0  0  0  0  0  0  0  0  0  0  0
   -0.3718    3.0027    0.0000 O   0  0  0  0  0  0  0  0  0  0  0  0
   -0.3300   -0.9929    0.0000 H   0  0  0  0  0  0  0  0  0  0  0  0
   -0.9498    1.1402    0.0000 H   0  0  0  0  0  0  0  0  0  0  0  0
    1.3299    1.1402    0.0000 H   0  0  0  0  0  0  0  0  0  0  0  0
   -0.0153   -2.1176    0.0000 H   0  0  0  0  0  0  0  0  0  0  0  0
    1.4841   -1.0283    0.0000 H   0  0  0  0  0  0  0  0  0  0  0  0
    1.0489   -2.0058    0.0000 H   0  0  0  0  0  0  0  0  0  0  0  0
   -1.5188   -1.3382    0.0000 H   0  0  0  0  0  0  0  0  0  0  0  0
   -1.9467   -0.3052    0.0000 H   0  0  0  0  0  0  0  0  0  0  0  0
   -2.1624    0.6427    0.0000 H   0  0  0  0  0  0  0  0  0  0  0  0
   -1.3122    1.3688    0.0000 H   0  0  0  0  0  0  0  0  0  0  0  0
   -0.1839   -1.3383    0.0000 H   0  0  0  0  0  0  0  0  0  0  0  0
    0.9308   -1.4260    0.0000 H   0  0  0  0  0  0  0  0  0  0  0  0
    2.4076   -1.6617    0.0000 H   0  0  0  0  0  0  0  0  0  0  0  0
    2.7929    0.1511    0.0000 H   0  0  0  0  0  0  0  0  0  0  0  0
    3.1235   -0.8666    0.0000 H   0  0  0  0  0  0  0  0  0  0  0  0
    0.2062   -1.7282    0.0000 H   0  0  0  0  0  0  0  0  0  0  0  0
    2.0493   -1.9221    0.0000 H   0  0  0  0  0  0  0  0  0  0  0  0
    1.0718   -2.3572    0.0000 H   0  0  0  0  0  0  0  0  0  0  0  0
    2.5425    0.6427    0.0000 H   0  0  0  0  0  0  0  0  0  0  0  0
    1.6923    1.3688    0.0000 H   0  0  0  0  0  0  0  0  0  0  0  0
    1.2091    2.4165    0.0000 H   0  0  0  0  0  0  0  0  0  0  0  0
   -2.0786    2.9209    0.0000 H   0  0  0  0  0  0  0  0  0  0  0  0
  1 21  1  0  0  0  0
  1 22  1  0  0  0  0
  1 23  1  0  0  0  0
  2  1  1  0  0  0  0
  2  3  1  0  0  0  0
  2  6  1  0  0  0  0
  2 18  1  6  0  0  0
  3  4  1  0  0  0  0
  3 24  1  0  0  0  0
  3 25  1  0  0  0  0
  4  5  1  0  0  0  0
  4 26  1  0  0  0  0
  4 27  1  0  0  0  0
  5 14  1  0  0  0  0
  5 19  1  1  0  0  0
  6  5  1  0  0  0  0
  6 12  1  0  0  0  0
  6  7  1  1  0  0  0
  7  8  1  0  0  0  0
  7 28  1  0  0  0  0
  7 29  1  0  0  0  0
  8 10  1  0  0  0  0
  8 11  1  0  0  0  0
  9  8  1  0  0  0  0
  9 30  1  0  0  0  0
  9 31  1  0  0  0  0
  9 32  1  0  0  0  0
 10 33  1  0  0  0  0
 10 34  1  0  0  0  0
 10 35  1  0  0  0  0
 11 36  1  0  0  0  0
 11 37  1  0  0  0  0
 12 11  1  0  0  0  0
 12 13  1  0  0  0  0
 12 20  1  6  0  0  0
 13 38  1  0  0  0  0
 14 13  2  0  0  0  0
 14 15  1  0  0  0  0
 15 16  1  0  0  0  0
 16 39  1  0  0  0  0
 17 15  2  0  0  0  0
M  END
>  <DRUGBANK_ID>
DB06903

>  <COMMON_NAME>
(1S,3aS,5aR,8aS)-1,7,7-trimethyl-1,2,3,3a,5a,6,7,8-octahydrocyclopenta[c]pentalene-4-carboxylic acid

$$$$
