
 OpenBabel10282417072D

 48 49  0  0  0  0  0  0  0  0999 V2000
    2.1435   -2.0625    0.0000 N   0  0  0  0  0  0  0  0  0  0  0  0
    2.8579   -1.6500    0.0000 C   0  0  0  0  0  0  0  0  0  0  0  0
    1.4290   -0.8249    0.0000 C   0  0  0  0  0  0  0  0  0  0  0  0
    2.1435   -0.4124    0.0000 C   0  0  0  0  0  0  0  0  0  0  0  0
    1.4290   -1.6500    0.0000 C   0  0  0  0  0  0  0  0  0  0  0  0
    0.7144   -2.0625    0.0000 C   0  0  0  0  0  0  0  0  0  0  0  0
    0.7144   -0.4124    0.0000 C   0  0  0  0  0  0  0  0  0  0  0  0
    0.0000   -1.6500    0.0000 C   0  0  0  0  0  0  0  0  0  0  0  0
    2.8579   -0.8249    0.0000 C   0  0  0  0  0  0  0  0  0  0  0  0
    0.0000   -0.8249    0.0000 C   0  0  0  0  0  0  0  0  0  0  0  0
   -0.7144   -2.0625    0.0000 Cl  0  0  0  0  0  0  0  0  0  0  0  0
    2.1435    0.4125    0.0000 N   0  0  0  0  0  0  0  0  0  0  0  0
   -1.4289    0.8250    0.0000 N   0  0  0  0  0  0  0  0  0  0  0  0
    1.4290    0.8250    0.0000 C   0  0  3  0  0  0  0  0  0  0  0  0
    0.0000    0.8250    0.0000 C   0  0  0  0  0  0  0  0  0  0  0  0
   -0.7144    0.4125    0.0000 C   0  0  0  0  0  0  0  0  0  0  0  0
   -1.4289    1.6501    0.0000 C   0  0  0  0  0  0  0  0  0  0  0  0
   -2.1434    0.4125    0.0000 C   0  0  0  0  0  0  0  0  0  0  0  0
    0.7145    0.4125    0.0000 C   0  0  0  0  0  0  0  0  0  0  0  0
    1.4290    1.6501    0.0000 C   0  0  0  0  0  0  0  0  0  0  0  0
   -2.1434    2.0625    0.0000 C   0  0  0  0  0  0  0  0  0  0  0  0
   -2.8579    0.8250    0.0000 C   0  0  0  0  0  0  0  0  0  0  0  0
    3.7516   -2.1660    0.0000 H   0  0  0  0  0  0  0  0  0  0  0  0
    0.7143   -3.0945    0.0000 H   0  0  0  0  0  0  0  0  0  0  0  0
    0.7143    0.6196    0.0000 H   0  0  0  0  0  0  0  0  0  0  0  0
    3.7516   -0.3089    0.0000 H   0  0  0  0  0  0  0  0  0  0  0  0
   -0.8937   -0.3089    0.0000 H   0  0  0  0  0  0  0  0  0  0  0  0
    2.9961    0.9048    0.0000 H   0  0  0  0  0  0  0  0  0  0  0  0
    1.4290   -0.2450    0.0000 H   0  0  0  0  0  0  0  0  0  0  0  0
   -0.0000    1.8950    0.0000 H   0  0  0  0  0  0  0  0  0  0  0  0
   -0.9267    1.3600    0.0000 H   0  0  0  0  0  0  0  0  0  0  0  0
   -0.7144   -0.6575    0.0000 H   0  0  0  0  0  0  0  0  0  0  0  0
    0.2123   -0.1225    0.0000 H   0  0  0  0  0  0  0  0  0  0  0  0
   -0.5023    2.1852    0.0000 H   0  0  0  0  0  0  0  0  0  0  0  0
   -1.4290    2.7201    0.0000 H   0  0  0  0  0  0  0  0  0  0  0  0
   -2.1434   -0.6575    0.0000 H   0  0  0  0  0  0  0  0  0  0  0  0
   -3.0700   -0.1225    0.0000 H   0  0  0  0  0  0  0  0  0  0  0  0
    0.7145   -0.6575    0.0000 H   0  0  0  0  0  0  0  0  0  0  0  0
   -0.2121   -0.1225    0.0000 H   0  0  0  0  0  0  0  0  0  0  0  0
    2.3556    2.1851    0.0000 H   0  0  0  0  0  0  0  0  0  0  0  0
    0.5024    2.1851    0.0000 H   0  0  0  0  0  0  0  0  0  0  0  0
    1.4290    2.7201    0.0000 H   0  0  0  0  0  0  0  0  0  0  0  0
   -2.1435    3.1325    0.0000 H   0  0  0  0  0  0  0  0  0  0  0  0
   -3.0700    1.5274    0.0000 H   0  0  0  0  0  0  0  0  0  0  0  0
   -3.0701    2.5974    0.0000 H   0  0  0  0  0  0  0  0  0  0  0  0
   -2.8579    1.8950    0.0000 H   0  0  0  0  0  0  0  0  0  0  0  0
   -3.7845    0.2900    0.0000 H   0  0  0  0  0  0  0  0  0  0  0  0
   -3.7846    1.3600    0.0000 H   0  0  0  0  0  0  0  0  0  0  0  0
  1  2  2  0  0  0  0
  2  9  1  0  0  0  0
  2 23  1  0  0  0  0
  3  4  1  0  0  0  0
  3  5  1  0  0  0  0
  3  7  2  0  0  0  0
  5  1  1  0  0  0  0
  6  5  2  0  0  0  0
  6 24  1  0  0  0  0
  7 10  1  0  0  0  0
  7 25  1  0  0  0  0
  8  6  1  0  0  0  0
  9  4  2  0  0  0  0
  9 26  1  0  0  0  0
 10  8  2  0  0  0  0
 10 27  1  0  0  0  0
 11  8  1  0  0  0  0
 12  4  1  0  0  0  0
 12 28  1  0  0  0  0
 14 12  1  0  0  0  0
 14 29  1  0  0  0  0
 15 30  1  0  0  0  0
 15 31  1  0  0  0  0
 16 13  1  0  0  0  0
 16 15  1  0  0  0  0
 16 32  1  0  0  0  0
 16 33  1  0  0  0  0
 17 13  1  0  0  0  0
 17 34  1  0  0  0  0
 17 35  1  0  0  0  0
 18 13  1  0  0  0  0
 18 36  1  0  0  0  0
 18 37  1  0  0  0  0
 19 14  1  0  0  0  0
 19 15  1  0  0  0  0
 19 38  1  0  0  0  0
 19 39  1  0  0  0  0
 20 14  1  0  0  0  0
 20 40  1  0  0  0  0
 20 41  1  0  0  0  0
 20 42  1  0  0  0  0
 21 17  1  0  0  0  0
 21 43  1  0  0  0  0
 21 44  1  0  0  0  0
 21 45  1  0  0  0  0
 22 18  1  0  0  0  0
 22 46  1  0  0  0  0
 22 47  1  0  0  0  0
 22 48  1  0  0  0  0
M  END
>  <DRUGBANK_ID>
DB00608

>  <SECONDARY_ACCESSION_NUMBERS>
APRD00468

>  <COMMON_NAME>
Chloroquine

>  <CAS_NUMBER>
54-05-7

>  <UNII>
886U3H6UFF

>  <SYNONYMS>
Chloraquine; Chlorochin; Chloroquina; Chloroquine; Chloroquinium; Chloroquinum; Cloroquina; N4-(7-chloro-4-quinolinyl)-N1,N1-diethyl-1,4-pentanediamine

$$$$
