
 OpenBabel10282417072D

 33 33  0  0  0  0  0  0  0  0999 V2000
   -0.7028    0.2059    0.0000 C   0  0  0  0  0  0  0  0  0  0  0  0
    0.0096    0.6131    0.0000 N   0  0  0  0  0  0  0  0  0  0  0  0
   -0.6979   -0.6083    0.0000 C   0  0  0  0  0  0  0  0  0  0  0  0
   -1.4251   -1.0155    0.0000 C   0  0  0  0  0  0  0  0  0  0  0  0
   -1.4154    0.6276    0.0000 C   0  0  0  0  0  0  0  0  0  0  0  0
    0.7076    0.2399    0.0000 C   0  0  0  0  0  0  0  0  0  0  0  0
   -2.1377   -0.6228    0.0000 C   0  0  0  0  0  0  0  0  0  0  0  0
    1.4251    0.6471    0.0000 C   0  0  3  0  0  0  0  0  0  0  0  0
   -2.1377    0.2108    0.0000 C   0  0  0  0  0  0  0  0  0  0  0  0
    0.0096    1.4565    0.0000 C   0  0  0  0  0  0  0  0  0  0  0  0
    2.1327    0.2496    0.0000 C   0  0  0  0  0  0  0  0  0  0  0  0
    0.0145   -1.0301    0.0000 I   0  0  0  0  0  0  0  0  0  0  0  0
   -0.7126    1.8492    0.0000 O   0  0  0  0  0  0  0  0  0  0  0  0
    2.1522   -0.5889    0.0000 O   0  0  0  0  0  0  0  0  0  0  0  0
   -1.4542   -1.8686    0.0000 N   0  0  0  0  0  0  0  0  0  0  0  0
   -1.4300    1.4565    0.0000 I   0  0  0  0  0  0  0  0  0  0  0  0
   -2.8502   -1.0446    0.0000 I   0  0  0  0  0  0  0  0  0  0  0  0
    2.8502    0.6616    0.0000 O   0  0  0  0  0  0  0  0  0  0  0  0
    1.4251    1.4565    0.0000 C   0  0  0  0  0  0  0  0  0  0  0  0
    0.7222    1.8686    0.0000 C   0  0  0  0  0  0  0  0  0  0  0  0
    0.7211   -0.8300    0.0000 H   0  0  0  0  0  0  0  0  0  0  0  0
    1.6356   -0.2927    0.0000 H   0  0  0  0  0  0  0  0  0  0  0  0
    1.4274   -0.4229    0.0000 H   0  0  0  0  0  0  0  0  0  0  0  0
   -3.0314    0.7269    0.0000 H   0  0  0  0  0  0  0  0  0  0  0  0
   -2.3231   -2.3315    0.0000 H   0  0  0  0  0  0  0  0  0  0  0  0
   -0.6189   -2.3896    0.0000 H   0  0  0  0  0  0  0  0  0  0  0  0
    3.6606    0.1912    0.0000 H   0  0  0  0  0  0  0  0  0  0  0  0
    2.3517    1.9915    0.0000 H   0  0  0  0  0  0  0  0  0  0  0  0
    0.4985    1.9915    0.0000 H   0  0  0  0  0  0  0  0  0  0  0  0
    1.4251    2.5265    0.0000 H   0  0  0  0  0  0  0  0  0  0  0  0
    1.6492    1.3343    0.0000 H   0  0  0  0  0  0  0  0  0  0  0  0
    0.7214    2.9386    0.0000 H   0  0  0  0  0  0  0  0  0  0  0  0
    1.6485    2.4043    0.0000 H   0  0  0  0  0  0  0  0  0  0  0  0
  2  1  1  0  0  0  0
  3  1  1  0  0  0  0
  4  3  2  0  0  0  0
  5  1  2  0  0  0  0
  6  2  1  0  0  0  0
  6 21  1  0  0  0  0
  6 22  1  0  0  0  0
  7  9  2  0  0  0  0
  7  4  1  0  0  0  0
  8  6  1  0  0  0  0
  8 23  1  0  0  0  0
  9  5  1  0  0  0  0
  9 24  1  0  0  0  0
 10  2  1  0  0  0  0
 11  8  1  0  0  0  0
 12  3  1  0  0  0  0
 13 10  2  0  0  0  0
 14 11  2  0  0  0  0
 15  4  1  0  0  0  0
 15 25  1  0  0  0  0
 15 26  1  0  0  0  0
 16  5  1  0  0  0  0
 17  7  1  0  0  0  0
 18 11  1  0  0  0  0
 18 27  1  0  0  0  0
 19  8  1  0  0  0  0
 19 28  1  0  0  0  0
 19 29  1  0  0  0  0
 19 30  1  0  0  0  0
 20 10  1  0  0  0  0
 20 31  1  0  0  0  0
 20 32  1  0  0  0  0
 20 33  1  0  0  0  0
M  END
>  <DRUGBANK_ID>
DB09403

>  <COMMON_NAME>
Iocetamic acid

>  <CAS_NUMBER>
16034-77-8

>  <UNII>
FA675Q0E3E

>  <SYNONYMS>
Acido iocetamico; Acidum iocetamicum; Iocetamic acid

$$$$
