
 OpenBabel10282417072D

 23 22  0  0  1  0  0  0  0  0999 V2000
    0.4125    3.5724    0.0000 C   0  0  0  0  0  0  0  0  0  0  0  0
    0.8250    2.8579    0.0000 S   0  3  1  0  0  0  0  0  0  0  0  0
    0.1105    2.4454    0.0000 O   0  5  0  0  0  0  0  0  0  0  0  0
    1.5395    3.2704    0.0000 N   0  0  0  0  0  0  0  0  0  0  0  0
    1.2375    2.1434    0.0000 C   0  0  0  0  0  0  0  0  0  0  0  0
    0.8250    1.4289    0.0000 C   0  0  0  0  0  0  0  0  0  0  0  0
    1.2375    0.7145    0.0000 C   0  0  2  0  0  0  0  0  0  0  0  0
    2.0625    0.7145    0.0000 N   0  0  0  0  0  0  0  0  0  0  0  0
    0.8250    0.0000    0.0000 C   0  0  0  0  0  0  0  0  0  0  0  0
    1.2375   -0.7145    0.0000 O   0  0  0  0  0  0  0  0  0  0  0  0
    0.0000    0.0000    0.0000 O   0  0  0  0  0  0  0  0  0  0  0  0
    0.9475    4.4990    0.0000 H   0  0  0  0  0  0  0  0  0  0  0  0
   -0.6575    3.5724    0.0000 H   0  0  0  0  0  0  0  0  0  0  0  0
   -0.1225    4.4991    0.0000 H   0  0  0  0  0  0  0  0  0  0  0  0
    2.3921    2.7781    0.0000 H   0  0  0  0  0  0  0  0  0  0  0  0
    2.3075    2.1434    0.0000 H   0  0  0  0  0  0  0  0  0  0  0  0
    1.7725    1.2168    0.0000 H   0  0  0  0  0  0  0  0  0  0  0  0
   -0.2450    1.4289    0.0000 H   0  0  0  0  0  0  0  0  0  0  0  0
    0.2900    0.5022    0.0000 H   0  0  0  0  0  0  0  0  0  0  0  0
    1.7725    1.6412    0.0000 H   0  0  0  0  0  0  0  0  0  0  0  0
    2.5725   -0.1688    0.0000 H   0  0  0  0  0  0  0  0  0  0  0  0
    2.5725    1.5978    0.0000 H   0  0  0  0  0  0  0  0  0  0  0  0
    0.7690   -1.5260    0.0000 H   0  0  0  0  0  0  0  0  0  0  0  0
  1 12  1  0  0  0  0
  1 13  1  0  0  0  0
  1 14  1  0  0  0  0
  2  1  1  0  0  0  0
  2  3  1  6  0  0  0
  2  4  2  0  0  0  0
  2  5  1  0  0  0  0
  4 15  1  0  0  0  0
  5  6  1  0  0  0  0
  5 16  1  0  0  0  0
  5 17  1  0  0  0  0
  6 18  1  0  0  0  0
  6 19  1  0  0  0  0
  7  6  1  0  0  0  0
  7  8  1  0  0  0  0
  7  9  1  0  0  0  0
  7 20  1  1  0  0  0
  8 21  1  0  0  0  0
  8 22  1  0  0  0  0
  9 10  1  0  0  0  0
  9 11  2  0  0  0  0
 10 23  1  0  0  0  0
M  CHG  2   2   1   3  -1
M  END
>  <DRUGBANK_ID>
DB18529

>  <COMMON_NAME>
Methionine sulfoximine, (S)-

>  <CAS_NUMBER>
21752-32-9

>  <UNII>
DE3D2PZ3TT

>  <SYNONYMS>
(2s)-2-amino-4-((s(s))-s-methylsulfonimidoyl)butanoic acid; Butanoic acid, 2-amino-4-((s(s))-s-methylsulfonimidoyl)-, (2s)-; L-methionine-(s)-sulfoximine; L-S-(3-Amino-3-carboxypropyl)-S-methylsulfoximine

$$$$
