
 OpenBabel10282417072D

 44 45  0  0  1  0  0  0  0  0999 V2000
    2.9459    0.3816    0.0000 N   0  0  0  0  0  0  0  0  0  0  0  0
    2.1587    0.1237    0.0000 C   0  0  2  0  0  0  0  0  0  0  0  0
    3.5646   -0.1685    0.0000 C   0  0  0  0  0  0  0  0  0  0  0  0
    3.1177    1.1893    0.0000 C   0  0  0  0  0  0  0  0  0  0  0  0
    1.5159    0.5947    0.0000 O   0  0  0  0  0  0  0  0  0  0  0  0
    1.9146   -0.6840    0.0000 C   0  0  0  0  0  0  0  0  0  0  0  0
    4.3517    0.0928    0.0000 N   0  0  0  0  0  0  0  0  0  0  0  0
    3.3996   -0.9728    0.0000 O   0  0  0  0  0  0  0  0  0  0  0  0
    3.8980    1.4506    0.0000 C   0  0  0  0  0  0  0  0  0  0  0  0
    0.8421    0.1031    0.0000 C   0  0  1  0  0  0  0  0  0  0  0  0
    1.0897   -0.6840    0.0000 C   0  0  1  0  0  0  0  0  0  0  0  0
    4.5202    0.9006    0.0000 C   0  0  0  0  0  0  0  0  0  0  0  0
    0.0550    0.3575    0.0000 C   0  0  0  0  0  0  0  0  0  0  0  0
    0.6015   -1.3441    0.0000 O   0  0  0  0  0  0  0  0  0  0  0  0
    5.3039    1.1584    0.0000 N   0  0  0  0  0  0  0  0  0  0  0  0
   -0.5535   -0.1960    0.0000 O   0  0  0  0  0  0  0  0  0  0  0  0
   -1.3750   -0.1960    0.0000 P   0  0  3  0  0  0  0  0  0  0  0  0
   -2.1965   -0.1960    0.0000 O   0  0  0  0  0  0  0  0  0  0  0  0
   -1.3784   -1.0175    0.0000 O   0  0  0  0  0  0  0  0  0  0  0  0
   -1.3784    0.6256    0.0000 O   0  0  0  0  0  0  0  0  0  0  0  0
   -3.0181   -0.1925    0.0000 P   0  0  3  0  0  0  0  0  0  0  0  0
   -3.8431   -0.1925    0.0000 O   0  0  0  0  0  0  0  0  0  0  0  0
   -3.0249   -1.0140    0.0000 O   0  0  0  0  0  0  0  0  0  0  0  0
   -3.0249    0.6290    0.0000 O   0  0  0  0  0  0  0  0  0  0  0  0
   -4.6646   -0.1891    0.0000 P   0  0  0  0  0  0  0  0  0  0  0  0
   -4.6680   -1.0106    0.0000 O   0  0  0  0  0  0  0  0  0  0  0  0
   -5.4862   -0.1822    0.0000 O   0  0  0  0  0  0  0  0  0  0  0  0
   -4.6680    0.6359    0.0000 O   0  0  0  0  0  0  0  0  0  0  0  0
    2.3269    1.1804    0.0000 H   0  0  0  0  0  0  0  0  0  0  0  0
    2.3477    1.8764    0.0000 H   0  0  0  0  0  0  0  0  0  0  0  0
    2.5524   -1.5431    0.0000 H   0  0  0  0  0  0  0  0  0  0  0  0
    1.4338   -1.6399    0.0000 H   0  0  0  0  0  0  0  0  0  0  0  0
    4.1034    2.4620    0.0000 H   0  0  0  0  0  0  0  0  0  0  0  0
    0.6728    1.1596    0.0000 H   0  0  0  0  0  0  0  0  0  0  0  0
    1.5714   -1.6394    0.0000 H   0  0  0  0  0  0  0  0  0  0  0  0
   -0.1709    1.4034    0.0000 H   0  0  0  0  0  0  0  0  0  0  0  0
   -0.9640    0.6839    0.0000 H   0  0  0  0  0  0  0  0  0  0  0  0
   -0.3623   -1.2345    0.0000 H   0  0  0  0  0  0  0  0  0  0  0  0
    6.0379    0.5023    0.0000 H   0  0  0  0  0  0  0  0  0  0  0  0
    5.5051    2.1221    0.0000 H   0  0  0  0  0  0  0  0  0  0  0  0
   -2.2204   -1.4990    0.0000 H   0  0  0  0  0  0  0  0  0  0  0  0
   -3.8689   -1.4920    0.0000 H   0  0  0  0  0  0  0  0  0  0  0  0
   -5.5100   -1.4921    0.0000 H   0  0  0  0  0  0  0  0  0  0  0  0
   -5.9641    0.6619    0.0000 H   0  0  0  0  0  0  0  0  0  0  0  0
  1  3  1  0  0  0  0
  1  4  1  0  0  0  0
  2  1  1  0  0  0  0
  2  5  1  0  0  0  0
  2  6  1  0  0  0  0
  2 29  1  6  0  0  0
  3  7  1  0  0  0  0
  3  8  2  0  0  0  0
  4  9  2  0  0  0  0
  4 30  1  0  0  0  0
  5 10  1  0  0  0  0
  6 11  1  0  0  0  0
  6 31  1  0  0  0  0
  6 32  1  0  0  0  0
  7 12  2  0  0  0  0
  9 12  1  0  0  0  0
  9 33  1  0  0  0  0
 10 13  1  0  0  0  0
 10 11  1  0  0  0  0
 10 34  1  6  0  0  0
 11 14  1  0  0  0  0
 11 35  1  1  0  0  0
 12 15  1  0  0  0  0
 13 16  1  0  0  0  0
 13 36  1  0  0  0  0
 13 37  1  0  0  0  0
 14 38  1  0  0  0  0
 15 39  1  0  0  0  0
 15 40  1  0  0  0  0
 16 17  1  0  0  0  0
 17 18  1  0  0  0  0
 17 19  1  0  0  0  0
 17 20  2  0  0  0  0
 18 21  1  0  0  0  0
 19 41  1  0  0  0  0
 21 22  1  0  0  0  0
 21 23  1  0  0  0  0
 21 24  2  0  0  0  0
 22 25  1  0  0  0  0
 23 42  1  0  0  0  0
 25 26  1  0  0  0  0
 25 27  1  0  0  0  0
 25 28  2  0  0  0  0
 26 43  1  0  0  0  0
 27 44  1  0  0  0  0
M  END
>  <DRUGBANK_ID>
DB03258

>  <SECONDARY_ACCESSION_NUMBERS>
EXPT01137

>  <COMMON_NAME>
2'-Deoxycytidine 5'-triphosphate

>  <CAS_NUMBER>
2056-98-6

>  <SYNONYMS>
2'-Deoxycytidine-5'-Triphosphate; dCTP; Deoxycytidine 5'-triphosphate; Deoxycytidine triphosphate

$$$$
