
 OpenBabel10282417072D

 95 95  0  0  0  0  0  0  0  0999 V2000
   -1.7861    1.2374    0.0000 C   0  0  0  0  0  0  0  0  0  0  0  0
   -1.7861    0.4124    0.0000 C   0  0  0  0  0  0  0  0  0  0  0  0
   -2.5007    1.6500    0.0000 C   0  0  0  0  0  0  0  0  0  0  0  0
   -2.5007    0.0000    0.0000 C   0  0  0  0  0  0  0  0  0  0  0  0
   -3.2151    1.2374    0.0000 C   0  0  0  0  0  0  0  0  0  0  0  0
   -3.2151    0.4124    0.0000 C   0  0  0  0  0  0  0  0  0  0  0  0
    1.0717    1.2374    0.0000 C   0  0  0  0  0  0  0  0  0  0  0  0
    0.3572    1.6500    0.0000 C   0  0  0  0  0  0  0  0  0  0  0  0
   -0.3572    1.2374    0.0000 O   0  0  0  0  0  0  0  0  0  0  0  0
    1.7861    1.6499    0.0000 O   0  0  0  0  0  0  0  0  0  0  0  0
    2.5006    1.2373    0.0000 C   0  0  0  0  0  0  0  0  0  0  0  0
    3.9296    1.2373    0.0000 O   0  0  0  0  0  0  0  0  0  0  0  0
    3.2151    1.6499    0.0000 C   0  0  0  0  0  0  0  0  0  0  0  0
    5.3586    1.2373    0.0000 C   0  0  0  0  0  0  0  0  0  0  0  0
    4.6440    1.6499    0.0000 C   0  0  0  0  0  0  0  0  0  0  0  0
   -1.0716    1.6500    0.0000 C   0  0  0  0  0  0  0  0  0  0  0  0
   -1.0717    2.4749    0.0000 O   0  0  0  0  0  0  0  0  0  0  0  0
   -3.9296    0.0000    0.0000 N   0  0  0  0  0  0  0  0  0  0  0  0
   -0.3570   -1.2378    0.0000 C   0  0  0  0  0  0  0  0  0  0  0  0
   -1.0716   -0.8254    0.0000 C   0  0  0  0  0  0  0  0  0  0  0  0
    0.3573   -0.8254    0.0000 O   0  0  0  0  0  0  0  0  0  0  0  0
    1.0717   -1.2378    0.0000 C   0  0  0  0  0  0  0  0  0  0  0  0
    2.5007   -1.2378    0.0000 O   0  0  0  0  0  0  0  0  0  0  0  0
    1.7862   -0.8254    0.0000 C   0  0  0  0  0  0  0  0  0  0  0  0
    4.6441   -0.0001    0.0000 C   0  0  0  0  0  0  0  0  0  0  0  0
    3.2151   -0.0004    0.0000 O   0  0  0  0  0  0  0  0  0  0  0  0
    3.9296    0.4122    0.0000 C   0  0  0  0  0  0  0  0  0  0  0  0
    2.5007    0.4119    0.0000 C   0  0  0  0  0  0  0  0  0  0  0  0
    1.7863   -0.0005    0.0000 C   0  0  0  0  0  0  0  0  0  0  0  0
    1.0715    0.4121    0.0000 O   0  0  0  0  0  0  0  0  0  0  0  0
    0.3571   -0.0005    0.0000 C   0  0  0  0  0  0  0  0  0  0  0  0
   -0.3571    0.4117    0.0000 C   0  0  0  0  0  0  0  0  0  0  0  0
   -1.0714   -0.0006    0.0000 O   0  0  0  0  0  0  0  0  0  0  0  0
    5.3585    0.4123    0.0000 O   0  0  0  0  0  0  0  0  0  0  0  0
    3.2152   -0.8252    0.0000 C   0  0  0  0  0  0  0  0  0  0  0  0
    3.9297   -1.2378    0.0000 C   0  0  0  0  0  0  0  0  0  0  0  0
    4.6442   -0.8252    0.0000 O   0  0  0  0  0  0  0  0  0  0  0  0
    5.3586   -1.2376    0.0000 C   0  0  0  0  0  0  0  0  0  0  0  0
   -3.9296   -0.8250    0.0000 C   0  0  0  0  0  0  0  0  0  0  0  0
   -4.6441   -1.2375    0.0000 C   0  0  0  0  0  0  0  0  0  0  0  0
   -4.6441   -2.0624    0.0000 C   0  0  0  0  0  0  0  0  0  0  0  0
   -5.3586   -2.4749    0.0000 C   0  0  0  0  0  0  0  0  0  0  0  0
   -0.8924   -0.1037    0.0000 H   0  0  0  0  0  0  0  0  0  0  0  0
   -2.5008    2.6820    0.0000 H   0  0  0  0  0  0  0  0  0  0  0  0
   -2.5008   -1.0320    0.0000 H   0  0  0  0  0  0  0  0  0  0  0  0
   -4.1089    1.7533    0.0000 H   0  0  0  0  0  0  0  0  0  0  0  0
    1.0717    0.1674    0.0000 H   0  0  0  0  0  0  0  0  0  0  0  0
    1.9984    0.7024    0.0000 H   0  0  0  0  0  0  0  0  0  0  0  0
    0.3572    2.7200    0.0000 H   0  0  0  0  0  0  0  0  0  0  0  0
   -0.5695    2.1849    0.0000 H   0  0  0  0  0  0  0  0  0  0  0  0
    2.5006    0.1673    0.0000 H   0  0  0  0  0  0  0  0  0  0  0  0
    3.4273    0.7023    0.0000 H   0  0  0  0  0  0  0  0  0  0  0  0
    3.2151    2.7199    0.0000 H   0  0  0  0  0  0  0  0  0  0  0  0
    2.2884    2.1849    0.0000 H   0  0  0  0  0  0  0  0  0  0  0  0
    6.2853    1.7722    0.0000 H   0  0  0  0  0  0  0  0  0  0  0  0
    6.2852    0.7022    0.0000 H   0  0  0  0  0  0  0  0  0  0  0  0
    4.6439    2.7199    0.0000 H   0  0  0  0  0  0  0  0  0  0  0  0
    3.7173    2.1848    0.0000 H   0  0  0  0  0  0  0  0  0  0  0  0
   -4.7822    0.4923    0.0000 H   0  0  0  0  0  0  0  0  0  0  0  0
   -0.3569   -2.3078    0.0000 H   0  0  0  0  0  0  0  0  0  0  0  0
   -1.2836   -1.7729    0.0000 H   0  0  0  0  0  0  0  0  0  0  0  0
   -1.9983   -1.3604    0.0000 H   0  0  0  0  0  0  0  0  0  0  0  0
   -1.9982   -0.2903    0.0000 H   0  0  0  0  0  0  0  0  0  0  0  0
    1.0717   -2.3078    0.0000 H   0  0  0  0  0  0  0  0  0  0  0  0
    0.1451   -1.7728    0.0000 H   0  0  0  0  0  0  0  0  0  0  0  0
    1.7862    0.2446    0.0000 H   0  0  0  0  0  0  0  0  0  0  0  0
    0.8596   -0.2903    0.0000 H   0  0  0  0  0  0  0  0  0  0  0  0
    4.6442   -1.0701    0.0000 H   0  0  0  0  0  0  0  0  0  0  0  0
    5.5708   -0.5351    0.0000 H   0  0  0  0  0  0  0  0  0  0  0  0
    3.9294    1.4822    0.0000 H   0  0  0  0  0  0  0  0  0  0  0  0
    3.0029    0.9471    0.0000 H   0  0  0  0  0  0  0  0  0  0  0  0
    2.5006    1.4819    0.0000 H   0  0  0  0  0  0  0  0  0  0  0  0
    1.5741    0.9469    0.0000 H   0  0  0  0  0  0  0  0  0  0  0  0
    1.7863   -1.0705    0.0000 H   0  0  0  0  0  0  0  0  0  0  0  0
    0.8597   -0.5356    0.0000 H   0  0  0  0  0  0  0  0  0  0  0  0
    0.3573   -1.0705    0.0000 H   0  0  0  0  0  0  0  0  0  0  0  0
   -0.5695   -0.5356    0.0000 H   0  0  0  0  0  0  0  0  0  0  0  0
   -0.3571    1.4817    0.0000 H   0  0  0  0  0  0  0  0  0  0  0  0
   -1.2837    0.9467    0.0000 H   0  0  0  0  0  0  0  0  0  0  0  0
    3.2152    0.2448    0.0000 H   0  0  0  0  0  0  0  0  0  0  0  0
    4.1419   -0.2902    0.0000 H   0  0  0  0  0  0  0  0  0  0  0  0
    3.9297   -2.3078    0.0000 H   0  0  0  0  0  0  0  0  0  0  0  0
    4.8564   -1.7728    0.0000 H   0  0  0  0  0  0  0  0  0  0  0  0
    5.3587   -2.3076    0.0000 H   0  0  0  0  0  0  0  0  0  0  0  0
    6.2852   -0.7025    0.0000 H   0  0  0  0  0  0  0  0  0  0  0  0
    6.2853   -1.7725    0.0000 H   0  0  0  0  0  0  0  0  0  0  0  0
   -3.0030   -1.3600    0.0000 H   0  0  0  0  0  0  0  0  0  0  0  0
   -3.9296   -1.8950    0.0000 H   0  0  0  0  0  0  0  0  0  0  0  0
   -5.5707   -0.7025    0.0000 H   0  0  0  0  0  0  0  0  0  0  0  0
   -5.5707   -1.7725    0.0000 H   0  0  0  0  0  0  0  0  0  0  0  0
   -3.7175   -2.5974    0.0000 H   0  0  0  0  0  0  0  0  0  0  0  0
   -4.6441   -3.1324    0.0000 H   0  0  0  0  0  0  0  0  0  0  0  0
   -6.2852   -1.9399    0.0000 H   0  0  0  0  0  0  0  0  0  0  0  0
   -5.3586   -3.5449    0.0000 H   0  0  0  0  0  0  0  0  0  0  0  0
   -6.2853   -3.0099    0.0000 H   0  0  0  0  0  0  0  0  0  0  0  0
  2  1  1  0  0  0  0
  2 43  1  0  0  0  0
  3  1  2  0  0  0  0
  3 44  1  0  0  0  0
  4  2  2  0  0  0  0
  4 45  1  0  0  0  0
  5  3  1  0  0  0  0
  5 46  1  0  0  0  0
  6  4  1  0  0  0  0
  6  5  2  0  0  0  0
  6 18  1  0  0  0  0
  7 47  1  0  0  0  0
  7 48  1  0  0  0  0
  8  7  1  0  0  0  0
  8 49  1  0  0  0  0
  8 50  1  0  0  0  0
  9  8  1  0  0  0  0
  9 16  1  0  0  0  0
 10  7  1  0  0  0  0
 11 10  1  0  0  0  0
 11 13  1  0  0  0  0
 11 51  1  0  0  0  0
 11 52  1  0  0  0  0
 12 15  1  0  0  0  0
 13 12  1  0  0  0  0
 13 53  1  0  0  0  0
 13 54  1  0  0  0  0
 14 34  1  0  0  0  0
 14 55  1  0  0  0  0
 14 56  1  0  0  0  0
 15 14  1  0  0  0  0
 15 57  1  0  0  0  0
 15 58  1  0  0  0  0
 16 17  2  0  0  0  0
 16  1  1  0  0  0  0
 18 39  1  0  0  0  0
 18 59  1  0  0  0  0
 19 21  1  0  0  0  0
 19 60  1  0  0  0  0
 19 61  1  0  0  0  0
 20 19  1  0  0  0  0
 20 62  1  0  0  0  0
 20 63  1  0  0  0  0
 21 22  1  0  0  0  0
 22 24  1  0  0  0  0
 22 64  1  0  0  0  0
 22 65  1  0  0  0  0
 23 35  1  0  0  0  0
 24 23  1  0  0  0  0
 24 66  1  0  0  0  0
 24 67  1  0  0  0  0
 25 34  1  0  0  0  0
 25 68  1  0  0  0  0
 25 69  1  0  0  0  0
 27 25  1  0  0  0  0
 27 26  1  0  0  0  0
 27 70  1  0  0  0  0
 27 71  1  0  0  0  0
 28 26  1  0  0  0  0
 28 72  1  0  0  0  0
 28 73  1  0  0  0  0
 29 28  1  0  0  0  0
 29 74  1  0  0  0  0
 29 75  1  0  0  0  0
 30 29  1  0  0  0  0
 31 30  1  0  0  0  0
 31 76  1  0  0  0  0
 31 77  1  0  0  0  0
 32 31  1  0  0  0  0
 32 78  1  0  0  0  0
 32 79  1  0  0  0  0
 33 32  1  0  0  0  0
 33 20  1  0  0  0  0
 35 36  1  0  0  0  0
 35 80  1  0  0  0  0
 35 81  1  0  0  0  0
 36 37  1  0  0  0  0
 36 82  1  0  0  0  0
 36 83  1  0  0  0  0
 37 38  1  0  0  0  0
 38 84  1  0  0  0  0
 38 85  1  0  0  0  0
 38 86  1  0  0  0  0
 39 40  1  0  0  0  0
 39 87  1  0  0  0  0
 39 88  1  0  0  0  0
 40 41  1  0  0  0  0
 40 89  1  0  0  0  0
 40 90  1  0  0  0  0
 41 42  1  0  0  0  0
 41 91  1  0  0  0  0
 41 92  1  0  0  0  0
 42 93  1  0  0  0  0
 42 94  1  0  0  0  0
 42 95  1  0  0  0  0
M  END
>  <DRUGBANK_ID>
DB00868

>  <SECONDARY_ACCESSION_NUMBERS>
APRD00629

>  <COMMON_NAME>
Benzonatate

>  <CAS_NUMBER>
104-31-4

>  <UNII>
5P4DHS6ENR

>  <SYNONYMS>
2-[2-[2-[2-[2-[2-[2-[2-(2-methoxyethoxy)ethoxy]ethoxy]ethoxy]ethoxy]ethoxy]ethoxy]ethoxy]ethyl 4-butylaminobenzoate; 2,5,8,11,14,17,20,23,26-nonaoxaoctacosan-28-yl p-(butylamino)benzoate; 3,6,9,12,15,18,21,24,27-nonaoxaoctacosyl 4-butylaminobenzoate; 4-(butylamino)benzoic acid 3,6,9,12,15,18,21,24,27-nonaoxaoctacos-1-yl ester; Benzonatat; Benzonatate; Benzonatato; Benzonatatum; Benzononatine; nonaethyleneglycol monomethyl ether p-n-butylaminobenzoate; p-butylaminobenzoic acid Ï‰-O-methylnonaethyleneglycol ester

$$$$
