
 OpenBabel10282417072D

 42 44  0  0  0  0  0  0  0  0999 V2000
    0.3556    1.4709    0.0000 C   0  0  0  0  0  0  0  0  0  0  0  0
   -2.8306   -1.6289    0.0000 C   0  0  0  0  0  0  0  0  0  0  0  0
    2.4992   -0.5915    0.0000 C   0  0  0  0  0  0  0  0  0  0  0  0
   -0.3588   -0.5915    0.0000 C   0  0  0  0  0  0  0  0  0  0  0  0
    0.3556   -1.0041    0.0000 C   0  0  0  0  0  0  0  0  0  0  0  0
    1.7916    1.4704    0.0000 C   0  0  0  0  0  0  0  0  0  0  0  0
    2.5784    1.7185    0.0000 C   0  0  0  0  0  0  0  0  0  0  0  0
   -2.5714    0.4900    0.0000 C   0  0  0  0  0  0  0  0  0  0  0  0
    0.3556    0.6459    0.0000 C   0  0  0  0  0  0  0  0  0  0  0  0
   -0.3588    0.2334    0.0000 C   0  0  0  0  0  0  0  0  0  0  0  0
   -1.7873    0.2335    0.0000 C   0  0  0  0  0  0  0  0  0  0  0  0
    1.7846    0.6454    0.0000 C   0  0  0  0  0  0  0  0  0  0  0  0
    1.0702   -0.5915    0.0000 C   0  0  0  0  0  0  0  0  0  0  0  0
    1.0702    0.2334    0.0000 C   0  0  0  0  0  0  0  0  0  0  0  0
   -1.0732    0.6459    0.0000 C   0  0  0  0  0  0  0  0  0  0  0  0
   -1.7890   -0.5914    0.0000 C   0  0  0  0  0  0  0  0  0  0  0  0
   -3.0577   -0.1764    0.0000 N   0  0  0  0  0  0  0  0  0  0  0  0
    2.5670    0.3837    0.0000 N   0  0  0  0  0  0  0  0  0  0  0  0
   -2.5742   -0.8448    0.0000 N   0  0  0  0  0  0  0  0  0  0  0  0
   -1.0732    1.4709    0.0000 O   0  0  0  0  0  0  0  0  0  0  0  0
   -1.1225   -1.0777    0.0000 O   0  0  0  0  0  0  0  0  0  0  0  0
    3.0577    1.0469    0.0000 O   0  0  0  0  0  0  0  0  0  0  0  0
    1.7846   -1.0041    0.0000 S   0  0  0  0  0  0  0  0  0  0  0  0
    2.1971   -1.7185    0.0000 O   0  0  0  0  0  0  0  0  0  0  0  0
    1.3721   -1.7185    0.0000 O   0  0  0  0  0  0  0  0  0  0  0  0
    1.2822    2.0059    0.0000 H   0  0  0  0  0  0  0  0  0  0  0  0
   -0.5710    2.0059    0.0000 H   0  0  0  0  0  0  0  0  0  0  0  0
    0.3556    2.5409    0.0000 H   0  0  0  0  0  0  0  0  0  0  0  0
   -3.8776   -1.8494    0.0000 H   0  0  0  0  0  0  0  0  0  0  0  0
   -2.1161   -2.4254    0.0000 H   0  0  0  0  0  0  0  0  0  0  0  0
   -3.1632   -2.6459    0.0000 H   0  0  0  0  0  0  0  0  0  0  0  0
    3.4259   -1.1265    0.0000 H   0  0  0  0  0  0  0  0  0  0  0  0
    2.4992    0.4785    0.0000 H   0  0  0  0  0  0  0  0  0  0  0  0
    3.4258   -0.0565    0.0000 H   0  0  0  0  0  0  0  0  0  0  0  0
   -1.2526   -1.1074    0.0000 H   0  0  0  0  0  0  0  0  0  0  0  0
    0.3555   -2.0361    0.0000 H   0  0  0  0  0  0  0  0  0  0  0  0
    0.9314    2.1067    0.0000 H   0  0  0  0  0  0  0  0  0  0  0  0
    0.8341    0.9928    0.0000 H   0  0  0  0  0  0  0  0  0  0  0  0
    2.9178    2.7333    0.0000 H   0  0  0  0  0  0  0  0  0  0  0  0
    3.6366    1.8769    0.0000 H   0  0  0  0  0  0  0  0  0  0  0  0
   -2.8883    1.4721    0.0000 H   0  0  0  0  0  0  0  0  0  0  0  0
   -1.2223   -2.0094    0.0000 H   0  0  0  0  0  0  0  0  0  0  0  0
  1  9  1  0  0  0  0
  1 26  1  0  0  0  0
  1 27  1  0  0  0  0
  1 28  1  0  0  0  0
  2 19  1  0  0  0  0
  2 29  1  0  0  0  0
  2 30  1  0  0  0  0
  2 31  1  0  0  0  0
  3 23  1  0  0  0  0
  3 32  1  0  0  0  0
  3 33  1  0  0  0  0
  3 34  1  0  0  0  0
  4  5  2  0  0  0  0
  4 10  1  0  0  0  0
  4 35  1  0  0  0  0
  5 13  1  0  0  0  0
  5 36  1  0  0  0  0
  6  7  1  0  0  0  0
  6 12  1  0  0  0  0
  6 37  1  0  0  0  0
  6 38  1  0  0  0  0
  7 22  1  0  0  0  0
  7 39  1  0  0  0  0
  7 40  1  0  0  0  0
  8 11  1  0  0  0  0
  8 17  2  0  0  0  0
  8 41  1  0  0  0  0
  9 10  2  0  0  0  0
  9 14  1  0  0  0  0
 10 15  1  0  0  0  0
 11 15  1  0  0  0  0
 11 16  2  0  0  0  0
 12 14  1  0  0  0  0
 12 18  2  0  0  0  0
 13 14  2  0  0  0  0
 13 23  1  0  0  0  0
 15 20  2  0  0  0  0
 16 19  1  0  0  0  0
 16 21  1  0  0  0  0
 17 19  1  0  0  0  0
 18 22  1  0  0  0  0
 21 42  1  0  0  0  0
 24 23  2  0  0  0  0
 25 23  2  0  0  0  0
M  END
>  <DRUGBANK_ID>
DB14826

>  <COMMON_NAME>
Topramezone

>  <CAS_NUMBER>
210631-68-8

>  <UNII>
W4934JAQ65

$$$$
