
 OpenBabel10282417072D

165172  0  0  0  0  0  0  0  0999 V2000
   -3.9557   -4.4736    0.0000 C   0  0  1  0  0  0  0  0  0  0  0  0
   -3.9557   -5.2986    0.0000 C   0  0  1  0  0  0  0  0  0  0  0  0
   -4.6682   -5.7069    0.0000 C   0  0  2  0  0  0  0  0  0  0  0  0
   -4.6682   -4.0568    0.0000 O   0  0  0  0  0  0  0  0  0  0  0  0
   -5.3808   -5.2986    0.0000 C   0  0  1  0  0  0  0  0  0  0  0  0
   -5.3808   -4.4736    0.0000 C   0  0  1  0  0  0  0  0  0  0  0  0
   -3.2433   -5.7111    0.0000 O   0  0  0  0  0  0  0  0  0  0  0  0
   -4.6682   -6.5319    0.0000 O   0  0  0  0  0  0  0  0  0  0  0  0
   -6.0932   -5.7111    0.0000 O   0  0  0  0  0  0  0  0  0  0  0  0
   -6.0932   -4.0611    0.0000 C   0  0  0  0  0  0  0  0  0  0  0  0
   -6.8098   -4.4777    0.0000 O   0  0  0  0  0  0  0  0  0  0  0  0
   -3.2402   -4.0631    0.0000 O   0  0  0  0  0  0  0  0  0  0  0  0
    2.4680   -1.5673    0.0000 C   0  0  1  0  0  0  0  0  0  0  0  0
    1.7555   -1.9840    0.0000 C   0  0  1  0  0  0  0  0  0  0  0  0
   -3.2319   -3.2380    0.0000 C   0  0  1  0  0  0  0  0  0  0  0  0
    0.3306   -1.9964    0.0000 C   0  0  2  0  0  0  0  0  0  0  0  0
    1.0390   -1.5755    0.0000 C   0  0  1  0  0  0  0  0  0  0  0  0
   -2.5151   -2.8340    0.0000 C   0  0  1  0  0  0  0  0  0  0  0  0
    2.5266    1.5659    0.0000 C   0  0  1  0  0  0  0  0  0  0  0  0
    1.8140    1.9744    0.0000 C   0  0  1  0  0  0  0  0  0  0  0  0
    2.4680   -0.7423    0.0000 C   0  0  2  0  0  0  0  0  0  0  0  0
   -3.9359   -2.8172    0.0000 C   0  0  2  0  0  0  0  0  0  0  0  0
    0.3390   -2.8214    0.0000 C   0  0  2  0  0  0  0  0  0  0  0  0
    1.8099    2.7951    0.0000 C   0  0  2  0  0  0  0  0  0  0  0  0
    3.2431    1.9744    0.0000 O   0  0  0  0  0  0  0  0  0  0  0  0
   -2.5026   -2.0090    0.0000 O   0  0  0  0  0  0  0  0  0  0  0  0
   -0.3693   -3.2380    0.0000 C   0  0  0  0  0  0  0  0  0  0  0  0
    2.5181    3.2119    0.0000 C   0  0  1  0  0  0  0  0  0  0  0  0
   -3.9318   -1.9964    0.0000 C   0  0  1  0  0  0  0  0  0  0  0  0
    3.2348    2.7994    0.0000 C   0  0  1  0  0  0  0  0  0  0  0  0
    1.7432   -0.3298    0.0000 C   0  0  1  0  0  0  0  0  0  0  0  0
   -3.2152   -1.5923    0.0000 C   0  0  1  0  0  0  0  0  0  0  0  0
    3.2515   -0.4881    0.0000 C   0  0  1  0  0  0  0  0  0  0  0  0
    1.0265   -0.7465    0.0000 C   0  0  0  0  0  0  0  0  0  0  0  0
    3.2431    0.3368    0.0000 C   0  0  1  0  0  0  0  0  0  0  0  0
    2.5223    0.7410    0.0000 O   0  0  0  0  0  0  0  0  0  0  0  0
   -1.7984   -3.2547    0.0000 O   0  0  0  0  0  0  0  0  0  0  0  0
   -1.0859   -2.8340    0.0000 C   0  0  1  0  0  0  0  0  0  0  0  0
    3.2515   -1.8255    0.0000 C   0  0  0  0  0  0  0  0  0  0  0  0
    1.7641   -2.8091    0.0000 C   0  0  0  0  0  0  0  0  0  0  0  0
   -0.3818   -1.5839    0.0000 C   0  0  0  0  0  0  0  0  0  0  0  0
    1.0556   -3.2256    0.0000 C   0  0  0  0  0  0  0  0  0  0  0  0
    3.7348   -1.1590    0.0000 C   0  0  0  0  0  0  0  0  0  0  0  0
    3.9390    4.0493    0.0000 O   0  0  0  0  0  0  0  0  0  0  0  0
    3.9473    3.2159    0.0000 C   0  0  0  0  0  0  0  0  0  0  0  0
   -1.0944   -2.0090    0.0000 C   0  0  0  0  0  0  0  0  0  0  0  0
    6.1016    0.3785    0.0000 C   0  0  0  0  0  0  0  0  0  0  0  0
    5.3806    0.7785    0.0000 C   0  0  0  0  0  0  0  0  0  0  0  0
    1.0973    1.5577    0.0000 O   0  0  0  0  0  0  0  0  0  0  0  0
   -4.6569   -3.2215    0.0000 O   0  0  0  0  0  0  0  0  0  0  0  0
    1.0932    3.2034    0.0000 O   0  0  0  0  0  0  0  0  0  0  0  0
   -4.6443   -1.5798    0.0000 O   0  0  0  0  0  0  0  0  0  0  0  0
    2.5139    4.0369    0.0000 O   0  0  0  0  0  0  0  0  0  0  0  0
    2.4680   -2.3923    0.0000 C   0  0  0  0  0  0  0  0  0  0  0  0
    1.7391    0.4951    0.0000 O   0  0  0  0  0  0  0  0  0  0  0  0
    1.7473   -1.1548    0.0000 C   0  0  0  0  0  0  0  0  0  0  0  0
    0.3181   -1.1673    0.0000 C   0  0  0  0  0  0  0  0  0  0  0  0
    3.9515    0.7619    0.0000 C   0  0  0  0  0  0  0  0  0  0  0  0
   -3.2068   -0.7673    0.0000 C   0  0  0  0  0  0  0  0  0  0  0  0
    4.6723    0.3577    0.0000 C   0  0  0  0  0  0  0  0  0  0  0  0
    3.2307    1.1618    0.0000 C   0  0  0  0  0  0  0  0  0  0  0  0
   -3.9192   -0.3506    0.0000 O   0  0  0  0  0  0  0  0  0  0  0  0
    6.1099   -0.4464    0.0000 C   0  0  0  0  0  0  0  0  0  0  0  0
    6.8098    0.7994    0.0000 C   0  0  0  0  0  0  0  0  0  0  0  0
    1.0390   -2.4006    0.0000 H   0  0  0  0  0  0  0  0  0  0  0  0
    0.3431   -3.6422    0.0000 H   0  0  0  0  0  0  0  0  0  0  0  0
    2.4516    0.0826    0.0000 H   0  0  0  0  0  0  0  0  0  0  0  0
    3.9640   -0.0630    0.0000 H   0  0  0  0  0  0  0  0  0  0  0  0
    4.6493    4.4689    0.0000 C   0  0  2  0  0  0  0  0  0  0  0  0
    5.3695    4.0579    0.0000 O   0  0  0  0  0  0  0  0  0  0  0  0
    6.0777    4.4741    0.0000 C   0  0  0  0  0  0  0  0  0  0  0  0
    6.0737    5.2994    0.0000 C   0  0  1  0  0  0  0  0  0  0  0  0
    5.3552    5.7069    0.0000 C   0  0  1  0  0  0  0  0  0  0  0  0
    4.6408    5.2890    0.0000 C   0  0  1  0  0  0  0  0  0  0  0  0
    3.9231    5.6959    0.0000 O   0  0  0  0  0  0  0  0  0  0  0  0
    5.3499    6.5319    0.0000 O   0  0  0  0  0  0  0  0  0  0  0  0
    6.7855    5.7163    0.0000 O   0  0  0  0  0  0  0  0  0  0  0  0
   -0.3617   -4.0631    0.0000 C   0  0  0  0  0  0  0  0  0  0  0  0
   -1.0859   -3.6464    0.0000 C   0  0  0  0  0  0  0  0  0  0  0  0
   -3.9512   -3.4036    0.0000 H   0  0  0  0  0  0  0  0  0  0  0  0
   -3.9581   -6.3686    0.0000 H   0  0  0  0  0  0  0  0  0  0  0  0
   -3.7424   -6.2434    0.0000 H   0  0  0  0  0  0  0  0  0  0  0  0
   -6.3078   -4.7642    0.0000 H   0  0  0  0  0  0  0  0  0  0  0  0
   -6.3078   -5.0080    0.0000 H   0  0  0  0  0  0  0  0  0  0  0  0
   -3.2445   -6.6811    0.0000 H   0  0  0  0  0  0  0  0  0  0  0  0
   -5.5082   -7.0169    0.0000 H   0  0  0  0  0  0  0  0  0  0  0  0
   -6.9339   -5.2272    0.0000 H   0  0  0  0  0  0  0  0  0  0  0  0
   -6.0941   -2.9911    0.0000 H   0  0  0  0  0  0  0  0  0  0  0  0
   -7.0209   -3.5279    0.0000 H   0  0  0  0  0  0  0  0  0  0  0  0
   -7.6513   -3.9952    0.0000 H   0  0  0  0  0  0  0  0  0  0  0  0
   -2.3108   -3.7824    0.0000 H   0  0  0  0  0  0  0  0  0  0  0  0
   -1.5825   -2.3094    0.0000 H   0  0  0  0  0  0  0  0  0  0  0  0
    3.4504    1.0260    0.0000 H   0  0  0  0  0  0  0  0  0  0  0  0
    0.8852    2.5057    0.0000 H   0  0  0  0  0  0  0  0  0  0  0  0
   -4.8578   -2.2741    0.0000 H   0  0  0  0  0  0  0  0  0  0  0  0
    0.8861    2.2551    0.0000 H   0  0  0  0  0  0  0  0  0  0  0  0
    3.4430    3.7499    0.0000 H   0  0  0  0  0  0  0  0  0  0  0  0
   -3.9234   -0.9264    0.0000 H   0  0  0  0  0  0  0  0  0  0  0  0
    3.2312    3.8694    0.0000 H   0  0  0  0  0  0  0  0  0  0  0  0
    2.6668    0.2104    0.0000 H   0  0  0  0  0  0  0  0  0  0  0  0
   -4.1364   -1.0479    0.0000 H   0  0  0  0  0  0  0  0  0  0  0  0
    0.0950   -0.2199    0.0000 H   0  0  0  0  0  0  0  0  0  0  0  0
    0.1064   -1.2926    0.0000 H   0  0  0  0  0  0  0  0  0  0  0  0
   -1.0752   -3.9039    0.0000 H   0  0  0  0  0  0  0  0  0  0  0  0
    3.5805   -2.8437    0.0000 H   0  0  0  0  0  0  0  0  0  0  0  0
    4.3083   -1.9933    0.0000 H   0  0  0  0  0  0  0  0  0  0  0  0
    2.6956   -3.3356    0.0000 H   0  0  0  0  0  0  0  0  0  0  0  0
    1.7732   -3.8791    0.0000 H   0  0  0  0  0  0  0  0  0  0  0  0
   -0.3888   -0.5139    0.0000 H   0  0  0  0  0  0  0  0  0  0  0  0
   -1.3140   -1.0586    0.0000 H   0  0  0  0  0  0  0  0  0  0  0  0
    1.0652   -4.2956    0.0000 H   0  0  0  0  0  0  0  0  0  0  0  0
    0.1341   -3.7694    0.0000 H   0  0  0  0  0  0  0  0  0  0  0  0
    4.8048   -1.1607    0.0000 H   0  0  0  0  0  0  0  0  0  0  0  0
    4.2232   -0.2070    0.0000 H   0  0  0  0  0  0  0  0  0  0  0  0
    4.8780    2.6880    0.0000 H   0  0  0  0  0  0  0  0  0  0  0  0
    3.9543    2.1459    0.0000 H   0  0  0  0  0  0  0  0  0  0  0  0
   -2.0276   -1.4854    0.0000 H   0  0  0  0  0  0  0  0  0  0  0  0
   -2.0149   -2.5544    0.0000 H   0  0  0  0  0  0  0  0  0  0  0  0
    5.3653    1.8104    0.0000 H   0  0  0  0  0  0  0  0  0  0  0  0
    0.2558    2.0401    0.0000 H   0  0  0  0  0  0  0  0  0  0  0  0
   -5.4908   -2.7260    0.0000 H   0  0  0  0  0  0  0  0  0  0  0  0
    1.0876    4.1734    0.0000 H   0  0  0  0  0  0  0  0  0  0  0  0
   -4.6390   -0.6098    0.0000 H   0  0  0  0  0  0  0  0  0  0  0  0
    3.3515    4.5262    0.0000 H   0  0  0  0  0  0  0  0  0  0  0  0
    1.5414   -2.9273    0.0000 H   0  0  0  0  0  0  0  0  0  0  0  0
    3.3946   -2.9273    0.0000 H   0  0  0  0  0  0  0  0  0  0  0  0
    2.4680   -3.4623    0.0000 H   0  0  0  0  0  0  0  0  0  0  0  0
    2.5767    0.9843    0.0000 H   0  0  0  0  0  0  0  0  0  0  0  0
    2.6686   -0.6107    0.0000 H   0  0  0  0  0  0  0  0  0  0  0  0
    0.8154   -0.6290    0.0000 H   0  0  0  0  0  0  0  0  0  0  0  0
    1.7367   -0.0849    0.0000 H   0  0  0  0  0  0  0  0  0  0  0  0
    1.2366   -0.6184    0.0000 H   0  0  0  0  0  0  0  0  0  0  0  0
   -0.6165   -0.6463    0.0000 H   0  0  0  0  0  0  0  0  0  0  0  0
    0.3020   -0.0974    0.0000 H   0  0  0  0  0  0  0  0  0  0  0  0
    3.9358    1.8318    0.0000 H   0  0  0  0  0  0  0  0  0  0  0  0
    4.8708    1.3095    0.0000 H   0  0  0  0  0  0  0  0  0  0  0  0
   -2.2759   -0.2397    0.0000 H   0  0  0  0  0  0  0  0  0  0  0  0
   -3.1995    0.3027    0.0000 H   0  0  0  0  0  0  0  0  0  0  0  0
    4.6857   -0.7122    0.0000 H   0  0  0  0  0  0  0  0  0  0  0  0
    3.7524   -0.1889    0.0000 H   0  0  0  0  0  0  0  0  0  0  0  0
    4.1492    1.7107    0.0000 H   0  0  0  0  0  0  0  0  0  0  0  0
    2.2961    1.6828    0.0000 H   0  0  0  0  0  0  0  0  0  0  0  0
    3.2146    2.2317    0.0000 H   0  0  0  0  0  0  0  0  0  0  0  0
   -3.9137    0.6194    0.0000 H   0  0  0  0  0  0  0  0  0  0  0  0
    5.1887   -0.9907    0.0000 H   0  0  0  0  0  0  0  0  0  0  0  0
    7.0419   -0.9720    0.0000 H   0  0  0  0  0  0  0  0  0  0  0  0
    6.1207   -1.5163    0.0000 H   0  0  0  0  0  0  0  0  0  0  0  0
    7.7431    0.2762    0.0000 H   0  0  0  0  0  0  0  0  0  0  0  0
    6.7963    1.8693    0.0000 H   0  0  0  0  0  0  0  0  0  0  0  0
    7.7296    1.3461    0.0000 H   0  0  0  0  0  0  0  0  0  0  0  0
    4.6573    3.3989    0.0000 H   0  0  0  0  0  0  0  0  0  0  0  0
    7.0077    3.9449    0.0000 H   0  0  0  0  0  0  0  0  0  0  0  0
    7.0014    5.0142    0.0000 H   0  0  0  0  0  0  0  0  0  0  0  0
    7.0033    4.7695    0.0000 H   0  0  0  0  0  0  0  0  0  0  0  0
    6.2781    6.2484    0.0000 H   0  0  0  0  0  0  0  0  0  0  0  0
    3.7191    4.7456    0.0000 H   0  0  0  0  0  0  0  0  0  0  0  0
    3.9155    6.6659    0.0000 H   0  0  0  0  0  0  0  0  0  0  0  0
    6.1868    7.0223    0.0000 H   0  0  0  0  0  0  0  0  0  0  0  0
    7.6286    5.2365    0.0000 H   0  0  0  0  0  0  0  0  0  0  0  0
   -1.2834   -4.6066    0.0000 H   0  0  0  0  0  0  0  0  0  0  0  0
    0.5698   -4.5895    0.0000 H   0  0  0  0  0  0  0  0  0  0  0  0
   -0.3518   -5.1331    0.0000 H   0  0  0  0  0  0  0  0  0  0  0  0
   -2.0095   -3.1062    0.0000 H   0  0  0  0  0  0  0  0  0  0  0  0
   -1.0919   -4.7164    0.0000 H   0  0  0  0  0  0  0  0  0  0  0  0
   -2.0155   -4.1762    0.0000 H   0  0  0  0  0  0  0  0  0  0  0  0
  1 12  1  0  0  0  0
  1 80  1  6  0  0  0
  2  7  1  0  0  0  0
  2  1  1  0  0  0  0
  2 81  1  1  0  0  0
  3  2  1  0  0  0  0
  3  8  1  0  0  0  0
  3  5  1  0  0  0  0
  3 82  1  6  0  0  0
  4  1  1  0  0  0  0
  5  6  1  0  0  0  0
  5  9  1  0  0  0  0
  5 83  1  1  0  0  0
  6  4  1  0  0  0  0
  6 10  1  0  0  0  0
  6 84  1  6  0  0  0
  7 85  1  0  0  0  0
  8 86  1  0  0  0  0
  9 87  1  0  0  0  0
 10 88  1  0  0  0  0
 10 89  1  0  0  0  0
 11 10  1  0  0  0  0
 11 90  1  0  0  0  0
 13 54  1  6  0  0  0
 14 56  1  1  0  0  0
 14 13  1  0  0  0  0
 15 12  1  0  0  0  0
 15 18  1  0  0  0  0
 15 91  1  1  0  0  0
 16 57  1  1  0  0  0
 16 23  1  0  0  0  0
 16 17  1  0  0  0  0
 17 65  1  6  0  0  0
 17 34  1  0  0  0  0
 17 14  1  0  0  0  0
 18 37  1  0  0  0  0
 18 92  1  6  0  0  0
 19 36  1  0  0  0  0
 19 93  1  6  0  0  0
 20 49  1  0  0  0  0
 20 19  1  0  0  0  0
 20 94  1  1  0  0  0
 21 67  1  1  0  0  0
 21 13  1  0  0  0  0
 22 50  1  0  0  0  0
 22 29  1  0  0  0  0
 22 15  1  0  0  0  0
 22 95  1  6  0  0  0
 23 66  1  6  0  0  0
 23 42  1  0  0  0  0
 24 20  1  0  0  0  0
 24 51  1  0  0  0  0
 24 28  1  0  0  0  0
 24 96  1  6  0  0  0
 25 19  1  0  0  0  0
 26 18  1  0  0  0  0
 27 23  1  0  0  0  0
 27 78  1  0  0  0  0
 27 79  1  0  0  0  0
 28 30  1  0  0  0  0
 28 53  1  0  0  0  0
 28 97  1  1  0  0  0
 29 32  1  0  0  0  0
 29 52  1  0  0  0  0
 29 98  1  1  0  0  0
 30 25  1  0  0  0  0
 30 45  1  0  0  0  0
 30 99  1  6  0  0  0
 31 21  1  0  0  0  0
 31 55  1  0  0  0  0
 31100  1  6  0  0  0
 32 26  1  0  0  0  0
 32 59  1  0  0  0  0
 32101  1  6  0  0  0
 33 21  1  0  0  0  0
 33 68  1  6  0  0  0
 33 43  1  0  0  0  0
 34 31  1  0  0  0  0
 34102  1  0  0  0  0
 34103  1  0  0  0  0
 35 33  1  0  0  0  0
 35 36  1  1  0  0  0
 38 37  1  0  0  0  0
 38 27  1  0  0  0  0
 38104  1  6  0  0  0
 39 13  1  0  0  0  0
 39105  1  0  0  0  0
 39106  1  0  0  0  0
 40 14  1  0  0  0  0
 40107  1  0  0  0  0
 40108  1  0  0  0  0
 41 16  1  0  0  0  0
 41109  1  0  0  0  0
 41110  1  0  0  0  0
 42 40  1  0  0  0  0
 42111  1  0  0  0  0
 42112  1  0  0  0  0
 43 39  1  0  0  0  0
 43113  1  0  0  0  0
 43114  1  0  0  0  0
 44 45  1  0  0  0  0
 45115  1  0  0  0  0
 45116  1  0  0  0  0
 46 41  1  0  0  0  0
 46 38  1  0  0  0  0
 46117  1  0  0  0  0
 46118  1  0  0  0  0
 47 48  2  0  0  0  0
 48 60  1  0  0  0  0
 48119  1  0  0  0  0
 49120  1  0  0  0  0
 50121  1  0  0  0  0
 51122  1  0  0  0  0
 52123  1  0  0  0  0
 53124  1  0  0  0  0
 54125  1  0  0  0  0
 54126  1  0  0  0  0
 54127  1  0  0  0  0
 55128  1  0  0  0  0
 56129  1  0  0  0  0
 56130  1  0  0  0  0
 56131  1  0  0  0  0
 57132  1  0  0  0  0
 57133  1  0  0  0  0
 57134  1  0  0  0  0
 58 35  1  0  0  0  0
 58135  1  0  0  0  0
 58136  1  0  0  0  0
 59137  1  0  0  0  0
 59138  1  0  0  0  0
 60 58  1  0  0  0  0
 60139  1  0  0  0  0
 60140  1  0  0  0  0
 61 35  1  0  0  0  0
 61141  1  0  0  0  0
 61142  1  0  0  0  0
 61143  1  0  0  0  0
 62 59  1  0  0  0  0
 62144  1  0  0  0  0
 63 47  1  0  0  0  0
 63145  1  0  0  0  0
 63146  1  0  0  0  0
 63147  1  0  0  0  0
 64 47  1  0  0  0  0
 64148  1  0  0  0  0
 64149  1  0  0  0  0
 64150  1  0  0  0  0
 69 44  1  0  0  0  0
 69 70  1  0  0  0  0
 69 74  1  0  0  0  0
 69151  1  6  0  0  0
 70 71  1  0  0  0  0
 71 72  1  0  0  0  0
 71152  1  0  0  0  0
 71153  1  0  0  0  0
 72 73  1  0  0  0  0
 72 77  1  0  0  0  0
 72154  1  6  0  0  0
 73 74  1  0  0  0  0
 73 76  1  0  0  0  0
 73155  1  6  0  0  0
 74 75  1  0  0  0  0
 74156  1  1  0  0  0
 75157  1  0  0  0  0
 76158  1  0  0  0  0
 77159  1  0  0  0  0
 78160  1  0  0  0  0
 78161  1  0  0  0  0
 78162  1  0  0  0  0
 79163  1  0  0  0  0
 79164  1  0  0  0  0
 79165  1  0  0  0  0
M  END
>  <DRUGBANK_ID>
DB06748

>  <COMMON_NAME>
Ginsenoside C

>  <CAS_NUMBER>
11021-13-9

>  <UNII>
N219O0L31C

>  <SYNONYMS>
ginsenoside Rb2

$$$$
