
 OpenBabel10282417072D

 52 53  0  0  1  0  0  0  0  0999 V2000
    0.3020   -5.8559    0.0000 C   0  0  0  0  0  0  0  0  0  0  0  0
    0.7145   -5.1414    0.0000 C   0  0  0  0  0  0  0  0  0  0  0  0
    1.5395   -5.1414    0.0000 C   0  0  0  0  0  0  0  0  0  0  0  0
    1.9520   -4.4270    0.0000 C   0  0  0  0  0  0  0  0  0  0  0  0
    1.5395   -3.7125    0.0000 C   0  0  0  0  0  0  0  0  0  0  0  0
    0.7145   -3.7125    0.0000 C   0  0  0  0  0  0  0  0  0  0  0  0
    0.3020   -2.9980    0.0000 C   0  0  0  0  0  0  0  0  0  0  0  0
    2.7770   -4.4270    0.0000 C   0  0  0  0  0  0  0  0  0  0  0  0
    3.1895   -5.1414    0.0000 O   0  0  0  0  0  0  0  0  0  0  0  0
    3.1895   -3.7125    0.0000 N   0  0  0  0  0  0  0  0  0  0  0  0
    4.0145   -3.7125    0.0000 C   0  0  0  0  0  0  0  0  0  0  0  0
    4.4270   -2.9980    0.0000 C   0  0  0  0  0  0  0  0  0  0  0  0
    5.2520   -2.9980    0.0000 C   0  0  0  0  0  0  0  0  0  0  0  0
    5.6645   -3.7125    0.0000 N   0  0  0  0  0  0  0  0  0  0  0  0
    5.2520   -4.4270    0.0000 C   0  0  0  0  0  0  0  0  0  0  0  0
    5.6645   -5.1414    0.0000 O   0  0  0  0  0  0  0  0  0  0  0  0
    4.4270   -4.4270    0.0000 N   0  0  0  0  0  0  0  0  0  0  0  0
    6.4895   -3.7125    0.0000 C   0  0  1  0  0  0  0  0  0  0  0  0
    6.9744   -3.0451    0.0000 C   0  0  0  0  0  0  0  0  0  0  0  0
    7.7590   -3.3000    0.0000 C   0  0  1  0  0  0  0  0  0  0  0  0
    7.7590   -4.1250    0.0000 C   0  0  2  0  0  0  0  0  0  0  0  0
    6.9744   -4.3799    0.0000 O   0  0  0  0  0  0  0  0  0  0  0  0
    8.4265   -4.6099    0.0000 C   0  0  0  0  0  0  0  0  0  0  0  0
    9.1801   -4.2744    0.0000 O   0  0  0  0  0  0  0  0  0  0  0  0
    8.4265   -2.8151    0.0000 O   0  0  0  0  0  0  0  0  0  0  0  0
    6.3671   -2.4866    0.0000 F   0  0  0  0  0  0  0  0  0  0  0  0
    7.1375   -2.2363    0.0000 F   0  0  0  0  0  0  0  0  0  0  0  0
   -0.7680   -5.8559    0.0000 H   0  0  0  0  0  0  0  0  0  0  0  0
    0.8370   -6.7825    0.0000 H   0  0  0  0  0  0  0  0  0  0  0  0
   -0.2330   -6.7826    0.0000 H   0  0  0  0  0  0  0  0  0  0  0  0
    0.1795   -4.2148    0.0000 H   0  0  0  0  0  0  0  0  0  0  0  0
    1.2495   -4.2148    0.0000 H   0  0  0  0  0  0  0  0  0  0  0  0
    2.0745   -6.0681    0.0000 H   0  0  0  0  0  0  0  0  0  0  0  0
    2.6095   -5.1414    0.0000 H   0  0  0  0  0  0  0  0  0  0  0  0
    2.4870   -3.5004    0.0000 H   0  0  0  0  0  0  0  0  0  0  0  0
    2.0745   -2.7859    0.0000 H   0  0  0  0  0  0  0  0  0  0  0  0
    1.0045   -2.7859    0.0000 H   0  0  0  0  0  0  0  0  0  0  0  0
    0.1795   -4.6391    0.0000 H   0  0  0  0  0  0  0  0  0  0  0  0
   -0.3555   -3.7125    0.0000 H   0  0  0  0  0  0  0  0  0  0  0  0
    0.8370   -2.0714    0.0000 H   0  0  0  0  0  0  0  0  0  0  0  0
   -0.7680   -2.9980    0.0000 H   0  0  0  0  0  0  0  0  0  0  0  0
   -0.2330   -2.0713    0.0000 H   0  0  0  0  0  0  0  0  0  0  0  0
    2.6972   -2.8599    0.0000 H   0  0  0  0  0  0  0  0  0  0  0  0
    3.9110   -2.1043    0.0000 H   0  0  0  0  0  0  0  0  0  0  0  0
    5.7680   -2.1043    0.0000 H   0  0  0  0  0  0  0  0  0  0  0  0
    6.0037   -2.7591    0.0000 H   0  0  0  0  0  0  0  0  0  0  0  0
    7.5916   -2.2432    0.0000 H   0  0  0  0  0  0  0  0  0  0  0  0
    8.7124   -3.6392    0.0000 H   0  0  0  0  0  0  0  0  0  0  0  0
    8.3147   -5.6740    0.0000 H   0  0  0  0  0  0  0  0  0  0  0  0
    9.2921   -5.2388    0.0000 H   0  0  0  0  0  0  0  0  0  0  0  0
    9.9648   -4.8446    0.0000 H   0  0  0  0  0  0  0  0  0  0  0  0
    9.3126   -3.2097    0.0000 H   0  0  0  0  0  0  0  0  0  0  0  0
  1  2  1  0  0  0  0
  1 28  1  0  0  0  0
  1 29  1  0  0  0  0
  1 30  1  0  0  0  0
  2  3  1  0  0  0  0
  2 31  1  0  0  0  0
  2 32  1  0  0  0  0
  3  4  1  0  0  0  0
  3 33  1  0  0  0  0
  3 34  1  0  0  0  0
  4  5  1  0  0  0  0
  4  8  1  0  0  0  0
  4 35  1  0  0  0  0
  5  6  1  0  0  0  0
  5 36  1  0  0  0  0
  5 37  1  0  0  0  0
  6  7  1  0  0  0  0
  6 38  1  0  0  0  0
  6 39  1  0  0  0  0
  7 40  1  0  0  0  0
  7 41  1  0  0  0  0
  7 42  1  0  0  0  0
  8  9  2  0  0  0  0
  8 10  1  0  0  0  0
 10 11  1  0  0  0  0
 10 43  1  0  0  0  0
 11 12  1  0  0  0  0
 11 17  2  0  0  0  0
 12 13  2  0  0  0  0
 12 44  1  0  0  0  0
 13 14  1  0  0  0  0
 13 45  1  0  0  0  0
 14 15  1  0  0  0  0
 15 16  2  0  0  0  0
 15 17  1  0  0  0  0
 18 14  1  0  0  0  0
 18 19  1  0  0  0  0
 18 22  1  0  0  0  0
 18 46  1  6  0  0  0
 19 20  1  0  0  0  0
 19 26  1  0  0  0  0
 19 27  1  0  0  0  0
 20 21  1  0  0  0  0
 20 25  1  0  0  0  0
 20 47  1  1  0  0  0
 21 22  1  0  0  0  0
 21 23  1  0  0  0  0
 21 48  1  6  0  0  0
 23 24  1  0  0  0  0
 23 49  1  0  0  0  0
 23 50  1  0  0  0  0
 24 51  1  0  0  0  0
 25 52  1  0  0  0  0
M  END
>  <DRUGBANK_ID>
DB12906

>  <COMMON_NAME>
LY-2334737

>  <CAS_NUMBER>
892128-60-8

>  <UNII>
YLR364XYSA

$$$$
