
 OpenBabel10282417072D

 50 53  0  0  0  0  0  0  0  0999 V2000
   19.6254   -0.1331    0.0000 S   0  0  0  0  0  0  0  0  0  0  0  0
   18.9109   -0.5456    0.0000 C   0  0  1  0  0  0  0  0  0  0  0  0
   18.9109   -1.3706    0.0000 N   0  0  0  0  0  0  0  0  0  0  0  0
   19.6254   -1.7831    0.0000 C   0  0  0  0  0  0  0  0  0  0  0  0
   20.3399   -1.3706    0.0000 C   0  0  0  0  0  0  0  0  0  0  0  0
   20.3399   -0.5456    0.0000 C   0  0  0  0  0  0  0  0  0  0  0  0
   18.0859   -0.5456    0.0000 C   0  0  1  0  0  0  0  0  0  0  0  0
   18.0859   -1.3706    0.0000 C   0  0  0  0  0  0  0  0  0  0  0  0
   19.6254   -2.6081    0.0000 C   0  0  0  0  0  0  0  0  0  0  0  0
   18.9109   -3.0206    0.0000 O   0  0  0  0  0  0  0  0  0  0  0  0
   20.3399   -3.0206    0.0000 O   0  0  0  0  0  0  0  0  0  0  0  0
   17.3715   -0.1331    0.0000 N   0  0  0  0  0  0  0  0  0  0  0  0
   18.9109    0.2794    0.0000 H   0  0  0  0  0  0  0  0  0  0  0  0
   16.6570   -0.5456    0.0000 C   0  0  0  0  0  0  0  0  0  0  0  0
   15.9425   -0.1331    0.0000 C   0  0  0  0  0  0  0  0  0  0  0  0
   16.6570   -1.3706    0.0000 O   0  0  0  0  0  0  0  0  0  0  0  0
   15.9425    0.6919    0.0000 N   0  0  0  0  0  0  0  0  0  0  0  0
   16.6570    1.1044    0.0000 O   0  0  0  0  0  0  0  0  0  0  0  0
   16.6570    1.9294    0.0000 C   0  0  0  0  0  0  0  0  0  0  0  0
   14.4434   -0.2906    0.0000 N   0  0  0  0  0  0  0  0  0  0  0  0
   13.9585   -0.9581    0.0000 C   0  0  0  0  0  0  0  0  0  0  0  0
   14.4434   -1.6255    0.0000 S   0  0  0  0  0  0  0  0  0  0  0  0
   15.2281   -1.3705    0.0000 C   0  0  0  0  0  0  0  0  0  0  0  0
   15.2281   -0.5456    0.0000 C   0  0  0  0  0  0  0  0  0  0  0  0
   13.1335   -0.9581    0.0000 N   0  0  0  0  0  0  0  0  0  0  0  0
   17.5026   -1.9540    0.0000 O   0  0  0  0  0  0  0  0  0  0  0  0
   21.0544   -1.7831    0.0000 C   0  0  0  0  0  0  0  0  0  0  0  0
   21.7689   -1.3706    0.0000 S   0  0  0  0  0  0  0  0  0  0  0  0
   23.2680   -1.5282    0.0000 N   0  0  0  0  0  0  0  0  0  0  0  0
   22.4833   -1.7831    0.0000 C   0  0  0  0  0  0  0  0  0  0  0  0
   22.4833   -2.6081    0.0000 N   0  0  0  0  0  0  0  0  0  0  0  0
   23.2680   -2.8630    0.0000 N   0  0  0  0  0  0  0  0  0  0  0  0
   23.7529   -2.1956    0.0000 N   0  0  0  0  0  0  0  0  0  0  0  0
   23.4815   -0.7313    0.0000 C   0  0  0  0  0  0  0  0  0  0  0  0
   21.2665   -0.0106    0.0000 H   0  0  0  0  0  0  0  0  0  0  0  0
   20.3399    0.5244    0.0000 H   0  0  0  0  0  0  0  0  0  0  0  0
   18.3629    0.4879    0.0000 H   0  0  0  0  0  0  0  0  0  0  0  0
   20.3399   -3.9576    0.0000 H   0  0  0  0  0  0  0  0  0  0  0  0
   17.3715    0.8514    0.0000 H   0  0  0  0  0  0  0  0  0  0  0  0
   17.5836    2.4644    0.0000 H   0  0  0  0  0  0  0  0  0  0  0  0
   15.7304    2.4644    0.0000 H   0  0  0  0  0  0  0  0  0  0  0  0
   16.6570    2.9994    0.0000 H   0  0  0  0  0  0  0  0  0  0  0  0
   16.0630   -1.9771    0.0000 H   0  0  0  0  0  0  0  0  0  0  0  0
   12.6412   -0.1055    0.0000 H   0  0  0  0  0  0  0  0  0  0  0  0
   12.6412   -1.8107    0.0000 H   0  0  0  0  0  0  0  0  0  0  0  0
   21.0544   -2.8531    0.0000 H   0  0  0  0  0  0  0  0  0  0  0  0
   21.9810   -2.3181    0.0000 H   0  0  0  0  0  0  0  0  0  0  0  0
   24.5150   -0.4543    0.0000 H   0  0  0  0  0  0  0  0  0  0  0  0
   22.7249    0.0253    0.0000 H   0  0  0  0  0  0  0  0  0  0  0  0
   23.7584    0.3022    0.0000 H   0  0  0  0  0  0  0  0  0  0  0  0
  1  2  1  0  0  0  0
  1  6  1  0  0  0  0
  2  3  1  0  0  0  0
  2  7  1  0  0  0  0
  2 13  1  6  0  0  0
  3  4  1  0  0  0  0
  4  5  2  0  0  0  0
  4  9  1  0  0  0  0
  5  6  1  0  0  0  0
  5 27  1  0  0  0  0
  6 35  1  0  0  0  0
  6 36  1  0  0  0  0
  7  8  1  0  0  0  0
  7 12  1  0  0  0  0
  7 37  1  6  0  0  0
  8  3  1  0  0  0  0
  8 26  2  0  0  0  0
  9 10  2  0  0  0  0
  9 11  1  0  0  0  0
 11 38  1  0  0  0  0
 12 14  1  0  0  0  0
 12 39  1  0  0  0  0
 14 15  1  0  0  0  0
 14 16  2  0  0  0  0
 15 24  1  0  0  0  0
 15 17  2  0  0  0  0
 17 18  1  0  0  0  0
 18 19  1  0  0  0  0
 19 40  1  0  0  0  0
 19 41  1  0  0  0  0
 19 42  1  0  0  0  0
 20 21  2  0  0  0  0
 20 24  1  0  0  0  0
 21 22  1  0  0  0  0
 21 25  1  0  0  0  0
 22 23  1  0  0  0  0
 23 24  2  0  0  0  0
 23 43  1  0  0  0  0
 25 44  1  0  0  0  0
 25 45  1  0  0  0  0
 27 28  1  0  0  0  0
 27 46  1  0  0  0  0
 27 47  1  0  0  0  0
 28 30  1  0  0  0  0
 29 30  1  0  0  0  0
 29 33  1  0  0  0  0
 29 34  1  0  0  0  0
 30 31  2  0  0  0  0
 31 32  1  0  0  0  0
 32 33  2  0  0  0  0
 34 48  1  0  0  0  0
 34 49  1  0  0  0  0
 34 50  1  0  0  0  0
M  END
>  <DRUGBANK_ID>
DB00267

>  <SECONDARY_ACCESSION_NUMBERS>
APRD00851

>  <COMMON_NAME>
Cefmenoxime

>  <CAS_NUMBER>
65085-01-0

>  <UNII>
KBZ4844CXN

>  <SYNONYMS>
(6R,7R)-7-((Z)-2-(2-Amino-4-thiazolyl)-2-methoxyiminoacetamido)-3-((1-methyl-1H-5-tetraazolylthio)methyl)-8-oxo-5-thia-1-azabicyclo(4.2.0)oct-2-en-2-carbonsaeure; (6R,7R)-7-[[(2E)-2-(2-amino-1,3-thiazol-4-yl)-2-methoxyiminoacetyl]amino]-3-[(1-methyltetrazol-5-yl)sulfanylmethyl]-8-oxo-5-thia-1-azabicyclo[4.2.0]oct-2-ene-2-carboxylic acid; Cefmenoxima; Cefmenoxime; Cefmenoximum; CMX

$$$$
