
 OpenBabel10282417072D

 49 53  0  0  1  0  0  0  0  0999 V2000
   -0.7144    2.0625    0.0000 C   0  0  0  0  0  0  0  0  0  0  0  0
    0.0000    2.4750    0.0000 C   0  0  0  0  0  0  0  0  0  0  0  0
    3.5723    2.0625    0.0000 C   0  0  0  0  0  0  0  0  0  0  0  0
    2.8578    2.4750    0.0000 C   0  0  0  0  0  0  0  0  0  0  0  0
    3.5723    1.2375    0.0000 C   0  0  0  0  0  0  0  0  0  0  0  0
   -0.7144   -1.2375    0.0000 C   0  0  0  0  0  0  0  0  0  0  0  0
    2.1434    2.0625    0.0000 C   0  0  0  0  0  0  0  0  0  0  0  0
    2.8578    0.8250    0.0000 C   0  0  0  0  0  0  0  0  0  0  0  0
    0.0000   -1.6500    0.0000 C   0  0  0  0  0  0  0  0  0  0  0  0
   -0.7144   -0.4125    0.0000 C   0  0  0  0  0  0  0  0  0  0  0  0
   -0.5550    4.1250    0.0000 C   0  0  0  0  0  0  0  0  0  0  0  0
    2.1434    4.5375    0.0000 C   0  0  0  0  0  0  0  0  0  0  0  0
    2.1434    1.2375    0.0000 C   0  0  0  0  0  0  0  0  0  0  0  0
    0.7144   -1.2375    0.0000 C   0  0  0  0  0  0  0  0  0  0  0  0
    0.7144    2.0625    0.0000 C   0  0  1  0  0  0  0  0  0  0  0  0
    0.0000    0.0000    0.0000 C   0  0  0  0  0  0  0  0  0  0  0  0
    0.7144   -0.4125    0.0000 C   0  0  0  0  0  0  0  0  0  0  0  0
    0.7144    3.7125    0.0000 C   0  0  0  0  0  0  0  0  0  0  0  0
    0.7144    4.5375    0.0000 C   0  0  0  0  0  0  0  0  0  0  0  0
    1.4289    3.3000    0.0000 C   0  0  0  0  0  0  0  0  0  0  0  0
    0.7144    1.2375    0.0000 C   0  0  0  0  0  0  0  0  0  0  0  0
    1.4289    0.0000    0.0000 C   0  0  0  0  0  0  0  0  0  0  0  0
    1.4289   -1.6500    0.0000 F   0  0  0  0  0  0  0  0  0  0  0  0
   -0.0701    3.4575    0.0000 N   0  0  0  0  0  0  0  0  0  0  0  0
   -0.0701    4.7924    0.0000 N   0  0  0  0  0  0  0  0  0  0  0  0
    1.4289    4.9500    0.0000 N   0  0  0  0  0  0  0  0  0  0  0  0
    2.1434    3.7125    0.0000 N   0  0  0  0  0  0  0  0  0  0  0  0
    1.4289    2.4750    0.0000 N   0  0  0  0  0  0  0  0  0  0  0  0
    0.0000    0.8250    0.0000 N   0  0  0  0  0  0  0  0  0  0  0  0
    1.4289    0.8250    0.0000 N   0  0  0  0  0  0  0  0  0  0  0  0
    2.1434   -0.4125    0.0000 O   0  0  0  0  0  0  0  0  0  0  0  0
    0.0000    1.6500    0.0000 H   0  0  0  0  0  0  0  0  0  0  0  0
   -1.6411    2.5975    0.0000 H   0  0  0  0  0  0  0  0  0  0  0  0
   -0.7144    0.9925    0.0000 H   0  0  0  0  0  0  0  0  0  0  0  0
   -1.6410    1.5275    0.0000 H   0  0  0  0  0  0  0  0  0  0  0  0
    0.0000    3.5450    0.0000 H   0  0  0  0  0  0  0  0  0  0  0  0
    0.9267    3.0100    0.0000 H   0  0  0  0  0  0  0  0  0  0  0  0
    4.4660    2.5785    0.0000 H   0  0  0  0  0  0  0  0  0  0  0  0
    2.8578    3.5070    0.0000 H   0  0  0  0  0  0  0  0  0  0  0  0
    4.4660    0.7215    0.0000 H   0  0  0  0  0  0  0  0  0  0  0  0
   -1.6081   -1.7535    0.0000 H   0  0  0  0  0  0  0  0  0  0  0  0
    1.2497    2.5785    0.0000 H   0  0  0  0  0  0  0  0  0  0  0  0
    2.8578   -0.2070    0.0000 H   0  0  0  0  0  0  0  0  0  0  0  0
    0.0000   -2.6820    0.0000 H   0  0  0  0  0  0  0  0  0  0  0  0
   -1.6081    0.1035    0.0000 H   0  0  0  0  0  0  0  0  0  0  0  0
   -1.5870    4.1250    0.0000 H   0  0  0  0  0  0  0  0  0  0  0  0
    3.0371    5.0535    0.0000 H   0  0  0  0  0  0  0  0  0  0  0  0
   -0.3743    5.7287    0.0000 H   0  0  0  0  0  0  0  0  0  0  0  0
    2.2815    1.9827    0.0000 H   0  0  0  0  0  0  0  0  0  0  0  0
  1 33  1  0  0  0  0
  1 34  1  0  0  0  0
  1 35  1  0  0  0  0
  2  1  1  0  0  0  0
  2 36  1  0  0  0  0
  2 37  1  0  0  0  0
  3 38  1  0  0  0  0
  4  3  2  0  0  0  0
  4 39  1  0  0  0  0
  5  3  1  0  0  0  0
  5 40  1  0  0  0  0
  6 41  1  0  0  0  0
  7  4  1  0  0  0  0
  7 42  1  0  0  0  0
  8  5  2  0  0  0  0
  8 43  1  0  0  0  0
  9  6  2  0  0  0  0
  9 44  1  0  0  0  0
 10  6  1  0  0  0  0
 10 45  1  0  0  0  0
 11 46  1  0  0  0  0
 12 47  1  0  0  0  0
 13  7  2  0  0  0  0
 13  8  1  0  0  0  0
 14  9  1  0  0  0  0
 15  2  1  0  0  0  0
 15 28  1  0  0  0  0
 15 32  1  1  0  0  0
 16 10  2  0  0  0  0
 17 14  2  0  0  0  0
 17 16  1  0  0  0  0
 19 18  2  0  0  0  0
 20 18  1  0  0  0  0
 21 15  1  0  0  0  0
 22 17  1  0  0  0  0
 23 14  1  0  0  0  0
 24 11  2  0  0  0  0
 24 18  1  0  0  0  0
 25 11  1  0  0  0  0
 25 19  1  0  0  0  0
 25 48  1  0  0  0  0
 26 12  2  0  0  0  0
 26 19  1  0  0  0  0
 27 12  1  0  0  0  0
 27 20  2  0  0  0  0
 28 20  1  0  0  0  0
 28 49  1  0  0  0  0
 29 16  1  0  0  0  0
 29 21  2  0  0  0  0
 30 13  1  0  0  0  0
 30 21  1  0  0  0  0
 30 22  1  0  0  0  0
 31 22  2  0  0  0  0
M  END
>  <DRUGBANK_ID>
DB09054

>  <COMMON_NAME>
Idelalisib

>  <CAS_NUMBER>
870281-82-6

>  <UNII>
YG57I8T5M0

>  <SYNONYMS>
5-Fluoro-3-phenyl-2-((S)-1-(9H-purin-6-ylamino)-propyl)-3H-quinazolin-4-one; 5-fluoro-3-phenyl-2-[(1S)-1-(3H-purin-6-ylamino)propyl]quinazolin-4(3H)-one; Idelalisib

$$$$
