
 OpenBabel10282417072D

 42 45  0  0  1  0  0  0  0  0999 V2000
    4.5141   -0.9039    0.0000 C   0  0  0  0  0  0  0  0  0  0  0  0
    1.2462    0.2211    0.0000 C   0  0  0  0  0  0  0  0  0  0  0  0
    5.4880    2.2551    0.0000 C   0  0  0  0  0  0  0  0  0  0  0  0
    3.1064   -0.8804    0.0000 C   0  0  0  0  0  0  0  0  0  0  0  0
    2.5429   -0.2609    0.0000 C   0  0  0  0  0  0  0  0  0  0  0  0
    4.7995    0.4092    0.0000 C   0  0  0  0  0  0  0  0  0  0  0  0
    5.2883    1.0982    0.0000 C   0  0  0  0  0  0  0  0  0  0  0  0
    3.8256   -0.4493    0.0000 C   0  0  2  0  0  0  0  0  0  0  0  0
    1.8064    0.8267    0.0000 C   0  0  2  0  0  0  0  0  0  0  0  0
    3.9421    0.3980    0.0000 C   0  0  1  0  0  0  0  0  0  0  0  0
    2.6391    0.5940    0.0000 C   0  0  1  0  0  0  0  0  0  0  0  0
    1.5179    1.6168    0.0000 C   0  0  0  0  0  0  0  0  0  0  0  0
    3.0379    1.8038    0.0000 C   0  0  2  0  0  0  0  0  0  0  0  0
    4.8026    1.7960    0.0000 C   0  0  1  0  0  0  0  0  0  0  0  0
    3.3814    1.0934    0.0000 C   0  0  1  0  0  0  0  0  0  0  0  0
    0.7354    1.8782    0.0000 O   0  0  0  0  0  0  0  0  0  0  0  0
    2.2230    2.0744    0.0000 O   0  0  0  0  0  0  0  0  0  0  0  0
    3.9705    1.5831    0.0000 O   0  0  0  0  0  0  0  0  0  0  0  0
    4.3462    2.5046    0.0000 O   0  0  0  0  0  0  0  0  0  0  0  0
    3.6200    2.0443    0.0000 O   0  0  0  0  0  0  0  0  0  0  0  0
    4.5771   -0.1089    0.0000 H   0  0  0  0  0  0  0  0  0  0  0  0
    2.0311    0.0328    0.0000 H   0  0  0  0  0  0  0  0  0  0  0  0
    4.2932    1.1446    0.0000 H   0  0  0  0  0  0  0  0  0  0  0  0
    2.5077    1.4085    0.0000 H   0  0  0  0  0  0  0  0  0  0  0  0
    3.0085    2.6283    0.0000 H   0  0  0  0  0  0  0  0  0  0  0  0
    4.4500   -1.9720    0.0000 H   0  0  0  0  0  0  0  0  0  0  0  0
    5.4711   -0.4254    0.0000 H   0  0  0  0  0  0  0  0  0  0  0  0
    5.4070   -1.4935    0.0000 H   0  0  0  0  0  0  0  0  0  0  0  0
    0.2027    0.4576    0.0000 H   0  0  0  0  0  0  0  0  0  0  0  0
    1.5631   -0.8009    0.0000 H   0  0  0  0  0  0  0  0  0  0  0  0
    0.5196   -0.5644    0.0000 H   0  0  0  0  0  0  0  0  0  0  0  0
    6.4482    1.7829    0.0000 H   0  0  0  0  0  0  0  0  0  0  0  0
    5.4168    3.3227    0.0000 H   0  0  0  0  0  0  0  0  0  0  0  0
    6.3770    2.8506    0.0000 H   0  0  0  0  0  0  0  0  0  0  0  0
    2.9504   -1.9390    0.0000 H   0  0  0  0  0  0  0  0  0  0  0  0
    3.9964   -1.4744    0.0000 H   0  0  0  0  0  0  0  0  0  0  0  0
    1.5249   -0.5904    0.0000 H   0  0  0  0  0  0  0  0  0  0  0  0
    1.7142    0.4160    0.0000 H   0  0  0  0  0  0  0  0  0  0  0  0
    5.2968   -0.5382    0.0000 H   0  0  0  0  0  0  0  0  0  0  0  0
    4.2520   -0.5101    0.0000 H   0  0  0  0  0  0  0  0  0  0  0  0
    6.3583    1.0934    0.0000 H   0  0  0  0  0  0  0  0  0  0  0  0
    5.7858    2.0455    0.0000 H   0  0  0  0  0  0  0  0  0  0  0  0
  1 26  1  0  0  0  0
  1 27  1  0  0  0  0
  1 28  1  0  0  0  0
  2 29  1  0  0  0  0
  2 30  1  0  0  0  0
  2 31  1  0  0  0  0
  3 32  1  0  0  0  0
  3 33  1  0  0  0  0
  3 34  1  0  0  0  0
  4 35  1  0  0  0  0
  4 36  1  0  0  0  0
  5  4  1  0  0  0  0
  5 37  1  0  0  0  0
  5 38  1  0  0  0  0
  6 39  1  0  0  0  0
  6 40  1  0  0  0  0
  7  6  1  0  0  0  0
  7 41  1  0  0  0  0
  7 42  1  0  0  0  0
  8  1  1  0  0  0  0
  8  4  1  0  0  0  0
  8 21  1  1  0  0  0
  9  2  1  0  0  0  0
  9 22  1  6  0  0  0
 10  6  1  0  0  0  0
 10  8  1  0  0  0  0
 10 23  1  6  0  0  0
 11  5  1  0  0  0  0
 11  9  1  0  0  0  0
 11 24  1  6  0  0  0
 12  9  1  0  0  0  0
 13 25  1  1  0  0  0
 14  3  1  1  0  0  0
 14  7  1  0  0  0  0
 15 10  1  0  0  0  0
 15 11  1  0  0  0  0
 15 13  1  0  0  0  0
 15 20  1  6  0  0  0
 16 12  2  0  0  0  0
 17 12  1  0  0  0  0
 17 13  1  0  0  0  0
 18 13  1  0  0  0  0
 18 14  1  0  0  0  0
 19 14  1  0  0  0  0
 20 19  1  0  0  0  0
M  END
>  <DRUGBANK_ID>
DB13132

>  <COMMON_NAME>
Artemisinin

>  <CAS_NUMBER>
63968-64-9

>  <UNII>
9RMU91N5K2

>  <SYNONYMS>
Artemisinin; artemisinina

$$$$
