
 OpenBabel10282417072D

 49 53  0  0  0  0  0  0  0  0999 V2000
    2.7323    0.0000    0.0000 C   0  0  0  0  0  0  0  0  0  0  0  0
    2.7323   -0.8197    0.0000 C   0  0  0  0  0  0  0  0  0  0  0  0
    2.0205   -1.2367    0.0000 C   0  0  0  0  0  0  0  0  0  0  0  0
    2.0205   -2.0565    0.0000 C   0  0  0  0  0  0  0  0  0  0  0  0
    2.7323   -2.4735    0.0000 C   0  0  0  0  0  0  0  0  0  0  0  0
    3.4514   -2.0565    0.0000 C   0  0  0  0  0  0  0  0  0  0  0  0
    3.4514   -1.2367    0.0000 C   0  0  0  0  0  0  0  0  0  0  0  0
    4.2351   -0.9779    0.0000 N   0  0  0  0  0  0  0  0  0  0  0  0
    4.7169   -1.6466    0.0000 C   0  0  0  0  0  0  0  0  0  0  0  0
    4.2351   -2.3153    0.0000 N   0  0  0  0  0  0  0  0  0  0  0  0
    5.5438   -1.6466    0.0000 C   0  0  0  0  0  0  0  0  0  0  0  0
    5.9537   -2.3585    0.0000 C   0  0  0  0  0  0  0  0  0  0  0  0
    6.7805   -2.3585    0.0000 C   0  0  0  0  0  0  0  0  0  0  0  0
    7.1904   -1.6466    0.0000 C   0  0  0  0  0  0  0  0  0  0  0  0
    6.7805   -0.9347    0.0000 N   0  0  0  0  0  0  0  0  0  0  0  0
    5.9537   -0.9347    0.0000 C   0  0  0  0  0  0  0  0  0  0  0  0
    5.5438   -0.2157    0.0000 O   0  0  0  0  0  0  0  0  0  0  0  0
    5.5438   -3.0775    0.0000 N   0  0  0  0  0  0  0  0  0  0  0  0
    5.9537   -3.7894    0.0000 C   0  0  0  0  0  0  0  0  0  0  0  0
    5.5438   -4.5012    0.0000 C   0  0  0  0  0  0  0  0  0  0  0  0
    4.7169   -4.5012    0.0000 C   0  0  0  0  0  0  0  0  0  0  0  0
    4.3071   -5.2202    0.0000 C   0  0  0  0  0  0  0  0  0  0  0  0
    4.7169   -5.9321    0.0000 C   0  0  0  0  0  0  0  0  0  0  0  0
    5.5438   -5.9321    0.0000 C   0  0  0  0  0  0  0  0  0  0  0  0
    5.9537   -5.2202    0.0000 N   0  0  0  0  0  0  0  0  0  0  0  0
    1.3087   -2.4735    0.0000 N   0  0  0  0  0  0  0  0  0  0  0  0
    0.5537   -2.1356    0.0000 C   0  0  0  0  0  0  0  0  0  0  0  0
    0.0000   -2.7467    0.0000 C   0  0  0  0  0  0  0  0  0  0  0  0
    0.4098   -3.4658    0.0000 N   0  0  0  0  0  0  0  0  0  0  0  0
    1.2224   -3.2932    0.0000 C   0  0  0  0  0  0  0  0  0  0  0  0
    3.6589    0.5350    0.0000 H   0  0  0  0  0  0  0  0  0  0  0  0
    1.8057    0.5350    0.0000 H   0  0  0  0  0  0  0  0  0  0  0  0
    2.7323    1.0700    0.0000 H   0  0  0  0  0  0  0  0  0  0  0  0
    1.1251   -0.7235    0.0000 H   0  0  0  0  0  0  0  0  0  0  0  0
    2.7300   -3.5055    0.0000 H   0  0  0  0  0  0  0  0  0  0  0  0
    4.5389   -3.2517    0.0000 H   0  0  0  0  0  0  0  0  0  0  0  0
    7.2970   -3.2519    0.0000 H   0  0  0  0  0  0  0  0  0  0  0  0
    8.2224   -1.6466    0.0000 H   0  0  0  0  0  0  0  0  0  0  0  0
    7.2733   -0.0824    0.0000 H   0  0  0  0  0  0  0  0  0  0  0  0
    4.5593   -3.0796    0.0000 H   0  0  0  0  0  0  0  0  0  0  0  0
    7.0237   -3.7894    0.0000 H   0  0  0  0  0  0  0  0  0  0  0  0
    6.4892   -4.7158    0.0000 H   0  0  0  0  0  0  0  0  0  0  0  0
    4.1984   -3.6089    0.0000 H   0  0  0  0  0  0  0  0  0  0  0  0
    3.2751   -5.2224    0.0000 H   0  0  0  0  0  0  0  0  0  0  0  0
    4.2003   -6.8255    0.0000 H   0  0  0  0  0  0  0  0  0  0  0  0
    6.0603   -6.8255    0.0000 H   0  0  0  0  0  0  0  0  0  0  0  0
    0.3417   -1.1256    0.0000 H   0  0  0  0  0  0  0  0  0  0  0  0
   -1.0259   -2.6343    0.0000 H   0  0  0  0  0  0  0  0  0  0  0  0
    1.9892   -3.9839    0.0000 H   0  0  0  0  0  0  0  0  0  0  0  0
  1  2  1  0  0  0  0
  1 31  1  0  0  0  0
  1 32  1  0  0  0  0
  1 33  1  0  0  0  0
  2  3  2  0  0  0  0
  2  7  1  0  0  0  0
  3  4  1  0  0  0  0
  3 34  1  0  0  0  0
  4  5  2  0  0  0  0
  4 26  1  0  0  0  0
  5  6  1  0  0  0  0
  5 35  1  0  0  0  0
  6  7  2  0  0  0  0
  6 10  1  0  0  0  0
  7  8  1  0  0  0  0
  8  9  2  0  0  0  0
  9 10  1  0  0  0  0
  9 11  1  0  0  0  0
 10 36  1  0  0  0  0
 11 12  2  0  0  0  0
 11 16  1  0  0  0  0
 12 13  1  0  0  0  0
 12 18  1  0  0  0  0
 13 14  2  0  0  0  0
 13 37  1  0  0  0  0
 14 15  1  0  0  0  0
 14 38  1  0  0  0  0
 15 16  1  0  0  0  0
 15 39  1  0  0  0  0
 16 17  2  0  0  0  0
 18 19  1  0  0  0  0
 18 40  1  0  0  0  0
 19 20  1  0  0  0  0
 19 41  1  0  0  0  0
 19 42  1  0  0  0  0
 20 21  1  0  0  0  0
 20 25  2  0  0  0  0
 21 22  2  0  0  0  0
 21 43  1  0  0  0  0
 22 23  1  0  0  0  0
 22 44  1  0  0  0  0
 23 24  2  0  0  0  0
 23 45  1  0  0  0  0
 24 25  1  0  0  0  0
 24 46  1  0  0  0  0
 26 27  1  0  0  0  0
 26 30  1  0  0  0  0
 27 28  2  0  0  0  0
 27 47  1  0  0  0  0
 28 29  1  0  0  0  0
 28 48  1  0  0  0  0
 29 30  2  0  0  0  0
 30 49  1  0  0  0  0
M  END
>  <DRUGBANK_ID>
DB07474

>  <COMMON_NAME>
3-[5-(1H-IMIDAZOL-1-YL)-7-METHYL-1H-BENZIMIDAZOL-2-YL]-4-[(PYRIDIN-2-YLMETHYL)AMINO]PYRIDIN-2(1H)-ONE

$$$$
