
 OpenBabel10282417072D

152158  0  0  0  0  0  0  0  0999 V2000
    5.7590   -8.7973    0.0000 O   0  0  0  0  0  0  0  0  0  0  0  0
   -7.1699    8.9417    0.0000 O   0  0  0  0  0  0  0  0  0  0  0  0
    7.1880   -8.7973    0.0000 O   0  0  0  0  0  0  0  0  0  0  0  0
    4.3301  -10.4473    0.0000 O   0  0  0  0  0  0  0  0  0  0  0  0
    5.7590  -11.2723    0.0000 O   0  0  0  0  0  0  0  0  0  0  0  0
   -5.9324    8.2271    0.0000 O   0  0  0  0  0  0  0  0  0  0  0  0
   -7.5824   11.0851    0.0000 O   0  0  0  0  0  0  0  0  0  0  0  0
   -5.9324   11.0851    0.0000 O   0  0  0  0  0  0  0  0  0  0  0  0
    7.1880  -10.4473    0.0000 O   0  0  0  0  0  0  0  0  0  0  0  0
   -5.1073    9.6561    0.0000 O   0  0  0  0  0  0  0  0  0  0  0  0
    3.6156   -9.2098    0.0000 O   0  0  0  0  0  0  0  0  0  0  0  0
   -8.8199   10.3706    0.0000 O   0  0  0  0  0  0  0  0  0  0  0  0
    4.3095    2.5112    0.0000 O   0  0  0  0  0  0  0  0  0  0  0  0
    2.9011    3.9196    0.0000 O   0  0  0  0  0  0  0  0  0  0  0  0
    5.0446   -6.7347    0.0000 O   0  0  0  0  0  0  0  0  0  0  0  0
   -6.3449    4.6547    0.0000 O   0  0  0  0  0  0  0  0  0  0  0  0
    8.6170   -5.4972    0.0000 O   0  5  0  0  0  0  0  0  0  0  0  0
    9.3314   -6.7347    0.0000 O   0  0  0  0  0  0  0  0  0  0  0  0
   -8.8199    6.0837    0.0000 O   0  5  0  0  0  0  0  0  0  0  0  0
   -8.8199    7.5126    0.0000 O   0  0  0  0  0  0  0  0  0  0  0  0
    4.3301   -1.3721    0.0000 N   0  0  0  0  0  0  0  0  0  0  0  0
   -0.9823    3.9402    0.0000 N   0  0  0  0  0  0  0  0  0  0  0  0
    4.3301   -3.0222    0.0000 N   0  0  0  0  0  0  0  0  0  0  0  0
   -2.6323    3.9402    0.0000 N   0  0  0  0  0  0  0  0  0  0  0  0
    2.9011    1.1028    0.0000 N   0  0  0  0  0  0  0  0  0  0  0  0
    1.4927    2.5112    0.0000 N   0  0  0  0  0  0  0  0  0  0  0  0
    5.7590   -5.4972    0.0000 N   0  0  0  0  0  0  0  0  0  0  0  0
   -5.1073    5.3692    0.0000 N   0  0  0  0  0  0  0  0  0  0  0  0
    8.6170   -6.3222    0.0000 N   0  3  0  0  0  0  0  0  0  0  0  0
   -8.4074    6.7982    0.0000 N   0  3  0  0  0  0  0  0  0  0  0  0
    5.0446   -1.7846    0.0000 C   0  0  0  0  0  0  0  0  0  0  0  0
    3.6156   -1.7846    0.0000 C   0  0  0  0  0  0  0  0  0  0  0  0
   -1.3948    3.2258    0.0000 C   0  0  0  0  0  0  0  0  0  0  0  0
   -1.3948    4.6547    0.0000 C   0  0  0  0  0  0  0  0  0  0  0  0
    5.0446   -2.6096    0.0000 C   0  0  0  0  0  0  0  0  0  0  0  0
    3.6156   -2.6096    0.0000 C   0  0  0  0  0  0  0  0  0  0  0  0
   -2.2198    3.2258    0.0000 C   0  0  0  0  0  0  0  0  0  0  0  0
   -2.2198    4.6547    0.0000 C   0  0  0  0  0  0  0  0  0  0  0  0
    4.3301   -0.5471    0.0000 C   0  0  0  0  0  0  0  0  0  0  0  0
   -0.1572    3.9402    0.0000 C   0  0  0  0  0  0  0  0  0  0  0  0
    4.3301   -3.8472    0.0000 C   0  0  0  0  0  0  0  0  0  0  0  0
   -3.4573    3.9402    0.0000 C   0  0  0  0  0  0  0  0  0  0  0  0
    5.0446  -10.0348    0.0000 C   0  0  3  0  0  0  0  0  0  0  0  0
    5.7590  -10.4473    0.0000 C   0  0  3  0  0  0  0  0  0  0  0  0
   -7.1699   10.3706    0.0000 C   0  0  2  0  0  0  0  0  0  0  0  0
   -6.3449   10.3706    0.0000 C   0  0  1  0  0  0  0  0  0  0  0  0
    5.0446   -9.2098    0.0000 C   0  0  3  0  0  0  0  0  0  0  0  0
    6.4735  -10.0348    0.0000 C   0  0  3  0  0  0  0  0  0  0  0  0
   -7.5824    9.6561    0.0000 C   0  0  1  0  0  0  0  0  0  0  0  0
   -5.9324    9.6561    0.0000 C   0  0  2  0  0  0  0  0  0  0  0  0
    3.6156   -0.1346    0.0000 C   0  0  0  0  0  0  0  0  0  0  0  0
    0.2552    3.2258    0.0000 C   0  0  0  0  0  0  0  0  0  0  0  0
    6.4735   -9.2098    0.0000 C   0  0  3  0  0  0  0  0  0  0  0  0
   -6.3449    8.9417    0.0000 C   0  0  2  0  0  0  0  0  0  0  0  0
    5.0446   -4.2597    0.0000 C   0  0  0  0  0  0  0  0  0  0  0  0
   -3.8698    4.6547    0.0000 C   0  0  0  0  0  0  0  0  0  0  0  0
    3.6156    0.6903    0.0000 C   0  0  0  0  0  0  0  0  0  0  0  0
    1.0802    3.2258    0.0000 C   0  0  0  0  0  0  0  0  0  0  0  0
    4.3301   -8.7973    0.0000 C   0  0  0  0  0  0  0  0  0  0  0  0
   -8.4074    9.6561    0.0000 C   0  0  0  0  0  0  0  0  0  0  0  0
    5.0446   -5.0847    0.0000 C   0  0  0  0  0  0  0  0  0  0  0  0
   -4.6948    4.6547    0.0000 C   0  0  0  0  0  0  0  0  0  0  0  0
    2.9011    1.9279    0.0000 C   0  0  0  0  0  0  0  0  0  0  0  0
    2.3177    2.5112    0.0000 C   0  0  0  0  0  0  0  0  0  0  0  0
    3.4845    2.5112    0.0000 C   0  0  0  0  0  0  0  0  0  0  0  0
    2.9011    3.0946    0.0000 C   0  0  0  0  0  0  0  0  0  0  0  0
    7.1880   -7.9723    0.0000 C   0  0  0  0  0  0  0  0  0  0  0  0
   -6.3449    7.5126    0.0000 C   0  0  0  0  0  0  0  0  0  0  0  0
    5.7590   -6.3222    0.0000 C   0  0  0  0  0  0  0  0  0  0  0  0
   -5.9324    5.3692    0.0000 C   0  0  0  0  0  0  0  0  0  0  0  0
    6.4735   -6.7347    0.0000 C   0  0  0  0  0  0  0  0  0  0  0  0
    6.4735   -7.5598    0.0000 C   0  0  0  0  0  0  0  0  0  0  0  0
   -6.3449    6.0837    0.0000 C   0  0  0  0  0  0  0  0  0  0  0  0
   -5.9324    6.7982    0.0000 C   0  0  0  0  0  0  0  0  0  0  0  0
    7.9025   -7.5598    0.0000 C   0  0  0  0  0  0  0  0  0  0  0  0
   -7.1699    7.5126    0.0000 C   0  0  0  0  0  0  0  0  0  0  0  0
    7.1880   -6.3222    0.0000 C   0  0  0  0  0  0  0  0  0  0  0  0
   -7.1699    6.0837    0.0000 C   0  0  0  0  0  0  0  0  0  0  0  0
    7.9025   -6.7347    0.0000 C   0  0  0  0  0  0  0  0  0  0  0  0
   -7.5824    6.7982    0.0000 C   0  0  0  0  0  0  0  0  0  0  0  0
    3.4901   -9.9623    0.0000 H   0  0  0  0  0  0  0  0  0  0  0  0
    4.9190  -11.7573    0.0000 H   0  0  0  0  0  0  0  0  0  0  0  0
   -7.0974   11.9251    0.0000 H   0  0  0  0  0  0  0  0  0  0  0  0
   -4.9624   11.0851    0.0000 H   0  0  0  0  0  0  0  0  0  0  0  0
    7.1880  -11.4173    0.0000 H   0  0  0  0  0  0  0  0  0  0  0  0
   -4.6223    8.8161    0.0000 H   0  0  0  0  0  0  0  0  0  0  0  0
    2.7756   -8.7248    0.0000 H   0  0  0  0  0  0  0  0  0  0  0  0
   -8.3349   11.2106    0.0000 H   0  0  0  0  0  0  0  0  0  0  0  0
    2.0485    0.6105    0.0000 H   0  0  0  0  0  0  0  0  0  0  0  0
    1.0004    1.6586    0.0000 H   0  0  0  0  0  0  0  0  0  0  0  0
    6.6116   -5.0050    0.0000 H   0  0  0  0  0  0  0  0  0  0  0  0
   -4.6150    6.2218    0.0000 H   0  0  0  0  0  0  0  0  0  0  0  0
    5.9712   -1.2496    0.0000 H   0  0  0  0  0  0  0  0  0  0  0  0
    5.9712   -2.3196    0.0000 H   0  0  0  0  0  0  0  0  0  0  0  0
    2.6890   -1.2496    0.0000 H   0  0  0  0  0  0  0  0  0  0  0  0
    2.6890   -2.3196    0.0000 H   0  0  0  0  0  0  0  0  0  0  0  0
   -0.8598    2.2991    0.0000 H   0  0  0  0  0  0  0  0  0  0  0  0
   -1.9298    2.2992    0.0000 H   0  0  0  0  0  0  0  0  0  0  0  0
   -0.8598    5.5813    0.0000 H   0  0  0  0  0  0  0  0  0  0  0  0
   -1.9298    5.5813    0.0000 H   0  0  0  0  0  0  0  0  0  0  0  0
    5.9713   -3.1446    0.0000 H   0  0  0  0  0  0  0  0  0  0  0  0
    5.9712   -2.0746    0.0000 H   0  0  0  0  0  0  0  0  0  0  0  0
    2.6889   -3.1446    0.0000 H   0  0  0  0  0  0  0  0  0  0  0  0
    2.6890   -2.0746    0.0000 H   0  0  0  0  0  0  0  0  0  0  0  0
   -2.7548    2.2991    0.0000 H   0  0  0  0  0  0  0  0  0  0  0  0
   -1.6848    2.2992    0.0000 H   0  0  0  0  0  0  0  0  0  0  0  0
   -2.7548    5.5813    0.0000 H   0  0  0  0  0  0  0  0  0  0  0  0
   -1.6848    5.5813    0.0000 H   0  0  0  0  0  0  0  0  0  0  0  0
    5.2567   -0.0121    0.0000 H   0  0  0  0  0  0  0  0  0  0  0  0
    4.3301    0.5229    0.0000 H   0  0  0  0  0  0  0  0  0  0  0  0
    0.3778    4.8668    0.0000 H   0  0  0  0  0  0  0  0  0  0  0  0
    0.9128    3.9402    0.0000 H   0  0  0  0  0  0  0  0  0  0  0  0
    3.4035   -4.3822    0.0000 H   0  0  0  0  0  0  0  0  0  0  0  0
    4.3301   -4.9172    0.0000 H   0  0  0  0  0  0  0  0  0  0  0  0
   -3.9923    3.0136    0.0000 H   0  0  0  0  0  0  0  0  0  0  0  0
   -4.5273    3.9402    0.0000 H   0  0  0  0  0  0  0  0  0  0  0  0
    5.0446  -11.1048    0.0000 H   0  0  0  0  0  0  0  0  0  0  0  0
    4.8323  -10.9823    0.0000 H   0  0  0  0  0  0  0  0  0  0  0  0
   -6.6349   11.2972    0.0000 H   0  0  0  0  0  0  0  0  0  0  0  0
   -6.8799   11.2972    0.0000 H   0  0  0  0  0  0  0  0  0  0  0  0
    5.9713   -9.7448    0.0000 H   0  0  0  0  0  0  0  0  0  0  0  0
    6.4735  -11.1048    0.0000 H   0  0  0  0  0  0  0  0  0  0  0  0
   -8.1174    8.7294    0.0000 H   0  0  0  0  0  0  0  0  0  0  0  0
   -5.3974   10.5827    0.0000 H   0  0  0  0  0  0  0  0  0  0  0  0
    2.6890   -0.6696    0.0000 H   0  0  0  0  0  0  0  0  0  0  0  0
    2.6890    0.4004    0.0000 H   0  0  0  0  0  0  0  0  0  0  0  0
   -0.2798    2.2992    0.0000 H   0  0  0  0  0  0  0  0  0  0  0  0
    0.7902    2.2991    0.0000 H   0  0  0  0  0  0  0  0  0  0  0  0
    6.4735   -8.1398    0.0000 H   0  0  0  0  0  0  0  0  0  0  0  0
   -6.8799    8.0151    0.0000 H   0  0  0  0  0  0  0  0  0  0  0  0
    5.9712   -3.7247    0.0000 H   0  0  0  0  0  0  0  0  0  0  0  0
    5.9712   -4.7947    0.0000 H   0  0  0  0  0  0  0  0  0  0  0  0
   -3.3348    5.5813    0.0000 H   0  0  0  0  0  0  0  0  0  0  0  0
   -4.4048    5.5813    0.0000 H   0  0  0  0  0  0  0  0  0  0  0  0
    4.5422    1.2253    0.0000 H   0  0  0  0  0  0  0  0  0  0  0  0
    4.5422    0.1553    0.0000 H   0  0  0  0  0  0  0  0  0  0  0  0
    1.6152    4.1524    0.0000 H   0  0  0  0  0  0  0  0  0  0  0  0
    0.5452    4.1525    0.0000 H   0  0  0  0  0  0  0  0  0  0  0  0
    4.3301   -7.7273    0.0000 H   0  0  0  0  0  0  0  0  0  0  0  0
    5.2567   -8.2623    0.0000 H   0  0  0  0  0  0  0  0  0  0  0  0
   -8.9424    8.7295    0.0000 H   0  0  0  0  0  0  0  0  0  0  0  0
   -7.8724    8.7295    0.0000 H   0  0  0  0  0  0  0  0  0  0  0  0
    4.1179   -5.6197    0.0000 H   0  0  0  0  0  0  0  0  0  0  0  0
    4.1180   -4.5497    0.0000 H   0  0  0  0  0  0  0  0  0  0  0  0
   -5.2298    3.7281    0.0000 H   0  0  0  0  0  0  0  0  0  0  0  0
   -4.1598    3.7281    0.0000 H   0  0  0  0  0  0  0  0  0  0  0  0
    5.5798   -8.0758    0.0000 H   0  0  0  0  0  0  0  0  0  0  0  0
   -4.9004    6.7982    0.0000 H   0  0  0  0  0  0  0  0  0  0  0  0
    8.7962   -8.0758    0.0000 H   0  0  0  0  0  0  0  0  0  0  0  0
   -7.6859    8.4063    0.0000 H   0  0  0  0  0  0  0  0  0  0  0  0
    7.1880   -5.2902    0.0000 H   0  0  0  0  0  0  0  0  0  0  0  0
   -7.6859    5.1900    0.0000 H   0  0  0  0  0  0  0  0  0  0  0  0
  1 47  1  0  0  0  0
  1 53  1  0  0  0  0
  2 49  1  0  0  0  0
  2 54  1  0  0  0  0
  3 53  1  0  0  0  0
  3 67  1  0  0  0  0
  4 43  1  0  0  0  0
  4 81  1  0  0  0  0
  5 44  1  0  0  0  0
  5 82  1  0  0  0  0
  6 68  1  0  0  0  0
  7 83  1  0  0  0  0
  8 84  1  0  0  0  0
  9 48  1  0  0  0  0
  9 85  1  0  0  0  0
 10 86  1  0  0  0  0
 11 59  1  0  0  0  0
 11 87  1  0  0  0  0
 12 60  1  0  0  0  0
 12 88  1  0  0  0  0
 13 65  2  0  0  0  0
 14 66  2  0  0  0  0
 15 69  2  0  0  0  0
 16 70  2  0  0  0  0
 17 29  1  0  0  0  0
 18 29  2  0  0  0  0
 19 30  1  0  0  0  0
 20 30  2  0  0  0  0
 21 31  1  0  0  0  0
 21 32  1  0  0  0  0
 21 39  1  0  0  0  0
 22 33  1  0  0  0  0
 22 34  1  0  0  0  0
 22 40  1  0  0  0  0
 23 35  1  0  0  0  0
 23 36  1  0  0  0  0
 23 41  1  0  0  0  0
 24 37  1  0  0  0  0
 24 38  1  0  0  0  0
 24 42  1  0  0  0  0
 25 57  1  0  0  0  0
 25 63  1  0  0  0  0
 25 89  1  0  0  0  0
 26 58  1  0  0  0  0
 26 64  1  0  0  0  0
 26 90  1  0  0  0  0
 27 61  1  0  0  0  0
 27 69  1  0  0  0  0
 27 91  1  0  0  0  0
 28 62  1  0  0  0  0
 28 70  1  0  0  0  0
 28 92  1  0  0  0  0
 29 79  1  0  0  0  0
 30 80  1  0  0  0  0
 31 35  1  0  0  0  0
 31 93  1  0  0  0  0
 31 94  1  0  0  0  0
 32 36  1  0  0  0  0
 32 95  1  0  0  0  0
 32 96  1  0  0  0  0
 33 37  1  0  0  0  0
 33 97  1  0  0  0  0
 33 98  1  0  0  0  0
 34 38  1  0  0  0  0
 34 99  1  0  0  0  0
 34100  1  0  0  0  0
 35101  1  0  0  0  0
 35102  1  0  0  0  0
 36103  1  0  0  0  0
 36104  1  0  0  0  0
 37105  1  0  0  0  0
 37106  1  0  0  0  0
 38107  1  0  0  0  0
 38108  1  0  0  0  0
 39 51  1  0  0  0  0
 39109  1  0  0  0  0
 39110  1  0  0  0  0
 40 52  1  0  0  0  0
 40111  1  0  0  0  0
 40112  1  0  0  0  0
 41 55  1  0  0  0  0
 41113  1  0  0  0  0
 41114  1  0  0  0  0
 42 56  1  0  0  0  0
 42115  1  0  0  0  0
 42116  1  0  0  0  0
 43 44  1  0  0  0  0
 43 47  1  0  0  0  0
 43117  1  0  0  0  0
 44 48  1  0  0  0  0
 44118  1  0  0  0  0
 45  7  1  0  0  0  0
 45 46  1  0  0  0  0
 45 49  1  0  0  0  0
 45119  1  1  0  0  0
 46  8  1  0  0  0  0
 46 50  1  0  0  0  0
 46120  1  1  0  0  0
 47 59  1  0  0  0  0
 47121  1  0  0  0  0
 48 53  1  0  0  0  0
 48122  1  0  0  0  0
 49 60  1  0  0  0  0
 49123  1  1  0  0  0
 50 10  1  0  0  0  0
 50 54  1  0  0  0  0
 50124  1  6  0  0  0
 51 57  1  0  0  0  0
 51125  1  0  0  0  0
 51126  1  0  0  0  0
 52 58  1  0  0  0  0
 52127  1  0  0  0  0
 52128  1  0  0  0  0
 53129  1  0  0  0  0
 54  6  1  0  0  0  0
 54130  1  6  0  0  0
 55 61  1  0  0  0  0
 55131  1  0  0  0  0
 55132  1  0  0  0  0
 56 62  1  0  0  0  0
 56133  1  0  0  0  0
 56134  1  0  0  0  0
 57135  1  0  0  0  0
 57136  1  0  0  0  0
 58137  1  0  0  0  0
 58138  1  0  0  0  0
 59139  1  0  0  0  0
 59140  1  0  0  0  0
 60141  1  0  0  0  0
 60142  1  0  0  0  0
 61143  1  0  0  0  0
 61144  1  0  0  0  0
 62145  1  0  0  0  0
 62146  1  0  0  0  0
 63 64  2  0  0  0  0
 63 65  1  0  0  0  0
 64 66  1  0  0  0  0
 65 66  1  0  0  0  0
 67 72  2  0  0  0  0
 67 75  1  0  0  0  0
 68 74  2  0  0  0  0
 68 76  1  0  0  0  0
 69 71  1  0  0  0  0
 70 73  1  0  0  0  0
 71 72  1  0  0  0  0
 71 77  2  0  0  0  0
 72147  1  0  0  0  0
 73 74  1  0  0  0  0
 73 78  2  0  0  0  0
 74148  1  0  0  0  0
 75 79  2  0  0  0  0
 75149  1  0  0  0  0
 76 80  2  0  0  0  0
 76150  1  0  0  0  0
 77 79  1  0  0  0  0
 77151  1  0  0  0  0
 78 80  1  0  0  0  0
 78152  1  0  0  0  0
M  CHG  4  17  -1  19  -1  29   1  30   1
M  END
>  <DRUGBANK_ID>
DB04210

>  <SECONDARY_ACCESSION_NUMBERS>
EXPT00779

>  <COMMON_NAME>
3-(alpha-D-galactopyranosyloxy)-N-(3-{4-[3-({2-[(3-{4-[3-({[3-(hexopyranosyloxy)-5-nitrophenyl]carbonyl}amino)propyl]piperazin-1-yl}propyl)amino]-3,4-dioxocyclobut-1-en-1-yl}amino)propyl]piperazin-1-yl}propyl)-5-nitrobenzamide

$$$$
