
 OpenBabel10282417072D

 87 88  0  0  1  0  0  0  0  0999 V2000
   -4.1027   -4.5375    0.0000 Na  0  3  0  0  0  0  0  0  0  0  0  0
    3.9113    0.2930    0.0000 N   0  0  0  0  0  0  0  0  0  0  0  0
    3.4988   -0.4213    0.0000 C   0  0  0  0  0  0  0  0  0  0  0  0
    2.7843   -0.0088    0.0000 C   0  0  0  0  0  0  0  0  0  0  0  0
    2.0698   -0.4213    0.0000 O   0  0  0  0  0  0  0  0  0  0  0  0
    4.2132   -0.8338    0.0000 C   0  0  0  0  0  0  0  0  0  0  0  0
    4.9277   -0.4213    0.0000 O   0  0  0  0  0  0  0  0  0  0  0  0
    3.0863   -1.1358    0.0000 C   0  0  0  0  0  0  0  0  0  0  0  0
    2.2613   -1.1358    0.0000 O   0  0  0  0  0  0  0  0  0  0  0  0
   -3.2777   -2.8875    0.0000 O   0  0  0  0  0  0  0  0  0  0  0  0
   -4.1027   -2.8875    0.0000 P   0  0  3  0  0  0  0  0  0  0  0  0
   -4.1027   -3.7125    0.0000 O   0  5  0  0  0  0  0  0  0  0  0  0
   -4.9277   -2.8875    0.0000 O   0  0  0  0  0  0  0  0  0  0  0  0
   -4.1027   -2.0625    0.0000 O   0  0  0  0  0  0  0  0  0  0  0  0
   -3.3882   -1.6500    0.0000 C   0  0  0  0  0  0  0  0  0  0  0  0
   -3.3882   -0.8250    0.0000 O   0  0  0  0  0  0  0  0  0  0  0  0
   -2.6737   -0.4125    0.0000 C   0  0  1  0  0  0  0  0  0  0  0  0
   -2.6737    0.4125    0.0000 C   0  0  0  0  0  0  0  0  0  0  0  0
   -1.9592    0.8250    0.0000 C   0  0  3  0  0  0  0  0  0  0  0  0
   -1.2447    0.4125    0.0000 C   0  0  0  0  0  0  0  0  0  0  0  0
   -1.2447   -0.4125    0.0000 C   0  0  0  0  0  0  0  0  0  0  0  0
   -1.9592   -0.8250    0.0000 C   0  0  3  0  0  0  0  0  0  0  0  0
   -1.8218   -0.2749    0.0000 C   0  0  0  0  0  0  0  0  0  0  0  0
   -1.8218    0.2750    0.0000 C   0  0  0  0  0  0  0  0  0  0  0  0
   -1.9592   -1.6500    0.0000 N   0  0  0  0  0  0  0  0  0  0  0  0
   -1.2447   -2.0625    0.0000 C   0  0  0  0  0  0  0  0  0  0  0  0
   -0.5303   -1.6500    0.0000 O   0  0  0  0  0  0  0  0  0  0  0  0
   -1.2447   -2.8875    0.0000 C   0  0  0  0  0  0  0  0  0  0  0  0
   -0.5303   -3.3000    0.0000 O   0  0  0  0  0  0  0  0  0  0  0  0
   -0.5303   -4.1250    0.0000 C   0  0  0  0  0  0  0  0  0  0  0  0
    0.1841   -4.5375    0.0000 C   0  0  0  0  0  0  0  0  0  0  0  0
    0.1841   -5.3625    0.0000 C   0  0  0  0  0  0  0  0  0  0  0  0
   -0.5303   -5.7750    0.0000 C   0  0  0  0  0  0  0  0  0  0  0  0
   -0.5303   -6.6000    0.0000 Cl  0  0  0  0  0  0  0  0  0  0  0  0
   -1.2447   -5.3625    0.0000 C   0  0  0  0  0  0  0  0  0  0  0  0
   -1.9592   -5.7750    0.0000 F   0  0  0  0  0  0  0  0  0  0  0  0
   -1.2447   -4.5375    0.0000 C   0  0  0  0  0  0  0  0  0  0  0  0
   -1.9592    1.6500    0.0000 N   0  0  0  0  0  0  0  0  0  0  0  0
   -2.6737    2.0625    0.0000 C   0  0  0  0  0  0  0  0  0  0  0  0
   -3.3882    1.6500    0.0000 O   0  0  0  0  0  0  0  0  0  0  0  0
   -2.6737    2.8875    0.0000 C   0  0  0  0  0  0  0  0  0  0  0  0
   -3.3882    3.3000    0.0000 O   0  0  0  0  0  0  0  0  0  0  0  0
   -3.3882    4.1250    0.0000 C   0  0  0  0  0  0  0  0  0  0  0  0
   -4.1027    4.5375    0.0000 C   0  0  0  0  0  0  0  0  0  0  0  0
   -4.1027    5.3625    0.0000 C   0  0  0  0  0  0  0  0  0  0  0  0
   -3.3882    5.7750    0.0000 C   0  0  0  0  0  0  0  0  0  0  0  0
   -3.3882    6.6000    0.0000 Cl  0  0  0  0  0  0  0  0  0  0  0  0
   -2.6737    5.3625    0.0000 C   0  0  0  0  0  0  0  0  0  0  0  0
   -1.9592    5.7750    0.0000 F   0  0  0  0  0  0  0  0  0  0  0  0
   -2.6737    4.5375    0.0000 C   0  0  0  0  0  0  0  0  0  0  0  0
    4.9313    0.2929    0.0000 H   0  0  0  0  0  0  0  0  0  0  0  0
    3.4014    1.1764    0.0000 H   0  0  0  0  0  0  0  0  0  0  0  0
    2.7843    1.0612    0.0000 H   0  0  0  0  0  0  0  0  0  0  0  0
    1.8577    0.5262    0.0000 H   0  0  0  0  0  0  0  0  0  0  0  0
    1.2298    0.0637    0.0000 H   0  0  0  0  0  0  0  0  0  0  0  0
    4.2132   -1.9038    0.0000 H   0  0  0  0  0  0  0  0  0  0  0  0
    5.1398   -1.3688    0.0000 H   0  0  0  0  0  0  0  0  0  0  0  0
    5.7677   -0.9063    0.0000 H   0  0  0  0  0  0  0  0  0  0  0  0
    3.6213   -2.0624    0.0000 H   0  0  0  0  0  0  0  0  0  0  0  0
    2.5513   -2.0624    0.0000 H   0  0  0  0  0  0  0  0  0  0  0  0
    1.7763   -0.2958    0.0000 H   0  0  0  0  0  0  0  0  0  0  0  0
   -2.7927   -3.7275    0.0000 H   0  0  0  0  0  0  0  0  0  0  0  0
   -2.4616   -2.1850    0.0000 H   0  0  0  0  0  0  0  0  0  0  0  0
   -2.4616   -1.1150    0.0000 H   0  0  0  0  0  0  0  0  0  0  0  0
   -3.6003    0.1225    0.0000 H   0  0  0  0  0  0  0  0  0  0  0  0
   -3.6003    0.9475    0.0000 H   0  0  0  0  0  0  0  0  0  0  0  0
   -2.6737    1.4825    0.0000 H   0  0  0  0  0  0  0  0  0  0  0  0
   -0.3181    0.9475    0.0000 H   0  0  0  0  0  0  0  0  0  0  0  0
   -0.3181   -0.1225    0.0000 H   0  0  0  0  0  0  0  0  0  0  0  0
   -0.3181   -0.9475    0.0000 H   0  0  0  0  0  0  0  0  0  0  0  0
   -1.2447   -1.4825    0.0000 H   0  0  0  0  0  0  0  0  0  0  0  0
   -0.7598   -0.4055    0.0000 H   0  0  0  0  0  0  0  0  0  0  0  0
   -1.0203    0.4340    0.0000 H   0  0  0  0  0  0  0  0  0  0  0  0
   -0.7598    0.4056    0.0000 H   0  0  0  0  0  0  0  0  0  0  0  0
   -1.2161    1.1570    0.0000 H   0  0  0  0  0  0  0  0  0  0  0  0
   -2.8118   -2.1423    0.0000 H   0  0  0  0  0  0  0  0  0  0  0  0
   -2.1714   -3.4225    0.0000 H   0  0  0  0  0  0  0  0  0  0  0  0
   -1.2447   -3.9575    0.0000 H   0  0  0  0  0  0  0  0  0  0  0  0
    1.0778   -4.0215    0.0000 H   0  0  0  0  0  0  0  0  0  0  0  0
    1.0778   -5.8785    0.0000 H   0  0  0  0  0  0  0  0  0  0  0  0
   -2.1384   -4.0215    0.0000 H   0  0  0  0  0  0  0  0  0  0  0  0
   -1.1066    2.1423    0.0000 H   0  0  0  0  0  0  0  0  0  0  0  0
   -1.7471    3.4225    0.0000 H   0  0  0  0  0  0  0  0  0  0  0  0
   -2.6737    3.9575    0.0000 H   0  0  0  0  0  0  0  0  0  0  0  0
   -4.9964    4.0215    0.0000 H   0  0  0  0  0  0  0  0  0  0  0  0
   -4.9964    5.8785    0.0000 H   0  0  0  0  0  0  0  0  0  0  0  0
   -1.7800    4.0215    0.0000 H   0  0  0  0  0  0  0  0  0  0  0  0
  2  3  1  0  0  0  0
  2 51  1  0  0  0  0
  2 52  1  0  0  0  0
  3  4  1  0  0  0  0
  3  6  1  0  0  0  0
  3  8  1  0  0  0  0
  4  5  1  0  0  0  0
  4 53  1  0  0  0  0
  4 54  1  0  0  0  0
  5 55  1  0  0  0  0
  6  7  1  0  0  0  0
  6 56  1  0  0  0  0
  6 57  1  0  0  0  0
  7 58  1  0  0  0  0
  8  9  1  0  0  0  0
  8 59  1  0  0  0  0
  8 60  1  0  0  0  0
  9 61  1  0  0  0  0
 10 11  1  0  0  0  0
 10 62  1  0  0  0  0
 11 12  1  0  0  0  0
 11 13  2  0  0  0  0
 11 14  1  0  0  0  0
 14 15  1  0  0  0  0
 15 16  1  0  0  0  0
 15 63  1  0  0  0  0
 15 64  1  0  0  0  0
 17 16  1  0  0  0  0
 17 18  1  0  0  0  0
 17 22  1  0  0  0  0
 17 65  1  6  0  0  0
 18 19  1  0  0  0  0
 18 66  1  0  0  0  0
 18 67  1  0  0  0  0
 19 20  1  0  0  0  0
 19 24  1  0  0  0  0
 19 38  1  0  0  0  0
 20 21  1  0  0  0  0
 20 68  1  0  0  0  0
 20 69  1  0  0  0  0
 21 22  1  0  0  0  0
 21 70  1  0  0  0  0
 21 71  1  0  0  0  0
 22 23  1  0  0  0  0
 22 25  1  0  0  0  0
 23 24  1  0  0  0  0
 23 72  1  0  0  0  0
 23 73  1  0  0  0  0
 24 74  1  0  0  0  0
 24 75  1  0  0  0  0
 25 26  1  0  0  0  0
 25 76  1  0  0  0  0
 26 27  2  0  0  0  0
 26 28  1  0  0  0  0
 28 29  1  0  0  0  0
 28 77  1  0  0  0  0
 28 78  1  0  0  0  0
 29 30  1  0  0  0  0
 30 31  2  0  0  0  0
 30 37  1  0  0  0  0
 31 32  1  0  0  0  0
 31 79  1  0  0  0  0
 32 33  2  0  0  0  0
 32 80  1  0  0  0  0
 33 34  1  0  0  0  0
 33 35  1  0  0  0  0
 35 36  1  0  0  0  0
 35 37  2  0  0  0  0
 37 81  1  0  0  0  0
 38 39  1  0  0  0  0
 38 82  1  0  0  0  0
 39 40  2  0  0  0  0
 39 41  1  0  0  0  0
 41 42  1  0  0  0  0
 41 83  1  0  0  0  0
 41 84  1  0  0  0  0
 42 43  1  0  0  0  0
 43 44  2  0  0  0  0
 43 50  1  0  0  0  0
 44 45  1  0  0  0  0
 44 85  1  0  0  0  0
 45 46  2  0  0  0  0
 45 86  1  0  0  0  0
 46 47  1  0  0  0  0
 46 48  1  0  0  0  0
 48 49  1  0  0  0  0
 48 50  2  0  0  0  0
 50 87  1  0  0  0  0
M  CHG  2   1   1  12  -1
M  END
>  <DRUGBANK_ID>
DB18407

>  <COMMON_NAME>
ABBV-CLS-7262

>  <UNII>
BN9FN5629V

>  <SYNONYMS>
Sodium ({(2S)-1,4-bis[2-(4-chloro-3- fluorophenoxy)acetamido]bicyclo[2.2.2]octan-2- yl}oxy)methyl hydrogen phosphate - 2-amino-2- (hydroxymethyl)propane-1,3-diol (1/1/1)

$$$$
