76V
 OpenBabel10282417072D

 57 57  0  0  0  0  0  0  0  0999 V2000
    2.6774    3.7030    0.0000 C   0  0  0  0  0  0  0  0  0  0  0  0
    3.2175    4.3266    0.0000 C   0  0  0  0  0  0  0  0  0  0  0  0
    2.4075    2.2998    0.0000 C   0  0  0  0  0  0  0  0  0  0  0  0
    1.5972    2.4556    0.0000 O   0  0  0  0  0  0  0  0  0  0  0  0
    2.9475    2.9234    0.0000 O   0  0  0  0  0  0  0  0  0  0  0  0
    2.5215    0.7101    0.0000 C   0  0  2  0  0  0  0  0  0  0  0  0
    2.6774    1.5202    0.0000 C   0  0  2  0  0  0  0  0  0  0  0  0
    3.3012    0.9801    0.0000 O   0  0  0  0  0  0  0  0  0  0  0  0
    1.9815    0.0864    0.0000 C   0  0  0  0  0  0  0  0  0  0  0  0
    2.2516   -0.6932    0.0000 O   0  0  0  0  0  0  0  0  0  0  0  0
    1.1713    0.2423    0.0000 N   0  0  0  0  0  0  0  0  0  0  0  0
    0.6312   -0.3813    0.0000 C   0  0  2  0  0  0  0  0  0  0  0  0
   -0.1789   -0.2254    0.0000 C   0  0  0  0  0  0  0  0  0  0  0  0
   -0.4490    0.5541    0.0000 O   0  0  0  0  0  0  0  0  0  0  0  0
    0.9012   -1.1609    0.0000 C   0  0  2  0  0  0  0  0  0  0  0  0
    1.7114   -1.3168    0.0000 C   0  0  0  0  0  0  0  0  0  0  0  0
    0.3612   -1.7845    0.0000 C   0  0  0  0  0  0  0  0  0  0  0  0
    1.9815   -2.0964    0.0000 C   0  0  0  0  0  0  0  0  0  0  0  0
   -0.7191   -0.8491    0.0000 N   0  0  0  0  0  0  0  0  0  0  0  0
   -1.5292   -0.6932    0.0000 C   0  0  2  0  0  0  0  0  0  0  0  0
   -1.7992    0.0864    0.0000 C   0  0  0  0  0  0  0  0  0  0  0  0
   -2.6093    0.2423    0.0000 O   0  0  0  0  0  0  0  0  0  0  0  0
   -2.0693   -1.3168    0.0000 C   0  0  2  0  0  0  0  0  0  0  0  0
   -2.8794   -1.1609    0.0000 C   0  0  0  0  0  0  0  0  0  0  0  0
   -1.7992   -2.0964    0.0000 C   0  0  0  0  0  0  0  0  0  0  0  0
   -3.4196   -1.7845    0.0000 C   0  0  0  0  0  0  0  0  0  0  0  0
   -1.2591    0.7101    0.0000 O   0  0  0  0  0  0  0  0  0  0  0  0
    1.9963    0.9650    0.0000 H   0  0  0  0  0  0  0  0  0  0  0  0
    2.0951    1.4784    0.0000 H   0  0  0  0  0  0  0  0  0  0  0  0
    0.4401    0.1704    0.0000 H   0  0  0  0  0  0  0  0  0  0  0  0
    1.2835   -0.7196    0.0000 H   0  0  0  0  0  0  0  0  0  0  0  0
   -1.1469   -0.2517    0.0000 H   0  0  0  0  0  0  0  0  0  0  0  0
   -2.2605   -0.7651    0.0000 H   0  0  0  0  0  0  0  0  0  0  0  0
    1.6267    3.9052    0.0000 H   0  0  0  0  0  0  0  0  0  0  0  0
    1.9769    2.8941    0.0000 H   0  0  0  0  0  0  0  0  0  0  0  0
    4.2682    4.1243    0.0000 H   0  0  0  0  0  0  0  0  0  0  0  0
    2.8673    5.3377    0.0000 H   0  0  0  0  0  0  0  0  0  0  0  0
    3.9180    5.1354    0.0000 H   0  0  0  0  0  0  0  0  0  0  0  0
    0.8491    1.1726    0.0000 H   0  0  0  0  0  0  0  0  0  0  0  0
    2.4119   -0.5079    0.0000 H   0  0  0  0  0  0  0  0  0  0  0  0
    2.7621   -1.5190    0.0000 H   0  0  0  0  0  0  0  0  0  0  0  0
   -0.6895   -1.5823    0.0000 H   0  0  0  0  0  0  0  0  0  0  0  0
    0.7115   -2.7955    0.0000 H   0  0  0  0  0  0  0  0  0  0  0  0
   -0.3392   -2.5934    0.0000 H   0  0  0  0  0  0  0  0  0  0  0  0
    1.2811   -2.9053    0.0000 H   0  0  0  0  0  0  0  0  0  0  0  0
    3.0322   -2.2986    0.0000 H   0  0  0  0  0  0  0  0  0  0  0  0
    2.3318   -3.1074    0.0000 H   0  0  0  0  0  0  0  0  0  0  0  0
   -0.3969   -1.7794    0.0000 H   0  0  0  0  0  0  0  0  0  0  0  0
   -2.9160    1.1277    0.0000 H   0  0  0  0  0  0  0  0  0  0  0  0
   -3.2296   -0.1498    0.0000 H   0  0  0  0  0  0  0  0  0  0  0  0
   -3.9301   -0.9586    0.0000 H   0  0  0  0  0  0  0  0  0  0  0  0
   -2.4996   -2.9053    0.0000 H   0  0  0  0  0  0  0  0  0  0  0  0
   -0.7485   -2.2986    0.0000 H   0  0  0  0  0  0  0  0  0  0  0  0
   -1.4489   -3.1074    0.0000 H   0  0  0  0  0  0  0  0  0  0  0  0
   -4.4703   -1.5821    0.0000 H   0  0  0  0  0  0  0  0  0  0  0  0
   -3.0695   -2.7956    0.0000 H   0  0  0  0  0  0  0  0  0  0  0  0
   -4.1202   -2.5932    0.0000 H   0  0  0  0  0  0  0  0  0  0  0  0
  1  2  1  0  0  0  0
  1  5  1  0  0  0  0
  1 34  1  0  0  0  0
  1 35  1  0  0  0  0
  2 36  1  0  0  0  0
  2 37  1  0  0  0  0
  2 38  1  0  0  0  0
  3  4  2  0  0  0  0
  3  5  1  0  0  0  0
  6  7  1  0  0  0  0
  6  8  1  0  0  0  0
  6  9  1  0  0  0  0
  6 28  1  1  0  0  0
  7  3  1  0  0  0  0
  7  8  1  0  0  0  0
  7 29  1  6  0  0  0
  9 10  2  0  0  0  0
  9 11  1  0  0  0  0
 11 39  1  0  0  0  0
 12 11  1  0  0  0  0
 12 13  1  0  0  0  0
 12 15  1  0  0  0  0
 12 30  1  6  0  0  0
 13 14  2  0  0  0  0
 13 19  1  0  0  0  0
 15 16  1  0  0  0  0
 15 17  1  0  0  0  0
 15 31  1  1  0  0  0
 16 18  1  0  0  0  0
 16 40  1  0  0  0  0
 16 41  1  0  0  0  0
 17 42  1  0  0  0  0
 17 43  1  0  0  0  0
 17 44  1  0  0  0  0
 18 45  1  0  0  0  0
 18 46  1  0  0  0  0
 18 47  1  0  0  0  0
 19 48  1  0  0  0  0
 20 19  1  0  0  0  0
 20 21  1  0  0  0  0
 20 23  1  0  0  0  0
 20 32  1  6  0  0  0
 21 22  1  0  0  0  0
 21 27  2  0  0  0  0
 22 49  1  0  0  0  0
 23 24  1  0  0  0  0
 23 25  1  0  0  0  0
 23 33  1  6  0  0  0
 24 26  1  0  0  0  0
 24 50  1  0  0  0  0
 24 51  1  0  0  0  0
 25 52  1  0  0  0  0
 25 53  1  0  0  0  0
 25 54  1  0  0  0  0
 26 55  1  0  0  0  0
 26 56  1  0  0  0  0
 26 57  1  0  0  0  0
M  END
>  <DRUGBANK_ID>
DB07225

>  <COMMON_NAME>
N-{[(2S,3S)-3-(ETHOXYCARBONYL)OXIRAN-2-YL]CARBONYL}-L-ISOLEUCYL-L-ISOLEUCINE

$$$$
