TFI
 OpenBabel10282417072D

 55 56  0  0  0  0  0  0  0  0999 V2000
   -2.4987   -0.7688    0.0000 C   0  0  0  0  0  0  0  0  0  0  0  0
   -1.7842   -0.3563    0.0000 C   0  0  0  0  0  0  0  0  0  0  0  0
   -1.0697   -0.7688    0.0000 C   0  0  2  0  0  0  0  0  0  0  0  0
   -1.0697   -1.5938    0.0000 C   0  0  0  0  0  0  0  0  0  0  0  0
   -0.3553   -2.0063    0.0000 C   0  0  0  0  0  0  0  0  0  0  0  0
   -1.7842   -2.0063    0.0000 C   0  0  0  0  0  0  0  0  0  0  0  0
    0.3592   -0.7688    0.0000 C   0  0  0  0  0  0  0  0  0  0  0  0
    1.0737   -0.3563    0.0000 C   0  0  0  0  0  0  0  0  0  0  0  0
    0.3592    0.8812    0.0000 C   0  0  0  0  0  0  0  0  0  0  0  0
    0.3592    1.7062    0.0000 C   0  0  0  0  0  0  0  0  0  0  0  0
    1.0737    2.1187    0.0000 C   0  0  0  0  0  0  0  0  0  0  0  0
    1.7881    0.8812    0.0000 C   0  0  0  0  0  0  0  0  0  0  0  0
    2.5026    0.4687    0.0000 C   0  0  0  0  0  0  0  0  0  0  0  0
    3.2171    0.8812    0.0000 C   0  0  0  0  0  0  0  0  0  0  0  0
    3.9316    0.4687    0.0000 C   0  0  0  0  0  0  0  0  0  0  0  0
    3.9316   -0.3563    0.0000 C   0  0  0  0  0  0  0  0  0  0  0  0
    3.2171   -0.7688    0.0000 C   0  0  0  0  0  0  0  0  0  0  0  0
    2.5026   -0.3563    0.0000 C   0  0  0  0  0  0  0  0  0  0  0  0
   -1.7842    1.2937    0.0000 C   0  0  0  0  0  0  0  0  0  0  0  0
   -0.3553   -0.3563    0.0000 N   0  0  0  0  0  0  0  0  0  0  0  0
    1.0737    0.4687    0.0000 N   0  0  0  0  0  0  0  0  0  0  0  0
    1.7881    1.7062    0.0000 N   0  0  0  0  0  0  0  0  0  0  0  0
   -0.3553    2.1187    0.0000 N   0  0  0  0  0  0  0  0  0  0  0  0
    4.6460   -0.7688    0.0000 N   0  0  0  0  0  0  0  0  0  0  0  0
   -1.7842    0.4687    0.0000 O   0  0  0  0  0  0  0  0  0  0  0  0
    0.3592   -1.5938    0.0000 O   0  0  0  0  0  0  0  0  0  0  0  0
   -0.3553    0.4687    0.0000 O   0  0  0  0  0  0  0  0  0  0  0  0
   -0.6572    0.9918    0.0000 O   0  0  0  0  0  0  0  0  0  0  0  0
   -1.4822    2.4207    0.0000 O   0  0  0  0  0  0  0  0  0  0  0  0
   -3.2132   -1.1813    0.0000 F   0  0  0  0  0  0  0  0  0  0  0  0
   -2.9112   -0.0543    0.0000 F   0  0  0  0  0  0  0  0  0  0  0  0
   -2.0862   -1.4832    0.0000 F   0  0  0  0  0  0  0  0  0  0  0  0
   -1.0697    1.7062    0.0000 S   0  0  0  0  0  0  0  0  0  0  0  0
   -1.5754   -1.0607    0.0000 H   0  0  0  0  0  0  0  0  0  0  0  0
   -1.0697   -2.6638    0.0000 H   0  0  0  0  0  0  0  0  0  0  0  0
   -0.3553   -3.0763    0.0000 H   0  0  0  0  0  0  0  0  0  0  0  0
    0.5714   -1.4713    0.0000 H   0  0  0  0  0  0  0  0  0  0  0  0
    0.5713   -2.5413    0.0000 H   0  0  0  0  0  0  0  0  0  0  0  0
   -2.7108   -1.4713    0.0000 H   0  0  0  0  0  0  0  0  0  0  0  0
   -1.7842   -3.0763    0.0000 H   0  0  0  0  0  0  0  0  0  0  0  0
   -2.7109   -2.5413    0.0000 H   0  0  0  0  0  0  0  0  0  0  0  0
    2.0003   -0.8913    0.0000 H   0  0  0  0  0  0  0  0  0  0  0  0
    2.0003    0.1787    0.0000 H   0  0  0  0  0  0  0  0  0  0  0  0
    1.0737    3.1507    0.0000 H   0  0  0  0  0  0  0  0  0  0  0  0
    3.2171    1.9132    0.0000 H   0  0  0  0  0  0  0  0  0  0  0  0
    4.8253    0.9847    0.0000 H   0  0  0  0  0  0  0  0  0  0  0  0
    3.2171   -1.8008    0.0000 H   0  0  0  0  0  0  0  0  0  0  0  0
    1.6089   -0.8723    0.0000 H   0  0  0  0  0  0  0  0  0  0  0  0
   -2.7108    1.8287    0.0000 H   0  0  0  0  0  0  0  0  0  0  0  0
   -1.7842    0.2237    0.0000 H   0  0  0  0  0  0  0  0  0  0  0  0
   -2.7109    0.7587    0.0000 H   0  0  0  0  0  0  0  0  0  0  0  0
   -0.3553    0.6282    0.0000 H   0  0  0  0  0  0  0  0  0  0  0  0
   -0.3553    3.1032    0.0000 H   0  0  0  0  0  0  0  0  0  0  0  0
    4.6460   -1.7533    0.0000 H   0  0  0  0  0  0  0  0  0  0  0  0
    5.4986   -0.2766    0.0000 H   0  0  0  0  0  0  0  0  0  0  0  0
  1  2  1  0  0  0  0
  1 30  1  0  0  0  0
  1 31  1  0  0  0  0
  1 32  1  0  0  0  0
  2  3  1  0  0  0  0
  2 25  2  0  0  0  0
  3  4  1  0  0  0  0
  3 20  1  0  0  0  0
  3 34  1  6  0  0  0
  4  5  1  0  0  0  0
  4  6  1  0  0  0  0
  4 35  1  0  0  0  0
  5 36  1  0  0  0  0
  5 37  1  0  0  0  0
  5 38  1  0  0  0  0
  6 39  1  0  0  0  0
  6 40  1  0  0  0  0
  6 41  1  0  0  0  0
  7  8  1  0  0  0  0
  7 20  1  0  0  0  0
  7 26  2  0  0  0  0
  8 21  1  0  0  0  0
  8 42  1  0  0  0  0
  8 43  1  0  0  0  0
  9 10  1  0  0  0  0
  9 21  1  0  0  0  0
  9 27  2  0  0  0  0
 10 11  2  0  0  0  0
 10 23  1  0  0  0  0
 11 22  1  0  0  0  0
 11 44  1  0  0  0  0
 12 13  1  0  0  0  0
 12 21  1  0  0  0  0
 12 22  2  0  0  0  0
 13 14  1  0  0  0  0
 13 18  2  0  0  0  0
 14 15  2  0  0  0  0
 14 45  1  0  0  0  0
 15 16  1  0  0  0  0
 15 46  1  0  0  0  0
 16 17  2  0  0  0  0
 16 24  1  0  0  0  0
 17 18  1  0  0  0  0
 17 47  1  0  0  0  0
 18 48  1  0  0  0  0
 19 33  1  0  0  0  0
 19 49  1  0  0  0  0
 19 50  1  0  0  0  0
 19 51  1  0  0  0  0
 20 52  1  0  0  0  0
 23 33  1  0  0  0  0
 23 53  1  0  0  0  0
 24 54  1  0  0  0  0
 24 55  1  0  0  0  0
 28 33  2  0  0  0  0
 29 33  2  0  0  0  0
M  END
>  <DRUGBANK_ID>
DB03202

>  <SECONDARY_ACCESSION_NUMBERS>
EXPT03043

>  <COMMON_NAME>
2-[5-Methanesulfonylamino-2-(4-Aminophenyl)-6-Oxo-1,6-Dihydro-1-Pyrimidinyl]-N-(3,3,3-Trifluoro-1-Isopropyl-2-Oxopropyl)Acetamide

$$$$
