
 OpenBabel10282417072D

 70 71  0  0  0  0  0  0  0  0999 V2000
   -6.5200    0.8373    0.0000 C   0  0  0  0  0  0  0  0  0  0  0  0
   -7.2475    0.4484    0.0000 C   0  0  0  0  0  0  0  0  0  0  0  0
   -6.5200    1.6779    0.0000 C   0  0  0  0  0  0  0  0  0  0  0  0
   -5.7924    0.4484    0.0000 N   0  0  0  0  0  0  0  0  0  0  0  0
   -7.9751    0.8373    0.0000 C   0  0  0  0  0  0  0  0  0  0  0  0
   -7.2475   -0.3857    0.0000 I   0  0  0  0  0  0  0  0  0  0  0  0
   -7.2475    2.0729    0.0000 C   0  0  0  0  0  0  0  0  0  0  0  0
   -5.7547    2.0729    0.0000 I   0  0  0  0  0  0  0  0  0  0  0  0
   -5.0899    0.8373    0.0000 C   0  0  0  0  0  0  0  0  0  0  0  0
   -7.9751    1.6779    0.0000 C   0  0  0  0  0  0  0  0  0  0  0  0
   -8.6902    0.4484    0.0000 C   0  0  0  0  0  0  0  0  0  0  0  0
   -4.3246    0.4109    0.0000 C   0  0  0  0  0  0  0  0  0  0  0  0
   -5.0899    1.6779    0.0000 O   0  0  0  0  0  0  0  0  0  0  0  0
   -8.6902    2.1106    0.0000 I   0  0  0  0  0  0  0  0  0  0  0  0
   -8.6902   -0.3480    0.0000 O   0  0  0  0  0  0  0  0  0  0  0  0
   -9.4303    0.8562    0.0000 O   0  0  0  0  0  0  0  0  0  0  0  0
   -3.5971    0.7997    0.0000 C   0  0  0  0  0  0  0  0  0  0  0  0
   -2.8820    0.4484    0.0000 O   0  0  0  0  0  0  0  0  0  0  0  0
   -2.1544    0.7997    0.0000 C   0  0  0  0  0  0  0  0  0  0  0  0
   -1.4268    0.4109    0.0000 C   0  0  0  0  0  0  0  0  0  0  0  0
   -0.6993    0.7997    0.0000 O   0  0  0  0  0  0  0  0  0  0  0  0
    0.0031    0.4109    0.0000 C   0  0  0  0  0  0  0  0  0  0  0  0
    0.7118    0.7997    0.0000 C   0  0  0  0  0  0  0  0  0  0  0  0
    1.4268    0.4109    0.0000 O   0  0  0  0  0  0  0  0  0  0  0  0
    2.1670    0.7997    0.0000 C   0  0  0  0  0  0  0  0  0  0  0  0
    2.8946    0.4109    0.0000 C   0  0  0  0  0  0  0  0  0  0  0  0
    3.6096    0.7997    0.0000 O   0  0  0  0  0  0  0  0  0  0  0  0
    4.3372    0.4109    0.0000 C   0  0  0  0  0  0  0  0  0  0  0  0
    5.0963    0.7997    0.0000 C   0  0  0  0  0  0  0  0  0  0  0  0
    5.8049    0.4109    0.0000 C   0  0  0  0  0  0  0  0  0  0  0  0
    6.5325    0.7747    0.0000 N   0  0  0  0  0  0  0  0  0  0  0  0
    5.8049   -0.4108    0.0000 O   0  0  0  0  0  0  0  0  0  0  0  0
    7.2601    0.3795    0.0000 C   0  0  0  0  0  0  0  0  0  0  0  0
    7.2601   -0.4169    0.0000 C   0  0  0  0  0  0  0  0  0  0  0  0
    7.9877    0.7684    0.0000 C   0  0  0  0  0  0  0  0  0  0  0  0
    7.9877   -0.8622    0.0000 C   0  0  0  0  0  0  0  0  0  0  0  0
    6.5325   -0.8373    0.0000 I   0  0  0  0  0  0  0  0  0  0  0  0
    8.7027    0.3795    0.0000 C   0  0  0  0  0  0  0  0  0  0  0  0
    8.0317    1.5900    0.0000 I   0  0  0  0  0  0  0  0  0  0  0  0
    8.7027   -0.4169    0.0000 C   0  0  0  0  0  0  0  0  0  0  0  0
    7.9877   -1.6902    0.0000 C   0  0  0  0  0  0  0  0  0  0  0  0
    9.4303   -0.8622    0.0000 I   0  0  0  0  0  0  0  0  0  0  0  0
    7.2601   -2.0729    0.0000 O   0  0  0  0  0  0  0  0  0  0  0  0
    8.7027   -2.1106    0.0000 O   0  0  0  0  0  0  0  0  0  0  0  0
   -5.7851   -0.5361    0.0000 H   0  0  0  0  0  0  0  0  0  0  0  0
   -7.2475    3.1049    0.0000 H   0  0  0  0  0  0  0  0  0  0  0  0
   -4.3340   -0.6591    0.0000 H   0  0  0  0  0  0  0  0  0  0  0  0
   -3.4093   -0.1432    0.0000 H   0  0  0  0  0  0  0  0  0  0  0  0
   -9.5017   -0.8165    0.0000 H   0  0  0  0  0  0  0  0  0  0  0  0
   -3.6154    1.8695    0.0000 H   0  0  0  0  0  0  0  0  0  0  0  0
   -2.6938    1.3732    0.0000 H   0  0  0  0  0  0  0  0  0  0  0  0
   -2.1325    1.8695    0.0000 H   0  0  0  0  0  0  0  0  0  0  0  0
   -1.2311    1.3404    0.0000 H   0  0  0  0  0  0  0  0  0  0  0  0
   -1.4268   -0.6591    0.0000 H   0  0  0  0  0  0  0  0  0  0  0  0
   -0.5090   -0.1392    0.0000 H   0  0  0  0  0  0  0  0  0  0  0  0
    0.0011   -0.6591    0.0000 H   0  0  0  0  0  0  0  0  0  0  0  0
    0.9233   -0.1350    0.0000 H   0  0  0  0  0  0  0  0  0  0  0  0
    0.7098    1.8697    0.0000 H   0  0  0  0  0  0  0  0  0  0  0  0
    1.6310    1.3473    0.0000 H   0  0  0  0  0  0  0  0  0  0  0  0
    2.1708    1.8697    0.0000 H   0  0  0  0  0  0  0  0  0  0  0  0
    3.0857    1.3482    0.0000 H   0  0  0  0  0  0  0  0  0  0  0  0
    2.8985   -0.6591    0.0000 H   0  0  0  0  0  0  0  0  0  0  0  0
    3.8153   -0.1342    0.0000 H   0  0  0  0  0  0  0  0  0  0  0  0
    4.3279   -0.6591    0.0000 H   0  0  0  0  0  0  0  0  0  0  0  0
    5.2477   -0.1512    0.0000 H   0  0  0  0  0  0  0  0  0  0  0  0
    5.1115    1.8696    0.0000 H   0  0  0  0  0  0  0  0  0  0  0  0
    6.0209    1.3382    0.0000 H   0  0  0  0  0  0  0  0  0  0  0  0
    6.5492    1.7591    0.0000 H   0  0  0  0  0  0  0  0  0  0  0  0
    9.5898    0.9068    0.0000 H   0  0  0  0  0  0  0  0  0  0  0  0
    6.4677   -1.5728    0.0000 H   0  0  0  0  0  0  0  0  0  0  0  0
  1  2  1  0  0  0  0
  1  3  2  0  0  0  0
  1  4  1  0  0  0  0
  2  5  2  0  0  0  0
  2  6  1  0  0  0  0
  3  7  1  0  0  0  0
  3  8  1  0  0  0  0
  4  9  1  0  0  0  0
  4 45  1  0  0  0  0
  5 10  1  0  0  0  0
  5 11  1  0  0  0  0
  7 10  2  0  0  0  0
  7 46  1  0  0  0  0
  9 12  1  0  0  0  0
  9 13  2  0  0  0  0
 10 14  1  0  0  0  0
 11 15  1  0  0  0  0
 11 16  2  0  0  0  0
 12 17  1  0  0  0  0
 12 47  1  0  0  0  0
 12 48  1  0  0  0  0
 15 49  1  0  0  0  0
 17 18  1  0  0  0  0
 17 50  1  0  0  0  0
 17 51  1  0  0  0  0
 18 19  1  0  0  0  0
 19 20  1  0  0  0  0
 19 52  1  0  0  0  0
 19 53  1  0  0  0  0
 20 21  1  0  0  0  0
 20 54  1  0  0  0  0
 20 55  1  0  0  0  0
 21 22  1  0  0  0  0
 22 23  1  0  0  0  0
 22 56  1  0  0  0  0
 22 57  1  0  0  0  0
 23 24  1  0  0  0  0
 23 58  1  0  0  0  0
 23 59  1  0  0  0  0
 24 25  1  0  0  0  0
 25 26  1  0  0  0  0
 25 60  1  0  0  0  0
 25 61  1  0  0  0  0
 26 27  1  0  0  0  0
 26 62  1  0  0  0  0
 26 63  1  0  0  0  0
 27 28  1  0  0  0  0
 28 29  1  0  0  0  0
 28 64  1  0  0  0  0
 28 65  1  0  0  0  0
 29 30  1  0  0  0  0
 29 66  1  0  0  0  0
 29 67  1  0  0  0  0
 30 31  1  0  0  0  0
 30 32  2  0  0  0  0
 31 33  1  0  0  0  0
 31 68  1  0  0  0  0
 33 34  2  0  0  0  0
 33 35  1  0  0  0  0
 34 36  1  0  0  0  0
 34 37  1  0  0  0  0
 35 38  2  0  0  0  0
 35 39  1  0  0  0  0
 36 40  2  0  0  0  0
 36 41  1  0  0  0  0
 38 40  1  0  0  0  0
 38 69  1  0  0  0  0
 40 42  1  0  0  0  0
 41 43  1  0  0  0  0
 41 44  2  0  0  0  0
 43 70  1  0  0  0  0
M  END
>  <DRUGBANK_ID>
DB13539

>  <COMMON_NAME>
Iodoxamic acid

>  <CAS_NUMBER>
31127-82-9

>  <UNII>
NS1Y283HW4

>  <SYNONYMS>
Acidum iodoxamicum; Iodoxamic acid

$$$$
