
 OpenBabel10282417072D

 54 57  0  0  0  0  0  0  0  0999 V2000
    2.1434   -7.8375    0.0000 F   0  0  0  0  0  0  0  0  0  0  0  0
    2.1434   -8.6625    0.0000 C   0  0  0  0  0  0  0  0  0  0  0  0
    2.8579   -9.0750    0.0000 C   0  0  0  0  0  0  0  0  0  0  0  0
    2.8579   -9.9000    0.0000 C   0  0  0  0  0  0  0  0  0  0  0  0
    2.1434  -10.3125    0.0000 C   0  0  0  0  0  0  0  0  0  0  0  0
    1.4289   -9.9000    0.0000 C   0  0  0  0  0  0  0  0  0  0  0  0
    0.7145  -10.3125    0.0000 C   0  0  0  0  0  0  0  0  0  0  0  0
    0.7145  -11.1375    0.0000 N   0  0  0  0  0  0  0  0  0  0  0  0
    0.0000  -11.5500    0.0000 C   0  0  0  0  0  0  0  0  0  0  0  0
   -0.7145  -11.1375    0.0000 O   0  0  0  0  0  0  0  0  0  0  0  0
    0.0000  -12.3750    0.0000 C   0  0  0  0  0  0  0  0  0  0  0  0
   -0.7145  -12.7875    0.0000 C   0  0  0  0  0  0  0  0  0  0  0  0
   -0.7145  -13.6125    0.0000 N   0  0  0  0  0  0  0  0  0  0  0  0
   -1.4289  -14.0250    0.0000 C   0  0  0  0  0  0  0  0  0  0  0  0
   -2.1434  -13.6125    0.0000 C   0  0  0  0  0  0  0  0  0  0  0  0
   -2.1434  -12.7875    0.0000 C   0  0  0  0  0  0  0  0  0  0  0  0
   -1.4289  -12.3750    0.0000 C   0  0  0  0  0  0  0  0  0  0  0  0
   -2.8579  -14.0250    0.0000 C   0  0  0  0  0  0  0  0  0  0  0  0
   -2.8579  -14.8500    0.0000 C   0  0  0  0  0  0  0  0  0  0  0  0
   -3.5724  -15.2625    0.0000 C   0  0  0  0  0  0  0  0  0  0  0  0
   -4.2868  -14.8500    0.0000 C   0  0  0  0  0  0  0  0  0  0  0  0
   -4.2868  -14.0250    0.0000 C   0  0  0  0  0  0  0  0  0  0  0  0
   -3.5724  -13.6125    0.0000 C   0  0  0  0  0  0  0  0  0  0  0  0
   -5.0013  -15.2625    0.0000 N   0  0  0  0  0  0  0  0  0  0  0  0
   -5.0013  -16.0875    0.0000 C   0  0  0  0  0  0  0  0  0  0  0  0
   -5.7158  -16.5000    0.0000 C   0  0  0  0  0  0  0  0  0  0  0  0
   -6.4302  -16.0875    0.0000 O   0  0  0  0  0  0  0  0  0  0  0  0
   -6.4302  -15.2625    0.0000 C   0  0  0  0  0  0  0  0  0  0  0  0
   -5.7158  -14.8500    0.0000 C   0  0  0  0  0  0  0  0  0  0  0  0
    1.4289   -9.0750    0.0000 C   0  0  0  0  0  0  0  0  0  0  0  0
    3.7516   -8.5590    0.0000 H   0  0  0  0  0  0  0  0  0  0  0  0
    3.7516  -10.4160    0.0000 H   0  0  0  0  0  0  0  0  0  0  0  0
    2.1434  -11.3445    0.0000 H   0  0  0  0  0  0  0  0  0  0  0  0
   -0.2122   -9.7775    0.0000 H   0  0  0  0  0  0  0  0  0  0  0  0
   -0.2121  -10.8475    0.0000 H   0  0  0  0  0  0  0  0  0  0  0  0
    1.5671  -11.6298    0.0000 H   0  0  0  0  0  0  0  0  0  0  0  0
    0.9266  -12.9100    0.0000 H   0  0  0  0  0  0  0  0  0  0  0  0
   -0.0000  -13.4450    0.0000 H   0  0  0  0  0  0  0  0  0  0  0  0
   -1.4289  -15.0570    0.0000 H   0  0  0  0  0  0  0  0  0  0  0  0
   -3.0371  -12.2715    0.0000 H   0  0  0  0  0  0  0  0  0  0  0  0
   -1.4289  -11.3430    0.0000 H   0  0  0  0  0  0  0  0  0  0  0  0
   -1.9642  -15.3660    0.0000 H   0  0  0  0  0  0  0  0  0  0  0  0
   -3.5724  -16.2945    0.0000 H   0  0  0  0  0  0  0  0  0  0  0  0
   -5.1805  -13.5090    0.0000 H   0  0  0  0  0  0  0  0  0  0  0  0
   -3.5724  -12.5805    0.0000 H   0  0  0  0  0  0  0  0  0  0  0  0
   -4.0747  -16.6225    0.0000 H   0  0  0  0  0  0  0  0  0  0  0  0
   -5.0013  -17.1575    0.0000 H   0  0  0  0  0  0  0  0  0  0  0  0
   -5.7158  -17.5700    0.0000 H   0  0  0  0  0  0  0  0  0  0  0  0
   -6.6425  -17.0350    0.0000 H   0  0  0  0  0  0  0  0  0  0  0  0
   -7.3569  -14.7275    0.0000 H   0  0  0  0  0  0  0  0  0  0  0  0
   -6.4302  -14.1925    0.0000 H   0  0  0  0  0  0  0  0  0  0  0  0
   -5.7158  -13.7800    0.0000 H   0  0  0  0  0  0  0  0  0  0  0  0
   -4.7892  -14.3150    0.0000 H   0  0  0  0  0  0  0  0  0  0  0  0
    0.5352   -8.5590    0.0000 H   0  0  0  0  0  0  0  0  0  0  0  0
  1  2  1  0  0  0  0
  2  3  2  0  0  0  0
  2 30  1  0  0  0  0
  3  4  1  0  0  0  0
  3 31  1  0  0  0  0
  4  5  2  0  0  0  0
  4 32  1  0  0  0  0
  5  6  1  0  0  0  0
  5 33  1  0  0  0  0
  6  7  1  0  0  0  0
  6 30  2  0  0  0  0
  7  8  1  0  0  0  0
  7 34  1  0  0  0  0
  7 35  1  0  0  0  0
  8  9  1  0  0  0  0
  8 36  1  0  0  0  0
  9 10  2  0  0  0  0
  9 11  1  0  0  0  0
 11 12  1  0  0  0  0
 11 37  1  0  0  0  0
 11 38  1  0  0  0  0
 12 13  2  0  0  0  0
 12 17  1  0  0  0  0
 13 14  1  0  0  0  0
 14 15  2  0  0  0  0
 14 39  1  0  0  0  0
 15 16  1  0  0  0  0
 15 18  1  0  0  0  0
 16 17  2  0  0  0  0
 16 40  1  0  0  0  0
 17 41  1  0  0  0  0
 18 19  2  0  0  0  0
 18 23  1  0  0  0  0
 19 20  1  0  0  0  0
 19 42  1  0  0  0  0
 20 21  2  0  0  0  0
 20 43  1  0  0  0  0
 21 22  1  0  0  0  0
 21 24  1  0  0  0  0
 22 23  2  0  0  0  0
 22 44  1  0  0  0  0
 23 45  1  0  0  0  0
 24 25  1  0  0  0  0
 24 29  1  0  0  0  0
 25 26  1  0  0  0  0
 25 46  1  0  0  0  0
 25 47  1  0  0  0  0
 26 27  1  0  0  0  0
 26 48  1  0  0  0  0
 26 49  1  0  0  0  0
 27 28  1  0  0  0  0
 28 29  1  0  0  0  0
 28 50  1  0  0  0  0
 28 51  1  0  0  0  0
 29 52  1  0  0  0  0
 29 53  1  0  0  0  0
 30 54  1  0  0  0  0
M  END
>  <DRUGBANK_ID>
DB17180

>  <COMMON_NAME>
KX-2361

>  <CAS_NUMBER>
897016-26-1

>  <UNII>
RVW387BA9U

>  <SYNONYMS>
2-pyridineacetamide, n-((3-fluorophenyl)methyl)-5-(4-(4-morpholinyl)phenyl)-; N-(3-fluorobenzyl)-2-(5-(4-morpholinophenyl) pyridin-2-yl) acetamide

$$$$
