ZZ0
 OpenBabel10282417072D

 26 27  0  0  0  0  0  0  0  0999 V2000
    1.8237    0.6004    0.0000 C   0  0  0  0  0  0  0  0  0  0  0  0
    2.5382    0.1879    0.0000 C   0  0  0  0  0  0  0  0  0  0  0  0
    2.5382   -0.6371    0.0000 C   0  0  0  0  0  0  0  0  0  0  0  0
    3.2527   -1.0496    0.0000 Cl  0  0  0  0  0  0  0  0  0  0  0  0
    1.8237   -1.0496    0.0000 C   0  0  0  0  0  0  0  0  0  0  0  0
    1.1093   -0.6371    0.0000 C   0  0  0  0  0  0  0  0  0  0  0  0
    1.1093    0.1879    0.0000 C   0  0  0  0  0  0  0  0  0  0  0  0
    0.3948    0.6004    0.0000 N   0  0  0  0  0  0  0  0  0  0  0  0
   -0.3197    0.1879    0.0000 C   0  0  0  0  0  0  0  0  0  0  0  0
   -0.3197   -0.6371    0.0000 N   0  0  0  0  0  0  0  0  0  0  0  0
   -1.0341   -1.0496    0.0000 C   0  0  0  0  0  0  0  0  0  0  0  0
   -1.7486   -0.6371    0.0000 C   0  0  0  0  0  0  0  0  0  0  0  0
   -1.7486    0.1879    0.0000 C   0  0  0  0  0  0  0  0  0  0  0  0
   -1.0341    0.6004    0.0000 C   0  0  0  0  0  0  0  0  0  0  0  0
   -1.0341    1.4254    0.0000 C   0  0  0  0  0  0  0  0  0  0  0  0
   -1.7486    1.8379    0.0000 O   0  0  0  0  0  0  0  0  0  0  0  0
   -0.3197    1.8379    0.0000 O   0  0  0  0  0  0  0  0  0  0  0  0
    1.8237    1.6324    0.0000 H   0  0  0  0  0  0  0  0  0  0  0  0
    3.4319    0.7039    0.0000 H   0  0  0  0  0  0  0  0  0  0  0  0
    1.8237   -2.0816    0.0000 H   0  0  0  0  0  0  0  0  0  0  0  0
    0.2156   -1.1531    0.0000 H   0  0  0  0  0  0  0  0  0  0  0  0
    0.3948    1.5849    0.0000 H   0  0  0  0  0  0  0  0  0  0  0  0
   -1.0341   -2.0816    0.0000 H   0  0  0  0  0  0  0  0  0  0  0  0
   -2.6423   -1.1531    0.0000 H   0  0  0  0  0  0  0  0  0  0  0  0
   -2.6423    0.7039    0.0000 H   0  0  0  0  0  0  0  0  0  0  0  0
    0.4918    1.3694    0.0000 H   0  0  0  0  0  0  0  0  0  0  0  0
  1  2  1  0  0  0  0
  1  7  2  0  0  0  0
  1 18  1  0  0  0  0
  2  3  2  0  0  0  0
  2 19  1  0  0  0  0
  3  4  1  0  0  0  0
  3  5  1  0  0  0  0
  5  6  2  0  0  0  0
  5 20  1  0  0  0  0
  6  7  1  0  0  0  0
  6 21  1  0  0  0  0
  7  8  1  0  0  0  0
  8  9  1  0  0  0  0
  8 22  1  0  0  0  0
  9 10  1  0  0  0  0
  9 14  2  0  0  0  0
 10 11  2  0  0  0  0
 11 12  1  0  0  0  0
 11 23  1  0  0  0  0
 12 13  2  0  0  0  0
 12 24  1  0  0  0  0
 13 14  1  0  0  0  0
 13 25  1  0  0  0  0
 14 15  1  0  0  0  0
 15 16  2  0  0  0  0
 15 17  1  0  0  0  0
 17 26  1  0  0  0  0
M  END
>  <DRUGBANK_ID>
DB08784

>  <COMMON_NAME>
2-(4-CHLORO-PHENYLAMINO)-NICOTINIC ACID

$$$$
