951
 OpenBabel10282417072D

 17 17  0  0  0  0  0  0  0  0999 V2000
    1.6500    0.9034    0.0000 O   0  0  0  0  0  0  0  0  0  0  0  0
    3.0790    0.9034    0.0000 N   0  0  0  0  0  0  0  0  0  0  0  0
    2.3644   -1.9841    0.0000 N   0  0  0  0  0  0  0  0  0  0  0  0
    3.0790    1.7284    0.0000 N   0  0  0  0  0  0  0  0  0  0  0  0
    2.3644   -0.3341    0.0000 C   0  0  0  0  0  0  0  0  0  0  0  0
    3.0790   -0.7466    0.0000 C   0  0  0  0  0  0  0  0  0  0  0  0
    1.6500   -0.7466    0.0000 C   0  0  0  0  0  0  0  0  0  0  0  0
    2.3644    0.4909    0.0000 C   0  0  0  0  0  0  0  0  0  0  0  0
    3.0790   -1.5716    0.0000 C   0  0  0  0  0  0  0  0  0  0  0  0
    1.6500   -1.5716    0.0000 C   0  0  0  0  0  0  0  0  0  0  0  0
    3.9316    0.4111    0.0000 H   0  0  0  0  0  0  0  0  0  0  0  0
    3.9623    2.2384    0.0000 H   0  0  0  0  0  0  0  0  0  0  0  0
    2.1957    2.2384    0.0000 H   0  0  0  0  0  0  0  0  0  0  0  0
    3.9727   -0.2306    0.0000 H   0  0  0  0  0  0  0  0  0  0  0  0
    0.7563   -0.2306    0.0000 H   0  0  0  0  0  0  0  0  0  0  0  0
    3.9727   -2.0876    0.0000 H   0  0  0  0  0  0  0  0  0  0  0  0
    0.7563   -2.0876    0.0000 H   0  0  0  0  0  0  0  0  0  0  0  0
  1  8  2  0  0  0  0
  2  4  1  0  0  0  0
  2  8  1  0  0  0  0
  2 11  1  0  0  0  0
  3  9  2  0  0  0  0
  3 10  1  0  0  0  0
  4 12  1  0  0  0  0
  4 13  1  0  0  0  0
  5  6  2  0  0  0  0
  5  7  1  0  0  0  0
  5  8  1  0  0  0  0
  6  9  1  0  0  0  0
  6 14  1  0  0  0  0
  7 10  2  0  0  0  0
  7 15  1  0  0  0  0
  9 16  1  0  0  0  0
 10 17  1  0  0  0  0
M  END
>  <DRUGBANK_ID>
DB00951

>  <SECONDARY_ACCESSION_NUMBERS>
APRD01055; EXPT01940

>  <COMMON_NAME>
Isoniazid

>  <CAS_NUMBER>
54-85-3

>  <UNII>
V83O1VOZ8L

>  <SYNONYMS>
4-pyridinecarbohydrazide; INH; Isoniazid; Isoniazida; Isonicotinic acid hydrazide; Isonicotinic hydrazide; Isonicotinohydrazide; Isonicotinoylhydrazide; Isonicotins√§urehydrazid; Isonicotinylhydrazine; Pyridine-4-carboxylic acid hydrazide

$$$$
