
 OpenBabel10282417072D

 29 31  0  0  0  0  0  0  0  0999 V2000
   -0.7103   -0.6215    0.0000 C   0  0  0  0  0  0  0  0  0  0  0  0
   -0.7103    0.2020    0.0000 C   0  0  0  0  0  0  0  0  0  0  0  0
    0.0000   -1.0410    0.0000 C   0  0  0  0  0  0  0  0  0  0  0  0
   -1.4645   -1.0410    0.0000 C   0  0  0  0  0  0  0  0  0  0  0  0
    0.0000    0.6215    0.0000 O   0  0  0  0  0  0  0  0  0  0  0  0
   -1.4645    0.6215    0.0000 C   0  0  0  0  0  0  0  0  0  0  0  0
    0.7103   -0.6215    0.0000 C   0  0  0  0  0  0  0  0  0  0  0  0
    0.0000   -1.8776    0.0000 O   0  0  0  0  0  0  0  0  0  0  0  0
   -2.1749   -0.6215    0.0000 C   0  0  0  0  0  0  0  0  0  0  0  0
   -1.4645   -1.8776    0.0000 O   0  0  0  0  0  0  0  0  0  0  0  0
    0.7103    0.2020    0.0000 C   0  0  0  0  0  0  0  0  0  0  0  0
   -2.1749    0.2020    0.0000 C   0  0  0  0  0  0  0  0  0  0  0  0
    1.4645    0.6215    0.0000 C   0  0  0  0  0  0  0  0  0  0  0  0
   -2.8827    0.6215    0.0000 O   0  0  0  0  0  0  0  0  0  0  0  0
    2.1749    0.2020    0.0000 C   0  0  0  0  0  0  0  0  0  0  0  0
    1.4645    1.4581    0.0000 C   0  0  0  0  0  0  0  0  0  0  0  0
    2.8827    0.6215    0.0000 C   0  0  0  0  0  0  0  0  0  0  0  0
    2.1749    1.8776    0.0000 C   0  0  0  0  0  0  0  0  0  0  0  0
    2.8827    1.4581    0.0000 C   0  0  0  0  0  0  0  0  0  0  0  0
   -1.4778    1.6534    0.0000 H   0  0  0  0  0  0  0  0  0  0  0  0
    1.6066   -1.1331    0.0000 H   0  0  0  0  0  0  0  0  0  0  0  0
   -3.0712   -1.1331    0.0000 H   0  0  0  0  0  0  0  0  0  0  0  0
   -2.2760   -2.3461    0.0000 H   0  0  0  0  0  0  0  0  0  0  0  0
   -2.8720    1.5584    0.0000 H   0  0  0  0  0  0  0  0  0  0  0  0
    2.1757   -0.8300    0.0000 H   0  0  0  0  0  0  0  0  0  0  0  0
    0.5682    1.9697    0.0000 H   0  0  0  0  0  0  0  0  0  0  0  0
    3.7794    0.1106    0.0000 H   0  0  0  0  0  0  0  0  0  0  0  0
    2.1757    2.9096    0.0000 H   0  0  0  0  0  0  0  0  0  0  0  0
    3.7794    1.9690    0.0000 H   0  0  0  0  0  0  0  0  0  0  0  0
  1  2  1  0  0  0  0
  1  3  1  0  0  0  0
  1  4  2  0  0  0  0
  2  5  1  0  0  0  0
  2  6  2  0  0  0  0
  3  7  1  0  0  0  0
  3  8  2  0  0  0  0
  4  9  1  0  0  0  0
  4 10  1  0  0  0  0
  5 11  1  0  0  0  0
  6 12  1  0  0  0  0
  6 20  1  0  0  0  0
  7 11  2  0  0  0  0
  7 21  1  0  0  0  0
  9 12  2  0  0  0  0
  9 22  1  0  0  0  0
 10 23  1  0  0  0  0
 11 13  1  0  0  0  0
 12 14  1  0  0  0  0
 13 15  2  0  0  0  0
 13 16  1  0  0  0  0
 14 24  1  0  0  0  0
 15 17  1  0  0  0  0
 15 25  1  0  0  0  0
 16 18  2  0  0  0  0
 16 26  1  0  0  0  0
 17 19  2  0  0  0  0
 17 27  1  0  0  0  0
 18 19  1  0  0  0  0
 18 28  1  0  0  0  0
 19 29  1  0  0  0  0
M  END
>  <DRUGBANK_ID>
DB15581

>  <COMMON_NAME>
Chrysin

>  <CAS_NUMBER>
480-40-0

>  <UNII>
3CN01F5ZJ5

>  <SYNONYMS>
5,7-dihydroxyflavone; Galangin flavanone

$$$$
