PA6
 OpenBabel10282417072D

 35 34  0  0  0  0  0  0  0  0999 V2000
    2.2078   -0.3460    0.0000 O   0  0  0  0  0  0  0  0  0  0  0  0
    2.2078    0.4790    0.0000 C   0  0  0  0  0  0  0  0  0  0  0  0
    2.9222    0.8915    0.0000 C   0  0  0  0  0  0  0  0  0  0  0  0
    3.6368    0.4790    0.0000 C   0  0  0  0  0  0  0  0  0  0  0  0
    4.3512    0.8915    0.0000 C   0  0  0  0  0  0  0  0  0  0  0  0
    5.0656    0.4790    0.0000 C   0  0  0  0  0  0  0  0  0  0  0  0
    1.4934    0.8915    0.0000 O   0  0  0  0  0  0  0  0  0  0  0  0
    0.7789    0.4790    0.0000 C   0  0  0  0  0  0  0  0  0  0  0  0
    0.0644    0.8915    0.0000 C   0  0  1  0  0  0  0  0  0  0  0  0
    0.0644    1.7164    0.0000 O   0  0  0  0  0  0  0  0  0  0  0  0
   -0.6499    2.1290    0.0000 C   0  0  0  0  0  0  0  0  0  0  0  0
   -0.6499    2.9539    0.0000 O   0  0  0  0  0  0  0  0  0  0  0  0
   -0.6499    0.4790    0.0000 C   0  0  0  0  0  0  0  0  0  0  0  0
   -1.3645    0.8915    0.0000 O   0  0  0  0  0  0  0  0  0  0  0  0
   -2.0790    0.4790    0.0000 P   0  0  0  0  0  0  0  0  0  0  0  0
   -2.7934    0.0665    0.0000 O   0  0  0  0  0  0  0  0  0  0  0  0
   -2.4915    1.1934    0.0000 O   0  0  0  0  0  0  0  0  0  0  0  0
   -1.6664   -0.2355    0.0000 O   0  0  0  0  0  0  0  0  0  0  0  0
    0.5700    1.1834    0.0000 H   0  0  0  0  0  0  0  0  0  0  0  0
    2.9221    1.9615    0.0000 H   0  0  0  0  0  0  0  0  0  0  0  0
    3.8488    1.4266    0.0000 H   0  0  0  0  0  0  0  0  0  0  0  0
    3.6369   -0.5910    0.0000 H   0  0  0  0  0  0  0  0  0  0  0  0
    4.5635   -0.0560    0.0000 H   0  0  0  0  0  0  0  0  0  0  0  0
    4.3512    1.9615    0.0000 H   0  0  0  0  0  0  0  0  0  0  0  0
    5.2779    1.4265    0.0000 H   0  0  0  0  0  0  0  0  0  0  0  0
    5.0656   -0.5910    0.0000 H   0  0  0  0  0  0  0  0  0  0  0  0
    5.9923    1.0140    0.0000 H   0  0  0  0  0  0  0  0  0  0  0  0
    5.9922   -0.0560    0.0000 H   0  0  0  0  0  0  0  0  0  0  0  0
    0.7789   -0.5910    0.0000 H   0  0  0  0  0  0  0  0  0  0  0  0
   -0.1477   -0.0560    0.0000 H   0  0  0  0  0  0  0  0  0  0  0  0
   -1.5437    1.6131    0.0000 H   0  0  0  0  0  0  0  0  0  0  0  0
   -0.6498   -0.5910    0.0000 H   0  0  0  0  0  0  0  0  0  0  0  0
   -1.5765   -0.0561    0.0000 H   0  0  0  0  0  0  0  0  0  0  0  0
   -3.6335    0.5515    0.0000 H   0  0  0  0  0  0  0  0  0  0  0  0
   -2.1513   -1.0756    0.0000 H   0  0  0  0  0  0  0  0  0  0  0  0
  1  2  2  0  0  0  0
  2  7  1  0  0  0  0
  2  3  1  0  0  0  0
  3  4  1  0  0  0  0
  3 20  1  0  0  0  0
  3 21  1  0  0  0  0
  4  5  1  0  0  0  0
  4 22  1  0  0  0  0
  4 23  1  0  0  0  0
  5  6  1  0  0  0  0
  5 24  1  0  0  0  0
  5 25  1  0  0  0  0
  6 26  1  0  0  0  0
  6 27  1  0  0  0  0
  6 28  1  0  0  0  0
  7  8  1  0  0  0  0
  8  9  1  0  0  0  0
  8 29  1  0  0  0  0
  8 30  1  0  0  0  0
  9 10  1  0  0  0  0
  9 13  1  0  0  0  0
  9 19  1  1  0  0  0
 10 11  1  0  0  0  0
 11 12  2  0  0  0  0
 11 31  1  0  0  0  0
 13 14  1  0  0  0  0
 13 32  1  0  0  0  0
 13 33  1  0  0  0  0
 14 15  1  0  0  0  0
 15 17  2  0  0  0  0
 15 16  1  0  0  0  0
 15 18  1  0  0  0  0
 16 34  1  0  0  0  0
 18 35  1  0  0  0  0
M  END
>  <DRUGBANK_ID>
DB08367

>  <COMMON_NAME>
(R)-2-(FORMYLOXY)-3-(PHOSPHONOOXY)PROPYL PENTANOATE

$$$$
