690
 OpenBabel10282417072D

 50 52  0  0  0  0  0  0  0  0999 V2000
    5.2302   -2.7288    0.0000 Cl  0  0  0  0  0  0  0  0  0  0  0  0
    8.0735    0.3999    0.0000 F   0  0  0  0  0  0  0  0  0  0  0  0
    5.0238    1.9897    0.0000 O   0  0  0  0  0  0  0  0  0  0  0  0
    4.8673    0.6014    0.0000 N   0  0  0  0  0  0  0  0  0  0  0  0
    3.0155    1.7569    0.0000 N   0  0  0  0  0  0  0  0  0  0  0  0
    6.7212    0.6014    0.0000 N   0  0  0  0  0  0  0  0  0  0  0  0
    4.0630    0.7849    0.0000 C   0  0  0  0  0  0  0  0  0  0  0  0
    3.8198    1.5733    0.0000 C   0  0  0  0  0  0  0  0  0  0  0  0
    5.0509   -0.2030    0.0000 C   0  0  0  0  0  0  0  0  0  0  0  0
    2.4543    1.1521    0.0000 C   0  0  0  0  0  0  0  0  0  0  0  0
    2.7723    2.5453    0.0000 C   0  0  0  0  0  0  0  0  0  0  0  0
    5.7942   -0.5609    0.0000 C   0  0  0  0  0  0  0  0  0  0  0  0
    5.3817    1.2464    0.0000 C   0  0  0  0  0  0  0  0  0  0  0  0
    6.5376   -0.2030    0.0000 C   0  0  0  0  0  0  0  0  0  0  0  0
    6.2068    1.2464    0.0000 C   0  0  0  0  0  0  0  0  0  0  0  0
    4.3336   -0.6761    0.0000 C   0  0  0  0  0  0  0  0  0  0  0  0
    5.8716   -1.4168    0.0000 C   0  0  0  0  0  0  0  0  0  0  0  0
    1.6500    1.3357    0.0000 C   0  0  0  0  0  0  0  0  0  0  0  0
    1.9680    2.7288    0.0000 C   0  0  0  0  0  0  0  0  0  0  0  0
    7.1826   -0.7174    0.0000 C   0  0  0  0  0  0  0  0  0  0  0  0
    4.3911   -1.5335    0.0000 C   0  0  0  0  0  0  0  0  0  0  0  0
    5.1654   -1.9064    0.0000 C   0  0  0  0  0  0  0  0  0  0  0  0
    7.9506   -0.4160    0.0000 C   0  0  0  0  0  0  0  0  0  0  0  0
    7.0597   -1.5332    0.0000 C   0  0  0  0  0  0  0  0  0  0  0  0
    8.5956   -0.9304    0.0000 C   0  0  0  0  0  0  0  0  0  0  0  0
    7.7047   -2.0475    0.0000 C   0  0  0  0  0  0  0  0  0  0  0  0
    8.4727   -1.7461    0.0000 C   0  0  0  0  0  0  0  0  0  0  0  0
    3.3353    0.0005    0.0000 H   0  0  0  0  0  0  0  0  0  0  0  0
    3.0198    1.0230    0.0000 H   0  0  0  0  0  0  0  0  0  0  0  0
    4.5476    2.3577    0.0000 H   0  0  0  0  0  0  0  0  0  0  0  0
    4.8630    1.3352    0.0000 H   0  0  0  0  0  0  0  0  0  0  0  0
    2.7697    0.1296    0.0000 H   0  0  0  0  0  0  0  0  0  0  0  0
    1.7265    0.3678    0.0000 H   0  0  0  0  0  0  0  0  0  0  0  0
    3.5000    3.3297    0.0000 H   0  0  0  0  0  0  0  0  0  0  0  0
    2.4568    3.5677    0.0000 H   0  0  0  0  0  0  0  0  0  0  0  0
    6.6710    2.2104    0.0000 H   0  0  0  0  0  0  0  0  0  0  0  0
    5.6375    2.1524    0.0000 H   0  0  0  0  0  0  0  0  0  0  0  0
    3.4091   -0.2176    0.0000 H   0  0  0  0  0  0  0  0  0  0  0  0
    6.8065   -1.8538    0.0000 H   0  0  0  0  0  0  0  0  0  0  0  0
    1.3346    2.3582    0.0000 H   0  0  0  0  0  0  0  0  0  0  0  0
    0.9222    0.5514    0.0000 H   0  0  0  0  0  0  0  0  0  0  0  0
    0.6068    1.5738    0.0000 H   0  0  0  0  0  0  0  0  0  0  0  0
    1.6525    3.7512    0.0000 H   0  0  0  0  0  0  0  0  0  0  0  0
    1.2403    1.9444    0.0000 H   0  0  0  0  0  0  0  0  0  0  0  0
    0.9248    2.9668    0.0000 H   0  0  0  0  0  0  0  0  0  0  0  0
    3.5361   -2.1115    0.0000 H   0  0  0  0  0  0  0  0  0  0  0  0
    6.0991   -1.9103    0.0000 H   0  0  0  0  0  0  0  0  0  0  0  0
    9.5563   -0.5534    0.0000 H   0  0  0  0  0  0  0  0  0  0  0  0
    7.5509   -3.0680    0.0000 H   0  0  0  0  0  0  0  0  0  0  0  0
    9.2796   -2.3895    0.0000 H   0  0  0  0  0  0  0  0  0  0  0  0
  1 22  1  0  0  0  0
  2 23  1  0  0  0  0
  3 13  2  0  0  0  0
  4  7  1  0  0  0  0
  4  9  1  0  0  0  0
  4 13  1  0  0  0  0
  5  8  1  0  0  0  0
  5 10  1  0  0  0  0
  5 11  1  0  0  0  0
  6 14  2  0  0  0  0
  6 15  1  0  0  0  0
  7  8  1  0  0  0  0
  7 28  1  0  0  0  0
  7 29  1  0  0  0  0
  8 30  1  0  0  0  0
  8 31  1  0  0  0  0
  9 12  2  0  0  0  0
  9 16  1  0  0  0  0
 10 18  1  0  0  0  0
 10 32  1  0  0  0  0
 10 33  1  0  0  0  0
 11 19  1  0  0  0  0
 11 34  1  0  0  0  0
 11 35  1  0  0  0  0
 12 14  1  0  0  0  0
 12 17  1  0  0  0  0
 13 15  1  0  0  0  0
 14 20  1  0  0  0  0
 15 36  1  0  0  0  0
 15 37  1  0  0  0  0
 16 21  2  0  0  0  0
 16 38  1  0  0  0  0
 17 22  2  0  0  0  0
 17 39  1  0  0  0  0
 18 40  1  0  0  0  0
 18 41  1  0  0  0  0
 18 42  1  0  0  0  0
 19 43  1  0  0  0  0
 19 44  1  0  0  0  0
 19 45  1  0  0  0  0
 20 23  1  0  0  0  0
 20 24  2  0  0  0  0
 21 22  1  0  0  0  0
 21 46  1  0  0  0  0
 23 25  2  0  0  0  0
 24 26  1  0  0  0  0
 24 47  1  0  0  0  0
 25 27  1  0  0  0  0
 25 48  1  0  0  0  0
 26 27  2  0  0  0  0
 26 49  1  0  0  0  0
 27 50  1  0  0  0  0
M  END
>  <DRUGBANK_ID>
DB00690

>  <SECONDARY_ACCESSION_NUMBERS>
APRD00983

>  <COMMON_NAME>
Flurazepam

>  <CAS_NUMBER>
17617-23-1

>  <UNII>
IHP475989U

>  <SYNONYMS>
Flurazepam; Fluraz√©pam; Flurazepamum

$$$$
