389
 OpenBabel10282417072D

 22 22  0  0  0  0  0  0  0  0999 V2000
    4.5311    0.4990    0.0000 S   0  0  0  0  0  0  0  0  0  0  0  0
    2.3645   -0.9685    0.0000 O   0  0  0  0  0  0  0  0  0  0  0  0
    3.7935   -0.9685    0.0000 O   0  0  0  0  0  0  0  0  0  0  0  0
    3.4916    1.5386    0.0000 N   0  0  0  0  0  0  0  0  0  0  0  0
    3.0791    0.2690    0.0000 N   0  0  0  0  0  0  0  0  0  0  0  0
    3.7465    0.7540    0.0000 C   0  0  0  0  0  0  0  0  0  0  0  0
    2.4115    0.7540    0.0000 C   0  0  0  0  0  0  0  0  0  0  0  0
    2.6666    1.5386    0.0000 C   0  0  0  0  0  0  0  0  0  0  0  0
    3.9764    2.2060    0.0000 C   0  0  0  0  0  0  0  0  0  0  0  0
    3.0791   -0.5560    0.0000 C   0  0  0  0  0  0  0  0  0  0  0  0
    2.3645   -1.7935    0.0000 C   0  0  0  0  0  0  0  0  0  0  0  0
    1.6500   -2.2060    0.0000 C   0  0  0  0  0  0  0  0  0  0  0  0
    1.4300    0.4352    0.0000 H   0  0  0  0  0  0  0  0  0  0  0  0
    2.0601    2.3736    0.0000 H   0  0  0  0  0  0  0  0  0  0  0  0
    5.0405    2.0943    0.0000 H   0  0  0  0  0  0  0  0  0  0  0  0
    3.5411    3.1835    0.0000 H   0  0  0  0  0  0  0  0  0  0  0  0
    4.6053    3.0717    0.0000 H   0  0  0  0  0  0  0  0  0  0  0  0
    3.2911   -2.3285    0.0000 H   0  0  0  0  0  0  0  0  0  0  0  0
    2.3645   -2.8635    0.0000 H   0  0  0  0  0  0  0  0  0  0  0  0
    0.7234   -1.6710    0.0000 H   0  0  0  0  0  0  0  0  0  0  0  0
    1.6500   -3.2760    0.0000 H   0  0  0  0  0  0  0  0  0  0  0  0
    0.7233   -2.7410    0.0000 H   0  0  0  0  0  0  0  0  0  0  0  0
  1  6  2  0  0  0  0
  2 10  1  0  0  0  0
  2 11  1  0  0  0  0
  3 10  2  0  0  0  0
  4  6  1  0  0  0  0
  4  8  1  0  0  0  0
  4  9  1  0  0  0  0
  5  6  1  0  0  0  0
  5  7  1  0  0  0  0
  5 10  1  0  0  0  0
  7  8  2  0  0  0  0
  7 13  1  0  0  0  0
  8 14  1  0  0  0  0
  9 15  1  0  0  0  0
  9 16  1  0  0  0  0
  9 17  1  0  0  0  0
 11 12  1  0  0  0  0
 11 18  1  0  0  0  0
 11 19  1  0  0  0  0
 12 20  1  0  0  0  0
 12 21  1  0  0  0  0
 12 22  1  0  0  0  0
M  END
>  <DRUGBANK_ID>
DB00389

>  <SECONDARY_ACCESSION_NUMBERS>
APRD00503

>  <COMMON_NAME>
Carbimazole

>  <CAS_NUMBER>
22232-54-8

>  <UNII>
8KQ660G60G

>  <SYNONYMS>
Athyromazole; Carbethoxymethimazole; Carbimazol; Carbimazole; Carbimazolo; Carbimazolum; Carbinazole; Ethyl 3-methyl-2-thioimidazoline-1-carboxylate

$$$$
