YZ9
 OpenBabel10282417072D

 27 28  0  0  0  0  0  0  0  0999 V2000
    3.0954   -0.1385    0.0000 C   0  0  0  0  0  0  0  0  0  0  0  0
    2.3809   -0.5510    0.0000 C   0  0  0  0  0  0  0  0  0  0  0  0
    0.9520   -1.3760    0.0000 O   0  0  0  0  0  0  0  0  0  0  0  0
    1.6665   -0.1385    0.0000 O   0  0  0  0  0  0  0  0  0  0  0  0
   -1.9059   -0.5510    0.0000 C   0  0  0  0  0  0  0  0  0  0  0  0
   -0.4770   -0.5510    0.0000 C   0  0  0  0  0  0  0  0  0  0  0  0
   -1.9059    1.0990    0.0000 C   0  0  0  0  0  0  0  0  0  0  0  0
   -0.4770    1.0990    0.0000 O   0  0  0  0  0  0  0  0  0  0  0  0
   -1.1914   -0.1385    0.0000 C   0  0  0  0  0  0  0  0  0  0  0  0
   -1.1914    0.6865    0.0000 C   0  0  0  0  0  0  0  0  0  0  0  0
    0.2375    0.6865    0.0000 C   0  0  0  0  0  0  0  0  0  0  0  0
    0.9520   -0.5510    0.0000 C   0  0  0  0  0  0  0  0  0  0  0  0
   -3.3348    1.0990    0.0000 O   0  0  0  0  0  0  0  0  0  0  0  0
    0.9520    1.0990    0.0000 O   0  0  0  0  0  0  0  0  0  0  0  0
   -2.6204   -0.1385    0.0000 C   0  0  0  0  0  0  0  0  0  0  0  0
    0.2375   -0.1385    0.0000 C   0  0  0  0  0  0  0  0  0  0  0  0
   -2.6204    0.6865    0.0000 C   0  0  0  0  0  0  0  0  0  0  0  0
    4.0220   -0.6735    0.0000 H   0  0  0  0  0  0  0  0  0  0  0  0
    3.0954    0.9315    0.0000 H   0  0  0  0  0  0  0  0  0  0  0  0
    4.0221    0.3965    0.0000 H   0  0  0  0  0  0  0  0  0  0  0  0
    2.3809   -1.6210    0.0000 H   0  0  0  0  0  0  0  0  0  0  0  0
    1.4542   -1.0860    0.0000 H   0  0  0  0  0  0  0  0  0  0  0  0
   -1.9059   -1.5830    0.0000 H   0  0  0  0  0  0  0  0  0  0  0  0
   -0.4770   -1.5830    0.0000 H   0  0  0  0  0  0  0  0  0  0  0  0
   -1.9059    2.1310    0.0000 H   0  0  0  0  0  0  0  0  0  0  0  0
   -3.3348    2.0360    0.0000 H   0  0  0  0  0  0  0  0  0  0  0  0
   -3.5141   -0.6545    0.0000 H   0  0  0  0  0  0  0  0  0  0  0  0
  1  2  1  0  0  0  0
  1 18  1  0  0  0  0
  1 19  1  0  0  0  0
  1 20  1  0  0  0  0
  2  4  1  0  0  0  0
  2 21  1  0  0  0  0
  2 22  1  0  0  0  0
  3 12  2  0  0  0  0
  4 12  1  0  0  0  0
  5  9  2  0  0  0  0
  5 15  1  0  0  0  0
  5 23  1  0  0  0  0
  6  9  1  0  0  0  0
  6 16  2  0  0  0  0
  6 24  1  0  0  0  0
  7 10  2  0  0  0  0
  7 17  1  0  0  0  0
  7 25  1  0  0  0  0
  8 10  1  0  0  0  0
  8 11  1  0  0  0  0
  9 10  1  0  0  0  0
 11 14  2  0  0  0  0
 11 16  1  0  0  0  0
 12 16  1  0  0  0  0
 13 17  1  0  0  0  0
 13 26  1  0  0  0  0
 15 17  2  0  0  0  0
 15 27  1  0  0  0  0
M  END
>  <DRUGBANK_ID>
DB02728

>  <SECONDARY_ACCESSION_NUMBERS>
EXPT03279

>  <COMMON_NAME>
7-Hydroxy-2-Oxo-Chromene-3-Carboxylic Acid Ethyl Ester

>  <UNII>
X538NC636R

$$$$
