
 OpenBabel10282417072D

 46 49  0  0  0  0  0  0  0  0999 V2000
    1.5083    0.9260    0.0000 C   0  0  2  0  0  0  0  0  0  0  0  0
    1.5083    0.0992    0.0000 C   0  0  2  0  0  0  0  0  0  0  0  0
    0.7943   -0.3142    0.0000 C   0  0  1  0  0  0  0  0  0  0  0  0
    0.0803    0.0992    0.0000 C   0  0  1  0  0  0  0  0  0  0  0  0
   -0.6335   -0.3142    0.0000 C   0  0  2  0  0  0  0  0  0  0  0  0
   -0.6335   -1.1364    0.0000 C   0  0  2  0  0  0  0  0  0  0  0  0
   -1.3475   -1.5499    0.0000 C   0  0  0  0  0  0  0  0  0  0  0  0
   -2.0614   -1.1364    0.0000 C   0  0  0  0  0  0  0  0  0  0  0  0
   -2.7754   -1.5499    0.0000 O   0  0  0  0  0  0  0  0  0  0  0  0
   -2.0614   -0.3142    0.0000 C   0  0  0  0  0  0  0  0  0  0  0  0
   -1.3475    0.0992    0.0000 C   0  0  0  0  0  0  0  0  0  0  0  0
    0.0803   -1.5499    0.0000 C   0  0  0  0  0  0  0  0  0  0  0  0
    0.7943   -1.1364    0.0000 C   0  0  0  0  0  0  0  0  0  0  0  0
   -0.6335   -1.9632    0.0000 H   0  0  0  0  0  0  0  0  0  0  0  0
   -0.6335    0.5126    0.0000 H   0  0  0  0  0  0  0  0  0  0  0  0
    0.0803   -0.7229    0.0000 H   0  0  0  0  0  0  0  0  0  0  0  0
    0.0803    0.9260    0.0000 C   0  0  0  0  0  0  0  0  0  0  0  0
    0.7943    1.3349    0.0000 C   0  0  0  0  0  0  0  0  0  0  0  0
    0.7943    0.5126    0.0000 H   0  0  0  0  0  0  0  0  0  0  0  0
    2.2909   -0.1551    0.0000 C   0  0  0  0  0  0  0  0  0  0  0  0
    2.7754    0.5126    0.0000 C   0  0  0  0  0  0  0  0  0  0  0  0
    2.2909    1.1805    0.0000 C   0  0  0  0  0  0  0  0  0  0  0  0
    2.5453    1.9632    0.0000 O   0  0  0  0  0  0  0  0  0  0  0  0
    1.5928   -0.7185    0.0000 H   0  0  0  0  0  0  0  0  0  0  0  0
    1.5928    1.7438    0.0000 C   0  0  0  0  0  0  0  0  0  0  0  0
   -1.3475   -2.6199    0.0000 H   0  0  0  0  0  0  0  0  0  0  0  0
   -2.2745   -2.0842    0.0000 H   0  0  0  0  0  0  0  0  0  0  0  0
   -2.9884    0.2202    0.0000 H   0  0  0  0  0  0  0  0  0  0  0  0
   -2.0624    0.7558    0.0000 H   0  0  0  0  0  0  0  0  0  0  0  0
   -1.3475    1.1692    0.0000 H   0  0  0  0  0  0  0  0  0  0  0  0
   -0.4205    0.6336    0.0000 H   0  0  0  0  0  0  0  0  0  0  0  0
    0.0802   -2.6199    0.0000 H   0  0  0  0  0  0  0  0  0  0  0  0
    1.0073   -2.0843    0.0000 H   0  0  0  0  0  0  0  0  0  0  0  0
    1.7213   -1.6708    0.0000 H   0  0  0  0  0  0  0  0  0  0  0  0
    1.7208   -0.6011    0.0000 H   0  0  0  0  0  0  0  0  0  0  0  0
   -0.8454    1.4626    0.0000 H   0  0  0  0  0  0  0  0  0  0  0  0
    0.0831    1.9960    0.0000 H   0  0  0  0  0  0  0  0  0  0  0  0
    0.7943    2.4049    0.0000 H   0  0  0  0  0  0  0  0  0  0  0  0
    1.7200    1.8715    0.0000 H   0  0  0  0  0  0  0  0  0  0  0  0
    2.6218   -1.1726    0.0000 H   0  0  0  0  0  0  0  0  0  0  0  0
    3.3478   -0.3220    0.0000 H   0  0  0  0  0  0  0  0  0  0  0  0
    3.8454    0.5125    0.0000 H   0  0  0  0  0  0  0  0  0  0  0  0
    3.2616    1.4658    0.0000 H   0  0  0  0  0  0  0  0  0  0  0  0
    2.5695    2.1807    0.0000 H   0  0  0  0  0  0  0  0  0  0  0  0
    0.7260    2.3712    0.0000 H   0  0  0  0  0  0  0  0  0  0  0  0
    1.7028    2.8081    0.0000 H   0  0  0  0  0  0  0  0  0  0  0  0
  1 25  1  1  0  0  0
  2  1  1  0  0  0  0
  2 24  1  6  0  0  0
  3  2  1  0  0  0  0
  3 19  1  1  0  0  0
  4  3  1  0  0  0  0
  4 16  1  6  0  0  0
  5  4  1  0  0  0  0
  5 15  1  1  0  0  0
  6  5  1  0  0  0  0
  6 14  1  6  0  0  0
  7  6  1  0  0  0  0
  7 26  1  0  0  0  0
  7 27  1  0  0  0  0
  8  7  1  0  0  0  0
  8  9  2  0  0  0  0
  8 10  1  0  0  0  0
 10 11  1  0  0  0  0
 10 28  1  0  0  0  0
 10 29  1  0  0  0  0
 11  5  1  0  0  0  0
 11 30  1  0  0  0  0
 11 31  1  0  0  0  0
 12  6  1  0  0  0  0
 12 13  1  0  0  0  0
 12 32  1  0  0  0  0
 12 33  1  0  0  0  0
 13  3  1  0  0  0  0
 13 34  1  0  0  0  0
 13 35  1  0  0  0  0
 17  4  1  0  0  0  0
 17 18  1  0  0  0  0
 17 36  1  0  0  0  0
 17 37  1  0  0  0  0
 18  1  1  0  0  0  0
 18 38  1  0  0  0  0
 18 39  1  0  0  0  0
 20  2  1  0  0  0  0
 20 40  1  0  0  0  0
 20 41  1  0  0  0  0
 21 20  1  0  0  0  0
 21 22  1  0  0  0  0
 21 42  1  0  0  0  0
 21 43  1  0  0  0  0
 22  1  1  0  0  0  0
 22 23  2  0  0  0  0
 25 44  1  0  0  0  0
 25 45  1  0  0  0  0
 25 46  1  0  0  0  0
M  END
>  <DRUGBANK_ID>
DB04693

>  <COMMON_NAME>
Estrane-3,17-dione

>  <CAS_NUMBER>
5696-58-2

>  <UNII>
M6NR2239PB

>  <SYNONYMS>
(5alpha)-Estrane-3,17-dione; Estrane-3,17-dione

$$$$
