
 OpenBabel10282417072D

105111  0  0  1  0  0  0  0  0999 V2000
    9.4402   -1.8405    0.0000 S   0  0  0  0  0  0  0  0  0  0  0  0
    1.9058   -0.4051    0.0000 O   0  0  0  0  0  0  0  0  0  0  0  0
    3.1433    0.3094    0.0000 O   0  0  0  0  0  0  0  0  0  0  0  0
    4.9848   -1.8340    0.0000 O   0  0  0  0  0  0  0  0  0  0  0  0
    6.6876    0.8942    0.0000 O   0  0  0  0  0  0  0  0  0  0  0  0
    6.7482   -1.5943    0.0000 O   0  0  0  0  0  0  0  0  0  0  0  0
    7.7256   -3.8656    0.0000 O   0  0  0  0  0  0  0  0  0  0  0  0
    7.3839   -2.4781    0.0000 O   0  0  0  0  0  0  0  0  0  0  0  0
    9.1826    3.8066    0.0000 O   0  0  0  0  0  0  0  0  0  0  0  0
    3.8578   -0.7071    0.0000 N   0  0  0  0  0  0  0  0  0  0  0  0
    6.0013   -1.1196    0.0000 N   0  0  0  0  0  0  0  0  0  0  0  0
    6.3531   -3.4678    0.0000 N   0  0  0  0  0  0  0  0  0  0  0  0
    9.1627    0.8942    0.0000 N   0  0  0  0  0  0  0  0  0  0  0  0
    9.9831   -0.6210    0.0000 N   0  0  0  0  0  0  0  0  0  0  0  0
   10.9084   -1.7636    0.0000 N   0  0  0  0  0  0  0  0  0  0  0  0
    3.1433   -1.1196    0.0000 C   0  0  1  0  0  0  0  0  0  0  0  0
    3.1433   -1.9447    0.0000 C   0  0  1  0  0  0  0  0  0  0  0  0
    2.4284   -1.5321    0.0000 C   0  0  0  0  0  0  0  0  0  0  0  0
    3.8578   -2.3572    0.0000 C   0  0  0  0  0  0  0  0  0  0  0  0
    2.7308   -0.4051    0.0000 C   0  0  0  0  0  0  0  0  0  0  0  0
    5.2868   -0.7071    0.0000 C   0  0  2  0  0  0  0  0  0  0  0  0
    4.5723   -1.1196    0.0000 C   0  0  0  0  0  0  0  0  0  0  0  0
    5.4594    0.0947    0.0000 C   0  0  0  0  0  0  0  0  0  0  0  0
    6.2751    0.1797    0.0000 C   0  0  2  0  0  0  0  0  0  0  0  0
    6.6093   -0.5693    0.0000 C   0  0  0  0  0  0  0  0  0  0  0  0
    3.8578   -3.1822    0.0000 C   0  0  0  0  0  0  0  0  0  0  0  0
    3.1433   -3.5947    0.0000 C   0  0  0  0  0  0  0  0  0  0  0  0
    6.0013   -1.9447    0.0000 C   0  0  0  0  0  0  0  0  0  0  0  0
    5.7817   -2.8726    0.0000 C   0  0  2  0  0  0  0  0  0  0  0  0
    3.5558   -4.3092    0.0000 C   0  0  0  0  0  0  0  0  0  0  0  0
    5.0672   -3.2851    0.0000 C   0  0  0  0  0  0  0  0  0  0  0  0
    4.3527   -4.5227    0.0000 C   0  0  0  0  0  0  0  0  0  0  0  0
    5.0672   -4.1102    0.0000 C   0  0  0  0  0  0  0  0  0  0  0  0
    7.5126    0.8942    0.0000 C   0  0  0  0  0  0  0  0  0  0  0  0
    8.5266   -3.6684    0.0000 C   0  0  0  0  0  0  0  0  0  0  0  0
    7.1541   -3.2705    0.0000 C   0  0  0  0  0  0  0  0  0  0  0  0
    9.1571   -4.2005    0.0000 C   0  0  0  0  0  0  0  0  0  0  0  0
    8.8379   -2.9043    0.0000 C   0  0  0  0  0  0  0  0  0  0  0  0
    7.9251    1.6087    0.0000 C   0  0  0  0  0  0  0  0  0  0  0  0
    9.8580   -3.7654    0.0000 C   0  0  0  0  0  0  0  0  0  0  0  0
    9.6608   -2.9643    0.0000 C   0  0  0  0  0  0  0  0  0  0  0  0
    7.9251    0.1797    0.0000 C   0  0  0  0  0  0  0  0  0  0  0  0
    8.7501    1.6087    0.0000 C   0  0  0  0  0  0  0  0  0  0  0  0
    8.7501    0.1797    0.0000 C   0  0  0  0  0  0  0  0  0  0  0  0
    7.4840    2.3462    0.0000 C   0  0  0  0  0  0  0  0  0  0  0  0
    9.1913    2.3462    0.0000 C   0  0  0  0  0  0  0  0  0  0  0  0
    7.9080    3.0937    0.0000 C   0  0  0  0  0  0  0  0  0  0  0  0
    9.1627   -0.5348    0.0000 C   0  0  0  0  0  0  0  0  0  0  0  0
    8.7673    3.0937    0.0000 C   0  0  0  0  0  0  0  0  0  0  0  0
    8.8271   -1.2885    0.0000 C   0  0  0  0  0  0  0  0  0  0  0  0
   10.1547   -1.4280    0.0000 C   0  0  0  0  0  0  0  0  0  0  0  0
    8.7728    4.5227    0.0000 C   0  0  0  0  0  0  0  0  0  0  0  0
   11.5758   -1.2786    0.0000 C   0  0  0  0  0  0  0  0  0  0  0  0
   12.3295   -1.6142    0.0000 C   0  0  0  0  0  0  0  0  0  0  0  0
   11.4896   -0.4581    0.0000 C   0  0  0  0  0  0  0  0  0  0  0  0
    2.7928   -2.5519    0.0000 H   0  0  0  0  0  0  0  0  0  0  0  0
    4.7200   -0.2942    0.0000 H   0  0  0  0  0  0  0  0  0  0  0  0
    1.4373    0.4064    0.0000 H   0  0  0  0  0  0  0  0  0  0  0  0
    3.8578    0.2774    0.0000 H   0  0  0  0  0  0  0  0  0  0  0  0
    6.0790   -4.4134    0.0000 H   0  0  0  0  0  0  0  0  0  0  0  0
   11.0113   -2.7427    0.0000 H   0  0  0  0  0  0  0  0  0  0  0  0
    1.3584   -1.5320    0.0000 H   0  0  0  0  0  0  0  0  0  0  0  0
    2.1515   -2.5657    0.0000 H   0  0  0  0  0  0  0  0  0  0  0  0
    4.7515   -1.8412    0.0000 H   0  0  0  0  0  0  0  0  0  0  0  0
    4.7448    0.8911    0.0000 H   0  0  0  0  0  0  0  0  0  0  0  0
    5.8442    1.0931    0.0000 H   0  0  0  0  0  0  0  0  0  0  0  0
    5.6927    1.0773    0.0000 H   0  0  0  0  0  0  0  0  0  0  0  0
    7.6563   -0.7900    0.0000 H   0  0  0  0  0  0  0  0  0  0  0  0
    7.2816    0.2631    0.0000 H   0  0  0  0  0  0  0  0  0  0  0  0
    4.7515   -3.6982    0.0000 H   0  0  0  0  0  0  0  0  0  0  0  0
    2.1098   -3.3177    0.0000 H   0  0  0  0  0  0  0  0  0  0  0  0
    2.4919   -4.4436    0.0000 H   0  0  0  0  0  0  0  0  0  0  0  0
    6.8140   -2.5910    0.0000 H   0  0  0  0  0  0  0  0  0  0  0  0
    2.9044   -5.1581    0.0000 H   0  0  0  0  0  0  0  0  0  0  0  0
    3.8998   -5.3224    0.0000 H   0  0  0  0  0  0  0  0  0  0  0  0
    4.1406   -2.7501    0.0000 H   0  0  0  0  0  0  0  0  0  0  0  0
    4.1406   -3.8201    0.0000 H   0  0  0  0  0  0  0  0  0  0  0  0
    4.4924   -5.5835    0.0000 H   0  0  0  0  0  0  0  0  0  0  0  0
    5.3124   -4.9960    0.0000 H   0  0  0  0  0  0  0  0  0  0  0  0
    5.9938   -4.6452    0.0000 H   0  0  0  0  0  0  0  0  0  0  0  0
    5.0672   -5.1802    0.0000 H   0  0  0  0  0  0  0  0  0  0  0  0
    9.5656   -3.4125    0.0000 H   0  0  0  0  0  0  0  0  0  0  0  0
    9.0794   -5.2677    0.0000 H   0  0  0  0  0  0  0  0  0  0  0  0
   10.0727   -4.7543    0.0000 H   0  0  0  0  0  0  0  0  0  0  0  0
    8.2736   -1.9952    0.0000 H   0  0  0  0  0  0  0  0  0  0  0  0
    9.3917   -1.9888    0.0000 H   0  0  0  0  0  0  0  0  0  0  0  0
   10.8489   -4.1692    0.0000 H   0  0  0  0  0  0  0  0  0  0  0  0
   10.6676   -3.0658    0.0000 H   0  0  0  0  0  0  0  0  0  0  0  0
   10.3510   -2.1467    0.0000 H   0  0  0  0  0  0  0  0  0  0  0  0
   10.7027   -3.2081    0.0000 H   0  0  0  0  0  0  0  0  0  0  0  0
    7.4091   -0.7140    0.0000 H   0  0  0  0  0  0  0  0  0  0  0  0
    6.4521    2.3343    0.0000 H   0  0  0  0  0  0  0  0  0  0  0  0
   10.2232    2.3343    0.0000 H   0  0  0  0  0  0  0  0  0  0  0  0
    7.3886    3.9855    0.0000 H   0  0  0  0  0  0  0  0  0  0  0  0
    7.8177   -1.5031    0.0000 H   0  0  0  0  0  0  0  0  0  0  0  0
    9.3113    5.4473    0.0000 H   0  0  0  0  0  0  0  0  0  0  0  0
    7.7028    4.5268    0.0000 H   0  0  0  0  0  0  0  0  0  0  0  0
    8.2413    5.4514    0.0000 H   0  0  0  0  0  0  0  0  0  0  0  0
   12.4415   -0.6497    0.0000 H   0  0  0  0  0  0  0  0  0  0  0  0
   12.4413   -2.6783    0.0000 H   0  0  0  0  0  0  0  0  0  0  0  0
   13.1952   -0.9853    0.0000 H   0  0  0  0  0  0  0  0  0  0  0  0
   13.3070   -2.0494    0.0000 H   0  0  0  0  0  0  0  0  0  0  0  0
   12.3553    0.1708    0.0000 H   0  0  0  0  0  0  0  0  0  0  0  0
   10.5121   -0.0228    0.0000 H   0  0  0  0  0  0  0  0  0  0  0  0
   11.3778    0.6060    0.0000 H   0  0  0  0  0  0  0  0  0  0  0  0
  1 50  1  0  0  0  0
  1 51  1  0  0  0  0
  2 20  1  0  0  0  0
  2 58  1  0  0  0  0
  3 20  2  0  0  0  0
  4 22  2  0  0  0  0
  5 34  1  0  0  0  0
  6 28  2  0  0  0  0
  7 35  1  0  0  0  0
  7 36  1  0  0  0  0
  8 36  2  0  0  0  0
  9 49  1  0  0  0  0
  9 52  1  0  0  0  0
 10 16  1  0  0  0  0
 10 22  1  0  0  0  0
 10 59  1  0  0  0  0
 11 21  1  0  0  0  0
 11 25  1  0  0  0  0
 11 28  1  0  0  0  0
 12 36  1  0  0  0  0
 12 60  1  0  0  0  0
 13 43  1  0  0  0  0
 13 44  2  0  0  0  0
 14 48  1  0  0  0  0
 14 51  2  0  0  0  0
 15 51  1  0  0  0  0
 15 53  1  0  0  0  0
 15 61  1  0  0  0  0
 16 17  1  0  0  0  0
 16 18  1  0  0  0  0
 16 20  1  6  0  0  0
 17 18  1  0  0  0  0
 17 19  1  0  0  0  0
 17 56  1  1  0  0  0
 18 62  1  0  0  0  0
 18 63  1  0  0  0  0
 19 26  2  0  0  0  0
 19 64  1  0  0  0  0
 21 22  1  0  0  0  0
 21 23  1  0  0  0  0
 21 57  1  1  0  0  0
 23 24  1  0  0  0  0
 23 65  1  0  0  0  0
 23 66  1  0  0  0  0
 24  5  1  0  0  0  0
 24 25  1  0  0  0  0
 24 67  1  6  0  0  0
 25 68  1  0  0  0  0
 25 69  1  0  0  0  0
 26 27  1  0  0  0  0
 26 70  1  0  0  0  0
 27 30  1  0  0  0  0
 27 71  1  0  0  0  0
 27 72  1  0  0  0  0
 28 29  1  0  0  0  0
 29 12  1  0  0  0  0
 29 31  1  0  0  0  0
 29 73  1  6  0  0  0
 30 32  1  0  0  0  0
 30 74  1  0  0  0  0
 30 75  1  0  0  0  0
 31 33  1  0  0  0  0
 31 76  1  0  0  0  0
 31 77  1  0  0  0  0
 32 33  1  0  0  0  0
 32 78  1  0  0  0  0
 32 79  1  0  0  0  0
 33 80  1  0  0  0  0
 33 81  1  0  0  0  0
 34 39  1  0  0  0  0
 34 42  2  0  0  0  0
 35 37  1  0  0  0  0
 35 38  1  0  0  0  0
 35 82  1  0  0  0  0
 37 40  1  0  0  0  0
 37 83  1  0  0  0  0
 37 84  1  0  0  0  0
 38 41  1  0  0  0  0
 38 85  1  0  0  0  0
 38 86  1  0  0  0  0
 39 43  2  0  0  0  0
 39 45  1  0  0  0  0
 40 41  1  0  0  0  0
 40 87  1  0  0  0  0
 40 88  1  0  0  0  0
 41 89  1  0  0  0  0
 41 90  1  0  0  0  0
 42 44  1  0  0  0  0
 42 91  1  0  0  0  0
 43 46  1  0  0  0  0
 44 48  1  0  0  0  0
 45 47  2  0  0  0  0
 45 92  1  0  0  0  0
 46 49  2  0  0  0  0
 46 93  1  0  0  0  0
 47 49  1  0  0  0  0
 47 94  1  0  0  0  0
 48 50  2  0  0  0  0
 50 95  1  0  0  0  0
 52 96  1  0  0  0  0
 52 97  1  0  0  0  0
 52 98  1  0  0  0  0
 53 54  1  0  0  0  0
 53 55  1  0  0  0  0
 53 99  1  0  0  0  0
 54100  1  0  0  0  0
 54101  1  0  0  0  0
 54102  1  0  0  0  0
 55103  1  0  0  0  0
 55104  1  0  0  0  0
 55105  1  0  0  0  0
M  END
>  <DRUGBANK_ID>
DB05868

>  <SECONDARY_ACCESSION_NUMBERS>
DB13130

>  <COMMON_NAME>
Ciluprevir

>  <CAS_NUMBER>
300832-84-2

>  <UNII>
75C8DU40T0

>  <SYNONYMS>
Ciluprevir

$$$$
