
 OpenBabel10282417072D

 36 36  0  0  0  0  0  0  0  0999 V2000
    0.7145    2.0625    0.0000 C   0  0  0  0  0  0  0  0  0  0  0  0
    0.7145    1.2375    0.0000 C   0  0  0  0  0  0  0  0  0  0  0  0
    1.4289    0.8250    0.0000 C   0  0  0  0  0  0  0  0  0  0  0  0
    1.4289   -0.0000    0.0000 C   0  0  0  0  0  0  0  0  0  0  0  0
    0.7145   -0.4125    0.0000 C   0  0  0  0  0  0  0  0  0  0  0  0
    0.0000    0.0000    0.0000 C   0  0  0  0  0  0  0  0  0  0  0  0
    0.0000    0.8250    0.0000 C   0  0  0  0  0  0  0  0  0  0  0  0
   -0.7145    1.2375    0.0000 C   0  0  0  0  0  0  0  0  0  0  0  0
   -0.7145    2.0625    0.0000 O   0  0  0  0  0  0  0  0  0  0  0  0
   -1.4289    0.8250    0.0000 N   0  0  0  0  0  0  0  0  0  0  0  0
   -2.1434    1.2375    0.0000 C   0  0  0  0  0  0  0  0  0  0  0  0
   -2.8579    0.8250    0.0000 N   0  0  0  0  0  0  0  0  0  0  0  0
   -2.1434    2.0625    0.0000 N   0  0  0  0  0  0  0  0  0  0  0  0
    0.7145   -1.2375    0.0000 S   0  0  0  0  0  0  0  0  0  0  0  0
    0.7145   -2.0625    0.0000 O   0  0  0  0  0  0  0  0  0  0  0  0
   -0.1105   -1.2375    0.0000 O   0  0  0  0  0  0  0  0  0  0  0  0
    1.5395   -1.2375    0.0000 C   0  0  0  0  0  0  0  0  0  0  0  0
    2.1434   -0.4125    0.0000 S   0  0  0  0  0  0  0  0  0  0  0  0
    2.8579   -0.8250    0.0000 O   0  0  0  0  0  0  0  0  0  0  0  0
    1.9719   -1.2195    0.0000 O   0  0  0  0  0  0  0  0  0  0  0  0
    2.5559    0.3020    0.0000 C   0  0  0  0  0  0  0  0  0  0  0  0
    1.6411    2.5975    0.0000 H   0  0  0  0  0  0  0  0  0  0  0  0
   -0.2121    2.5975    0.0000 H   0  0  0  0  0  0  0  0  0  0  0  0
    0.7145    3.1325    0.0000 H   0  0  0  0  0  0  0  0  0  0  0  0
    2.3226    1.3410    0.0000 H   0  0  0  0  0  0  0  0  0  0  0  0
   -0.8937   -0.5160    0.0000 H   0  0  0  0  0  0  0  0  0  0  0  0
   -1.4289   -0.1595    0.0000 H   0  0  0  0  0  0  0  0  0  0  0  0
   -3.7105    1.3173    0.0000 H   0  0  0  0  0  0  0  0  0  0  0  0
   -1.2908    2.5548    0.0000 H   0  0  0  0  0  0  0  0  0  0  0  0
   -2.9960    2.5547    0.0000 H   0  0  0  0  0  0  0  0  0  0  0  0
    2.0745   -2.1641    0.0000 H   0  0  0  0  0  0  0  0  0  0  0  0
    2.0745   -0.3109    0.0000 H   0  0  0  0  0  0  0  0  0  0  0  0
    2.6095   -1.2375    0.0000 H   0  0  0  0  0  0  0  0  0  0  0  0
    3.6259    0.3020    0.0000 H   0  0  0  0  0  0  0  0  0  0  0  0
    2.0209    1.2286    0.0000 H   0  0  0  0  0  0  0  0  0  0  0  0
    3.0909    1.2287    0.0000 H   0  0  0  0  0  0  0  0  0  0  0  0
  1  2  1  0  0  0  0
  1 22  1  0  0  0  0
  1 23  1  0  0  0  0
  1 24  1  0  0  0  0
  2  3  2  0  0  0  0
  2  7  1  0  0  0  0
  3  4  1  0  0  0  0
  3 25  1  0  0  0  0
  4  5  2  0  0  0  0
  4 18  1  0  0  0  0
  5  6  1  0  0  0  0
  5 14  1  0  0  0  0
  6  7  2  0  0  0  0
  6 26  1  0  0  0  0
  7  8  1  0  0  0  0
  8  9  2  0  0  0  0
  8 10  1  0  0  0  0
 10 11  1  0  0  0  0
 10 27  1  0  0  0  0
 11 12  2  0  0  0  0
 11 13  1  0  0  0  0
 12 28  1  0  0  0  0
 13 29  1  0  0  0  0
 13 30  1  0  0  0  0
 14 15  2  0  0  0  0
 14 16  2  0  0  0  0
 14 17  1  0  0  0  0
 17 31  1  0  0  0  0
 17 32  1  0  0  0  0
 17 33  1  0  0  0  0
 18 19  2  0  0  0  0
 18 20  2  0  0  0  0
 18 21  1  0  0  0  0
 21 34  1  0  0  0  0
 21 35  1  0  0  0  0
 21 36  1  0  0  0  0
M  END
>  <DRUGBANK_ID>
DB12861

>  <COMMON_NAME>
Rimeporide

>  <CAS_NUMBER>
187870-78-6

>  <UNII>
QH6B4V5743

>  <SYNONYMS>
Rimeporide

$$$$
