1192
 OpenBabel10282417072D

 41 45  0  0  1  0  0  0  0  0999 V2000
    1.9356   -0.2231    0.0000 O   0  0  0  0  0  0  0  0  0  0  0  0
    4.4727   -1.7584    0.0000 O   0  0  0  0  0  0  0  0  0  0  0  0
    1.7349   -2.3527    0.0000 O   0  0  0  0  0  0  0  0  0  0  0  0
    1.7349    1.8149    0.0000 O   0  0  0  0  0  0  0  0  0  0  0  0
    5.3440   -1.0939    0.0000 N   0  0  0  0  0  0  0  0  0  0  0  0
    3.2006   -0.6814    0.0000 C   0  0  1  0  0  0  0  0  0  0  0  0
    3.9151   -1.0939    0.0000 C   0  0  1  0  0  0  0  0  0  0  0  0
    4.6296   -0.6814    0.0000 C   0  0  1  0  0  0  0  0  0  0  0  0
    2.4861   -1.0939    0.0000 C   0  0  2  0  0  0  0  0  0  0  0  0
    3.6773   -0.0764    0.0000 C   0  0  0  0  0  0  0  0  0  0  0  0
    3.2006    0.1436    0.0000 C   0  0  0  0  0  0  0  0  0  0  0  0
    3.9151   -1.9190    0.0000 C   0  0  0  0  0  0  0  0  0  0  0  0
    4.6296    0.1436    0.0000 C   0  0  0  0  0  0  0  0  0  0  0  0
    4.8506   -0.0764    0.0000 C   0  0  0  0  0  0  0  0  0  0  0  0
    3.9151    0.5561    0.0000 C   0  0  0  0  0  0  0  0  0  0  0  0
    3.2006   -2.3315    0.0000 C   0  0  0  0  0  0  0  0  0  0  0  0
    2.4861   -1.9190    0.0000 C   0  0  0  0  0  0  0  0  0  0  0  0
    2.4861    0.5561    0.0000 C   0  0  0  0  0  0  0  0  0  0  0  0
    5.9350   -1.7290    0.0000 C   0  0  0  0  0  0  0  0  0  0  0  0
    3.9151    1.3811    0.0000 C   0  0  0  0  0  0  0  0  0  0  0  0
    2.4861    1.3811    0.0000 C   0  0  0  0  0  0  0  0  0  0  0  0
    3.2006    1.7936    0.0000 C   0  0  0  0  0  0  0  0  0  0  0  0
    4.8675   -1.3334    0.0000 H   0  0  0  0  0  0  0  0  0  0  0  0
    1.8196   -1.2870    0.0000 H   0  0  0  0  0  0  0  0  0  0  0  0
    4.1410   -2.6699    0.0000 H   0  0  0  0  0  0  0  0  0  0  0  0
    1.7350    2.7519    0.0000 H   0  0  0  0  0  0  0  0  0  0  0  0
    3.2102    0.8863    0.0000 H   0  0  0  0  0  0  0  0  0  0  0  0
    4.2452    0.8304    0.0000 H   0  0  0  0  0  0  0  0  0  0  0  0
    4.8417   -2.4540    0.0000 H   0  0  0  0  0  0  0  0  0  0  0  0
    3.9151   -2.9890    0.0000 H   0  0  0  0  0  0  0  0  0  0  0  0
    5.5562    0.6786    0.0000 H   0  0  0  0  0  0  0  0  0  0  0  0
    4.6296    1.2136    0.0000 H   0  0  0  0  0  0  0  0  0  0  0  0
    5.4186    0.8304    0.0000 H   0  0  0  0  0  0  0  0  0  0  0  0
    4.3324    0.8597    0.0000 H   0  0  0  0  0  0  0  0  0  0  0  0
    3.2006   -3.4015    0.0000 H   0  0  0  0  0  0  0  0  0  0  0  0
    2.2740   -2.8665    0.0000 H   0  0  0  0  0  0  0  0  0  0  0  0
    5.6211   -2.7519    0.0000 H   0  0  0  0  0  0  0  0  0  0  0  0
    6.9778   -1.4894    0.0000 H   0  0  0  0  0  0  0  0  0  0  0  0
    6.6639   -2.5123    0.0000 H   0  0  0  0  0  0  0  0  0  0  0  0
    4.8088    1.8971    0.0000 H   0  0  0  0  0  0  0  0  0  0  0  0
    3.2006    2.8256    0.0000 H   0  0  0  0  0  0  0  0  0  0  0  0
  1  9  1  0  0  0  0
  1 18  1  0  0  0  0
  2 25  1  0  0  0  0
  3 17  2  0  0  0  0
  4 21  1  0  0  0  0
  4 26  1  0  0  0  0
  5  8  1  0  0  0  0
  5 14  1  0  0  0  0
  5 19  1  0  0  0  0
  6  7  1  0  0  0  0
  6  9  1  0  0  0  0
  6 10  1  0  0  0  0
  6 11  1  6  0  0  0
  7  2  1  1  0  0  0
  7  8  1  0  0  0  0
  7 12  1  0  0  0  0
  8 13  1  0  0  0  0
  8 23  1  6  0  0  0
  9 17  1  0  0  0  0
  9 24  1  1  0  0  0
 10 14  1  0  0  0  0
 10 27  1  0  0  0  0
 10 28  1  0  0  0  0
 11 15  2  0  0  0  0
 11 18  1  0  0  0  0
 12 16  1  0  0  0  0
 12 29  1  0  0  0  0
 12 30  1  0  0  0  0
 13 15  1  0  0  0  0
 13 31  1  0  0  0  0
 13 32  1  0  0  0  0
 14 33  1  0  0  0  0
 14 34  1  0  0  0  0
 15 20  1  0  0  0  0
 16 17  1  0  0  0  0
 16 35  1  0  0  0  0
 16 36  1  0  0  0  0
 18 21  2  0  0  0  0
 19 37  1  0  0  0  0
 19 38  1  0  0  0  0
 19 39  1  0  0  0  0
 20 22  2  0  0  0  0
 20 40  1  0  0  0  0
 21 22  1  0  0  0  0
 22 41  1  0  0  0  0
M  END
>  <DRUGBANK_ID>
DB01192

>  <SECONDARY_ACCESSION_NUMBERS>
APRD00158

>  <COMMON_NAME>
Oxymorphone

>  <CAS_NUMBER>
76-41-5

>  <UNII>
9VXA968E0C

>  <SYNONYMS>
(14S)-14-Hydroxydihydromorphinone; 14-Hydroxydihydromorphinone; Dihydrohydroxymorphinone; Dihydroxymorphinone; Oximorfona; Oximorphonum; Oxymorphone; Oxymorphonum

$$$$
