
 OpenBabel10282417072D

 16 16  0  0  0  0  0  0  0  0999 V2000
   -0.8843    0.8843    0.0000 C   0  0  0  0  0  0  0  0  0  0  0  0
    0.9803   -0.1553    0.0000 C   0  0  0  0  0  0  0  0  0  0  0  0
    1.2352    0.6294    0.0000 C   0  0  0  0  0  0  0  0  0  0  0  0
    0.1553   -0.1553    0.0000 C   0  0  0  0  0  0  0  0  0  0  0  0
    0.5678    1.1143    0.0000 C   0  0  0  0  0  0  0  0  0  0  0  0
   -0.0997    0.6294    0.0000 N   0  0  0  0  0  0  0  0  0  0  0  0
    0.5678    1.9393    0.0000 O   0  0  0  0  0  0  0  0  0  0  0  0
   -1.1068    1.9309    0.0000 H   0  0  0  0  0  0  0  0  0  0  0  0
   -1.6794    0.1683    0.0000 H   0  0  0  0  0  0  0  0  0  0  0  0
   -1.9019    1.2149    0.0000 H   0  0  0  0  0  0  0  0  0  0  0  0
    1.6093   -1.0209    0.0000 H   0  0  0  0  0  0  0  0  0  0  0  0
    0.4945   -1.1087    0.0000 H   0  0  0  0  0  0  0  0  0  0  0  0
    2.2528    0.9601    0.0000 H   0  0  0  0  0  0  0  0  0  0  0  0
    1.4026    1.6862    0.0000 H   0  0  0  0  0  0  0  0  0  0  0  0
   -0.4736   -1.0210    0.0000 H   0  0  0  0  0  0  0  0  0  0  0  0
   -0.9015    0.0121    0.0000 H   0  0  0  0  0  0  0  0  0  0  0  0
  1  8  1  0  0  0  0
  1  9  1  0  0  0  0
  1 10  1  0  0  0  0
  2 11  1  0  0  0  0
  2 12  1  0  0  0  0
  3  2  1  0  0  0  0
  3 13  1  0  0  0  0
  3 14  1  0  0  0  0
  4  2  1  0  0  0  0
  4 15  1  0  0  0  0
  4 16  1  0  0  0  0
  5  3  1  0  0  0  0
  6  1  1  0  0  0  0
  6  4  1  0  0  0  0
  6  5  1  0  0  0  0
  7  5  2  0  0  0  0
M  END
>  <DRUGBANK_ID>
DB12521

>  <COMMON_NAME>
Methyl pyrrolidone

>  <CAS_NUMBER>
872-50-4

>  <UNII>
JR9CE63FPM

>  <SYNONYMS>
1-methyl-2-pyrrolidinone; 1-methyl-2-pyrrolidone; 1-methyl-5-pyrrolidinone; 1-methylpyrrolidinone; Methylpyrrolidone; N-methyl-2-pyrrolidone; N-methyl-pyrrolidone; N-methylpyrrolidone; NMP

$$$$
