BPM
 OpenBabel10282417072D

 37 38  0  0  0  0  0  0  0  0999 V2000
   -0.8317    0.5454    0.0000 C   0  0  0  0  0  0  0  0  0  0  0  0
   -0.8317   -0.2796    0.0000 C   0  0  0  0  0  0  0  0  0  0  0  0
   -0.1172   -0.6921    0.0000 C   0  0  0  0  0  0  0  0  0  0  0  0
   -0.1172   -1.5171    0.0000 C   0  0  0  0  0  0  0  0  0  0  0  0
   -1.5462   -1.5171    0.0000 C   0  0  0  0  0  0  0  0  0  0  0  0
   -1.5462   -0.6921    0.0000 C   0  0  0  0  0  0  0  0  0  0  0  0
   -0.8317   -1.9296    0.0000 C   0  0  0  0  0  0  0  0  0  0  0  0
   -0.8317   -2.7546    0.0000 O   0  0  0  0  0  0  0  0  0  0  0  0
   -1.5462   -3.1671    0.0000 P   0  0  0  0  0  0  0  0  0  0  0  0
   -2.2606   -3.5796    0.0000 O   0  0  0  0  0  0  0  0  0  0  0  0
   -1.1337   -3.8816    0.0000 O   0  0  0  0  0  0  0  0  0  0  0  0
   -1.9587   -2.4527    0.0000 O   0  0  0  0  0  0  0  0  0  0  0  0
   -0.1172    0.9579    0.0000 C   0  0  0  0  0  0  0  0  0  0  0  0
   -0.1172    1.7829    0.0000 C   0  0  0  0  0  0  0  0  0  0  0  0
    0.5973    2.1954    0.0000 C   0  0  0  0  0  0  0  0  0  0  0  0
    1.3117    0.9579    0.0000 C   0  0  0  0  0  0  0  0  0  0  0  0
    0.5973    0.5454    0.0000 C   0  0  0  0  0  0  0  0  0  0  0  0
    1.3117    1.7829    0.0000 C   0  0  0  0  0  0  0  0  0  0  0  0
    2.0262    2.1954    0.0000 O   0  0  0  0  0  0  0  0  0  0  0  0
    2.0262    3.0204    0.0000 P   0  0  0  0  0  0  0  0  0  0  0  0
    2.0262    3.8454    0.0000 O   0  0  0  0  0  0  0  0  0  0  0  0
    2.8512    3.0204    0.0000 O   0  0  0  0  0  0  0  0  0  0  0  0
    1.2012    3.0204    0.0000 O   0  0  0  0  0  0  0  0  0  0  0  0
   -1.7583    1.0804    0.0000 H   0  0  0  0  0  0  0  0  0  0  0  0
   -0.8317    1.6154    0.0000 H   0  0  0  0  0  0  0  0  0  0  0  0
    0.7765   -0.1761    0.0000 H   0  0  0  0  0  0  0  0  0  0  0  0
    0.7765   -2.0331    0.0000 H   0  0  0  0  0  0  0  0  0  0  0  0
   -2.4399   -2.0331    0.0000 H   0  0  0  0  0  0  0  0  0  0  0  0
   -2.4399   -0.1761    0.0000 H   0  0  0  0  0  0  0  0  0  0  0  0
   -1.6187   -4.7216    0.0000 H   0  0  0  0  0  0  0  0  0  0  0  0
   -1.4737   -1.6126    0.0000 H   0  0  0  0  0  0  0  0  0  0  0  0
   -1.0109    2.2989    0.0000 H   0  0  0  0  0  0  0  0  0  0  0  0
    0.5973    3.2274    0.0000 H   0  0  0  0  0  0  0  0  0  0  0  0
    2.2054    0.4419    0.0000 H   0  0  0  0  0  0  0  0  0  0  0  0
    0.5973   -0.4866    0.0000 H   0  0  0  0  0  0  0  0  0  0  0  0
    3.3362    2.1804    0.0000 H   0  0  0  0  0  0  0  0  0  0  0  0
    0.7162    3.8604    0.0000 H   0  0  0  0  0  0  0  0  0  0  0  0
  1  2  1  0  0  0  0
  1 13  1  0  0  0  0
  1 24  1  0  0  0  0
  1 25  1  0  0  0  0
  2  3  2  0  0  0  0
  2  6  1  0  0  0  0
  3  4  1  0  0  0  0
  3 26  1  0  0  0  0
  4  7  2  0  0  0  0
  4 27  1  0  0  0  0
  5  6  2  0  0  0  0
  5  7  1  0  0  0  0
  5 28  1  0  0  0  0
  6 29  1  0  0  0  0
  7  8  1  0  0  0  0
  8  9  1  0  0  0  0
  9 10  2  0  0  0  0
  9 11  1  0  0  0  0
  9 12  1  0  0  0  0
 11 30  1  0  0  0  0
 12 31  1  0  0  0  0
 13 14  2  0  0  0  0
 13 17  1  0  0  0  0
 14 15  1  0  0  0  0
 14 32  1  0  0  0  0
 15 18  2  0  0  0  0
 15 33  1  0  0  0  0
 16 17  2  0  0  0  0
 16 18  1  0  0  0  0
 16 34  1  0  0  0  0
 17 35  1  0  0  0  0
 18 19  1  0  0  0  0
 19 20  1  0  0  0  0
 20 21  2  0  0  0  0
 20 22  1  0  0  0  0
 20 23  1  0  0  0  0
 22 36  1  0  0  0  0
 23 37  1  0  0  0  0
M  END
>  <DRUGBANK_ID>
DB07480

>  <COMMON_NAME>
4-PHOSPHONOOXY-PHENYL-METHYL-[4-PHOSPHONOOXY]BENZEN

$$$$
