
 OpenBabel10282417072D

 27 28  0  0  0  0  0  0  0  0999 V2000
    0.1086   -0.9688    0.0000 C   0  0  0  0  0  0  0  0  0  0  0  0
    0.8221   -0.5596    0.0000 C   0  0  0  0  0  0  0  0  0  0  0  0
    0.8221    0.2672    0.0000 C   0  0  3  0  0  0  0  0  0  0  0  0
    0.1086    0.6849    0.0000 C   0  0  0  0  0  0  0  0  0  0  0  0
   -0.6051   -0.5596    0.0000 C   0  0  0  0  0  0  0  0  0  0  0  0
   -0.6026    0.2654    0.0000 C   0  0  0  0  0  0  0  0  0  0  0  0
   -1.3146    0.6784    0.0000 C   0  0  0  0  0  0  0  0  0  0  0  0
   -2.0299    0.2674    0.0000 C   0  0  0  0  0  0  0  0  0  0  0  0
   -2.0284   -0.5607    0.0000 C   0  0  0  0  0  0  0  0  0  0  0  0
   -1.3158   -0.9700    0.0000 C   0  0  0  0  0  0  0  0  0  0  0  0
    0.1069    1.5118    0.0000 O   0  0  0  0  0  0  0  0  0  0  0  0
    0.1086   -1.7958    0.0000 O   0  0  0  0  0  0  0  0  0  0  0  0
    1.2325    0.9939    0.0000 S   0  0  0  0  0  0  0  0  0  0  0  0
    1.6167    0.0542    0.0000 C   0  0  0  0  0  0  0  0  0  0  0  0
    2.0299    1.2127    0.0000 O   0  0  0  0  0  0  0  0  0  0  0  0
    0.6442    1.5752    0.0000 O   0  0  0  0  0  0  0  0  0  0  0  0
    1.4455    1.7958    0.0000 O   0  0  0  0  0  0  0  0  0  0  0  0
    1.7480   -1.0959    0.0000 H   0  0  0  0  0  0  0  0  0  0  0  0
    0.8198   -1.6296    0.0000 H   0  0  0  0  0  0  0  0  0  0  0  0
   -1.3125    1.7104    0.0000 H   0  0  0  0  0  0  0  0  0  0  0  0
   -2.9236    0.7835    0.0000 H   0  0  0  0  0  0  0  0  0  0  0  0
   -2.9211   -1.0785    0.0000 H   0  0  0  0  0  0  0  0  0  0  0  0
   -1.3146   -2.0020    0.0000 H   0  0  0  0  0  0  0  0  0  0  0  0
    1.8935   -0.9794    0.0000 H   0  0  0  0  0  0  0  0  0  0  0  0
    2.3734    0.8107    0.0000 H   0  0  0  0  0  0  0  0  0  0  0  0
    2.6502   -0.2228    0.0000 H   0  0  0  0  0  0  0  0  0  0  0  0
    2.7199    0.5309    0.0000 H   0  0  0  0  0  0  0  0  0  0  0  0
  1 12  2  0  0  0  0
  1  2  1  0  0  0  0
  2  3  1  0  0  0  0
  2 18  1  0  0  0  0
  2 19  1  0  0  0  0
  3  4  1  0  0  0  0
  3 13  1  0  0  0  0
  3 14  1  0  0  0  0
  4 11  2  0  0  0  0
  5  6  2  0  0  0  0
  5  1  1  0  0  0  0
  6  4  1  0  0  0  0
  6  7  1  0  0  0  0
  7  8  2  0  0  0  0
  7 20  1  0  0  0  0
  8  9  1  0  0  0  0
  8 21  1  0  0  0  0
  9 10  2  0  0  0  0
  9 22  1  0  0  0  0
 10  5  1  0  0  0  0
 10 23  1  0  0  0  0
 13 15  1  0  0  0  0
 13 16  2  0  0  0  0
 13 17  2  0  0  0  0
 14 24  1  0  0  0  0
 14 25  1  0  0  0  0
 14 26  1  0  0  0  0
 15 27  1  0  0  0  0
M  END
>  <DRUGBANK_ID>
DB15944

>  <COMMON_NAME>
Menadione bisulfite

>  <CAS_NUMBER>
130-36-9

>  <UNII>
I2BE1ZEN8I

$$$$
