
 OpenBabel10282417072D

 33 32  0  0  1  0  0  0  0  0999 V2000
    3.2151   -0.4125    0.0000 C   0  0  0  0  0  0  0  0  0  0  0  0
   -3.2151   -0.8250    0.0000 C   0  0  0  0  0  0  0  0  0  0  0  0
   -1.0717    0.4125    0.0000 C   0  0  0  0  0  0  0  0  0  0  0  0
   -1.7861    0.8250    0.0000 C   0  0  0  0  0  0  0  0  0  0  0  0
    1.0717   -0.8250    0.0000 C   0  0  0  0  0  0  0  0  0  0  0  0
    2.5006   -0.8250    0.0000 C   0  0  0  0  0  0  0  0  0  0  0  0
   -2.5006   -0.4125    0.0000 C   0  0  0  0  0  0  0  0  0  0  0  0
    0.3572   -0.4125    0.0000 C   0  0  2  0  0  0  0  0  0  0  0  0
   -1.0717   -0.4125    0.0000 C   0  0  2  0  0  0  0  0  0  0  0  0
   -0.3572   -0.8250    0.0000 C   0  0  2  0  0  0  0  0  0  0  0  0
   -1.7861    1.6500    0.0000 O   0  0  0  0  0  0  0  0  0  0  0  0
    2.5006   -1.6500    0.0000 O   0  0  0  0  0  0  0  0  0  0  0  0
   -2.5006    0.4125    0.0000 O   0  0  0  0  0  0  0  0  0  0  0  0
    0.3572    0.4125    0.0000 O   0  0  0  0  0  0  0  0  0  0  0  0
   -0.3572   -1.6500    0.0000 O   0  0  0  0  0  0  0  0  0  0  0  0
    1.7861   -0.4125    0.0000 O   0  0  0  0  0  0  0  0  0  0  0  0
   -1.7861   -0.8250    0.0000 O   0  0  0  0  0  0  0  0  0  0  0  0
    0.3572   -1.2375    0.0000 H   0  0  0  0  0  0  0  0  0  0  0  0
   -0.3572    0.0000    0.0000 H   0  0  0  0  0  0  0  0  0  0  0  0
   -1.0717   -1.2375    0.0000 H   0  0  0  0  0  0  0  0  0  0  0  0
    4.1417   -0.9475    0.0000 H   0  0  0  0  0  0  0  0  0  0  0  0
    3.2151    0.6575    0.0000 H   0  0  0  0  0  0  0  0  0  0  0  0
    4.1418    0.1225    0.0000 H   0  0  0  0  0  0  0  0  0  0  0  0
   -4.1417   -0.2900    0.0000 H   0  0  0  0  0  0  0  0  0  0  0  0
   -3.2151   -1.8950    0.0000 H   0  0  0  0  0  0  0  0  0  0  0  0
   -4.1418   -1.3600    0.0000 H   0  0  0  0  0  0  0  0  0  0  0  0
   -0.1450    0.9475    0.0000 H   0  0  0  0  0  0  0  0  0  0  0  0
   -0.1451   -0.1225    0.0000 H   0  0  0  0  0  0  0  0  0  0  0  0
   -2.6798    0.3090    0.0000 H   0  0  0  0  0  0  0  0  0  0  0  0
    1.0717   -1.8950    0.0000 H   0  0  0  0  0  0  0  0  0  0  0  0
    1.9984   -1.3600    0.0000 H   0  0  0  0  0  0  0  0  0  0  0  0
    1.1972    0.8975    0.0000 H   0  0  0  0  0  0  0  0  0  0  0  0
   -1.1972   -2.1350    0.0000 H   0  0  0  0  0  0  0  0  0  0  0  0
  1 21  1  0  0  0  0
  1 22  1  0  0  0  0
  1 23  1  0  0  0  0
  2 24  1  0  0  0  0
  2 25  1  0  0  0  0
  2 26  1  0  0  0  0
  3 27  1  0  0  0  0
  3 28  1  0  0  0  0
  4  3  1  0  0  0  0
  4 29  1  0  0  0  0
  5 30  1  0  0  0  0
  5 31  1  0  0  0  0
  6  1  1  0  0  0  0
  7  2  1  0  0  0  0
  8  5  1  0  0  0  0
  8 14  1  0  0  0  0
  8 18  1  1  0  0  0
  9  3  1  0  0  0  0
  9 17  1  0  0  0  0
  9 19  1  1  0  0  0
 10  8  1  0  0  0  0
 10  9  1  0  0  0  0
 10 15  1  0  0  0  0
 10 20  1  6  0  0  0
 11  4  2  0  0  0  0
 12  6  2  0  0  0  0
 13  7  2  0  0  0  0
 14 32  1  0  0  0  0
 15 33  1  0  0  0  0
 16  5  1  0  0  0  0
 16  6  1  0  0  0  0
 17  7  1  0  0  0  0
M  END
>  <DRUGBANK_ID>
DB17192

>  <COMMON_NAME>
WP-1122

>  <UNII>
54EAA28C5Y

>  <SYNONYMS>
3,6-di-O-acetyl-2-deoxy-D-glucopyranose; an acetic acid diester of 2-deoxy-D-glucose

$$$$
