644
 OpenBabel10282417072D

160165  0  0  1  0  0  0  0  0999 V2000
   12.8548   -2.6382    0.0000 O   0  0  0  0  0  0  0  0  0  0  0  0
   13.9727   -2.5226    0.0000 O   0  0  0  0  0  0  0  0  0  0  0  0
   10.1767   -3.9328    0.0000 O   0  0  0  0  0  0  0  0  0  0  0  0
   16.8590   -3.2421    0.0000 O   0  0  0  0  0  0  0  0  0  0  0  0
    8.7800   -1.3064    0.0000 O   0  0  0  0  0  0  0  0  0  0  0  0
    3.2703    4.8342    0.0000 O   0  0  0  0  0  0  0  0  0  0  0  0
    2.3500    8.2735    0.0000 O   0  0  0  0  0  0  0  0  0  0  0  0
    3.8213    4.2201    0.0000 O   0  0  0  0  0  0  0  0  0  0  0  0
    5.2179    1.5938    0.0000 O   0  0  0  0  0  0  0  0  0  0  0  0
   10.3562    1.2163    0.0000 O   0  0  0  0  0  0  0  0  0  0  0  0
    7.8960    2.8883    0.0000 O   0  0  0  0  0  0  0  0  0  0  0  0
    7.1271    0.5358    0.0000 O   0  0  0  0  0  0  0  0  0  0  0  0
   12.4834    3.1249    0.0000 O   0  0  0  0  0  0  0  0  0  0  0  0
   13.1495   -4.0365    0.0000 N   0  0  0  0  0  0  0  0  0  0  0  0
   11.2403   -2.9785    0.0000 N   0  0  0  0  0  0  0  0  0  0  0  0
   15.2089   -3.2393    0.0000 N   0  0  0  0  0  0  0  0  0  0  0  0
   10.1383   -1.7503    0.0000 N   0  0  0  0  0  0  0  0  0  0  0  0
   12.3806   -6.3891    0.0000 N   0  0  0  0  0  0  0  0  0  0  0  0
   16.8614   -1.8132    0.0000 N   0  0  0  0  0  0  0  0  0  0  0  0
    3.1485    7.0391    0.0000 N   0  0  0  0  0  0  0  0  0  0  0  0
    4.3339    5.7885    0.0000 N   0  0  0  0  0  0  0  0  0  0  0  0
    9.2927    0.2619    0.0000 N   0  0  0  0  0  0  0  0  0  0  0  0
    5.1795    3.7762    0.0000 N   0  0  0  0  0  0  0  0  0  0  0  0
    6.2815    2.5481    0.0000 N   0  0  0  0  0  0  0  0  0  0  0  0
    8.1907    1.4901    0.0000 N   0  0  0  0  0  0  0  0  0  0  0  0
   12.6753   -7.7873    0.0000 N   0  0  0  0  0  0  0  0  0  0  0  0
   11.3170   -7.3434    0.0000 N   0  0  0  0  0  0  0  0  0  0  0  0
    3.8597    0.7098    0.0000 N   0  0  0  0  0  0  0  0  0  0  0  0
    6.7335    6.3823    0.0000 N   0  0  0  0  0  0  0  0  0  0  0  0
    5.9507    7.4636    0.0000 N   0  0  0  0  0  0  0  0  0  0  0  0
   13.9702   -3.9516    0.0000 C   0  0  3  0  0  0  0  0  0  0  0  0
   14.3044   -4.7059    0.0000 C   0  0  0  0  0  0  0  0  0  0  0  0
   13.6903   -5.2569    0.0000 C   0  0  0  0  0  0  0  0  0  0  0  0
   12.9766   -4.8432    0.0000 C   0  0  0  0  0  0  0  0  0  0  0  0
   12.5985   -3.4224    0.0000 C   0  0  0  0  0  0  0  0  0  0  0  0
   11.7912   -3.5925    0.0000 C   0  0  3  0  0  0  0  0  0  0  0  0
   14.3839   -3.2378    0.0000 C   0  0  0  0  0  0  0  0  0  0  0  0
   11.5350   -4.3767    0.0000 C   0  0  0  0  0  0  0  0  0  0  0  0
   12.0859   -4.9907    0.0000 C   0  0  0  0  0  0  0  0  0  0  0  0
    9.8820   -2.5345    0.0000 C   0  0  3  0  0  0  0  0  0  0  0  0
   10.4330   -3.1486    0.0000 C   0  0  0  0  0  0  0  0  0  0  0  0
    9.0747   -2.7046    0.0000 C   0  0  0  0  0  0  0  0  0  0  0  0
   11.8296   -5.7750    0.0000 C   0  0  0  0  0  0  0  0  0  0  0  0
   15.6227   -2.5255    0.0000 C   0  0  0  0  0  0  0  0  0  0  0  0
    8.8185   -3.4889    0.0000 C   0  0  0  0  0  0  0  0  0  0  0  0
    8.0112   -3.6590    0.0000 C   0  0  0  0  0  0  0  0  0  0  0  0
    9.3694   -4.1030    0.0000 C   0  0  0  0  0  0  0  0  0  0  0  0
   16.4477   -2.5269    0.0000 C   0  0  0  0  0  0  0  0  0  0  0  0
    9.5873   -1.1363    0.0000 C   0  0  0  0  0  0  0  0  0  0  0  0
    2.9756    6.2324    0.0000 C   0  0  3  0  0  0  0  0  0  0  0  0
    2.1549    6.1476    0.0000 C   0  0  0  0  0  0  0  0  0  0  0  0
    9.8436   -0.3521    0.0000 C   0  0  0  0  0  0  0  0  0  0  0  0
    1.8207    6.9019    0.0000 C   0  0  0  0  0  0  0  0  0  0  0  0
    4.8848    5.1744    0.0000 C   0  0  3  0  0  0  0  0  0  0  0  0
    4.9232    2.9920    0.0000 C   0  0  3  0  0  0  0  0  0  0  0  0
   12.1243   -7.1732    0.0000 C   0  0  0  0  0  0  0  0  0  0  0  0
    3.5266    5.6183    0.0000 C   0  0  0  0  0  0  0  0  0  0  0  0
    4.1159    2.8219    0.0000 C   0  0  0  0  0  0  0  0  0  0  0  0
    2.4348    7.4528    0.0000 C   0  0  0  0  0  0  0  0  0  0  0  0
    5.6921    5.3445    0.0000 C   0  0  0  0  0  0  0  0  0  0  0  0
    4.6286    4.3902    0.0000 C   0  0  0  0  0  0  0  0  0  0  0  0
    3.8597    2.0376    0.0000 C   0  0  0  0  0  0  0  0  0  0  0  0
    8.9980    1.6602    0.0000 C   0  0  3  0  0  0  0  0  0  0  0  0
    5.4742    2.3779    0.0000 C   0  0  0  0  0  0  0  0  0  0  0  0
    9.5489    1.0461    0.0000 C   0  0  0  0  0  0  0  0  0  0  0  0
    3.0790    1.7862    0.0000 C   0  0  0  0  0  0  0  0  0  0  0  0
    6.8324    1.9340    0.0000 C   0  0  3  0  0  0  0  0  0  0  0  0
    5.9484    6.1288    0.0000 C   0  0  0  0  0  0  0  0  0  0  0  0
    9.2542    2.4444    0.0000 C   0  0  0  0  0  0  0  0  0  0  0  0
    3.0790    0.9612    0.0000 C   0  0  0  0  0  0  0  0  0  0  0  0
    4.3411    1.3737    0.0000 C   0  0  0  0  0  0  0  0  0  0  0  0
    7.6397    2.1041    0.0000 C   0  0  0  0  0  0  0  0  0  0  0  0
    6.5762    1.1498    0.0000 C   0  0  0  0  0  0  0  0  0  0  0  0
    2.3645    2.1987    0.0000 C   0  0  0  0  0  0  0  0  0  0  0  0
   10.0616    2.6145    0.0000 C   0  0  0  0  0  0  0  0  0  0  0  0
    2.3645    0.5487    0.0000 C   0  0  0  0  0  0  0  0  0  0  0  0
    5.4646    6.7970    0.0000 C   0  0  0  0  0  0  0  0  0  0  0  0
    1.6500    1.7862    0.0000 C   0  0  0  0  0  0  0  0  0  0  0  0
    1.6500    0.9612    0.0000 C   0  0  0  0  0  0  0  0  0  0  0  0
    6.7349    7.2073    0.0000 C   0  0  0  0  0  0  0  0  0  0  0  0
   10.3179    3.3987    0.0000 C   0  0  0  0  0  0  0  0  0  0  0  0
   10.6125    2.0005    0.0000 C   0  0  0  0  0  0  0  0  0  0  0  0
   11.1251    3.5688    0.0000 C   0  0  0  0  0  0  0  0  0  0  0  0
   11.4198    2.1706    0.0000 C   0  0  0  0  0  0  0  0  0  0  0  0
   11.6762    2.9548    0.0000 C   0  0  0  0  0  0  0  0  0  0  0  0
    6.8257   -0.3862    0.0000 H   0  0  0  0  0  0  0  0  0  0  0  0
   13.1092    2.4275    0.0000 H   0  0  0  0  0  0  0  0  0  0  0  0
   11.5462   -2.0427    0.0000 H   0  0  0  0  0  0  0  0  0  0  0  0
   15.6996   -4.0928    0.0000 H   0  0  0  0  0  0  0  0  0  0  0  0
   11.1016   -1.5472    0.0000 H   0  0  0  0  0  0  0  0  0  0  0  0
   17.8459   -1.8149    0.0000 H   0  0  0  0  0  0  0  0  0  0  0  0
   16.3706   -0.9597    0.0000 H   0  0  0  0  0  0  0  0  0  0  0  0
    4.0486    7.4380    0.0000 H   0  0  0  0  0  0  0  0  0  0  0  0
    4.6398    6.7243    0.0000 H   0  0  0  0  0  0  0  0  0  0  0  0
    8.3294    0.0588    0.0000 H   0  0  0  0  0  0  0  0  0  0  0  0
    6.1428    3.9792    0.0000 H   0  0  0  0  0  0  0  0  0  0  0  0
    6.5874    3.4839    0.0000 H   0  0  0  0  0  0  0  0  0  0  0  0
    7.8849    0.5543    0.0000 H   0  0  0  0  0  0  0  0  0  0  0  0
   12.3694   -8.7231    0.0000 H   0  0  0  0  0  0  0  0  0  0  0  0
   13.6386   -7.5843    0.0000 H   0  0  0  0  0  0  0  0  0  0  0  0
   10.6595   -6.6107    0.0000 H   0  0  0  0  0  0  0  0  0  0  0  0
   11.0112   -8.2792    0.0000 H   0  0  0  0  0  0  0  0  0  0  0  0
    4.1656   -0.2260    0.0000 H   0  0  0  0  0  0  0  0  0  0  0  0
    7.5290    5.8022    0.0000 H   0  0  0  0  0  0  0  0  0  0  0  0
   13.4336   -4.8773    0.0000 H   0  0  0  0  0  0  0  0  0  0  0  0
   15.3506   -4.9302    0.0000 H   0  0  0  0  0  0  0  0  0  0  0  0
   14.5795   -5.7399    0.0000 H   0  0  0  0  0  0  0  0  0  0  0  0
   13.8003   -6.3212    0.0000 H   0  0  0  0  0  0  0  0  0  0  0  0
   12.7919   -5.8381    0.0000 H   0  0  0  0  0  0  0  0  0  0  0  0
   11.9984   -5.2767    0.0000 H   0  0  0  0  0  0  0  0  0  0  0  0
   12.9188   -5.9116    0.0000 H   0  0  0  0  0  0  0  0  0  0  0  0
   12.1236   -2.5755    0.0000 H   0  0  0  0  0  0  0  0  0  0  0  0
   10.4880   -4.5974    0.0000 H   0  0  0  0  0  0  0  0  0  0  0  0
   11.2026   -5.3938    0.0000 H   0  0  0  0  0  0  0  0  0  0  0  0
   13.1329   -4.7700    0.0000 H   0  0  0  0  0  0  0  0  0  0  0  0
   12.8005   -5.7871    0.0000 H   0  0  0  0  0  0  0  0  0  0  0  0
   10.9290   -2.3139    0.0000 H   0  0  0  0  0  0  0  0  0  0  0  0
    8.3601   -1.9082    0.0000 H   0  0  0  0  0  0  0  0  0  0  0  0
    8.0277   -2.9254    0.0000 H   0  0  0  0  0  0  0  0  0  0  0  0
   10.7826   -5.9957    0.0000 H   0  0  0  0  0  0  0  0  0  0  0  0
   11.1150   -4.9786    0.0000 H   0  0  0  0  0  0  0  0  0  0  0  0
   15.0893   -1.5979    0.0000 H   0  0  0  0  0  0  0  0  0  0  0  0
   16.1593   -1.5998    0.0000 H   0  0  0  0  0  0  0  0  0  0  0  0
    8.4860   -4.5059    0.0000 H   0  0  0  0  0  0  0  0  0  0  0  0
    7.2966   -2.8626    0.0000 H   0  0  0  0  0  0  0  0  0  0  0  0
    7.6787   -4.6760    0.0000 H   0  0  0  0  0  0  0  0  0  0  0  0
    6.9642   -3.8796    0.0000 H   0  0  0  0  0  0  0  0  0  0  0  0
    9.0369   -5.1200    0.0000 H   0  0  0  0  0  0  0  0  0  0  0  0
   10.4164   -3.8825    0.0000 H   0  0  0  0  0  0  0  0  0  0  0  0
   10.0839   -4.8995    0.0000 H   0  0  0  0  0  0  0  0  0  0  0  0
    2.2610    7.0288    0.0000 H   0  0  0  0  0  0  0  0  0  0  0  0
    1.6182    5.2219    0.0000 H   0  0  0  0  0  0  0  0  0  0  0  0
    1.0865    6.2055    0.0000 H   0  0  0  0  0  0  0  0  0  0  0  0
   10.8906   -0.1315    0.0000 H   0  0  0  0  0  0  0  0  0  0  0  0
   10.5582   -1.1485    0.0000 H   0  0  0  0  0  0  0  0  0  0  0  0
    0.7745    7.1263    0.0000 H   0  0  0  0  0  0  0  0  0  0  0  0
    1.5457    7.9359    0.0000 H   0  0  0  0  0  0  0  0  0  0  0  0
    5.2173    6.1914    0.0000 H   0  0  0  0  0  0  0  0  0  0  0  0
    4.2086    3.7884    0.0000 H   0  0  0  0  0  0  0  0  0  0  0  0
    3.4013    3.6183    0.0000 H   0  0  0  0  0  0  0  0  0  0  0  0
    3.0689    2.6011    0.0000 H   0  0  0  0  0  0  0  0  0  0  0  0
    6.4067    4.5481    0.0000 H   0  0  0  0  0  0  0  0  0  0  0  0
    6.7391    5.5652    0.0000 H   0  0  0  0  0  0  0  0  0  0  0  0
    8.6655    0.6432    0.0000 H   0  0  0  0  0  0  0  0  0  0  0  0
    7.1649    2.9510    0.0000 H   0  0  0  0  0  0  0  0  0  0  0  0
    8.5396    3.2408    0.0000 H   0  0  0  0  0  0  0  0  0  0  0  0
    9.5866    3.4614    0.0000 H   0  0  0  0  0  0  0  0  0  0  0  0
    5.3731    1.3737    0.0000 H   0  0  0  0  0  0  0  0  0  0  0  0
    5.5292    0.9291    0.0000 H   0  0  0  0  0  0  0  0  0  0  0  0
    5.8615    1.9461    0.0000 H   0  0  0  0  0  0  0  0  0  0  0  0
    2.3645    3.2307    0.0000 H   0  0  0  0  0  0  0  0  0  0  0  0
    2.3645   -0.4833    0.0000 H   0  0  0  0  0  0  0  0  0  0  0  0
    4.4326    6.7988    0.0000 H   0  0  0  0  0  0  0  0  0  0  0  0
    0.7563    2.3022    0.0000 H   0  0  0  0  0  0  0  0  0  0  0  0
    0.7563    0.4452    0.0000 H   0  0  0  0  0  0  0  0  0  0  0  0
    7.5708    7.8125    0.0000 H   0  0  0  0  0  0  0  0  0  0  0  0
    9.6287    4.1668    0.0000 H   0  0  0  0  0  0  0  0  0  0  0  0
   10.2919    1.0196    0.0000 H   0  0  0  0  0  0  0  0  0  0  0  0
   11.4456    4.5498    0.0000 H   0  0  0  0  0  0  0  0  0  0  0  0
   12.1090    1.4024    0.0000 H   0  0  0  0  0  0  0  0  0  0  0  0
  1 35  2  0  0  0  0
  2 37  2  0  0  0  0
  3 41  2  0  0  0  0
  4 48  2  0  0  0  0
  5 49  2  0  0  0  0
  6 57  2  0  0  0  0
  7 59  2  0  0  0  0
  8 61  2  0  0  0  0
  9 64  2  0  0  0  0
 10 65  2  0  0  0  0
 11 72  2  0  0  0  0
 12 73  1  0  0  0  0
 12 86  1  0  0  0  0
 13 85  1  0  0  0  0
 13 87  1  0  0  0  0
 14 31  1  0  0  0  0
 14 34  1  0  0  0  0
 14 35  1  0  0  0  0
 15 36  1  0  0  0  0
 15 41  1  0  0  0  0
 15 88  1  0  0  0  0
 16 37  1  0  0  0  0
 16 44  1  0  0  0  0
 16 89  1  0  0  0  0
 17 40  1  0  0  0  0
 17 49  1  0  0  0  0
 17 90  1  0  0  0  0
 18 43  1  0  0  0  0
 18 56  2  0  0  0  0
 19 48  1  0  0  0  0
 19 91  1  0  0  0  0
 19 92  1  0  0  0  0
 20 50  1  0  0  0  0
 20 59  1  0  0  0  0
 20 93  1  0  0  0  0
 21 54  1  0  0  0  0
 21 57  1  0  0  0  0
 21 94  1  0  0  0  0
 22 52  1  0  0  0  0
 22 65  1  0  0  0  0
 22 95  1  0  0  0  0
 23 55  1  0  0  0  0
 23 61  1  0  0  0  0
 23 96  1  0  0  0  0
 24 64  1  0  0  0  0
 24 67  1  0  0  0  0
 24 97  1  0  0  0  0
 25 63  1  0  0  0  0
 25 72  1  0  0  0  0
 25 98  1  0  0  0  0
 26 56  1  0  0  0  0
 26 99  1  0  0  0  0
 26100  1  0  0  0  0
 27 56  1  0  0  0  0
 27101  1  0  0  0  0
 27102  1  0  0  0  0
 28 70  1  0  0  0  0
 28 71  1  0  0  0  0
 28103  1  0  0  0  0
 29 68  1  0  0  0  0
 29 80  1  0  0  0  0
 29104  1  0  0  0  0
 30 77  1  0  0  0  0
 30 80  2  0  0  0  0
 31 32  1  0  0  0  0
 31 37  1  0  0  0  0
 31105  1  0  0  0  0
 32 33  1  0  0  0  0
 32106  1  0  0  0  0
 32107  1  0  0  0  0
 33 34  1  0  0  0  0
 33108  1  0  0  0  0
 33109  1  0  0  0  0
 34110  1  0  0  0  0
 34111  1  0  0  0  0
 35 36  1  0  0  0  0
 36 38  1  0  0  0  0
 36112  1  0  0  0  0
 38 39  1  0  0  0  0
 38113  1  0  0  0  0
 38114  1  0  0  0  0
 39 43  1  0  0  0  0
 39115  1  0  0  0  0
 39116  1  0  0  0  0
 40 41  1  0  0  0  0
 40 42  1  0  0  0  0
 40117  1  0  0  0  0
 42 45  1  0  0  0  0
 42118  1  0  0  0  0
 42119  1  0  0  0  0
 43120  1  0  0  0  0
 43121  1  0  0  0  0
 44 48  1  0  0  0  0
 44122  1  0  0  0  0
 44123  1  0  0  0  0
 45 46  1  0  0  0  0
 45 47  1  0  0  0  0
 45124  1  0  0  0  0
 46125  1  0  0  0  0
 46126  1  0  0  0  0
 46127  1  0  0  0  0
 47128  1  0  0  0  0
 47129  1  0  0  0  0
 47130  1  0  0  0  0
 49 52  1  0  0  0  0
 50 51  1  0  0  0  0
 50 57  1  0  0  0  0
 50131  1  0  0  0  0
 51 53  1  0  0  0  0
 51132  1  0  0  0  0
 51133  1  0  0  0  0
 52134  1  0  0  0  0
 52135  1  0  0  0  0
 53 59  1  0  0  0  0
 53136  1  0  0  0  0
 53137  1  0  0  0  0
 54 60  1  0  0  0  0
 54 61  1  0  0  0  0
 54138  1  0  0  0  0
 55 58  1  0  0  0  0
 55 64  1  0  0  0  0
 55139  1  0  0  0  0
 58 62  1  0  0  0  0
 58140  1  0  0  0  0
 58141  1  0  0  0  0
 60 68  1  0  0  0  0
 60142  1  0  0  0  0
 60143  1  0  0  0  0
 62 66  1  0  0  0  0
 62 71  2  0  0  0  0
 63 65  1  0  0  0  0
 63 69  1  0  0  0  0
 63144  1  0  0  0  0
 66 70  1  0  0  0  0
 66 74  2  0  0  0  0
 67 72  1  0  0  0  0
 67 73  1  0  0  0  0
 67145  1  0  0  0  0
 68 77  2  0  0  0  0
 69 75  1  0  0  0  0
 69146  1  0  0  0  0
 69147  1  0  0  0  0
 70 76  2  0  0  0  0
 71148  1  0  0  0  0
 73149  1  0  0  0  0
 73150  1  0  0  0  0
 74 78  1  0  0  0  0
 74151  1  0  0  0  0
 75 81  2  0  0  0  0
 75 82  1  0  0  0  0
 76 79  1  0  0  0  0
 76152  1  0  0  0  0
 77153  1  0  0  0  0
 78 79  2  0  0  0  0
 78154  1  0  0  0  0
 79155  1  0  0  0  0
 80156  1  0  0  0  0
 81 83  1  0  0  0  0
 81157  1  0  0  0  0
 82 84  2  0  0  0  0
 82158  1  0  0  0  0
 83 85  2  0  0  0  0
 83159  1  0  0  0  0
 84 85  1  0  0  0  0
 84160  1  0  0  0  0
M  END
>  <DRUGBANK_ID>
DB00644

>  <SECONDARY_ACCESSION_NUMBERS>
APRD01001

>  <COMMON_NAME>
Gonadorelin

>  <CAS_NUMBER>
33515-09-2

>  <UNII>
9O7312W37G

>  <SYNONYMS>
GnRH; Gonadorelin; Gonadorelina; Gonadoréline; Gonadorelinum; Gonadotropin-releasing hormone

$$$$
