
 OpenBabel10282417072D

142145  0  0  1  0  0  0  0  0999 V2000
   18.5762   -4.9500    0.0000 C   0  0  0  0  0  0  0  0  0  0  0  0
   14.2894   -4.1250    0.0000 C   0  0  0  0  0  0  0  0  0  0  0  0
   10.0026   -4.1250    0.0000 C   0  0  0  0  0  0  0  0  0  0  0  0
   11.4315   -4.1250    0.0000 C   0  0  0  0  0  0  0  0  0  0  0  0
   21.4341   -4.1250    0.0000 C   0  0  0  0  0  0  0  0  0  0  0  0
   17.8618   -5.3625    0.0000 C   0  0  0  0  0  0  0  0  0  0  0  0
    7.8592   -6.1875    0.0000 C   0  0  0  0  0  0  0  0  0  0  0  0
   15.7184   -4.1250    0.0000 C   0  0  0  0  0  0  0  0  0  0  0  0
   15.7184   -6.6000    0.0000 C   0  0  0  0  0  0  0  0  0  0  0  0
   10.0026   -6.6000    0.0000 C   0  0  0  0  0  0  0  0  0  0  0  0
   22.1486   -2.8875    0.0000 C   0  0  0  0  0  0  0  0  0  0  0  0
   17.8618   -2.8875    0.0000 C   0  0  0  0  0  0  0  0  0  0  0  0
   17.8618   -3.7125    0.0000 C   0  0  0  0  0  0  0  0  0  0  0  0
   18.5762   -2.4750    0.0000 C   0  0  0  0  0  0  0  0  0  0  0  0
   13.5749   -5.3625    0.0000 C   0  0  0  0  0  0  0  0  0  0  0  0
   12.8605   -4.9500    0.0000 C   0  0  0  0  0  0  0  0  0  0  0  0
    9.2881   -5.3625    0.0000 C   0  0  0  0  0  0  0  0  0  0  0  0
    8.5737   -4.9500    0.0000 C   0  0  0  0  0  0  0  0  0  0  0  0
   19.2907   -6.1875    0.0000 C   0  0  0  0  0  0  0  0  0  0  0  0
   20.0052   -4.9500    0.0000 C   0  0  0  0  0  0  0  0  0  0  0  0
   17.8618   -6.1875    0.0000 C   0  0  0  0  0  0  0  0  0  0  0  0
   15.7184   -4.9500    0.0000 C   0  0  0  0  0  0  0  0  0  0  0  0
   22.3637   -2.2513    0.0000 C   0  0  0  0  0  0  0  0  0  0  0  0
   18.4367   -0.3224    0.0000 C   0  0  0  0  0  0  0  0  0  0  0  0
   21.1912    0.6126    0.0000 C   0  0  0  0  0  0  0  0  0  0  0  0
    7.1447   -4.9500    0.0000 C   0  0  0  0  0  0  0  0  0  0  0  0
   19.2907   -5.3625    0.0000 C   0  0  1  0  0  0  0  0  0  0  0  0
   14.2894   -4.9500    0.0000 C   0  0  1  0  0  0  0  0  0  0  0  0
   10.0026   -4.9500    0.0000 C   0  0  2  0  0  0  0  0  0  0  0  0
   11.4315   -4.9500    0.0000 C   0  0  1  0  0  0  0  0  0  0  0  0
   20.7197   -3.7125    0.0000 C   0  0  1  0  0  0  0  0  0  0  0  0
   17.1473   -4.9500    0.0000 C   0  0  2  0  0  0  0  0  0  0  0  0
   18.5762   -6.6000    0.0000 C   0  0  1  0  0  0  0  0  0  0  0  0
   21.4341   -2.4750    0.0000 C   0  0  0  0  0  0  0  0  0  0  0  0
   19.2907   -0.4125    0.0000 C   0  0  0  0  0  0  0  0  0  0  0  0
   21.6129   -0.2455    0.0000 C   0  0  0  0  0  0  0  0  0  0  0  0
   12.1460   -5.3625    0.0000 C   0  0  0  0  0  0  0  0  0  0  0  0
   20.0052   -4.1250    0.0000 C   0  0  1  0  0  0  0  0  0  0  0  0
   17.1473   -4.1250    0.0000 C   0  0  1  0  0  0  0  0  0  0  0  0
   15.0039   -5.3625    0.0000 C   0  0  1  0  0  0  0  0  0  0  0  0
   16.4328   -5.3625    0.0000 C   0  0  1  0  0  0  0  0  0  0  0  0
   18.5762   -1.6500    0.0000 C   0  0  0  0  0  0  0  0  0  0  0  0
   17.1473   -6.6000    0.0000 C   0  0  0  0  0  0  0  0  0  0  0  0
   10.7171   -5.3625    0.0000 C   0  0  2  0  0  0  0  0  0  0  0  0
   20.7197   -2.8875    0.0000 C   0  0  2  0  0  0  0  0  0  0  0  0
   20.0052   -0.0000    0.0000 C   0  0  0  0  0  0  0  0  0  0  0  0
   22.0254   -0.9600    0.0000 C   0  0  0  0  0  0  0  0  0  0  0  0
   19.2907   -7.8375    0.0000 C   0  0  2  0  0  0  0  0  0  0  0  0
   19.2907   -8.6625    0.0000 N   0  0  0  0  0  0  0  0  0  0  0  0
   19.2907   -1.2375    0.0000 N   0  0  0  0  0  0  0  0  0  0  0  0
   21.4733   -1.5730    0.0000 N   0  0  0  0  0  0  0  0  0  0  0  0
   20.8059   -0.4170    0.0000 N   0  0  0  0  0  0  0  0  0  0  0  0
    7.8592   -5.3625    0.0000 N   0  0  0  0  0  0  0  0  0  0  0  0
    6.4302   -5.3625    0.0000 O   0  0  0  0  0  0  0  0  0  0  0  0
   12.1460   -6.1875    0.0000 O   0  0  0  0  0  0  0  0  0  0  0  0
   19.2907   -3.7125    0.0000 O   0  0  0  0  0  0  0  0  0  0  0  0
   17.1473   -7.4250    0.0000 O   0  0  0  0  0  0  0  0  0  0  0  0
   20.0052   -7.4250    0.0000 O   0  0  0  0  0  0  0  0  0  0  0  0
   16.4328   -3.7125    0.0000 O   0  0  0  0  0  0  0  0  0  0  0  0
   15.0039   -6.1875    0.0000 O   0  0  0  0  0  0  0  0  0  0  0  0
   10.7171   -6.1875    0.0000 O   0  0  0  0  0  0  0  0  0  0  0  0
   21.4341   -3.3000    0.0000 O   0  0  0  0  0  0  0  0  0  0  0  0
   18.0242   -1.0369    0.0000 O   0  0  0  0  0  0  0  0  0  0  0  0
   22.6636   -1.4827    0.0000 O   0  0  0  0  0  0  0  0  0  0  0  0
   20.3756    0.7371    0.0000 O   0  0  0  0  0  0  0  0  0  0  0  0
   18.5762   -7.4250    0.0000 O   0  0  0  0  0  0  0  0  0  0  0  0
   16.4328   -6.1875    0.0000 O   0  0  0  0  0  0  0  0  0  0  0  0
   17.1473   -2.4750    0.0000 H   0  0  0  0  0  0  0  0  0  0  0  0
   19.2907   -2.8875    0.0000 H   0  0  0  0  0  0  0  0  0  0  0  0
    9.2881   -6.1875    0.0000 H   0  0  0  0  0  0  0  0  0  0  0  0
    8.5737   -4.1250    0.0000 H   0  0  0  0  0  0  0  0  0  0  0  0
   18.5762   -5.7750    0.0000 H   0  0  0  0  0  0  0  0  0  0  0  0
   13.5749   -4.5375    0.0000 H   0  0  0  0  0  0  0  0  0  0  0  0
    9.2881   -4.5375    0.0000 H   0  0  0  0  0  0  0  0  0  0  0  0
   12.1460   -4.5375    0.0000 H   0  0  0  0  0  0  0  0  0  0  0  0
   20.7197   -4.5375    0.0000 H   0  0  0  0  0  0  0  0  0  0  0  0
   17.8618   -4.5375    0.0000 H   0  0  0  0  0  0  0  0  0  0  0  0
   19.2907   -7.0125    0.0000 H   0  0  0  0  0  0  0  0  0  0  0  0
   19.2907   -4.5375    0.0000 H   0  0  0  0  0  0  0  0  0  0  0  0
   17.1473   -3.3000    0.0000 H   0  0  0  0  0  0  0  0  0  0  0  0
   15.0039   -4.5375    0.0000 H   0  0  0  0  0  0  0  0  0  0  0  0
   16.4328   -4.5375    0.0000 H   0  0  0  0  0  0  0  0  0  0  0  0
   10.7171   -4.5375    0.0000 H   0  0  0  0  0  0  0  0  0  0  0  0
   21.1322   -3.6020    0.0000 H   0  0  0  0  0  0  0  0  0  0  0  0
   20.0052   -8.2500    0.0000 H   0  0  0  0  0  0  0  0  0  0  0  0
   18.5762   -3.8800    0.0000 H   0  0  0  0  0  0  0  0  0  0  0  0
   17.6496   -5.4850    0.0000 H   0  0  0  0  0  0  0  0  0  0  0  0
   17.6495   -4.4150    0.0000 H   0  0  0  0  0  0  0  0  0  0  0  0
   15.2160   -3.5900    0.0000 H   0  0  0  0  0  0  0  0  0  0  0  0
   13.3628   -3.5900    0.0000 H   0  0  0  0  0  0  0  0  0  0  0  0
   14.2894   -3.0550    0.0000 H   0  0  0  0  0  0  0  0  0  0  0  0
   10.9292   -3.5900    0.0000 H   0  0  0  0  0  0  0  0  0  0  0  0
    9.0760   -3.5900    0.0000 H   0  0  0  0  0  0  0  0  0  0  0  0
   10.0026   -3.0550    0.0000 H   0  0  0  0  0  0  0  0  0  0  0  0
   12.3581   -3.5900    0.0000 H   0  0  0  0  0  0  0  0  0  0  0  0
   10.5049   -3.5900    0.0000 H   0  0  0  0  0  0  0  0  0  0  0  0
   11.4315   -3.0550    0.0000 H   0  0  0  0  0  0  0  0  0  0  0  0
   21.4341   -5.1950    0.0000 H   0  0  0  0  0  0  0  0  0  0  0  0
   22.3608   -3.5900    0.0000 H   0  0  0  0  0  0  0  0  0  0  0  0
   22.3607   -4.6600    0.0000 H   0  0  0  0  0  0  0  0  0  0  0  0
   17.8618   -6.4325    0.0000 H   0  0  0  0  0  0  0  0  0  0  0  0
   18.7884   -4.8275    0.0000 H   0  0  0  0  0  0  0  0  0  0  0  0
   18.7885   -5.8975    0.0000 H   0  0  0  0  0  0  0  0  0  0  0  0
    6.9326   -6.7225    0.0000 H   0  0  0  0  0  0  0  0  0  0  0  0
    8.7858   -6.7225    0.0000 H   0  0  0  0  0  0  0  0  0  0  0  0
    7.8592   -7.2575    0.0000 H   0  0  0  0  0  0  0  0  0  0  0  0
   14.7917   -3.5900    0.0000 H   0  0  0  0  0  0  0  0  0  0  0  0
   15.7184   -5.1950    0.0000 H   0  0  0  0  0  0  0  0  0  0  0  0
   14.7918   -4.6600    0.0000 H   0  0  0  0  0  0  0  0  0  0  0  0
   15.7184   -7.6700    0.0000 H   0  0  0  0  0  0  0  0  0  0  0  0
   16.6450   -6.0650    0.0000 H   0  0  0  0  0  0  0  0  0  0  0  0
   16.6451   -7.1350    0.0000 H   0  0  0  0  0  0  0  0  0  0  0  0
    9.0760   -6.0650    0.0000 H   0  0  0  0  0  0  0  0  0  0  0  0
   10.0026   -7.6700    0.0000 H   0  0  0  0  0  0  0  0  0  0  0  0
    9.0759   -7.1350    0.0000 H   0  0  0  0  0  0  0  0  0  0  0  0
   23.0752   -3.4225    0.0000 H   0  0  0  0  0  0  0  0  0  0  0  0
   22.1486   -1.8175    0.0000 H   0  0  0  0  0  0  0  0  0  0  0  0
   23.0753   -2.3525    0.0000 H   0  0  0  0  0  0  0  0  0  0  0  0
   18.7884   -4.2475    0.0000 H   0  0  0  0  0  0  0  0  0  0  0  0
   17.8618   -4.7825    0.0000 H   0  0  0  0  0  0  0  0  0  0  0  0
   13.5749   -6.4325    0.0000 H   0  0  0  0  0  0  0  0  0  0  0  0
   14.5015   -5.8975    0.0000 H   0  0  0  0  0  0  0  0  0  0  0  0
   12.8605   -3.8800    0.0000 H   0  0  0  0  0  0  0  0  0  0  0  0
   11.9339   -4.4150    0.0000 H   0  0  0  0  0  0  0  0  0  0  0  0
   20.2173   -6.7225    0.0000 H   0  0  0  0  0  0  0  0  0  0  0  0
   19.2907   -7.2575    0.0000 H   0  0  0  0  0  0  0  0  0  0  0  0
   20.9318   -5.4850    0.0000 H   0  0  0  0  0  0  0  0  0  0  0  0
   20.9318   -4.4150    0.0000 H   0  0  0  0  0  0  0  0  0  0  0  0
   17.8618   -5.1175    0.0000 H   0  0  0  0  0  0  0  0  0  0  0  0
   16.9352   -5.6525    0.0000 H   0  0  0  0  0  0  0  0  0  0  0  0
   15.7184   -3.8800    0.0000 H   0  0  0  0  0  0  0  0  0  0  0  0
   16.6451   -4.4150    0.0000 H   0  0  0  0  0  0  0  0  0  0  0  0
   23.0422   -3.0289    0.0000 H   0  0  0  0  0  0  0  0  0  0  0  0
   17.9684    0.5972    0.0000 H   0  0  0  0  0  0  0  0  0  0  0  0
   21.8015    1.4448    0.0000 H   0  0  0  0  0  0  0  0  0  0  0  0
    7.1447   -3.8800    0.0000 H   0  0  0  0  0  0  0  0  0  0  0  0
    6.2181   -4.4150    0.0000 H   0  0  0  0  0  0  0  0  0  0  0  0
   18.4074   -9.1725    0.0000 H   0  0  0  0  0  0  0  0  0  0  0  0
   20.1740   -9.1725    0.0000 H   0  0  0  0  0  0  0  0  0  0  0  0
    5.5902   -4.8775    0.0000 H   0  0  0  0  0  0  0  0  0  0  0  0
   19.2907   -2.7425    0.0000 H   0  0  0  0  0  0  0  0  0  0  0  0
   20.8452   -7.9100    0.0000 H   0  0  0  0  0  0  0  0  0  0  0  0
  1 86  1  0  0  0  0
  1 87  1  0  0  0  0
  1 88  1  0  0  0  0
  2 89  1  0  0  0  0
  2 90  1  0  0  0  0
  2 91  1  0  0  0  0
  3 92  1  0  0  0  0
  3 93  1  0  0  0  0
  3 94  1  0  0  0  0
  4 95  1  0  0  0  0
  4 96  1  0  0  0  0
  4 97  1  0  0  0  0
  5 98  1  0  0  0  0
  5 99  1  0  0  0  0
  5100  1  0  0  0  0
  6101  1  0  0  0  0
  6102  1  0  0  0  0
  6103  1  0  0  0  0
  7104  1  0  0  0  0
  7105  1  0  0  0  0
  7106  1  0  0  0  0
  8107  1  0  0  0  0
  8108  1  0  0  0  0
  8109  1  0  0  0  0
  9110  1  0  0  0  0
  9111  1  0  0  0  0
  9112  1  0  0  0  0
 10113  1  0  0  0  0
 10114  1  0  0  0  0
 10115  1  0  0  0  0
 11116  1  0  0  0  0
 11117  1  0  0  0  0
 11118  1  0  0  0  0
 13 12  1  0  0  0  0
 13119  1  0  0  0  0
 13120  1  0  0  0  0
 14 12  2  0  0  0  0
 15121  1  0  0  0  0
 15122  1  0  0  0  0
 16 15  1  0  0  0  0
 16123  1  0  0  0  0
 16124  1  0  0  0  0
 18 17  2  0  0  0  0
 19125  1  0  0  0  0
 19126  1  0  0  0  0
 20127  1  0  0  0  0
 20128  1  0  0  0  0
 21129  1  0  0  0  0
 21130  1  0  0  0  0
 22131  1  0  0  0  0
 22132  1  0  0  0  0
 23133  1  0  0  0  0
 24134  1  0  0  0  0
 25135  1  0  0  0  0
 26136  1  0  0  0  0
 26137  1  0  0  0  0
 27  1  1  0  0  0  0
 27 19  1  0  0  0  0
 27 20  1  0  0  0  0
 27 72  1  1  0  0  0
 28  2  1  0  0  0  0
 28 15  1  0  0  0  0
 28 73  1  1  0  0  0
 29  3  1  0  0  0  0
 29 17  1  0  0  0  0
 29 74  1  6  0  0  0
 30  4  1  0  0  0  0
 30 75  1  6  0  0  0
 31  5  1  0  0  0  0
 31 76  1  6  0  0  0
 32  6  1  0  0  0  0
 32 77  1  6  0  0  0
 33 19  1  0  0  0  0
 33 21  1  0  0  0  0
 33 66  1  0  0  0  0
 33 78  1  1  0  0  0
 34 23  2  0  0  0  0
 35 24  2  0  0  0  0
 36 25  2  0  0  0  0
 37 16  1  0  0  0  0
 37 30  1  0  0  0  0
 38 20  1  0  0  0  0
 38 31  1  0  0  0  0
 38 56  1  0  0  0  0
 38 79  1  1  0  0  0
 39 13  1  0  0  0  0
 39 32  1  0  0  0  0
 39 59  1  0  0  0  0
 39 80  1  6  0  0  0
 40 22  1  0  0  0  0
 40 28  1  0  0  0  0
 40 60  1  0  0  0  0
 40 81  1  1  0  0  0
 41 22  1  0  0  0  0
 41 32  1  0  0  0  0
 41 82  1  6  0  0  0
 42 14  1  0  0  0  0
 43 21  1  0  0  0  0
 44 29  1  0  0  0  0
 44 30  1  0  0  0  0
 44 61  1  0  0  0  0
 44 83  1  1  0  0  0
 45 31  1  0  0  0  0
 45 34  1  0  0  0  0
 45 62  1  0  0  0  0
 45 84  1  1  0  0  0
 46 35  1  0  0  0  0
 47 36  1  0  0  0  0
 48 49  1  0  0  0  0
 48 85  1  6  0  0  0
 49138  1  0  0  0  0
 49139  1  0  0  0  0
 50 35  1  0  0  0  0
 50 42  2  0  0  0  0
 51 34  1  0  0  0  0
 51 47  2  0  0  0  0
 52 36  1  0  0  0  0
 52 46  2  0  0  0  0
 53  7  1  0  0  0  0
 53 18  1  0  0  0  0
 53 26  1  0  0  0  0
 54 26  1  0  0  0  0
 54140  1  0  0  0  0
 55 37  2  0  0  0  0
 56141  1  0  0  0  0
 57 43  2  0  0  0  0
 58 48  1  0  0  0  0
 58142  1  0  0  0  0
 59  8  1  0  0  0  0
 60  9  1  0  0  0  0
 61 10  1  0  0  0  0
 62 11  1  0  0  0  0
 63 24  1  0  0  0  0
 63 42  1  0  0  0  0
 64 23  1  0  0  0  0
 64 47  1  0  0  0  0
 65 25  1  0  0  0  0
 65 46  1  0  0  0  0
 66 48  1  0  0  0  0
 67 41  1  0  0  0  0
 67 43  1  0  0  0  0
 68 12  1  0  0  0  0
 69 14  1  0  0  0  0
 70 17  1  0  0  0  0
 71 18  1  0  0  0  0
M  END
>  <DRUGBANK_ID>
DB03616

>  <SECONDARY_ACCESSION_NUMBERS>
EXPT01959

>  <COMMON_NAME>
Kabiramide C

$$$$
