3B6
 OpenBabel10282417072D

 39 40  0  0  0  0  0  0  0  0999 V2000
   -1.6739   -0.0310    0.0000 C   0  0  0  0  0  0  0  0  0  0  0  0
   -2.3884    0.3815    0.0000 C   0  0  0  0  0  0  0  0  0  0  0  0
   -3.1028   -0.0310    0.0000 I   0  0  0  0  0  0  0  0  0  0  0  0
   -2.3884    1.2065    0.0000 C   0  0  0  0  0  0  0  0  0  0  0  0
   -3.1028    1.6190    0.0000 C   0  0  0  0  0  0  0  0  0  0  0  0
   -3.8173    2.0315    0.0000 N   0  0  0  0  0  0  0  0  0  0  0  0
   -1.6739    1.6190    0.0000 C   0  0  0  0  0  0  0  0  0  0  0  0
   -0.9594    1.2065    0.0000 C   0  0  0  0  0  0  0  0  0  0  0  0
   -0.9594    0.3815    0.0000 C   0  0  0  0  0  0  0  0  0  0  0  0
   -0.2449   -0.0310    0.0000 N   0  0  0  0  0  0  0  0  0  0  0  0
    0.4695    0.3815    0.0000 C   0  0  0  0  0  0  0  0  0  0  0  0
    0.4695    1.2065    0.0000 O   0  0  0  0  0  0  0  0  0  0  0  0
    1.1840   -0.0310    0.0000 C   0  0  2  0  0  0  0  0  0  0  0  0
    0.7715   -0.7455    0.0000 O   0  0  0  0  0  0  0  0  0  0  0  0
    1.5965    0.6835    0.0000 C   0  0  0  0  0  0  0  0  0  0  0  0
    1.8985   -0.4435    0.0000 C   0  0  0  0  0  0  0  0  0  0  0  0
    2.6129   -0.0310    0.0000 O   0  0  0  0  0  0  0  0  0  0  0  0
    3.3274   -0.4435    0.0000 C   0  0  0  0  0  0  0  0  0  0  0  0
    4.0419   -0.0310    0.0000 C   0  0  0  0  0  0  0  0  0  0  0  0
    4.7564   -0.4435    0.0000 C   0  0  0  0  0  0  0  0  0  0  0  0
    4.7564   -1.2685    0.0000 C   0  0  0  0  0  0  0  0  0  0  0  0
    5.4708   -1.6810    0.0000 C   0  0  0  0  0  0  0  0  0  0  0  0
    6.1853   -2.0935    0.0000 N   0  0  0  0  0  0  0  0  0  0  0  0
    4.0419   -1.6810    0.0000 C   0  0  0  0  0  0  0  0  0  0  0  0
    3.3274   -1.2685    0.0000 C   0  0  0  0  0  0  0  0  0  0  0  0
   -1.6739   -1.0630    0.0000 H   0  0  0  0  0  0  0  0  0  0  0  0
   -1.6739    2.6510    0.0000 H   0  0  0  0  0  0  0  0  0  0  0  0
   -0.0657    1.7225    0.0000 H   0  0  0  0  0  0  0  0  0  0  0  0
   -0.2449   -1.0155    0.0000 H   0  0  0  0  0  0  0  0  0  0  0  0
   -0.1985   -0.7455    0.0000 H   0  0  0  0  0  0  0  0  0  0  0  0
    2.6665    0.6835    0.0000 H   0  0  0  0  0  0  0  0  0  0  0  0
    1.0615    1.6101    0.0000 H   0  0  0  0  0  0  0  0  0  0  0  0
    2.1315    1.6102    0.0000 H   0  0  0  0  0  0  0  0  0  0  0  0
    1.8985   -1.5135    0.0000 H   0  0  0  0  0  0  0  0  0  0  0  0
    2.8252   -0.9785    0.0000 H   0  0  0  0  0  0  0  0  0  0  0  0
    4.0419    1.0010    0.0000 H   0  0  0  0  0  0  0  0  0  0  0  0
    5.6501    0.0725    0.0000 H   0  0  0  0  0  0  0  0  0  0  0  0
    4.0419   -2.7130    0.0000 H   0  0  0  0  0  0  0  0  0  0  0  0
    2.4337   -1.7845    0.0000 H   0  0  0  0  0  0  0  0  0  0  0  0
  1  2  2  0  0  0  0
  1  9  1  0  0  0  0
  1 26  1  0  0  0  0
  2  3  1  0  0  0  0
  2  4  1  0  0  0  0
  4  5  1  0  0  0  0
  4  7  2  0  0  0  0
  5  6  3  0  0  0  0
  7  8  1  0  0  0  0
  7 27  1  0  0  0  0
  8  9  2  0  0  0  0
  8 28  1  0  0  0  0
  9 10  1  0  0  0  0
 10 11  1  0  0  0  0
 10 29  1  0  0  0  0
 11 12  2  0  0  0  0
 13 11  1  6  0  0  0
 13 14  1  0  0  0  0
 13 15  1  0  0  0  0
 13 16  1  0  0  0  0
 14 30  1  0  0  0  0
 15 31  1  0  0  0  0
 15 32  1  0  0  0  0
 15 33  1  0  0  0  0
 16 17  1  0  0  0  0
 16 34  1  0  0  0  0
 16 35  1  0  0  0  0
 17 18  1  0  0  0  0
 18 19  2  0  0  0  0
 18 25  1  0  0  0  0
 19 20  1  0  0  0  0
 19 36  1  0  0  0  0
 20 21  2  0  0  0  0
 20 37  1  0  0  0  0
 21 22  1  0  0  0  0
 21 24  1  0  0  0  0
 22 23  3  0  0  0  0
 24 25  2  0  0  0  0
 24 38  1  0  0  0  0
 25 39  1  0  0  0  0
M  END
>  <DRUGBANK_ID>
DB07039

>  <COMMON_NAME>
(2S)-N-(4-cyano-3-iodophenyl)-3-(4-cyanophenoxy)-2-hydroxy-2-methylpropanamide

$$$$
