
 OpenBabel10282417072D

 25 27  0  0  0  0  0  0  0  0999 V2000
    0.4244   -1.4032    0.0000 C   0  0  0  0  0  0  0  0  0  0  0  0
    1.0987   -1.8756    0.0000 N   0  0  0  0  0  0  0  0  0  0  0  0
    1.7564   -1.3803    0.0000 C   0  0  0  0  0  0  0  0  0  0  0  0
    0.6655   -0.6160    0.0000 C   0  0  1  0  0  0  0  0  0  0  0  0
    1.4888   -0.6046    0.0000 C   0  0  2  0  0  0  0  0  0  0  0  0
    1.0673    0.1027    0.0000 C   0  0  0  0  0  0  0  0  0  0  0  0
   -0.0527   -0.2002    0.0000 C   0  0  0  0  0  0  0  0  0  0  0  0
    2.2014   -0.1877    0.0000 H   0  0  0  0  0  0  0  0  0  0  0  0
   -0.0491    0.6349    0.0000 C   0  0  0  0  0  0  0  0  0  0  0  0
   -0.7666    1.0506    0.0000 C   0  0  0  0  0  0  0  0  0  0  0  0
   -1.4867    0.6363    0.0000 C   0  0  0  0  0  0  0  0  0  0  0  0
   -1.4850   -0.1979    0.0000 C   0  0  0  0  0  0  0  0  0  0  0  0
   -0.7669   -0.6098    0.0000 C   0  0  0  0  0  0  0  0  0  0  0  0
   -2.2014    1.0486    0.0000 Cl  0  0  0  0  0  0  0  0  0  0  0  0
   -0.7653    1.8756    0.0000 Cl  0  0  0  0  0  0  0  0  0  0  0  0
   -0.5874   -1.7512    0.0000 H   0  0  0  0  0  0  0  0  0  0  0  0
    0.2752   -2.4627    0.0000 H   0  0  0  0  0  0  0  0  0  0  0  0
    1.1162   -2.8954    0.0000 H   0  0  0  0  0  0  0  0  0  0  0  0
    2.7797   -1.6930    0.0000 H   0  0  0  0  0  0  0  0  0  0  0  0
    2.4994   -0.6103    0.0000 H   0  0  0  0  0  0  0  0  0  0  0  0
    1.0525    1.1726    0.0000 H   0  0  0  0  0  0  0  0  0  0  0  0
    0.0300    0.3653    0.0000 H   0  0  0  0  0  0  0  0  0  0  0  0
    0.8461    1.1483    0.0000 H   0  0  0  0  0  0  0  0  0  0  0  0
   -2.3775   -0.7161    0.0000 H   0  0  0  0  0  0  0  0  0  0  0  0
   -0.7669   -1.6418    0.0000 H   0  0  0  0  0  0  0  0  0  0  0  0
  1  2  1  0  0  0  0
  1 16  1  0  0  0  0
  1 17  1  0  0  0  0
  2  3  1  0  0  0  0
  2 18  1  0  0  0  0
  3  5  1  0  0  0  0
  3 19  1  0  0  0  0
  3 20  1  0  0  0  0
  4  7  1  1  0  0  0
  4  1  1  0  0  0  0
  4  6  1  0  0  0  0
  5  8  1  1  0  0  0
  5  4  1  0  0  0  0
  6  5  1  0  0  0  0
  6 21  1  0  0  0  0
  6 22  1  0  0  0  0
  7  9  2  0  0  0  0
  9 10  1  0  0  0  0
  9 23  1  0  0  0  0
 10 11  2  0  0  0  0
 10 15  1  0  0  0  0
 11 12  1  0  0  0  0
 11 14  1  0  0  0  0
 12 13  2  0  0  0  0
 12 24  1  0  0  0  0
 13  7  1  0  0  0  0
 13 25  1  0  0  0  0
M  END
>  <DRUGBANK_ID>
DB05964

>  <COMMON_NAME>
Amitifadine

>  <CAS_NUMBER>
410074-73-6

>  <UNII>
GE0J375F8F

$$$$
