
 OpenBabel10282417072D

 48 49  0  0  0  0  0  0  0  0999 V2000
    0.1744   -3.0889    0.0000 C   0  0  0  0  0  0  0  0  0  0  0  0
    0.7145   -3.7125    0.0000 C   0  0  0  0  0  0  0  0  0  0  0  0
    1.5246   -3.5566    0.0000 O   0  0  0  0  0  0  0  0  0  0  0  0
    2.0647   -4.1802    0.0000 C   0  0  0  0  0  0  0  0  0  0  0  0
    2.8748   -4.0243    0.0000 C   0  0  0  0  0  0  0  0  0  0  0  0
    3.4149   -4.6480    0.0000 N   0  0  0  0  0  0  0  0  0  0  0  0
    3.1449   -5.4275    0.0000 C   0  0  0  0  0  0  0  0  0  0  0  0
    2.3347   -5.5834    0.0000 C   0  0  0  0  0  0  0  0  0  0  0  0
    2.0647   -6.3630    0.0000 C   0  0  0  0  0  0  0  0  0  0  0  0
    1.2546   -6.5189    0.0000 C   0  0  0  0  0  0  0  0  0  0  0  0
    0.7145   -5.8952    0.0000 C   0  0  0  0  0  0  0  0  0  0  0  0
    0.9845   -5.1157    0.0000 C   0  0  0  0  0  0  0  0  0  0  0  0
    1.7946   -4.9598    0.0000 C   0  0  0  0  0  0  0  0  0  0  0  0
   -0.0957   -6.0512    0.0000 O   0  0  0  0  0  0  0  0  0  0  0  0
   -0.3657   -6.8307    0.0000 C   0  0  0  0  0  0  0  0  0  0  0  0
    0.1744   -7.4543    0.0000 C   0  0  0  0  0  0  0  0  0  0  0  0
   -0.0957   -8.2339    0.0000 C   0  0  0  0  0  0  0  0  0  0  0  0
   -0.9058   -8.3898    0.0000 C   0  0  0  0  0  0  0  0  0  0  0  0
   -1.4459   -7.7662    0.0000 C   0  0  0  0  0  0  0  0  0  0  0  0
   -1.1758   -6.9866    0.0000 C   0  0  0  0  0  0  0  0  0  0  0  0
   -1.1758   -9.1694    0.0000 N   0  3  0  0  0  0  0  0  0  0  0  0
   -0.6358   -9.7930    0.0000 O   0  0  0  0  0  0  0  0  0  0  0  0
   -1.9860   -9.3253    0.0000 O   0  5  0  0  0  0  0  0  0  0  0  0
    4.2251   -4.4921    0.0000 C   0  0  0  0  0  0  0  0  0  0  0  0
    4.7651   -5.1157    0.0000 O   0  0  0  0  0  0  0  0  0  0  0  0
    4.4951   -3.7125    0.0000 C   0  0  0  0  0  0  0  0  0  0  0  0
    3.9550   -3.0889    0.0000 Cl  0  0  0  0  0  0  0  0  0  0  0  0
    5.3052   -3.5566    0.0000 Cl  0  0  0  0  0  0  0  0  0  0  0  0
    0.5246   -2.0778    0.0000 H   0  0  0  0  0  0  0  0  0  0  0  0
   -0.8763   -3.2912    0.0000 H   0  0  0  0  0  0  0  0  0  0  0  0
   -0.5261   -2.2801    0.0000 H   0  0  0  0  0  0  0  0  0  0  0  0
    0.3643   -4.7236    0.0000 H   0  0  0  0  0  0  0  0  0  0  0  0
    1.4150   -4.5213    0.0000 H   0  0  0  0  0  0  0  0  0  0  0  0
    1.7145   -5.1913    0.0000 H   0  0  0  0  0  0  0  0  0  0  0  0
    2.7652   -4.9890    0.0000 H   0  0  0  0  0  0  0  0  0  0  0  0
    3.2251   -3.0133    0.0000 H   0  0  0  0  0  0  0  0  0  0  0  0
    3.9255   -3.8221    0.0000 H   0  0  0  0  0  0  0  0  0  0  0  0
    3.8454   -6.2363    0.0000 H   0  0  0  0  0  0  0  0  0  0  0  0
    2.7946   -6.4386    0.0000 H   0  0  0  0  0  0  0  0  0  0  0  0
    2.7403   -7.1431    0.0000 H   0  0  0  0  0  0  0  0  0  0  0  0
    0.9168   -7.4940    0.0000 H   0  0  0  0  0  0  0  0  0  0  0  0
    0.3089   -4.3356    0.0000 H   0  0  0  0  0  0  0  0  0  0  0  0
    2.1324   -3.9846    0.0000 H   0  0  0  0  0  0  0  0  0  0  0  0
    1.1878   -7.2593    0.0000 H   0  0  0  0  0  0  0  0  0  0  0  0
    0.5799   -9.0140    0.0000 H   0  0  0  0  0  0  0  0  0  0  0  0
   -2.4593   -7.9612    0.0000 H   0  0  0  0  0  0  0  0  0  0  0  0
   -1.8514   -6.2065    0.0000 H   0  0  0  0  0  0  0  0  0  0  0  0
    4.8453   -2.7014    0.0000 H   0  0  0  0  0  0  0  0  0  0  0  0
  1  2  1  0  0  0  0
  1 29  1  0  0  0  0
  1 30  1  0  0  0  0
  1 31  1  0  0  0  0
  2  3  1  0  0  0  0
  2 32  1  0  0  0  0
  2 33  1  0  0  0  0
  3  4  1  0  0  0  0
  4  5  1  0  0  0  0
  4 34  1  0  0  0  0
  4 35  1  0  0  0  0
  5  6  1  0  0  0  0
  5 36  1  0  0  0  0
  5 37  1  0  0  0  0
  6  7  1  0  0  0  0
  6 24  1  0  0  0  0
  7  8  1  0  0  0  0
  7 38  1  0  0  0  0
  7 39  1  0  0  0  0
  8  9  2  0  0  0  0
  8 13  1  0  0  0  0
  9 10  1  0  0  0  0
  9 40  1  0  0  0  0
 10 11  2  0  0  0  0
 10 41  1  0  0  0  0
 11 12  1  0  0  0  0
 11 14  1  0  0  0  0
 12 13  2  0  0  0  0
 12 42  1  0  0  0  0
 13 43  1  0  0  0  0
 14 15  1  0  0  0  0
 15 16  2  0  0  0  0
 15 20  1  0  0  0  0
 16 17  1  0  0  0  0
 16 44  1  0  0  0  0
 17 18  2  0  0  0  0
 17 45  1  0  0  0  0
 18 19  1  0  0  0  0
 18 21  1  0  0  0  0
 19 20  2  0  0  0  0
 19 46  1  0  0  0  0
 20 47  1  0  0  0  0
 21 22  2  0  0  0  0
 21 23  1  0  0  0  0
 24 25  2  0  0  0  0
 24 26  1  0  0  0  0
 26 27  1  0  0  0  0
 26 28  1  0  0  0  0
 26 48  1  0  0  0  0
M  CHG  2  21   1  23  -1
M  END
>  <DRUGBANK_ID>
DB13258

>  <COMMON_NAME>
Etofamide

>  <CAS_NUMBER>
25287-60-9

>  <UNII>
03F36JH21U

>  <SYNONYMS>
Etofamide

$$$$
