
 OpenBabel10282417072D

 32 32  0  0  0  0  0  0  0  0999 V2000
   -2.5269    0.0129    0.0000 S   0  0  0  0  0  0  0  0  0  0  0  0
   -1.7979   -0.4099    0.0000 N   0  0  0  0  0  0  0  0  0  0  0  0
   -2.9498   -0.7160    0.0000 O   0  0  0  0  0  0  0  0  0  0  0  0
   -2.1067    0.7446    0.0000 O   0  0  0  0  0  0  0  0  0  0  0  0
    0.3632   -0.0103    0.0000 C   0  0  0  0  0  0  0  0  0  0  0  0
   -0.3502   -0.4099    0.0000 C   0  0  0  0  0  0  0  0  0  0  0  0
   -1.0611   -0.0051    0.0000 C   0  0  0  0  0  0  0  0  0  0  0  0
    1.1104   -0.4177    0.0000 C   0  0  3  0  0  0  0  0  0  0  0  0
   -3.2586    0.4358    0.0000 C   0  0  0  0  0  0  0  0  0  0  0  0
    2.5218   -0.4255    0.0000 N   0  0  0  0  0  0  0  0  0  0  0  0
    1.1104   -1.2427    0.0000 O   0  0  0  0  0  0  0  0  0  0  0  0
    0.3632    0.8146    0.0000 C   0  0  0  0  0  0  0  0  0  0  0  0
   -0.3502    1.2427    0.0000 C   0  0  0  0  0  0  0  0  0  0  0  0
    1.7979   -0.0051    0.0000 C   0  0  0  0  0  0  0  0  0  0  0  0
   -1.0611    0.8146    0.0000 C   0  0  0  0  0  0  0  0  0  0  0  0
    3.2586   -0.0103    0.0000 C   0  0  0  0  0  0  0  0  0  0  0  0
   -1.8093   -1.3943    0.0000 H   0  0  0  0  0  0  0  0  0  0  0  0
   -0.3538   -1.4419    0.0000 H   0  0  0  0  0  0  0  0  0  0  0  0
    0.1904   -0.9640    0.0000 H   0  0  0  0  0  0  0  0  0  0  0  0
   -3.2581    1.5058    0.0000 H   0  0  0  0  0  0  0  0  0  0  0  0
   -4.1855   -0.0988    0.0000 H   0  0  0  0  0  0  0  0  0  0  0  0
   -4.1850    0.9712    0.0000 H   0  0  0  0  0  0  0  0  0  0  0  0
    2.5152   -1.4455    0.0000 H   0  0  0  0  0  0  0  0  0  0  0  0
    0.2704   -1.7277    0.0000 H   0  0  0  0  0  0  0  0  0  0  0  0
    1.2613    1.3230    0.0000 H   0  0  0  0  0  0  0  0  0  0  0  0
   -0.3510    2.2747    0.0000 H   0  0  0  0  0  0  0  0  0  0  0  0
    1.7902    1.0649    0.0000 H   0  0  0  0  0  0  0  0  0  0  0  0
    0.8649    0.5187    0.0000 H   0  0  0  0  0  0  0  0  0  0  0  0
   -1.9596    1.3223    0.0000 H   0  0  0  0  0  0  0  0  0  0  0  0
    4.1796   -0.5549    0.0000 H   0  0  0  0  0  0  0  0  0  0  0  0
    3.2698    1.0596    0.0000 H   0  0  0  0  0  0  0  0  0  0  0  0
    4.1908    0.5150    0.0000 H   0  0  0  0  0  0  0  0  0  0  0  0
  2  1  1  0  0  0  0
  2 17  1  0  0  0  0
  3  1  2  0  0  0  0
  4  1  2  0  0  0  0
  5  6  2  0  0  0  0
  6  7  1  0  0  0  0
  6 18  1  0  0  0  0
  7  2  1  0  0  0  0
  8  5  1  0  0  0  0
  8 11  1  0  0  0  0
  8 19  1  0  0  0  0
  9  1  1  0  0  0  0
  9 20  1  0  0  0  0
  9 21  1  0  0  0  0
  9 22  1  0  0  0  0
 10 14  1  0  0  0  0
 10 23  1  0  0  0  0
 11 24  1  0  0  0  0
 12  5  1  0  0  0  0
 12 25  1  0  0  0  0
 13 15  1  0  0  0  0
 13 12  2  0  0  0  0
 13 26  1  0  0  0  0
 14  8  1  0  0  0  0
 14 27  1  0  0  0  0
 14 28  1  0  0  0  0
 15  7  2  0  0  0  0
 15 29  1  0  0  0  0
 16 10  1  0  0  0  0
 16 30  1  0  0  0  0
 16 31  1  0  0  0  0
 16 32  1  0  0  0  0
M  END
>  <DRUGBANK_ID>
DB16623

>  <COMMON_NAME>
Amidephrine

>  <CAS_NUMBER>
37571-84-9

>  <UNII>
7E2P22546V

>  <SYNONYMS>
Amidefrine; Amidephrine

$$$$
