
 OpenBabel10282417072D

 27 27  0  0  0  0  0  0  0  0999 V2000
    2.1434    2.0625    0.0000 C   0  0  0  0  0  0  0  0  0  0  0  0
    2.1434    1.2375    0.0000 O   0  0  0  0  0  0  0  0  0  0  0  0
    1.4289    0.8250    0.0000 C   0  0  0  0  0  0  0  0  0  0  0  0
    1.4289    0.0000    0.0000 C   0  0  0  0  0  0  0  0  0  0  0  0
    0.7145   -0.4125    0.0000 C   0  0  0  0  0  0  0  0  0  0  0  0
    0.0000    0.0000    0.0000 C   0  0  0  0  0  0  0  0  0  0  0  0
    0.0000    0.8250    0.0000 C   0  0  0  0  0  0  0  0  0  0  0  0
   -0.7145    1.2375    0.0000 O   0  0  0  0  0  0  0  0  0  0  0  0
    0.7145    1.2375    0.0000 C   0  0  0  0  0  0  0  0  0  0  0  0
    0.7145    2.0625    0.0000 O   0  0  0  0  0  0  0  0  0  0  0  0
    0.7145   -1.2375    0.0000 C   0  0  0  0  0  0  0  0  0  0  0  0
    0.0000   -1.6500    0.0000 C   0  0  0  0  0  0  0  0  0  0  0  0
    0.0000   -2.4750    0.0000 C   0  0  0  0  0  0  0  0  0  0  0  0
    0.7145   -2.8875    0.0000 O   0  0  0  0  0  0  0  0  0  0  0  0
   -0.7145   -2.8875    0.0000 O   0  0  0  0  0  0  0  0  0  0  0  0
    3.0700    2.5975    0.0000 H   0  0  0  0  0  0  0  0  0  0  0  0
    1.2168    2.5975    0.0000 H   0  0  0  0  0  0  0  0  0  0  0  0
    2.1434    3.1325    0.0000 H   0  0  0  0  0  0  0  0  0  0  0  0
    2.3226   -0.5160    0.0000 H   0  0  0  0  0  0  0  0  0  0  0  0
   -0.8937   -0.5160    0.0000 H   0  0  0  0  0  0  0  0  0  0  0  0
   -0.7145    2.1745    0.0000 H   0  0  0  0  0  0  0  0  0  0  0  0
    1.5260    2.5310    0.0000 H   0  0  0  0  0  0  0  0  0  0  0  0
    1.6082   -1.7535    0.0000 H   0  0  0  0  0  0  0  0  0  0  0  0
   -0.8937   -1.1340    0.0000 H   0  0  0  0  0  0  0  0  0  0  0  0
    0.0000   -3.5450    0.0000 H   0  0  0  0  0  0  0  0  0  0  0  0
    0.7145   -3.8245    0.0000 H   0  0  0  0  0  0  0  0  0  0  0  0
   -1.5260   -2.4190    0.0000 H   0  0  0  0  0  0  0  0  0  0  0  0
  1  2  1  0  0  0  0
  1 16  1  0  0  0  0
  1 17  1  0  0  0  0
  1 18  1  0  0  0  0
  2  3  1  0  0  0  0
  3  4  2  0  0  0  0
  3  9  1  0  0  0  0
  4  5  1  0  0  0  0
  4 19  1  0  0  0  0
  5  6  2  0  0  0  0
  5 11  1  0  0  0  0
  6  7  1  0  0  0  0
  6 20  1  0  0  0  0
  7  8  1  0  0  0  0
  7  9  2  0  0  0  0
  8 21  1  0  0  0  0
  9 10  1  0  0  0  0
 10 22  1  0  0  0  0
 11 12  2  0  0  0  0
 11 23  1  0  0  0  0
 12 13  1  0  0  0  0
 12 24  1  0  0  0  0
 13 14  1  0  0  0  0
 13 15  1  0  0  0  0
 13 25  1  0  0  0  0
 14 26  1  0  0  0  0
 15 27  1  0  0  0  0
M  END
>  <DRUGBANK_ID>
DB04449

>  <SECONDARY_ACCESSION_NUMBERS>
EXPT01734

>  <COMMON_NAME>
5-(3,3-Dihydroxypropeny)-3-Methoxy-Benzene-1,2-Diol

$$$$
