
 OpenBabel10282417072D

 23 22  0  0  1  0  0  0  0  0999 V2000
   -0.1914    0.7145    0.0000 C   0  0  0  0  0  0  0  0  0  0  0  0
    0.5230    1.1270    0.0000 C   0  0  0  0  0  0  0  0  0  0  0  0
    0.5230    1.9520    0.0000 C   0  0  0  0  0  0  0  0  0  0  0  0
    1.2375    0.7145    0.0000 C   0  0  2  0  0  0  0  0  0  0  0  0
    1.2375   -0.1105    0.0000 O   0  0  0  0  0  0  0  0  0  0  0  0
    1.9520    1.1270    0.0000 C   0  0  2  0  0  0  0  0  0  0  0  0
    1.9520    1.9520    0.0000 N   0  0  0  0  0  0  0  0  0  0  0  0
    2.6664    0.7145    0.0000 C   0  0  0  0  0  0  0  0  0  0  0  0
    3.3809    1.1270    0.0000 O   0  0  0  0  0  0  0  0  0  0  0  0
    2.6664   -0.1105    0.0000 O   0  0  0  0  0  0  0  0  0  0  0  0
   -1.1181    1.2495    0.0000 H   0  0  0  0  0  0  0  0  0  0  0  0
   -0.1914   -0.3555    0.0000 H   0  0  0  0  0  0  0  0  0  0  0  0
   -1.1180    0.1795    0.0000 H   0  0  0  0  0  0  0  0  0  0  0  0
    1.4496    1.6620    0.0000 H   0  0  0  0  0  0  0  0  0  0  0  0
    1.4496    2.4870    0.0000 H   0  0  0  0  0  0  0  0  0  0  0  0
   -0.4036    2.4870    0.0000 H   0  0  0  0  0  0  0  0  0  0  0  0
    0.5230    3.0220    0.0000 H   0  0  0  0  0  0  0  0  0  0  0  0
    0.3109    0.1795    0.0000 H   0  0  0  0  0  0  0  0  0  0  0  0
    0.3975   -0.5955    0.0000 H   0  0  0  0  0  0  0  0  0  0  0  0
    1.0254    1.6620    0.0000 H   0  0  0  0  0  0  0  0  0  0  0  0
    2.8353    2.4620    0.0000 H   0  0  0  0  0  0  0  0  0  0  0  0
    1.0687    2.4620    0.0000 H   0  0  0  0  0  0  0  0  0  0  0  0
    4.1924    0.6585    0.0000 H   0  0  0  0  0  0  0  0  0  0  0  0
  1  2  1  0  0  0  0
  1 11  1  0  0  0  0
  1 12  1  0  0  0  0
  1 13  1  0  0  0  0
  2  3  1  0  0  0  0
  2  4  1  0  0  0  0
  2 14  1  0  0  0  0
  3 15  1  0  0  0  0
  3 16  1  0  0  0  0
  3 17  1  0  0  0  0
  4  5  1  0  0  0  0
  4  6  1  0  0  0  0
  4 18  1  6  0  0  0
  5 19  1  0  0  0  0
  6  7  1  0  0  0  0
  6  8  1  0  0  0  0
  6 20  1  1  0  0  0
  7 21  1  0  0  0  0
  7 22  1  0  0  0  0
  8  9  1  0  0  0  0
  8 10  2  0  0  0  0
  9 23  1  0  0  0  0
M  END
>  <DRUGBANK_ID>
DB02978

>  <SECONDARY_ACCESSION_NUMBERS>
EXPT01755

>  <COMMON_NAME>
Beta-Hydroxyleucine

$$$$
