
 OpenBabel10282417072D

 22 21  0  0  0  0  0  0  0  0999 V2000
   -0.3567   -0.4454    0.0000 C   0  0  0  0  0  0  0  0  0  0  0  0
    0.3581   -0.0337    0.0000 N   0  0  0  0  0  0  0  0  0  0  0  0
    1.0727   -0.4454    0.0000 C   0  0  0  0  0  0  0  0  0  0  0  0
    1.7874   -0.0337    0.0000 C   0  0  0  0  0  0  0  0  0  0  0  0
    2.5022   -0.4454    0.0000 O   0  5  0  0  0  0  0  0  0  0  0  0
    1.7874    0.7914    0.0000 O   0  0  0  0  0  0  0  0  0  0  0  0
   -0.3567   -1.2707    0.0000 O   0  0  0  0  0  0  0  0  0  0  0  0
   -1.0714   -0.0337    0.0000 C   0  0  0  0  0  0  0  0  0  0  0  0
   -1.0736    0.7911    0.0000 C   0  0  0  0  0  0  0  0  0  0  0  0
   -0.2461    1.2707    0.0000 I   0  0  0  0  0  0  0  0  0  0  0  0
   -1.7882    1.2029    0.0000 C   0  0  0  0  0  0  0  0  0  0  0  0
   -2.5022    0.7891    0.0000 C   0  0  0  0  0  0  0  0  0  0  0  0
   -2.5015   -0.0366    0.0000 C   0  0  0  0  0  0  0  0  0  0  0  0
   -1.7853   -0.4475    0.0000 C   0  0  0  0  0  0  0  0  0  0  0  0
    1.7546   -1.1633    0.0000 Na  0  3  0  0  0  0  0  0  0  0  0  0
    0.3582    0.9508    0.0000 H   0  0  0  0  0  0  0  0  0  0  0  0
    1.0727   -1.5154    0.0000 H   0  0  0  0  0  0  0  0  0  0  0  0
    1.9991   -0.9809    0.0000 H   0  0  0  0  0  0  0  0  0  0  0  0
   -1.7895    2.2349    0.0000 H   0  0  0  0  0  0  0  0  0  0  0  0
   -3.3966    1.3040    0.0000 H   0  0  0  0  0  0  0  0  0  0  0  0
   -3.3943   -0.5542    0.0000 H   0  0  0  0  0  0  0  0  0  0  0  0
   -1.7830   -1.4795    0.0000 H   0  0  0  0  0  0  0  0  0  0  0  0
  1  2  1  0  0  0  0
  1  7  2  0  0  0  0
  1  8  1  0  0  0  0
  2  3  1  0  0  0  0
  2 16  1  0  0  0  0
  3  4  1  0  0  0  0
  3 17  1  0  0  0  0
  3 18  1  0  0  0  0
  4  5  1  0  0  0  0
  4  6  2  0  0  0  0
  8  9  2  0  0  0  0
  8 14  1  0  0  0  0
  9 10  1  0  0  0  0
  9 11  1  0  0  0  0
 11 12  2  0  0  0  0
 11 19  1  0  0  0  0
 12 20  1  0  0  0  0
 13 12  1  0  0  0  0
 13 21  1  0  0  0  0
 14 13  2  0  0  0  0
 14 22  1  0  0  0  0
M  ISO  1  10 131
M  CHG  2   5  -1  15   1
M  END
>  <DRUGBANK_ID>
DB09382

>  <COMMON_NAME>
Iodohippurate sodium I-131

>  <CAS_NUMBER>
881-17-4

>  <UNII>
9BRV734R3E

>  <SYNONYMS>
Iodohippurate sodium I 131; Iodohippurate sodium I131; Sodium iodohippurate (131 I); Sodium iodohippurate (131I)

$$$$
