1603
 OpenBabel10282417072D

 46 48  0  0  1  0  0  0  0  0999 V2000
    7.0379    0.3543    0.0000 S   0  0  0  0  0  0  0  0  0  0  0  0
    4.8393   -1.3137    0.0000 O   0  0  0  0  0  0  0  0  0  0  0  0
    6.7409   -2.3783    0.0000 O   0  0  0  0  0  0  0  0  0  0  0  0
    8.0999   -1.9368    0.0000 O   0  0  0  0  0  0  0  0  0  0  0  0
    3.8269   -0.3210    0.0000 O   0  0  0  0  0  0  0  0  0  0  0  0
    2.4474    0.0516    0.0000 O   0  0  0  0  0  0  0  0  0  0  0  0
    4.4723    2.0684    0.0000 O   0  0  0  0  0  0  0  0  0  0  0  0
    6.2534   -0.7257    0.0000 N   0  0  0  0  0  0  0  0  0  0  0  0
    4.8393    0.6873    0.0000 N   0  0  0  0  0  0  0  0  0  0  0  0
    6.2534    0.0993    0.0000 C   0  0  1  0  0  0  0  0  0  0  0  0
    7.5229   -0.3132    0.0000 C   0  0  0  0  0  0  0  0  0  0  0  0
    7.0379   -0.9806    0.0000 C   0  0  2  0  0  0  0  0  0  0  0  0
    5.4215    0.1028    0.0000 C   0  0  1  0  0  0  0  0  0  0  0  0
    5.4215   -0.7291    0.0000 C   0  0  0  0  0  0  0  0  0  0  0  0
    8.1903   -0.7981    0.0000 C   0  0  0  0  0  0  0  0  0  0  0  0
    8.1903    0.1718    0.0000 C   0  0  0  0  0  0  0  0  0  0  0  0
    7.2929   -1.7653    0.0000 C   0  0  0  0  0  0  0  0  0  0  0  0
    4.0420    0.4754    0.0000 C   0  0  0  0  0  0  0  0  0  0  0  0
    3.4598    1.0600    0.0000 C   0  0  0  0  0  0  0  0  0  0  0  0
    2.6625    0.8481    0.0000 C   0  0  0  0  0  0  0  0  0  0  0  0
    3.6750    1.8564    0.0000 C   0  0  0  0  0  0  0  0  0  0  0  0
    2.0803    1.4327    0.0000 C   0  0  0  0  0  0  0  0  0  0  0  0
    3.0929    2.4410    0.0000 C   0  0  0  0  0  0  0  0  0  0  0  0
    2.2955    2.2292    0.0000 C   0  0  0  0  0  0  0  0  0  0  0  0
    1.6500   -0.1602    0.0000 C   0  0  0  0  0  0  0  0  0  0  0  0
    4.6875    2.8648    0.0000 C   0  0  0  0  0  0  0  0  0  0  0  0
    6.1514    0.7514    0.0000 H   0  0  0  0  0  0  0  0  0  0  0  0
    5.8244   -2.1834    0.0000 H   0  0  0  0  0  0  0  0  0  0  0  0
    5.0960    1.6377    0.0000 H   0  0  0  0  0  0  0  0  0  0  0  0
    6.2813   -1.7372    0.0000 H   0  0  0  0  0  0  0  0  0  0  0  0
    5.8340    1.0901    0.0000 H   0  0  0  0  0  0  0  0  0  0  0  0
    8.0784   -1.8622    0.0000 H   0  0  0  0  0  0  0  0  0  0  0  0
    9.1678   -0.3629    0.0000 H   0  0  0  0  0  0  0  0  0  0  0  0
    9.0559   -1.4270    0.0000 H   0  0  0  0  0  0  0  0  0  0  0  0
    9.1678   -0.2633    0.0000 H   0  0  0  0  0  0  0  0  0  0  0  0
    8.0783    1.2359    0.0000 H   0  0  0  0  0  0  0  0  0  0  0  0
    9.0559    0.8008    0.0000 H   0  0  0  0  0  0  0  0  0  0  0  0
    1.0829    1.1677    0.0000 H   0  0  0  0  0  0  0  0  0  0  0  0
    3.3622    3.4373    0.0000 H   0  0  0  0  0  0  0  0  0  0  0  0
    1.5673    2.9605    0.0000 H   0  0  0  0  0  0  0  0  0  0  0  0
    0.8950    0.5981    0.0000 H   0  0  0  0  0  0  0  0  0  0  0  0
    1.3708   -1.1931    0.0000 H   0  0  0  0  0  0  0  0  0  0  0  0
    0.6159   -0.4349    0.0000 H   0  0  0  0  0  0  0  0  0  0  0  0
    5.7216    3.1396    0.0000 H   0  0  0  0  0  0  0  0  0  0  0  0
    3.9325    3.6230    0.0000 H   0  0  0  0  0  0  0  0  0  0  0  0
    4.9666    3.8978    0.0000 H   0  0  0  0  0  0  0  0  0  0  0  0
  1 10  1  0  0  0  0
  1 11  1  0  0  0  0
  2 14  2  0  0  0  0
  3 17  1  0  0  0  0
  3 28  1  0  0  0  0
  4 17  2  0  0  0  0
  5 18  2  0  0  0  0
  6 20  1  0  0  0  0
  6 25  1  0  0  0  0
  7 21  1  0  0  0  0
  7 26  1  0  0  0  0
  8 10  1  0  0  0  0
  8 12  1  0  0  0  0
  8 14  1  0  0  0  0
  9 18  1  0  0  0  0
  9 29  1  0  0  0  0
 10 13  1  0  0  0  0
 10 27  1  6  0  0  0
 11 12  1  0  0  0  0
 11 15  1  0  0  0  0
 11 16  1  0  0  0  0
 12 17  1  0  0  0  0
 12 30  1  1  0  0  0
 13  9  1  0  0  0  0
 13 14  1  0  0  0  0
 13 31  1  6  0  0  0
 15 32  1  0  0  0  0
 15 33  1  0  0  0  0
 15 34  1  0  0  0  0
 16 35  1  0  0  0  0
 16 36  1  0  0  0  0
 16 37  1  0  0  0  0
 18 19  1  0  0  0  0
 19 20  2  0  0  0  0
 19 21  1  0  0  0  0
 20 22  1  0  0  0  0
 21 23  2  0  0  0  0
 22 24  2  0  0  0  0
 22 38  1  0  0  0  0
 23 24  1  0  0  0  0
 23 39  1  0  0  0  0
 24 40  1  0  0  0  0
 25 41  1  0  0  0  0
 25 42  1  0  0  0  0
 25 43  1  0  0  0  0
 26 44  1  0  0  0  0
 26 45  1  0  0  0  0
 26 46  1  0  0  0  0
M  END
>  <DRUGBANK_ID>
DB01603

>  <COMMON_NAME>
Meticillin

>  <CAS_NUMBER>
61-32-5

>  <UNII>
Q91FH1328A

>  <SYNONYMS>
(2,6-Dimethoxyphenyl)penicillin; (2S,5R,6R)-6-[(2,6-dimethoxybenzoyl)amino]-3,3-dimethyl-7-oxo-4-thia-1-azabicyclo[3.2.0]heptane-2-carboxylic acid; 6-(2,6-Dimethoxybenzamido)penicillanic acid; 6Î²-(2,6-dimethoxybenzamido)penicillanic acid; Methicillin; Methicillinum; Methycillin; Meticilina; Meticillin; Meticillina; Meticilline; Meticillinum

$$$$
