
 OpenBabel10282417072D

 23 23  0  0  0  0  0  0  0  0999 V2000
   -0.0366   -1.4241    0.0000 C   0  0  0  0  0  0  0  0  0  0  0  0
    1.1926    0.7816    0.0000 C   0  0  0  0  0  0  0  0  0  0  0  0
   -0.3721   -0.6704    0.0000 C   0  0  2  0  0  0  0  0  0  0  0  0
    0.5252    1.2665    0.0000 C   0  0  1  0  0  0  0  0  0  0  0  0
   -0.1422    0.7816    0.0000 C   0  0  2  0  0  0  0  0  0  0  0  0
    0.1127   -0.0029    0.0000 C   0  0  2  0  0  0  0  0  0  0  0  0
   -0.5215   -2.0915    0.0000 O   0  0  0  0  0  0  0  0  0  0  0  0
   -1.1926   -0.5841    0.0000 O   0  0  0  0  0  0  0  0  0  0  0  0
    0.5252    2.0915    0.0000 O   0  0  0  0  0  0  0  0  0  0  0  0
   -0.9268    1.0365    0.0000 O   0  0  0  0  0  0  0  0  0  0  0  0
    0.9377   -0.0029    0.0000 O   0  0  0  0  0  0  0  0  0  0  0  0
    0.4482   -0.7566    0.0000 H   0  0  0  0  0  0  0  0  0  0  0  0
   -0.2098    1.6410    0.0000 H   0  0  0  0  0  0  0  0  0  0  0  0
   -0.7255    0.1982    0.0000 H   0  0  0  0  0  0  0  0  0  0  0  0
    0.5976    0.6644    0.0000 H   0  0  0  0  0  0  0  0  0  0  0  0
    1.0275   -1.5360    0.0000 H   0  0  0  0  0  0  0  0  0  0  0  0
    0.3986   -2.4016    0.0000 H   0  0  0  0  0  0  0  0  0  0  0  0
    2.2102    1.1122    0.0000 H   0  0  0  0  0  0  0  0  0  0  0  0
    1.9492    0.0250    0.0000 H   0  0  0  0  0  0  0  0  0  0  0  0
   -1.4862   -1.9901    0.0000 H   0  0  0  0  0  0  0  0  0  0  0  0
   -1.5871    0.3021    0.0000 H   0  0  0  0  0  0  0  0  0  0  0  0
    1.3652    2.5765    0.0000 H   0  0  0  0  0  0  0  0  0  0  0  0
   -1.1285    1.9853    0.0000 H   0  0  0  0  0  0  0  0  0  0  0  0
  1 16  1  0  0  0  0
  1 17  1  0  0  0  0
  2 18  1  0  0  0  0
  2 19  1  0  0  0  0
  3  1  1  0  0  0  0
  3  8  1  0  0  0  0
  3 12  1  6  0  0  0
  4  2  1  0  0  0  0
  4  9  1  0  0  0  0
  4 13  1  6  0  0  0
  5  4  1  0  0  0  0
  5  6  1  0  0  0  0
  5 10  1  0  0  0  0
  5 14  1  1  0  0  0
  6  3  1  0  0  0  0
  6 11  1  0  0  0  0
  6 15  1  1  0  0  0
  7  1  1  0  0  0  0
  7 20  1  0  0  0  0
  8 21  1  0  0  0  0
  9 22  1  0  0  0  0
 10 23  1  0  0  0  0
 11  2  1  0  0  0  0
M  END
>  <DRUGBANK_ID>
DB14474

>  <COMMON_NAME>
Sorbitan

>  <CAS_NUMBER>
12441-09-7

>  <UNII>
AV0YTZ4E6J

>  <SYNONYMS>
1,4-Sorbitan

$$$$
