LZB
 OpenBabel10282417072D

 26 27  0  0  0  0  0  0  0  0999 V2000
   16.1808    5.6542    0.0000 C   0  0  0  0  0  0  0  0  0  0  0  0
   16.1808    4.8292    0.0000 C   0  0  0  0  0  0  0  0  0  0  0  0
   16.8953    4.4167    0.0000 C   0  0  0  0  0  0  0  0  0  0  0  0
   15.4663    4.4167    0.0000 N   0  0  0  0  0  0  0  0  0  0  0  0
   15.4663    3.5917    0.0000 C   0  0  0  0  0  0  0  0  0  0  0  0
   16.1808    3.1792    0.0000 C   0  0  0  0  0  0  0  0  0  0  0  0
   16.1808    2.3542    0.0000 C   0  0  0  0  0  0  0  0  0  0  0  0
   16.8953    1.9417    0.0000 Cl  0  0  0  0  0  0  0  0  0  0  0  0
   15.4663    1.9417    0.0000 N   0  0  0  0  0  0  0  0  0  0  0  0
   14.7519    2.3542    0.0000 C   0  0  0  0  0  0  0  0  0  0  0  0
   13.9672    2.0993    0.0000 C   0  0  0  0  0  0  0  0  0  0  0  0
   13.7123    1.3146    0.0000 C   0  0  0  0  0  0  0  0  0  0  0  0
   13.4574    0.5300    0.0000 N   0  0  0  0  0  0  0  0  0  0  0  0
   13.4823    2.7667    0.0000 C   0  0  0  0  0  0  0  0  0  0  0  0
   13.9672    3.4341    0.0000 N   0  0  0  0  0  0  0  0  0  0  0  0
   14.7519    3.1792    0.0000 N   0  0  0  0  0  0  0  0  0  0  0  0
   17.1074    6.1892    0.0000 H   0  0  0  0  0  0  0  0  0  0  0  0
   15.2542    6.1892    0.0000 H   0  0  0  0  0  0  0  0  0  0  0  0
   16.1808    6.7242    0.0000 H   0  0  0  0  0  0  0  0  0  0  0  0
   16.1808    3.7592    0.0000 H   0  0  0  0  0  0  0  0  0  0  0  0
   16.8953    3.3467    0.0000 H   0  0  0  0  0  0  0  0  0  0  0  0
   17.8219    4.9517    0.0000 H   0  0  0  0  0  0  0  0  0  0  0  0
   17.8220    3.8817    0.0000 H   0  0  0  0  0  0  0  0  0  0  0  0
   14.6137    4.9090    0.0000 H   0  0  0  0  0  0  0  0  0  0  0  0
   17.0745    3.6952    0.0000 H   0  0  0  0  0  0  0  0  0  0  0  0
   12.4503    2.7667    0.0000 H   0  0  0  0  0  0  0  0  0  0  0  0
  1  2  1  0  0  0  0
  1 17  1  0  0  0  0
  1 18  1  0  0  0  0
  1 19  1  0  0  0  0
  2  3  1  0  0  0  0
  2  4  1  0  0  0  0
  2 20  1  0  0  0  0
  3 21  1  0  0  0  0
  3 22  1  0  0  0  0
  3 23  1  0  0  0  0
  4  5  1  0  0  0  0
  4 24  1  0  0  0  0
  5  6  2  0  0  0  0
  5 16  1  0  0  0  0
  6  7  1  0  0  0  0
  6 25  1  0  0  0  0
  7  8  1  0  0  0  0
  7  9  2  0  0  0  0
  9 10  1  0  0  0  0
 10 11  2  0  0  0  0
 10 16  1  0  0  0  0
 11 12  1  0  0  0  0
 11 14  1  0  0  0  0
 12 13  3  0  0  0  0
 14 15  2  0  0  0  0
 14 26  1  0  0  0  0
 15 16  1  0  0  0  0
M  END
>  <DRUGBANK_ID>
DB08139

>  <COMMON_NAME>
5-chloro-7-[(1-methylethyl)amino]pyrazolo[1,5-a]pyrimidine-3-carbonitrile

>  <UNII>
LW4J8Q7HMC

$$$$
