RXD
 OpenBabel10282417072D

 49 51  0  0  0  0  0  0  0  0999 V2000
   -4.1573   -3.6265    0.0000 F   0  0  0  0  0  0  0  0  0  0  0  0
   -3.4428   -3.2140    0.0000 C   0  0  0  0  0  0  0  0  0  0  0  0
   -3.4428   -2.3890    0.0000 C   0  0  0  0  0  0  0  0  0  0  0  0
   -2.7283   -1.9765    0.0000 O   0  0  0  0  0  0  0  0  0  0  0  0
   -2.7283   -1.1515    0.0000 C   0  0  0  0  0  0  0  0  0  0  0  0
   -3.4428   -0.7390    0.0000 C   0  0  0  0  0  0  0  0  0  0  0  0
   -3.4428    0.0860    0.0000 C   0  0  0  0  0  0  0  0  0  0  0  0
   -2.7283    0.4985    0.0000 C   0  0  0  0  0  0  0  0  0  0  0  0
   -2.0139   -0.7390    0.0000 C   0  0  0  0  0  0  0  0  0  0  0  0
   -2.0139    0.0860    0.0000 C   0  0  0  0  0  0  0  0  0  0  0  0
   -1.2994    0.4985    0.0000 N   0  0  0  0  0  0  0  0  0  0  0  0
   -0.5849    0.0860    0.0000 C   0  0  0  0  0  0  0  0  0  0  0  0
   -0.5849   -0.7390    0.0000 O   0  0  0  0  0  0  0  0  0  0  0  0
    0.1296    0.4985    0.0000 C   0  0  0  0  0  0  0  0  0  0  0  0
    0.8440    0.0860    0.0000 C   0  0  0  0  0  0  0  0  0  0  0  0
    1.5585    0.4985    0.0000 C   0  0  0  0  0  0  0  0  0  0  0  0
    1.5585    1.3235    0.0000 O   0  0  0  0  0  0  0  0  0  0  0  0
    2.2730    0.0860    0.0000 N   0  0  0  0  0  0  0  0  0  0  0  0
    2.9874    0.4985    0.0000 C   0  0  0  0  0  0  0  0  0  0  0  0
    3.7019    0.0860    0.0000 C   0  0  0  0  0  0  0  0  0  0  0  0
    4.4164    0.4985    0.0000 C   0  0  0  0  0  0  0  0  0  0  0  0
    4.4164    1.3235    0.0000 C   0  0  0  0  0  0  0  0  0  0  0  0
    3.7019    1.7360    0.0000 C   0  0  0  0  0  0  0  0  0  0  0  0
    3.7019    2.5610    0.0000 C   0  0  0  0  0  0  0  0  0  0  0  0
    2.9874    2.9735    0.0000 O   0  0  0  0  0  0  0  0  0  0  0  0
    2.9874    1.3235    0.0000 C   0  0  0  0  0  0  0  0  0  0  0  0
    5.1309    1.7360    0.0000 C   0  0  0  0  0  0  0  0  0  0  0  0
    5.8453    1.3235    0.0000 O   0  0  0  0  0  0  0  0  0  0  0  0
    5.1309    2.5610    0.0000 N   0  0  0  0  0  0  0  0  0  0  0  0
    4.4164    2.9735    0.0000 C   0  0  0  0  0  0  0  0  0  0  0  0
    4.4164    3.7985    0.0000 O   0  0  0  0  0  0  0  0  0  0  0  0
   -2.5162   -3.7490    0.0000 H   0  0  0  0  0  0  0  0  0  0  0  0
   -2.5162   -2.6790    0.0000 H   0  0  0  0  0  0  0  0  0  0  0  0
   -4.3694   -1.8540    0.0000 H   0  0  0  0  0  0  0  0  0  0  0  0
   -3.4428   -1.3190    0.0000 H   0  0  0  0  0  0  0  0  0  0  0  0
   -4.3365   -1.2550    0.0000 H   0  0  0  0  0  0  0  0  0  0  0  0
   -4.3365    0.6020    0.0000 H   0  0  0  0  0  0  0  0  0  0  0  0
   -2.7283    1.5305    0.0000 H   0  0  0  0  0  0  0  0  0  0  0  0
   -1.1202   -1.2550    0.0000 H   0  0  0  0  0  0  0  0  0  0  0  0
   -1.2994    1.4830    0.0000 H   0  0  0  0  0  0  0  0  0  0  0  0
    0.1296    1.5685    0.0000 H   0  0  0  0  0  0  0  0  0  0  0  0
    1.0563    1.0335    0.0000 H   0  0  0  0  0  0  0  0  0  0  0  0
    0.8440   -0.9840    0.0000 H   0  0  0  0  0  0  0  0  0  0  0  0
    1.7706   -0.4490    0.0000 H   0  0  0  0  0  0  0  0  0  0  0  0
    2.2730   -0.8985    0.0000 H   0  0  0  0  0  0  0  0  0  0  0  0
    3.7019   -0.9460    0.0000 H   0  0  0  0  0  0  0  0  0  0  0  0
    5.3101   -0.0175    0.0000 H   0  0  0  0  0  0  0  0  0  0  0  0
    2.0937    1.8395    0.0000 H   0  0  0  0  0  0  0  0  0  0  0  0
    5.9835    3.0533    0.0000 H   0  0  0  0  0  0  0  0  0  0  0  0
  1  2  1  0  0  0  0
  2  3  1  0  0  0  0
  2 32  1  0  0  0  0
  2 33  1  0  0  0  0
  3  4  1  0  0  0  0
  3 34  1  0  0  0  0
  3 35  1  0  0  0  0
  4  5  1  0  0  0  0
  5  6  2  0  0  0  0
  5  9  1  0  0  0  0
  6  7  1  0  0  0  0
  6 36  1  0  0  0  0
  7  8  2  0  0  0  0
  7 37  1  0  0  0  0
  8 10  1  0  0  0  0
  8 38  1  0  0  0  0
  9 10  2  0  0  0  0
  9 39  1  0  0  0  0
 10 11  1  0  0  0  0
 11 12  1  0  0  0  0
 11 40  1  0  0  0  0
 12 13  2  0  0  0  0
 12 14  1  0  0  0  0
 14 15  1  0  0  0  0
 14 41  1  0  0  0  0
 14 42  1  0  0  0  0
 15 16  1  0  0  0  0
 15 43  1  0  0  0  0
 15 44  1  0  0  0  0
 16 17  2  0  0  0  0
 16 18  1  0  0  0  0
 18 19  1  0  0  0  0
 18 45  1  0  0  0  0
 19 20  2  0  0  0  0
 19 26  1  0  0  0  0
 20 21  1  0  0  0  0
 20 46  1  0  0  0  0
 21 22  2  0  0  0  0
 21 47  1  0  0  0  0
 22 23  1  0  0  0  0
 22 27  1  0  0  0  0
 23 24  1  0  0  0  0
 23 26  2  0  0  0  0
 24 25  2  0  0  0  0
 24 30  1  0  0  0  0
 26 48  1  0  0  0  0
 27 28  2  0  0  0  0
 27 29  1  0  0  0  0
 29 30  1  0  0  0  0
 29 49  1  0  0  0  0
 30 31  2  0  0  0  0
M  END
>  <DRUGBANK_ID>
DB08499

>  <COMMON_NAME>
N-[3-(2-fluoroethoxy)phenyl]-N'-(1,3,4-trioxo-1,2,3,4-tetrahydroisoquinolin-6-yl)butanediamide

$$$$
