1454
 OpenBabel10282417072D

 29 30  0  0  1  0  0  0  0  0999 V2000
    6.7171    0.4081    0.0000 O   0  0  0  0  0  0  0  0  0  0  0  0
    6.7171   -0.9195    0.0000 O   0  0  0  0  0  0  0  0  0  0  0  0
    2.3643    0.5693    0.0000 N   0  0  0  0  0  0  0  0  0  0  0  0
    3.0789    0.1568    0.0000 C   0  0  3  0  0  0  0  0  0  0  0  0
    3.7932    0.5693    0.0000 C   0  0  0  0  0  0  0  0  0  0  0  0
    4.5077    0.1568    0.0000 C   0  0  0  0  0  0  0  0  0  0  0  0
    3.0789   -0.6682    0.0000 C   0  0  0  0  0  0  0  0  0  0  0  0
    5.2220    0.5693    0.0000 C   0  0  0  0  0  0  0  0  0  0  0  0
    5.9365    0.1568    0.0000 C   0  0  0  0  0  0  0  0  0  0  0  0
    4.5077   -0.6682    0.0000 C   0  0  0  0  0  0  0  0  0  0  0  0
    5.9365   -0.6682    0.0000 C   0  0  0  0  0  0  0  0  0  0  0  0
    5.2220   -1.0807    0.0000 C   0  0  0  0  0  0  0  0  0  0  0  0
    1.6499    0.1568    0.0000 C   0  0  0  0  0  0  0  0  0  0  0  0
    7.1986   -0.2558    0.0000 C   0  0  0  0  0  0  0  0  0  0  0  0
    2.3642    1.5893    0.0000 H   0  0  0  0  0  0  0  0  0  0  0  0
    3.0788    1.2268    0.0000 H   0  0  0  0  0  0  0  0  0  0  0  0
    3.7931    1.6393    0.0000 H   0  0  0  0  0  0  0  0  0  0  0  0
    4.7198    1.1043    0.0000 H   0  0  0  0  0  0  0  0  0  0  0  0
    2.1523   -1.2032    0.0000 H   0  0  0  0  0  0  0  0  0  0  0  0
    4.0055   -1.2032    0.0000 H   0  0  0  0  0  0  0  0  0  0  0  0
    3.0789   -1.7382    0.0000 H   0  0  0  0  0  0  0  0  0  0  0  0
    5.2219    1.6013    0.0000 H   0  0  0  0  0  0  0  0  0  0  0  0
    3.6139   -1.1842    0.0000 H   0  0  0  0  0  0  0  0  0  0  0  0
    5.2219   -2.1127    0.0000 H   0  0  0  0  0  0  0  0  0  0  0  0
    0.7232    0.6918    0.0000 H   0  0  0  0  0  0  0  0  0  0  0  0
    1.6499   -0.9132    0.0000 H   0  0  0  0  0  0  0  0  0  0  0  0
    0.7233   -0.3782    0.0000 H   0  0  0  0  0  0  0  0  0  0  0  0
    8.2686   -0.2559    0.0000 H   0  0  0  0  0  0  0  0  0  0  0  0
    7.6847   -1.2090    0.0000 H   0  0  0  0  0  0  0  0  0  0  0  0
  1  9  1  0  0  0  0
  1 14  1  0  0  0  0
  2 11  1  0  0  0  0
  2 14  1  0  0  0  0
  3  4  1  0  0  0  0
  3 13  1  0  0  0  0
  3 15  1  0  0  0  0
  4  5  1  0  0  0  0
  4  7  1  0  0  0  0
  4 16  1  0  0  0  0
  5  6  1  0  0  0  0
  5 17  1  0  0  0  0
  5 18  1  0  0  0  0
  6  8  2  0  0  0  0
  6 10  1  0  0  0  0
  7 19  1  0  0  0  0
  7 20  1  0  0  0  0
  7 21  1  0  0  0  0
  8  9  1  0  0  0  0
  8 22  1  0  0  0  0
  9 11  2  0  0  0  0
 10 12  2  0  0  0  0
 10 23  1  0  0  0  0
 11 12  1  0  0  0  0
 12 24  1  0  0  0  0
 13 25  1  0  0  0  0
 13 26  1  0  0  0  0
 13 27  1  0  0  0  0
 14 28  1  0  0  0  0
 14 29  1  0  0  0  0
M  END
>  <DRUGBANK_ID>
DB01454

>  <COMMON_NAME>
Midomafetamine

>  <CAS_NUMBER>
42542-10-9

>  <UNII>
KE1SEN21RM

>  <SYNONYMS>
3,4-Methylenedioxymethamphetamine; Ecstasy; MDMA; Methylenedioxymethamphetamine; Midomafetamine

$$$$
