
 OpenBabel10282417072D

 28 29  0  0  1  0  0  0  0  0999 V2000
    4.5080   -0.8410    0.0000 Cl  0  0  0  0  0  0  0  0  0  0  0  0
    1.6500   -0.8410    0.0000 Cl  0  0  0  0  0  0  0  0  0  0  0  0
    3.0791   -0.0160    0.0000 O   0  0  0  0  0  0  0  0  0  0  0  0
    3.1261    1.7065    0.0000 N   0  0  0  0  0  0  0  0  0  0  0  0
    4.4610    1.7065    0.0000 N   0  0  0  0  0  0  0  0  0  0  0  0
    3.7935    0.3965    0.0000 C   0  0  3  0  0  0  0  0  0  0  0  0
    3.7935    1.2215    0.0000 C   0  0  0  0  0  0  0  0  0  0  0  0
    3.3810    2.4911    0.0000 C   0  0  0  0  0  0  0  0  0  0  0  0
    4.2060    2.4911    0.0000 C   0  0  0  0  0  0  0  0  0  0  0  0
    4.5080   -0.0160    0.0000 C   0  0  0  0  0  0  0  0  0  0  0  0
    3.0791   -0.8410    0.0000 C   0  0  0  0  0  0  0  0  0  0  0  0
    3.7935   -1.2535    0.0000 C   0  0  0  0  0  0  0  0  0  0  0  0
    2.3645   -1.2535    0.0000 C   0  0  0  0  0  0  0  0  0  0  0  0
    3.7935   -2.0786    0.0000 C   0  0  0  0  0  0  0  0  0  0  0  0
    2.3645   -2.0786    0.0000 C   0  0  0  0  0  0  0  0  0  0  0  0
    3.0791   -2.4911    0.0000 C   0  0  0  0  0  0  0  0  0  0  0  0
    2.1898    1.4023    0.0000 H   0  0  0  0  0  0  0  0  0  0  0  0
    2.8668    0.9315    0.0000 H   0  0  0  0  0  0  0  0  0  0  0  0
    2.7521    3.3567    0.0000 H   0  0  0  0  0  0  0  0  0  0  0  0
    3.8668    3.4445    0.0000 H   0  0  0  0  0  0  0  0  0  0  0  0
    4.8349    3.3568    0.0000 H   0  0  0  0  0  0  0  0  0  0  0  0
    3.7202    3.4445    0.0000 H   0  0  0  0  0  0  0  0  0  0  0  0
    4.5080   -1.0860    0.0000 H   0  0  0  0  0  0  0  0  0  0  0  0
    5.4346    0.5190    0.0000 H   0  0  0  0  0  0  0  0  0  0  0  0
    5.4347   -0.5510    0.0000 H   0  0  0  0  0  0  0  0  0  0  0  0
    4.6872   -2.5946    0.0000 H   0  0  0  0  0  0  0  0  0  0  0  0
    1.4708   -2.5946    0.0000 H   0  0  0  0  0  0  0  0  0  0  0  0
    3.0792   -3.5231    0.0000 H   0  0  0  0  0  0  0  0  0  0  0  0
  1 12  1  0  0  0  0
  2 13  1  0  0  0  0
  3  6  1  0  0  0  0
  3 11  1  0  0  0  0
  4  7  1  0  0  0  0
  4  8  1  0  0  0  0
  4 17  1  0  0  0  0
  5  7  2  0  0  0  0
  5  9  1  0  0  0  0
  6  7  1  0  0  0  0
  6 10  1  0  0  0  0
  6 18  1  0  0  0  0
  8  9  1  0  0  0  0
  8 19  1  0  0  0  0
  8 20  1  0  0  0  0
  9 21  1  0  0  0  0
  9 22  1  0  0  0  0
 10 23  1  0  0  0  0
 10 24  1  0  0  0  0
 10 25  1  0  0  0  0
 11 12  2  0  0  0  0
 11 13  1  0  0  0  0
 12 14  1  0  0  0  0
 13 15  2  0  0  0  0
 14 16  2  0  0  0  0
 14 26  1  0  0  0  0
 15 16  1  0  0  0  0
 15 27  1  0  0  0  0
 16 28  1  0  0  0  0
M  END
>  <DRUGBANK_ID>
DB04948

>  <COMMON_NAME>
Lofexidine

>  <CAS_NUMBER>
31036-80-3

>  <UNII>
UI82K0T627

>  <SYNONYMS>
2-(alpha-(2,6-Dichlorophenoxy)ethyl)2-imidazoline; Lofexidina; Lofexidine; Lofexidinum

$$$$
