
 OpenBabel10282417072D

 60 64  0  0  1  0  0  0  0  0999 V2000
    3.6730    0.8109    0.0000 C   0  0  0  0  0  0  0  0  0  0  0  0
    1.8779    4.9399    0.0000 C   0  0  0  0  0  0  0  0  0  0  0  0
    1.2648    4.3879    0.0000 C   0  0  0  0  0  0  0  0  0  0  0  0
    2.6625    4.6850    0.0000 C   0  0  0  0  0  0  0  0  0  0  0  0
    1.4363    3.5809    0.0000 C   0  0  0  0  0  0  0  0  0  0  0  0
    2.8340    3.8780    0.0000 C   0  0  0  0  0  0  0  0  0  0  0  0
   -0.2854    1.4109    0.0000 C   0  0  0  0  0  0  0  0  0  0  0  0
   -0.1361    2.8320    0.0000 C   0  0  0  0  0  0  0  0  0  0  0  0
    0.5350    1.3247    0.0000 C   0  0  0  0  0  0  0  0  0  0  0  0
    0.6844    2.7458    0.0000 C   0  0  0  0  0  0  0  0  0  0  0  0
   -4.1291    0.2509    0.0000 C   0  0  0  0  0  0  0  0  0  0  0  0
   -3.8742   -0.5337    0.0000 C   0  0  0  0  0  0  0  0  0  0  0  0
    2.2529    1.1914    0.0000 C   0  0  0  0  0  0  0  0  0  0  0  0
   -1.9935    1.6377    0.0000 C   0  0  0  0  0  0  0  0  0  0  0  0
   -1.8540    2.9653    0.0000 C   0  0  0  0  0  0  0  0  0  0  0  0
   -2.7942    0.2509    0.0000 C   0  0  0  0  0  0  0  0  0  0  0  0
    3.0599    1.3629    0.0000 C   0  0  0  0  0  0  0  0  0  0  0  0
    2.2209    3.3260    0.0000 C   0  0  0  0  0  0  0  0  0  0  0  0
   -1.4415    2.2508    0.0000 C   0  0  1  0  0  0  0  0  0  0  0  0
   -2.7472    1.9733    0.0000 C   0  0  1  0  0  0  0  0  0  0  0  0
    1.8404    1.9059    0.0000 C   0  0  0  0  0  0  0  0  0  0  0  0
   -3.4617    1.5608    0.0000 C   0  0  0  0  0  0  0  0  0  0  0  0
   -2.6610    2.7938    0.0000 N   0  0  0  0  0  0  0  0  0  0  0  0
    3.1461    2.1834    0.0000 N   0  0  0  0  0  0  0  0  0  0  0  0
   -0.6210    2.1646    0.0000 N   0  0  0  0  0  0  0  0  0  0  0  0
    1.0200    1.9921    0.0000 N   0  0  0  0  0  0  0  0  0  0  0  0
   -3.4617    0.7358    0.0000 N   0  0  0  0  0  0  0  0  0  0  0  0
    2.3925    2.5190    0.0000 N   0  0  0  0  0  0  0  0  0  0  0  0
   -4.1761    1.9733    0.0000 O   0  0  0  0  0  0  0  0  0  0  0  0
   -3.0492   -0.5337    0.0000 S   0  0  0  0  0  0  0  0  0  0  0  0
   -1.1458    1.4806    0.0000 H   0  0  0  0  0  0  0  0  0  0  0  0
   -2.7040    1.1494    0.0000 H   0  0  0  0  0  0  0  0  0  0  0  0
    3.4506   -0.2357    0.0000 H   0  0  0  0  0  0  0  0  0  0  0  0
    4.6906    1.1416    0.0000 H   0  0  0  0  0  0  0  0  0  0  0  0
    4.4682    0.0950    0.0000 H   0  0  0  0  0  0  0  0  0  0  0  0
    1.6633    5.9493    0.0000 H   0  0  0  0  0  0  0  0  0  0  0  0
    0.2833    4.7068    0.0000 H   0  0  0  0  0  0  0  0  0  0  0  0
    3.4294    5.3755    0.0000 H   0  0  0  0  0  0  0  0  0  0  0  0
    0.6694    2.8904    0.0000 H   0  0  0  0  0  0  0  0  0  0  0  0
    3.8155    3.5591    0.0000 H   0  0  0  0  0  0  0  0  0  0  0  0
   -0.9143    0.5452    0.0000 H   0  0  0  0  0  0  0  0  0  0  0  0
   -1.3495    1.5227    0.0000 H   0  0  0  0  0  0  0  0  0  0  0  0
   -0.5713    3.8095    0.0000 H   0  0  0  0  0  0  0  0  0  0  0  0
   -1.2002    2.9438    0.0000 H   0  0  0  0  0  0  0  0  0  0  0  0
    0.9702    0.3472    0.0000 H   0  0  0  0  0  0  0  0  0  0  0  0
    1.5991    1.2128    0.0000 H   0  0  0  0  0  0  0  0  0  0  0  0
    1.3133    3.6115    0.0000 H   0  0  0  0  0  0  0  0  0  0  0  0
    1.7485    2.6340    0.0000 H   0  0  0  0  0  0  0  0  0  0  0  0
   -5.1467    0.5816    0.0000 H   0  0  0  0  0  0  0  0  0  0  0  0
   -4.2965    1.3077    0.0000 H   0  0  0  0  0  0  0  0  0  0  0  0
   -4.5031   -1.3993    0.0000 H   0  0  0  0  0  0  0  0  0  0  0  0
   -3.3884   -1.4871    0.0000 H   0  0  0  0  0  0  0  0  0  0  0  0
    1.8331    0.2486    0.0000 H   0  0  0  0  0  0  0  0  0  0  0  0
   -1.7710    0.5911    0.0000 H   0  0  0  0  0  0  0  0  0  0  0  0
   -2.8251    0.9643    0.0000 H   0  0  0  0  0  0  0  0  0  0  0  0
   -1.4188    3.9428    0.0000 H   0  0  0  0  0  0  0  0  0  0  0  0
   -2.5273    3.7969    0.0000 H   0  0  0  0  0  0  0  0  0  0  0  0
   -1.7766    0.5815    0.0000 H   0  0  0  0  0  0  0  0  0  0  0  0
   -2.0376   -0.5057    0.0000 H   0  0  0  0  0  0  0  0  0  0  0  0
   -3.4190    3.4763    0.0000 H   0  0  0  0  0  0  0  0  0  0  0  0
  1 33  1  0  0  0  0
  1 34  1  0  0  0  0
  1 35  1  0  0  0  0
  2 36  1  0  0  0  0
  3  2  2  0  0  0  0
  3 37  1  0  0  0  0
  4  2  1  0  0  0  0
  4 38  1  0  0  0  0
  5  3  1  0  0  0  0
  5 39  1  0  0  0  0
  6  4  2  0  0  0  0
  6 40  1  0  0  0  0
  7 41  1  0  0  0  0
  7 42  1  0  0  0  0
  8 43  1  0  0  0  0
  8 44  1  0  0  0  0
  9  7  1  0  0  0  0
  9 45  1  0  0  0  0
  9 46  1  0  0  0  0
 10  8  1  0  0  0  0
 10 47  1  0  0  0  0
 10 48  1  0  0  0  0
 11 49  1  0  0  0  0
 11 50  1  0  0  0  0
 12 11  1  0  0  0  0
 12 51  1  0  0  0  0
 12 52  1  0  0  0  0
 13 53  1  0  0  0  0
 14 54  1  0  0  0  0
 14 55  1  0  0  0  0
 15 56  1  0  0  0  0
 15 57  1  0  0  0  0
 16 58  1  0  0  0  0
 16 59  1  0  0  0  0
 17  1  1  0  0  0  0
 17 13  1  0  0  0  0
 18  5  2  0  0  0  0
 18  6  1  0  0  0  0
 19 14  1  0  0  0  0
 19 15  1  0  0  0  0
 19 25  1  0  0  0  0
 19 31  1  6  0  0  0
 20 14  1  0  0  0  0
 20 22  1  0  0  0  0
 20 32  1  6  0  0  0
 21 13  2  0  0  0  0
 23 15  1  0  0  0  0
 23 20  1  0  0  0  0
 23 60  1  0  0  0  0
 24 17  2  0  0  0  0
 25  7  1  0  0  0  0
 25  8  1  0  0  0  0
 26  9  1  0  0  0  0
 26 10  1  0  0  0  0
 26 21  1  0  0  0  0
 27 11  1  0  0  0  0
 27 16  1  0  0  0  0
 27 22  1  0  0  0  0
 28 18  1  0  0  0  0
 28 21  1  0  0  0  0
 28 24  1  0  0  0  0
 29 22  2  0  0  0  0
 30 12  1  0  0  0  0
 30 16  1  0  0  0  0
M  END
>  <DRUGBANK_ID>
DB11950

>  <COMMON_NAME>
Teneligliptin

>  <CAS_NUMBER>
760937-92-6

>  <UNII>
28ZHI4CF9C

>  <SYNONYMS>
Teneligliptin

$$$$
