
 OpenBabel10282417072D

 10  8  0  0  0  0  0  0  0  0999 V2000
   -1.7861    0.8250    0.0000 Sr  0  2  0  0  0  0  0  0  0  0  0  0
    0.3572    0.4125    0.0000 C   0  0  0  0  0  0  0  0  0  0  0  0
   -0.3572    0.0000    0.0000 C   0  0  0  0  0  0  0  0  0  0  0  0
   -0.3572   -0.8250    0.0000 O   0  0  0  0  0  0  0  0  0  0  0  0
   -1.0717    0.4125    0.0000 O   0  5  0  0  0  0  0  0  0  0  0  0
    1.0717    0.0000    0.0000 C   0  0  0  0  0  0  0  0  0  0  0  0
    1.7861    0.4125    0.0000 O   0  0  0  0  0  0  0  0  0  0  0  0
    1.0717   -0.8250    0.0000 O   0  5  0  0  0  0  0  0  0  0  0  0
    0.3572    1.4825    0.0000 H   0  0  0  0  0  0  0  0  0  0  0  0
    1.2838    0.9475    0.0000 H   0  0  0  0  0  0  0  0  0  0  0  0
  2  3  1  0  0  0  0
  2  6  1  0  0  0  0
  2  9  1  0  0  0  0
  2 10  1  0  0  0  0
  3  4  2  0  0  0  0
  3  5  1  0  0  0  0
  6  7  2  0  0  0  0
  6  8  1  0  0  0  0
M  CHG  3   1   2   5  -1   8  -1
M  END
>  <DRUGBANK_ID>
DB05732

>  <COMMON_NAME>
Strontium malonate

>  <CAS_NUMBER>
183133-72-4

>  <UNII>
GT5D7PW9ZR

$$$$
