
 OpenBabel10282417072D

 38 38  0  0  1  0  0  0  0  0999 V2000
   -1.7845   -3.0737    0.0000 C   0  0  0  0  0  0  0  0  0  0  0  0
   -1.1171   -2.5888    0.0000 C   0  0  0  0  0  0  0  0  0  0  0  0
    4.0486   -0.5980    0.0000 C   0  0  0  0  0  0  0  0  0  0  0  0
    3.6361   -1.3125    0.0000 C   0  0  0  0  0  0  0  0  0  0  0  0
    4.8736   -0.5980    0.0000 C   0  0  0  0  0  0  0  0  0  0  0  0
   -0.3634   -2.9244    0.0000 C   0  0  0  0  0  0  0  0  0  0  0  0
    2.3986   -2.0269    0.0000 C   0  0  0  0  0  0  0  0  0  0  0  0
    1.0886   -2.6944    0.0000 C   0  0  0  0  0  0  0  0  0  0  0  0
    0.3040   -1.6144    0.0000 C   0  0  0  0  0  0  0  0  0  0  0  0
    2.8111   -1.3125    0.0000 C   0  0  1  0  0  0  0  0  0  0  0  0
    1.5736   -2.0269    0.0000 C   0  0  0  0  0  0  0  0  0  0  0  0
    2.3986   -0.5980    0.0000 C   0  0  0  0  0  0  0  0  0  0  0  0
    5.2861    0.1165    0.0000 N   0  0  0  0  0  0  0  0  0  0  0  0
    1.0886   -1.3595    0.0000 N   0  0  0  0  0  0  0  0  0  0  0  0
    0.3040   -2.4394    0.0000 N   0  0  0  0  0  0  0  0  0  0  0  0
    1.5736   -0.5980    0.0000 O   0  0  0  0  0  0  0  0  0  0  0  0
    2.8111    0.1165    0.0000 O   0  0  0  0  0  0  0  0  0  0  0  0
    3.2236   -2.0269    0.0000 H   0  0  0  0  0  0  0  0  0  0  0  0
   -2.7620   -2.6385    0.0000 H   0  0  0  0  0  0  0  0  0  0  0  0
   -1.6726   -4.1378    0.0000 H   0  0  0  0  0  0  0  0  0  0  0  0
   -2.6501   -3.7026    0.0000 H   0  0  0  0  0  0  0  0  0  0  0  0
   -1.2289   -1.5247    0.0000 H   0  0  0  0  0  0  0  0  0  0  0  0
   -0.2514   -1.9599    0.0000 H   0  0  0  0  0  0  0  0  0  0  0  0
    3.5136    0.3286    0.0000 H   0  0  0  0  0  0  0  0  0  0  0  0
    4.5836    0.3286    0.0000 H   0  0  0  0  0  0  0  0  0  0  0  0
    4.1711   -2.2391    0.0000 H   0  0  0  0  0  0  0  0  0  0  0  0
    3.1011   -2.2391    0.0000 H   0  0  0  0  0  0  0  0  0  0  0  0
    5.4086   -1.5246    0.0000 H   0  0  0  0  0  0  0  0  0  0  0  0
    5.9436   -0.5980    0.0000 H   0  0  0  0  0  0  0  0  0  0  0  0
   -0.2515   -3.9885    0.0000 H   0  0  0  0  0  0  0  0  0  0  0  0
    0.6141   -3.3595    0.0000 H   0  0  0  0  0  0  0  0  0  0  0  0
    2.9336   -2.9536    0.0000 H   0  0  0  0  0  0  0  0  0  0  0  0
    1.8636   -2.9535    0.0000 H   0  0  0  0  0  0  0  0  0  0  0  0
    1.4075   -3.6759    0.0000 H   0  0  0  0  0  0  0  0  0  0  0  0
   -0.5309   -1.0078    0.0000 H   0  0  0  0  0  0  0  0  0  0  0  0
    6.3061    0.1165    0.0000 H   0  0  0  0  0  0  0  0  0  0  0  0
    4.7761    0.9998    0.0000 H   0  0  0  0  0  0  0  0  0  0  0  0
    3.7481    0.1165    0.0000 H   0  0  0  0  0  0  0  0  0  0  0  0
  1 19  1  0  0  0  0
  1 20  1  0  0  0  0
  1 21  1  0  0  0  0
  2  1  1  0  0  0  0
  2 22  1  0  0  0  0
  2 23  1  0  0  0  0
  3 24  1  0  0  0  0
  3 25  1  0  0  0  0
  4  3  1  0  0  0  0
  4 26  1  0  0  0  0
  4 27  1  0  0  0  0
  5  3  1  0  0  0  0
  5 28  1  0  0  0  0
  5 29  1  0  0  0  0
  6  2  1  0  0  0  0
  6 30  1  0  0  0  0
  6 31  1  0  0  0  0
  7 32  1  0  0  0  0
  7 33  1  0  0  0  0
  8 34  1  0  0  0  0
  9 35  1  0  0  0  0
 10  4  1  0  0  0  0
 10  7  1  0  0  0  0
 10 12  1  0  0  0  0
 10 18  1  6  0  0  0
 11  7  1  0  0  0  0
 11  8  2  0  0  0  0
 13  5  1  0  0  0  0
 13 36  1  0  0  0  0
 13 37  1  0  0  0  0
 14  9  2  0  0  0  0
 14 11  1  0  0  0  0
 15  6  1  0  0  0  0
 15  8  1  0  0  0  0
 15  9  1  0  0  0  0
 16 12  2  0  0  0  0
 17 12  1  0  0  0  0
 17 38  1  0  0  0  0
M  END
>  <DRUGBANK_ID>
DB12099

>  <COMMON_NAME>
UK-396,082

>  <CAS_NUMBER>
400044-47-5

>  <UNII>
2Q5861SUIG

$$$$
