
 OpenBabel10282417072D

 58 63  0  0  0  0  0  0  0  0999 V2000
    4.9279    1.1104    0.0000 N   0  0  0  0  0  0  0  0  0  0  0  0
    4.2135    0.6979    0.0000 C   0  0  0  0  0  0  0  0  0  0  0  0
    4.2135   -0.1271    0.0000 C   0  0  0  0  0  0  0  0  0  0  0  0
    3.4990   -0.5396    0.0000 N   0  0  0  0  0  0  0  0  0  0  0  0
    2.7845   -0.1271    0.0000 C   0  0  0  0  0  0  0  0  0  0  0  0
    2.7845    0.6979    0.0000 C   0  0  0  0  0  0  0  0  0  0  0  0
    3.4990    1.1104    0.0000 N   0  0  0  0  0  0  0  0  0  0  0  0
    2.0701    1.1104    0.0000 C   0  0  0  0  0  0  0  0  0  0  0  0
    1.3556    0.6979    0.0000 C   0  0  0  0  0  0  0  0  0  0  0  0
    0.6411    1.1104    0.0000 N   0  0  0  0  0  0  0  0  0  0  0  0
   -0.1435    0.8555    0.0000 C   0  0  0  0  0  0  0  0  0  0  0  0
   -0.6284    1.5229    0.0000 C   0  0  0  0  0  0  0  0  0  0  0  0
   -0.1435    2.1904    0.0000 N   0  0  0  0  0  0  0  0  0  0  0  0
    0.6411    1.9354    0.0000 C   0  0  0  0  0  0  0  0  0  0  0  0
    1.3556    2.3479    0.0000 C   0  0  0  0  0  0  0  0  0  0  0  0
    1.3556    3.1729    0.0000 N   0  0  0  0  0  0  0  0  0  0  0  0
    2.0701    3.5854    0.0000 C   0  0  0  0  0  0  0  0  0  0  0  0
    2.0701    4.4104    0.0000 C   0  0  0  0  0  0  0  0  0  0  0  0
    2.7845    4.8229    0.0000 C   0  0  0  0  0  0  0  0  0  0  0  0
    3.4990    4.4104    0.0000 C   0  0  0  0  0  0  0  0  0  0  0  0
    3.4990    3.5854    0.0000 C   0  0  0  0  0  0  0  0  0  0  0  0
    2.7845    3.1729    0.0000 C   0  0  0  0  0  0  0  0  0  0  0  0
    4.2135    4.8229    0.0000 N   0  0  0  0  0  0  0  0  0  0  0  0
    4.2135    5.6479    0.0000 C   0  0  0  0  0  0  0  0  0  0  0  0
    4.9279    6.0604    0.0000 C   0  0  0  0  0  0  0  0  0  0  0  0
    5.6424    5.6479    0.0000 N   0  0  0  0  0  0  0  0  0  0  0  0
    5.6424    4.8229    0.0000 C   0  0  0  0  0  0  0  0  0  0  0  0
    4.9279    4.4104    0.0000 C   0  0  0  0  0  0  0  0  0  0  0  0
    6.3569    6.0604    0.0000 C   0  0  0  0  0  0  0  0  0  0  0  0
    6.5704    6.8573    0.0000 C   0  0  0  0  0  0  0  0  0  0  0  0
    7.3673    6.6438    0.0000 O   0  0  0  0  0  0  0  0  0  0  0  0
    7.1538    5.8469    0.0000 C   0  0  0  0  0  0  0  0  0  0  0  0
    2.0701    1.9354    0.0000 N   0  0  0  0  0  0  0  0  0  0  0  0
    5.7805    0.6182    0.0000 H   0  0  0  0  0  0  0  0  0  0  0  0
    4.9279    2.0949    0.0000 H   0  0  0  0  0  0  0  0  0  0  0  0
    5.1072   -0.6431    0.0000 H   0  0  0  0  0  0  0  0  0  0  0  0
    1.8908   -0.6431    0.0000 H   0  0  0  0  0  0  0  0  0  0  0  0
    1.3556   -0.3341    0.0000 H   0  0  0  0  0  0  0  0  0  0  0  0
   -0.4624   -0.1260    0.0000 H   0  0  0  0  0  0  0  0  0  0  0  0
   -1.6604    1.5229    0.0000 H   0  0  0  0  0  0  0  0  0  0  0  0
    0.5030    3.6652    0.0000 H   0  0  0  0  0  0  0  0  0  0  0  0
    1.1764    4.9264    0.0000 H   0  0  0  0  0  0  0  0  0  0  0  0
    2.7845    5.8549    0.0000 H   0  0  0  0  0  0  0  0  0  0  0  0
    4.3927    3.0694    0.0000 H   0  0  0  0  0  0  0  0  0  0  0  0
    2.7845    2.1409    0.0000 H   0  0  0  0  0  0  0  0  0  0  0  0
    3.2868    6.1829    0.0000 H   0  0  0  0  0  0  0  0  0  0  0  0
    4.2135    6.7179    0.0000 H   0  0  0  0  0  0  0  0  0  0  0  0
    4.9279    7.1304    0.0000 H   0  0  0  0  0  0  0  0  0  0  0  0
    5.8545    6.5954    0.0000 H   0  0  0  0  0  0  0  0  0  0  0  0
    6.5690    4.2879    0.0000 H   0  0  0  0  0  0  0  0  0  0  0  0
    5.6424    3.7529    0.0000 H   0  0  0  0  0  0  0  0  0  0  0  0
    4.9279    3.3404    0.0000 H   0  0  0  0  0  0  0  0  0  0  0  0
    4.0012    3.8754    0.0000 H   0  0  0  0  0  0  0  0  0  0  0  0
    7.2835    6.5954    0.0000 H   0  0  0  0  0  0  0  0  0  0  0  0
    6.0354    7.7839    0.0000 H   0  0  0  0  0  0  0  0  0  0  0  0
    7.2217    7.7062    0.0000 H   0  0  0  0  0  0  0  0  0  0  0  0
    7.6888    4.9203    0.0000 H   0  0  0  0  0  0  0  0  0  0  0  0
    6.5025    4.9980    0.0000 H   0  0  0  0  0  0  0  0  0  0  0  0
  1  2  1  0  0  0  0
  1 34  1  0  0  0  0
  1 35  1  0  0  0  0
  2  3  2  0  0  0  0
  2  7  1  0  0  0  0
  3  4  1  0  0  0  0
  3 36  1  0  0  0  0
  4  5  2  0  0  0  0
  5  6  1  0  0  0  0
  5 37  1  0  0  0  0
  6  7  2  0  0  0  0
  6  8  1  0  0  0  0
  8  9  2  0  0  0  0
  8 33  1  0  0  0  0
  9 10  1  0  0  0  0
  9 38  1  0  0  0  0
 10 11  1  0  0  0  0
 10 14  1  0  0  0  0
 11 12  2  0  0  0  0
 11 39  1  0  0  0  0
 12 13  1  0  0  0  0
 12 40  1  0  0  0  0
 13 14  2  0  0  0  0
 14 15  1  0  0  0  0
 15 16  1  0  0  0  0
 15 33  2  0  0  0  0
 16 17  1  0  0  0  0
 16 41  1  0  0  0  0
 17 18  2  0  0  0  0
 17 22  1  0  0  0  0
 18 19  1  0  0  0  0
 18 42  1  0  0  0  0
 19 20  2  0  0  0  0
 19 43  1  0  0  0  0
 20 21  1  0  0  0  0
 20 23  1  0  0  0  0
 21 22  2  0  0  0  0
 21 44  1  0  0  0  0
 22 45  1  0  0  0  0
 23 24  1  0  0  0  0
 23 28  1  0  0  0  0
 24 25  1  0  0  0  0
 24 46  1  0  0  0  0
 24 47  1  0  0  0  0
 25 26  1  0  0  0  0
 25 48  1  0  0  0  0
 25 49  1  0  0  0  0
 26 27  1  0  0  0  0
 26 29  1  0  0  0  0
 27 28  1  0  0  0  0
 27 50  1  0  0  0  0
 27 51  1  0  0  0  0
 28 52  1  0  0  0  0
 28 53  1  0  0  0  0
 29 30  1  0  0  0  0
 29 32  1  0  0  0  0
 29 54  1  0  0  0  0
 30 31  1  0  0  0  0
 30 55  1  0  0  0  0
 30 56  1  0  0  0  0
 31 32  1  0  0  0  0
 32 57  1  0  0  0  0
 32 58  1  0  0  0  0
M  END
>  <DRUGBANK_ID>
DB14770

>  <COMMON_NAME>
Lanraplenib

>  <CAS_NUMBER>
1800046-95-0

>  <UNII>
A6U64OU57E

>  <SYNONYMS>
Lanraplenib

$$$$
