
 OpenBabel10282417072D

 55 54  0  0  1  0  0  0  0  0999 V2000
    3.5508    0.4062    0.0000 O   0  0  0  0  0  0  0  0  0  0  0  0
    2.8434    0.8306    0.0000 C   0  0  0  0  0  0  0  0  0  0  0  0
    2.1359    0.4062    0.0000 C   0  0  0  0  0  0  0  0  0  0  0  0
    1.4286    0.8306    0.0000 C   0  0  0  0  0  0  0  0  0  0  0  0
    0.7211    0.4062    0.0000 C   0  0  0  0  0  0  0  0  0  0  0  0
    0.0140    0.8306    0.0000 C   0  0  0  0  0  0  0  0  0  0  0  0
   -0.6932    0.4062    0.0000 C   0  0  0  0  0  0  0  0  0  0  0  0
   -1.4008    0.8306    0.0000 C   0  0  0  0  0  0  0  0  0  0  0  0
    2.8434    1.6322    0.0000 O   0  0  0  0  0  0  0  0  0  0  0  0
   -2.1222    0.4304    0.0000 C   0  0  0  0  0  0  0  0  0  0  0  0
   -2.1361   -0.3945    0.0000 C   0  0  0  0  0  0  0  0  0  0  0  0
    1.4150   -0.8451    0.0000 C   0  0  0  0  0  0  0  0  0  0  0  0
    0.7077   -0.4204    0.0000 C   0  0  0  0  0  0  0  0  0  0  0  0
    0.0000   -0.8448    0.0000 C   0  0  0  0  0  0  0  0  0  0  0  0
   -0.7072   -0.4204    0.0000 C   0  0  0  0  0  0  0  0  0  0  0  0
   -1.4364   -0.8316    0.0000 C   0  0  0  0  0  0  0  0  0  0  0  0
   -3.5508    0.4304    0.0000 C   0  0  0  0  0  0  0  0  0  0  0  0
   -3.5508   -0.3945    0.0000 C   0  0  0  0  0  0  0  0  0  0  0  0
   -2.8365    0.8427    0.0000 C   0  0  0  0  0  0  0  0  0  0  0  0
   -2.8365   -0.8072    0.0000 C   0  0  2  0  0  0  0  0  0  0  0  0
   -2.8328   -1.6322    0.0000 O   0  0  0  0  0  0  0  0  0  0  0  0
    3.5351   -0.5307    0.0000 H   0  0  0  0  0  0  0  0  0  0  0  0
    2.1358   -0.6638    0.0000 H   0  0  0  0  0  0  0  0  0  0  0  0
    1.2048   -0.1209    0.0000 H   0  0  0  0  0  0  0  0  0  0  0  0
    1.4287    1.9006    0.0000 H   0  0  0  0  0  0  0  0  0  0  0  0
    0.4975    1.3579    0.0000 H   0  0  0  0  0  0  0  0  0  0  0  0
    0.7210   -0.6638    0.0000 H   0  0  0  0  0  0  0  0  0  0  0  0
   -0.2101   -0.1209    0.0000 H   0  0  0  0  0  0  0  0  0  0  0  0
    0.0140    1.9006    0.0000 H   0  0  0  0  0  0  0  0  0  0  0  0
   -0.9171    1.3578    0.0000 H   0  0  0  0  0  0  0  0  0  0  0  0
   -0.6931   -0.6638    0.0000 H   0  0  0  0  0  0  0  0  0  0  0  0
   -1.6242   -0.1211    0.0000 H   0  0  0  0  0  0  0  0  0  0  0  0
   -1.3827    1.9004    0.0000 H   0  0  0  0  0  0  0  0  0  0  0  0
   -2.3182    1.3813    0.0000 H   0  0  0  0  0  0  0  0  0  0  0  0
   -2.1313   -0.6396    0.0000 H   0  0  0  0  0  0  0  0  0  0  0  0
   -3.0511   -0.1007    0.0000 H   0  0  0  0  0  0  0  0  0  0  0  0
   -2.1222    0.6754    0.0000 H   0  0  0  0  0  0  0  0  0  0  0  0
   -3.0617    0.1424    0.0000 H   0  0  0  0  0  0  0  0  0  0  0  0
    1.3966   -1.9149    0.0000 H   0  0  0  0  0  0  0  0  0  0  0  0
    2.3507   -0.3261    0.0000 H   0  0  0  0  0  0  0  0  0  0  0  0
    2.3323   -1.3959    0.0000 H   0  0  0  0  0  0  0  0  0  0  0  0
    0.7080    0.6496    0.0000 H   0  0  0  0  0  0  0  0  0  0  0  0
   -0.2233    0.1070    0.0000 H   0  0  0  0  0  0  0  0  0  0  0  0
   -0.0002   -1.9148    0.0000 H   0  0  0  0  0  0  0  0  0  0  0  0
   -0.9312   -1.3719    0.0000 H   0  0  0  0  0  0  0  0  0  0  0  0
   -0.6927    0.6495    0.0000 H   0  0  0  0  0  0  0  0  0  0  0  0
   -1.6275    0.1255    0.0000 H   0  0  0  0  0  0  0  0  0  0  0  0
   -1.4604   -1.9013    0.0000 H   0  0  0  0  0  0  0  0  0  0  0  0
   -2.3780   -1.3399    0.0000 H   0  0  0  0  0  0  0  0  0  0  0  0
   -4.4445    0.9464    0.0000 H   0  0  0  0  0  0  0  0  0  0  0  0
   -4.4775   -0.9294    0.0000 H   0  0  0  0  0  0  0  0  0  0  0  0
   -3.5511   -1.4645    0.0000 H   0  0  0  0  0  0  0  0  0  0  0  0
   -2.8365    1.8747    0.0000 H   0  0  0  0  0  0  0  0  0  0  0  0
   -3.7620   -1.3441    0.0000 H   0  0  0  0  0  0  0  0  0  0  0  0
   -3.6707   -2.1210    0.0000 H   0  0  0  0  0  0  0  0  0  0  0  0
  1  2  1  0  0  0  0
  1 22  1  0  0  0  0
  3  2  1  0  0  0  0
  3 23  1  0  0  0  0
  3 24  1  0  0  0  0
  4  3  1  0  0  0  0
  4  5  1  0  0  0  0
  4 25  1  0  0  0  0
  4 26  1  0  0  0  0
  5 27  1  0  0  0  0
  5 28  1  0  0  0  0
  6  5  1  0  0  0  0
  6  7  1  0  0  0  0
  6 29  1  0  0  0  0
  6 30  1  0  0  0  0
  7 31  1  0  0  0  0
  7 32  1  0  0  0  0
  8  7  1  0  0  0  0
  8 10  1  0  0  0  0
  8 33  1  0  0  0  0
  8 34  1  0  0  0  0
  9  2  2  0  0  0  0
 10 19  1  0  0  0  0
 10 35  1  0  0  0  0
 10 36  1  0  0  0  0
 11 20  1  0  0  0  0
 11 37  1  0  0  0  0
 11 38  1  0  0  0  0
 12 13  1  0  0  0  0
 12 39  1  0  0  0  0
 12 40  1  0  0  0  0
 12 41  1  0  0  0  0
 13 14  1  0  0  0  0
 13 42  1  0  0  0  0
 13 43  1  0  0  0  0
 14 15  1  0  0  0  0
 14 44  1  0  0  0  0
 14 45  1  0  0  0  0
 15 16  1  0  0  0  0
 15 46  1  0  0  0  0
 15 47  1  0  0  0  0
 16 11  1  0  0  0  0
 16 48  1  0  0  0  0
 16 49  1  0  0  0  0
 17 50  1  0  0  0  0
 18 17  1  0  0  0  0
 18 51  1  0  0  0  0
 18 52  1  0  0  0  0
 19 17  2  0  0  0  0
 19 53  1  0  0  0  0
 20 18  1  0  0  0  0
 20 21  1  0  0  0  0
 20 54  1  6  0  0  0
 21 55  1  0  0  0  0
M  END
>  <DRUGBANK_ID>
DB02955

>  <SECONDARY_ACCESSION_NUMBERS>
EXPT02762

>  <COMMON_NAME>
Ricinoleic acid

>  <CAS_NUMBER>
141-22-0

>  <UNII>
I2D0F69854

>  <SYNONYMS>
(cis,R)-12-hydroxyoctadec-9-enoic acid; (Z,R)-12-hydroxyoctadec-9-enoic acid; 12-Hydroxy-9-octadecenoic acid; 12-Hydroxy-cis-9-octadecenoic acid; 12-hydroxyoleic acid; Ricinoleic acid; Ricinolic acid; Ricinols√§ure

$$$$
