ZYT
 OpenBabel10282417072D

 24 25  0  0  0  0  0  0  0  0999 V2000
   -0.8044    2.9257    0.0000 C   0  0  0  0  0  0  0  0  0  0  0  0
   -0.0900    2.5132    0.0000 S   0  0  0  0  0  0  0  0  0  0  0  0
   -0.0900    1.6882    0.0000 C   0  0  0  0  0  0  0  0  0  0  0  0
    0.5775    1.2033    0.0000 N   0  0  0  0  0  0  0  0  0  0  0  0
   -0.7574    1.2033    0.0000 N   0  0  0  0  0  0  0  0  0  0  0  0
   -0.5025    0.4186    0.0000 C   0  0  0  0  0  0  0  0  0  0  0  0
   -0.9874   -0.2488    0.0000 O   0  0  0  0  0  0  0  0  0  0  0  0
    0.3225    0.4186    0.0000 C   0  0  0  0  0  0  0  0  0  0  0  0
    0.8074   -0.2488    0.0000 C   0  0  0  0  0  0  0  0  0  0  0  0
    0.4719   -1.0025    0.0000 C   0  0  0  0  0  0  0  0  0  0  0  0
    0.8844   -1.7169    0.0000 C   0  0  0  0  0  0  0  0  0  0  0  0
    0.3324   -2.3300    0.0000 C   0  0  0  0  0  0  0  0  0  0  0  0
   -0.4213   -1.9945    0.0000 C   0  0  0  0  0  0  0  0  0  0  0  0
   -0.3351   -1.1740    0.0000 S   0  0  0  0  0  0  0  0  0  0  0  0
   -0.8044    3.9957    0.0000 H   0  0  0  0  0  0  0  0  0  0  0  0
   -1.7311    2.3907    0.0000 H   0  0  0  0  0  0  0  0  0  0  0  0
   -1.7310    3.4607    0.0000 H   0  0  0  0  0  0  0  0  0  0  0  0
    1.5138    1.5075    0.0000 H   0  0  0  0  0  0  0  0  0  0  0  0
   -1.9193   -0.1509    0.0000 H   0  0  0  0  0  0  0  0  0  0  0  0
    1.8715   -0.1369    0.0000 H   0  0  0  0  0  0  0  0  0  0  0  0
    1.4364   -1.1144    0.0000 H   0  0  0  0  0  0  0  0  0  0  0  0
    1.9108   -1.8247    0.0000 H   0  0  0  0  0  0  0  0  0  0  0  0
    0.5470   -3.3394    0.0000 H   0  0  0  0  0  0  0  0  0  0  0  0
   -1.3150   -2.5106    0.0000 H   0  0  0  0  0  0  0  0  0  0  0  0
  1  2  1  0  0  0  0
  1 15  1  0  0  0  0
  1 16  1  0  0  0  0
  1 17  1  0  0  0  0
  2  3  1  0  0  0  0
  3  4  1  0  0  0  0
  3  5  2  0  0  0  0
  4  8  1  0  0  0  0
  4 18  1  0  0  0  0
  5  6  1  0  0  0  0
  6  7  1  0  0  0  0
  6  8  2  0  0  0  0
  7 19  1  0  0  0  0
  8  9  1  0  0  0  0
  9 10  1  0  0  0  0
  9 20  1  0  0  0  0
  9 21  1  0  0  0  0
 10 11  2  0  0  0  0
 10 14  1  0  0  0  0
 11 12  1  0  0  0  0
 11 22  1  0  0  0  0
 12 13  2  0  0  0  0
 12 23  1  0  0  0  0
 13 14  1  0  0  0  0
 13 24  1  0  0  0  0
M  END
>  <DRUGBANK_ID>
DB08779

>  <COMMON_NAME>
2-(methylsulfanyl)-5-(thiophen-2-ylmethyl)-1H-imidazol-4-ol

$$$$
