
 OpenBabel10282417072D

 58 60  0  0  0  0  0  0  0  0999 V2000
    7.3658    0.0000    0.0000 F   0  0  0  0  0  0  0  0  0  0  0  0
    4.5079    4.9500    0.0000 F   0  0  0  0  0  0  0  0  0  0  0  0
    3.7933   -3.7125    0.0000 O   0  0  0  0  0  0  0  0  0  0  0  0
    3.0790   -0.8250    0.0000 N   0  0  0  0  0  0  0  0  0  0  0  0
    3.0790   -2.4750    0.0000 N   0  0  0  0  0  0  0  0  0  0  0  0
    2.3644   -3.7125    0.0000 N   0  0  0  0  0  0  0  0  0  0  0  0
    3.0790    0.0000    0.0000 C   0  0  0  0  0  0  0  0  0  0  0  0
    2.3644   -1.2375    0.0000 C   0  0  0  0  0  0  0  0  0  0  0  0
    3.7933   -1.2375    0.0000 C   0  0  0  0  0  0  0  0  0  0  0  0
    3.7933    0.4125    0.0000 C   0  0  0  0  0  0  0  0  0  0  0  0
    2.3644   -2.0625    0.0000 C   0  0  0  0  0  0  0  0  0  0  0  0
    3.7933   -2.0625    0.0000 C   0  0  0  0  0  0  0  0  0  0  0  0
    3.7933    1.2375    0.0000 C   0  0  0  0  0  0  0  0  0  0  0  0
    4.5079    1.6500    0.0000 C   0  0  0  0  0  0  0  0  0  0  0  0
    5.2223    1.2375    0.0000 C   0  0  0  0  0  0  0  0  0  0  0  0
    4.5079    2.4750    0.0000 C   0  0  0  0  0  0  0  0  0  0  0  0
    3.0790   -3.3000    0.0000 C   0  0  0  0  0  0  0  0  0  0  0  0
    5.2223    0.4125    0.0000 C   0  0  0  0  0  0  0  0  0  0  0  0
    3.7933    2.8875    0.0000 C   0  0  0  0  0  0  0  0  0  0  0  0
    5.9369    1.6500    0.0000 C   0  0  0  0  0  0  0  0  0  0  0  0
    5.2223    2.8875    0.0000 C   0  0  0  0  0  0  0  0  0  0  0  0
    2.3644   -4.5375    0.0000 C   0  0  0  0  0  0  0  0  0  0  0  0
    5.9369    0.0000    0.0000 C   0  0  0  0  0  0  0  0  0  0  0  0
    3.7933    3.7125    0.0000 C   0  0  0  0  0  0  0  0  0  0  0  0
    6.6513    1.2375    0.0000 C   0  0  0  0  0  0  0  0  0  0  0  0
    5.2223    3.7125    0.0000 C   0  0  0  0  0  0  0  0  0  0  0  0
    6.6513    0.4125    0.0000 C   0  0  0  0  0  0  0  0  0  0  0  0
    4.5079    4.1250    0.0000 C   0  0  0  0  0  0  0  0  0  0  0  0
    1.6500   -4.9500    0.0000 C   0  0  0  0  0  0  0  0  0  0  0  0
    1.9215   -3.4568    0.0000 H   0  0  0  0  0  0  0  0  0  0  0  0
    2.1523    0.5350    0.0000 H   0  0  0  0  0  0  0  0  0  0  0  0
    3.0789    1.0700    0.0000 H   0  0  0  0  0  0  0  0  0  0  0  0
    1.4378   -0.7025    0.0000 H   0  0  0  0  0  0  0  0  0  0  0  0
    1.4377   -1.7725    0.0000 H   0  0  0  0  0  0  0  0  0  0  0  0
    4.7200   -0.7025    0.0000 H   0  0  0  0  0  0  0  0  0  0  0  0
    4.7199   -1.7725    0.0000 H   0  0  0  0  0  0  0  0  0  0  0  0
    4.7200   -0.1225    0.0000 H   0  0  0  0  0  0  0  0  0  0  0  0
    4.7199    0.9475    0.0000 H   0  0  0  0  0  0  0  0  0  0  0  0
    1.4378   -2.5975    0.0000 H   0  0  0  0  0  0  0  0  0  0  0  0
    1.4377   -1.5275    0.0000 H   0  0  0  0  0  0  0  0  0  0  0  0
    4.7200   -2.5975    0.0000 H   0  0  0  0  0  0  0  0  0  0  0  0
    4.7199   -1.5275    0.0000 H   0  0  0  0  0  0  0  0  0  0  0  0
    2.8667    1.7725    0.0000 H   0  0  0  0  0  0  0  0  0  0  0  0
    3.7934    2.3075    0.0000 H   0  0  0  0  0  0  0  0  0  0  0  0
    5.4346    2.1850    0.0000 H   0  0  0  0  0  0  0  0  0  0  0  0
    4.3286   -0.1035    0.0000 H   0  0  0  0  0  0  0  0  0  0  0  0
    2.8996    2.3715    0.0000 H   0  0  0  0  0  0  0  0  0  0  0  0
    5.9370    2.6820    0.0000 H   0  0  0  0  0  0  0  0  0  0  0  0
    6.1160    2.3715    0.0000 H   0  0  0  0  0  0  0  0  0  0  0  0
    3.2911   -5.0725    0.0000 H   0  0  0  0  0  0  0  0  0  0  0  0
    2.3644   -5.6075    0.0000 H   0  0  0  0  0  0  0  0  0  0  0  0
    5.9370   -1.0320    0.0000 H   0  0  0  0  0  0  0  0  0  0  0  0
    2.8996    4.2285    0.0000 H   0  0  0  0  0  0  0  0  0  0  0  0
    7.5450    1.7535    0.0000 H   0  0  0  0  0  0  0  0  0  0  0  0
    6.1160    4.2285    0.0000 H   0  0  0  0  0  0  0  0  0  0  0  0
    0.7233   -4.4150    0.0000 H   0  0  0  0  0  0  0  0  0  0  0  0
    1.6500   -6.0200    0.0000 H   0  0  0  0  0  0  0  0  0  0  0  0
    0.7234   -5.4850    0.0000 H   0  0  0  0  0  0  0  0  0  0  0  0
  1 27  1  0  0  0  0
  2 28  1  0  0  0  0
  3 17  2  0  0  0  0
  4  7  1  0  0  0  0
  4  8  1  0  0  0  0
  4  9  1  0  0  0  0
  5 11  1  0  0  0  0
  5 12  1  0  0  0  0
  5 17  1  0  0  0  0
  6 17  1  0  0  0  0
  6 22  1  0  0  0  0
  6 30  1  0  0  0  0
  7 10  1  0  0  0  0
  7 31  1  0  0  0  0
  7 32  1  0  0  0  0
  8 11  1  0  0  0  0
  8 33  1  0  0  0  0
  8 34  1  0  0  0  0
  9 12  1  0  0  0  0
  9 35  1  0  0  0  0
  9 36  1  0  0  0  0
 10 13  1  0  0  0  0
 10 37  1  0  0  0  0
 10 38  1  0  0  0  0
 11 39  1  0  0  0  0
 11 40  1  0  0  0  0
 12 41  1  0  0  0  0
 12 42  1  0  0  0  0
 13 14  1  0  0  0  0
 13 43  1  0  0  0  0
 13 44  1  0  0  0  0
 14 15  1  0  0  0  0
 14 16  1  0  0  0  0
 14 45  1  0  0  0  0
 15 18  2  0  0  0  0
 15 20  1  0  0  0  0
 16 19  2  0  0  0  0
 16 21  1  0  0  0  0
 18 23  1  0  0  0  0
 18 46  1  0  0  0  0
 19 24  1  0  0  0  0
 19 47  1  0  0  0  0
 20 25  2  0  0  0  0
 20 48  1  0  0  0  0
 21 26  2  0  0  0  0
 21 49  1  0  0  0  0
 22 29  1  0  0  0  0
 22 50  1  0  0  0  0
 22 51  1  0  0  0  0
 23 27  2  0  0  0  0
 23 52  1  0  0  0  0
 24 28  2  0  0  0  0
 24 53  1  0  0  0  0
 25 27  1  0  0  0  0
 25 54  1  0  0  0  0
 26 28  1  0  0  0  0
 26 55  1  0  0  0  0
 29 56  1  0  0  0  0
 29 57  1  0  0  0  0
 29 58  1  0  0  0  0
M  END
>  <DRUGBANK_ID>
DB08927

>  <COMMON_NAME>
Amperozide

>  <CAS_NUMBER>
75558-90-6

>  <UNII>
0M2W3TAG39

>  <SYNONYMS>
Amperozide

$$$$
