60714
 OpenBabel10282417072D

 58 57  0  0  1  0  0  0  0  0999 V2000
    1.6500    2.7688    0.0000 Gd  0  1  0  0  0  0  0  0  0  0  0  0
    7.6004    2.6789    0.0000 O   0  0  0  0  0  0  0  0  0  0  0  0
    2.4680    2.6610    0.0000 O   0  5  0  0  0  0  0  0  0  0  0  0
    6.7833   -3.1904    0.0000 O   0  5  0  0  0  0  0  0  0  0  0  0
    2.2815    1.2443    0.0000 O   0  0  0  0  0  0  0  0  0  0  0  0
    5.4631   -2.6436    0.0000 O   0  0  0  0  0  0  0  0  0  0  0  0
    2.6934   -2.7702    0.0000 O   0  5  0  0  0  0  0  0  0  0  0  0
    2.3236   -1.3899    0.0000 O   0  0  0  0  0  0  0  0  0  0  0  0
    6.1714    1.0289    0.0000 N   0  0  0  0  0  0  0  0  0  0  0  0
    6.0946   -1.1192    0.0000 N   0  0  0  0  0  0  0  0  0  0  0  0
    3.9174    1.0289    0.0000 N   0  0  0  0  0  0  0  0  0  0  0  0
    3.9174   -0.9629    0.0000 N   0  0  0  0  0  0  0  0  0  0  0  0
    5.4569    1.4414    0.0000 C   0  0  0  0  0  0  0  0  0  0  0  0
    6.1714    0.2039    0.0000 C   0  0  0  0  0  0  0  0  0  0  0  0
    6.5071   -0.4047    0.0000 C   0  0  0  0  0  0  0  0  0  0  0  0
    4.7425    1.0289    0.0000 C   0  0  0  0  0  0  0  0  0  0  0  0
    5.2977   -1.3327    0.0000 C   0  0  0  0  0  0  0  0  0  0  0  0
    3.3341    0.4455    0.0000 C   0  0  0  0  0  0  0  0  0  0  0  0
    4.7143   -0.7494    0.0000 C   0  0  0  0  0  0  0  0  0  0  0  0
    3.3341   -0.3795    0.0000 C   0  0  0  0  0  0  0  0  0  0  0  0
    6.8858    1.4414    0.0000 C   0  0  0  0  0  0  0  0  0  0  0  0
    6.8858    2.2664    0.0000 C   0  0  3  0  0  0  0  0  0  0  0  0
    6.5968   -1.7737    0.0000 C   0  0  0  0  0  0  0  0  0  0  0  0
    3.6017    1.7911    0.0000 C   0  0  0  0  0  0  0  0  0  0  0  0
    3.7038   -1.7598    0.0000 C   0  0  0  0  0  0  0  0  0  0  0  0
    6.1714    2.6789    0.0000 C   0  0  0  0  0  0  0  0  0  0  0  0
    2.7837    1.8988    0.0000 C   0  0  0  0  0  0  0  0  0  0  0  0
    6.2811   -2.5359    0.0000 C   0  0  0  0  0  0  0  0  0  0  0  0
    2.9070   -1.9733    0.0000 C   0  0  0  0  0  0  0  0  0  0  0  0
    8.4404    2.1938    0.0000 H   0  0  0  0  0  0  0  0  0  0  0  0
    5.4569    2.5114    0.0000 H   0  0  0  0  0  0  0  0  0  0  0  0
    4.5302    1.9764    0.0000 H   0  0  0  0  0  0  0  0  0  0  0  0
    5.1352   -0.0629    0.0000 H   0  0  0  0  0  0  0  0  0  0  0  0
    5.7475   -0.7785    0.0000 H   0  0  0  0  0  0  0  0  0  0  0  0
    7.5770   -0.4151    0.0000 H   0  0  0  0  0  0  0  0  0  0  0  0
    7.0556    0.5140    0.0000 H   0  0  0  0  0  0  0  0  0  0  0  0
    5.0195   -0.0046    0.0000 H   0  0  0  0  0  0  0  0  0  0  0  0
    5.7311    0.6195    0.0000 H   0  0  0  0  0  0  0  0  0  0  0  0
    5.0208   -2.3662    0.0000 H   0  0  0  0  0  0  0  0  0  0  0  0
    4.2642   -1.6097    0.0000 H   0  0  0  0  0  0  0  0  0  0  0  0
    2.3455    0.8549    0.0000 H   0  0  0  0  0  0  0  0  0  0  0  0
    2.4444   -0.1490    0.0000 H   0  0  0  0  0  0  0  0  0  0  0  0
    4.9912    0.2841    0.0000 H   0  0  0  0  0  0  0  0  0  0  0  0
    5.7478   -0.4724    0.0000 H   0  0  0  0  0  0  0  0  0  0  0  0
    2.3455   -0.7889    0.0000 H   0  0  0  0  0  0  0  0  0  0  0  0
    2.4444    0.2150    0.0000 H   0  0  0  0  0  0  0  0  0  0  0  0
    7.8125    0.9064    0.0000 H   0  0  0  0  0  0  0  0  0  0  0  0
    7.8124    1.9764    0.0000 H   0  0  0  0  0  0  0  0  0  0  0  0
    7.8124    1.7314    0.0000 H   0  0  0  0  0  0  0  0  0  0  0  0
    7.6576   -1.6340    0.0000 H   0  0  0  0  0  0  0  0  0  0  0  0
    7.2482   -2.6226    0.0000 H   0  0  0  0  0  0  0  0  0  0  0  0
    4.2531    2.6400    0.0000 H   0  0  0  0  0  0  0  0  0  0  0  0
    3.1922    2.7797    0.0000 H   0  0  0  0  0  0  0  0  0  0  0  0
    4.4604   -2.5164    0.0000 H   0  0  0  0  0  0  0  0  0  0  0  0
    3.4268   -2.7933    0.0000 H   0  0  0  0  0  0  0  0  0  0  0  0
    6.1714    3.7489    0.0000 H   0  0  0  0  0  0  0  0  0  0  0  0
    5.2447    2.1439    0.0000 H   0  0  0  0  0  0  0  0  0  0  0  0
    5.2448    3.2139    0.0000 H   0  0  0  0  0  0  0  0  0  0  0  0
  2 22  1  0  0  0  0
  2 30  1  0  0  0  0
  3 27  1  0  0  0  0
  4 28  1  0  0  0  0
  5 27  2  0  0  0  0
  6 28  2  0  0  0  0
  7 29  1  0  0  0  0
  8 29  2  0  0  0  0
  9 13  1  0  0  0  0
  9 14  1  0  0  0  0
  9 21  1  0  0  0  0
 10 15  1  0  0  0  0
 10 17  1  0  0  0  0
 10 23  1  0  0  0  0
 11 16  1  0  0  0  0
 11 18  1  0  0  0  0
 11 24  1  0  0  0  0
 12 19  1  0  0  0  0
 12 20  1  0  0  0  0
 12 25  1  0  0  0  0
 13 16  1  0  0  0  0
 13 31  1  0  0  0  0
 13 32  1  0  0  0  0
 14 15  1  0  0  0  0
 14 33  1  0  0  0  0
 14 34  1  0  0  0  0
 15 35  1  0  0  0  0
 15 36  1  0  0  0  0
 16 37  1  0  0  0  0
 16 38  1  0  0  0  0
 17 19  1  0  0  0  0
 17 39  1  0  0  0  0
 17 40  1  0  0  0  0
 18 20  1  0  0  0  0
 18 41  1  0  0  0  0
 18 42  1  0  0  0  0
 19 43  1  0  0  0  0
 19 44  1  0  0  0  0
 20 45  1  0  0  0  0
 20 46  1  0  0  0  0
 21 22  1  0  0  0  0
 21 47  1  0  0  0  0
 21 48  1  0  0  0  0
 22 26  1  0  0  0  0
 22 49  1  0  0  0  0
 23 28  1  0  0  0  0
 23 50  1  0  0  0  0
 23 51  1  0  0  0  0
 24 27  1  0  0  0  0
 24 52  1  0  0  0  0
 24 53  1  0  0  0  0
 25 29  1  0  0  0  0
 25 54  1  0  0  0  0
 25 55  1  0  0  0  0
 26 56  1  0  0  0  0
 26 57  1  0  0  0  0
 26 58  1  0  0  0  0
M  CHG  4   1   3   3  -1   4  -1   7  -1
M  END
>  <DRUGBANK_ID>
DB00597

>  <SECONDARY_ACCESSION_NUMBERS>
APRD00992

>  <COMMON_NAME>
Gadoteridol

>  <CAS_NUMBER>
120066-54-8

>  <UNII>
0199MV609F

>  <SYNONYMS>
gadolinium 2,2',2''-[10-(2-hydroxypropyl)-1,4,7,10-tetraazacyclododecane-1,4,7-triyl]triacetate; gadolinium-HP-DO3A; Gadoteridol; Gadoteridolum; GD-HP-DO 3A; Gd-HPDO3A

$$$$
