ZYR
 OpenBabel10282417072D

 24 26  0  0  0  0  0  0  0  0999 V2000
   -0.7409    1.2523    0.0000 O   0  0  0  0  0  0  0  0  0  0  0  0
   -0.9959    0.4677    0.0000 C   0  0  0  0  0  0  0  0  0  0  0  0
   -0.4438   -0.1454    0.0000 C   0  0  0  0  0  0  0  0  0  0  0  0
    0.3812   -0.1454    0.0000 C   0  0  0  0  0  0  0  0  0  0  0  0
    0.9332    0.4677    0.0000 C   0  0  0  0  0  0  0  0  0  0  0  0
    1.7402    0.2962    0.0000 C   0  0  0  0  0  0  0  0  0  0  0  0
    1.9951   -0.4884    0.0000 C   0  0  0  0  0  0  0  0  0  0  0  0
    1.4431   -1.1015    0.0000 C   0  0  0  0  0  0  0  0  0  0  0  0
    0.6361   -0.9300    0.0000 C   0  0  0  0  0  0  0  0  0  0  0  0
   -0.0313   -1.4149    0.0000 S   0  0  0  0  0  0  0  0  0  0  0  0
   -0.6988   -0.9300    0.0000 C   0  0  0  0  0  0  0  0  0  0  0  0
   -1.5058   -1.1015    0.0000 N   0  0  0  0  0  0  0  0  0  0  0  0
   -2.0578   -0.4884    0.0000 C   0  0  0  0  0  0  0  0  0  0  0  0
   -1.8028    0.2962    0.0000 N   0  0  0  0  0  0  0  0  0  0  0  0
    0.6025    1.4853    0.0000 H   0  0  0  0  0  0  0  0  0  0  0  0
    1.6491    1.2629    0.0000 H   0  0  0  0  0  0  0  0  0  0  0  0
    2.4562    1.0914    0.0000 H   0  0  0  0  0  0  0  0  0  0  0  0
    2.7868    0.0737    0.0000 H   0  0  0  0  0  0  0  0  0  0  0  0
    3.0417   -0.7109    0.0000 H   0  0  0  0  0  0  0  0  0  0  0  0
    2.3258   -1.5060    0.0000 H   0  0  0  0  0  0  0  0  0  0  0  0
    1.7738   -2.1191    0.0000 H   0  0  0  0  0  0  0  0  0  0  0  0
    0.7272   -1.8967    0.0000 H   0  0  0  0  0  0  0  0  0  0  0  0
   -3.0673   -0.7029    0.0000 H   0  0  0  0  0  0  0  0  0  0  0  0
   -2.4615    1.0279    0.0000 H   0  0  0  0  0  0  0  0  0  0  0  0
  1  2  2  0  0  0  0
  2  3  1  0  0  0  0
  2 14  1  0  0  0  0
  3  4  1  0  0  0  0
  3 11  2  0  0  0  0
  4  5  1  0  0  0  0
  4  9  2  0  0  0  0
  5  6  1  0  0  0  0
  5 15  1  0  0  0  0
  5 16  1  0  0  0  0
  6  7  1  0  0  0  0
  6 17  1  0  0  0  0
  6 18  1  0  0  0  0
  7  8  1  0  0  0  0
  7 19  1  0  0  0  0
  7 20  1  0  0  0  0
  8  9  1  0  0  0  0
  8 21  1  0  0  0  0
  8 22  1  0  0  0  0
  9 10  1  0  0  0  0
 10 11  1  0  0  0  0
 11 12  1  0  0  0  0
 12 13  2  0  0  0  0
 13 14  1  0  0  0  0
 13 23  1  0  0  0  0
 14 24  1  0  0  0  0
M  END
>  <DRUGBANK_ID>
DB08777

>  <COMMON_NAME>
5,6,7,8-TETRAHYDRO[1]BENZOTHIENO[2,3-D]PYRIMIDIN-4(3H)-ONE

>  <UNII>
2QH62B6VZS

$$$$
