636
 OpenBabel10282417072D

 31 31  0  0  0  0  0  0  0  0999 V2000
    2.3645   -3.0938    0.0000 Cl  0  0  0  0  0  0  0  0  0  0  0  0
    2.3645    0.2063    0.0000 O   0  0  0  0  0  0  0  0  0  0  0  0
    3.7935    1.8563    0.0000 O   0  0  0  0  0  0  0  0  0  0  0  0
    4.5080    0.6188    0.0000 O   0  0  0  0  0  0  0  0  0  0  0  0
    3.0791    0.6188    0.0000 C   0  0  0  0  0  0  0  0  0  0  0  0
    2.6665    1.3332    0.0000 C   0  0  0  0  0  0  0  0  0  0  0  0
    3.4916   -0.0957    0.0000 C   0  0  0  0  0  0  0  0  0  0  0  0
    3.7935    1.0313    0.0000 C   0  0  0  0  0  0  0  0  0  0  0  0
    2.3645   -0.6188    0.0000 C   0  0  0  0  0  0  0  0  0  0  0  0
    4.5080    2.2688    0.0000 C   0  0  0  0  0  0  0  0  0  0  0  0
    3.0791   -1.0313    0.0000 C   0  0  0  0  0  0  0  0  0  0  0  0
    1.6500   -1.0313    0.0000 C   0  0  0  0  0  0  0  0  0  0  0  0
    3.0791   -1.8563    0.0000 C   0  0  0  0  0  0  0  0  0  0  0  0
    1.6500   -1.8563    0.0000 C   0  0  0  0  0  0  0  0  0  0  0  0
    4.5080    3.0938    0.0000 C   0  0  0  0  0  0  0  0  0  0  0  0
    2.3645   -2.2688    0.0000 C   0  0  0  0  0  0  0  0  0  0  0  0
    3.2014    2.2599    0.0000 H   0  0  0  0  0  0  0  0  0  0  0  0
    1.5965    1.3330    0.0000 H   0  0  0  0  0  0  0  0  0  0  0  0
    2.1314    2.2598    0.0000 H   0  0  0  0  0  0  0  0  0  0  0  0
    2.9566   -1.0223    0.0000 H   0  0  0  0  0  0  0  0  0  0  0  0
    4.5616   -0.0957    0.0000 H   0  0  0  0  0  0  0  0  0  0  0  0
    4.0266   -1.0224    0.0000 H   0  0  0  0  0  0  0  0  0  0  0  0
    5.4346    1.7338    0.0000 H   0  0  0  0  0  0  0  0  0  0  0  0
    5.4346    2.8038    0.0000 H   0  0  0  0  0  0  0  0  0  0  0  0
    3.9728   -0.5153    0.0000 H   0  0  0  0  0  0  0  0  0  0  0  0
    0.7563   -0.5153    0.0000 H   0  0  0  0  0  0  0  0  0  0  0  0
    3.9728   -2.3723    0.0000 H   0  0  0  0  0  0  0  0  0  0  0  0
    0.7563   -2.3723    0.0000 H   0  0  0  0  0  0  0  0  0  0  0  0
    5.4346    3.6288    0.0000 H   0  0  0  0  0  0  0  0  0  0  0  0
    3.5814    3.6288    0.0000 H   0  0  0  0  0  0  0  0  0  0  0  0
    4.5080    4.1638    0.0000 H   0  0  0  0  0  0  0  0  0  0  0  0
  1 16  1  0  0  0  0
  2  5  1  0  0  0  0
  2  9  1  0  0  0  0
  3  8  1  0  0  0  0
  3 10  1  0  0  0  0
  4  8  2  0  0  0  0
  5  6  1  0  0  0  0
  5  7  1  0  0  0  0
  5  8  1  0  0  0  0
  6 17  1  0  0  0  0
  6 18  1  0  0  0  0
  6 19  1  0  0  0  0
  7 20  1  0  0  0  0
  7 21  1  0  0  0  0
  7 22  1  0  0  0  0
  9 11  2  0  0  0  0
  9 12  1  0  0  0  0
 10 15  1  0  0  0  0
 10 23  1  0  0  0  0
 10 24  1  0  0  0  0
 11 13  1  0  0  0  0
 11 25  1  0  0  0  0
 12 14  2  0  0  0  0
 12 26  1  0  0  0  0
 13 16  2  0  0  0  0
 13 27  1  0  0  0  0
 14 16  1  0  0  0  0
 14 28  1  0  0  0  0
 15 29  1  0  0  0  0
 15 30  1  0  0  0  0
 15 31  1  0  0  0  0
M  END
>  <DRUGBANK_ID>
DB00636

>  <SECONDARY_ACCESSION_NUMBERS>
APRD00879

>  <COMMON_NAME>
Clofibrate

>  <CAS_NUMBER>
637-07-0

>  <UNII>
HPN91K7FU3

>  <SYNONYMS>
2-(4-Chlorophenoxy)-2-methylpropanoic acid ethyl ester; 2-(p-Chlorophenoxy)-2-methylpropionic acid ethyl ester; alpha-(p-Chlorophenoxy)isobutyric acid, ethyl ester; alpha-p-Chlorophenoxyisobutyryl ethyl ester; Clofibrate; Clofibrato; Clofibratum; EPIB; Ethyl 2-(p-chlorophenoxy)isobutyrate; Ethyl chlorophenoxyisobutyrate; Ethyl clofibrate; Liprin

$$$$
