GP8
 OpenBabel10282417072D

 44 46  0  0  0  0  0  0  0  0999 V2000
    0.7689    4.6590    0.0000 N   0  0  0  0  0  0  0  0  0  0  0  0
    2.1978    4.6590    0.0000 N   0  0  0  0  0  0  0  0  0  0  0  0
    1.4834    4.2465    0.0000 C   0  0  0  0  0  0  0  0  0  0  0  0
    1.4834    3.4215    0.0000 C   0  0  0  0  0  0  0  0  0  0  0  0
    2.1978    3.0090    0.0000 C   0  0  0  0  0  0  0  0  0  0  0  0
    2.1978    2.1840    0.0000 C   0  0  0  0  0  0  0  0  0  0  0  0
    1.4834    1.7715    0.0000 C   0  0  0  0  0  0  0  0  0  0  0  0
    0.7689    2.1840    0.0000 C   0  0  0  0  0  0  0  0  0  0  0  0
    0.7689    3.0090    0.0000 C   0  0  0  0  0  0  0  0  0  0  0  0
    1.4834    0.9465    0.0000 N   0  0  0  0  0  0  0  0  0  0  0  0
    0.7689    0.5340    0.0000 C   0  0  0  0  0  0  0  0  0  0  0  0
    0.0544    0.9465    0.0000 O   0  0  0  0  0  0  0  0  0  0  0  0
    0.7689   -0.2910    0.0000 N   0  0  0  0  0  0  0  0  0  0  0  0
    0.0544   -0.7035    0.0000 C   0  0  0  0  0  0  0  0  0  0  0  0
    0.0544   -1.5285    0.0000 C   0  0  0  0  0  0  0  0  0  0  0  0
   -0.6600   -1.9410    0.0000 C   0  0  0  0  0  0  0  0  0  0  0  0
   -1.3745   -1.5285    0.0000 C   0  0  0  0  0  0  0  0  0  0  0  0
   -1.3745   -0.7035    0.0000 C   0  0  0  0  0  0  0  0  0  0  0  0
   -0.6600   -0.2910    0.0000 C   0  0  0  0  0  0  0  0  0  0  0  0
   -2.0890   -1.9410    0.0000 O   0  0  0  0  0  0  0  0  0  0  0  0
   -2.0890   -2.7660    0.0000 C   0  0  0  0  0  0  0  0  0  0  0  0
   -1.3745   -3.1785    0.0000 C   0  0  0  0  0  0  0  0  0  0  0  0
   -1.3745   -4.0035    0.0000 C   0  0  0  0  0  0  0  0  0  0  0  0
   -2.0890   -4.4160    0.0000 C   0  0  0  0  0  0  0  0  0  0  0  0
   -2.8035   -4.0035    0.0000 C   0  0  0  0  0  0  0  0  0  0  0  0
   -2.8035   -3.1785    0.0000 C   0  0  0  0  0  0  0  0  0  0  0  0
    0.7689    5.6435    0.0000 H   0  0  0  0  0  0  0  0  0  0  0  0
   -0.0837    4.1667    0.0000 H   0  0  0  0  0  0  0  0  0  0  0  0
    3.0504    4.1668    0.0000 H   0  0  0  0  0  0  0  0  0  0  0  0
    3.0915    3.5250    0.0000 H   0  0  0  0  0  0  0  0  0  0  0  0
    3.0915    1.6680    0.0000 H   0  0  0  0  0  0  0  0  0  0  0  0
   -0.1248    1.6680    0.0000 H   0  0  0  0  0  0  0  0  0  0  0  0
   -0.1248    3.5250    0.0000 H   0  0  0  0  0  0  0  0  0  0  0  0
    2.3360    0.4542    0.0000 H   0  0  0  0  0  0  0  0  0  0  0  0
    1.6215   -0.7833    0.0000 H   0  0  0  0  0  0  0  0  0  0  0  0
    0.9481   -2.0445    0.0000 H   0  0  0  0  0  0  0  0  0  0  0  0
   -0.6600   -2.9730    0.0000 H   0  0  0  0  0  0  0  0  0  0  0  0
   -2.2682   -0.1875    0.0000 H   0  0  0  0  0  0  0  0  0  0  0  0
   -0.6600    0.7410    0.0000 H   0  0  0  0  0  0  0  0  0  0  0  0
   -0.4808   -2.6625    0.0000 H   0  0  0  0  0  0  0  0  0  0  0  0
   -0.4808   -4.5195    0.0000 H   0  0  0  0  0  0  0  0  0  0  0  0
   -2.0890   -5.4480    0.0000 H   0  0  0  0  0  0  0  0  0  0  0  0
   -3.6972   -4.5195    0.0000 H   0  0  0  0  0  0  0  0  0  0  0  0
   -3.6972   -2.6625    0.0000 H   0  0  0  0  0  0  0  0  0  0  0  0
  1  3  1  0  0  0  0
  1 27  1  0  0  0  0
  1 28  1  0  0  0  0
  2  3  2  0  0  0  0
  2 29  1  0  0  0  0
  3  4  1  0  0  0  0
  4  5  2  0  0  0  0
  4  9  1  0  0  0  0
  5  6  1  0  0  0  0
  5 30  1  0  0  0  0
  6  7  2  0  0  0  0
  6 31  1  0  0  0  0
  7  8  1  0  0  0  0
  7 10  1  0  0  0  0
  8  9  2  0  0  0  0
  8 32  1  0  0  0  0
  9 33  1  0  0  0  0
 10 11  1  0  0  0  0
 10 34  1  0  0  0  0
 11 12  2  0  0  0  0
 11 13  1  0  0  0  0
 13 14  1  0  0  0  0
 13 35  1  0  0  0  0
 14 15  2  0  0  0  0
 14 19  1  0  0  0  0
 15 16  1  0  0  0  0
 15 36  1  0  0  0  0
 16 17  2  0  0  0  0
 16 37  1  0  0  0  0
 17 18  1  0  0  0  0
 17 20  1  0  0  0  0
 18 19  2  0  0  0  0
 18 38  1  0  0  0  0
 19 39  1  0  0  0  0
 20 21  1  0  0  0  0
 21 22  2  0  0  0  0
 21 26  1  0  0  0  0
 22 23  1  0  0  0  0
 22 40  1  0  0  0  0
 23 24  2  0  0  0  0
 23 41  1  0  0  0  0
 24 25  1  0  0  0  0
 24 42  1  0  0  0  0
 25 26  2  0  0  0  0
 25 43  1  0  0  0  0
 26 44  1  0  0  0  0
M  END
>  <DRUGBANK_ID>
DB03337

>  <SECONDARY_ACCESSION_NUMBERS>
EXPT01636

>  <COMMON_NAME>
1-(2-Amidinophenyl)-3-(Phenoxyphenyl)Urea

$$$$
