
 OpenBabel10282417072D

 46 47  0  0  0  0  0  0  0  0999 V2000
    5.7158   -0.8250    0.0000 C   0  0  0  0  0  0  0  0  0  0  0  0
    5.4138    0.3020    0.0000 C   0  0  0  0  0  0  0  0  0  0  0  0
    4.5888   -1.1270    0.0000 C   0  0  0  0  0  0  0  0  0  0  0  0
    0.0000    1.6500    0.0000 C   0  0  0  0  0  0  0  0  0  0  0  0
    1.1270    1.9520    0.0000 C   0  0  0  0  0  0  0  0  0  0  0  0
    0.3020    0.5230    0.0000 C   0  0  0  0  0  0  0  0  0  0  0  0
    2.1434   -0.4125    0.0000 C   0  0  0  0  0  0  0  0  0  0  0  0
    4.2868    0.8250    0.0000 C   0  0  0  0  0  0  0  0  0  0  0  0
    3.5724    1.2375    0.0000 C   0  0  0  0  0  0  0  0  0  0  0  0
    1.4289    0.0000    0.0000 C   0  0  0  0  0  0  0  0  0  0  0  0
    3.5724   -0.4125    0.0000 C   0  0  0  0  0  0  0  0  0  0  0  0
    2.8579    0.0000    0.0000 C   0  0  0  0  0  0  0  0  0  0  0  0
    4.2868    0.0000    0.0000 C   0  0  0  0  0  0  0  0  0  0  0  0
    2.8579    0.8250    0.0000 C   0  0  0  0  0  0  0  0  0  0  0  0
    1.4289    0.8250    0.0000 C   0  0  0  0  0  0  0  0  0  0  0  0
    2.1434    1.2375    0.0000 C   0  0  0  0  0  0  0  0  0  0  0  0
    5.0013   -0.4125    0.0000 C   0  0  0  0  0  0  0  0  0  0  0  0
    0.7145    1.2375    0.0000 C   0  0  0  0  0  0  0  0  0  0  0  0
    2.1434    2.8875    0.0000 O   0  0  0  0  0  0  0  0  0  0  0  0
    1.3588    2.3174    0.0000 O   0  0  0  0  0  0  0  0  0  0  0  0
    2.9684    2.0625    0.0000 O   0  0  0  0  0  0  0  0  0  0  0  0
    2.1434    2.0625    0.0000 S   0  0  0  0  0  0  0  0  0  0  0  0
    5.7158   -1.8950    0.0000 H   0  0  0  0  0  0  0  0  0  0  0  0
    6.6424   -0.2900    0.0000 H   0  0  0  0  0  0  0  0  0  0  0  0
    6.6425   -1.3600    0.0000 H   0  0  0  0  0  0  0  0  0  0  0  0
    6.4838    0.3020    0.0000 H   0  0  0  0  0  0  0  0  0  0  0  0
    4.8788    1.2286    0.0000 H   0  0  0  0  0  0  0  0  0  0  0  0
    5.9488    1.2287    0.0000 H   0  0  0  0  0  0  0  0  0  0  0  0
    3.5188   -1.1270    0.0000 H   0  0  0  0  0  0  0  0  0  0  0  0
    5.1238   -2.0536    0.0000 H   0  0  0  0  0  0  0  0  0  0  0  0
    4.0538   -2.0537    0.0000 H   0  0  0  0  0  0  0  0  0  0  0  0
   -0.0000    2.7200    0.0000 H   0  0  0  0  0  0  0  0  0  0  0  0
   -0.9266    1.1150    0.0000 H   0  0  0  0  0  0  0  0  0  0  0  0
   -0.9267    2.1850    0.0000 H   0  0  0  0  0  0  0  0  0  0  0  0
    2.1970    1.9520    0.0000 H   0  0  0  0  0  0  0  0  0  0  0  0
    0.5920    2.8786    0.0000 H   0  0  0  0  0  0  0  0  0  0  0  0
    1.6620    2.8787    0.0000 H   0  0  0  0  0  0  0  0  0  0  0  0
   -0.7680    0.5230    0.0000 H   0  0  0  0  0  0  0  0  0  0  0  0
    0.8370   -0.4036    0.0000 H   0  0  0  0  0  0  0  0  0  0  0  0
   -0.2330   -0.4037    0.0000 H   0  0  0  0  0  0  0  0  0  0  0  0
    2.1434   -1.4445    0.0000 H   0  0  0  0  0  0  0  0  0  0  0  0
    5.1805    1.3410    0.0000 H   0  0  0  0  0  0  0  0  0  0  0  0
    3.5724    2.2695    0.0000 H   0  0  0  0  0  0  0  0  0  0  0  0
    0.5352   -0.5160    0.0000 H   0  0  0  0  0  0  0  0  0  0  0  0
    3.5724   -1.4445    0.0000 H   0  0  0  0  0  0  0  0  0  0  0  0
    2.9834    3.3725    0.0000 H   0  0  0  0  0  0  0  0  0  0  0  0
  1 23  1  0  0  0  0
  1 24  1  0  0  0  0
  1 25  1  0  0  0  0
  2 26  1  0  0  0  0
  2 27  1  0  0  0  0
  2 28  1  0  0  0  0
  3 29  1  0  0  0  0
  3 30  1  0  0  0  0
  3 31  1  0  0  0  0
  4 32  1  0  0  0  0
  4 33  1  0  0  0  0
  4 34  1  0  0  0  0
  5 35  1  0  0  0  0
  5 36  1  0  0  0  0
  5 37  1  0  0  0  0
  6 38  1  0  0  0  0
  6 39  1  0  0  0  0
  6 40  1  0  0  0  0
  7 41  1  0  0  0  0
  8 42  1  0  0  0  0
  9  8  1  0  0  0  0
  9 43  1  0  0  0  0
 10  7  2  0  0  0  0
 10 44  1  0  0  0  0
 11 45  1  0  0  0  0
 12  7  1  0  0  0  0
 12 11  2  0  0  0  0
 13  8  2  0  0  0  0
 13 11  1  0  0  0  0
 14  9  2  0  0  0  0
 14 12  1  0  0  0  0
 15 10  1  0  0  0  0
 16 14  1  0  0  0  0
 16 15  2  0  0  0  0
 17  1  1  0  0  0  0
 17  2  1  0  0  0  0
 17  3  1  0  0  0  0
 17 13  1  0  0  0  0
 18  4  1  0  0  0  0
 18  5  1  0  0  0  0
 18  6  1  0  0  0  0
 18 15  1  0  0  0  0
 19 46  1  0  0  0  0
 22 16  1  0  0  0  0
 22 19  1  0  0  0  0
 22 20  2  0  0  0  0
 22 21  2  0  0  0  0
M  END
>  <DRUGBANK_ID>
DB13796

>  <COMMON_NAME>
Dibunate

>  <CAS_NUMBER>
14992-58-6

>  <UNII>
ZXY319VL5S

>  <SYNONYMS>
Dibunate

$$$$
