
 OpenBabel10282417072D

 46 49  0  0  0  0  0  0  0  0999 V2000
   -0.8177   -0.9663    0.0000 O   0  0  0  0  0  0  0  0  0  0  0  0
    4.3338    1.0585    0.0000 O   0  0  0  0  0  0  0  0  0  0  0  0
    1.3611    1.1622    0.0000 N   0  0  0  0  0  0  0  0  0  0  0  0
    2.9756    1.5024    0.0000 N   0  0  0  0  0  0  0  0  0  0  0  0
   -2.1242   -1.6303    0.0000 N   0  0  0  0  0  0  0  0  0  0  0  0
   -2.1242   -0.3024    0.0000 C   0  0  3  0  0  0  0  0  0  0  0  0
    1.6173    1.9463    0.0000 C   0  0  0  0  0  0  0  0  0  0  0  0
    1.9120    0.5481    0.0000 C   0  0  0  0  0  0  0  0  0  0  0  0
   -1.8680    0.4816    0.0000 C   0  0  0  0  0  0  0  0  0  0  0  0
    2.4246    2.1164    0.0000 C   0  0  0  0  0  0  0  0  0  0  0  0
    2.7193    0.7182    0.0000 C   0  0  0  0  0  0  0  0  0  0  0  0
   -2.9048   -0.5538    0.0000 C   0  0  0  0  0  0  0  0  0  0  0  0
    0.5538    0.9921    0.0000 C   0  0  0  0  0  0  0  0  0  0  0  0
   -1.0607    0.6517    0.0000 C   0  0  0  0  0  0  0  0  0  0  0  0
   -1.6427   -0.9663    0.0000 C   0  0  0  0  0  0  0  0  0  0  0  0
   -2.9048   -1.3788    0.0000 C   0  0  0  0  0  0  0  0  0  0  0  0
    0.0028    1.6061    0.0000 C   0  0  0  0  0  0  0  0  0  0  0  0
    0.2975    0.2079    0.0000 C   0  0  0  0  0  0  0  0  0  0  0  0
   -0.8044    1.4360    0.0000 C   0  0  0  0  0  0  0  0  0  0  0  0
   -0.5097    0.0377    0.0000 C   0  0  0  0  0  0  0  0  0  0  0  0
   -3.6193   -0.1413    0.0000 C   0  0  0  0  0  0  0  0  0  0  0  0
   -3.6193   -1.7913    0.0000 C   0  0  0  0  0  0  0  0  0  0  0  0
    3.7829    1.6726    0.0000 C   0  0  0  0  0  0  0  0  0  0  0  0
   -4.3338   -0.5538    0.0000 C   0  0  0  0  0  0  0  0  0  0  0  0
   -4.3338   -1.3788    0.0000 C   0  0  0  0  0  0  0  0  0  0  0  0
   -1.9653   -2.1164    0.0000 H   0  0  0  0  0  0  0  0  0  0  0  0
   -2.8792    0.4558    0.0000 H   0  0  0  0  0  0  0  0  0  0  0  0
    0.9027    2.7427    0.0000 H   0  0  0  0  0  0  0  0  0  0  0  0
    1.9497    2.9634    0.0000 H   0  0  0  0  0  0  0  0  0  0  0  0
    1.5795   -0.4689    0.0000 H   0  0  0  0  0  0  0  0  0  0  0  0
    2.6265   -0.2483    0.0000 H   0  0  0  0  0  0  0  0  0  0  0  0
   -2.5826    1.2780    0.0000 H   0  0  0  0  0  0  0  0  0  0  0  0
   -1.5356    1.4986    0.0000 H   0  0  0  0  0  0  0  0  0  0  0  0
    2.7570    3.1335    0.0000 H   0  0  0  0  0  0  0  0  0  0  0  0
    1.7100    2.9128    0.0000 H   0  0  0  0  0  0  0  0  0  0  0  0
    3.4339   -0.0782    0.0000 H   0  0  0  0  0  0  0  0  0  0  0  0
    2.3869   -0.2988    0.0000 H   0  0  0  0  0  0  0  0  0  0  0  0
    0.3234    2.5870    0.0000 H   0  0  0  0  0  0  0  0  0  0  0  0
    0.9868   -0.5602    0.0000 H   0  0  0  0  0  0  0  0  0  0  0  0
   -1.4936    2.2041    0.0000 H   0  0  0  0  0  0  0  0  0  0  0  0
   -0.8302   -0.9433    0.0000 H   0  0  0  0  0  0  0  0  0  0  0  0
   -3.6193    0.8907    0.0000 H   0  0  0  0  0  0  0  0  0  0  0  0
   -3.6193   -2.8233    0.0000 H   0  0  0  0  0  0  0  0  0  0  0  0
    4.1035    2.6535    0.0000 H   0  0  0  0  0  0  0  0  0  0  0  0
   -5.2275   -0.0378    0.0000 H   0  0  0  0  0  0  0  0  0  0  0  0
   -5.2275   -1.8948    0.0000 H   0  0  0  0  0  0  0  0  0  0  0  0
  1 15  2  0  0  0  0
  2 23  2  0  0  0  0
  3  7  1  0  0  0  0
  3  8  1  0  0  0  0
  3 13  1  0  0  0  0
  4 10  1  0  0  0  0
  4 11  1  0  0  0  0
  4 23  1  0  0  0  0
  5 15  1  0  0  0  0
  5 16  1  0  0  0  0
  5 26  1  0  0  0  0
  6  9  1  0  0  0  0
  6 12  1  0  0  0  0
  6 15  1  0  0  0  0
  6 27  1  0  0  0  0
  7 10  1  0  0  0  0
  7 28  1  0  0  0  0
  7 29  1  0  0  0  0
  8 11  1  0  0  0  0
  8 30  1  0  0  0  0
  8 31  1  0  0  0  0
  9 14  1  0  0  0  0
  9 32  1  0  0  0  0
  9 33  1  0  0  0  0
 10 34  1  0  0  0  0
 10 35  1  0  0  0  0
 11 36  1  0  0  0  0
 11 37  1  0  0  0  0
 12 16  1  0  0  0  0
 12 21  2  0  0  0  0
 13 17  2  0  0  0  0
 13 18  1  0  0  0  0
 14 19  2  0  0  0  0
 14 20  1  0  0  0  0
 16 22  2  0  0  0  0
 17 19  1  0  0  0  0
 17 38  1  0  0  0  0
 18 20  2  0  0  0  0
 18 39  1  0  0  0  0
 19 40  1  0  0  0  0
 20 41  1  0  0  0  0
 21 24  1  0  0  0  0
 21 42  1  0  0  0  0
 22 25  1  0  0  0  0
 22 43  1  0  0  0  0
 23 44  1  0  0  0  0
 24 25  2  0  0  0  0
 24 45  1  0  0  0  0
 25 46  1  0  0  0  0
M  END
>  <DRUGBANK_ID>
DB02058

>  <SECONDARY_ACCESSION_NUMBERS>
EXPT02973

>  <COMMON_NAME>
3-[4-(1-formylpiperazin-4-yl)-benzylidenyl]-2-indolinone

$$$$
