
 OpenBabel10282417072D

  1  0  0  0  0  0  0  0  0  0999 V2000
    0.0000    0.0000    0.0000 Cl  0  5  0  0  0  0  0  0  0  0  0  0
M  CHG  1   1  -1
M  END
>  <DRUGBANK_ID>
DB14547

>  <COMMON_NAME>
Chloride ion

>  <CAS_NUMBER>
16887-00-6

>  <UNII>
Q32ZN48698

>  <SYNONYMS>
Chloride; Chloride (ion); Chloride ions; Chloride(1-); Chlorine anion

$$$$
