
 OpenBabel10282417072D

 18 17  0  0  1  0  0  0  0  0999 V2000
    5.2408   -8.5347    0.0000 S   0  0  0  0  0  0  0  0  0  0  0  0
    5.9553   -8.1222    0.0000 C   0  0  0  0  0  0  0  0  0  0  0  0
    6.6698   -8.5347    0.0000 C   0  0  1  0  0  0  0  0  0  0  0  0
    7.3843   -8.1222    0.0000 C   0  0  2  0  0  0  0  0  0  0  0  0
    8.0988   -8.5347    0.0000 C   0  0  0  0  0  0  0  0  0  0  0  0
    8.8133   -8.1222    0.0000 S   0  0  0  0  0  0  0  0  0  0  0  0
    6.6698   -9.3597    0.0000 O   0  0  0  0  0  0  0  0  0  0  0  0
    7.3843   -7.2972    0.0000 O   0  0  0  0  0  0  0  0  0  0  0  0
    4.0630   -7.8547    0.0000 H   0  0  0  0  0  0  0  0  0  0  0  0
    5.9553   -7.0522    0.0000 H   0  0  0  0  0  0  0  0  0  0  0  0
    6.8819   -7.5872    0.0000 H   0  0  0  0  0  0  0  0  0  0  0  0
    5.7432   -9.0697    0.0000 H   0  0  0  0  0  0  0  0  0  0  0  0
    6.4577   -7.5872    0.0000 H   0  0  0  0  0  0  0  0  0  0  0  0
    8.0988   -9.6047    0.0000 H   0  0  0  0  0  0  0  0  0  0  0  0
    9.0254   -9.0697    0.0000 H   0  0  0  0  0  0  0  0  0  0  0  0
    9.9911   -8.8022    0.0000 H   0  0  0  0  0  0  0  0  0  0  0  0
    5.8298   -9.8447    0.0000 H   0  0  0  0  0  0  0  0  0  0  0  0
    8.2243   -6.8122    0.0000 H   0  0  0  0  0  0  0  0  0  0  0  0
  1  9  1  0  0  0  0
  2  1  1  0  0  0  0
  2 10  1  0  0  0  0
  2 11  1  0  0  0  0
  3  2  1  0  0  0  0
  3  7  1  0  0  0  0
  3 12  1  6  0  0  0
  4  3  1  0  0  0  0
  4  8  1  0  0  0  0
  4 13  1  6  0  0  0
  5  4  1  0  0  0  0
  5 14  1  0  0  0  0
  5 15  1  0  0  0  0
  6  5  1  0  0  0  0
  6 16  1  0  0  0  0
  7 17  1  0  0  0  0
  8 18  1  0  0  0  0
M  END
>  <DRUGBANK_ID>
DB04447

>  <SECONDARY_ACCESSION_NUMBERS>
EXPT01291

>  <COMMON_NAME>
1,4-Dithiothreitol

>  <CAS_NUMBER>
3483-12-3

>  <UNII>
T8ID5YZU6Y

>  <SYNONYMS>
2,3-dihydroxy-1,4-dithiobutane

$$$$
