
 OpenBabel10282417072D

 50 53  0  0  0  0  0  0  0  0999 V2000
   -3.4509    1.0728    0.0000 C   0  0  0  0  0  0  0  0  0  0  0  0
   -4.1654    0.6603    0.0000 C   0  0  0  0  0  0  0  0  0  0  0  0
   -4.1654   -0.1647    0.0000 C   0  0  0  0  0  0  0  0  0  0  0  0
   -3.4509   -0.5772    0.0000 C   0  0  0  0  0  0  0  0  0  0  0  0
   -2.7363   -0.1647    0.0000 C   0  0  0  0  0  0  0  0  0  0  0  0
   -2.7363    0.6603    0.0000 C   0  0  0  0  0  0  0  0  0  0  0  0
   -1.9518    0.9153    0.0000 S   0  0  0  0  0  0  0  0  0  0  0  0
   -1.9518   -0.4195    0.0000 N   0  0  0  0  0  0  0  0  0  0  0  0
   -1.4669    0.2478    0.0000 C   0  0  0  0  0  0  0  0  0  0  0  0
   -0.6419    0.2478    0.0000 C   0  0  0  0  0  0  0  0  0  0  0  0
   -0.2294   -0.4666    0.0000 C   0  0  0  0  0  0  0  0  0  0  0  0
    0.5955   -0.4666    0.0000 C   0  0  0  0  0  0  0  0  0  0  0  0
    1.0080   -1.1811    0.0000 C   0  0  0  0  0  0  0  0  0  0  0  0
    1.8330   -1.1811    0.0000 C   0  0  0  0  0  0  0  0  0  0  0  0
    2.2455   -0.4666    0.0000 C   0  0  0  0  0  0  0  0  0  0  0  0
    2.6580    0.8029    0.0000 C   0  0  0  0  0  0  0  0  0  0  0  0
    1.9907    0.3179    0.0000 S   0  0  0  0  0  0  0  0  0  0  0  0
    3.0705   -0.4666    0.0000 N   0  3  0  0  0  0  0  0  0  0  0  0
    3.3255    0.3179    0.0000 C   0  0  0  0  0  0  0  0  0  0  0  0
    3.4980    1.9590    0.0000 C   0  0  0  0  0  0  0  0  0  0  0  0
    2.7443    1.6234    0.0000 C   0  0  0  0  0  0  0  0  0  0  0  0
    4.0792    0.6535    0.0000 C   0  0  0  0  0  0  0  0  0  0  0  0
    4.1654    1.4740    0.0000 C   0  0  0  0  0  0  0  0  0  0  0  0
    3.5554   -1.1339    0.0000 C   0  0  0  0  0  0  0  0  0  0  0  0
    3.5554   -1.9590    0.0000 C   0  0  0  0  0  0  0  0  0  0  0  0
   -1.6968   -1.2041    0.0000 C   0  0  0  0  0  0  0  0  0  0  0  0
   -2.2488   -1.8173    0.0000 C   0  0  0  0  0  0  0  0  0  0  0  0
   -0.2294    0.9624    0.0000 H   0  0  0  0  0  0  0  0  0  0  0  0
   -0.6419   -1.1811    0.0000 H   0  0  0  0  0  0  0  0  0  0  0  0
    1.0080    0.2478    0.0000 H   0  0  0  0  0  0  0  0  0  0  0  0
    0.5955   -1.8956    0.0000 H   0  0  0  0  0  0  0  0  0  0  0  0
    2.2455   -1.8956    0.0000 H   0  0  0  0  0  0  0  0  0  0  0  0
   -3.4509    2.1048    0.0000 H   0  0  0  0  0  0  0  0  0  0  0  0
   -5.0591    1.1763    0.0000 H   0  0  0  0  0  0  0  0  0  0  0  0
   -5.0591   -0.6807    0.0000 H   0  0  0  0  0  0  0  0  0  0  0  0
   -3.4509   -1.6092    0.0000 H   0  0  0  0  0  0  0  0  0  0  0  0
    3.6059    2.9853    0.0000 H   0  0  0  0  0  0  0  0  0  0  0  0
    1.9094    2.2300    0.0000 H   0  0  0  0  0  0  0  0  0  0  0  0
    4.9141    0.0469    0.0000 H   0  0  0  0  0  0  0  0  0  0  0  0
    5.1082    1.8937    0.0000 H   0  0  0  0  0  0  0  0  0  0  0  0
    4.5730   -0.8032    0.0000 H   0  0  0  0  0  0  0  0  0  0  0  0
    4.4211   -1.7628    0.0000 H   0  0  0  0  0  0  0  0  0  0  0  0
    2.6288   -2.4940    0.0000 H   0  0  0  0  0  0  0  0  0  0  0  0
    4.4820   -2.4940    0.0000 H   0  0  0  0  0  0  0  0  0  0  0  0
    3.5554   -3.0290    0.0000 H   0  0  0  0  0  0  0  0  0  0  0  0
   -0.6502   -1.4265    0.0000 H   0  0  0  0  0  0  0  0  0  0  0  0
   -1.3660   -2.2217    0.0000 H   0  0  0  0  0  0  0  0  0  0  0  0
   -3.2954   -1.5950    0.0000 H   0  0  0  0  0  0  0  0  0  0  0  0
   -1.9180   -2.8349    0.0000 H   0  0  0  0  0  0  0  0  0  0  0  0
   -2.9647   -2.6125    0.0000 H   0  0  0  0  0  0  0  0  0  0  0  0
  1  2  2  0  0  0  0
  1  6  1  0  0  0  0
  1 33  1  0  0  0  0
  2  3  1  0  0  0  0
  2 34  1  0  0  0  0
  3  4  2  0  0  0  0
  3 35  1  0  0  0  0
  4  5  1  0  0  0  0
  4 36  1  0  0  0  0
  5  8  1  0  0  0  0
  6  5  2  0  0  0  0
  7  6  1  0  0  0  0
  7  9  1  0  0  0  0
  8  9  1  0  0  0  0
  8 26  1  0  0  0  0
  9 10  2  3  0  0  0
 10 11  1  0  0  0  0
 10 28  1  0  0  0  0
 11 12  2  3  0  0  0
 11 29  1  0  0  0  0
 12 13  1  0  0  0  0
 12 30  1  0  0  0  0
 13 14  2  3  0  0  0
 13 31  1  0  0  0  0
 14 15  1  0  0  0  0
 14 32  1  0  0  0  0
 15 18  2  0  0  0  0
 16 17  1  0  0  0  0
 16 19  1  0  0  0  0
 17 15  1  0  0  0  0
 18 19  1  0  0  0  0
 18 24  1  0  0  0  0
 19 22  2  0  0  0  0
 20 21  1  0  0  0  0
 20 23  2  0  0  0  0
 20 37  1  0  0  0  0
 21 16  2  0  0  0  0
 21 38  1  0  0  0  0
 22 23  1  0  0  0  0
 22 39  1  0  0  0  0
 23 40  1  0  0  0  0
 24 25  1  0  0  0  0
 24 41  1  0  0  0  0
 24 42  1  0  0  0  0
 25 43  1  0  0  0  0
 25 44  1  0  0  0  0
 25 45  1  0  0  0  0
 26 27  1  0  0  0  0
 26 46  1  0  0  0  0
 26 47  1  0  0  0  0
 27 48  1  0  0  0  0
 27 49  1  0  0  0  0
 27 50  1  0  0  0  0
M  CHG  1  18   1
M  END
>  <DRUGBANK_ID>
DB11516

>  <COMMON_NAME>
Dithiazanine

>  <CAS_NUMBER>
7187-55-5

>  <UNII>
5L7E7IY5EH

>  <SYNONYMS>
3,3'-Diethylthiadicarbocyanine; Dithiazaninum

$$$$
