
 OpenBabel10282417072D

 62 65  0  0  0  0  0  0  0  0999 V2000
    1.0730    1.6537    0.0000 C   0  0  0  0  0  0  0  0  0  0  0  0
    1.7856    1.2411    0.0000 O   0  0  0  0  0  0  0  0  0  0  0  0
    2.4983    1.6537    0.0000 C   0  0  0  0  0  0  0  0  0  0  0  0
    3.2109    1.2411    0.0000 N   0  0  0  0  0  0  0  0  0  0  0  0
    3.9234    1.6537    0.0000 C   0  0  0  0  0  0  0  0  0  0  0  0
   -0.3572    2.4807    0.0000 C   0  0  0  0  0  0  0  0  0  0  0  0
   -0.3584    1.6532    0.0000 C   0  0  0  0  0  0  0  0  0  0  0  0
    0.3564    1.2403    0.0000 C   0  0  0  0  0  0  0  0  0  0  0  0
    1.0702    2.4844    0.0000 C   0  0  0  0  0  0  0  0  0  0  0  0
    0.3546    2.8936    0.0000 C   0  0  0  0  0  0  0  0  0  0  0  0
   -3.9234    1.2347    0.0000 N   0  0  0  0  0  0  0  0  0  0  0  0
   -3.2109    1.6472    0.0000 C   0  0  0  0  0  0  0  0  0  0  0  0
   -2.4983    1.2388    0.0000 C   0  0  0  0  0  0  0  0  0  0  0  0
   -1.7856    1.6514    0.0000 C   0  0  0  0  0  0  0  0  0  0  0  0
   -1.0730    1.2388    0.0000 N   0  0  0  0  0  0  0  0  0  0  0  0
   -3.2105    0.8221    0.0000 C   0  0  0  0  0  0  0  0  0  0  0  0
   -3.2105   -0.0029    0.0000 C   0  0  0  0  0  0  0  0  0  0  0  0
   -2.4983   -0.4113    0.0000 N   0  0  0  0  0  0  0  0  0  0  0  0
   -1.7861   -0.0029    0.0000 C   0  0  0  0  0  0  0  0  0  0  0  0
   -1.7861    0.8221    0.0000 C   0  0  0  0  0  0  0  0  0  0  0  0
   -1.7732   -2.4801    0.0000 C   0  0  0  0  0  0  0  0  0  0  0  0
   -0.9831   -2.7182    0.0000 N   0  0  0  0  0  0  0  0  0  0  0  0
   -0.5111   -2.0414    0.0000 C   0  0  0  0  0  0  0  0  0  0  0  0
   -1.0115   -1.3822    0.0000 C   0  0  0  0  0  0  0  0  0  0  0  0
   -1.7888   -1.6564    0.0000 C   0  0  0  0  0  0  0  0  0  0  0  0
   -3.2035   -1.6531    0.0000 N   0  0  0  0  0  0  0  0  0  0  0  0
   -3.2047   -2.4806    0.0000 C   0  0  0  0  0  0  0  0  0  0  0  0
   -2.4897   -2.8936    0.0000 N   0  0  0  0  0  0  0  0  0  0  0  0
   -2.4915   -1.2403    0.0000 C   0  0  0  0  0  0  0  0  0  0  0  0
   -1.7936    2.4765    0.0000 O   0  0  0  0  0  0  0  0  0  0  0  0
    2.4903    2.4807    0.0000 O   0  0  0  0  0  0  0  0  0  0  0  0
    3.2029    0.4179    0.0000 C   0  0  0  0  0  0  0  0  0  0  0  0
   -0.8016   -0.5780    0.0000 C   0  0  0  0  0  0  0  0  0  0  0  0
    4.8507    1.1199    0.0000 H   0  0  0  0  0  0  0  0  0  0  0  0
    3.9220    2.7237    0.0000 H   0  0  0  0  0  0  0  0  0  0  0  0
    4.8493    2.1899    0.0000 H   0  0  0  0  0  0  0  0  0  0  0  0
   -1.2511    2.9964    0.0000 H   0  0  0  0  0  0  0  0  0  0  0  0
    0.3561    0.2083    0.0000 H   0  0  0  0  0  0  0  0  0  0  0  0
    1.9620    3.0038    0.0000 H   0  0  0  0  0  0  0  0  0  0  0  0
    0.3514    3.9256    0.0000 H   0  0  0  0  0  0  0  0  0  0  0  0
   -4.8074    1.7436    0.0000 H   0  0  0  0  0  0  0  0  0  0  0  0
   -3.9222    0.2147    0.0000 H   0  0  0  0  0  0  0  0  0  0  0  0
   -3.2132    2.7172    0.0000 H   0  0  0  0  0  0  0  0  0  0  0  0
   -2.2857    2.1847    0.0000 H   0  0  0  0  0  0  0  0  0  0  0  0
   -1.0727    0.2543    0.0000 H   0  0  0  0  0  0  0  0  0  0  0  0
   -4.1387    1.3544    0.0000 H   0  0  0  0  0  0  0  0  0  0  0  0
   -4.1364    0.2858    0.0000 H   0  0  0  0  0  0  0  0  0  0  0  0
   -4.1364   -0.5393    0.0000 H   0  0  0  0  0  0  0  0  0  0  0  0
   -4.1375    0.5314    0.0000 H   0  0  0  0  0  0  0  0  0  0  0  0
   -0.8602   -0.5393    0.0000 H   0  0  0  0  0  0  0  0  0  0  0  0
   -0.8591    0.5314    0.0000 H   0  0  0  0  0  0  0  0  0  0  0  0
   -0.8579    1.3544    0.0000 H   0  0  0  0  0  0  0  0  0  0  0  0
   -1.7815    1.8921    0.0000 H   0  0  0  0  0  0  0  0  0  0  0  0
   -0.6598   -3.6481    0.0000 H   0  0  0  0  0  0  0  0  0  0  0  0
    0.5207   -2.0206    0.0000 H   0  0  0  0  0  0  0  0  0  0  0  0
   -4.0989   -2.9959    0.0000 H   0  0  0  0  0  0  0  0  0  0  0  0
    2.2711   -0.1081    0.0000 H   0  0  0  0  0  0  0  0  0  0  0  0
    4.1243   -0.1261    0.0000 H   0  0  0  0  0  0  0  0  0  0  0  0
    3.1925   -0.6520    0.0000 H   0  0  0  0  0  0  0  0  0  0  0  0
    0.2301   -0.2944    0.0000 H   0  0  0  0  0  0  0  0  0  0  0  0
   -1.5631    0.1737    0.0000 H   0  0  0  0  0  0  0  0  0  0  0  0
   -0.5314    0.4573    0.0000 H   0  0  0  0  0  0  0  0  0  0  0  0
  1  9  1  0  0  0  0
  1  2  1  0  0  0  0
  2  3  1  0  0  0  0
  3  4  1  0  0  0  0
  3 31  2  0  0  0  0
  4  5  1  0  0  0  0
  4 32  1  0  0  0  0
  5 34  1  0  0  0  0
  5 35  1  0  0  0  0
  5 36  1  0  0  0  0
  6  7  2  0  0  0  0
  6 37  1  0  0  0  0
  7  8  1  0  0  0  0
  8  1  2  0  0  0  0
  8 38  1  0  0  0  0
  9 10  2  0  0  0  0
  9 39  1  0  0  0  0
 10  6  1  0  0  0  0
 10 40  1  0  0  0  0
 11 12  1  0  0  0  0
 11 41  1  0  0  0  0
 11 42  1  0  0  0  0
 12 13  1  0  0  0  0
 12 43  1  0  0  0  0
 12 44  1  0  0  0  0
 13 14  1  0  0  0  0
 14 15  1  0  0  0  0
 14 30  2  0  0  0  0
 15  7  1  0  0  0  0
 15 45  1  0  0  0  0
 16 13  1  0  0  0  0
 16 17  1  0  0  0  0
 16 46  1  0  0  0  0
 16 47  1  0  0  0  0
 17 18  1  0  0  0  0
 17 48  1  0  0  0  0
 17 49  1  0  0  0  0
 18 19  1  0  0  0  0
 19 20  1  0  0  0  0
 19 50  1  0  0  0  0
 19 51  1  0  0  0  0
 20 13  1  0  0  0  0
 20 52  1  0  0  0  0
 20 53  1  0  0  0  0
 21 22  1  0  0  0  0
 22 23  1  0  0  0  0
 22 54  1  0  0  0  0
 23 24  2  0  0  0  0
 23 55  1  0  0  0  0
 24 25  1  0  0  0  0
 24 33  1  0  0  0  0
 25 21  1  0  0  0  0
 25 29  2  0  0  0  0
 26 27  2  0  0  0  0
 27 28  1  0  0  0  0
 27 56  1  0  0  0  0
 28 21  2  0  0  0  0
 29 26  1  0  0  0  0
 29 18  1  0  0  0  0
 32 57  1  0  0  0  0
 32 58  1  0  0  0  0
 32 59  1  0  0  0  0
 33 60  1  0  0  0  0
 33 61  1  0  0  0  0
 33 62  1  0  0  0  0
M  END
>  <DRUGBANK_ID>
DB16009

>  <COMMON_NAME>
LX-7101

>  <CAS_NUMBER>
1192189-69-7

>  <UNII>
74B3C4ZT96

$$$$
