
 OpenBabel10282417072D

102101  0  0  0  0  0  0  0  0999 V2000
   -3.5723    2.0625    0.0000 C   0  0  0  0  0  0  0  0  0  0  0  0
   -5.0012    2.0625    0.0000 C   0  0  0  0  0  0  0  0  0  0  0  0
   -5.7157    1.6500    0.0000 C   0  0  0  0  0  0  0  0  0  0  0  0
   -3.5723   -2.0625    0.0000 C   0  0  0  0  0  0  0  0  0  0  0  0
   -6.4302   -0.4125    0.0000 C   0  0  0  0  0  0  0  0  0  0  0  0
   -6.4302    0.4125    0.0000 C   0  0  0  0  0  0  0  0  0  0  0  0
   -5.0012   -2.0625    0.0000 C   0  0  0  0  0  0  0  0  0  0  0  0
   -5.7157   -1.6500    0.0000 C   0  0  0  0  0  0  0  0  0  0  0  0
   -4.2867    1.6500    0.0000 O   0  0  0  0  0  0  0  0  0  0  0  0
   -5.7157    0.8250    0.0000 O   0  0  0  0  0  0  0  0  0  0  0  0
   -5.7157   -0.8250    0.0000 O   0  0  0  0  0  0  0  0  0  0  0  0
   -4.2867   -1.6500    0.0000 O   0  0  0  0  0  0  0  0  0  0  0  0
   -2.8579    1.6500    0.0000 C   0  0  0  0  0  0  0  0  0  0  0  0
   -2.8579   -1.6500    0.0000 C   0  0  0  0  0  0  0  0  0  0  0  0
   -0.7143    2.0625    0.0000 C   0  0  0  0  0  0  0  0  0  0  0  0
   -0.7143   -2.0625    0.0000 C   0  0  0  0  0  0  0  0  0  0  0  0
   -2.1433    2.0625    0.0000 O   0  0  0  0  0  0  0  0  0  0  0  0
   -1.4289    1.6500    0.0000 C   0  0  0  0  0  0  0  0  0  0  0  0
   -2.1433   -2.0625    0.0000 O   0  0  0  0  0  0  0  0  0  0  0  0
   -1.4289   -1.6500    0.0000 C   0  0  0  0  0  0  0  0  0  0  0  0
    0.0000   -1.6500    0.0000 O   0  0  0  0  0  0  0  0  0  0  0  0
    0.7144   -2.0625    0.0000 C   0  0  0  0  0  0  0  0  0  0  0  0
    1.4289   -1.6500    0.0000 C   0  0  0  0  0  0  0  0  0  0  0  0
    0.7144    2.0625    0.0000 C   0  0  0  0  0  0  0  0  0  0  0  0
    1.4289    1.6500    0.0000 C   0  0  0  0  0  0  0  0  0  0  0  0
    3.5723    2.0625    0.0000 C   0  0  0  0  0  0  0  0  0  0  0  0
    2.8577    1.6500    0.0000 C   0  0  0  0  0  0  0  0  0  0  0  0
    2.1435   -2.0625    0.0000 O   0  0  0  0  0  0  0  0  0  0  0  0
    3.5725   -2.0625    0.0000 C   0  0  0  0  0  0  0  0  0  0  0  0
    2.8580   -1.6500    0.0000 C   0  0  0  0  0  0  0  0  0  0  0  0
    5.7157    1.6500    0.0000 C   0  0  0  0  0  0  0  0  0  0  0  0
    5.0012    2.0625    0.0000 C   0  0  0  0  0  0  0  0  0  0  0  0
    4.2868   -1.6500    0.0000 O   0  0  0  0  0  0  0  0  0  0  0  0
    5.7158   -1.6500    0.0000 C   0  0  0  0  0  0  0  0  0  0  0  0
    5.0012   -2.0625    0.0000 C   0  0  0  0  0  0  0  0  0  0  0  0
    6.4302   -2.0625    0.0000 O   0  0  0  0  0  0  0  0  0  0  0  0
    0.0000    1.6500    0.0000 C   0  0  0  0  0  0  0  0  0  0  0  0
    2.1433    2.0625    0.0000 C   0  0  0  0  0  0  0  0  0  0  0  0
    4.2866    1.6500    0.0000 C   0  0  0  0  0  0  0  0  0  0  0  0
    6.4301    2.0625    0.0000 C   0  0  0  0  0  0  0  0  0  0  0  0
   -3.5723    3.1325    0.0000 H   0  0  0  0  0  0  0  0  0  0  0  0
   -2.6456    2.5975    0.0000 H   0  0  0  0  0  0  0  0  0  0  0  0
   -5.0012    3.1325    0.0000 H   0  0  0  0  0  0  0  0  0  0  0  0
   -4.0746    2.5975    0.0000 H   0  0  0  0  0  0  0  0  0  0  0  0
   -6.6423    2.1850    0.0000 H   0  0  0  0  0  0  0  0  0  0  0  0
   -6.6423    1.1150    0.0000 H   0  0  0  0  0  0  0  0  0  0  0  0
   -3.5723   -3.1325    0.0000 H   0  0  0  0  0  0  0  0  0  0  0  0
   -2.6456   -2.5975    0.0000 H   0  0  0  0  0  0  0  0  0  0  0  0
   -7.3568   -0.9475    0.0000 H   0  0  0  0  0  0  0  0  0  0  0  0
   -7.3568    0.1225    0.0000 H   0  0  0  0  0  0  0  0  0  0  0  0
   -7.3568    0.9475    0.0000 H   0  0  0  0  0  0  0  0  0  0  0  0
   -6.4302    1.4825    0.0000 H   0  0  0  0  0  0  0  0  0  0  0  0
   -5.0012   -3.1325    0.0000 H   0  0  0  0  0  0  0  0  0  0  0  0
   -4.0746   -2.5975    0.0000 H   0  0  0  0  0  0  0  0  0  0  0  0
   -6.6423   -2.1850    0.0000 H   0  0  0  0  0  0  0  0  0  0  0  0
   -5.7157   -2.7200    0.0000 H   0  0  0  0  0  0  0  0  0  0  0  0
   -2.8580    0.5800    0.0000 H   0  0  0  0  0  0  0  0  0  0  0  0
   -3.7846    1.1150    0.0000 H   0  0  0  0  0  0  0  0  0  0  0  0
   -2.8580   -0.5800    0.0000 H   0  0  0  0  0  0  0  0  0  0  0  0
   -3.7846   -1.1150    0.0000 H   0  0  0  0  0  0  0  0  0  0  0  0
   -0.7142    3.1325    0.0000 H   0  0  0  0  0  0  0  0  0  0  0  0
   -1.6409    2.5976    0.0000 H   0  0  0  0  0  0  0  0  0  0  0  0
   -0.7142   -3.1325    0.0000 H   0  0  0  0  0  0  0  0  0  0  0  0
   -1.6409   -2.5976    0.0000 H   0  0  0  0  0  0  0  0  0  0  0  0
   -1.4290    0.5800    0.0000 H   0  0  0  0  0  0  0  0  0  0  0  0
   -2.3556    1.1150    0.0000 H   0  0  0  0  0  0  0  0  0  0  0  0
   -1.4290   -0.5800    0.0000 H   0  0  0  0  0  0  0  0  0  0  0  0
   -2.3556   -1.1150    0.0000 H   0  0  0  0  0  0  0  0  0  0  0  0
    0.7144   -3.1325    0.0000 H   0  0  0  0  0  0  0  0  0  0  0  0
    1.6410   -2.5975    0.0000 H   0  0  0  0  0  0  0  0  0  0  0  0
    1.4289   -0.5800    0.0000 H   0  0  0  0  0  0  0  0  0  0  0  0
    2.3555   -1.1149    0.0000 H   0  0  0  0  0  0  0  0  0  0  0  0
    0.7144    3.1325    0.0000 H   0  0  0  0  0  0  0  0  0  0  0  0
    1.6410    2.5975    0.0000 H   0  0  0  0  0  0  0  0  0  0  0  0
    1.4289    0.5800    0.0000 H   0  0  0  0  0  0  0  0  0  0  0  0
    2.3556    1.1150    0.0000 H   0  0  0  0  0  0  0  0  0  0  0  0
    3.5724    3.1325    0.0000 H   0  0  0  0  0  0  0  0  0  0  0  0
    2.6457    2.5976    0.0000 H   0  0  0  0  0  0  0  0  0  0  0  0
    2.8576    0.5800    0.0000 H   0  0  0  0  0  0  0  0  0  0  0  0
    1.9310    1.1150    0.0000 H   0  0  0  0  0  0  0  0  0  0  0  0
    3.5726   -3.1325    0.0000 H   0  0  0  0  0  0  0  0  0  0  0  0
    2.6459   -2.5975    0.0000 H   0  0  0  0  0  0  0  0  0  0  0  0
    2.8580   -0.5800    0.0000 H   0  0  0  0  0  0  0  0  0  0  0  0
    3.7846   -1.1150    0.0000 H   0  0  0  0  0  0  0  0  0  0  0  0
    5.7157    0.5800    0.0000 H   0  0  0  0  0  0  0  0  0  0  0  0
    4.7891    1.1150    0.0000 H   0  0  0  0  0  0  0  0  0  0  0  0
    5.0012    3.1325    0.0000 H   0  0  0  0  0  0  0  0  0  0  0  0
    5.9279    2.5975    0.0000 H   0  0  0  0  0  0  0  0  0  0  0  0
    5.7159   -0.5800    0.0000 H   0  0  0  0  0  0  0  0  0  0  0  0
    4.7892   -1.1149    0.0000 H   0  0  0  0  0  0  0  0  0  0  0  0
    5.0011   -3.1325    0.0000 H   0  0  0  0  0  0  0  0  0  0  0  0
    5.9278   -2.5976    0.0000 H   0  0  0  0  0  0  0  0  0  0  0  0
    6.4302   -3.0325    0.0000 H   0  0  0  0  0  0  0  0  0  0  0  0
   -0.0000    0.5800    0.0000 H   0  0  0  0  0  0  0  0  0  0  0  0
    0.9267    1.1150    0.0000 H   0  0  0  0  0  0  0  0  0  0  0  0
    2.1433    3.1325    0.0000 H   0  0  0  0  0  0  0  0  0  0  0  0
    3.0700    2.5975    0.0000 H   0  0  0  0  0  0  0  0  0  0  0  0
    4.2865    0.5800    0.0000 H   0  0  0  0  0  0  0  0  0  0  0  0
    5.2132    1.1149    0.0000 H   0  0  0  0  0  0  0  0  0  0  0  0
    7.3568    1.5275    0.0000 H   0  0  0  0  0  0  0  0  0  0  0  0
    6.4301    3.1325    0.0000 H   0  0  0  0  0  0  0  0  0  0  0  0
    7.3567    2.5975    0.0000 H   0  0  0  0  0  0  0  0  0  0  0  0
  1  9  1  0  0  0  0
  1 13  1  0  0  0  0
  1 41  1  0  0  0  0
  1 42  1  0  0  0  0
  2  3  1  0  0  0  0
  2  9  1  0  0  0  0
  2 43  1  0  0  0  0
  2 44  1  0  0  0  0
  3 45  1  0  0  0  0
  3 46  1  0  0  0  0
  4 12  1  0  0  0  0
  4 47  1  0  0  0  0
  4 48  1  0  0  0  0
  5  6  1  0  0  0  0
  5 49  1  0  0  0  0
  5 50  1  0  0  0  0
  6 51  1  0  0  0  0
  6 52  1  0  0  0  0
  7  8  1  0  0  0  0
  7 53  1  0  0  0  0
  7 54  1  0  0  0  0
  8 11  1  0  0  0  0
  8 55  1  0  0  0  0
  8 56  1  0  0  0  0
 10  6  1  0  0  0  0
 10  3  1  0  0  0  0
 11  5  1  0  0  0  0
 12  7  1  0  0  0  0
 13 57  1  0  0  0  0
 13 58  1  0  0  0  0
 14  4  1  0  0  0  0
 14 59  1  0  0  0  0
 14 60  1  0  0  0  0
 15 37  1  0  0  0  0
 15 18  1  0  0  0  0
 15 61  1  0  0  0  0
 15 62  1  0  0  0  0
 16 20  1  0  0  0  0
 16 63  1  0  0  0  0
 16 64  1  0  0  0  0
 17 13  1  0  0  0  0
 17 18  1  0  0  0  0
 18 65  1  0  0  0  0
 18 66  1  0  0  0  0
 19 14  1  0  0  0  0
 20 19  1  0  0  0  0
 20 67  1  0  0  0  0
 20 68  1  0  0  0  0
 21 16  1  0  0  0  0
 21 22  1  0  0  0  0
 22 23  1  0  0  0  0
 22 69  1  0  0  0  0
 22 70  1  0  0  0  0
 23 28  1  0  0  0  0
 23 71  1  0  0  0  0
 23 72  1  0  0  0  0
 24 37  1  0  0  0  0
 24 25  1  0  0  0  0
 24 73  1  0  0  0  0
 24 74  1  0  0  0  0
 25 75  1  0  0  0  0
 25 76  1  0  0  0  0
 26 39  1  0  0  0  0
 26 27  1  0  0  0  0
 26 77  1  0  0  0  0
 26 78  1  0  0  0  0
 27 79  1  0  0  0  0
 27 80  1  0  0  0  0
 29 30  1  0  0  0  0
 29 81  1  0  0  0  0
 29 82  1  0  0  0  0
 30 28  1  0  0  0  0
 30 83  1  0  0  0  0
 30 84  1  0  0  0  0
 31 32  1  0  0  0  0
 31 85  1  0  0  0  0
 31 86  1  0  0  0  0
 32 39  1  0  0  0  0
 32 87  1  0  0  0  0
 32 88  1  0  0  0  0
 33 29  1  0  0  0  0
 33 35  1  0  0  0  0
 34 36  1  0  0  0  0
 34 35  1  0  0  0  0
 34 89  1  0  0  0  0
 34 90  1  0  0  0  0
 35 91  1  0  0  0  0
 35 92  1  0  0  0  0
 36 93  1  0  0  0  0
 37 94  1  0  0  0  0
 37 95  1  0  0  0  0
 38 25  1  0  0  0  0
 38 27  1  0  0  0  0
 38 96  1  0  0  0  0
 38 97  1  0  0  0  0
 39 98  1  0  0  0  0
 39 99  1  0  0  0  0
 40 31  1  0  0  0  0
 40100  1  0  0  0  0
 40101  1  0  0  0  0
 40102  1  0  0  0  0
M  END
>  <DRUGBANK_ID>
DB06811

>  <COMMON_NAME>
Polidocanol

>  <CAS_NUMBER>
9002-92-0

>  <UNII>
0AWH8BFG9A

>  <SYNONYMS>
Aethoxy-sklerol; Laureth 9; Laureth-9; Macrogol 9 lauryl ether; Nonaethylene glycol monododecyl ether; Nonaethylene glycol monolauryl ether; PEG-9 lauryl ether; Polidocanol; Polydocanol; Polyethylene glycol 450 lauryl ether; Polyoxyl 9 lauryl ether

$$$$
