[NO NAME]
 OpenBabel10282417072D
Created with ChemWriter - http://chemwriter.com
 33 34  0  0  0  0  0  0  0  0999 V2000
    0.0000    0.8250    0.0000 O   0  0  0  0  0  0  0  0  0  0  0  0
    0.7145    0.4125    0.0000 C   0  0  0  0  0  0  0  0  0  0  0  0
   -0.7145   -0.4125    0.0000 C   0  0  0  0  0  0  0  0  0  0  0  0
   -0.7145    0.4125    0.0000 C   0  0  0  0  0  0  0  0  0  0  0  0
    0.7145   -0.4125    0.0000 C   0  0  0  0  0  0  0  0  0  0  0  0
   -1.4289    0.8250    0.0000 C   0  0  0  0  0  0  0  0  0  0  0  0
   -2.1434    0.4125    0.0000 C   0  0  0  0  0  0  0  0  0  0  0  0
   -2.1434   -0.4125    0.0000 C   0  0  0  0  0  0  0  0  0  0  0  0
   -1.4289   -0.8250    0.0000 C   0  0  0  0  0  0  0  0  0  0  0  0
    2.1434   -0.4125    0.0000 C   0  0  0  0  0  0  0  0  0  0  0  0
    2.1434    0.4125    0.0000 C   0  0  0  0  0  0  0  0  0  0  0  0
    1.4290   -0.8250    0.0000 C   0  0  0  0  0  0  0  0  0  0  0  0
    2.1433   -2.0625    0.0000 O   0  5  0  0  0  0  0  0  0  0  0  0
    1.4290   -1.6500    0.0000 N   0  3  0  0  0  0  0  0  0  0  0  0
    0.7144   -2.0625    0.0000 O   0  0  0  0  0  0  0  0  0  0  0  0
    1.4290    0.8250    0.0000 C   0  0  0  0  0  0  0  0  0  0  0  0
    1.4290    1.6500    0.0000 N   0  0  0  0  0  0  0  0  0  0  0  0
    2.1434    2.0625    0.0000 S   0  0  0  0  0  0  0  0  0  0  0  0
    2.1434    1.2375    0.0000 O   0  0  0  0  0  0  0  0  0  0  0  0
    2.1434    2.8875    0.0000 O   0  0  0  0  0  0  0  0  0  0  0  0
    2.8579    1.6499    0.0000 C   0  0  0  0  0  0  0  0  0  0  0  0
    0.1792   -0.9285    0.0000 H   0  0  0  0  0  0  0  0  0  0  0  0
   -0.1792   -0.9285    0.0000 H   0  0  0  0  0  0  0  0  0  0  0  0
   -1.4289    1.8570    0.0000 H   0  0  0  0  0  0  0  0  0  0  0  0
   -3.0371    0.9285    0.0000 H   0  0  0  0  0  0  0  0  0  0  0  0
   -3.0371   -0.9285    0.0000 H   0  0  0  0  0  0  0  0  0  0  0  0
   -1.4289   -1.8570    0.0000 H   0  0  0  0  0  0  0  0  0  0  0  0
    3.0371   -0.9285    0.0000 H   0  0  0  0  0  0  0  0  0  0  0  0
    3.0371    0.9285    0.0000 H   0  0  0  0  0  0  0  0  0  0  0  0
    0.5764    2.1422    0.0000 H   0  0  0  0  0  0  0  0  0  0  0  0
    2.8578    0.5799    0.0000 H   0  0  0  0  0  0  0  0  0  0  0  0
    3.7846    2.1848    0.0000 H   0  0  0  0  0  0  0  0  0  0  0  0
    3.7845    1.1148    0.0000 H   0  0  0  0  0  0  0  0  0  0  0  0
  1  2  1  0  0  0  0
  2  5  1  0  0  0  0
  3  4  1  0  0  0  0
  3 22  1  0  0  0  0
  4  1  1  0  0  0  0
  5 12  2  0  0  0  0
  5 23  1  0  0  0  0
  6  4  2  0  0  0  0
  6  7  1  0  0  0  0
  6 24  1  0  0  0  0
  7  8  2  0  0  0  0
  7 25  1  0  0  0  0
  8  9  1  0  0  0  0
  8 26  1  0  0  0  0
  9  3  2  0  0  0  0
  9 27  1  0  0  0  0
 10 11  2  0  0  0  0
 10 28  1  0  0  0  0
 11 29  1  0  0  0  0
 12 10  1  0  0  0  0
 12 14  1  0  0  0  0
 14 13  1  0  0  0  0
 14 15  2  0  0  0  0
 16  2  2  0  0  0  0
 16 11  1  0  0  0  0
 16 17  1  0  0  0  0
 17 18  1  0  0  0  0
 17 30  1  0  0  0  0
 18 20  2  0  0  0  0
 18 21  1  0  0  0  0
 18 19  2  0  0  0  0
 21 31  1  0  0  0  0
 21 32  1  0  0  0  0
 21 33  1  0  0  0  0
M  CHG  2  13  -1  14   1
M  END
>  <DRUGBANK_ID>
DB04743

>  <COMMON_NAME>
Nimesulide

>  <CAS_NUMBER>
51803-78-2

>  <UNII>
V4TKW1454M

>  <SYNONYMS>
Nimesulida; Nimesulide; Nimesulidum

$$$$
