
 OpenBabel10282417072D

 63 63  0  0  0  0  0  0  0  0999 V2000
   -2.5803   -0.4124    0.0000 C   0  0  2  0  0  0  0  0  0  0  0  0
   -2.5803    0.4125    0.0000 C   0  0  2  0  0  0  0  0  0  0  0  0
   -3.3649    0.6674    0.0000 C   0  0  0  0  0  0  0  0  0  0  0  0
   -3.8498    0.0000    0.0000 C   0  0  0  0  0  0  0  0  0  0  0  0
   -3.3649   -0.6673    0.0000 C   0  0  1  0  0  0  0  0  0  0  0  0
   -3.6176    1.4450    0.0000 O   0  0  0  0  0  0  0  0  0  0  0  0
   -3.6176   -1.4450    0.0000 O   0  0  0  0  0  0  0  0  0  0  0  0
   -1.8658    0.8250    0.0000 C   0  0  0  0  0  0  0  0  0  0  0  0
   -1.1513    0.4125    0.0000 C   0  0  0  0  0  0  0  0  0  0  0  0
   -0.4369    0.8250    0.0000 C   0  0  0  0  0  0  0  0  0  0  0  0
    0.2775    0.4125    0.0000 C   0  0  0  0  0  0  0  0  0  0  0  0
    0.9920    0.8250    0.0000 C   0  0  0  0  0  0  0  0  0  0  0  0
    1.7064    0.4125    0.0000 C   0  0  0  0  0  0  0  0  0  0  0  0
    2.4209    0.8250    0.0000 C   0  0  0  0  0  0  0  0  0  0  0  0
    3.1354    0.4125    0.0000 O   0  0  0  0  0  0  0  0  0  0  0  0
   -1.8658   -0.8249    0.0000 C   0  0  0  0  0  0  0  0  0  0  0  0
   -1.1513   -0.4124    0.0000 C   0  0  0  0  0  0  0  0  0  0  0  0
   -0.4369   -0.8249    0.0000 C   0  0  2  0  0  0  0  0  0  0  0  0
    0.2775   -0.4124    0.0000 C   0  0  0  0  0  0  0  0  0  0  0  0
    0.9920   -0.8249    0.0000 C   0  0  2  0  0  0  0  0  0  0  0  0
    1.7064   -0.4124    0.0000 C   0  0  0  0  0  0  0  0  0  0  0  0
    2.4209   -0.8249    0.0000 C   0  0  0  0  0  0  0  0  0  0  0  0
    3.1354   -0.4124    0.0000 C   0  0  0  0  0  0  0  0  0  0  0  0
    3.8498   -0.8249    0.0000 C   0  0  0  0  0  0  0  0  0  0  0  0
    2.4209    1.6499    0.0000 O   0  0  0  0  0  0  0  0  0  0  0  0
   -0.4369   -1.6499    0.0000 O   0  0  0  0  0  0  0  0  0  0  0  0
    0.9920   -1.6497    0.0000 C   0  0  0  0  0  0  0  0  0  0  0  0
   -1.6537    0.1226    0.0000 H   0  0  0  0  0  0  0  0  0  0  0  0
   -1.6537   -0.1225    0.0000 H   0  0  0  0  0  0  0  0  0  0  0  0
   -4.9198   -0.0000    0.0000 H   0  0  0  0  0  0  0  0  0  0  0  0
   -4.3355   -0.9534    0.0000 H   0  0  0  0  0  0  0  0  0  0  0  0
   -4.4217   -0.8347    0.0000 H   0  0  0  0  0  0  0  0  0  0  0  0
   -4.5664   -1.6467    0.0000 H   0  0  0  0  0  0  0  0  0  0  0  0
   -1.8658    1.8950    0.0000 H   0  0  0  0  0  0  0  0  0  0  0  0
   -0.9392    1.3600    0.0000 H   0  0  0  0  0  0  0  0  0  0  0  0
   -1.1513   -0.6575    0.0000 H   0  0  0  0  0  0  0  0  0  0  0  0
   -0.2246   -0.1225    0.0000 H   0  0  0  0  0  0  0  0  0  0  0  0
   -0.4369    1.8950    0.0000 H   0  0  0  0  0  0  0  0  0  0  0  0
    0.4898    1.3600    0.0000 H   0  0  0  0  0  0  0  0  0  0  0  0
    0.2775   -0.6575    0.0000 H   0  0  0  0  0  0  0  0  0  0  0  0
    1.2041   -0.1225    0.0000 H   0  0  0  0  0  0  0  0  0  0  0  0
    0.9920    1.8570    0.0000 H   0  0  0  0  0  0  0  0  0  0  0  0
    1.7064   -0.6195    0.0000 H   0  0  0  0  0  0  0  0  0  0  0  0
    3.1354   -0.5245    0.0000 H   0  0  0  0  0  0  0  0  0  0  0  0
   -1.8658   -1.8569    0.0000 H   0  0  0  0  0  0  0  0  0  0  0  0
   -1.1513    0.6196    0.0000 H   0  0  0  0  0  0  0  0  0  0  0  0
   -1.3636   -1.3599    0.0000 H   0  0  0  0  0  0  0  0  0  0  0  0
    0.2775    0.6576    0.0000 H   0  0  0  0  0  0  0  0  0  0  0  0
    1.2041    0.1226    0.0000 H   0  0  0  0  0  0  0  0  0  0  0  0
    0.0654   -1.3599    0.0000 H   0  0  0  0  0  0  0  0  0  0  0  0
    1.7064    0.6576    0.0000 H   0  0  0  0  0  0  0  0  0  0  0  0
    2.6330    0.1226    0.0000 H   0  0  0  0  0  0  0  0  0  0  0  0
    2.4209   -1.8949    0.0000 H   0  0  0  0  0  0  0  0  0  0  0  0
    3.3475   -1.3599    0.0000 H   0  0  0  0  0  0  0  0  0  0  0  0
    3.1354    0.6576    0.0000 H   0  0  0  0  0  0  0  0  0  0  0  0
    4.0621    0.1226    0.0000 H   0  0  0  0  0  0  0  0  0  0  0  0
    3.8498   -1.8949    0.0000 H   0  0  0  0  0  0  0  0  0  0  0  0
    4.7765   -0.2899    0.0000 H   0  0  0  0  0  0  0  0  0  0  0  0
    4.7764   -1.3599    0.0000 H   0  0  0  0  0  0  0  0  0  0  0  0
   -1.2769   -2.1349    0.0000 H   0  0  0  0  0  0  0  0  0  0  0  0
    0.0654   -2.1847    0.0000 H   0  0  0  0  0  0  0  0  0  0  0  0
    1.9186   -2.1847    0.0000 H   0  0  0  0  0  0  0  0  0  0  0  0
    0.9920   -2.7197    0.0000 H   0  0  0  0  0  0  0  0  0  0  0  0
  1  2  1  0  0  0  0
  1  5  1  0  0  0  0
  1 16  1  0  0  0  0
  1 28  1  6  0  0  0
  2  3  1  0  0  0  0
  2  8  1  0  0  0  0
  2 29  1  1  0  0  0
  3  4  1  0  0  0  0
  3  6  2  0  0  0  0
  4  5  1  0  0  0  0
  4 30  1  0  0  0  0
  4 31  1  0  0  0  0
  5  7  1  0  0  0  0
  5 32  1  1  0  0  0
  7 33  1  0  0  0  0
  8  9  1  0  0  0  0
  8 34  1  0  0  0  0
  8 35  1  0  0  0  0
  9 10  1  0  0  0  0
  9 36  1  0  0  0  0
  9 37  1  0  0  0  0
 10 11  1  0  0  0  0
 10 38  1  0  0  0  0
 10 39  1  0  0  0  0
 11 12  1  0  0  0  0
 11 40  1  0  0  0  0
 11 41  1  0  0  0  0
 12 13  2  0  0  0  0
 12 42  1  0  0  0  0
 13 14  1  0  0  0  0
 13 43  1  0  0  0  0
 14 15  1  0  0  0  0
 14 25  2  0  0  0  0
 15 44  1  0  0  0  0
 16 17  2  0  0  0  0
 16 45  1  0  0  0  0
 17 18  1  0  0  0  0
 17 46  1  0  0  0  0
 18 19  1  0  0  0  0
 18 26  1  0  0  0  0
 18 47  1  1  0  0  0
 19 20  1  0  0  0  0
 19 48  1  0  0  0  0
 19 49  1  0  0  0  0
 20 21  1  0  0  0  0
 20 27  1  0  0  0  0
 20 50  1  1  0  0  0
 21 22  1  0  0  0  0
 21 51  1  0  0  0  0
 21 52  1  0  0  0  0
 22 23  1  0  0  0  0
 22 53  1  0  0  0  0
 22 54  1  0  0  0  0
 23 24  1  0  0  0  0
 23 55  1  0  0  0  0
 23 56  1  0  0  0  0
 24 57  1  0  0  0  0
 24 58  1  0  0  0  0
 24 59  1  0  0  0  0
 26 60  1  0  0  0  0
 27 61  1  0  0  0  0
 27 62  1  0  0  0  0
 27 63  1  0  0  0  0
M  END
>  <DRUGBANK_ID>
DB09211

>  <COMMON_NAME>
Limaprost

>  <CAS_NUMBER>
74397-12-9

>  <UNII>
L02U804092

>  <SYNONYMS>
Limaprost; Limaprost alfadex

$$$$
