
 OpenBabel10282417072D

  5  4  0  0  0  0  0  0  0  0999 V2000
    0.0000   -0.4125    0.0000 Cl  0  0  0  0  0  0  0  0  0  0  0  0
    0.7145   -0.8250    0.0000 O   0  0  0  0  0  0  0  0  0  0  0  0
   -0.7145   -0.8250    0.0000 O   0  0  0  0  0  0  0  0  0  0  0  0
    0.0000    0.4125    0.0000 O   0  0  0  0  0  0  0  0  0  0  0  0
    0.7145    0.8250    0.0000 H   0  0  0  0  0  0  0  0  0  0  0  0
  1  3  2  0  0  0  0
  1  4  1  0  0  0  0
  1  2  2  0  0  0  0
  4  5  1  0  0  0  0
M  END
>  <DRUGBANK_ID>
DB14150

>  <COMMON_NAME>
Chloric acid

>  <CAS_NUMBER>
7790-93-4

>  <UNII>
Z0V9L75H3K

>  <SYNONYMS>
Chlorate; Chlors√§ure

$$$$
