
 OpenBabel10282417072D

 50 50  0  0  0  0  0  0  0  0999 V2000
   -1.7862   -1.8562    0.0000 O   0  0  0  0  0  0  0  0  0  0  0  0
   -1.7862   -4.3313    0.0000 O   0  0  0  0  0  0  0  0  0  0  0  0
   -3.2152   -3.5063    0.0000 O   0  0  0  0  0  0  0  0  0  0  0  0
   -0.3572   -3.5063    0.0000 O   0  0  0  0  0  0  0  0  0  0  0  0
   -3.2152   -1.0312    0.0000 O   0  0  0  0  0  0  0  0  0  0  0  0
   -1.0717   -0.6187    0.0000 O   0  0  0  0  0  0  0  0  0  0  0  0
    2.5006    3.9188    0.0000 O   0  0  0  0  0  0  0  0  0  0  0  0
    3.2152    2.6813    0.0000 O   0  0  0  0  0  0  0  0  0  0  0  0
   -0.3572   -1.8562    0.0000 N   0  0  0  0  0  0  0  0  0  0  0  0
    1.7862    2.6813    0.0000 N   0  0  0  0  0  0  0  0  0  0  0  0
   -1.7862   -3.5063    0.0000 C   0  0  1  0  0  0  0  0  0  0  0  0
   -2.5006   -3.0938    0.0000 C   0  0  2  0  0  0  0  0  0  0  0  0
   -1.0717   -3.0938    0.0000 C   0  0  2  0  0  0  0  0  0  0  0  0
   -2.5006   -2.2687    0.0000 C   0  0  1  0  0  0  0  0  0  0  0  0
   -1.0717   -2.2687    0.0000 C   0  0  1  0  0  0  0  0  0  0  0  0
   -3.2152   -1.8562    0.0000 C   0  0  0  0  0  0  0  0  0  0  0  0
   -0.3572   -1.0312    0.0000 C   0  0  0  0  0  0  0  0  0  0  0  0
    0.3572   -0.6187    0.0000 C   0  0  0  0  0  0  0  0  0  0  0  0
    0.3572    0.2062    0.0000 C   0  0  0  0  0  0  0  0  0  0  0  0
    1.0717    0.6187    0.0000 C   0  0  0  0  0  0  0  0  0  0  0  0
    1.0717    1.4437    0.0000 C   0  0  0  0  0  0  0  0  0  0  0  0
    1.7862    1.8562    0.0000 C   0  0  0  0  0  0  0  0  0  0  0  0
    2.5006    3.0938    0.0000 C   0  0  0  0  0  0  0  0  0  0  0  0
    3.2152    4.3313    0.0000 C   0  0  0  0  0  0  0  0  0  0  0  0
    0.0857   -2.1120    0.0000 H   0  0  0  0  0  0  0  0  0  0  0  0
    1.3432    2.9370    0.0000 H   0  0  0  0  0  0  0  0  0  0  0  0
   -2.6262   -4.8163    0.0000 H   0  0  0  0  0  0  0  0  0  0  0  0
   -4.0552   -3.0212    0.0000 H   0  0  0  0  0  0  0  0  0  0  0  0
   -0.3572   -4.4763    0.0000 H   0  0  0  0  0  0  0  0  0  0  0  0
   -2.3752   -0.5462    0.0000 H   0  0  0  0  0  0  0  0  0  0  0  0
   -2.7129   -4.0413    0.0000 H   0  0  0  0  0  0  0  0  0  0  0  0
   -2.5007   -4.1638    0.0000 H   0  0  0  0  0  0  0  0  0  0  0  0
   -1.0717   -4.1638    0.0000 H   0  0  0  0  0  0  0  0  0  0  0  0
   -2.5007   -1.1987    0.0000 H   0  0  0  0  0  0  0  0  0  0  0  0
   -1.0717   -1.1987    0.0000 H   0  0  0  0  0  0  0  0  0  0  0  0
   -4.1418   -2.3912    0.0000 H   0  0  0  0  0  0  0  0  0  0  0  0
   -3.2151   -2.9262    0.0000 H   0  0  0  0  0  0  0  0  0  0  0  0
    1.2839   -1.1537    0.0000 H   0  0  0  0  0  0  0  0  0  0  0  0
    1.2838   -0.0837    0.0000 H   0  0  0  0  0  0  0  0  0  0  0  0
   -0.5694    0.7412    0.0000 H   0  0  0  0  0  0  0  0  0  0  0  0
    0.3572    1.2762    0.0000 H   0  0  0  0  0  0  0  0  0  0  0  0
    1.9983    0.0837    0.0000 H   0  0  0  0  0  0  0  0  0  0  0  0
    1.9983    1.1537    0.0000 H   0  0  0  0  0  0  0  0  0  0  0  0
    0.1451    1.9787    0.0000 H   0  0  0  0  0  0  0  0  0  0  0  0
    1.0717    2.5137    0.0000 H   0  0  0  0  0  0  0  0  0  0  0  0
    2.7128    1.3212    0.0000 H   0  0  0  0  0  0  0  0  0  0  0  0
    1.7862    0.7862    0.0000 H   0  0  0  0  0  0  0  0  0  0  0  0
    4.1418    3.7962    0.0000 H   0  0  0  0  0  0  0  0  0  0  0  0
    3.2153    5.4013    0.0000 H   0  0  0  0  0  0  0  0  0  0  0  0
    4.1419    4.8662    0.0000 H   0  0  0  0  0  0  0  0  0  0  0  0
  1 14  1  0  0  0  0
  1 15  1  0  0  0  0
  2 27  1  0  0  0  0
  3 28  1  0  0  0  0
  4 29  1  0  0  0  0
  5 16  1  0  0  0  0
  5 30  1  0  0  0  0
  6 17  2  0  0  0  0
  7 23  1  0  0  0  0
  7 24  1  0  0  0  0
  8 23  2  0  0  0  0
  9 17  1  0  0  0  0
  9 25  1  0  0  0  0
 10 22  1  0  0  0  0
 10 23  1  0  0  0  0
 10 26  1  0  0  0  0
 11  2  1  0  0  0  0
 11 12  1  0  0  0  0
 11 13  1  0  0  0  0
 11 31  1  6  0  0  0
 12  3  1  0  0  0  0
 12 14  1  0  0  0  0
 12 32  1  6  0  0  0
 13  4  1  0  0  0  0
 13 15  1  0  0  0  0
 13 33  1  1  0  0  0
 14 16  1  0  0  0  0
 14 34  1  6  0  0  0
 15  9  1  0  0  0  0
 15 35  1  6  0  0  0
 16 36  1  0  0  0  0
 16 37  1  0  0  0  0
 17 18  1  0  0  0  0
 18 19  1  0  0  0  0
 18 38  1  0  0  0  0
 18 39  1  0  0  0  0
 19 20  1  0  0  0  0
 19 40  1  0  0  0  0
 19 41  1  0  0  0  0
 20 21  1  0  0  0  0
 20 42  1  0  0  0  0
 20 43  1  0  0  0  0
 21 22  1  0  0  0  0
 21 44  1  0  0  0  0
 21 45  1  0  0  0  0
 22 46  1  0  0  0  0
 22 47  1  0  0  0  0
 24 48  1  0  0  0  0
 24 49  1  0  0  0  0
 24 50  1  0  0  0  0
M  END
>  <DRUGBANK_ID>
DB02474

>  <SECONDARY_ACCESSION_NUMBERS>
EXPT00089

>  <COMMON_NAME>
BMSC-0013

>  <SYNONYMS>
N-{6-[(Methoxycarbonyl)amino]hexanoyl}-Î²-D-galactopyranosylamine

$$$$
