
 OpenBabel10282417072D

 63 67  0  0  0  0  0  0  0  0999 V2000
   -4.3409   -1.4124    0.0000 C   0  0  0  0  0  0  0  0  0  0  0  0
   -3.9284   -0.6979    0.0000 O   0  0  0  0  0  0  0  0  0  0  0  0
   -3.1034   -0.6979    0.0000 C   0  0  0  0  0  0  0  0  0  0  0  0
   -2.6909    0.0165    0.0000 C   0  0  0  0  0  0  0  0  0  0  0  0
   -1.8659    0.0165    0.0000 C   0  0  0  0  0  0  0  0  0  0  0  0
   -1.4534   -0.6979    0.0000 C   0  0  0  0  0  0  0  0  0  0  0  0
   -1.8659   -1.4124    0.0000 C   0  0  0  0  0  0  0  0  0  0  0  0
   -2.6909   -1.4124    0.0000 C   0  0  0  0  0  0  0  0  0  0  0  0
   -0.6284   -0.6979    0.0000 C   0  0  0  0  0  0  0  0  0  0  0  0
   -0.1435   -1.3654    0.0000 C   0  0  0  0  0  0  0  0  0  0  0  0
    0.6411   -1.1104    0.0000 C   0  0  0  0  0  0  0  0  0  0  0  0
    0.6411   -0.2854    0.0000 C   0  0  0  0  0  0  0  0  0  0  0  0
   -0.1435   -0.0305    0.0000 S   0  0  0  0  0  0  0  0  0  0  0  0
    1.3556    0.1271    0.0000 C   0  0  0  0  0  0  0  0  0  0  0  0
    2.0701   -0.2854    0.0000 C   0  0  0  0  0  0  0  0  0  0  0  0
    2.0701   -1.1104    0.0000 C   0  0  0  0  0  0  0  0  0  0  0  0
    1.3556   -1.5229    0.0000 C   0  0  0  0  0  0  0  0  0  0  0  0
    2.7845    0.1271    0.0000 O   0  0  0  0  0  0  0  0  0  0  0  0
   -0.3984   -2.1500    0.0000 O   0  0  0  0  0  0  0  0  0  0  0  0
    0.1536   -2.7631    0.0000 C   0  0  0  0  0  0  0  0  0  0  0  0
    0.9606   -2.5916    0.0000 C   0  0  0  0  0  0  0  0  0  0  0  0
    1.5126   -3.2047    0.0000 C   0  0  0  0  0  0  0  0  0  0  0  0
    1.2577   -3.9893    0.0000 C   0  0  0  0  0  0  0  0  0  0  0  0
    0.4507   -4.1608    0.0000 C   0  0  0  0  0  0  0  0  0  0  0  0
   -0.1014   -3.5477    0.0000 C   0  0  0  0  0  0  0  0  0  0  0  0
    1.8097   -4.6024    0.0000 O   0  0  0  0  0  0  0  0  0  0  0  0
    1.5547   -5.3870    0.0000 C   0  0  0  0  0  0  0  0  0  0  0  0
    2.1068   -6.0001    0.0000 C   0  0  0  0  0  0  0  0  0  0  0  0
    2.9138   -5.8286    0.0000 N   0  0  0  0  0  0  0  0  0  0  0  0
    3.1687   -5.0439    0.0000 C   0  0  0  0  0  0  0  0  0  0  0  0
    3.9757   -4.8724    0.0000 C   0  0  0  0  0  0  0  0  0  0  0  0
    4.5277   -5.4855    0.0000 C   0  0  0  0  0  0  0  0  0  0  0  0
    4.2728   -6.2701    0.0000 C   0  0  0  0  0  0  0  0  0  0  0  0
    3.4658   -6.4417    0.0000 C   0  0  0  0  0  0  0  0  0  0  0  0
   -5.4109   -1.4124    0.0000 H   0  0  0  0  0  0  0  0  0  0  0  0
   -3.8059   -2.3390    0.0000 H   0  0  0  0  0  0  0  0  0  0  0  0
   -4.8759   -2.3391    0.0000 H   0  0  0  0  0  0  0  0  0  0  0  0
   -3.2069    0.9102    0.0000 H   0  0  0  0  0  0  0  0  0  0  0  0
   -1.3499    0.9102    0.0000 H   0  0  0  0  0  0  0  0  0  0  0  0
   -1.3499   -2.3061    0.0000 H   0  0  0  0  0  0  0  0  0  0  0  0
   -3.2069   -2.3061    0.0000 H   0  0  0  0  0  0  0  0  0  0  0  0
    1.3556    1.1591    0.0000 H   0  0  0  0  0  0  0  0  0  0  0  0
    2.9638   -1.6264    0.0000 H   0  0  0  0  0  0  0  0  0  0  0  0
    1.3556   -2.5549    0.0000 H   0  0  0  0  0  0  0  0  0  0  0  0
    3.5960   -0.3414    0.0000 H   0  0  0  0  0  0  0  0  0  0  0  0
    1.2795   -1.6101    0.0000 H   0  0  0  0  0  0  0  0  0  0  0  0
    2.5220   -2.9901    0.0000 H   0  0  0  0  0  0  0  0  0  0  0  0
    0.1318   -5.1423    0.0000 H   0  0  0  0  0  0  0  0  0  0  0  0
   -1.1109   -3.7623    0.0000 H   0  0  0  0  0  0  0  0  0  0  0  0
    0.5081   -5.6095    0.0000 H   0  0  0  0  0  0  0  0  0  0  0  0
    1.2241   -6.4046    0.0000 H   0  0  0  0  0  0  0  0  0  0  0  0
    1.7762   -7.0177    0.0000 H   0  0  0  0  0  0  0  0  0  0  0  0
    2.8228   -6.7953    0.0000 H   0  0  0  0  0  0  0  0  0  0  0  0
    2.4527   -4.2487    0.0000 H   0  0  0  0  0  0  0  0  0  0  0  0
    3.4994   -4.0263    0.0000 H   0  0  0  0  0  0  0  0  0  0  0  0
    4.3064   -3.8548    0.0000 H   0  0  0  0  0  0  0  0  0  0  0  0
    5.0223   -4.6500    0.0000 H   0  0  0  0  0  0  0  0  0  0  0  0
    5.5743   -5.2630    0.0000 H   0  0  0  0  0  0  0  0  0  0  0  0
    5.2437   -6.2807    0.0000 H   0  0  0  0  0  0  0  0  0  0  0  0
    4.9888   -7.0652    0.0000 H   0  0  0  0  0  0  0  0  0  0  0  0
    3.9422   -7.2878    0.0000 H   0  0  0  0  0  0  0  0  0  0  0  0
    3.1352   -7.4593    0.0000 H   0  0  0  0  0  0  0  0  0  0  0  0
    2.4192   -6.6642    0.0000 H   0  0  0  0  0  0  0  0  0  0  0  0
  1  2  1  0  0  0  0
  1 35  1  0  0  0  0
  1 36  1  0  0  0  0
  1 37  1  0  0  0  0
  2  3  1  0  0  0  0
  3  4  2  0  0  0  0
  3  8  1  0  0  0  0
  4  5  1  0  0  0  0
  4 38  1  0  0  0  0
  5  6  2  0  0  0  0
  5 39  1  0  0  0  0
  6  7  1  0  0  0  0
  6  9  1  0  0  0  0
  7  8  2  0  0  0  0
  7 40  1  0  0  0  0
  8 41  1  0  0  0  0
  9 10  2  0  0  0  0
  9 13  1  0  0  0  0
 10 11  1  0  0  0  0
 10 19  1  0  0  0  0
 11 12  2  0  0  0  0
 11 17  1  0  0  0  0
 12 13  1  0  0  0  0
 12 14  1  0  0  0  0
 14 15  2  0  0  0  0
 14 42  1  0  0  0  0
 15 16  1  0  0  0  0
 15 18  1  0  0  0  0
 16 17  2  0  0  0  0
 16 43  1  0  0  0  0
 17 44  1  0  0  0  0
 18 45  1  0  0  0  0
 19 20  1  0  0  0  0
 20 21  2  0  0  0  0
 20 25  1  0  0  0  0
 21 22  1  0  0  0  0
 21 46  1  0  0  0  0
 22 23  2  0  0  0  0
 22 47  1  0  0  0  0
 23 24  1  0  0  0  0
 23 26  1  0  0  0  0
 24 25  2  0  0  0  0
 24 48  1  0  0  0  0
 25 49  1  0  0  0  0
 26 27  1  0  0  0  0
 27 28  1  0  0  0  0
 27 50  1  0  0  0  0
 27 51  1  0  0  0  0
 28 29  1  0  0  0  0
 28 52  1  0  0  0  0
 28 53  1  0  0  0  0
 29 30  1  0  0  0  0
 29 34  1  0  0  0  0
 30 31  1  0  0  0  0
 30 54  1  0  0  0  0
 30 55  1  0  0  0  0
 31 32  1  0  0  0  0
 31 56  1  0  0  0  0
 31 57  1  0  0  0  0
 32 33  1  0  0  0  0
 32 58  1  0  0  0  0
 32 59  1  0  0  0  0
 33 34  1  0  0  0  0
 33 60  1  0  0  0  0
 33 61  1  0  0  0  0
 34 62  1  0  0  0  0
 34 63  1  0  0  0  0
M  END
>  <DRUGBANK_ID>
DB06249

>  <COMMON_NAME>
Arzoxifene

>  <CAS_NUMBER>
182133-25-1

>  <UNII>
E569WG6E60

>  <SYNONYMS>
Arzoxifene

$$$$
