
 OpenBabel10282417072D

 30 31  0  0  0  0  0  0  0  0999 V2000
   -3.6603    4.1047    0.0000 C   0  0  0  0  0  0  0  0  0  0  0  0
   -3.4888    3.2977    0.0000 C   0  0  0  0  0  0  0  0  0  0  0  0
   -4.6164    5.1666    0.0000 C   0  0  0  0  0  0  0  0  0  0  0  0
   -5.0580    3.8076    0.0000 C   0  0  0  0  0  0  0  0  0  0  0  0
   -5.4011    5.4215    0.0000 C   0  0  0  0  0  0  0  0  0  0  0  0
   -5.8426    4.0625    0.0000 C   0  0  0  0  0  0  0  0  0  0  0  0
   -1.3693    3.0428    0.0000 C   0  0  0  0  0  0  0  0  0  0  0  0
   -2.4492    2.2581    0.0000 C   0  0  0  0  0  0  0  0  0  0  0  0
   -2.0367    3.5277    0.0000 C   0  0  0  0  0  0  0  0  0  0  0  0
   -1.6242    2.2581    0.0000 N   0  0  0  0  0  0  0  0  0  0  0  0
   -4.4449    4.3596    0.0000 N   0  0  0  0  0  0  0  0  0  0  0  0
   -2.7041    3.0428    0.0000 N   0  0  0  0  0  0  0  0  0  0  0  0
   -2.0367    4.3527    0.0000 N   0  0  0  0  0  0  0  0  0  0  0  0
   -1.3222    4.7652    0.0000 O   0  0  0  0  0  0  0  0  0  0  0  0
   -2.7512    4.7652    0.0000 O   0  0  0  0  0  0  0  0  0  0  0  0
   -6.0142    4.8695    0.0000 O   0  0  0  0  0  0  0  0  0  0  0  0
   -2.8651    4.8207    0.0000 H   0  0  0  0  0  0  0  0  0  0  0  0
   -3.8828    5.1513    0.0000 H   0  0  0  0  0  0  0  0  0  0  0  0
   -4.2840    2.5817    0.0000 H   0  0  0  0  0  0  0  0  0  0  0  0
   -3.2663    2.2511    0.0000 H   0  0  0  0  0  0  0  0  0  0  0  0
   -3.8212    5.8826    0.0000 H   0  0  0  0  0  0  0  0  0  0  0  0
   -3.5988    4.8359    0.0000 H   0  0  0  0  0  0  0  0  0  0  0  0
   -4.8355    2.7610    0.0000 H   0  0  0  0  0  0  0  0  0  0  0  0
   -4.0404    3.4769    0.0000 H   0  0  0  0  0  0  0  0  0  0  0  0
   -5.6236    6.4681    0.0000 H   0  0  0  0  0  0  0  0  0  0  0  0
   -6.4187    5.7522    0.0000 H   0  0  0  0  0  0  0  0  0  0  0  0
   -6.6377    3.3465    0.0000 H   0  0  0  0  0  0  0  0  0  0  0  0
   -6.8603    4.3931    0.0000 H   0  0  0  0  0  0  0  0  0  0  0  0
   -0.3878    3.3617    0.0000 H   0  0  0  0  0  0  0  0  0  0  0  0
   -3.0558    1.4232    0.0000 H   0  0  0  0  0  0  0  0  0  0  0  0
  1 17  1  0  0  0  0
  1 18  1  0  0  0  0
  2  1  1  0  0  0  0
  2 19  1  0  0  0  0
  2 20  1  0  0  0  0
  3 21  1  0  0  0  0
  3 22  1  0  0  0  0
  4 23  1  0  0  0  0
  4 24  1  0  0  0  0
  5  3  1  0  0  0  0
  5 25  1  0  0  0  0
  5 26  1  0  0  0  0
  6  4  1  0  0  0  0
  6 27  1  0  0  0  0
  6 28  1  0  0  0  0
  7 29  1  0  0  0  0
  8 30  1  0  0  0  0
  9  7  2  0  0  0  0
 10  7  1  0  0  0  0
 10  8  2  0  0  0  0
 11  1  1  0  0  0  0
 11  3  1  0  0  0  0
 11  4  1  0  0  0  0
 12  2  1  0  0  0  0
 12  8  1  0  0  0  0
 12  9  1  0  0  0  0
 13  9  1  0  0  0  0
 14 13  2  0  0  0  0
 15 13  2  0  0  0  0
 16  5  1  0  0  0  0
 16  6  1  0  0  0  0
M  END
>  <DRUGBANK_ID>
DB12172

>  <COMMON_NAME>
Nimorazole

>  <CAS_NUMBER>
6506-37-2

>  <UNII>
469ULX0H4G

>  <SYNONYMS>
Nimorazole

$$$$
