
 OpenBabel10282417072D

 55 54  0  0  0  0  0  0  0  0999 V2000
   -1.2888    7.5059    0.0000 C   0  0  0  0  0  0  0  0  0  0  0  0
   -0.5743    7.0934    0.0000 C   0  0  0  0  0  0  0  0  0  0  0  0
   -0.5743    6.2684    0.0000 C   0  0  0  0  0  0  0  0  0  0  0  0
    0.1401    5.8559    0.0000 C   0  0  0  0  0  0  0  0  0  0  0  0
    0.1401    5.0309    0.0000 C   0  0  0  0  0  0  0  0  0  0  0  0
    0.8546    4.6184    0.0000 C   0  0  0  0  0  0  0  0  0  0  0  0
    0.8546    3.7934    0.0000 C   0  0  0  0  0  0  0  0  0  0  0  0
    1.5691    3.3809    0.0000 C   0  0  0  0  0  0  0  0  0  0  0  0
    1.5691    2.5559    0.0000 C   0  0  0  0  0  0  0  0  0  0  0  0
    2.2836    2.1434    0.0000 C   0  0  0  0  0  0  0  0  0  0  0  0
    2.9980    2.5559    0.0000 C   0  0  0  0  0  0  0  0  0  0  0  0
    3.7125    2.1434    0.0000 C   0  0  0  0  0  0  0  0  0  0  0  0
    4.4270    2.5559    0.0000 C   0  0  0  0  0  0  0  0  0  0  0  0
    5.1414    2.1434    0.0000 C   0  0  0  0  0  0  0  0  0  0  0  0
    5.8559    2.5559    0.0000 C   0  0  0  0  0  0  0  0  0  0  0  0
    6.5704    2.1434    0.0000 C   0  0  0  0  0  0  0  0  0  0  0  0
    7.2849    2.5559    0.0000 C   0  0  3  0  0  0  0  0  0  0  0  0
    7.2849    3.3809    0.0000 O   0  0  0  0  0  0  0  0  0  0  0  0
    7.9993    2.1434    0.0000 C   0  0  0  0  0  0  0  0  0  0  0  0
    8.7138    2.5559    0.0000 O   0  0  0  0  0  0  0  0  0  0  0  0
    7.9993    1.3184    0.0000 O   0  0  0  0  0  0  0  0  0  0  0  0
   -1.2888    8.5759    0.0000 H   0  0  0  0  0  0  0  0  0  0  0  0
   -2.2154    6.9709    0.0000 H   0  0  0  0  0  0  0  0  0  0  0  0
   -2.2155    8.0409    0.0000 H   0  0  0  0  0  0  0  0  0  0  0  0
    0.3523    7.6284    0.0000 H   0  0  0  0  0  0  0  0  0  0  0  0
    0.3523    6.5584    0.0000 H   0  0  0  0  0  0  0  0  0  0  0  0
   -1.5010    5.7334    0.0000 H   0  0  0  0  0  0  0  0  0  0  0  0
   -0.5743    5.1984    0.0000 H   0  0  0  0  0  0  0  0  0  0  0  0
    1.0668    6.3909    0.0000 H   0  0  0  0  0  0  0  0  0  0  0  0
    1.0667    5.3209    0.0000 H   0  0  0  0  0  0  0  0  0  0  0  0
   -0.7865    4.4959    0.0000 H   0  0  0  0  0  0  0  0  0  0  0  0
    0.1401    3.9609    0.0000 H   0  0  0  0  0  0  0  0  0  0  0  0
    1.7812    5.1534    0.0000 H   0  0  0  0  0  0  0  0  0  0  0  0
    1.7812    4.0834    0.0000 H   0  0  0  0  0  0  0  0  0  0  0  0
   -0.0720    3.2584    0.0000 H   0  0  0  0  0  0  0  0  0  0  0  0
    0.8546    2.7234    0.0000 H   0  0  0  0  0  0  0  0  0  0  0  0
    2.4957    3.9159    0.0000 H   0  0  0  0  0  0  0  0  0  0  0  0
    2.4957    2.8459    0.0000 H   0  0  0  0  0  0  0  0  0  0  0  0
    0.6754    2.0399    0.0000 H   0  0  0  0  0  0  0  0  0  0  0  0
    2.2836    1.1114    0.0000 H   0  0  0  0  0  0  0  0  0  0  0  0
    2.9980    3.6259    0.0000 H   0  0  0  0  0  0  0  0  0  0  0  0
    3.9246    3.0909    0.0000 H   0  0  0  0  0  0  0  0  0  0  0  0
    3.7125    1.0734    0.0000 H   0  0  0  0  0  0  0  0  0  0  0  0
    4.6391    1.6084    0.0000 H   0  0  0  0  0  0  0  0  0  0  0  0
    4.4270    3.6259    0.0000 H   0  0  0  0  0  0  0  0  0  0  0  0
    5.3537    3.0909    0.0000 H   0  0  0  0  0  0  0  0  0  0  0  0
    5.1414    1.0734    0.0000 H   0  0  0  0  0  0  0  0  0  0  0  0
    6.0680    1.6084    0.0000 H   0  0  0  0  0  0  0  0  0  0  0  0
    5.8559    3.6259    0.0000 H   0  0  0  0  0  0  0  0  0  0  0  0
    6.7825    3.0909    0.0000 H   0  0  0  0  0  0  0  0  0  0  0  0
    6.5704    1.0734    0.0000 H   0  0  0  0  0  0  0  0  0  0  0  0
    7.4970    1.6084    0.0000 H   0  0  0  0  0  0  0  0  0  0  0  0
    6.3583    3.0909    0.0000 H   0  0  0  0  0  0  0  0  0  0  0  0
    8.1249    3.8659    0.0000 H   0  0  0  0  0  0  0  0  0  0  0  0
    9.5253    2.0874    0.0000 H   0  0  0  0  0  0  0  0  0  0  0  0
  1  2  1  0  0  0  0
  1 22  1  0  0  0  0
  1 23  1  0  0  0  0
  1 24  1  0  0  0  0
  2  3  1  0  0  0  0
  2 25  1  0  0  0  0
  2 26  1  0  0  0  0
  3  4  1  0  0  0  0
  3 27  1  0  0  0  0
  3 28  1  0  0  0  0
  4  5  1  0  0  0  0
  4 29  1  0  0  0  0
  4 30  1  0  0  0  0
  5  6  1  0  0  0  0
  5 31  1  0  0  0  0
  5 32  1  0  0  0  0
  6  7  1  0  0  0  0
  6 33  1  0  0  0  0
  6 34  1  0  0  0  0
  7  8  1  0  0  0  0
  7 35  1  0  0  0  0
  7 36  1  0  0  0  0
  8  9  1  0  0  0  0
  8 37  1  0  0  0  0
  8 38  1  0  0  0  0
  9 10  2  0  0  0  0
  9 39  1  0  0  0  0
 10 11  1  0  0  0  0
 10 40  1  0  0  0  0
 11 12  1  0  0  0  0
 11 41  1  0  0  0  0
 11 42  1  0  0  0  0
 12 13  1  0  0  0  0
 12 43  1  0  0  0  0
 12 44  1  0  0  0  0
 13 14  1  0  0  0  0
 13 45  1  0  0  0  0
 13 46  1  0  0  0  0
 14 15  1  0  0  0  0
 14 47  1  0  0  0  0
 14 48  1  0  0  0  0
 15 16  1  0  0  0  0
 15 49  1  0  0  0  0
 15 50  1  0  0  0  0
 16 17  1  0  0  0  0
 16 51  1  0  0  0  0
 16 52  1  0  0  0  0
 17 18  1  0  0  0  0
 17 19  1  0  0  0  0
 17 53  1  0  0  0  0
 18 54  1  0  0  0  0
 19 20  1  0  0  0  0
 19 21  2  0  0  0  0
 20 55  1  0  0  0  0
M  END
>  <DRUGBANK_ID>
DB18213

>  <COMMON_NAME>
Idroxioleic acid

>  <CAS_NUMBER>
56472-29-8

>  <UNII>
OSV3KVO1BT

>  <SYNONYMS>
(z)-2-hydroxyoctadec-9-enoic acid; 2-hydroxyoleic acid; 9-octadecenoic acid, 2-hydroxy-, (9z)-; Alpha-hydroxyoleic acid; Cis-2-hydroxy-9-octadecenoic acid; Minerval; Rac-(2r,9z)-2-hydroxyoctadec-9-enoic acid

$$$$
