
 OpenBabel10282417072D

 53 54  0  0  1  0  0  0  0  0999 V2000
    7.4710    2.8600    0.0000 C   0  0  0  0  0  0  0  0  0  0  0  0
    8.3642    3.5089    0.0000 C   0  0  0  0  0  0  0  0  0  0  0  0
   11.4315    4.9500    0.0000 C   0  0  0  0  0  0  0  0  0  0  0  0
   11.4315    5.7750    0.0000 C   0  0  0  0  0  0  0  0  0  0  0  0
   10.7171    4.5375    0.0000 C   0  0  0  0  0  0  0  0  0  0  0  0
   10.7171    6.1875    0.0000 C   0  0  0  0  0  0  0  0  0  0  0  0
   10.0026    4.9500    0.0000 C   0  0  0  0  0  0  0  0  0  0  0  0
    9.2881    6.1875    0.0000 C   0  0  0  0  0  0  0  0  0  0  0  0
    5.0013    6.1875    0.0000 C   0  0  0  0  0  0  0  0  0  0  0  0
   10.0026    5.7750    0.0000 C   0  0  0  0  0  0  0  0  0  0  0  0
    4.2868    5.7750    0.0000 C   0  0  1  0  0  0  0  0  0  0  0  0
    8.5737    5.7750    0.0000 C   0  0  0  0  0  0  0  0  0  0  0  0
    7.1447    5.7750    0.0000 C   0  0  1  0  0  0  0  0  0  0  0  0
    6.7322    3.6805    0.0000 C   0  0  1  0  0  0  0  0  0  0  0  0
    7.1447    4.9500    0.0000 C   0  0  2  0  0  0  0  0  0  0  0  0
    3.5724    6.1875    0.0000 C   0  0  0  0  0  0  0  0  0  0  0  0
    6.2473    3.0130    0.0000 C   0  0  0  0  0  0  0  0  0  0  0  0
    6.4302    6.1875    0.0000 C   0  0  0  0  0  0  0  0  0  0  0  0
    7.5572    3.6805    0.0000 C   0  0  0  0  0  0  0  0  0  0  0  0
    4.2868    4.9500    0.0000 N   0  0  0  0  0  0  0  0  0  0  0  0
    7.8592    6.1875    0.0000 N   0  0  0  0  0  0  0  0  0  0  0  0
    6.4773    4.4651    0.0000 N   0  0  0  0  0  0  0  0  0  0  0  0
    8.5737    4.9500    0.0000 O   0  5  0  0  0  0  0  0  0  0  0  0
    2.8579    5.7750    0.0000 O   0  0  0  0  0  0  0  0  0  0  0  0
    3.5724    7.0125    0.0000 O   0  5  0  0  0  0  0  0  0  0  0  0
    5.4268    3.0993    0.0000 O   0  0  0  0  0  0  0  0  0  0  0  0
    6.5828    2.2593    0.0000 O   0  0  0  0  0  0  0  0  0  0  0  0
    6.4302    7.0125    0.0000 O   0  0  0  0  0  0  0  0  0  0  0  0
    5.7158    5.7750    0.0000 O   0  0  0  0  0  0  0  0  0  0  0  0
    7.8121    4.4651    0.0000 S   0  0  0  0  0  0  0  0  0  0  0  0
    4.2868    6.6000    0.0000 H   0  0  0  0  0  0  0  0  0  0  0  0
    6.6144    5.1430    0.0000 H   0  0  0  0  0  0  0  0  0  0  0  0
    7.1068    2.9454    0.0000 H   0  0  0  0  0  0  0  0  0  0  0  0
    6.3259    5.0505    0.0000 H   0  0  0  0  0  0  0  0  0  0  0  0
    6.4935    2.4247    0.0000 H   0  0  0  0  0  0  0  0  0  0  0  0
    8.3367    2.2311    0.0000 H   0  0  0  0  0  0  0  0  0  0  0  0
    7.3592    1.7959    0.0000 H   0  0  0  0  0  0  0  0  0  0  0  0
    8.6948    2.4912    0.0000 H   0  0  0  0  0  0  0  0  0  0  0  0
    9.0802    4.3040    0.0000 H   0  0  0  0  0  0  0  0  0  0  0  0
    9.4108    3.2864    0.0000 H   0  0  0  0  0  0  0  0  0  0  0  0
   12.3252    4.4340    0.0000 H   0  0  0  0  0  0  0  0  0  0  0  0
   12.3252    6.2910    0.0000 H   0  0  0  0  0  0  0  0  0  0  0  0
   10.7171    3.5055    0.0000 H   0  0  0  0  0  0  0  0  0  0  0  0
   10.7171    7.2195    0.0000 H   0  0  0  0  0  0  0  0  0  0  0  0
    9.1089    4.4340    0.0000 H   0  0  0  0  0  0  0  0  0  0  0  0
    9.2881    7.2575    0.0000 H   0  0  0  0  0  0  0  0  0  0  0  0
    8.3614    6.7225    0.0000 H   0  0  0  0  0  0  0  0  0  0  0  0
    5.0013    7.2575    0.0000 H   0  0  0  0  0  0  0  0  0  0  0  0
    5.9279    6.7225    0.0000 H   0  0  0  0  0  0  0  0  0  0  0  0
    3.4035    4.4400    0.0000 H   0  0  0  0  0  0  0  0  0  0  0  0
    5.1701    4.4400    0.0000 H   0  0  0  0  0  0  0  0  0  0  0  0
    5.5072    4.7803    0.0000 H   0  0  0  0  0  0  0  0  0  0  0  0
    6.0320    1.5013    0.0000 H   0  0  0  0  0  0  0  0  0  0  0  0
  1 35  1  0  0  0  0
  1 36  1  0  0  0  0
  1 37  1  0  0  0  0
  2 38  1  0  0  0  0
  2 39  1  0  0  0  0
  2 40  1  0  0  0  0
  3 41  1  0  0  0  0
  4  3  2  0  0  0  0
  4 42  1  0  0  0  0
  5  3  1  0  0  0  0
  5 43  1  0  0  0  0
  6  4  1  0  0  0  0
  6 44  1  0  0  0  0
  7  5  2  0  0  0  0
  7 45  1  0  0  0  0
  8 46  1  0  0  0  0
  8 47  1  0  0  0  0
  9 48  1  0  0  0  0
  9 49  1  0  0  0  0
 10  6  2  0  0  0  0
 10  7  1  0  0  0  0
 10  8  1  0  0  0  0
 11  9  1  0  0  0  0
 11 20  1  0  0  0  0
 11 31  1  1  0  0  0
 12  8  1  0  0  0  0
 12 23  1  0  0  0  0
 13 21  1  0  0  0  0
 13 32  1  6  0  0  0
 14 17  1  0  0  0  0
 14 33  1  1  0  0  0
 15 13  1  0  0  0  0
 15 34  1  6  0  0  0
 16 11  1  0  0  0  0
 18 13  1  0  0  0  0
 19  1  1  0  0  0  0
 19  2  1  0  0  0  0
 19 14  1  0  0  0  0
 20 50  1  0  0  0  0
 20 51  1  0  0  0  0
 21 12  2  3  0  0  0
 22 14  1  0  0  0  0
 22 15  1  0  0  0  0
 22 52  1  0  0  0  0
 24 16  2  0  0  0  0
 25 16  1  0  0  0  0
 26 17  2  0  0  0  0
 27 17  1  0  0  0  0
 27 53  1  0  0  0  0
 28 18  2  0  0  0  0
 29  9  1  0  0  0  0
 29 18  1  0  0  0  0
 30 15  1  0  0  0  0
 30 19  1  0  0  0  0
M  CHG  2  23  -1  25  -1
M  END
>  <DRUGBANK_ID>
DB02968

>  <SECONDARY_ACCESSION_NUMBERS>
EXPT02561

>  <COMMON_NAME>
Penicillin G Acyl-Serine

$$$$
