
 OpenBabel10282417072D

 81 85  0  0  0  0  0  0  0  0999 V2000
   -2.1349   -0.4687    0.0000 C   0  0  0  0  0  0  0  0  0  0  0  0
   -2.8512   -0.8812    0.0000 C   0  0  0  0  0  0  0  0  0  0  0  0
   -2.8512   -1.7062    0.0000 C   0  0  1  0  0  0  0  0  0  0  0  0
   -2.1349   -2.1188    0.0000 C   0  0  0  0  0  0  0  0  0  0  0  0
   -1.4229   -0.8812    0.0000 C   0  0  1  0  0  0  0  0  0  0  0  0
   -1.4229   -1.7062    0.0000 C   0  0  1  0  0  0  0  0  0  0  0  0
   -0.7067   -2.1188    0.0000 C   0  0  0  0  0  0  0  0  0  0  0  0
    0.0093   -1.7062    0.0000 C   0  0  0  0  0  0  0  0  0  0  0  0
   -0.7067   -0.4687    0.0000 C   0  0  2  0  0  0  0  0  0  0  0  0
    0.0093   -0.8812    0.0000 C   0  0  2  0  0  0  0  0  0  0  0  0
    0.0093    0.7687    0.0000 C   0  0  0  0  0  0  0  0  0  0  0  0
   -0.7067    0.3562    0.0000 C   0  0  0  0  0  0  0  0  0  0  0  0
    0.7214    0.3562    0.0000 C   0  0  0  0  0  0  0  0  0  0  0  0
    0.7194   -0.4687    0.0000 C   0  0  1  0  0  0  0  0  0  0  0  0
    1.4290   -0.8806    0.0000 C   0  0  0  0  0  0  0  0  0  0  0  0
    2.1450   -0.4721    0.0000 C   0  0  0  0  0  0  0  0  0  0  0  0
    1.4328    0.7693    0.0000 C   0  0  1  0  0  0  0  0  0  0  0  0
    2.1464    0.3501    0.0000 C   0  0  2  0  0  0  0  0  0  0  0  0
    2.8622    0.7563    0.0000 C   0  0  0  0  0  0  0  0  0  0  0  0
    2.8707    1.5832    0.0000 C   0  0  0  0  0  0  0  0  0  0  0  0
    2.1571    2.0024    0.0000 C   0  0  2  0  0  0  0  0  0  0  0  0
    1.4351    1.5946    0.0000 C   0  0  2  0  0  0  0  0  0  0  0  0
    2.1530    2.8312    0.0000 C   0  0  0  0  0  0  0  0  0  0  0  0
    0.7154    2.0103    0.0000 C   0  0  0  0  0  0  0  0  0  0  0  0
    2.8571   -0.0604    0.0000 C   0  0  0  0  0  0  0  0  0  0  0  0
    1.4279   -0.0521    0.0000 H   0  0  0  0  0  0  0  0  0  0  0  0
   -0.7136   -1.2937    0.0000 H   0  0  0  0  0  0  0  0  0  0  0  0
   -1.2595   -2.6688    0.0000 H   0  0  0  0  0  0  0  0  0  0  0  0
   -3.5678   -2.1146    0.0000 O   0  0  0  0  0  0  0  0  0  0  0  0
   -1.7303   -2.8312    0.0000 C   0  0  0  0  0  0  0  0  0  0  0  0
   -2.5553   -2.8312    0.0000 C   0  0  0  0  0  0  0  0  0  0  0  0
   -1.4303   -0.0562    0.0000 C   0  0  0  0  0  0  0  0  0  0  0  0
    0.0029   -0.0562    0.0000 C   0  0  0  0  0  0  0  0  0  0  0  0
    0.7113   -1.2896    0.0000 C   0  0  0  0  0  0  0  0  0  0  0  0
    2.8566   -0.8807    0.0000 O   0  0  0  0  0  0  0  0  0  0  0  0
    3.5678    0.3501    0.0000 O   0  0  0  0  0  0  0  0  0  0  0  0
   -2.1335    0.6013    0.0000 H   0  0  0  0  0  0  0  0  0  0  0  0
   -3.0609    0.0674    0.0000 H   0  0  0  0  0  0  0  0  0  0  0  0
   -3.7776   -0.3457    0.0000 H   0  0  0  0  0  0  0  0  0  0  0  0
   -3.7780   -1.4159    0.0000 H   0  0  0  0  0  0  0  0  0  0  0  0
   -3.7763   -1.1686    0.0000 H   0  0  0  0  0  0  0  0  0  0  0  0
   -0.7066   -3.1888    0.0000 H   0  0  0  0  0  0  0  0  0  0  0  0
   -1.6331   -2.6543    0.0000 H   0  0  0  0  0  0  0  0  0  0  0  0
    0.9357   -2.2416    0.0000 H   0  0  0  0  0  0  0  0  0  0  0  0
    0.9361   -1.1714    0.0000 H   0  0  0  0  0  0  0  0  0  0  0  0
    0.0105    1.8007    0.0000 H   0  0  0  0  0  0  0  0  0  0  0  0
   -1.6331    0.8916    0.0000 H   0  0  0  0  0  0  0  0  0  0  0  0
   -1.6335   -0.1786    0.0000 H   0  0  0  0  0  0  0  0  0  0  0  0
    1.4250   -1.9506    0.0000 H   0  0  0  0  0  0  0  0  0  0  0  0
    2.3533   -1.4197    0.0000 H   0  0  0  0  0  0  0  0  0  0  0  0
    3.0698   -1.0103    0.0000 H   0  0  0  0  0  0  0  0  0  0  0  0
    2.1404   -1.5421    0.0000 H   0  0  0  0  0  0  0  0  0  0  0  0
    3.7841    0.2131    0.0000 H   0  0  0  0  0  0  0  0  0  0  0  0
    3.7939    1.2824    0.0000 H   0  0  0  0  0  0  0  0  0  0  0  0
    3.8021    2.1099    0.0000 H   0  0  0  0  0  0  0  0  0  0  0  0
    2.8795    2.6532    0.0000 H   0  0  0  0  0  0  0  0  0  0  0  0
    3.0844    2.5362    0.0000 H   0  0  0  0  0  0  0  0  0  0  0  0
    0.5077    1.0610    0.0000 H   0  0  0  0  0  0  0  0  0  0  0  0
    3.0770    3.3708    0.0000 H   0  0  0  0  0  0  0  0  0  0  0  0
    1.2237    3.3616    0.0000 H   0  0  0  0  0  0  0  0  0  0  0  0
    2.1477    3.9012    0.0000 H   0  0  0  0  0  0  0  0  0  0  0  0
    0.7156    3.0803    0.0000 H   0  0  0  0  0  0  0  0  0  0  0  0
   -0.2113    1.4755    0.0000 H   0  0  0  0  0  0  0  0  0  0  0  0
   -0.2111    2.5455    0.0000 H   0  0  0  0  0  0  0  0  0  0  0  0
   -4.4051   -1.6249    0.0000 H   0  0  0  0  0  0  0  0  0  0  0  0
   -2.2719   -3.7540    0.0000 H   0  0  0  0  0  0  0  0  0  0  0  0
   -0.6603   -2.8388    0.0000 H   0  0  0  0  0  0  0  0  0  0  0  0
   -1.2019   -3.7616    0.0000 H   0  0  0  0  0  0  0  0  0  0  0  0
   -3.6253   -2.8210    0.0000 H   0  0  0  0  0  0  0  0  0  0  0  0
   -2.0291   -3.7629    0.0000 H   0  0  0  0  0  0  0  0  0  0  0  0
   -3.0991   -3.7527    0.0000 H   0  0  0  0  0  0  0  0  0  0  0  0
   -0.5085    0.4871    0.0000 H   0  0  0  0  0  0  0  0  0  0  0  0
   -2.3617    0.4705    0.0000 H   0  0  0  0  0  0  0  0  0  0  0  0
   -1.4399    1.0138    0.0000 H   0  0  0  0  0  0  0  0  0  0  0  0
    0.9254    0.4860    0.0000 H   0  0  0  0  0  0  0  0  0  0  0  0
   -0.9279    0.4716    0.0000 H   0  0  0  0  0  0  0  0  0  0  0  0
   -0.0054    1.0138    0.0000 H   0  0  0  0  0  0  0  0  0  0  0  0
   -0.2206   -1.8154    0.0000 H   0  0  0  0  0  0  0  0  0  0  0  0
    1.6326   -1.8337    0.0000 H   0  0  0  0  0  0  0  0  0  0  0  0
    0.7007   -2.3595    0.0000 H   0  0  0  0  0  0  0  0  0  0  0  0
    2.0448   -1.3487    0.0000 H   0  0  0  0  0  0  0  0  0  0  0  0
  1  2  1  0  0  0  0
  1 37  1  0  0  0  0
  1 38  1  0  0  0  0
  2  3  1  0  0  0  0
  2 39  1  0  0  0  0
  2 40  1  0  0  0  0
  3 29  1  0  0  0  0
  3  4  1  0  0  0  0
  3 41  1  6  0  0  0
  4 30  1  0  0  0  0
  4 31  1  0  0  0  0
  4  6  1  0  0  0  0
  5  1  1  0  0  0  0
  5  6  1  0  0  0  0
  5 32  1  1  0  0  0
  6 28  1  6  0  0  0
  6  7  1  0  0  0  0
  7  8  1  0  0  0  0
  7 42  1  0  0  0  0
  7 43  1  0  0  0  0
  8 10  1  0  0  0  0
  8 44  1  0  0  0  0
  8 45  1  0  0  0  0
  9  5  1  0  0  0  0
  9 10  1  0  0  0  0
  9 27  1  6  0  0  0
 10 14  1  0  0  0  0
 10 33  1  1  0  0  0
 11 12  1  0  0  0  0
 11 46  1  0  0  0  0
 12  9  1  0  0  0  0
 12 47  1  0  0  0  0
 12 48  1  0  0  0  0
 13 11  2  0  0  0  0
 13 14  1  0  0  0  0
 13 17  1  0  0  0  0
 14 34  1  6  0  0  0
 14 15  1  0  0  0  0
 15 16  1  0  0  0  0
 15 49  1  0  0  0  0
 15 50  1  0  0  0  0
 16 18  1  0  0  0  0
 16 51  1  0  0  0  0
 16 52  1  0  0  0  0
 17 18  1  0  0  0  0
 17 22  1  0  0  0  0
 17 26  1  1  0  0  0
 18 19  1  0  0  0  0
 18 25  1  1  0  0  0
 19 20  1  0  0  0  0
 19 53  1  0  0  0  0
 19 54  1  0  0  0  0
 20 21  1  0  0  0  0
 20 55  1  0  0  0  0
 20 56  1  0  0  0  0
 21 22  1  0  0  0  0
 21 23  1  0  0  0  0
 21 57  1  1  0  0  0
 22 24  1  0  0  0  0
 22 58  1  6  0  0  0
 23 59  1  0  0  0  0
 23 60  1  0  0  0  0
 23 61  1  0  0  0  0
 24 62  1  0  0  0  0
 24 63  1  0  0  0  0
 24 64  1  0  0  0  0
 25 35  1  0  0  0  0
 25 36  2  0  0  0  0
 29 65  1  0  0  0  0
 30 66  1  0  0  0  0
 30 67  1  0  0  0  0
 30 68  1  0  0  0  0
 31 69  1  0  0  0  0
 31 70  1  0  0  0  0
 31 71  1  0  0  0  0
 32 72  1  0  0  0  0
 32 73  1  0  0  0  0
 32 74  1  0  0  0  0
 33 75  1  0  0  0  0
 33 76  1  0  0  0  0
 33 77  1  0  0  0  0
 34 78  1  0  0  0  0
 34 79  1  0  0  0  0
 34 80  1  0  0  0  0
 35 81  1  0  0  0  0
M  END
>  <DRUGBANK_ID>
DB15588

>  <COMMON_NAME>
Ursolic acid

>  <CAS_NUMBER>
77-52-1

>  <UNII>
P3M2575F3F

>  <SYNONYMS>
Malol; Prunol; Urson

$$$$
