
 OpenBabel10282417072D

 79 81  0  0  1  0  0  0  0  0999 V2000
   20.7662   -1.8881    0.0000 C   0  0  2  0  0  0  0  0  0  0  0  0
   20.0988   -1.4032    0.0000 O   0  0  0  0  0  0  0  0  0  0  0  0
   20.5113   -2.6727    0.0000 C   0  0  1  0  0  0  0  0  0  0  0  0
   19.4313   -1.8881    0.0000 C   0  0  1  0  0  0  0  0  0  0  0  0
   19.6863   -2.6727    0.0000 C   0  0  1  0  0  0  0  0  0  0  0  0
   20.9962   -3.3402    0.0000 O   0  0  0  0  0  0  0  0  0  0  0  0
   14.0205   -5.9291    0.0000 C   0  0  0  0  0  0  0  0  0  0  0  0
   14.7633   -6.3416    0.0000 C   0  0  0  0  0  0  0  0  0  0  0  0
   13.3060   -6.3416    0.0000 N   0  0  0  0  0  0  0  0  0  0  0  0
   12.5916   -5.9291    0.0000 C   0  0  0  0  0  0  0  0  0  0  0  0
   11.8771   -6.3416    0.0000 O   0  0  0  0  0  0  0  0  0  0  0  0
   15.4778   -5.9291    0.0000 S   0  0  0  0  0  0  0  0  0  0  0  0
   13.3344   -4.6916    0.0000 C   0  0  0  0  0  0  0  0  0  0  0  0
   12.5916   -5.1041    0.0000 C   0  0  0  0  0  0  0  0  0  0  0  0
   13.3344   -3.8666    0.0000 N   0  0  0  0  0  0  0  0  0  0  0  0
   11.9055   -3.8666    0.0000 O   0  0  0  0  0  0  0  0  0  0  0  0
   12.6199   -3.4540    0.0000 C   0  0  0  0  0  0  0  0  0  0  0  0
   14.0489   -2.6290    0.0000 C   0  0  0  0  0  0  0  0  0  0  0  0
   12.9219   -1.5021    0.0000 C   0  0  0  0  0  0  0  0  0  0  0  0
   13.3344   -2.2165    0.0000 C   0  0  0  0  0  0  0  0  0  0  0  0
   13.7469   -1.5021    0.0000 C   0  0  0  0  0  0  0  0  0  0  0  0
   12.6199   -2.6290    0.0000 C   0  0  1  0  0  0  0  0  0  0  0  0
   11.9054   -2.2165    0.0000 O   0  0  0  0  0  0  0  0  0  0  0  0
   14.7633   -2.2165    0.0000 O   0  0  0  0  0  0  0  0  0  0  0  0
   16.4133   -2.2165    0.0000 O   0  0  0  0  0  0  0  0  0  0  0  0
   18.0633   -2.2165    0.0000 O   0  0  0  0  0  0  0  0  0  0  0  0
   15.5883   -1.3915    0.0000 O   0  0  0  0  0  0  0  0  0  0  0  0
   15.5883   -3.0415    0.0000 O   0  0  0  0  0  0  0  0  0  0  0  0
   17.2383   -1.3915    0.0000 O   0  0  0  0  0  0  0  0  0  0  0  0
   17.2383   -3.0415    0.0000 O   0  0  0  0  0  0  0  0  0  0  0  0
   15.5883   -2.2165    0.0000 P   0  0  3  0  0  0  0  0  0  0  0  0
   17.2383   -2.2165    0.0000 P   0  0  3  0  0  0  0  0  0  0  0  0
   18.6467   -1.6332    0.0000 C   0  0  0  0  0  0  0  0  0  0  0  0
   19.2013   -3.3402    0.0000 O   0  0  0  0  0  0  0  0  0  0  0  0
   21.5508   -1.6332    0.0000 N   0  0  0  0  0  0  0  0  0  0  0  0
   22.1640   -2.1852    0.0000 C   0  0  0  0  0  0  0  0  0  0  0  0
   21.8864   -0.8795    0.0000 C   0  0  0  0  0  0  0  0  0  0  0  0
   22.8784   -1.7727    0.0000 C   0  0  0  0  0  0  0  0  0  0  0  0
   22.1640   -3.0102    0.0000 N   0  0  0  0  0  0  0  0  0  0  0  0
   22.7069   -0.9657    0.0000 N   0  0  0  0  0  0  0  0  0  0  0  0
   23.5929   -2.1851    0.0000 C   0  0  0  0  0  0  0  0  0  0  0  0
   22.8785   -3.4226    0.0000 C   0  0  0  0  0  0  0  0  0  0  0  0
   23.5929   -3.0101    0.0000 N   0  0  0  0  0  0  0  0  0  0  0  0
   24.3073   -1.7726    0.0000 N   0  0  0  0  0  0  0  0  0  0  0  0
   20.9336   -0.8313    0.0000 H   0  0  0  0  0  0  0  0  0  0  0  0
   21.5681   -2.5053    0.0000 H   0  0  0  0  0  0  0  0  0  0  0  0
   19.2639   -0.8313    0.0000 H   0  0  0  0  0  0  0  0  0  0  0  0
   20.1721   -3.6261    0.0000 H   0  0  0  0  0  0  0  0  0  0  0  0
   20.6016   -4.2263    0.0000 H   0  0  0  0  0  0  0  0  0  0  0  0
   14.0116   -4.8591    0.0000 H   0  0  0  0  0  0  0  0  0  0  0  0
   14.9404   -5.3826    0.0000 H   0  0  0  0  0  0  0  0  0  0  0  0
   14.7722   -7.4116    0.0000 H   0  0  0  0  0  0  0  0  0  0  0  0
   15.6922   -6.8727    0.0000 H   0  0  0  0  0  0  0  0  0  0  0  0
   13.3060   -7.3261    0.0000 H   0  0  0  0  0  0  0  0  0  0  0  0
   16.6556   -6.6091    0.0000 H   0  0  0  0  0  0  0  0  0  0  0  0
   14.2566   -5.2343    0.0000 H   0  0  0  0  0  0  0  0  0  0  0  0
   13.3210   -5.7615    0.0000 H   0  0  0  0  0  0  0  0  0  0  0  0
   11.6694   -4.5614    0.0000 H   0  0  0  0  0  0  0  0  0  0  0  0
   12.6050   -4.0342    0.0000 H   0  0  0  0  0  0  0  0  0  0  0  0
   14.1870   -3.3744    0.0000 H   0  0  0  0  0  0  0  0  0  0  0  0
   14.0489   -3.6990    0.0000 H   0  0  0  0  0  0  0  0  0  0  0  0
   14.9756   -3.1640    0.0000 H   0  0  0  0  0  0  0  0  0  0  0  0
   13.4569   -0.5754    0.0000 H   0  0  0  0  0  0  0  0  0  0  0  0
   11.8519   -1.5021    0.0000 H   0  0  0  0  0  0  0  0  0  0  0  0
   12.3869   -0.5755    0.0000 H   0  0  0  0  0  0  0  0  0  0  0  0
   14.8169   -1.5021    0.0000 H   0  0  0  0  0  0  0  0  0  0  0  0
   13.2119   -0.5754    0.0000 H   0  0  0  0  0  0  0  0  0  0  0  0
   14.2819   -0.5755    0.0000 H   0  0  0  0  0  0  0  0  0  0  0  0
   11.6933   -3.1640    0.0000 H   0  0  0  0  0  0  0  0  0  0  0  0
   11.9054   -1.2465    0.0000 H   0  0  0  0  0  0  0  0  0  0  0  0
   14.7483   -3.5265    0.0000 H   0  0  0  0  0  0  0  0  0  0  0  0
   16.3983   -3.5265    0.0000 H   0  0  0  0  0  0  0  0  0  0  0  0
   18.3969   -0.5928    0.0000 H   0  0  0  0  0  0  0  0  0  0  0  0
   17.6169   -1.3427    0.0000 H   0  0  0  0  0  0  0  0  0  0  0  0
   18.2366   -3.2388    0.0000 H   0  0  0  0  0  0  0  0  0  0  0  0
   21.3704    0.0142    0.0000 H   0  0  0  0  0  0  0  0  0  0  0  0
   22.8786   -4.4546    0.0000 H   0  0  0  0  0  0  0  0  0  0  0  0
   25.1599   -2.2648    0.0000 H   0  0  0  0  0  0  0  0  0  0  0  0
   24.3073   -0.7881    0.0000 H   0  0  0  0  0  0  0  0  0  0  0  0
  1 35  1  0  0  0  0
  1 45  1  6  0  0  0
  2  1  1  0  0  0  0
  3  1  1  0  0  0  0
  3  6  1  0  0  0  0
  3 46  1  1  0  0  0
  4  2  1  0  0  0  0
  4 33  1  0  0  0  0
  4 47  1  6  0  0  0
  5  3  1  0  0  0  0
  5  4  1  0  0  0  0
  5 34  1  0  0  0  0
  5 48  1  1  0  0  0
  6 49  1  0  0  0  0
  7  8  1  0  0  0  0
  7 50  1  0  0  0  0
  7 51  1  0  0  0  0
  8 12  1  0  0  0  0
  8 52  1  0  0  0  0
  8 53  1  0  0  0  0
  9  7  1  0  0  0  0
  9 54  1  0  0  0  0
 10  9  1  0  0  0  0
 10 11  2  0  0  0  0
 12 55  1  0  0  0  0
 13 15  1  0  0  0  0
 13 56  1  0  0  0  0
 13 57  1  0  0  0  0
 14 10  1  0  0  0  0
 14 13  1  0  0  0  0
 14 58  1  0  0  0  0
 14 59  1  0  0  0  0
 15 60  1  0  0  0  0
 17 15  1  0  0  0  0
 17 16  2  0  0  0  0
 17 22  1  0  0  0  0
 18 24  1  0  0  0  0
 18 61  1  0  0  0  0
 18 62  1  0  0  0  0
 19 63  1  0  0  0  0
 19 64  1  0  0  0  0
 19 65  1  0  0  0  0
 20 18  1  0  0  0  0
 20 19  1  0  0  0  0
 20 21  1  0  0  0  0
 21 66  1  0  0  0  0
 21 67  1  0  0  0  0
 21 68  1  0  0  0  0
 22 20  1  0  0  0  0
 22 23  1  0  0  0  0
 22 69  1  1  0  0  0
 23 70  1  0  0  0  0
 24 31  1  0  0  0  0
 25 32  1  0  0  0  0
 28 71  1  0  0  0  0
 30 72  1  0  0  0  0
 31 25  1  0  0  0  0
 31 27  2  0  0  0  0
 31 28  1  0  0  0  0
 32 26  1  0  0  0  0
 32 29  2  0  0  0  0
 32 30  1  0  0  0  0
 33 26  1  0  0  0  0
 33 73  1  0  0  0  0
 33 74  1  0  0  0  0
 34 75  1  0  0  0  0
 36 35  1  0  0  0  0
 37 35  1  0  0  0  0
 37 76  1  0  0  0  0
 38 36  2  0  0  0  0
 39 36  1  0  0  0  0
 40 37  2  0  0  0  0
 40 38  1  0  0  0  0
 41 38  1  0  0  0  0
 42 39  2  0  0  0  0
 42 77  1  0  0  0  0
 43 41  2  0  0  0  0
 43 42  1  0  0  0  0
 44 41  1  0  0  0  0
 44 78  1  0  0  0  0
 44 79  1  0  0  0  0
M  END
>  <DRUGBANK_ID>
DB03170

>  <SECONDARY_ACCESSION_NUMBERS>
EXPT00980

>  <COMMON_NAME>
Dephospho Coenzyme A

$$$$
