
 OpenBabel10282417072D

 80 86  0  0  1  0  0  0  0  0999 V2000
    4.5291   -5.3786    0.0000 C   0  0  0  0  0  0  0  0  0  0  0  0
    4.5291   -4.5536    0.0000 C   0  0  0  0  0  0  0  0  0  0  0  0
    3.8146   -4.1411    0.0000 N   0  0  0  0  0  0  0  0  0  0  0  0
    3.1001   -4.5536    0.0000 C   0  0  0  0  0  0  0  0  0  0  0  0
    2.3856   -4.1411    0.0000 C   0  0  0  0  0  0  0  0  0  0  0  0
    3.8146   -3.3161    0.0000 C   0  0  0  0  0  0  0  0  0  0  0  0
    3.1001   -2.9036    0.0000 C   0  0  0  0  0  0  0  0  0  0  0  0
    3.1001   -2.0786    0.0000 N   0  0  0  0  0  0  0  0  0  0  0  0
    3.7676   -1.5937    0.0000 C   0  0  0  0  0  0  0  0  0  0  0  0
    4.5522   -1.8486    0.0000 O   0  0  0  0  0  0  0  0  0  0  0  0
    3.5126   -0.8091    0.0000 C   0  0  0  0  0  0  0  0  0  0  0  0
    3.9251   -0.0946    0.0000 C   0  0  0  0  0  0  0  0  0  0  0  0
    4.7321    0.0769    0.0000 C   0  0  0  0  0  0  0  0  0  0  0  0
    5.3995   -0.4080    0.0000 C   0  0  0  0  0  0  0  0  0  0  0  0
    6.1532   -0.0724    0.0000 C   0  0  0  0  0  0  0  0  0  0  0  0
    6.2394    0.7481    0.0000 C   0  0  0  0  0  0  0  0  0  0  0  0
    5.5720    1.2330    0.0000 C   0  0  0  0  0  0  0  0  0  0  0  0
    4.8183    0.8974    0.0000 C   0  0  0  0  0  0  0  0  0  0  0  0
    4.0647    1.2330    0.0000 N   0  0  0  0  0  0  0  0  0  0  0  0
    3.5126    0.6199    0.0000 C   0  0  0  0  0  0  0  0  0  0  0  0
    2.6876    0.6199    0.0000 C   0  0  0  0  0  0  0  0  0  0  0  0
    2.2751   -0.0946    0.0000 C   0  0  0  0  0  0  0  0  0  0  0  0
    2.6876   -0.8091    0.0000 C   0  0  0  0  0  0  0  0  0  0  0  0
    2.4327   -1.5937    0.0000 C   0  0  0  0  0  0  0  0  0  0  0  0
    1.6481   -1.8486    0.0000 O   0  0  0  0  0  0  0  0  0  0  0  0
    1.4681    0.0769    0.0000 C   0  0  0  0  0  0  0  0  0  0  0  0
    0.8007   -0.4080    0.0000 C   0  0  0  0  0  0  0  0  0  0  0  0
    0.0470   -0.0724    0.0000 C   0  0  0  0  0  0  0  0  0  0  0  0
   -0.0392    0.7481    0.0000 C   0  0  0  0  0  0  0  0  0  0  0  0
    0.6282    1.2330    0.0000 C   0  0  0  0  0  0  0  0  0  0  0  0
    1.3819    0.8974    0.0000 C   0  0  0  0  0  0  0  0  0  0  0  0
    2.1356    1.2330    0.0000 N   0  0  0  0  0  0  0  0  0  0  0  0
    2.3071    2.0400    0.0000 C   0  0  1  0  0  0  0  0  0  0  0  0
    1.6940    2.5920    0.0000 C   0  0  1  0  0  0  0  0  0  0  0  0
    1.8655    3.3990    0.0000 C   0  0  2  0  0  0  0  0  0  0  0  0
    2.6502    3.6539    0.0000 C   0  0  1  0  0  0  0  0  0  0  0  0
    3.2633    3.1019    0.0000 C   0  0  2  0  0  0  0  0  0  0  0  0
    3.0917    2.2949    0.0000 O   0  0  0  0  0  0  0  0  0  0  0  0
    4.0479    3.3568    0.0000 C   0  0  0  0  0  0  0  0  0  0  0  0
    4.6610    2.8048    0.0000 O   0  0  0  0  0  0  0  0  0  0  0  0
    2.8217    4.4609    0.0000 O   0  0  0  0  0  0  0  0  0  0  0  0
    2.2086    5.0129    0.0000 C   0  0  0  0  0  0  0  0  0  0  0  0
    1.2525    3.9510    0.0000 O   0  0  0  0  0  0  0  0  0  0  0  0
    0.9094    2.3370    0.0000 O   0  0  0  0  0  0  0  0  0  0  0  0
    0.5420    2.0535    0.0000 Cl  0  0  0  0  0  0  0  0  0  0  0  0
    5.6582    2.0535    0.0000 Cl  0  0  0  0  0  0  0  0  0  0  0  0
    3.6025   -5.9136    0.0000 H   0  0  0  0  0  0  0  0  0  0  0  0
    5.4557   -5.9136    0.0000 H   0  0  0  0  0  0  0  0  0  0  0  0
    4.5291   -6.4486    0.0000 H   0  0  0  0  0  0  0  0  0  0  0  0
    5.4557   -4.0186    0.0000 H   0  0  0  0  0  0  0  0  0  0  0  0
    4.5291   -3.4836    0.0000 H   0  0  0  0  0  0  0  0  0  0  0  0
    3.1001   -5.6236    0.0000 H   0  0  0  0  0  0  0  0  0  0  0  0
    2.1735   -5.0886    0.0000 H   0  0  0  0  0  0  0  0  0  0  0  0
    2.3856   -3.0711    0.0000 H   0  0  0  0  0  0  0  0  0  0  0  0
    1.4590   -4.6761    0.0000 H   0  0  0  0  0  0  0  0  0  0  0  0
    1.4589   -3.6061    0.0000 H   0  0  0  0  0  0  0  0  0  0  0  0
    4.7412   -2.7811    0.0000 H   0  0  0  0  0  0  0  0  0  0  0  0
    3.8146   -2.2461    0.0000 H   0  0  0  0  0  0  0  0  0  0  0  0
    2.1735   -3.4386    0.0000 H   0  0  0  0  0  0  0  0  0  0  0  0
    2.1735   -2.3686    0.0000 H   0  0  0  0  0  0  0  0  0  0  0  0
    5.2916   -1.4343    0.0000 H   0  0  0  0  0  0  0  0  0  0  0  0
    6.9881   -0.6790    0.0000 H   0  0  0  0  0  0  0  0  0  0  0  0
    7.1822    1.1679    0.0000 H   0  0  0  0  0  0  0  0  0  0  0  0
    3.8601    2.1960    0.0000 H   0  0  0  0  0  0  0  0  0  0  0  0
    0.9086   -1.4343    0.0000 H   0  0  0  0  0  0  0  0  0  0  0  0
   -0.7879   -0.6790    0.0000 H   0  0  0  0  0  0  0  0  0  0  0  0
   -0.9820    1.1679    0.0000 H   0  0  0  0  0  0  0  0  0  0  0  0
    1.2895    1.7093    0.0000 H   0  0  0  0  0  0  0  0  0  0  0  0
    1.4716    1.5454    0.0000 H   0  0  0  0  0  0  0  0  0  0  0  0
    0.8479    3.0684    0.0000 H   0  0  0  0  0  0  0  0  0  0  0  0
    1.8550    4.3699    0.0000 H   0  0  0  0  0  0  0  0  0  0  0  0
    3.4858    4.1485    0.0000 H   0  0  0  0  0  0  0  0  0  0  0  0
    4.2704    4.4034    0.0000 H   0  0  0  0  0  0  0  0  0  0  0  0
    5.0655    3.6875    0.0000 H   0  0  0  0  0  0  0  0  0  0  0  0
    4.4594    1.8560    0.0000 H   0  0  0  0  0  0  0  0  0  0  0  0
    2.4310    6.0595    0.0000 H   0  0  0  0  0  0  0  0  0  0  0  0
    1.1910    4.6822    0.0000 H   0  0  0  0  0  0  0  0  0  0  0  0
    1.4134    5.7288    0.0000 H   0  0  0  0  0  0  0  0  0  0  0  0
    1.4542    4.8998    0.0000 H   0  0  0  0  0  0  0  0  0  0  0  0
    0.1885    2.9860    0.0000 H   0  0  0  0  0  0  0  0  0  0  0  0
  1  2  1  0  0  0  0
  1 47  1  0  0  0  0
  1 48  1  0  0  0  0
  1 49  1  0  0  0  0
  2  3  1  0  0  0  0
  2 50  1  0  0  0  0
  2 51  1  0  0  0  0
  3  4  1  0  0  0  0
  3  6  1  0  0  0  0
  4  5  1  0  0  0  0
  4 52  1  0  0  0  0
  4 53  1  0  0  0  0
  5 54  1  0  0  0  0
  5 55  1  0  0  0  0
  5 56  1  0  0  0  0
  6  7  1  0  0  0  0
  6 57  1  0  0  0  0
  6 58  1  0  0  0  0
  7  8  1  0  0  0  0
  7 59  1  0  0  0  0
  7 60  1  0  0  0  0
  8  9  1  0  0  0  0
  8 24  1  0  0  0  0
  9 10  2  0  0  0  0
  9 11  1  0  0  0  0
 11 12  1  0  0  0  0
 11 23  2  0  0  0  0
 12 13  1  0  0  0  0
 12 20  2  0  0  0  0
 13 14  1  0  0  0  0
 13 18  2  0  0  0  0
 14 15  2  0  0  0  0
 14 61  1  0  0  0  0
 15 16  1  0  0  0  0
 15 62  1  0  0  0  0
 16 17  2  0  0  0  0
 16 63  1  0  0  0  0
 17 18  1  0  0  0  0
 17 46  1  0  0  0  0
 18 19  1  0  0  0  0
 19 20  1  0  0  0  0
 19 64  1  0  0  0  0
 20 21  1  0  0  0  0
 21 22  2  0  0  0  0
 21 32  1  0  0  0  0
 22 23  1  0  0  0  0
 22 26  1  0  0  0  0
 23 24  1  0  0  0  0
 24 25  2  0  0  0  0
 26 27  2  0  0  0  0
 26 31  1  0  0  0  0
 27 28  1  0  0  0  0
 27 65  1  0  0  0  0
 28 29  2  0  0  0  0
 28 66  1  0  0  0  0
 29 30  1  0  0  0  0
 29 67  1  0  0  0  0
 30 31  2  0  0  0  0
 30 45  1  0  0  0  0
 31 32  1  0  0  0  0
 33 32  1  0  0  0  0
 33 34  1  0  0  0  0
 33 38  1  0  0  0  0
 33 68  1  6  0  0  0
 34 35  1  0  0  0  0
 34 44  1  0  0  0  0
 34 69  1  1  0  0  0
 35 36  1  0  0  0  0
 35 43  1  0  0  0  0
 35 70  1  6  0  0  0
 36 37  1  0  0  0  0
 36 41  1  0  0  0  0
 36 71  1  1  0  0  0
 37 38  1  0  0  0  0
 37 39  1  0  0  0  0
 37 72  1  6  0  0  0
 39 40  1  0  0  0  0
 39 73  1  0  0  0  0
 39 74  1  0  0  0  0
 40 75  1  0  0  0  0
 41 42  1  0  0  0  0
 42 76  1  0  0  0  0
 42 77  1  0  0  0  0
 42 78  1  0  0  0  0
 43 79  1  0  0  0  0
 44 80  1  0  0  0  0
M  END
>  <DRUGBANK_ID>
DB06362

>  <COMMON_NAME>
Becatecarin

>  <CAS_NUMBER>
119673-08-4

>  <UNII>
A60X6MBU6G

>  <SYNONYMS>
6-(2-(DIETHYLAMINO)ETHYL)-REBECCAMYCIN; Becatecarin; DEAE-rebeccamycin

$$$$
