
 OpenBabel10282417072D

 27 26  0  0  1  0  0  0  0  0999 V2000
    1.9520   -0.5230    0.0000 C   0  0  0  0  0  0  0  0  0  0  0  0
    0.5230    1.1270    0.0000 C   0  0  0  0  0  0  0  0  0  0  0  0
    4.0954    0.7145    0.0000 C   0  0  0  0  0  0  0  0  0  0  0  0
    1.2375    0.7145    0.0000 C   0  0  2  0  0  0  0  0  0  0  0  0
    3.3809    1.1270    0.0000 C   0  0  0  0  0  0  0  0  0  0  0  0
    1.9520    1.1270    0.0000 C   0  0  2  0  0  0  0  0  0  0  0  0
    2.6664    0.7145    0.0000 C   0  0  2  0  0  0  0  0  0  0  0  0
   -0.1914    0.7145    0.0000 O   0  0  0  0  0  0  0  0  0  0  0  0
    4.8099    1.1270    0.0000 O   0  0  0  0  0  0  0  0  0  0  0  0
    1.2375   -0.1105    0.0000 O   0  0  0  0  0  0  0  0  0  0  0  0
    3.3809    1.9520    0.0000 O   0  0  0  0  0  0  0  0  0  0  0  0
    1.9520    1.9520    0.0000 O   0  0  0  0  0  0  0  0  0  0  0  0
    2.6664   -0.1105    0.0000 O   0  0  0  0  0  0  0  0  0  0  0  0
    1.2375    1.5395    0.0000 H   0  0  0  0  0  0  0  0  0  0  0  0
    1.9520    0.3020    0.0000 H   0  0  0  0  0  0  0  0  0  0  0  0
    2.6664    1.5395    0.0000 H   0  0  0  0  0  0  0  0  0  0  0  0
    1.0253    0.0120    0.0000 H   0  0  0  0  0  0  0  0  0  0  0  0
    1.9520   -1.5930    0.0000 H   0  0  0  0  0  0  0  0  0  0  0  0
    1.0254   -1.0580    0.0000 H   0  0  0  0  0  0  0  0  0  0  0  0
    0.5230    2.1970    0.0000 H   0  0  0  0  0  0  0  0  0  0  0  0
   -0.4037    1.6620    0.0000 H   0  0  0  0  0  0  0  0  0  0  0  0
    4.0954   -0.3555    0.0000 H   0  0  0  0  0  0  0  0  0  0  0  0
    5.0220    0.1795    0.0000 H   0  0  0  0  0  0  0  0  0  0  0  0
   -1.0315    1.1995    0.0000 H   0  0  0  0  0  0  0  0  0  0  0  0
    5.6499    0.6420    0.0000 H   0  0  0  0  0  0  0  0  0  0  0  0
    0.3975   -0.5955    0.0000 H   0  0  0  0  0  0  0  0  0  0  0  0
    2.7920    2.4370    0.0000 H   0  0  0  0  0  0  0  0  0  0  0  0
  1 17  1  0  0  0  0
  1 18  1  0  0  0  0
  1 19  1  0  0  0  0
  2 20  1  0  0  0  0
  2 21  1  0  0  0  0
  3 22  1  0  0  0  0
  3 23  1  0  0  0  0
  4  2  1  0  0  0  0
  4 10  1  0  0  0  0
  4 14  1  1  0  0  0
  5  3  1  0  0  0  0
  6  4  1  0  0  0  0
  6 12  1  0  0  0  0
  6 15  1  6  0  0  0
  7  5  1  0  0  0  0
  7  6  1  0  0  0  0
  7 13  1  0  0  0  0
  7 16  1  6  0  0  0
  8  2  1  0  0  0  0
  8 24  1  0  0  0  0
  9  3  1  0  0  0  0
  9 25  1  0  0  0  0
 10 26  1  0  0  0  0
 11  5  2  0  0  0  0
 12 27  1  0  0  0  0
 13  1  1  0  0  0  0
M  END
>  <DRUGBANK_ID>
DB02438

>  <SECONDARY_ACCESSION_NUMBERS>
EXPT00180

>  <COMMON_NAME>
3-O-Methylfructose in Linear Form

$$$$
