
 OpenBabel10282417072D

 52 51  0  0  0  0  0  0  0  0999 V2000
   -3.8739    0.6764    0.0000 N   0  3  0  0  0  0  0  0  0  0  0  0
   -4.2743    1.3977    0.0000 C   0  0  0  0  0  0  0  0  0  0  0  0
   -3.8739   -0.1484    0.0000 C   0  0  0  0  0  0  0  0  0  0  0  0
   -3.1802   -0.5728    0.0000 C   0  0  0  0  0  0  0  0  0  0  0  0
   -2.4589   -0.1723    0.0000 O   0  5  0  0  0  0  0  0  0  0  0  0
   -3.1802   -1.3977    0.0000 O   0  0  0  0  0  0  0  0  0  0  0  0
   -4.6987    0.6764    0.0000 C   0  0  0  0  0  0  0  0  0  0  0  0
   -3.1526    1.0769    0.0000 C   0  0  0  0  0  0  0  0  0  0  0  0
   -2.4450    0.6525    0.0000 C   0  0  0  0  0  0  0  0  0  0  0  0
   -1.7237    1.0529    0.0000 C   0  0  0  0  0  0  0  0  0  0  0  0
   -1.0163    0.6285    0.0000 C   0  0  0  0  0  0  0  0  0  0  0  0
   -0.2950    1.0290    0.0000 C   0  0  0  0  0  0  0  0  0  0  0  0
    0.4124    0.6046    0.0000 C   0  0  0  0  0  0  0  0  0  0  0  0
    1.1336    1.0051    0.0000 C   0  0  0  0  0  0  0  0  0  0  0  0
    1.8412    0.5807    0.0000 C   0  0  0  0  0  0  0  0  0  0  0  0
    2.5625    0.9812    0.0000 C   0  0  0  0  0  0  0  0  0  0  0  0
    3.2699    0.5568    0.0000 C   0  0  0  0  0  0  0  0  0  0  0  0
    3.9912    0.9572    0.0000 C   0  0  0  0  0  0  0  0  0  0  0  0
    4.6987    0.5328    0.0000 C   0  0  0  0  0  0  0  0  0  0  0  0
   -3.7238    2.3152    0.0000 H   0  0  0  0  0  0  0  0  0  0  0  0
   -5.3441    1.4157    0.0000 H   0  0  0  0  0  0  0  0  0  0  0  0
   -4.7936    2.3332    0.0000 H   0  0  0  0  0  0  0  0  0  0  0  0
   -4.8073   -0.6716    0.0000 H   0  0  0  0  0  0  0  0  0  0  0  0
   -3.8943   -1.2182    0.0000 H   0  0  0  0  0  0  0  0  0  0  0  0
   -5.2337    1.6030    0.0000 H   0  0  0  0  0  0  0  0  0  0  0  0
   -5.2337   -0.2502    0.0000 H   0  0  0  0  0  0  0  0  0  0  0  0
   -5.7687    0.6764    0.0000 H   0  0  0  0  0  0  0  0  0  0  0  0
   -3.1347    2.1468    0.0000 H   0  0  0  0  0  0  0  0  0  0  0  0
   -2.2172    1.5964    0.0000 H   0  0  0  0  0  0  0  0  0  0  0  0
   -2.4629   -0.4173    0.0000 H   0  0  0  0  0  0  0  0  0  0  0  0
   -1.5275    0.1020    0.0000 H   0  0  0  0  0  0  0  0  0  0  0  0
   -1.7057    2.1227    0.0000 H   0  0  0  0  0  0  0  0  0  0  0  0
   -0.7882    1.5723    0.0000 H   0  0  0  0  0  0  0  0  0  0  0  0
   -1.0342   -0.4413    0.0000 H   0  0  0  0  0  0  0  0  0  0  0  0
   -0.0987    0.0781    0.0000 H   0  0  0  0  0  0  0  0  0  0  0  0
   -0.2771    2.0988    0.0000 H   0  0  0  0  0  0  0  0  0  0  0  0
    0.6405    1.5484    0.0000 H   0  0  0  0  0  0  0  0  0  0  0  0
    0.3945   -0.4653    0.0000 H   0  0  0  0  0  0  0  0  0  0  0  0
    1.3300    0.0542    0.0000 H   0  0  0  0  0  0  0  0  0  0  0  0
    1.1514    2.0750    0.0000 H   0  0  0  0  0  0  0  0  0  0  0  0
    2.0690    1.5246    0.0000 H   0  0  0  0  0  0  0  0  0  0  0  0
    1.8233   -0.4892    0.0000 H   0  0  0  0  0  0  0  0  0  0  0  0
    2.7588    0.0303    0.0000 H   0  0  0  0  0  0  0  0  0  0  0  0
    2.5804    2.0510    0.0000 H   0  0  0  0  0  0  0  0  0  0  0  0
    3.4980    1.5006    0.0000 H   0  0  0  0  0  0  0  0  0  0  0  0
    3.2519   -0.5130    0.0000 H   0  0  0  0  0  0  0  0  0  0  0  0
    4.1874    0.0063    0.0000 H   0  0  0  0  0  0  0  0  0  0  0  0
    4.0092    2.0270    0.0000 H   0  0  0  0  0  0  0  0  0  0  0  0
    4.9267    1.4766    0.0000 H   0  0  0  0  0  0  0  0  0  0  0  0
    4.6808   -0.5371    0.0000 H   0  0  0  0  0  0  0  0  0  0  0  0
    5.6342    1.0522    0.0000 H   0  0  0  0  0  0  0  0  0  0  0  0
    5.6163   -0.0176    0.0000 H   0  0  0  0  0  0  0  0  0  0  0  0
  2  1  1  0  0  0  0
  2 20  1  0  0  0  0
  2 21  1  0  0  0  0
  2 22  1  0  0  0  0
  3  1  1  0  0  0  0
  3  4  1  0  0  0  0
  3 23  1  0  0  0  0
  3 24  1  0  0  0  0
  4  5  1  0  0  0  0
  4  6  2  0  0  0  0
  7  1  1  0  0  0  0
  7 25  1  0  0  0  0
  7 26  1  0  0  0  0
  7 27  1  0  0  0  0
  8  1  1  0  0  0  0
  8 28  1  0  0  0  0
  8 29  1  0  0  0  0
  9  8  1  0  0  0  0
  9 30  1  0  0  0  0
  9 31  1  0  0  0  0
 10  9  1  0  0  0  0
 10 32  1  0  0  0  0
 10 33  1  0  0  0  0
 11 10  1  0  0  0  0
 11 34  1  0  0  0  0
 11 35  1  0  0  0  0
 12 11  1  0  0  0  0
 12 36  1  0  0  0  0
 12 37  1  0  0  0  0
 13 12  1  0  0  0  0
 13 38  1  0  0  0  0
 13 39  1  0  0  0  0
 14 13  1  0  0  0  0
 14 40  1  0  0  0  0
 14 41  1  0  0  0  0
 15 14  1  0  0  0  0
 15 42  1  0  0  0  0
 15 43  1  0  0  0  0
 16 15  1  0  0  0  0
 16 44  1  0  0  0  0
 16 45  1  0  0  0  0
 17 16  1  0  0  0  0
 17 46  1  0  0  0  0
 17 47  1  0  0  0  0
 18 17  1  0  0  0  0
 18 48  1  0  0  0  0
 18 49  1  0  0  0  0
 19 18  1  0  0  0  0
 19 50  1  0  0  0  0
 19 51  1  0  0  0  0
 19 52  1  0  0  0  0
M  CHG  2   1   1   5  -1
M  END
>  <DRUGBANK_ID>
DB07631

>  <COMMON_NAME>
Lauryldimethylbetaine

>  <CAS_NUMBER>
683-10-3

>  <UNII>
Y4P927Q133

>  <SYNONYMS>
Dodecylbetaine; Lauryl dimethyl glycine; Lauryl-N-betaine; Laurylbetain

$$$$
