
 OpenBabel10282417072D

 26 26  0  0  1  0  0  0  0  0999 V2000
   25.3283  -11.8269    0.0000 C   0  0  0  0  0  0  0  0  0  0  0  0
   24.6138  -15.5395    0.0000 C   0  0  0  0  0  0  0  0  0  0  0  0
   24.6138  -13.0644    0.0000 C   0  0  2  0  0  0  0  0  0  0  0  0
   23.8993  -13.4769    0.0000 C   0  0  0  0  0  0  0  0  0  0  0  0
   23.8993  -14.3020    0.0000 C   0  0  0  0  0  0  0  0  0  0  0  0
   25.3283  -13.4769    0.0000 C   0  0  0  0  0  0  0  0  0  0  0  0
   24.6138  -12.2394    0.0000 C   0  0  0  0  0  0  0  0  0  0  0  0
   23.8993  -11.8269    0.0000 C   0  0  0  0  0  0  0  0  0  0  0  0
   24.6138  -14.7145    0.0000 C   0  0  0  0  0  0  0  0  0  0  0  0
   25.3283  -14.3020    0.0000 C   0  0  0  0  0  0  0  0  0  0  0  0
   26.2549  -12.3619    0.0000 H   0  0  0  0  0  0  0  0  0  0  0  0
   25.3283  -10.7569    0.0000 H   0  0  0  0  0  0  0  0  0  0  0  0
   26.2550  -11.2919    0.0000 H   0  0  0  0  0  0  0  0  0  0  0  0
   23.6872  -16.0745    0.0000 H   0  0  0  0  0  0  0  0  0  0  0  0
   25.5404  -16.0745    0.0000 H   0  0  0  0  0  0  0  0  0  0  0  0
   24.6138  -16.6095    0.0000 H   0  0  0  0  0  0  0  0  0  0  0  0
   23.6872  -12.5294    0.0000 H   0  0  0  0  0  0  0  0  0  0  0  0
   22.9727  -12.9419    0.0000 H   0  0  0  0  0  0  0  0  0  0  0  0
   22.9727  -14.0119    0.0000 H   0  0  0  0  0  0  0  0  0  0  0  0
   22.9727  -14.8370    0.0000 H   0  0  0  0  0  0  0  0  0  0  0  0
   23.8993  -15.3720    0.0000 H   0  0  0  0  0  0  0  0  0  0  0  0
   26.2549  -12.9419    0.0000 H   0  0  0  0  0  0  0  0  0  0  0  0
   26.2549  -14.0119    0.0000 H   0  0  0  0  0  0  0  0  0  0  0  0
   23.8993  -10.7949    0.0000 H   0  0  0  0  0  0  0  0  0  0  0  0
   23.0056  -12.3429    0.0000 H   0  0  0  0  0  0  0  0  0  0  0  0
   26.2220  -14.8180    0.0000 H   0  0  0  0  0  0  0  0  0  0  0  0
  1  7  1  0  0  0  0
  1 11  1  0  0  0  0
  1 12  1  0  0  0  0
  1 13  1  0  0  0  0
  2  9  1  0  0  0  0
  2 14  1  0  0  0  0
  2 15  1  0  0  0  0
  2 16  1  0  0  0  0
  3  4  1  0  0  0  0
  3  6  1  0  0  0  0
  3  7  1  0  0  0  0
  3 17  1  6  0  0  0
  4  5  1  0  0  0  0
  4 18  1  0  0  0  0
  4 19  1  0  0  0  0
  5  9  1  0  0  0  0
  5 20  1  0  0  0  0
  5 21  1  0  0  0  0
  6 10  1  0  0  0  0
  6 22  1  0  0  0  0
  6 23  1  0  0  0  0
  7  8  2  0  0  0  0
  8 24  1  0  0  0  0
  8 25  1  0  0  0  0
  9 10  2  0  0  0  0
 10 26  1  0  0  0  0
M  END
>  <DRUGBANK_ID>
DB08921

>  <COMMON_NAME>
(4R)-limonene

>  <CAS_NUMBER>
5989-27-5

>  <UNII>
GFD7C86Q1W

>  <SYNONYMS>
(+)-(4R)-Limonene; (+)-(R)-Limonene; (+)-4-isopropenyl-1-methylcyclohexene; (+)-Limonene; (4R)-1-methyl-4-isopropenylcyclohex-1-ene; (4R)-4-isopropenyl-1-methylcyclohexene; (R)-(+)-limonene; (R)-(+)-p-mentha-1,8-diene; (R)-1-methyl-4-(1-methylethenyl)cyclohexene; (R)-4-isopropenyl-1-methyl-1-cyclohexene; (R)-p-mentha-1,8-diene; 4Î²H-p-mentha-1,8-diene; D-(+)-limonene; D-Limonen; D-limonene

$$$$
