
 OpenBabel10282417072D

 36 38  0  0  0  0  0  0  0  0999 V2000
    1.8483   -0.4239    0.0000 C   0  0  0  0  0  0  0  0  0  0  0  0
    2.5722   -0.8196    0.0000 O   0  0  0  0  0  0  0  0  0  0  0  0
    1.1437   -0.8531    0.0000 N   0  0  0  0  0  0  0  0  0  0  0  0
    1.8289    0.4008    0.0000 C   0  0  0  0  0  0  0  0  0  0  0  0
    1.1050    0.7964    0.0000 C   0  0  0  0  0  0  0  0  0  0  0  0
    0.4004    0.3672    0.0000 C   0  0  0  0  0  0  0  0  0  0  0  0
    0.4197   -0.4574    0.0000 C   0  0  0  0  0  0  0  0  0  0  0  0
   -0.0240    0.0431    0.0000 C   0  0  0  0  0  0  0  0  0  0  0  0
   -0.9739    0.1817    0.0000 C   0  0  2  0  0  0  0  0  0  0  0  0
   -0.9613   -0.7901    0.0000 C   0  0  0  0  0  0  0  0  0  0  0  0
   -2.5722    1.5848    0.0000 C   0  0  0  0  0  0  0  0  0  0  0  0
   -1.8087    1.6278    0.0000 C   0  0  0  0  0  0  0  0  0  0  0  0
   -1.2693    0.9954    0.0000 C   0  0  0  0  0  0  0  0  0  0  0  0
   -0.5102    0.4902    0.0000 C   0  0  1  0  0  0  0  0  0  0  0  0
   -0.0797    0.9800    0.0000 N   0  0  0  0  0  0  0  0  0  0  0  0
   -0.5073   -0.4461    0.0000 C   0  0  0  0  0  0  0  0  0  0  0  0
   -0.0946   -1.1038    0.0000 C   0  0  0  0  0  0  0  0  0  0  0  0
    0.4864   -1.6279    0.0000 C   0  0  0  0  0  0  0  0  0  0  0  0
   -1.6253    0.4175    0.0000 H   0  0  0  0  0  0  0  0  0  0  0  0
    1.1668   -1.8373    0.0000 H   0  0  0  0  0  0  0  0  0  0  0  0
    2.7103    0.9376    0.0000 H   0  0  0  0  0  0  0  0  0  0  0  0
    1.0808    1.8281    0.0000 H   0  0  0  0  0  0  0  0  0  0  0  0
    0.4845    0.9846    0.0000 H   0  0  0  0  0  0  0  0  0  0  0  0
   -0.5042    0.9993    0.0000 H   0  0  0  0  0  0  0  0  0  0  0  0
   -1.8023   -1.3883    0.0000 H   0  0  0  0  0  0  0  0  0  0  0  0
   -3.1585    2.4799    0.0000 H   0  0  0  0  0  0  0  0  0  0  0  0
   -3.0542    0.6295    0.0000 H   0  0  0  0  0  0  0  0  0  0  0  0
   -3.6405    1.5246    0.0000 H   0  0  0  0  0  0  0  0  0  0  0  0
   -1.4029    2.5767    0.0000 H   0  0  0  0  0  0  0  0  0  0  0  0
    0.9205    0.7799    0.0000 H   0  0  0  0  0  0  0  0  0  0  0  0
   -0.4065    1.9462    0.0000 H   0  0  0  0  0  0  0  0  0  0  0  0
   -1.5351   -0.7436    0.0000 H   0  0  0  0  0  0  0  0  0  0  0  0
   -0.8886   -1.4459    0.0000 H   0  0  0  0  0  0  0  0  0  0  0  0
    0.2630   -2.6743    0.0000 H   0  0  0  0  0  0  0  0  0  0  0  0
    1.5043   -1.2982    0.0000 H   0  0  0  0  0  0  0  0  0  0  0  0
    1.2809   -2.3446    0.0000 H   0  0  0  0  0  0  0  0  0  0  0  0
  1  2  2  0  0  0  0
  1  3  1  0  0  0  0
  1  4  1  0  0  0  0
  3  7  1  0  0  0  0
  3 20  1  0  0  0  0
  4  5  2  0  0  0  0
  4 21  1  0  0  0  0
  5  6  1  0  0  0  0
  5 22  1  0  0  0  0
  6  7  2  0  0  0  0
  6 14  1  0  0  0  0
  7  8  1  0  0  0  0
  8  9  1  0  0  0  0
  8 23  1  0  0  0  0
  8 24  1  0  0  0  0
  9 10  1  0  0  0  0
  9 13  1  0  0  0  0
  9 19  1  1  0  0  0
 10 17  2  0  0  0  0
 10 25  1  0  0  0  0
 11 12  1  0  0  0  0
 11 26  1  0  0  0  0
 11 27  1  0  0  0  0
 11 28  1  0  0  0  0
 12 13  2  0  0  0  0
 12 29  1  0  0  0  0
 13 14  1  0  0  0  0
 14 15  1  6  0  0  0
 14 16  1  0  0  0  0
 15 30  1  0  0  0  0
 15 31  1  0  0  0  0
 16 17  1  0  0  0  0
 16 32  1  0  0  0  0
 16 33  1  0  0  0  0
 17 18  1  0  0  0  0
 18 34  1  0  0  0  0
 18 35  1  0  0  0  0
 18 36  1  0  0  0  0
M  END
>  <DRUGBANK_ID>
DB04864

>  <SECONDARY_ACCESSION_NUMBERS>
EXPT01795; DB01928; DB05510

>  <COMMON_NAME>
Huperzine A

>  <CAS_NUMBER>
102518-79-6

>  <UNII>
0111871I23

>  <SYNONYMS>
(-)-Huperzine A; (âˆ’)-huperazine A; (âˆ’)-selagine; Huperzine-A; L-huperzine A; Selagine

$$$$
