962
 OpenBabel10282417072D

 38 40  0  0  0  0  0  0  0  0999 V2000
    3.0791    3.3850    0.0000 O   0  0  0  0  0  0  0  0  0  0  0  0
    3.7935    2.1474    0.0000 N   0  0  0  0  0  0  0  0  0  0  0  0
    3.0791   -0.7401    0.0000 N   0  0  0  0  0  0  0  0  0  0  0  0
    3.8597   -0.4887    0.0000 N   0  0  0  0  0  0  0  0  0  0  0  0
    2.3645   -1.9777    0.0000 N   0  0  0  0  0  0  0  0  0  0  0  0
    4.3723   -3.3850    0.0000 N   0  0  0  0  0  0  0  0  0  0  0  0
    2.3645    0.4974    0.0000 C   0  0  0  0  0  0  0  0  0  0  0  0
    3.0791    1.7349    0.0000 C   0  0  0  0  0  0  0  0  0  0  0  0
    2.3645   -0.3276    0.0000 C   0  0  0  0  0  0  0  0  0  0  0  0
    3.0791    0.9099    0.0000 C   0  0  0  0  0  0  0  0  0  0  0  0
    4.5080    1.7349    0.0000 C   0  0  0  0  0  0  0  0  0  0  0  0
    1.6500    0.9099    0.0000 C   0  0  0  0  0  0  0  0  0  0  0  0
    2.3645    2.1474    0.0000 C   0  0  0  0  0  0  0  0  0  0  0  0
    3.0791   -1.5651    0.0000 C   0  0  0  0  0  0  0  0  0  0  0  0
    1.6500    1.7349    0.0000 C   0  0  0  0  0  0  0  0  0  0  0  0
    1.6500   -0.7401    0.0000 C   0  0  0  0  0  0  0  0  0  0  0  0
    3.7935    2.9725    0.0000 C   0  0  0  0  0  0  0  0  0  0  0  0
    5.2224    2.1474    0.0000 C   0  0  0  0  0  0  0  0  0  0  0  0
    3.8597   -1.8165    0.0000 C   0  0  0  0  0  0  0  0  0  0  0  0
    1.6500   -1.5651    0.0000 C   0  0  0  0  0  0  0  0  0  0  0  0
    4.3412   -1.1526    0.0000 C   0  0  0  0  0  0  0  0  0  0  0  0
    4.5080    3.3850    0.0000 C   0  0  0  0  0  0  0  0  0  0  0  0
    4.1159   -2.6008    0.0000 C   0  0  0  0  0  0  0  0  0  0  0  0
    3.9728    0.3939    0.0000 H   0  0  0  0  0  0  0  0  0  0  0  0
    4.5080    0.6649    0.0000 H   0  0  0  0  0  0  0  0  0  0  0  0
    5.4347    1.1999    0.0000 H   0  0  0  0  0  0  0  0  0  0  0  0
    0.7563    0.3939    0.0000 H   0  0  0  0  0  0  0  0  0  0  0  0
    2.3645    3.1794    0.0000 H   0  0  0  0  0  0  0  0  0  0  0  0
    0.7563    2.2509    0.0000 H   0  0  0  0  0  0  0  0  0  0  0  0
    0.7563   -0.2241    0.0000 H   0  0  0  0  0  0  0  0  0  0  0  0
    6.1491    1.6124    0.0000 H   0  0  0  0  0  0  0  0  0  0  0  0
    5.2224    3.2174    0.0000 H   0  0  0  0  0  0  0  0  0  0  0  0
    6.1490    2.6824    0.0000 H   0  0  0  0  0  0  0  0  0  0  0  0
    0.7562   -2.0811    0.0000 H   0  0  0  0  0  0  0  0  0  0  0  0
    5.3732   -1.1526    0.0000 H   0  0  0  0  0  0  0  0  0  0  0  0
    5.4346    2.8500    0.0000 H   0  0  0  0  0  0  0  0  0  0  0  0
    4.5080    4.4550    0.0000 H   0  0  0  0  0  0  0  0  0  0  0  0
    5.4347    3.9200    0.0000 H   0  0  0  0  0  0  0  0  0  0  0  0
  1 17  2  0  0  0  0
  2  8  1  0  0  0  0
  2 11  1  0  0  0  0
  2 17  1  0  0  0  0
  3  4  1  0  0  0  0
  3  9  1  0  0  0  0
  3 14  1  0  0  0  0
  4 21  2  0  0  0  0
  5 14  1  0  0  0  0
  5 20  2  0  0  0  0
  6 23  3  0  0  0  0
  7  9  1  0  0  0  0
  7 10  2  0  0  0  0
  7 12  1  0  0  0  0
  8 10  1  0  0  0  0
  8 13  2  0  0  0  0
  9 16  2  0  0  0  0
 10 24  1  0  0  0  0
 11 18  1  0  0  0  0
 11 25  1  0  0  0  0
 11 26  1  0  0  0  0
 12 15  2  0  0  0  0
 12 27  1  0  0  0  0
 13 15  1  0  0  0  0
 13 28  1  0  0  0  0
 14 19  2  0  0  0  0
 15 29  1  0  0  0  0
 16 20  1  0  0  0  0
 16 30  1  0  0  0  0
 17 22  1  0  0  0  0
 18 31  1  0  0  0  0
 18 32  1  0  0  0  0
 18 33  1  0  0  0  0
 19 21  1  0  0  0  0
 19 23  1  0  0  0  0
 20 34  1  0  0  0  0
 21 35  1  0  0  0  0
 22 36  1  0  0  0  0
 22 37  1  0  0  0  0
 22 38  1  0  0  0  0
M  END
>  <DRUGBANK_ID>
DB00962

>  <SECONDARY_ACCESSION_NUMBERS>
APRD00411

>  <COMMON_NAME>
Zaleplon

>  <CAS_NUMBER>
151319-34-5

>  <UNII>
S62U433RMH

>  <SYNONYMS>
3'-(3-Cyanopyrazolo(1,5-a)pyrimidin-7-yl)-N-ethylacetanilide; Zaleplon

$$$$
