
 OpenBabel10282417072D

 31 32  0  0  0  0  0  0  0  0999 V2000
    0.3572    0.2061    0.0000 C   0  0  1  0  0  0  0  0  0  0  0  0
   -0.3573    0.6185    0.0000 C   0  0  0  0  0  0  0  0  0  0  0  0
    0.3572   -0.6184    0.0000 C   0  0  1  0  0  0  0  0  0  0  0  0
    1.0719    0.6185    0.0000 O   0  0  0  0  0  0  0  0  0  0  0  0
   -1.0719    0.2061    0.0000 C   0  0  0  0  0  0  0  0  0  0  0  0
   -0.3573    1.4430    0.0000 C   0  0  0  0  0  0  0  0  0  0  0  0
    1.0719   -1.0307    0.0000 N   0  0  0  0  0  0  0  0  0  0  0  0
   -0.3573   -1.0307    0.0000 C   0  0  0  0  0  0  0  0  0  0  0  0
    1.7866    0.2061    0.0000 C   0  0  0  0  0  0  0  0  0  0  0  0
   -1.7866    0.6185    0.0000 C   0  0  0  0  0  0  0  0  0  0  0  0
   -1.0719    1.8553    0.0000 C   0  0  0  0  0  0  0  0  0  0  0  0
    1.7866   -0.6184    0.0000 C   0  0  0  0  0  0  0  0  0  0  0  0
    1.0719   -1.8553    0.0000 C   0  0  0  0  0  0  0  0  0  0  0  0
   -1.7866    1.4430    0.0000 C   0  0  0  0  0  0  0  0  0  0  0  0
   -0.5694   -0.3290    0.0000 H   0  0  0  0  0  0  0  0  0  0  0  0
   -0.5694   -0.0833    0.0000 H   0  0  0  0  0  0  0  0  0  0  0  0
   -1.0719   -0.8259    0.0000 H   0  0  0  0  0  0  0  0  0  0  0  0
    0.5364    1.9591    0.0000 H   0  0  0  0  0  0  0  0  0  0  0  0
   -1.2838   -0.4955    0.0000 H   0  0  0  0  0  0  0  0  0  0  0  0
   -0.3575   -2.1007    0.0000 H   0  0  0  0  0  0  0  0  0  0  0  0
   -1.2841   -1.5655    0.0000 H   0  0  0  0  0  0  0  0  0  0  0  0
    2.7132    0.7412    0.0000 H   0  0  0  0  0  0  0  0  0  0  0  0
    2.7133   -0.3288    0.0000 H   0  0  0  0  0  0  0  0  0  0  0  0
   -2.6803    0.1024    0.0000 H   0  0  0  0  0  0  0  0  0  0  0  0
   -1.0719    2.8873    0.0000 H   0  0  0  0  0  0  0  0  0  0  0  0
    2.7132   -1.1536    0.0000 H   0  0  0  0  0  0  0  0  0  0  0  0
    2.7133   -0.0835    0.0000 H   0  0  0  0  0  0  0  0  0  0  0  0
    0.1453   -2.3903    0.0000 H   0  0  0  0  0  0  0  0  0  0  0  0
    1.9985   -2.3903    0.0000 H   0  0  0  0  0  0  0  0  0  0  0  0
    1.0719   -2.9253    0.0000 H   0  0  0  0  0  0  0  0  0  0  0  0
   -2.6802    1.9592    0.0000 H   0  0  0  0  0  0  0  0  0  0  0  0
  1  2  1  0  0  0  0
  1  3  1  0  0  0  0
  1  4  1  0  0  0  0
  1 15  1  1  0  0  0
  2  5  2  0  0  0  0
  2  6  1  0  0  0  0
  3  7  1  0  0  0  0
  3  8  1  0  0  0  0
  3 16  1  6  0  0  0
  4  9  1  0  0  0  0
  5 10  1  0  0  0  0
  5 17  1  0  0  0  0
  6 11  2  0  0  0  0
  6 18  1  0  0  0  0
  7 12  1  0  0  0  0
  7 13  1  0  0  0  0
  8 19  1  0  0  0  0
  8 20  1  0  0  0  0
  8 21  1  0  0  0  0
  9 12  1  0  0  0  0
  9 22  1  0  0  0  0
  9 23  1  0  0  0  0
 10 14  2  0  0  0  0
 10 24  1  0  0  0  0
 11 14  1  0  0  0  0
 11 25  1  0  0  0  0
 12 26  1  0  0  0  0
 12 27  1  0  0  0  0
 13 28  1  0  0  0  0
 13 29  1  0  0  0  0
 13 30  1  0  0  0  0
 14 31  1  0  0  0  0
M  END
>  <DRUGBANK_ID>
DB01579

>  <COMMON_NAME>
Phendimetrazine

>  <CAS_NUMBER>
634-03-7

>  <UNII>
AB2794W8KV

>  <SYNONYMS>
(2S,3S)-3,4-dimethyl-2-phenylmorpholine; Phendimetrazine

$$$$
