
 OpenBabel10282417072D

 74 76  0  0  1  0  0  0  0  0999 V2000
   10.1509   -2.6108    0.0000 B   0  0  0  0  0  0  0  0  0  0  0  0
    9.4364   -3.0233    0.0000 C   0  0  2  0  0  0  0  0  0  0  0  0
    8.7219   -2.6108    0.0000 C   0  0  0  0  0  0  0  0  0  0  0  0
    8.0075   -3.0233    0.0000 C   0  0  0  0  0  0  0  0  0  0  0  0
    8.0075   -3.8483    0.0000 C   0  0  0  0  0  0  0  0  0  0  0  0
    7.2930   -4.2608    0.0000 O   0  0  0  0  0  0  0  0  0  0  0  0
    7.2930   -5.0858    0.0000 C   0  0  0  0  0  0  0  0  0  0  0  0
    9.4364   -3.8483    0.0000 N   0  0  0  0  0  0  0  0  0  0  0  0
   10.1509   -4.2608    0.0000 C   0  0  0  0  0  0  0  0  0  0  0  0
   10.8653   -3.8483    0.0000 O   0  0  0  0  0  0  0  0  0  0  0  0
   10.1509   -5.0858    0.0000 C   0  0  2  0  0  0  0  0  0  0  0  0
    9.4834   -5.5708    0.0000 C   0  0  0  0  0  0  0  0  0  0  0  0
    9.7384   -6.3554    0.0000 C   0  0  0  0  0  0  0  0  0  0  0  0
   10.5634   -6.3554    0.0000 C   0  0  0  0  0  0  0  0  0  0  0  0
   10.8183   -5.5708    0.0000 N   0  0  0  0  0  0  0  0  0  0  0  0
   11.6029   -5.3158    0.0000 C   0  0  0  0  0  0  0  0  0  0  0  0
   11.7745   -4.5089    0.0000 O   0  0  0  0  0  0  0  0  0  0  0  0
   12.2160   -5.8679    0.0000 C   0  0  1  0  0  0  0  0  0  0  0  0
   13.0006   -5.6129    0.0000 C   0  0  0  0  0  0  0  0  0  0  0  0
   13.1722   -4.8059    0.0000 C   0  0  0  0  0  0  0  0  0  0  0  0
   12.5591   -4.2539    0.0000 C   0  0  0  0  0  0  0  0  0  0  0  0
   12.7306   -3.4469    0.0000 C   0  0  0  0  0  0  0  0  0  0  0  0
   13.5152   -3.1920    0.0000 C   0  0  0  0  0  0  0  0  0  0  0  0
   14.1283   -3.7440    0.0000 C   0  0  0  0  0  0  0  0  0  0  0  0
   13.9568   -4.5510    0.0000 C   0  0  0  0  0  0  0  0  0  0  0  0
   12.0445   -6.6748    0.0000 N   0  0  0  0  0  0  0  0  0  0  0  0
   12.6576   -7.2269    0.0000 C   0  0  0  0  0  0  0  0  0  0  0  0
   13.4422   -6.9719    0.0000 O   0  0  0  0  0  0  0  0  0  0  0  0
   12.4861   -8.0338    0.0000 O   0  0  0  0  0  0  0  0  0  0  0  0
   13.0992   -8.5859    0.0000 C   0  0  0  0  0  0  0  0  0  0  0  0
   12.9276   -9.3928    0.0000 C   0  0  0  0  0  0  0  0  0  0  0  0
   13.5407   -9.9449    0.0000 C   0  0  0  0  0  0  0  0  0  0  0  0
   13.3692  -10.7518    0.0000 C   0  0  0  0  0  0  0  0  0  0  0  0
   12.5846  -11.0068    0.0000 C   0  0  0  0  0  0  0  0  0  0  0  0
   11.9715  -10.4548    0.0000 C   0  0  0  0  0  0  0  0  0  0  0  0
   12.1430   -9.6478    0.0000 C   0  0  0  0  0  0  0  0  0  0  0  0
   10.8653   -3.0233    0.0000 O   0  0  0  0  0  0  0  0  0  0  0  0
   10.1509   -1.7858    0.0000 O   0  0  0  0  0  0  0  0  0  0  0  0
    9.4364   -1.9533    0.0000 H   0  0  0  0  0  0  0  0  0  0  0  0
    8.7219   -1.5408    0.0000 H   0  0  0  0  0  0  0  0  0  0  0  0
    7.7952   -2.0758    0.0000 H   0  0  0  0  0  0  0  0  0  0  0  0
    7.0808   -2.4883    0.0000 H   0  0  0  0  0  0  0  0  0  0  0  0
    7.0809   -3.5583    0.0000 H   0  0  0  0  0  0  0  0  0  0  0  0
    8.9341   -4.3833    0.0000 H   0  0  0  0  0  0  0  0  0  0  0  0
    8.0075   -4.9183    0.0000 H   0  0  0  0  0  0  0  0  0  0  0  0
    6.3664   -5.6208    0.0000 H   0  0  0  0  0  0  0  0  0  0  0  0
    8.2196   -5.6208    0.0000 H   0  0  0  0  0  0  0  0  0  0  0  0
    7.2930   -6.1558    0.0000 H   0  0  0  0  0  0  0  0  0  0  0  0
    8.5838   -4.3406    0.0000 H   0  0  0  0  0  0  0  0  0  0  0  0
    9.1975   -4.6000    0.0000 H   0  0  0  0  0  0  0  0  0  0  0  0
    8.4658   -5.2402    0.0000 H   0  0  0  0  0  0  0  0  0  0  0  0
    8.7268   -6.3275    0.0000 H   0  0  0  0  0  0  0  0  0  0  0  0
    9.1095   -7.2211    0.0000 H   0  0  0  0  0  0  0  0  0  0  0  0
   10.2242   -7.3088    0.0000 H   0  0  0  0  0  0  0  0  0  0  0  0
   11.1923   -7.2210    0.0000 H   0  0  0  0  0  0  0  0  0  0  0  0
   11.6202   -6.1880    0.0000 H   0  0  0  0  0  0  0  0  0  0  0  0
   11.1984   -6.1985    0.0000 H   0  0  0  0  0  0  0  0  0  0  0  0
   13.7958   -6.3289    0.0000 H   0  0  0  0  0  0  0  0  0  0  0  0
   14.0182   -5.2823    0.0000 H   0  0  0  0  0  0  0  0  0  0  0  0
   11.5776   -4.5728    0.0000 H   0  0  0  0  0  0  0  0  0  0  0  0
   11.9637   -2.7564    0.0000 H   0  0  0  0  0  0  0  0  0  0  0  0
   13.7298   -2.1826    0.0000 H   0  0  0  0  0  0  0  0  0  0  0  0
   15.1098   -3.4251    0.0000 H   0  0  0  0  0  0  0  0  0  0  0  0
   14.7237   -5.2415    0.0000 H   0  0  0  0  0  0  0  0  0  0  0  0
   11.1082   -6.9790    0.0000 H   0  0  0  0  0  0  0  0  0  0  0  0
   14.1169   -8.2553    0.0000 H   0  0  0  0  0  0  0  0  0  0  0  0
   13.8943   -9.3019    0.0000 H   0  0  0  0  0  0  0  0  0  0  0  0
   14.5222   -9.6260    0.0000 H   0  0  0  0  0  0  0  0  0  0  0  0
   14.1362  -11.4423    0.0000 H   0  0  0  0  0  0  0  0  0  0  0  0
   12.3701  -12.0163    0.0000 H   0  0  0  0  0  0  0  0  0  0  0  0
   10.9900  -10.7737    0.0000 H   0  0  0  0  0  0  0  0  0  0  0  0
   11.3760   -8.9573    0.0000 H   0  0  0  0  0  0  0  0  0  0  0  0
   10.8653   -3.9933    0.0000 H   0  0  0  0  0  0  0  0  0  0  0  0
   10.9909   -1.3008    0.0000 H   0  0  0  0  0  0  0  0  0  0  0  0
  1 37  1  0  0  0  0
  1 38  1  0  0  0  0
  2  1  1  0  0  0  0
  2  3  1  0  0  0  0
  2  8  1  0  0  0  0
  2 39  1  6  0  0  0
  3  4  1  0  0  0  0
  3 40  1  0  0  0  0
  3 41  1  0  0  0  0
  4  5  1  0  0  0  0
  4 42  1  0  0  0  0
  4 43  1  0  0  0  0
  5  6  1  0  0  0  0
  5 44  1  0  0  0  0
  5 45  1  0  0  0  0
  6  7  1  0  0  0  0
  7 46  1  0  0  0  0
  7 47  1  0  0  0  0
  7 48  1  0  0  0  0
  8  9  1  0  0  0  0
  8 49  1  0  0  0  0
  9 10  2  0  0  0  0
 11  9  1  0  0  0  0
 11 12  1  0  0  0  0
 11 15  1  0  0  0  0
 11 50  1  6  0  0  0
 12 13  1  0  0  0  0
 12 51  1  0  0  0  0
 12 52  1  0  0  0  0
 13 14  1  0  0  0  0
 13 53  1  0  0  0  0
 13 54  1  0  0  0  0
 14 15  1  0  0  0  0
 14 55  1  0  0  0  0
 14 56  1  0  0  0  0
 15 16  1  0  0  0  0
 16 17  2  0  0  0  0
 16 18  1  0  0  0  0
 18 19  1  0  0  0  0
 18 26  1  0  0  0  0
 18 57  1  6  0  0  0
 19 20  1  0  0  0  0
 19 58  1  0  0  0  0
 19 59  1  0  0  0  0
 20 21  2  0  0  0  0
 20 25  1  0  0  0  0
 21 22  1  0  0  0  0
 21 60  1  0  0  0  0
 22 23  2  0  0  0  0
 22 61  1  0  0  0  0
 23 24  1  0  0  0  0
 23 62  1  0  0  0  0
 24 25  2  0  0  0  0
 24 63  1  0  0  0  0
 25 64  1  0  0  0  0
 26 27  1  0  0  0  0
 26 65  1  0  0  0  0
 27 28  2  0  0  0  0
 27 29  1  0  0  0  0
 29 30  1  0  0  0  0
 30 31  1  0  0  0  0
 30 66  1  0  0  0  0
 30 67  1  0  0  0  0
 31 32  2  0  0  0  0
 31 36  1  0  0  0  0
 32 33  1  0  0  0  0
 32 68  1  0  0  0  0
 33 34  2  0  0  0  0
 33 69  1  0  0  0  0
 34 35  1  0  0  0  0
 34 70  1  0  0  0  0
 35 36  2  0  0  0  0
 35 71  1  0  0  0  0
 36 72  1  0  0  0  0
 37 73  1  0  0  0  0
 38 74  1  0  0  0  0
M  END
>  <DRUGBANK_ID>
DB05714

>  <COMMON_NAME>
Flovagatran

>  <CAS_NUMBER>
871576-03-3

>  <UNII>
2WA50NUH6H

>  <SYNONYMS>
Flovagatran

$$$$
