
 OpenBabel10282417072D

 53 55  0  0  0  0  0  0  0  0999 V2000
    0.7746    2.9859    0.0000 C   0  0  0  0  0  0  0  0  0  0  0  0
    0.0601    2.5734    0.0000 C   0  0  0  0  0  0  0  0  0  0  0  0
    0.0601    1.7484    0.0000 C   0  0  0  0  0  0  0  0  0  0  0  0
    0.7746    1.3359    0.0000 C   0  0  0  0  0  0  0  0  0  0  0  0
    1.4891    1.7484    0.0000 C   0  0  0  0  0  0  0  0  0  0  0  0
    1.4891    2.5734    0.0000 C   0  0  0  0  0  0  0  0  0  0  0  0
    0.7746    3.8109    0.0000 Cl  0  0  0  0  0  0  0  0  0  0  0  0
    0.7746    0.5109    0.0000 C   0  0  0  0  0  0  0  0  0  0  0  0
    0.0601    0.0984    0.0000 N   0  0  0  0  0  0  0  0  0  0  0  0
    0.0601   -0.7265    0.0000 C   0  0  0  0  0  0  0  0  0  0  0  0
   -0.6543    0.5109    0.0000 C   0  0  0  0  0  0  0  0  0  0  0  0
   -1.3688    0.0984    0.0000 C   0  0  0  0  0  0  0  0  0  0  0  0
   -2.1224    0.4340    0.0000 S   0  0  0  0  0  0  0  0  0  0  0  0
   -2.6744   -0.1790    0.0000 C   0  0  0  0  0  0  0  0  0  0  0  0
   -2.2619   -0.8935    0.0000 C   0  0  0  0  0  0  0  0  0  0  0  0
   -1.4550   -0.7220    0.0000 C   0  0  0  0  0  0  0  0  0  0  0  0
   -3.4949   -0.0928    0.0000 N   0  3  0  0  0  0  0  0  0  0  0  0
   -3.9798   -0.7602    0.0000 O   0  5  0  0  0  0  0  0  0  0  0  0
   -3.8305    0.6608    0.0000 O   0  0  0  0  0  0  0  0  0  0  0  0
    0.7746   -1.1390    0.0000 C   0  0  3  0  0  0  0  0  0  0  0  0
    0.8608   -1.9595    0.0000 C   0  0  0  0  0  0  0  0  0  0  0  0
    1.6677   -2.1310    0.0000 N   0  0  0  0  0  0  0  0  0  0  0  0
    2.0802   -1.4165    0.0000 C   0  0  0  0  0  0  0  0  0  0  0  0
    1.5282   -0.8034    0.0000 C   0  0  0  0  0  0  0  0  0  0  0  0
    2.0033   -2.8847    0.0000 C   0  0  0  0  0  0  0  0  0  0  0  0
    2.8238   -2.9709    0.0000 O   0  0  0  0  0  0  0  0  0  0  0  0
    1.5184   -3.5521    0.0000 O   0  0  0  0  0  0  0  0  0  0  0  0
    3.1593   -3.7246    0.0000 C   0  0  0  0  0  0  0  0  0  0  0  0
    3.9798   -3.8109    0.0000 C   0  0  0  0  0  0  0  0  0  0  0  0
   -0.8336    3.0894    0.0000 H   0  0  0  0  0  0  0  0  0  0  0  0
   -0.8336    1.2324    0.0000 H   0  0  0  0  0  0  0  0  0  0  0  0
    2.3828    1.2324    0.0000 H   0  0  0  0  0  0  0  0  0  0  0  0
    2.3828    3.0894    0.0000 H   0  0  0  0  0  0  0  0  0  0  0  0
    1.7012   -0.0241    0.0000 H   0  0  0  0  0  0  0  0  0  0  0  0
    0.7746   -0.5591    0.0000 H   0  0  0  0  0  0  0  0  0  0  0  0
   -0.8665   -1.2615    0.0000 H   0  0  0  0  0  0  0  0  0  0  0  0
    0.0601   -1.7965    0.0000 H   0  0  0  0  0  0  0  0  0  0  0  0
   -0.6543    1.5809    0.0000 H   0  0  0  0  0  0  0  0  0  0  0  0
   -1.5809    1.0459    0.0000 H   0  0  0  0  0  0  0  0  0  0  0  0
   -2.6817   -1.8363    0.0000 H   0  0  0  0  0  0  0  0  0  0  0  0
   -0.6881   -1.4125    0.0000 H   0  0  0  0  0  0  0  0  0  0  0  0
   -0.1228   -1.7218    0.0000 H   0  0  0  0  0  0  0  0  0  0  0  0
    0.0656   -2.6755    0.0000 H   0  0  0  0  0  0  0  0  0  0  0  0
    1.1377   -2.9930    0.0000 H   0  0  0  0  0  0  0  0  0  0  0  0
    3.1443   -1.3047    0.0000 H   0  0  0  0  0  0  0  0  0  0  0  0
    2.4637   -0.4176    0.0000 H   0  0  0  0  0  0  0  0  0  0  0  0
    1.7506    0.2432    0.0000 H   0  0  0  0  0  0  0  0  0  0  0  0
    2.5617   -0.5265    0.0000 H   0  0  0  0  0  0  0  0  0  0  0  0
    2.5303   -4.5902    0.0000 H   0  0  0  0  0  0  0  0  0  0  0  0
    3.5944   -4.7021    0.0000 H   0  0  0  0  0  0  0  0  0  0  0  0
    4.4149   -4.7884    0.0000 H   0  0  0  0  0  0  0  0  0  0  0  0
    4.6088   -2.9453    0.0000 H   0  0  0  0  0  0  0  0  0  0  0  0
    5.0439   -3.9228    0.0000 H   0  0  0  0  0  0  0  0  0  0  0  0
  1  2  1  0  0  0  0
  1  6  2  0  0  0  0
  1  7  1  0  0  0  0
  2  3  2  0  0  0  0
  2 30  1  0  0  0  0
  3  4  1  0  0  0  0
  3 31  1  0  0  0  0
  4  5  2  0  0  0  0
  4  8  1  0  0  0  0
  5  6  1  0  0  0  0
  5 32  1  0  0  0  0
  6 33  1  0  0  0  0
  8  9  1  0  0  0  0
  8 34  1  0  0  0  0
  8 35  1  0  0  0  0
  9 10  1  0  0  0  0
  9 11  1  0  0  0  0
 10 20  1  0  0  0  0
 10 36  1  0  0  0  0
 10 37  1  0  0  0  0
 11 12  1  0  0  0  0
 11 38  1  0  0  0  0
 11 39  1  0  0  0  0
 12 13  1  0  0  0  0
 12 16  2  0  0  0  0
 13 14  1  0  0  0  0
 14 15  2  0  0  0  0
 14 17  1  0  0  0  0
 15 16  1  0  0  0  0
 15 40  1  0  0  0  0
 16 41  1  0  0  0  0
 17 18  1  0  0  0  0
 17 19  2  0  0  0  0
 20 21  1  0  0  0  0
 20 24  1  0  0  0  0
 20 42  1  0  0  0  0
 21 22  1  0  0  0  0
 21 43  1  0  0  0  0
 21 44  1  0  0  0  0
 22 23  1  0  0  0  0
 22 25  1  0  0  0  0
 23 24  1  0  0  0  0
 23 45  1  0  0  0  0
 23 46  1  0  0  0  0
 24 47  1  0  0  0  0
 24 48  1  0  0  0  0
 25 26  1  0  0  0  0
 25 27  2  0  0  0  0
 26 28  1  0  0  0  0
 28 29  1  0  0  0  0
 28 49  1  0  0  0  0
 28 50  1  0  0  0  0
 29 51  1  0  0  0  0
 29 52  1  0  0  0  0
 29 53  1  0  0  0  0
M  CHG  2  17   1  18  -1
M  END
>  <DRUGBANK_ID>
DB14013

>  <COMMON_NAME>
SR-9009

>  <CAS_NUMBER>
1379686-30-2

>  <UNII>
X5DCA09N30

>  <SYNONYMS>
1-Pyrrolidinecarboxylic acid, 3-((((4-chlorophenyl)methyl)((5-nitro-2-thienyl)methyl)amino)methyl)-, ethyl ester

$$$$
