
 OpenBabel10282417072D

 68 71  0  0  1  0  0  0  0  0999 V2000
    3.5724   -2.8875    0.0000 C   0  0  0  0  0  0  0  0  0  0  0  0
    3.5724   -3.7125    0.0000 N   0  0  0  0  0  0  0  0  0  0  0  0
    2.8579   -4.1250    0.0000 C   0  0  0  0  0  0  0  0  0  0  0  0
    2.1434   -3.7125    0.0000 C   0  0  0  0  0  0  0  0  0  0  0  0
    1.4289   -4.1250    0.0000 C   0  0  0  0  0  0  0  0  0  0  0  0
    1.4289   -4.9500    0.0000 C   0  0  0  0  0  0  0  0  0  0  0  0
    0.7145   -5.3625    0.0000 C   0  0  0  0  0  0  0  0  0  0  0  0
    0.0000   -4.9500    0.0000 C   0  0  0  0  0  0  0  0  0  0  0  0
    0.0000   -4.1250    0.0000 C   0  0  0  0  0  0  0  0  0  0  0  0
    0.7145   -3.7125    0.0000 C   0  0  0  0  0  0  0  0  0  0  0  0
   -0.7145   -3.7125    0.0000 C   0  0  0  0  0  0  0  0  0  0  0  0
   -1.4289   -3.3000    0.0000 F   0  0  0  0  0  0  0  0  0  0  0  0
   -1.1270   -4.4270    0.0000 F   0  0  0  0  0  0  0  0  0  0  0  0
   -0.3020   -2.9980    0.0000 F   0  0  0  0  0  0  0  0  0  0  0  0
    0.7145   -6.1875    0.0000 C   0  0  0  0  0  0  0  0  0  0  0  0
    0.7145   -7.0125    0.0000 F   0  0  0  0  0  0  0  0  0  0  0  0
   -0.1105   -6.1875    0.0000 F   0  0  0  0  0  0  0  0  0  0  0  0
    1.5395   -6.1875    0.0000 F   0  0  0  0  0  0  0  0  0  0  0  0
    4.2868   -4.1250    0.0000 C   0  0  0  0  0  0  0  0  0  0  0  0
    4.2868   -4.9500    0.0000 O   0  0  0  0  0  0  0  0  0  0  0  0
    5.0013   -3.7125    0.0000 C   0  0  2  0  0  0  0  0  0  0  0  0
    5.0013   -2.8875    0.0000 C   0  0  0  0  0  0  0  0  0  0  0  0
    4.2868   -2.4750    0.0000 C   0  0  0  0  0  0  0  0  0  0  0  0
    4.2868   -1.6500    0.0000 C   0  0  0  0  0  0  0  0  0  0  0  0
    5.0013   -1.2375    0.0000 C   0  0  0  0  0  0  0  0  0  0  0  0
    5.7158   -1.6500    0.0000 C   0  0  0  0  0  0  0  0  0  0  0  0
    5.7158   -2.4750    0.0000 C   0  0  0  0  0  0  0  0  0  0  0  0
    5.7158   -4.1250    0.0000 N   0  0  0  0  0  0  0  0  0  0  0  0
    6.4302   -3.7125    0.0000 C   0  0  0  0  0  0  0  0  0  0  0  0
    7.1447   -4.1250    0.0000 C   0  0  0  0  0  0  0  0  0  0  0  0
    7.1447   -4.9500    0.0000 N   0  0  0  0  0  0  0  0  0  0  0  0
    6.4302   -5.3625    0.0000 C   0  0  0  0  0  0  0  0  0  0  0  0
    5.7158   -4.9500    0.0000 C   0  0  0  0  0  0  0  0  0  0  0  0
    7.8592   -5.3625    0.0000 C   0  0  0  0  0  0  0  0  0  0  0  0
    7.8592   -6.1875    0.0000 C   0  0  0  0  0  0  0  0  0  0  0  0
    8.2717   -6.9020    0.0000 C   0  0  0  0  0  0  0  0  0  0  0  0
    7.4467   -6.9020    0.0000 C   0  0  0  0  0  0  0  0  0  0  0  0
    4.4990   -2.3525    0.0000 H   0  0  0  0  0  0  0  0  0  0  0  0
    2.6458   -2.3525    0.0000 H   0  0  0  0  0  0  0  0  0  0  0  0
    3.5724   -1.8175    0.0000 H   0  0  0  0  0  0  0  0  0  0  0  0
    2.8579   -5.1950    0.0000 H   0  0  0  0  0  0  0  0  0  0  0  0
    1.9313   -4.6600    0.0000 H   0  0  0  0  0  0  0  0  0  0  0  0
    2.1434   -2.6425    0.0000 H   0  0  0  0  0  0  0  0  0  0  0  0
    1.2168   -3.1775    0.0000 H   0  0  0  0  0  0  0  0  0  0  0  0
    2.3226   -5.4660    0.0000 H   0  0  0  0  0  0  0  0  0  0  0  0
   -0.8937   -5.4660    0.0000 H   0  0  0  0  0  0  0  0  0  0  0  0
    0.7145   -2.6805    0.0000 H   0  0  0  0  0  0  0  0  0  0  0  0
    4.0747   -3.1775    0.0000 H   0  0  0  0  0  0  0  0  0  0  0  0
    3.3931   -2.9910    0.0000 H   0  0  0  0  0  0  0  0  0  0  0  0
    3.3931   -1.1340    0.0000 H   0  0  0  0  0  0  0  0  0  0  0  0
    5.0013   -0.2055    0.0000 H   0  0  0  0  0  0  0  0  0  0  0  0
    6.6095   -1.1340    0.0000 H   0  0  0  0  0  0  0  0  0  0  0  0
    6.6095   -2.9910    0.0000 H   0  0  0  0  0  0  0  0  0  0  0  0
    6.4302   -2.6425    0.0000 H   0  0  0  0  0  0  0  0  0  0  0  0
    7.3568   -3.1775    0.0000 H   0  0  0  0  0  0  0  0  0  0  0  0
    8.0713   -3.5900    0.0000 H   0  0  0  0  0  0  0  0  0  0  0  0
    8.0713   -4.6600    0.0000 H   0  0  0  0  0  0  0  0  0  0  0  0
    6.4302   -6.4325    0.0000 H   0  0  0  0  0  0  0  0  0  0  0  0
    5.5035   -5.8975    0.0000 H   0  0  0  0  0  0  0  0  0  0  0  0
    4.7891   -5.4850    0.0000 H   0  0  0  0  0  0  0  0  0  0  0  0
    4.7892   -4.4150    0.0000 H   0  0  0  0  0  0  0  0  0  0  0  0
    8.7858   -4.8275    0.0000 H   0  0  0  0  0  0  0  0  0  0  0  0
    8.7858   -5.8975    0.0000 H   0  0  0  0  0  0  0  0  0  0  0  0
    7.8592   -7.2575    0.0000 H   0  0  0  0  0  0  0  0  0  0  0  0
    9.1983   -7.4370    0.0000 H   0  0  0  0  0  0  0  0  0  0  0  0
    7.9948   -7.9355    0.0000 H   0  0  0  0  0  0  0  0  0  0  0  0
    6.5201   -7.4370    0.0000 H   0  0  0  0  0  0  0  0  0  0  0  0
    6.6901   -6.1454    0.0000 H   0  0  0  0  0  0  0  0  0  0  0  0
  1  2  1  0  0  0  0
  1 38  1  0  0  0  0
  1 39  1  0  0  0  0
  1 40  1  0  0  0  0
  2  3  1  0  0  0  0
  2 19  1  0  0  0  0
  3  4  1  0  0  0  0
  3 41  1  0  0  0  0
  3 42  1  0  0  0  0
  4  5  1  0  0  0  0
  4 43  1  0  0  0  0
  4 44  1  0  0  0  0
  5  6  2  0  0  0  0
  5 10  1  0  0  0  0
  6  7  1  0  0  0  0
  6 45  1  0  0  0  0
  7  8  2  0  0  0  0
  7 15  1  0  0  0  0
  8  9  1  0  0  0  0
  8 46  1  0  0  0  0
  9 10  2  0  0  0  0
  9 11  1  0  0  0  0
 10 47  1  0  0  0  0
 11 12  1  0  0  0  0
 11 13  1  0  0  0  0
 11 14  1  0  0  0  0
 15 16  1  0  0  0  0
 15 17  1  0  0  0  0
 15 18  1  0  0  0  0
 19 20  2  0  0  0  0
 21 19  1  0  0  0  0
 21 22  1  0  0  0  0
 21 28  1  0  0  0  0
 21 48  1  1  0  0  0
 22 23  2  0  0  0  0
 22 27  1  0  0  0  0
 23 24  1  0  0  0  0
 23 49  1  0  0  0  0
 24 25  2  0  0  0  0
 24 50  1  0  0  0  0
 25 26  1  0  0  0  0
 25 51  1  0  0  0  0
 26 27  2  0  0  0  0
 26 52  1  0  0  0  0
 27 53  1  0  0  0  0
 28 29  1  0  0  0  0
 28 33  1  0  0  0  0
 29 30  1  0  0  0  0
 29 54  1  0  0  0  0
 29 55  1  0  0  0  0
 30 31  1  0  0  0  0
 30 56  1  0  0  0  0
 30 57  1  0  0  0  0
 31 32  1  0  0  0  0
 31 34  1  0  0  0  0
 32 33  1  0  0  0  0
 32 58  1  0  0  0  0
 32 59  1  0  0  0  0
 33 60  1  0  0  0  0
 33 61  1  0  0  0  0
 34 35  1  0  0  0  0
 34 62  1  0  0  0  0
 34 63  1  0  0  0  0
 35 36  1  0  0  0  0
 35 37  1  0  0  0  0
 35 64  1  0  0  0  0
 36 37  1  0  0  0  0
 36 65  1  0  0  0  0
 36 66  1  0  0  0  0
 37 67  1  0  0  0  0
 37 68  1  0  0  0  0
M  END
>  <DRUGBANK_ID>
DB12122

>  <COMMON_NAME>
Figopitant

>  <CAS_NUMBER>
502422-74-4

>  <UNII>
23X73B9O6Q

>  <SYNONYMS>
Figopitant

$$$$
