
 OpenBabel10282417072D

 61 64  0  0  0  0  0  0  0  0999 V2000
    1.0973    0.1656    0.0000 C   0  0  0  0  0  0  0  0  0  0  0  0
    1.0973    0.9938    0.0000 C   0  0  0  0  0  0  0  0  0  0  0  0
    1.8012    1.4079    0.0000 C   0  0  0  0  0  0  0  0  0  0  0  0
    2.5051    0.9938    0.0000 C   0  0  0  0  0  0  0  0  0  0  0  0
    2.5051    0.1656    0.0000 C   0  0  0  0  0  0  0  0  0  0  0  0
    1.8012   -0.2484    0.0000 C   0  0  0  0  0  0  0  0  0  0  0  0
    1.8012   -1.0765    0.0000 C   0  0  0  0  0  0  0  0  0  0  0  0
    1.8012   -1.9047    0.0000 F   0  0  0  0  0  0  0  0  0  0  0  0
    0.9730   -1.0765    0.0000 F   0  0  0  0  0  0  0  0  0  0  0  0
    2.5879   -1.0765    0.0000 F   0  0  0  0  0  0  0  0  0  0  0  0
    3.2504    1.4079    0.0000 C   0  0  0  0  0  0  0  0  0  0  0  0
    3.9543    1.8219    0.0000 F   0  0  0  0  0  0  0  0  0  0  0  0
    2.8363    2.1118    0.0000 F   0  0  0  0  0  0  0  0  0  0  0  0
    3.6644    0.6625    0.0000 F   0  0  0  0  0  0  0  0  0  0  0  0
    0.3519    1.4079    0.0000 C   0  0  2  0  0  0  0  0  0  0  0  0
   -0.3519    0.9938    0.0000 O   0  0  0  0  0  0  0  0  0  0  0  0
   -1.0558    1.4079    0.0000 C   0  0  0  0  0  0  0  0  0  0  0  0
   -1.8012    0.9938    0.0000 C   0  0  2  0  0  0  0  0  0  0  0  0
   -2.5051    1.4079    0.0000 C   0  0  0  0  0  0  0  0  0  0  0  0
   -1.0558    0.5383    0.0000 N   0  0  0  0  0  0  0  0  0  0  0  0
   -1.0558   -0.2898    0.0000 C   0  0  0  0  0  0  0  0  0  0  0  0
   -1.7597   -0.7039    0.0000 C   0  0  2  0  0  0  0  0  0  0  0  0
   -2.5051   -0.2484    0.0000 C   0  0  0  0  0  0  0  0  0  0  0  0
   -2.5051    0.5797    0.0000 C   0  0  0  0  0  0  0  0  0  0  0  0
   -1.0973   -1.1593    0.0000 C   0  0  0  0  0  0  0  0  0  0  0  0
   -1.3457   -1.9460    0.0000 C   0  0  0  0  0  0  0  0  0  0  0  0
   -2.1738   -1.9460    0.0000 C   0  0  0  0  0  0  0  0  0  0  0  0
   -2.4637   -1.1593    0.0000 N   0  0  0  0  0  0  0  0  0  0  0  0
   -2.6707   -2.6086    0.0000 O   0  0  0  0  0  0  0  0  0  0  0  0
   -3.2504    0.9523    0.0000 C   0  0  0  0  0  0  0  0  0  0  0  0
   -3.9543    1.3664    0.0000 C   0  0  0  0  0  0  0  0  0  0  0  0
   -3.9543    2.1946    0.0000 C   0  0  0  0  0  0  0  0  0  0  0  0
   -3.2089    2.6086    0.0000 C   0  0  0  0  0  0  0  0  0  0  0  0
   -2.5051    2.1946    0.0000 C   0  0  0  0  0  0  0  0  0  0  0  0
    0.3519    2.1946    0.0000 C   0  0  0  0  0  0  0  0  0  0  0  0
    0.2015   -0.3468    0.0000 H   0  0  0  0  0  0  0  0  0  0  0  0
    1.8012    2.4399    0.0000 H   0  0  0  0  0  0  0  0  0  0  0  0
    3.4009   -0.3468    0.0000 H   0  0  0  0  0  0  0  0  0  0  0  0
    1.2741    1.9505    0.0000 H   0  0  0  0  0  0  0  0  0  0  0  0
   -1.0426    2.4778    0.0000 H   0  0  0  0  0  0  0  0  0  0  0  0
   -1.9746    1.9562    0.0000 H   0  0  0  0  0  0  0  0  0  0  0  0
   -0.1662    1.0373    0.0000 H   0  0  0  0  0  0  0  0  0  0  0  0
   -0.1270   -0.8210    0.0000 H   0  0  0  0  0  0  0  0  0  0  0  0
   -1.0492   -1.3598    0.0000 H   0  0  0  0  0  0  0  0  0  0  0  0
   -3.4383   -0.7718    0.0000 H   0  0  0  0  0  0  0  0  0  0  0  0
   -3.4284    0.2924    0.0000 H   0  0  0  0  0  0  0  0  0  0  0  0
   -3.4339    1.1109    0.0000 H   0  0  0  0  0  0  0  0  0  0  0  0
   -2.5117    1.6497    0.0000 H   0  0  0  0  0  0  0  0  0  0  0  0
   -0.0855   -0.8112    0.0000 H   0  0  0  0  0  0  0  0  0  0  0  0
   -0.3311   -1.9062    0.0000 H   0  0  0  0  0  0  0  0  0  0  0  0
   -0.7132   -2.8090    0.0000 H   0  0  0  0  0  0  0  0  0  0  0  0
   -1.8295   -2.9004    0.0000 H   0  0  0  0  0  0  0  0  0  0  0  0
   -3.3977   -0.8479    0.0000 H   0  0  0  0  0  0  0  0  0  0  0  0
   -3.2417   -0.0797    0.0000 H   0  0  0  0  0  0  0  0  0  0  0  0
   -4.8501    0.8541    0.0000 H   0  0  0  0  0  0  0  0  0  0  0  0
   -4.8437    2.7180    0.0000 H   0  0  0  0  0  0  0  0  0  0  0  0
   -3.1961    3.6405    0.0000 H   0  0  0  0  0  0  0  0  0  0  0  0
   -1.6093    2.7070    0.0000 H   0  0  0  0  0  0  0  0  0  0  0  0
    1.2785    2.7296    0.0000 H   0  0  0  0  0  0  0  0  0  0  0  0
   -0.5747    2.7296    0.0000 H   0  0  0  0  0  0  0  0  0  0  0  0
    0.3519    3.2646    0.0000 H   0  0  0  0  0  0  0  0  0  0  0  0
  1  2  2  0  0  0  0
  1  6  1  0  0  0  0
  1 36  1  0  0  0  0
  2  3  1  0  0  0  0
  2 15  1  0  0  0  0
  3  4  2  0  0  0  0
  3 37  1  0  0  0  0
  4  5  1  0  0  0  0
  4 11  1  0  0  0  0
  5  6  2  0  0  0  0
  5 38  1  0  0  0  0
  6  7  1  0  0  0  0
  7  8  1  0  0  0  0
  7  9  1  0  0  0  0
  7 10  1  0  0  0  0
 11 12  1  0  0  0  0
 11 13  1  0  0  0  0
 11 14  1  0  0  0  0
 15 16  1  0  0  0  0
 15 35  1  0  0  0  0
 15 39  1  1  0  0  0
 16 17  1  0  0  0  0
 17 40  1  0  0  0  0
 17 41  1  0  0  0  0
 18 17  1  6  0  0  0
 18 19  1  0  0  0  0
 18 20  1  0  0  0  0
 18 24  1  0  0  0  0
 19 30  2  0  0  0  0
 19 34  1  0  0  0  0
 20 21  1  0  0  0  0
 20 42  1  0  0  0  0
 21 43  1  0  0  0  0
 21 44  1  0  0  0  0
 22 21  1  6  0  0  0
 22 23  1  0  0  0  0
 22 25  1  0  0  0  0
 22 28  1  0  0  0  0
 23 24  1  0  0  0  0
 23 45  1  0  0  0  0
 23 46  1  0  0  0  0
 24 47  1  0  0  0  0
 24 48  1  0  0  0  0
 25 26  1  0  0  0  0
 25 49  1  0  0  0  0
 25 50  1  0  0  0  0
 26 27  1  0  0  0  0
 26 51  1  0  0  0  0
 26 52  1  0  0  0  0
 27 28  1  0  0  0  0
 27 29  2  0  0  0  0
 28 53  1  0  0  0  0
 30 31  1  0  0  0  0
 30 54  1  0  0  0  0
 31 32  2  0  0  0  0
 31 55  1  0  0  0  0
 32 33  1  0  0  0  0
 32 56  1  0  0  0  0
 33 34  2  0  0  0  0
 33 57  1  0  0  0  0
 34 58  1  0  0  0  0
 35 59  1  0  0  0  0
 35 60  1  0  0  0  0
 35 61  1  0  0  0  0
M  END
>  <DRUGBANK_ID>
DB09291

>  <COMMON_NAME>
Rolapitant

>  <CAS_NUMBER>
552292-08-7

>  <UNII>
NLE429IZUC

>  <SYNONYMS>
Rolapitant

$$$$
