
 OpenBabel10282417072D

 34 35  0  0  1  0  0  0  0  0999 V2000
    0.4950    0.1203    0.0000 C   0  0  2  0  0  0  0  0  0  0  0  0
    1.2822    0.3781    0.0000 N   0  0  0  0  0  0  0  0  0  0  0  0
   -0.1478    0.5912    0.0000 O   0  0  0  0  0  0  0  0  0  0  0  0
    0.2509   -0.6875    0.0000 C   0  0  1  0  0  0  0  0  0  0  0  0
    1.9009   -0.1719    0.0000 C   0  0  0  0  0  0  0  0  0  0  0  0
    1.4540    1.1860    0.0000 C   0  0  0  0  0  0  0  0  0  0  0  0
   -0.8215    0.0997    0.0000 C   0  0  1  0  0  0  0  0  0  0  0  0
   -0.5741   -0.6875    0.0000 C   0  0  1  0  0  0  0  0  0  0  0  0
    0.7356   -1.3509    0.0000 O   0  0  0  0  0  0  0  0  0  0  0  0
    2.6915    0.0894    0.0000 N   0  0  0  0  0  0  0  0  0  0  0  0
    1.7393   -0.9762    0.0000 O   0  0  0  0  0  0  0  0  0  0  0  0
    2.2344    1.4471    0.0000 C   0  0  0  0  0  0  0  0  0  0  0  0
   -1.6052    0.3541    0.0000 C   0  0  0  0  0  0  0  0  0  0  0  0
   -1.0622   -1.3475    0.0000 O   0  0  0  0  0  0  0  0  0  0  0  0
    2.8600    0.8972    0.0000 C   0  0  0  0  0  0  0  0  0  0  0  0
   -2.1897   -0.2200    0.0000 O   0  0  0  0  0  0  0  0  0  0  0  0
    3.6437    1.1550    0.0000 O   0  0  0  0  0  0  0  0  0  0  0  0
   -3.0112   -0.2200    0.0000 P   0  0  0  0  0  0  0  0  0  0  0  0
   -3.0181   -1.0415    0.0000 O   0  0  0  0  0  0  0  0  0  0  0  0
   -3.8362   -0.2200    0.0000 O   0  0  0  0  0  0  0  0  0  0  0  0
   -3.0181    0.6015    0.0000 O   0  0  0  0  0  0  0  0  0  0  0  0
    0.6632    1.1770    0.0000 H   0  0  0  0  0  0  0  0  0  0  0  0
    1.3057   -0.5078    0.0000 H   0  0  0  0  0  0  0  0  0  0  0  0
    0.6841    1.8732    0.0000 H   0  0  0  0  0  0  0  0  0  0  0  0
   -0.9901    1.1563    0.0000 H   0  0  0  0  0  0  0  0  0  0  0  0
   -0.0924   -1.6429    0.0000 H   0  0  0  0  0  0  0  0  0  0  0  0
    0.3434   -2.2381    0.0000 H   0  0  0  0  0  0  0  0  0  0  0  0
    3.4260   -0.5661    0.0000 H   0  0  0  0  0  0  0  0  0  0  0  0
    2.4385    2.4587    0.0000 H   0  0  0  0  0  0  0  0  0  0  0  0
   -1.8505    1.3956    0.0000 H   0  0  0  0  0  0  0  0  0  0  0  0
   -2.6331    0.6514    0.0000 H   0  0  0  0  0  0  0  0  0  0  0  0
   -2.0260   -1.2380    0.0000 H   0  0  0  0  0  0  0  0  0  0  0  0
   -3.8622   -1.5194    0.0000 H   0  0  0  0  0  0  0  0  0  0  0  0
   -4.3212    0.6200    0.0000 H   0  0  0  0  0  0  0  0  0  0  0  0
  1  2  1  0  0  0  0
  1  3  1  0  0  0  0
  1  4  1  0  0  0  0
  1 22  1  6  0  0  0
  2  5  1  0  0  0  0
  2  6  1  0  0  0  0
  3  7  1  0  0  0  0
  4  8  1  0  0  0  0
  4  9  1  0  0  0  0
  4 23  1  1  0  0  0
  5 10  1  0  0  0  0
  5 11  2  0  0  0  0
  6 12  2  0  0  0  0
  6 24  1  0  0  0  0
  7 13  1  0  0  0  0
  7  8  1  0  0  0  0
  7 25  1  6  0  0  0
  8 14  1  0  0  0  0
  8 26  1  1  0  0  0
  9 27  1  0  0  0  0
 10 15  1  0  0  0  0
 10 28  1  0  0  0  0
 12 15  1  0  0  0  0
 12 29  1  0  0  0  0
 13 16  1  0  0  0  0
 13 30  1  0  0  0  0
 13 31  1  0  0  0  0
 14 32  1  0  0  0  0
 15 17  2  0  0  0  0
 16 18  1  0  0  0  0
 18 19  1  0  0  0  0
 18 20  1  0  0  0  0
 18 21  2  0  0  0  0
 19 33  1  0  0  0  0
 20 34  1  0  0  0  0
M  END
>  <DRUGBANK_ID>
DB03685

>  <SECONDARY_ACCESSION_NUMBERS>
EXPT03155

>  <COMMON_NAME>
Uridine monophosphate

>  <CAS_NUMBER>
58-97-9

>  <UNII>
E2OU15WN0N

>  <SYNONYMS>
5'-uridylic acid; UMP; Uridine 5'-monophosphate; Uridine 5'-phosphoric acid; Uridine phosphate; Uridine-5'-monophosphate

$$$$
