
 OpenBabel10282417072D

 66 70  0  0  0  0  0  0  0  0999 V2000
    6.4041   -8.2809    0.0000 C   0  0  0  0  0  0  0  0  0  0  0  0
    5.5971   -8.4525    0.0000 N   0  0  0  0  0  0  0  0  0  0  0  0
    5.3422   -9.2371    0.0000 C   0  0  0  0  0  0  0  0  0  0  0  0
    4.5352   -9.4086    0.0000 C   0  0  0  0  0  0  0  0  0  0  0  0
    3.9832   -8.7955    0.0000 N   0  0  0  0  0  0  0  0  0  0  0  0
    3.1762   -8.9671    0.0000 C   0  0  0  0  0  0  0  0  0  0  0  0
    2.6242   -8.3540    0.0000 C   0  0  0  0  0  0  0  0  0  0  0  0
    1.8172   -8.5255    0.0000 C   0  0  0  0  0  0  0  0  0  0  0  0
    1.2652   -7.9124    0.0000 C   0  0  0  0  0  0  0  0  0  0  0  0
    1.5201   -7.1278    0.0000 C   0  0  0  0  0  0  0  0  0  0  0  0
    0.9681   -6.5147    0.0000 N   0  0  0  0  0  0  0  0  0  0  0  0
    1.2230   -5.7301    0.0000 C   0  0  0  0  0  0  0  0  0  0  0  0
    2.0300   -5.5585    0.0000 O   0  0  0  0  0  0  0  0  0  0  0  0
    0.6710   -5.1170    0.0000 C   0  0  0  0  0  0  0  0  0  0  0  0
   -0.1360   -5.2885    0.0000 C   0  0  0  0  0  0  0  0  0  0  0  0
   -0.6880   -4.6754    0.0000 C   0  0  0  0  0  0  0  0  0  0  0  0
   -0.4331   -3.8908    0.0000 C   0  0  0  0  0  0  0  0  0  0  0  0
   -0.9851   -3.2777    0.0000 C   0  0  0  0  0  0  0  0  0  0  0  0
    0.3739   -3.7192    0.0000 C   0  0  0  0  0  0  0  0  0  0  0  0
    0.9259   -4.3323    0.0000 C   0  0  0  0  0  0  0  0  0  0  0  0
    0.6288   -2.9346    0.0000 C   0  0  0  0  0  0  0  0  0  0  0  0
    0.8838   -2.1500    0.0000 C   0  0  0  0  0  0  0  0  0  0  0  0
    1.1387   -1.3654    0.0000 C   0  0  0  0  0  0  0  0  0  0  0  0
    0.6538   -0.6979    0.0000 N   0  0  0  0  0  0  0  0  0  0  0  0
    1.1387   -0.0305    0.0000 N   0  0  0  0  0  0  0  0  0  0  0  0
    1.9233   -0.2854    0.0000 C   0  0  0  0  0  0  0  0  0  0  0  0
    2.6378    0.1271    0.0000 C   0  0  0  0  0  0  0  0  0  0  0  0
    3.3523   -0.2854    0.0000 C   0  0  0  0  0  0  0  0  0  0  0  0
    3.3523   -1.1104    0.0000 C   0  0  0  0  0  0  0  0  0  0  0  0
    2.6378   -1.5229    0.0000 C   0  0  0  0  0  0  0  0  0  0  0  0
    1.9233   -1.1104    0.0000 N   0  0  0  0  0  0  0  0  0  0  0  0
    2.3271   -6.9562    0.0000 C   0  0  0  0  0  0  0  0  0  0  0  0
    2.8791   -7.5693    0.0000 C   0  0  0  0  0  0  0  0  0  0  0  0
    1.5623   -9.3101    0.0000 C   0  0  0  0  0  0  0  0  0  0  0  0
    1.3073  -10.0947    0.0000 F   0  0  0  0  0  0  0  0  0  0  0  0
    0.7777   -9.0552    0.0000 F   0  0  0  0  0  0  0  0  0  0  0  0
    2.3469   -9.5650    0.0000 F   0  0  0  0  0  0  0  0  0  0  0  0
    4.2381   -8.0109    0.0000 C   0  0  0  0  0  0  0  0  0  0  0  0
    5.0451   -7.8394    0.0000 C   0  0  0  0  0  0  0  0  0  0  0  0
    7.1201   -9.0760    0.0000 H   0  0  0  0  0  0  0  0  0  0  0  0
    6.7347   -7.2632    0.0000 H   0  0  0  0  0  0  0  0  0  0  0  0
    7.4507   -8.0584    0.0000 H   0  0  0  0  0  0  0  0  0  0  0  0
    6.0582  -10.0323    0.0000 H   0  0  0  0  0  0  0  0  0  0  0  0
    5.0115  -10.2547    0.0000 H   0  0  0  0  0  0  0  0  0  0  0  0
    4.2045  -10.4262    0.0000 H   0  0  0  0  0  0  0  0  0  0  0  0
    3.4886   -9.6310    0.0000 H   0  0  0  0  0  0  0  0  0  0  0  0
    2.8456   -9.9847    0.0000 H   0  0  0  0  0  0  0  0  0  0  0  0
    2.1296   -9.1896    0.0000 H   0  0  0  0  0  0  0  0  0  0  0  0
    0.2558   -8.1270    0.0000 H   0  0  0  0  0  0  0  0  0  0  0  0
    0.0051   -6.7194    0.0000 H   0  0  0  0  0  0  0  0  0  0  0  0
   -0.4549   -6.2700    0.0000 H   0  0  0  0  0  0  0  0  0  0  0  0
   -1.6974   -4.8900    0.0000 H   0  0  0  0  0  0  0  0  0  0  0  0
   -0.6544   -2.2601    0.0000 H   0  0  0  0  0  0  0  0  0  0  0  0
   -2.0317   -3.5001    0.0000 H   0  0  0  0  0  0  0  0  0  0  0  0
   -1.7010   -2.4825    0.0000 H   0  0  0  0  0  0  0  0  0  0  0  0
    1.9353   -4.1177    0.0000 H   0  0  0  0  0  0  0  0  0  0  0  0
    2.6378    1.1591    0.0000 H   0  0  0  0  0  0  0  0  0  0  0  0
    4.2460    0.2306    0.0000 H   0  0  0  0  0  0  0  0  0  0  0  0
    4.2460   -1.6264    0.0000 H   0  0  0  0  0  0  0  0  0  0  0  0
    2.6378   -2.5549    0.0000 H   0  0  0  0  0  0  0  0  0  0  0  0
    2.6460   -5.9747    0.0000 H   0  0  0  0  0  0  0  0  0  0  0  0
    3.8885   -7.3547    0.0000 H   0  0  0  0  0  0  0  0  0  0  0  0
    3.5221   -7.2157    0.0000 H   0  0  0  0  0  0  0  0  0  0  0  0
    4.5688   -6.9933    0.0000 H   0  0  0  0  0  0  0  0  0  0  0  0
    5.3758   -6.8218    0.0000 H   0  0  0  0  0  0  0  0  0  0  0  0
    6.0917   -7.6170    0.0000 H   0  0  0  0  0  0  0  0  0  0  0  0
  1  2  1  0  0  0  0
  1 40  1  0  0  0  0
  1 41  1  0  0  0  0
  1 42  1  0  0  0  0
  2  3  1  0  0  0  0
  2 39  1  0  0  0  0
  3  4  1  0  0  0  0
  3 43  1  0  0  0  0
  3 44  1  0  0  0  0
  4  5  1  0  0  0  0
  4 45  1  0  0  0  0
  4 46  1  0  0  0  0
  5  6  1  0  0  0  0
  5 38  1  0  0  0  0
  6  7  1  0  0  0  0
  6 47  1  0  0  0  0
  6 48  1  0  0  0  0
  7  8  2  0  0  0  0
  7 33  1  0  0  0  0
  8  9  1  0  0  0  0
  8 34  1  0  0  0  0
  9 10  2  0  0  0  0
  9 49  1  0  0  0  0
 10 11  1  0  0  0  0
 10 32  1  0  0  0  0
 11 12  1  0  0  0  0
 11 50  1  0  0  0  0
 12 13  2  0  0  0  0
 12 14  1  0  0  0  0
 14 15  2  0  0  0  0
 14 20  1  0  0  0  0
 15 16  1  0  0  0  0
 15 51  1  0  0  0  0
 16 17  2  0  0  0  0
 16 52  1  0  0  0  0
 17 18  1  0  0  0  0
 17 19  1  0  0  0  0
 18 53  1  0  0  0  0
 18 54  1  0  0  0  0
 18 55  1  0  0  0  0
 19 20  2  0  0  0  0
 19 21  1  0  0  0  0
 20 56  1  0  0  0  0
 21 22  3  0  0  0  0
 22 23  1  0  0  0  0
 23 24  2  0  0  0  0
 23 31  1  0  0  0  0
 24 25  1  0  0  0  0
 25 26  2  0  0  0  0
 26 27  1  0  0  0  0
 26 31  1  0  0  0  0
 27 28  2  0  0  0  0
 27 57  1  0  0  0  0
 28 29  1  0  0  0  0
 28 58  1  0  0  0  0
 29 30  2  0  0  0  0
 29 59  1  0  0  0  0
 30 31  1  0  0  0  0
 30 60  1  0  0  0  0
 32 33  2  0  0  0  0
 32 61  1  0  0  0  0
 33 62  1  0  0  0  0
 34 35  1  0  0  0  0
 34 36  1  0  0  0  0
 34 37  1  0  0  0  0
 38 39  1  0  0  0  0
 38 63  1  0  0  0  0
 38 64  1  0  0  0  0
 39 65  1  0  0  0  0
 39 66  1  0  0  0  0
M  END
>  <DRUGBANK_ID>
DB15396

>  <COMMON_NAME>
Vamotinib

>  <CAS_NUMBER>
1416241-23-0

>  <UNII>
I8C3R768IZ

>  <SYNONYMS>
Vamotinib

$$$$
