FTC
 OpenBabel10282417072D

 39 40  0  0  0  0  0  0  0  0999 V2000
   -3.1306    0.0926    0.0000 C   0  0  0  0  0  0  0  0  0  0  0  0
   -3.8451   -0.3199    0.0000 N   0  0  0  0  0  0  0  0  0  0  0  0
   -4.5596    0.0926    0.0000 C   0  0  0  0  0  0  0  0  0  0  0  0
   -4.5596    0.9176    0.0000 C   0  0  0  0  0  0  0  0  0  0  0  0
   -3.8451    1.3301    0.0000 C   0  0  0  0  0  0  0  0  0  0  0  0
   -3.1306    0.9176    0.0000 C   0  0  0  0  0  0  0  0  0  0  0  0
   -5.2741    1.3301    0.0000 Cl  0  0  0  0  0  0  0  0  0  0  0  0
   -2.4162   -0.3199    0.0000 N   0  0  0  0  0  0  0  0  0  0  0  0
   -1.7017    0.0926    0.0000 C   0  0  0  0  0  0  0  0  0  0  0  0
   -1.7017    0.9176    0.0000 S   0  0  0  0  0  0  0  0  0  0  0  0
   -0.9872   -0.3199    0.0000 N   0  0  0  0  0  0  0  0  0  0  0  0
   -0.2728    0.0926    0.0000 C   0  0  0  0  0  0  0  0  0  0  0  0
    0.4417   -0.3199    0.0000 C   0  0  0  0  0  0  0  0  0  0  0  0
    1.1562    0.0926    0.0000 C   0  0  0  0  0  0  0  0  0  0  0  0
    1.1562    0.9176    0.0000 N   0  0  0  0  0  0  0  0  0  0  0  0
    1.8707    1.3301    0.0000 C   0  0  0  0  0  0  0  0  0  0  0  0
    2.5851    0.9176    0.0000 C   0  0  0  0  0  0  0  0  0  0  0  0
    2.5851    0.0926    0.0000 C   0  0  0  0  0  0  0  0  0  0  0  0
    1.8707   -0.3199    0.0000 C   0  0  0  0  0  0  0  0  0  0  0  0
    3.2996   -0.3199    0.0000 O   0  0  0  0  0  0  0  0  0  0  0  0
    3.2996   -1.1449    0.0000 C   0  0  0  0  0  0  0  0  0  0  0  0
    4.0141   -1.5574    0.0000 C   0  0  0  0  0  0  0  0  0  0  0  0
    1.8707   -1.1449    0.0000 F   0  0  0  0  0  0  0  0  0  0  0  0
   -5.4533   -0.4234    0.0000 H   0  0  0  0  0  0  0  0  0  0  0  0
   -3.8451    2.3621    0.0000 H   0  0  0  0  0  0  0  0  0  0  0  0
   -2.2369    1.4336    0.0000 H   0  0  0  0  0  0  0  0  0  0  0  0
   -2.4162   -1.3044    0.0000 H   0  0  0  0  0  0  0  0  0  0  0  0
   -0.9872   -1.3044    0.0000 H   0  0  0  0  0  0  0  0  0  0  0  0
   -0.2728    1.1626    0.0000 H   0  0  0  0  0  0  0  0  0  0  0  0
    0.6538    0.6276    0.0000 H   0  0  0  0  0  0  0  0  0  0  0  0
    0.4417   -1.3899    0.0000 H   0  0  0  0  0  0  0  0  0  0  0  0
    1.3683   -0.8549    0.0000 H   0  0  0  0  0  0  0  0  0  0  0  0
    1.8707    2.3621    0.0000 H   0  0  0  0  0  0  0  0  0  0  0  0
    3.4788    1.4336    0.0000 H   0  0  0  0  0  0  0  0  0  0  0  0
    2.3730   -1.6799    0.0000 H   0  0  0  0  0  0  0  0  0  0  0  0
    3.2996   -2.2149    0.0000 H   0  0  0  0  0  0  0  0  0  0  0  0
    4.0141   -2.6274    0.0000 H   0  0  0  0  0  0  0  0  0  0  0  0
    4.9407   -1.0224    0.0000 H   0  0  0  0  0  0  0  0  0  0  0  0
    4.9408   -2.0924    0.0000 H   0  0  0  0  0  0  0  0  0  0  0  0
  1  2  2  0  0  0  0
  1  6  1  0  0  0  0
  1  8  1  0  0  0  0
  2  3  1  0  0  0  0
  3  4  2  0  0  0  0
  3 24  1  0  0  0  0
  4  5  1  0  0  0  0
  4  7  1  0  0  0  0
  5  6  2  0  0  0  0
  5 25  1  0  0  0  0
  6 26  1  0  0  0  0
  8  9  1  0  0  0  0
  8 27  1  0  0  0  0
  9 10  2  0  0  0  0
  9 11  1  0  0  0  0
 11 12  1  0  0  0  0
 11 28  1  0  0  0  0
 12 13  1  0  0  0  0
 12 29  1  0  0  0  0
 12 30  1  0  0  0  0
 13 14  1  0  0  0  0
 13 31  1  0  0  0  0
 13 32  1  0  0  0  0
 14 15  2  0  0  0  0
 14 19  1  0  0  0  0
 15 16  1  0  0  0  0
 16 17  2  0  0  0  0
 16 33  1  0  0  0  0
 17 18  1  0  0  0  0
 17 34  1  0  0  0  0
 18 19  2  0  0  0  0
 18 20  1  0  0  0  0
 19 23  1  0  0  0  0
 20 21  1  0  0  0  0
 21 22  1  0  0  0  0
 21 35  1  0  0  0  0
 21 36  1  0  0  0  0
 22 37  1  0  0  0  0
 22 38  1  0  0  0  0
 22 39  1  0  0  0  0
M  END
>  <DRUGBANK_ID>
DB07797

>  <COMMON_NAME>
N-[[3-FLUORO-4-ETHOXY-PYRID-2-YL]ETHYL]-N'-[5-CHLORO-PYRIDYL]-THIOUREA

$$$$
