
 OpenBabel10282417072D

 63 65  0  0  0  0  0  0  0  0999 V2000
   -1.7849   -1.8562    0.0000 C   0  0  0  0  0  0  0  0  0  0  0  0
   -2.4993   -2.2687    0.0000 C   0  0  1  0  0  0  0  0  0  0  0  0
   -2.4993   -3.0936    0.0000 O   0  0  0  0  0  0  0  0  0  0  0  0
   -3.2138   -1.8562    0.0000 C   0  0  0  0  0  0  0  0  0  0  0  0
   -3.2138   -1.0311    0.0000 C   0  0  0  0  0  0  0  0  0  0  0  0
   -2.4993   -0.6187    0.0000 C   0  0  2  0  0  0  0  0  0  0  0  0
   -2.4993    0.2062    0.0000 N   0  0  0  0  0  0  0  0  0  0  0  0
   -3.2138    0.6187    0.0000 C   0  0  0  0  0  0  0  0  0  0  0  0
   -3.2138    1.4437    0.0000 C   0  0  0  0  0  0  0  0  0  0  0  0
   -3.9283    1.8562    0.0000 C   0  0  0  0  0  0  0  0  0  0  0  0
   -3.9283    2.6812    0.0000 C   0  0  0  0  0  0  0  0  0  0  0  0
   -4.6426    3.0936    0.0000 Br  0  0  0  0  0  0  0  0  0  0  0  0
   -3.2138    3.0936    0.0000 C   0  0  0  0  0  0  0  0  0  0  0  0
   -2.4993    2.6812    0.0000 C   0  0  0  0  0  0  0  0  0  0  0  0
   -1.7849    3.0936    0.0000 Br  0  0  0  0  0  0  0  0  0  0  0  0
   -2.4993    1.8562    0.0000 C   0  0  0  0  0  0  0  0  0  0  0  0
   -1.7849    1.4437    0.0000 N   0  0  0  0  0  0  0  0  0  0  0  0
   -1.7849   -1.0311    0.0000 C   0  0  0  0  0  0  0  0  0  0  0  0
    1.7147    0.2874    0.0000 N   0  0  0  0  0  0  0  0  0  0  0  0
    1.2298    0.9549    0.0000 C   0  0  0  0  0  0  0  0  0  0  0  0
    1.7147    1.6223    0.0000 N   0  0  0  0  0  0  0  0  0  0  0  0
    2.4993    1.3674    0.0000 C   0  0  0  0  0  0  0  0  0  0  0  0
    3.2138    1.7799    0.0000 N   0  0  0  0  0  0  0  0  0  0  0  0
    3.9283    1.3674    0.0000 C   0  0  0  0  0  0  0  0  0  0  0  0
    3.9283    0.5424    0.0000 N   0  0  0  0  0  0  0  0  0  0  0  0
    3.2138    0.1298    0.0000 C   0  0  0  0  0  0  0  0  0  0  0  0
    2.4993    0.5424    0.0000 C   0  0  0  0  0  0  0  0  0  0  0  0
    3.2138   -0.6949    0.0000 O   0  0  0  0  0  0  0  0  0  0  0  0
    4.6426    0.1298    0.0000 C   0  0  0  0  0  0  0  0  0  0  0  0
    4.6426    1.7799    0.0000 O   0  0  0  0  0  0  0  0  0  0  0  0
    3.2138    2.6049    0.0000 C   0  0  0  0  0  0  0  0  0  0  0  0
    1.4598   -0.4971    0.0000 C   0  0  0  0  0  0  0  0  0  0  0  0
    0.6528   -0.6686    0.0000 C   0  0  0  0  0  0  0  0  0  0  0  0
    0.3978   -1.4532    0.0000 O   0  0  0  0  0  0  0  0  0  0  0  0
    0.1008   -0.0555    0.0000 O   0  0  0  0  0  0  0  0  0  0  0  0
   -0.8582   -2.3912    0.0000 H   0  0  0  0  0  0  0  0  0  0  0  0
   -0.8583   -1.3212    0.0000 H   0  0  0  0  0  0  0  0  0  0  0  0
   -1.5726   -2.8037    0.0000 H   0  0  0  0  0  0  0  0  0  0  0  0
   -3.3393   -3.5786    0.0000 H   0  0  0  0  0  0  0  0  0  0  0  0
   -4.1404   -2.3912    0.0000 H   0  0  0  0  0  0  0  0  0  0  0  0
   -4.1404   -1.3212    0.0000 H   0  0  0  0  0  0  0  0  0  0  0  0
   -4.1404   -0.4960    0.0000 H   0  0  0  0  0  0  0  0  0  0  0  0
   -3.2137    0.0389    0.0000 H   0  0  0  0  0  0  0  0  0  0  0  0
   -3.4259   -0.0836    0.0000 H   0  0  0  0  0  0  0  0  0  0  0  0
   -1.6160    0.7162    0.0000 H   0  0  0  0  0  0  0  0  0  0  0  0
   -4.1404    0.0837    0.0000 H   0  0  0  0  0  0  0  0  0  0  0  0
   -4.1404    1.1537    0.0000 H   0  0  0  0  0  0  0  0  0  0  0  0
   -4.8220    1.3402    0.0000 H   0  0  0  0  0  0  0  0  0  0  0  0
   -3.2138    4.1256    0.0000 H   0  0  0  0  0  0  0  0  0  0  0  0
   -1.7849    0.4592    0.0000 H   0  0  0  0  0  0  0  0  0  0  0  0
   -0.9323    1.9359    0.0000 H   0  0  0  0  0  0  0  0  0  0  0  0
   -0.8583   -0.4961    0.0000 H   0  0  0  0  0  0  0  0  0  0  0  0
   -0.8582   -1.5661    0.0000 H   0  0  0  0  0  0  0  0  0  0  0  0
    0.1978    0.9549    0.0000 H   0  0  0  0  0  0  0  0  0  0  0  0
    4.6424   -0.9402    0.0000 H   0  0  0  0  0  0  0  0  0  0  0  0
    5.5694    0.6646    0.0000 H   0  0  0  0  0  0  0  0  0  0  0  0
    5.5691   -0.4054    0.0000 H   0  0  0  0  0  0  0  0  0  0  0  0
    4.1404    3.1399    0.0000 H   0  0  0  0  0  0  0  0  0  0  0  0
    2.2872    3.1399    0.0000 H   0  0  0  0  0  0  0  0  0  0  0  0
    3.2138    3.6749    0.0000 H   0  0  0  0  0  0  0  0  0  0  0  0
    2.1758   -1.2923    0.0000 H   0  0  0  0  0  0  0  0  0  0  0  0
    1.1291   -1.5147    0.0000 H   0  0  0  0  0  0  0  0  0  0  0  0
    0.3904    0.8356    0.0000 H   0  0  0  0  0  0  0  0  0  0  0  0
  1  2  1  0  0  0  0
  1 18  1  0  0  0  0
  1 36  1  0  0  0  0
  1 37  1  0  0  0  0
  2  3  1  0  0  0  0
  2  4  1  0  0  0  0
  2 38  1  6  0  0  0
  3 39  1  0  0  0  0
  4  5  1  0  0  0  0
  4 40  1  0  0  0  0
  4 41  1  0  0  0  0
  5  6  1  0  0  0  0
  5 42  1  0  0  0  0
  5 43  1  0  0  0  0
  6  7  1  0  0  0  0
  6 18  1  0  0  0  0
  6 44  1  1  0  0  0
  7  8  1  0  0  0  0
  7 45  1  0  0  0  0
  8  9  1  0  0  0  0
  8 46  1  0  0  0  0
  8 47  1  0  0  0  0
  9 10  2  0  0  0  0
  9 16  1  0  0  0  0
 10 11  1  0  0  0  0
 10 48  1  0  0  0  0
 11 12  1  0  0  0  0
 11 13  2  0  0  0  0
 13 14  1  0  0  0  0
 13 49  1  0  0  0  0
 14 15  1  0  0  0  0
 14 16  2  0  0  0  0
 16 17  1  0  0  0  0
 17 50  1  0  0  0  0
 17 51  1  0  0  0  0
 18 52  1  0  0  0  0
 18 53  1  0  0  0  0
 19 20  1  0  0  0  0
 19 27  1  0  0  0  0
 19 32  1  0  0  0  0
 20 21  2  0  0  0  0
 20 54  1  0  0  0  0
 21 22  1  0  0  0  0
 22 23  1  0  0  0  0
 22 27  2  0  0  0  0
 23 24  1  0  0  0  0
 23 31  1  0  0  0  0
 24 25  1  0  0  0  0
 24 30  2  0  0  0  0
 25 26  1  0  0  0  0
 25 29  1  0  0  0  0
 26 27  1  0  0  0  0
 26 28  2  0  0  0  0
 29 55  1  0  0  0  0
 29 56  1  0  0  0  0
 29 57  1  0  0  0  0
 31 58  1  0  0  0  0
 31 59  1  0  0  0  0
 31 60  1  0  0  0  0
 32 33  1  0  0  0  0
 32 61  1  0  0  0  0
 32 62  1  0  0  0  0
 33 34  2  0  0  0  0
 33 35  1  0  0  0  0
 35 63  1  0  0  0  0
M  END
>  <DRUGBANK_ID>
DB13141

>  <COMMON_NAME>
Ambroxol acefyllinate

>  <CAS_NUMBER>
96989-76-3

>  <UNII>
0HM1E174TN

>  <SYNONYMS>
Acebrophylline; Ambromucil; Ambroxol theophyllinacetate; Broncomnes; Surfolase

$$$$
