
 OpenBabel10282417072D

124122  0  0  0  0  0  0  0  0999 V2000
   -2.6329   -4.2364    0.0000 O   0  0  0  0  0  0  0  0  0  0  0  0
   -1.8014   -4.2364    0.0000 C   0  0  0  0  0  0  0  0  0  0  0  0
   -1.4055   -4.9490    0.0000 C   0  0  0  0  0  0  0  0  0  0  0  0
   -0.5741   -4.9490    0.0000 C   0  0  0  0  0  0  0  0  0  0  0  0
   -0.1782   -5.6617    0.0000 C   0  0  0  0  0  0  0  0  0  0  0  0
    0.6334   -5.6617    0.0000 C   0  0  0  0  0  0  0  0  0  0  0  0
    1.0492   -6.3546    0.0000 C   0  0  0  0  0  0  0  0  0  0  0  0
    1.8608   -6.3546    0.0000 C   0  0  0  0  0  0  0  0  0  0  0  0
    2.2765   -7.0672    0.0000 C   0  0  0  0  0  0  0  0  0  0  0  0
    3.0882   -7.0672    0.0000 C   0  0  0  0  0  0  0  0  0  0  0  0
    3.5039   -7.7799    0.0000 C   0  0  0  0  0  0  0  0  0  0  0  0
    4.3155   -7.7799    0.0000 C   0  0  0  0  0  0  0  0  0  0  0  0
    4.7312   -8.4926    0.0000 C   0  0  0  0  0  0  0  0  0  0  0  0
    5.5429   -8.4926    0.0000 C   0  0  0  0  0  0  0  0  0  0  0  0
    5.9389   -9.1854    0.0000 C   0  0  0  0  0  0  0  0  0  0  0  0
    6.7703   -9.1854    0.0000 C   0  0  0  0  0  0  0  0  0  0  0  0
    7.1662   -9.8981    0.0000 C   0  0  0  0  0  0  0  0  0  0  0  0
   -1.4055   -3.5435    0.0000 O   0  0  0  0  0  0  0  0  0  0  0  0
   -1.8014   -2.8308    0.0000 C   0  0  0  0  0  0  0  0  0  0  0  0
   -1.4055   -2.1182    0.0000 C   0  0  1  0  0  0  0  0  0  0  0  0
   -0.6928   -2.5339    0.0000 H   0  0  0  0  0  0  0  0  0  0  0  0
   -0.9898   -1.4054    0.0000 O   0  0  0  0  0  0  0  0  0  0  0  0
   -1.4055   -0.7127    0.0000 C   0  0  0  0  0  0  0  0  0  0  0  0
   -0.9898    0.0000    0.0000 C   0  0  0  0  0  0  0  0  0  0  0  0
   -1.4055    0.7127    0.0000 C   0  0  0  0  0  0  0  0  0  0  0  0
   -0.9898    1.4054    0.0000 C   0  0  0  0  0  0  0  0  0  0  0  0
   -1.4055    2.1182    0.0000 C   0  0  0  0  0  0  0  0  0  0  0  0
   -0.9898    2.8308    0.0000 C   0  0  0  0  0  0  0  0  0  0  0  0
   -1.4055    3.5435    0.0000 C   0  0  0  0  0  0  0  0  0  0  0  0
   -0.9898    4.2364    0.0000 C   0  0  0  0  0  0  0  0  0  0  0  0
   -1.4055    4.9490    0.0000 C   0  0  0  0  0  0  0  0  0  0  0  0
   -0.9898    5.6617    0.0000 C   0  0  0  0  0  0  0  0  0  0  0  0
   -1.4055    6.3546    0.0000 C   0  0  0  0  0  0  0  0  0  0  0  0
   -0.9898    7.0672    0.0000 C   0  0  0  0  0  0  0  0  0  0  0  0
   -1.4055    7.7799    0.0000 C   0  0  0  0  0  0  0  0  0  0  0  0
   -0.9898    8.4925    0.0000 C   0  0  0  0  0  0  0  0  0  0  0  0
   -1.4055    9.1854    0.0000 C   0  0  0  0  0  0  0  0  0  0  0  0
   -0.9898    9.8981    0.0000 C   0  0  0  0  0  0  0  0  0  0  0  0
   -2.2172   -0.7127    0.0000 O   0  0  0  0  0  0  0  0  0  0  0  0
   -2.0983   -1.7222    0.0000 C   0  0  0  0  0  0  0  0  0  0  0  0
   -2.8111   -2.1182    0.0000 O   0  0  0  0  0  0  0  0  0  0  0  0
   -3.5237   -1.7222    0.0000 P   0  0  3  0  0  0  0  0  0  0  0  0
   -4.2364   -1.3066    0.0000 O   0  0  0  0  0  0  0  0  0  0  0  0
   -4.9293   -1.7222    0.0000 C   0  0  0  0  0  0  0  0  0  0  0  0
   -5.6419   -1.3066    0.0000 C   0  0  3  0  0  0  0  0  0  0  0  0
   -5.6419   -0.4949    0.0000 O   0  0  0  0  0  0  0  0  0  0  0  0
   -6.3546   -1.7222    0.0000 C   0  0  0  0  0  0  0  0  0  0  0  0
   -6.3546   -2.5339    0.0000 O   0  0  0  0  0  0  0  0  0  0  0  0
   -3.1080   -1.0096    0.0000 O   0  5  0  0  0  0  0  0  0  0  0  0
   -3.9196   -2.4151    0.0000 O   0  0  0  0  0  0  0  0  0  0  0  0
   -7.1662   -4.2364    0.0000 Na  0  3  0  0  0  0  0  0  0  0  0  0
   -1.9481   -5.8712    0.0000 H   0  0  0  0  0  0  0  0  0  0  0  0
   -0.8743   -5.8778    0.0000 H   0  0  0  0  0  0  0  0  0  0  0  0
   -0.0315   -4.0268    0.0000 H   0  0  0  0  0  0  0  0  0  0  0  0
    0.4958   -4.9623    0.0000 H   0  0  0  0  0  0  0  0  0  0  0  0
   -0.7208   -6.5839    0.0000 H   0  0  0  0  0  0  0  0  0  0  0  0
    0.3530   -6.5906    0.0000 H   0  0  0  0  0  0  0  0  0  0  0  0
    1.1606   -4.7306    0.0000 H   0  0  0  0  0  0  0  0  0  0  0  0
    1.7033   -5.6482    0.0000 H   0  0  0  0  0  0  0  0  0  0  0  0
    0.5220   -7.2857    0.0000 H   0  0  0  0  0  0  0  0  0  0  0  0
    1.5881   -7.2790    0.0000 H   0  0  0  0  0  0  0  0  0  0  0  0
    2.3937   -5.4268    0.0000 H   0  0  0  0  0  0  0  0  0  0  0  0
    2.9308   -6.3510    0.0000 H   0  0  0  0  0  0  0  0  0  0  0  0
    1.7436   -7.9950    0.0000 H   0  0  0  0  0  0  0  0  0  0  0  0
    2.8125   -7.9932    0.0000 H   0  0  0  0  0  0  0  0  0  0  0  0
    3.6211   -6.1394    0.0000 H   0  0  0  0  0  0  0  0  0  0  0  0
    4.1582   -7.0636    0.0000 H   0  0  0  0  0  0  0  0  0  0  0  0
    2.9710   -8.7077    0.0000 H   0  0  0  0  0  0  0  0  0  0  0  0
    4.0399   -8.7060    0.0000 H   0  0  0  0  0  0  0  0  0  0  0  0
    4.8484   -6.8521    0.0000 H   0  0  0  0  0  0  0  0  0  0  0  0
    5.3855   -7.7763    0.0000 H   0  0  0  0  0  0  0  0  0  0  0  0
    4.1983   -9.4204    0.0000 H   0  0  0  0  0  0  0  0  0  0  0  0
    5.2672   -9.4187    0.0000 H   0  0  0  0  0  0  0  0  0  0  0  0
    6.0799   -7.5671    0.0000 H   0  0  0  0  0  0  0  0  0  0  0  0
    6.6129   -8.4961    0.0000 H   0  0  0  0  0  0  0  0  0  0  0  0
    5.4019  -10.1109    0.0000 H   0  0  0  0  0  0  0  0  0  0  0  0
    6.4729  -10.1126    0.0000 H   0  0  0  0  0  0  0  0  0  0  0  0
    7.3129   -8.2632    0.0000 H   0  0  0  0  0  0  0  0  0  0  0  0
    7.8402   -9.1987    0.0000 H   0  0  0  0  0  0  0  0  0  0  0  0
    6.6159  -10.8158    0.0000 H   0  0  0  0  0  0  0  0  0  0  0  0
    8.2361   -9.9158    0.0000 H   0  0  0  0  0  0  0  0  0  0  0  0
    7.6858  -10.8335    0.0000 H   0  0  0  0  0  0  0  0  0  0  0  0
   -2.8714   -2.8308    0.0000 H   0  0  0  0  0  0  0  0  0  0  0  0
   -2.3440   -1.9086    0.0000 H   0  0  0  0  0  0  0  0  0  0  0  0
    0.0802    0.0000    0.0000 H   0  0  0  0  0  0  0  0  0  0  0  0
   -0.4569    0.9278    0.0000 H   0  0  0  0  0  0  0  0  0  0  0  0
   -2.4755    0.7194    0.0000 H   0  0  0  0  0  0  0  0  0  0  0  0
   -1.9297    1.6455    0.0000 H   0  0  0  0  0  0  0  0  0  0  0  0
    0.0802    1.3987    0.0000 H   0  0  0  0  0  0  0  0  0  0  0  0
   -0.4539    2.3315    0.0000 H   0  0  0  0  0  0  0  0  0  0  0  0
   -2.4755    2.1183    0.0000 H   0  0  0  0  0  0  0  0  0  0  0  0
   -1.9384    3.0461    0.0000 H   0  0  0  0  0  0  0  0  0  0  0  0
    0.0802    2.8308    0.0000 H   0  0  0  0  0  0  0  0  0  0  0  0
   -0.4568    3.7586    0.0000 H   0  0  0  0  0  0  0  0  0  0  0  0
   -2.4755    3.5501    0.0000 H   0  0  0  0  0  0  0  0  0  0  0  0
   -1.9298    4.4762    0.0000 H   0  0  0  0  0  0  0  0  0  0  0  0
    0.0802    4.2298    0.0000 H   0  0  0  0  0  0  0  0  0  0  0  0
   -0.4540    5.1626    0.0000 H   0  0  0  0  0  0  0  0  0  0  0  0
   -2.4755    4.9490    0.0000 H   0  0  0  0  0  0  0  0  0  0  0  0
   -1.9385    5.8768    0.0000 H   0  0  0  0  0  0  0  0  0  0  0  0
    0.0802    5.6683    0.0000 H   0  0  0  0  0  0  0  0  0  0  0  0
   -0.4655    6.5944    0.0000 H   0  0  0  0  0  0  0  0  0  0  0  0
   -2.4755    6.3480    0.0000 H   0  0  0  0  0  0  0  0  0  0  0  0
   -1.9413    7.2808    0.0000 H   0  0  0  0  0  0  0  0  0  0  0  0
    0.0802    7.0672    0.0000 H   0  0  0  0  0  0  0  0  0  0  0  0
   -0.4568    7.9950    0.0000 H   0  0  0  0  0  0  0  0  0  0  0  0
   -2.4755    7.7799    0.0000 H   0  0  0  0  0  0  0  0  0  0  0  0
   -1.9384    8.7078    0.0000 H   0  0  0  0  0  0  0  0  0  0  0  0
    0.0802    8.4991    0.0000 H   0  0  0  0  0  0  0  0  0  0  0  0
   -0.4655    9.4252    0.0000 H   0  0  0  0  0  0  0  0  0  0  0  0
   -2.4755    9.1788    0.0000 H   0  0  0  0  0  0  0  0  0  0  0  0
   -1.9413   10.1116    0.0000 H   0  0  0  0  0  0  0  0  0  0  0  0
    0.0802    9.8934    0.0000 H   0  0  0  0  0  0  0  0  0  0  0  0
   -1.5207   10.8271    0.0000 H   0  0  0  0  0  0  0  0  0  0  0  0
   -0.4507   10.8224    0.0000 H   0  0  0  0  0  0  0  0  0  0  0  0
   -2.0918   -0.6522    0.0000 H   0  0  0  0  0  0  0  0  0  0  0  0
   -3.0188   -1.1768    0.0000 H   0  0  0  0  0  0  0  0  0  0  0  0
   -4.9227   -2.7922    0.0000 H   0  0  0  0  0  0  0  0  0  0  0  0
   -5.8555   -2.2580    0.0000 H   0  0  0  0  0  0  0  0  0  0  0  0
   -4.7141   -0.7736    0.0000 H   0  0  0  0  0  0  0  0  0  0  0  0
   -4.8019   -0.0099    0.0000 H   0  0  0  0  0  0  0  0  0  0  0  0
   -7.2824   -1.1892    0.0000 H   0  0  0  0  0  0  0  0  0  0  0  0
   -7.2807   -2.2582    0.0000 H   0  0  0  0  0  0  0  0  0  0  0  0
   -7.1946   -3.0189    0.0000 H   0  0  0  0  0  0  0  0  0  0  0  0
  1  2  2  0  0  0  0
  2  3  1  0  0  0  0
  2 18  1  0  0  0  0
  3  4  1  0  0  0  0
  3 52  1  0  0  0  0
  3 53  1  0  0  0  0
  4  5  1  0  0  0  0
  4 54  1  0  0  0  0
  4 55  1  0  0  0  0
  5  6  1  0  0  0  0
  5 56  1  0  0  0  0
  5 57  1  0  0  0  0
  6  7  1  0  0  0  0
  6 58  1  0  0  0  0
  6 59  1  0  0  0  0
  7  8  1  0  0  0  0
  7 60  1  0  0  0  0
  7 61  1  0  0  0  0
  8  9  1  0  0  0  0
  8 62  1  0  0  0  0
  8 63  1  0  0  0  0
  9 10  1  0  0  0  0
  9 64  1  0  0  0  0
  9 65  1  0  0  0  0
 10 11  1  0  0  0  0
 10 66  1  0  0  0  0
 10 67  1  0  0  0  0
 11 12  1  0  0  0  0
 11 68  1  0  0  0  0
 11 69  1  0  0  0  0
 12 13  1  0  0  0  0
 12 70  1  0  0  0  0
 12 71  1  0  0  0  0
 13 14  1  0  0  0  0
 13 72  1  0  0  0  0
 13 73  1  0  0  0  0
 14 15  1  0  0  0  0
 14 74  1  0  0  0  0
 14 75  1  0  0  0  0
 15 16  1  0  0  0  0
 15 76  1  0  0  0  0
 15 77  1  0  0  0  0
 16 17  1  0  0  0  0
 16 78  1  0  0  0  0
 16 79  1  0  0  0  0
 17 80  1  0  0  0  0
 17 81  1  0  0  0  0
 17 82  1  0  0  0  0
 18 19  1  0  0  0  0
 19 20  1  0  0  0  0
 19 83  1  0  0  0  0
 19 84  1  0  0  0  0
 20 21  1  1  0  0  0
 20 22  1  0  0  0  0
 20 40  1  0  0  0  0
 22 23  1  0  0  0  0
 23 24  1  0  0  0  0
 23 39  2  0  0  0  0
 24 25  1  0  0  0  0
 24 85  1  0  0  0  0
 24 86  1  0  0  0  0
 25 26  1  0  0  0  0
 25 87  1  0  0  0  0
 25 88  1  0  0  0  0
 26 27  1  0  0  0  0
 26 89  1  0  0  0  0
 26 90  1  0  0  0  0
 27 28  1  0  0  0  0
 27 91  1  0  0  0  0
 27 92  1  0  0  0  0
 28 29  1  0  0  0  0
 28 93  1  0  0  0  0
 28 94  1  0  0  0  0
 29 30  1  0  0  0  0
 29 95  1  0  0  0  0
 29 96  1  0  0  0  0
 30 31  1  0  0  0  0
 30 97  1  0  0  0  0
 30 98  1  0  0  0  0
 31 32  1  0  0  0  0
 31 99  1  0  0  0  0
 31100  1  0  0  0  0
 32 33  1  0  0  0  0
 32101  1  0  0  0  0
 32102  1  0  0  0  0
 33 34  1  0  0  0  0
 33103  1  0  0  0  0
 33104  1  0  0  0  0
 34 35  1  0  0  0  0
 34105  1  0  0  0  0
 34106  1  0  0  0  0
 35 36  1  0  0  0  0
 35107  1  0  0  0  0
 35108  1  0  0  0  0
 36 37  1  0  0  0  0
 36109  1  0  0  0  0
 36110  1  0  0  0  0
 37 38  1  0  0  0  0
 37111  1  0  0  0  0
 37112  1  0  0  0  0
 38113  1  0  0  0  0
 38114  1  0  0  0  0
 38115  1  0  0  0  0
 40 41  1  0  0  0  0
 40116  1  0  0  0  0
 40117  1  0  0  0  0
 41 42  1  0  0  0  0
 42 43  1  0  0  0  0
 42 49  1  0  0  0  0
 42 50  2  0  0  0  0
 43 44  1  0  0  0  0
 44 45  1  0  0  0  0
 44118  1  0  0  0  0
 44119  1  0  0  0  0
 45 46  1  0  0  0  0
 45 47  1  0  0  0  0
 45120  1  0  0  0  0
 46121  1  0  0  0  0
 47 48  1  0  0  0  0
 47122  1  0  0  0  0
 47123  1  0  0  0  0
 48124  1  0  0  0  0
M  CHG  2  49  -1  51   1
M  END
>  <DRUGBANK_ID>
DB14105

>  <COMMON_NAME>
Sodium 1,2-Dipalmitoyl-sn-glycero-3-phospho-(1'-rac-glycerol)

>  <CAS_NUMBER>
200880-41-7

>  <UNII>
841B886EJ7

>  <SYNONYMS>
1,2-dipalmitoyl-sn-glycero-3-phosphorylglycerol sodium salt; L-DPPG-Na; R-DPPG-Na

$$$$
