
 OpenBabel10282417072D

 37 40  0  0  0  0  0  0  0  0999 V2000
    2.7512   -1.7116    0.0000 O   0  0  0  0  0  0  0  0  0  0  0  0
    2.7512   -2.5366    0.0000 C   0  0  0  0  0  0  0  0  0  0  0  0
    3.4186   -3.0215    0.0000 N   0  0  0  0  0  0  0  0  0  0  0  0
    3.1637   -3.8062    0.0000 N   0  0  0  0  0  0  0  0  0  0  0  0
    2.3387   -3.8062    0.0000 C   0  0  0  0  0  0  0  0  0  0  0  0
    2.0837   -3.0215    0.0000 C   0  0  0  0  0  0  0  0  0  0  0  0
    1.2991   -2.7666    0.0000 N   0  0  0  0  0  0  0  0  0  0  0  0
    0.6317   -3.2515    0.0000 C   0  0  0  0  0  0  0  0  0  0  0  0
   -0.0358   -2.7666    0.0000 C   0  0  0  0  0  0  0  0  0  0  0  0
    0.2192   -1.9820    0.0000 N   0  0  0  0  0  0  0  0  0  0  0  0
    1.0442   -1.9820    0.0000 N   0  0  0  0  0  0  0  0  0  0  0  0
    4.2032   -2.7666    0.0000 C   0  0  0  0  0  0  0  0  0  0  0  0
    4.3748   -1.9596    0.0000 N   0  0  0  0  0  0  0  0  0  0  0  0
    5.1594   -1.7047    0.0000 C   0  0  0  0  0  0  0  0  0  0  0  0
    5.7725   -2.2567    0.0000 N   0  0  0  0  0  0  0  0  0  0  0  0
    5.6010   -3.0637    0.0000 C   0  0  0  0  0  0  0  0  0  0  0  0
    4.8163   -3.3186    0.0000 C   0  0  0  0  0  0  0  0  0  0  0  0
    6.2140   -3.6157    0.0000 N   0  0  0  0  0  0  0  0  0  0  0  0
    6.9987   -3.3608    0.0000 C   0  0  0  0  0  0  0  0  0  0  0  0
    7.6118   -3.9128    0.0000 C   0  0  0  0  0  0  0  0  0  0  0  0
    7.4402   -4.7198    0.0000 O   0  0  0  0  0  0  0  0  0  0  0  0
    6.6556   -4.9747    0.0000 C   0  0  0  0  0  0  0  0  0  0  0  0
    6.0425   -4.4227    0.0000 C   0  0  0  0  0  0  0  0  0  0  0  0
    3.7424   -4.6027    0.0000 H   0  0  0  0  0  0  0  0  0  0  0  0
    1.7321   -4.6411    0.0000 H   0  0  0  0  0  0  0  0  0  0  0  0
    0.6317   -4.2835    0.0000 H   0  0  0  0  0  0  0  0  0  0  0  0
   -1.0173   -3.0855    0.0000 H   0  0  0  0  0  0  0  0  0  0  0  0
    5.3740   -0.6953    0.0000 H   0  0  0  0  0  0  0  0  0  0  0  0
    4.6017   -4.3280    0.0000 H   0  0  0  0  0  0  0  0  0  0  0  0
    7.2212   -2.3142    0.0000 H   0  0  0  0  0  0  0  0  0  0  0  0
    8.0163   -3.0301    0.0000 H   0  0  0  0  0  0  0  0  0  0  0  0
    8.6294   -3.5822    0.0000 H   0  0  0  0  0  0  0  0  0  0  0  0
    8.4069   -4.6288    0.0000 H   0  0  0  0  0  0  0  0  0  0  0  0
    6.4331   -6.0213    0.0000 H   0  0  0  0  0  0  0  0  0  0  0  0
    5.6380   -5.3054    0.0000 H   0  0  0  0  0  0  0  0  0  0  0  0
    5.0249   -4.7534    0.0000 H   0  0  0  0  0  0  0  0  0  0  0  0
    5.2473   -3.7068    0.0000 H   0  0  0  0  0  0  0  0  0  0  0  0
  1  2  2  0  0  0  0
  2  3  1  0  0  0  0
  2  6  1  0  0  0  0
  3  4  1  0  0  0  0
  3 12  1  0  0  0  0
  4  5  1  0  0  0  0
  4 24  1  0  0  0  0
  5  6  2  0  0  0  0
  5 25  1  0  0  0  0
  6  7  1  0  0  0  0
  7  8  1  0  0  0  0
  7 11  1  0  0  0  0
  8  9  2  0  0  0  0
  8 26  1  0  0  0  0
  9 10  1  0  0  0  0
  9 27  1  0  0  0  0
 10 11  2  0  0  0  0
 12 13  2  0  0  0  0
 12 17  1  0  0  0  0
 13 14  1  0  0  0  0
 14 15  2  0  0  0  0
 14 28  1  0  0  0  0
 15 16  1  0  0  0  0
 16 17  2  0  0  0  0
 16 18  1  0  0  0  0
 17 29  1  0  0  0  0
 18 19  1  0  0  0  0
 18 23  1  0  0  0  0
 19 20  1  0  0  0  0
 19 30  1  0  0  0  0
 19 31  1  0  0  0  0
 20 21  1  0  0  0  0
 20 32  1  0  0  0  0
 20 33  1  0  0  0  0
 21 22  1  0  0  0  0
 22 23  1  0  0  0  0
 22 34  1  0  0  0  0
 22 35  1  0  0  0  0
 23 36  1  0  0  0  0
 23 37  1  0  0  0  0
M  END
>  <DRUGBANK_ID>
DB15642

>  <COMMON_NAME>
Molidustat

>  <CAS_NUMBER>
1154028-82-6

>  <UNII>
9JH486CZ13

>  <SYNONYMS>
Molidustat

$$$$
