
 OpenBabel10282417072D

 54 57  0  0  0  0  0  0  0  0999 V2000
   -2.1434   -2.0625    0.0000 F   0  0  0  0  0  0  0  0  0  0  0  0
   -2.1434   -2.8875    0.0000 C   0  0  0  0  0  0  0  0  0  0  0  0
   -2.9684   -2.8875    0.0000 F   0  0  0  0  0  0  0  0  0  0  0  0
   -1.3184   -2.8875    0.0000 F   0  0  0  0  0  0  0  0  0  0  0  0
   -2.1434   -3.7125    0.0000 C   0  0  0  0  0  0  0  0  0  0  0  0
   -1.4289   -4.1250    0.0000 C   0  0  0  0  0  0  0  0  0  0  0  0
   -1.4289   -4.9500    0.0000 C   0  0  0  0  0  0  0  0  0  0  0  0
   -0.7145   -5.3625    0.0000 C   0  0  0  0  0  0  0  0  0  0  0  0
   -0.7145   -6.1875    0.0000 C   0  0  0  0  0  0  0  0  0  0  0  0
    0.0000   -6.6000    0.0000 C   0  0  0  0  0  0  0  0  0  0  0  0
    0.0000   -7.4250    0.0000 N   0  0  0  0  0  0  0  0  0  0  0  0
   -0.7145   -7.8375    0.0000 C   0  0  0  0  0  0  0  0  0  0  0  0
   -0.7145   -8.6625    0.0000 O   0  0  0  0  0  0  0  0  0  0  0  0
   -1.4289   -7.4250    0.0000 N   0  0  0  0  0  0  0  0  0  0  0  0
   -1.4289   -6.6000    0.0000 C   0  0  0  0  0  0  0  0  0  0  0  0
   -2.1434   -6.1875    0.0000 O   0  0  0  0  0  0  0  0  0  0  0  0
    0.7145   -6.1875    0.0000 C   0  0  1  0  0  0  0  0  0  0  0  0
    0.7145   -5.3625    0.0000 C   0  0  0  0  0  0  0  0  0  0  0  0
    1.4289   -4.9500    0.0000 C   0  0  0  0  0  0  0  0  0  0  0  0
    2.1434   -5.3625    0.0000 C   0  0  1  0  0  0  0  0  0  0  0  0
    2.1434   -6.1875    0.0000 C   0  0  0  0  0  0  0  0  0  0  0  0
    1.4289   -6.6000    0.0000 C   0  0  0  0  0  0  0  0  0  0  0  0
    2.8579   -4.9500    0.0000 C   0  0  0  0  0  0  0  0  0  0  0  0
    2.8579   -4.1250    0.0000 C   0  0  0  0  0  0  0  0  0  0  0  0
    3.5724   -3.7125    0.0000 C   0  0  0  0  0  0  0  0  0  0  0  0
    4.2868   -4.1250    0.0000 C   0  0  0  0  0  0  0  0  0  0  0  0
    4.2868   -4.9500    0.0000 C   0  0  0  0  0  0  0  0  0  0  0  0
    3.5724   -5.3625    0.0000 C   0  0  0  0  0  0  0  0  0  0  0  0
   -2.1434   -5.3625    0.0000 C   0  0  0  0  0  0  0  0  0  0  0  0
   -2.8579   -4.9500    0.0000 C   0  0  0  0  0  0  0  0  0  0  0  0
   -2.8579   -4.1250    0.0000 C   0  0  0  0  0  0  0  0  0  0  0  0
   -0.5352   -3.6090    0.0000 H   0  0  0  0  0  0  0  0  0  0  0  0
    0.2122   -4.8275    0.0000 H   0  0  0  0  0  0  0  0  0  0  0  0
    0.2121   -5.8975    0.0000 H   0  0  0  0  0  0  0  0  0  0  0  0
    0.8526   -7.9173    0.0000 H   0  0  0  0  0  0  0  0  0  0  0  0
   -2.2815   -7.9172    0.0000 H   0  0  0  0  0  0  0  0  0  0  0  0
   -0.2121   -5.6525    0.0000 H   0  0  0  0  0  0  0  0  0  0  0  0
   -0.2122   -4.8275    0.0000 H   0  0  0  0  0  0  0  0  0  0  0  0
    0.7145   -4.2925    0.0000 H   0  0  0  0  0  0  0  0  0  0  0  0
    1.4289   -3.8800    0.0000 H   0  0  0  0  0  0  0  0  0  0  0  0
    2.3555   -4.4150    0.0000 H   0  0  0  0  0  0  0  0  0  0  0  0
    2.1434   -4.2925    0.0000 H   0  0  0  0  0  0  0  0  0  0  0  0
    3.0700   -6.7225    0.0000 H   0  0  0  0  0  0  0  0  0  0  0  0
    2.1434   -7.2575    0.0000 H   0  0  0  0  0  0  0  0  0  0  0  0
    1.4289   -7.6700    0.0000 H   0  0  0  0  0  0  0  0  0  0  0  0
    0.5022   -7.1350    0.0000 H   0  0  0  0  0  0  0  0  0  0  0  0
    1.9642   -3.6090    0.0000 H   0  0  0  0  0  0  0  0  0  0  0  0
    3.5724   -2.6805    0.0000 H   0  0  0  0  0  0  0  0  0  0  0  0
    5.1805   -3.6090    0.0000 H   0  0  0  0  0  0  0  0  0  0  0  0
    5.1805   -5.4660    0.0000 H   0  0  0  0  0  0  0  0  0  0  0  0
    3.5724   -6.3945    0.0000 H   0  0  0  0  0  0  0  0  0  0  0  0
   -2.1434   -6.3945    0.0000 H   0  0  0  0  0  0  0  0  0  0  0  0
   -3.7516   -5.4660    0.0000 H   0  0  0  0  0  0  0  0  0  0  0  0
   -3.7516   -3.6090    0.0000 H   0  0  0  0  0  0  0  0  0  0  0  0
  1  2  1  0  0  0  0
  2  3  1  0  0  0  0
  2  4  1  0  0  0  0
  2  5  1  0  0  0  0
  5  6  2  0  0  0  0
  5 31  1  0  0  0  0
  6  7  1  0  0  0  0
  6 32  1  0  0  0  0
  7  8  1  0  0  0  0
  7 29  2  0  0  0  0
  8  9  1  0  0  0  0
  8 33  1  0  0  0  0
  8 34  1  0  0  0  0
  9 10  2  0  0  0  0
  9 15  1  0  0  0  0
 10 11  1  0  0  0  0
 11 12  1  0  0  0  0
 11 35  1  0  0  0  0
 12 13  2  0  0  0  0
 12 14  1  0  0  0  0
 14 15  1  0  0  0  0
 14 36  1  0  0  0  0
 15 16  2  0  0  0  0
 17 10  1  0  0  0  0
 17 18  1  0  0  0  0
 17 22  1  0  0  0  0
 17 37  1  6  0  0  0
 18 19  1  0  0  0  0
 18 38  1  0  0  0  0
 18 39  1  0  0  0  0
 19 40  1  0  0  0  0
 19 41  1  0  0  0  0
 20 19  1  0  0  0  0
 20 21  1  0  0  0  0
 20 23  1  0  0  0  0
 20 42  1  1  0  0  0
 21 22  1  0  0  0  0
 21 43  1  0  0  0  0
 21 44  1  0  0  0  0
 22 45  1  0  0  0  0
 22 46  1  0  0  0  0
 23 24  2  0  0  0  0
 23 28  1  0  0  0  0
 24 25  1  0  0  0  0
 24 47  1  0  0  0  0
 25 26  2  0  0  0  0
 25 48  1  0  0  0  0
 26 27  1  0  0  0  0
 26 49  1  0  0  0  0
 27 28  2  0  0  0  0
 27 50  1  0  0  0  0
 28 51  1  0  0  0  0
 29 30  1  0  0  0  0
 29 52  1  0  0  0  0
 30 31  2  0  0  0  0
 30 53  1  0  0  0  0
 31 54  1  0  0  0  0
M  END
>  <DRUGBANK_ID>
DB16234

>  <COMMON_NAME>
Miricorilant

>  <CAS_NUMBER>
1400902-13-7

>  <UNII>
311Y5GV21M

>  <SYNONYMS>
Miricorilant

$$$$
