PFA
 OpenBabel10282417072D

 48 50  0  0  0  0  0  0  0  0999 V2000
    3.5054    0.4075    0.0000 O   0  0  0  0  0  0  0  0  0  0  0  0
    3.5054   -0.4175    0.0000 C   0  0  0  0  0  0  0  0  0  0  0  0
    4.2199   -0.8300    0.0000 N   0  0  0  0  0  0  0  0  0  0  0  0
    4.2199   -1.6550    0.0000 C   0  0  0  0  0  0  0  0  0  0  0  0
    4.9344   -2.0675    0.0000 O   0  0  0  0  0  0  0  0  0  0  0  0
    2.7909   -0.8300    0.0000 N   0  0  0  0  0  0  0  0  0  0  0  0
    2.7909   -1.6550    0.0000 N   0  0  0  0  0  0  0  0  0  0  0  0
    3.5054   -2.0675    0.0000 C   0  0  0  0  0  0  0  0  0  0  0  0
    2.0765   -0.4175    0.0000 C   0  0  0  0  0  0  0  0  0  0  0  0
    1.3620   -0.8300    0.0000 C   0  0  0  0  0  0  0  0  0  0  0  0
    0.6475   -0.4175    0.0000 C   0  0  0  0  0  0  0  0  0  0  0  0
   -0.0669   -0.8300    0.0000 C   0  0  0  0  0  0  0  0  0  0  0  0
    2.0765    0.4075    0.0000 C   0  0  0  0  0  0  0  0  0  0  0  0
    1.3620    0.8200    0.0000 C   0  0  0  0  0  0  0  0  0  0  0  0
    1.3620    1.6450    0.0000 C   0  0  0  0  0  0  0  0  0  0  0  0
    0.6475    0.4075    0.0000 C   0  0  0  0  0  0  0  0  0  0  0  0
   -0.0669    0.8200    0.0000 O   0  0  0  0  0  0  0  0  0  0  0  0
   -0.7814    0.4075    0.0000 C   0  0  0  0  0  0  0  0  0  0  0  0
   -0.7814   -0.4175    0.0000 C   0  0  0  0  0  0  0  0  0  0  0  0
   -1.4959    0.8200    0.0000 C   0  0  0  0  0  0  0  0  0  0  0  0
   -2.2104    0.4075    0.0000 C   0  0  0  0  0  0  0  0  0  0  0  0
   -2.9248    0.8200    0.0000 C   0  0  0  0  0  0  0  0  0  0  0  0
   -3.6393    0.4075    0.0000 C   0  0  0  0  0  0  0  0  0  0  0  0
   -2.9248    1.6450    0.0000 C   0  0  0  0  0  0  0  0  0  0  0  0
   -2.2104   -0.4175    0.0000 C   0  0  0  0  0  0  0  0  0  0  0  0
   -1.4959   -0.8300    0.0000 C   0  0  0  0  0  0  0  0  0  0  0  0
   -2.9248   -0.8300    0.0000 O   0  0  0  0  0  0  0  0  0  0  0  0
    5.0725   -0.3377    0.0000 H   0  0  0  0  0  0  0  0  0  0  0  0
    3.5054   -3.0995    0.0000 H   0  0  0  0  0  0  0  0  0  0  0  0
    1.3620   -1.8620    0.0000 H   0  0  0  0  0  0  0  0  0  0  0  0
   -0.9936   -0.2950    0.0000 H   0  0  0  0  0  0  0  0  0  0  0  0
   -0.0669   -1.9000    0.0000 H   0  0  0  0  0  0  0  0  0  0  0  0
   -0.9935   -1.3650    0.0000 H   0  0  0  0  0  0  0  0  0  0  0  0
    2.9702    0.9235    0.0000 H   0  0  0  0  0  0  0  0  0  0  0  0
    2.2886    2.1800    0.0000 H   0  0  0  0  0  0  0  0  0  0  0  0
    0.4354    2.1800    0.0000 H   0  0  0  0  0  0  0  0  0  0  0  0
    1.3620    2.7150    0.0000 H   0  0  0  0  0  0  0  0  0  0  0  0
    0.1123   -0.9335    0.0000 H   0  0  0  0  0  0  0  0  0  0  0  0
   -1.4959    1.8520    0.0000 H   0  0  0  0  0  0  0  0  0  0  0  0
   -3.8514    1.3550    0.0000 H   0  0  0  0  0  0  0  0  0  0  0  0
   -4.5659    0.9425    0.0000 H   0  0  0  0  0  0  0  0  0  0  0  0
   -3.6393   -0.6625    0.0000 H   0  0  0  0  0  0  0  0  0  0  0  0
   -4.5660   -0.1275    0.0000 H   0  0  0  0  0  0  0  0  0  0  0  0
   -1.9982    2.1800    0.0000 H   0  0  0  0  0  0  0  0  0  0  0  0
   -3.8514    2.1800    0.0000 H   0  0  0  0  0  0  0  0  0  0  0  0
   -2.9248    2.7150    0.0000 H   0  0  0  0  0  0  0  0  0  0  0  0
   -1.4959   -1.8620    0.0000 H   0  0  0  0  0  0  0  0  0  0  0  0
   -3.7363   -0.3615    0.0000 H   0  0  0  0  0  0  0  0  0  0  0  0
  1  2  2  0  0  0  0
  2  3  1  0  0  0  0
  2  6  1  0  0  0  0
  3  4  1  0  0  0  0
  3 28  1  0  0  0  0
  4  5  2  0  0  0  0
  4  8  1  0  0  0  0
  6  7  1  0  0  0  0
  6  9  1  0  0  0  0
  7  8  2  0  0  0  0
  8 29  1  0  0  0  0
  9 10  2  0  0  0  0
  9 13  1  0  0  0  0
 10 11  1  0  0  0  0
 10 30  1  0  0  0  0
 11 12  1  0  0  0  0
 11 16  2  0  0  0  0
 12 31  1  0  0  0  0
 12 32  1  0  0  0  0
 12 33  1  0  0  0  0
 13 14  2  0  0  0  0
 13 34  1  0  0  0  0
 14 15  1  0  0  0  0
 14 16  1  0  0  0  0
 15 35  1  0  0  0  0
 15 36  1  0  0  0  0
 15 37  1  0  0  0  0
 16 17  1  0  0  0  0
 17 18  1  0  0  0  0
 18 19  2  0  0  0  0
 18 20  1  0  0  0  0
 19 26  1  0  0  0  0
 19 38  1  0  0  0  0
 20 21  2  0  0  0  0
 20 39  1  0  0  0  0
 21 22  1  0  0  0  0
 21 25  1  0  0  0  0
 22 23  1  0  0  0  0
 22 24  1  0  0  0  0
 22 40  1  0  0  0  0
 23 41  1  0  0  0  0
 23 42  1  0  0  0  0
 23 43  1  0  0  0  0
 24 44  1  0  0  0  0
 24 45  1  0  0  0  0
 24 46  1  0  0  0  0
 25 26  2  0  0  0  0
 25 27  1  0  0  0  0
 26 47  1  0  0  0  0
 27 48  1  0  0  0  0
M  END
>  <DRUGBANK_ID>
DB03181

>  <SECONDARY_ACCESSION_NUMBERS>
EXPT02554

>  <COMMON_NAME>
2-[4-(4-Hydroxy-3-Isopropyl-Phenoxy)-3,5-Dimethyl-Phenyl]-2h-[1,2,4]Triazine-3,5-Dione

$$$$
