
 OpenBabel10282417072D

 68 71  0  0  0  0  0  0  0  0999 V2000
   -6.4302   -1.2375    0.0000 C   0  0  0  0  0  0  0  0  0  0  0  0
   -5.7158   -1.6500    0.0000 C   0  0  0  0  0  0  0  0  0  0  0  0
   -5.0013   -1.2375    0.0000 O   0  0  0  0  0  0  0  0  0  0  0  0
   -5.7158   -2.4750    0.0000 N   0  0  0  0  0  0  0  0  0  0  0  0
   -5.0013   -2.8875    0.0000 C   0  0  0  0  0  0  0  0  0  0  0  0
   -5.0013   -3.7125    0.0000 C   0  0  0  0  0  0  0  0  0  0  0  0
   -5.7158   -4.1250    0.0000 N   0  0  0  0  0  0  0  0  0  0  0  0
   -6.4302   -3.7125    0.0000 C   0  0  0  0  0  0  0  0  0  0  0  0
   -6.4302   -2.8875    0.0000 C   0  0  0  0  0  0  0  0  0  0  0  0
   -5.7158   -4.9500    0.0000 C   0  0  0  0  0  0  0  0  0  0  0  0
   -5.0013   -5.3625    0.0000 C   0  0  0  0  0  0  0  0  0  0  0  0
   -5.0013   -6.1875    0.0000 C   0  0  0  0  0  0  0  0  0  0  0  0
   -5.7158   -6.6000    0.0000 C   0  0  0  0  0  0  0  0  0  0  0  0
   -6.4302   -6.1875    0.0000 C   0  0  0  0  0  0  0  0  0  0  0  0
   -6.4302   -5.3625    0.0000 C   0  0  0  0  0  0  0  0  0  0  0  0
   -7.1447   -6.6000    0.0000 O   0  0  0  0  0  0  0  0  0  0  0  0
   -7.8592   -6.1875    0.0000 C   0  0  0  0  0  0  0  0  0  0  0  0
   -5.7158   -7.4250    0.0000 N   0  0  0  0  0  0  0  0  0  0  0  0
   -6.4302   -7.8375    0.0000 C   0  0  0  0  0  0  0  0  0  0  0  0
   -7.1447   -7.4250    0.0000 N   0  0  0  0  0  0  0  0  0  0  0  0
   -7.8592   -7.8375    0.0000 C   0  0  0  0  0  0  0  0  0  0  0  0
   -7.8592   -8.6625    0.0000 C   0  0  0  0  0  0  0  0  0  0  0  0
   -7.1447   -9.0750    0.0000 C   0  0  0  0  0  0  0  0  0  0  0  0
   -6.4302   -8.6625    0.0000 N   0  0  0  0  0  0  0  0  0  0  0  0
   -7.1447   -9.9000    0.0000 N   0  0  0  0  0  0  0  0  0  0  0  0
   -6.4302  -10.3125    0.0000 C   0  0  0  0  0  0  0  0  0  0  0  0
   -5.7158   -9.9000    0.0000 C   0  0  0  0  0  0  0  0  0  0  0  0
   -5.0013  -10.3125    0.0000 C   0  0  0  0  0  0  0  0  0  0  0  0
   -5.0013  -11.1375    0.0000 C   0  0  0  0  0  0  0  0  0  0  0  0
   -5.7158  -11.5500    0.0000 C   0  0  0  0  0  0  0  0  0  0  0  0
   -6.4302  -11.1375    0.0000 C   0  0  0  0  0  0  0  0  0  0  0  0
   -5.7158  -12.3750    0.0000 N   0  0  0  0  0  0  0  0  0  0  0  0
   -5.0013  -12.7875    0.0000 C   0  0  0  0  0  0  0  0  0  0  0  0
   -4.2868  -12.3750    0.0000 O   0  0  0  0  0  0  0  0  0  0  0  0
   -5.0013  -13.6125    0.0000 C   0  0  0  0  0  0  0  0  0  0  0  0
   -4.2868  -14.0250    0.0000 C   0  0  0  0  0  0  0  0  0  0  0  0
   -8.5737   -9.0750    0.0000 C   0  0  0  0  0  0  0  0  0  0  0  0
   -9.2881   -9.4875    0.0000 F   0  0  0  0  0  0  0  0  0  0  0  0
   -8.1612   -9.7895    0.0000 F   0  0  0  0  0  0  0  0  0  0  0  0
   -8.9862   -8.3605    0.0000 F   0  0  0  0  0  0  0  0  0  0  0  0
   -6.4302   -0.1675    0.0000 H   0  0  0  0  0  0  0  0  0  0  0  0
   -7.3569   -1.7725    0.0000 H   0  0  0  0  0  0  0  0  0  0  0  0
   -7.3568   -0.7025    0.0000 H   0  0  0  0  0  0  0  0  0  0  0  0
   -4.0747   -2.3525    0.0000 H   0  0  0  0  0  0  0  0  0  0  0  0
   -4.0747   -3.4225    0.0000 H   0  0  0  0  0  0  0  0  0  0  0  0
   -4.0747   -4.2475    0.0000 H   0  0  0  0  0  0  0  0  0  0  0  0
   -5.0013   -4.7825    0.0000 H   0  0  0  0  0  0  0  0  0  0  0  0
   -7.3569   -4.2475    0.0000 H   0  0  0  0  0  0  0  0  0  0  0  0
   -7.3568   -3.1775    0.0000 H   0  0  0  0  0  0  0  0  0  0  0  0
   -7.3569   -2.3525    0.0000 H   0  0  0  0  0  0  0  0  0  0  0  0
   -6.4302   -1.8175    0.0000 H   0  0  0  0  0  0  0  0  0  0  0  0
   -4.1076   -4.8465    0.0000 H   0  0  0  0  0  0  0  0  0  0  0  0
   -4.1076   -6.7035    0.0000 H   0  0  0  0  0  0  0  0  0  0  0  0
   -7.3239   -4.8465    0.0000 H   0  0  0  0  0  0  0  0  0  0  0  0
   -7.8592   -5.1175    0.0000 H   0  0  0  0  0  0  0  0  0  0  0  0
   -8.7858   -6.7225    0.0000 H   0  0  0  0  0  0  0  0  0  0  0  0
   -8.7859   -5.6525    0.0000 H   0  0  0  0  0  0  0  0  0  0  0  0
   -4.8632   -7.9172    0.0000 H   0  0  0  0  0  0  0  0  0  0  0  0
   -8.7529   -7.3215    0.0000 H   0  0  0  0  0  0  0  0  0  0  0  0
   -7.9973  -10.3923    0.0000 H   0  0  0  0  0  0  0  0  0  0  0  0
   -5.7158   -8.8680    0.0000 H   0  0  0  0  0  0  0  0  0  0  0  0
   -4.1076   -9.7965    0.0000 H   0  0  0  0  0  0  0  0  0  0  0  0
   -4.1076  -11.6535    0.0000 H   0  0  0  0  0  0  0  0  0  0  0  0
   -7.3239  -11.6535    0.0000 H   0  0  0  0  0  0  0  0  0  0  0  0
   -6.5684  -12.8673    0.0000 H   0  0  0  0  0  0  0  0  0  0  0  0
   -5.8950  -14.1285    0.0000 H   0  0  0  0  0  0  0  0  0  0  0  0
   -4.2868  -15.0570    0.0000 H   0  0  0  0  0  0  0  0  0  0  0  0
   -3.3931  -13.5090    0.0000 H   0  0  0  0  0  0  0  0  0  0  0  0
  1  2  1  0  0  0  0
  1 41  1  0  0  0  0
  1 42  1  0  0  0  0
  1 43  1  0  0  0  0
  2  3  2  0  0  0  0
  2  4  1  0  0  0  0
  4  5  1  0  0  0  0
  4  9  1  0  0  0  0
  5  6  1  0  0  0  0
  5 44  1  0  0  0  0
  5 45  1  0  0  0  0
  6  7  1  0  0  0  0
  6 46  1  0  0  0  0
  6 47  1  0  0  0  0
  7  8  1  0  0  0  0
  7 10  1  0  0  0  0
  8  9  1  0  0  0  0
  8 48  1  0  0  0  0
  8 49  1  0  0  0  0
  9 50  1  0  0  0  0
  9 51  1  0  0  0  0
 10 11  2  0  0  0  0
 10 15  1  0  0  0  0
 11 12  1  0  0  0  0
 11 52  1  0  0  0  0
 12 13  2  0  0  0  0
 12 53  1  0  0  0  0
 13 14  1  0  0  0  0
 13 18  1  0  0  0  0
 14 15  2  0  0  0  0
 14 16  1  0  0  0  0
 15 54  1  0  0  0  0
 16 17  1  0  0  0  0
 17 55  1  0  0  0  0
 17 56  1  0  0  0  0
 17 57  1  0  0  0  0
 18 19  1  0  0  0  0
 18 58  1  0  0  0  0
 19 20  2  0  0  0  0
 19 24  1  0  0  0  0
 20 21  1  0  0  0  0
 21 22  2  0  0  0  0
 21 59  1  0  0  0  0
 22 23  1  0  0  0  0
 22 37  1  0  0  0  0
 23 24  2  0  0  0  0
 23 25  1  0  0  0  0
 25 26  1  0  0  0  0
 25 60  1  0  0  0  0
 26 27  2  0  0  0  0
 26 31  1  0  0  0  0
 27 28  1  0  0  0  0
 27 61  1  0  0  0  0
 28 29  2  0  0  0  0
 28 62  1  0  0  0  0
 29 30  1  0  0  0  0
 29 63  1  0  0  0  0
 30 31  2  0  0  0  0
 30 32  1  0  0  0  0
 31 64  1  0  0  0  0
 32 33  1  0  0  0  0
 32 65  1  0  0  0  0
 33 34  2  0  0  0  0
 33 35  1  0  0  0  0
 35 36  2  0  0  0  0
 35 66  1  0  0  0  0
 36 67  1  0  0  0  0
 36 68  1  0  0  0  0
 37 38  1  0  0  0  0
 37 39  1  0  0  0  0
 37 40  1  0  0  0  0
M  END
>  <DRUGBANK_ID>
DB11907

>  <COMMON_NAME>
Rociletinib

>  <CAS_NUMBER>
1374640-70-6

>  <UNII>
72AH61702G

>  <SYNONYMS>
Rociletinib

$$$$
