438
 OpenBabel10282417072D

 59 62  0  0  1  0  0  0  0  0999 V2000
    5.2223    0.6701    0.0000 S   0  0  0  0  0  0  0  0  0  0  0  0
   10.8605    0.2613    0.0000 S   0  0  0  0  0  0  0  0  0  0  0  0
    7.3508    2.4956    0.0000 O   0  0  0  0  0  0  0  0  0  0  0  0
    4.5079    3.5576    0.0000 O   0  5  0  0  0  0  0  0  0  0  0  0
    5.9369    3.5576    0.0000 O   0  0  0  0  0  0  0  0  0  0  0  0
    8.3633    1.5030    0.0000 O   0  0  0  0  0  0  0  0  0  0  0  0
    7.7178   -0.8864    0.0000 O   0  0  0  0  0  0  0  0  0  0  0  0
    7.8697   -3.0638    0.0000 O   0  0  0  0  0  0  0  0  0  0  0  0
    6.4902   -2.6911    0.0000 O   0  0  0  0  0  0  0  0  0  0  0  0
    5.9369    1.9076    0.0000 N   0  0  0  0  0  0  0  0  0  0  0  0
    7.3508    0.4947    0.0000 N   0  0  0  0  0  0  0  0  0  0  0  0
    3.0790    1.9076    0.0000 N   0  3  0  0  0  0  0  0  0  0  0  0
    8.5152   -0.6745    0.0000 N   0  0  0  0  0  0  0  0  0  0  0  0
    9.8248    1.1034    0.0000 N   0  0  0  0  0  0  0  0  0  0  0  0
   11.1692    1.6987    0.0000 N   0  0  0  0  0  0  0  0  0  0  0  0
    5.9369    1.0826    0.0000 C   0  0  1  0  0  0  0  0  0  0  0  0
    6.7686    1.0792    0.0000 C   0  0  1  0  0  0  0  0  0  0  0  0
    6.7686    1.9110    0.0000 C   0  0  0  0  0  0  0  0  0  0  0  0
    5.2223    2.3201    0.0000 C   0  0  0  0  0  0  0  0  0  0  0  0
    4.5079    1.9076    0.0000 C   0  0  0  0  0  0  0  0  0  0  0  0
    4.5079    1.0826    0.0000 C   0  0  0  0  0  0  0  0  0  0  0  0
    3.7934    2.3201    0.0000 C   0  0  0  0  0  0  0  0  0  0  0  0
    5.2223    3.1451    0.0000 C   0  0  0  0  0  0  0  0  0  0  0  0
    8.1481    0.7065    0.0000 C   0  0  0  0  0  0  0  0  0  0  0  0
    8.7303    0.1219    0.0000 C   0  0  0  0  0  0  0  0  0  0  0  0
    3.0790    1.0826    0.0000 C   0  0  0  0  0  0  0  0  0  0  0  0
    2.3644    2.3201    0.0000 C   0  0  0  0  0  0  0  0  0  0  0  0
    9.5276    0.3339    0.0000 C   0  0  0  0  0  0  0  0  0  0  0  0
    2.3644    0.6701    0.0000 C   0  0  0  0  0  0  0  0  0  0  0  0
    1.6500    1.9076    0.0000 C   0  0  0  0  0  0  0  0  0  0  0  0
    1.6500    1.0826    0.0000 C   0  0  0  0  0  0  0  0  0  0  0  0
    7.5026   -1.6828    0.0000 C   0  0  0  0  0  0  0  0  0  0  0  0
   10.1677   -0.1866    0.0000 C   0  0  0  0  0  0  0  0  0  0  0  0
    6.7062   -1.4677    0.0000 C   0  0  0  0  0  0  0  0  0  0  0  0
    8.2991   -1.8980    0.0000 C   0  0  0  0  0  0  0  0  0  0  0  0
    7.2875   -2.4793    0.0000 C   0  0  0  0  0  0  0  0  0  0  0  0
   10.6487    1.0586    0.0000 C   0  0  0  0  0  0  0  0  0  0  0  0
    6.1063    0.4448    0.0000 H   0  0  0  0  0  0  0  0  0  0  0  0
    7.6254   -3.9684    0.0000 H   0  0  0  0  0  0  0  0  0  0  0  0
    7.0940   -0.4557    0.0000 H   0  0  0  0  0  0  0  0  0  0  0  0
   12.1413    1.5427    0.0000 H   0  0  0  0  0  0  0  0  0  0  0  0
   10.8183    2.6185    0.0000 H   0  0  0  0  0  0  0  0  0  0  0  0
    6.3561    0.0919    0.0000 H   0  0  0  0  0  0  0  0  0  0  0  0
    3.5812    0.5476    0.0000 H   0  0  0  0  0  0  0  0  0  0  0  0
    3.5813    1.6176    0.0000 H   0  0  0  0  0  0  0  0  0  0  0  0
    3.7934    3.3901    0.0000 H   0  0  0  0  0  0  0  0  0  0  0  0
    4.7200    2.8551    0.0000 H   0  0  0  0  0  0  0  0  0  0  0  0
    3.9727    0.5666    0.0000 H   0  0  0  0  0  0  0  0  0  0  0  0
    2.3643    3.3521    0.0000 H   0  0  0  0  0  0  0  0  0  0  0  0
    2.3643   -0.3619    0.0000 H   0  0  0  0  0  0  0  0  0  0  0  0
    0.7563    2.4236    0.0000 H   0  0  0  0  0  0  0  0  0  0  0  0
    0.7563    0.5666    0.0000 H   0  0  0  0  0  0  0  0  0  0  0  0
   10.1116   -1.2171    0.0000 H   0  0  0  0  0  0  0  0  0  0  0  0
    6.4313   -0.4336    0.0000 H   0  0  0  0  0  0  0  0  0  0  0  0
    5.9481   -2.2228    0.0000 H   0  0  0  0  0  0  0  0  0  0  0  0
    5.6732   -1.1887    0.0000 H   0  0  0  0  0  0  0  0  0  0  0  0
    8.5739   -2.9321    0.0000 H   0  0  0  0  0  0  0  0  0  0  0  0
    9.0573   -1.1430    0.0000 H   0  0  0  0  0  0  0  0  0  0  0  0
    9.3321   -2.1771    0.0000 H   0  0  0  0  0  0  0  0  0  0  0  0
  1 16  1  0  0  0  0
  1 21  1  0  0  0  0
  2 33  1  0  0  0  0
  2 37  1  0  0  0  0
  3 18  2  0  0  0  0
  4 23  1  0  0  0  0
  5 23  2  0  0  0  0
  6 24  2  0  0  0  0
  7 13  1  0  0  0  0
  7 32  1  0  0  0  0
  8 36  1  0  0  0  0
  8 39  1  0  0  0  0
  9 36  2  0  0  0  0
 10 16  1  0  0  0  0
 10 18  1  0  0  0  0
 10 19  1  0  0  0  0
 11 24  1  0  0  0  0
 11 40  1  0  0  0  0
 12 22  1  0  0  0  0
 12 26  2  0  0  0  0
 12 27  1  0  0  0  0
 13 25  2  0  0  0  0
 14 28  1  0  0  0  0
 14 37  2  0  0  0  0
 15 37  1  0  0  0  0
 15 41  1  0  0  0  0
 15 42  1  0  0  0  0
 16 17  1  0  0  0  0
 16 38  1  6  0  0  0
 17 11  1  0  0  0  0
 17 18  1  0  0  0  0
 17 43  1  6  0  0  0
 19 20  2  0  0  0  0
 19 23  1  0  0  0  0
 20 21  1  0  0  0  0
 20 22  1  0  0  0  0
 21 44  1  0  0  0  0
 21 45  1  0  0  0  0
 22 46  1  0  0  0  0
 22 47  1  0  0  0  0
 24 25  1  0  0  0  0
 25 28  1  0  0  0  0
 26 29  1  0  0  0  0
 26 48  1  0  0  0  0
 27 30  2  0  0  0  0
 27 49  1  0  0  0  0
 28 33  2  0  0  0  0
 29 31  2  0  0  0  0
 29 50  1  0  0  0  0
 30 31  1  0  0  0  0
 30 51  1  0  0  0  0
 31 52  1  0  0  0  0
 32 34  1  0  0  0  0
 32 35  1  0  0  0  0
 32 36  1  0  0  0  0
 33 53  1  0  0  0  0
 34 54  1  0  0  0  0
 34 55  1  0  0  0  0
 34 56  1  0  0  0  0
 35 57  1  0  0  0  0
 35 58  1  0  0  0  0
 35 59  1  0  0  0  0
M  CHG  2   4  -1  12   1
M  END
>  <DRUGBANK_ID>
DB00438

>  <SECONDARY_ACCESSION_NUMBERS>
APRD00857

>  <COMMON_NAME>
Ceftazidime

>  <CAS_NUMBER>
72558-82-8

>  <UNII>
DZR1ENT301

>  <SYNONYMS>
CAZ; Ceftazidim; Ceftazidima; Ceftazidime; Ceftazidime anhydrous; Ceftazidimum

$$$$
