
 OpenBabel10282417072D

 61 63  0  0  1  0  0  0  0  0999 V2000
    7.7581   -7.2907    0.0000 C   0  0  0  0  0  0  0  0  0  0  0  0
    8.4726   -6.8782    0.0000 C   0  0  0  0  0  0  0  0  0  0  0  0
    7.0436   -6.8782    0.0000 C   0  0  0  0  0  0  0  0  0  0  0  0
    9.1789   -7.2858    0.0000 N   0  0  0  0  0  0  0  0  0  0  0  0
    7.7581   -8.1157    0.0000 C   0  0  0  0  0  0  0  0  0  0  0  0
    6.3292   -7.2907    0.0000 C   0  0  0  0  0  0  0  0  0  0  0  0
    9.1781   -8.1108    0.0000 C   0  0  1  0  0  0  0  0  0  0  0  0
    7.0436   -8.5282    0.0000 C   0  0  0  0  0  0  0  0  0  0  0  0
    9.8922   -8.5240    0.0000 C   0  0  2  0  0  0  0  0  0  0  0  0
    6.3292   -8.1157    0.0000 C   0  0  0  0  0  0  0  0  0  0  0  0
    9.1766   -9.7608    0.0000 N   0  0  0  0  0  0  0  0  0  0  0  0
    9.8914   -9.3490    0.0000 C   0  0  0  0  0  0  0  0  0  0  0  0
    8.4633   -8.5226    0.0000 C   0  0  0  0  0  0  0  0  0  0  0  0
    8.4726   -6.0532    0.0000 O   0  0  0  0  0  0  0  0  0  0  0  0
    8.4625   -9.3476    0.0000 C   0  0  0  0  0  0  0  0  0  0  0  0
    5.6147   -8.5282    0.0000 N   0  0  0  0  0  0  0  0  0  0  0  0
    7.0436   -9.3532    0.0000 Cl  0  0  0  0  0  0  0  0  0  0  0  0
    7.0436   -6.0532    0.0000 O   0  0  0  0  0  0  0  0  0  0  0  0
   13.4634   -9.7650    0.0000 C   0  0  0  0  0  0  0  0  0  0  0  0
   10.6071   -8.1122    0.0000 O   0  0  0  0  0  0  0  0  0  0  0  0
   12.0337  -10.5886    0.0000 C   0  0  0  0  0  0  0  0  0  0  0  0
   14.1783   -9.3532    0.0000 F   0  0  0  0  0  0  0  0  0  0  0  0
   12.7493   -9.3517    0.0000 C   0  0  0  0  0  0  0  0  0  0  0  0
   13.4626  -10.5899    0.0000 C   0  0  0  0  0  0  0  0  0  0  0  0
   12.0345   -9.7636    0.0000 C   0  0  0  0  0  0  0  0  0  0  0  0
   12.7477  -11.0018    0.0000 C   0  0  0  0  0  0  0  0  0  0  0  0
    9.1758  -10.5858    0.0000 C   0  0  0  0  0  0  0  0  0  0  0  0
    9.8899  -10.9990    0.0000 C   0  0  0  0  0  0  0  0  0  0  0  0
   11.3188  -11.0004    0.0000 O   0  0  0  0  0  0  0  0  0  0  0  0
   10.6047  -10.5872    0.0000 C   0  0  0  0  0  0  0  0  0  0  0  0
    6.3292   -5.6407    0.0000 C   0  0  0  0  0  0  0  0  0  0  0  0
   11.3211   -8.5254    0.0000 C   0  0  0  0  0  0  0  0  0  0  0  0
   10.0317   -6.7939    0.0000 H   0  0  0  0  0  0  0  0  0  0  0  0
    8.6518   -8.6317    0.0000 H   0  0  0  0  0  0  0  0  0  0  0  0
    5.4355   -6.7747    0.0000 H   0  0  0  0  0  0  0  0  0  0  0  0
   10.1053   -7.5767    0.0000 H   0  0  0  0  0  0  0  0  0  0  0  0
    9.8932   -7.4540    0.0000 H   0  0  0  0  0  0  0  0  0  0  0  0
   10.8175   -9.8849    0.0000 H   0  0  0  0  0  0  0  0  0  0  0  0
    9.8904  -10.4190    0.0000 H   0  0  0  0  0  0  0  0  0  0  0  0
    7.5372   -7.9867    0.0000 H   0  0  0  0  0  0  0  0  0  0  0  0
    7.5361   -9.0567    0.0000 H   0  0  0  0  0  0  0  0  0  0  0  0
    7.5353   -9.8817    0.0000 H   0  0  0  0  0  0  0  0  0  0  0  0
    7.5364   -8.8117    0.0000 H   0  0  0  0  0  0  0  0  0  0  0  0
    4.7621   -8.0359    0.0000 H   0  0  0  0  0  0  0  0  0  0  0  0
    5.6147   -9.5127    0.0000 H   0  0  0  0  0  0  0  0  0  0  0  0
   12.7503   -8.3197    0.0000 H   0  0  0  0  0  0  0  0  0  0  0  0
   14.3559  -11.1067    0.0000 H   0  0  0  0  0  0  0  0  0  0  0  0
   11.1412   -9.2468    0.0000 H   0  0  0  0  0  0  0  0  0  0  0  0
   12.7467  -12.0338    0.0000 H   0  0  0  0  0  0  0  0  0  0  0  0
    8.2486  -11.1199    0.0000 H   0  0  0  0  0  0  0  0  0  0  0  0
    9.1748  -11.6558    0.0000 H   0  0  0  0  0  0  0  0  0  0  0  0
    9.8889  -12.0690    0.0000 H   0  0  0  0  0  0  0  0  0  0  0  0
   10.8160  -11.5349    0.0000 H   0  0  0  0  0  0  0  0  0  0  0  0
   10.6057   -9.5172    0.0000 H   0  0  0  0  0  0  0  0  0  0  0  0
   11.5319  -10.0531    0.0000 H   0  0  0  0  0  0  0  0  0  0  0  0
    6.3292   -4.5707    0.0000 H   0  0  0  0  0  0  0  0  0  0  0  0
    5.4025   -6.1757    0.0000 H   0  0  0  0  0  0  0  0  0  0  0  0
    5.4026   -5.1057    0.0000 H   0  0  0  0  0  0  0  0  0  0  0  0
   11.3200   -9.5954    0.0000 H   0  0  0  0  0  0  0  0  0  0  0  0
   12.2483   -7.9913    0.0000 H   0  0  0  0  0  0  0  0  0  0  0  0
   12.2472   -9.0613    0.0000 H   0  0  0  0  0  0  0  0  0  0  0  0
  2  1  1  0  0  0  0
  3  1  1  0  0  0  0
  4  2  1  0  0  0  0
  4 33  1  0  0  0  0
  5  1  2  0  0  0  0
  5 34  1  0  0  0  0
  6  3  2  0  0  0  0
  6 35  1  0  0  0  0
  7  4  1  0  0  0  0
  7 36  1  6  0  0  0
  8  5  1  0  0  0  0
  9  7  1  0  0  0  0
  9 20  1  0  0  0  0
  9 37  1  6  0  0  0
 10  6  1  0  0  0  0
 10  8  2  0  0  0  0
 12  9  1  0  0  0  0
 12 11  1  0  0  0  0
 12 38  1  0  0  0  0
 12 39  1  0  0  0  0
 13  7  1  0  0  0  0
 13 40  1  0  0  0  0
 13 41  1  0  0  0  0
 14  2  2  0  0  0  0
 15 11  1  0  0  0  0
 15 13  1  0  0  0  0
 15 42  1  0  0  0  0
 15 43  1  0  0  0  0
 16 10  1  0  0  0  0
 16 44  1  0  0  0  0
 16 45  1  0  0  0  0
 17  8  1  0  0  0  0
 18  3  1  0  0  0  0
 22 19  1  0  0  0  0
 23 19  2  0  0  0  0
 23 46  1  0  0  0  0
 24 19  1  0  0  0  0
 24 47  1  0  0  0  0
 25 21  2  0  0  0  0
 25 23  1  0  0  0  0
 25 48  1  0  0  0  0
 26 21  1  0  0  0  0
 26 24  2  0  0  0  0
 26 49  1  0  0  0  0
 27 11  1  0  0  0  0
 27 50  1  0  0  0  0
 27 51  1  0  0  0  0
 28 27  1  0  0  0  0
 28 52  1  0  0  0  0
 28 53  1  0  0  0  0
 29 21  1  0  0  0  0
 30 28  1  0  0  0  0
 30 29  1  0  0  0  0
 30 54  1  0  0  0  0
 30 55  1  0  0  0  0
 31 18  1  0  0  0  0
 31 56  1  0  0  0  0
 31 57  1  0  0  0  0
 31 58  1  0  0  0  0
 32 20  1  0  0  0  0
 32 59  1  0  0  0  0
 32 60  1  0  0  0  0
 32 61  1  0  0  0  0
M  END
>  <DRUGBANK_ID>
DB00604

>  <SECONDARY_ACCESSION_NUMBERS>
APRD00454

>  <COMMON_NAME>
Cisapride

>  <CAS_NUMBER>
81098-60-4

>  <UNII>
UVL329170W

>  <SYNONYMS>
Cisaprid; Cisaprida; Cisapride; Cisapridum

$$$$
