2375
 OpenBabel10282417072D

 43 44  0  0  1  0  0  0  0  0999 V2000
    7.3659   -1.6900    0.0000 S   0  0  0  0  0  0  0  0  0  0  0  0
   10.2239   -0.0400    0.0000 F   0  0  0  0  0  0  0  0  0  0  0  0
    3.7935    2.8476    0.0000 F   0  0  0  0  0  0  0  0  0  0  0  0
    4.6185    2.0225    0.0000 F   0  0  0  0  0  0  0  0  0  0  0  0
    2.9685    2.0225    0.0000 F   0  0  0  0  0  0  0  0  0  0  0  0
    5.5245   -2.4045    0.0000 O   0  0  0  0  0  0  0  0  0  0  0  0
    7.7784   -2.4045    0.0000 O   0  0  0  0  0  0  0  0  0  0  0  0
    6.9534   -0.9756    0.0000 O   0  0  0  0  0  0  0  0  0  0  0  0
    4.5080   -1.6900    0.0000 O   0  0  0  0  0  0  0  0  0  0  0  0
    5.2224   -0.4525    0.0000 N   0  0  0  0  0  0  0  0  0  0  0  0
    1.6500    1.6100    0.0000 N   0  0  0  0  0  0  0  0  0  0  0  0
    5.9370   -1.6900    0.0000 C   0  0  3  0  0  0  0  0  0  0  0  0
    6.6515   -2.1026    0.0000 C   0  0  0  0  0  0  0  0  0  0  0  0
    6.3495   -0.9756    0.0000 C   0  0  0  0  0  0  0  0  0  0  0  0
    5.2224   -1.2775    0.0000 C   0  0  0  0  0  0  0  0  0  0  0  0
    8.0804   -1.2775    0.0000 C   0  0  0  0  0  0  0  0  0  0  0  0
    4.5080   -0.0400    0.0000 C   0  0  0  0  0  0  0  0  0  0  0  0
    8.0804   -0.4525    0.0000 C   0  0  0  0  0  0  0  0  0  0  0  0
    8.7949   -1.6900    0.0000 C   0  0  0  0  0  0  0  0  0  0  0  0
    4.5080    0.7850    0.0000 C   0  0  0  0  0  0  0  0  0  0  0  0
    8.7949   -0.0400    0.0000 C   0  0  0  0  0  0  0  0  0  0  0  0
    9.5094   -1.2775    0.0000 C   0  0  0  0  0  0  0  0  0  0  0  0
    3.7935   -0.4525    0.0000 C   0  0  0  0  0  0  0  0  0  0  0  0
    3.7935    1.1975    0.0000 C   0  0  0  0  0  0  0  0  0  0  0  0
    9.5094   -0.4525    0.0000 C   0  0  0  0  0  0  0  0  0  0  0  0
    3.0790    0.7850    0.0000 C   0  0  0  0  0  0  0  0  0  0  0  0
    3.0790   -0.0400    0.0000 C   0  0  0  0  0  0  0  0  0  0  0  0
    3.7935    2.0225    0.0000 C   0  0  0  0  0  0  0  0  0  0  0  0
    2.3645    1.1975    0.0000 C   0  0  0  0  0  0  0  0  0  0  0  0
    4.5545   -2.4045    0.0000 H   0  0  0  0  0  0  0  0  0  0  0  0
    6.0750    0.0397    0.0000 H   0  0  0  0  0  0  0  0  0  0  0  0
    6.6515   -3.1726    0.0000 H   0  0  0  0  0  0  0  0  0  0  0  0
    5.7248   -2.6376    0.0000 H   0  0  0  0  0  0  0  0  0  0  0  0
    7.4195   -0.9756    0.0000 H   0  0  0  0  0  0  0  0  0  0  0  0
    5.8145   -0.0489    0.0000 H   0  0  0  0  0  0  0  0  0  0  0  0
    6.8845   -0.0490    0.0000 H   0  0  0  0  0  0  0  0  0  0  0  0
    7.1867    0.0635    0.0000 H   0  0  0  0  0  0  0  0  0  0  0  0
    8.7949   -2.7220    0.0000 H   0  0  0  0  0  0  0  0  0  0  0  0
    5.4017    1.3010    0.0000 H   0  0  0  0  0  0  0  0  0  0  0  0
    8.7949    0.9920    0.0000 H   0  0  0  0  0  0  0  0  0  0  0  0
   10.4031   -1.7935    0.0000 H   0  0  0  0  0  0  0  0  0  0  0  0
    3.7935   -1.4845    0.0000 H   0  0  0  0  0  0  0  0  0  0  0  0
    2.1853   -0.5560    0.0000 H   0  0  0  0  0  0  0  0  0  0  0  0
  1  7  2  0  0  0  0
  1  8  2  0  0  0  0
  1 13  1  0  0  0  0
  1 16  1  0  0  0  0
  2 25  1  0  0  0  0
  3 28  1  0  0  0  0
  4 28  1  0  0  0  0
  5 28  1  0  0  0  0
  6 12  1  0  0  0  0
  6 30  1  0  0  0  0
  9 15  2  0  0  0  0
 10 15  1  0  0  0  0
 10 17  1  0  0  0  0
 10 31  1  0  0  0  0
 11 29  3  0  0  0  0
 12 13  1  0  0  0  0
 12 14  1  0  0  0  0
 12 15  1  0  0  0  0
 13 32  1  0  0  0  0
 13 33  1  0  0  0  0
 14 34  1  0  0  0  0
 14 35  1  0  0  0  0
 14 36  1  0  0  0  0
 16 18  2  0  0  0  0
 16 19  1  0  0  0  0
 17 20  2  0  0  0  0
 17 23  1  0  0  0  0
 18 21  1  0  0  0  0
 18 37  1  0  0  0  0
 19 22  2  0  0  0  0
 19 38  1  0  0  0  0
 20 24  1  0  0  0  0
 20 39  1  0  0  0  0
 21 25  2  0  0  0  0
 21 40  1  0  0  0  0
 22 25  1  0  0  0  0
 22 41  1  0  0  0  0
 23 27  2  0  0  0  0
 23 42  1  0  0  0  0
 24 26  2  0  0  0  0
 24 28  1  0  0  0  0
 26 27  1  0  0  0  0
 26 29  1  0  0  0  0
 27 43  1  0  0  0  0
M  END
>  <DRUGBANK_ID>
DB01128

>  <SECONDARY_ACCESSION_NUMBERS>
APRD00042; DB06284

>  <COMMON_NAME>
Bicalutamide

>  <CAS_NUMBER>
90357-06-5

>  <UNII>
A0Z3NAU9DP

>  <SYNONYMS>
Bicalutamida; Bicalutamide; Bicalutamidum

$$$$
