
 OpenBabel10282417072D

 15 12  0  0  0  0  0  0  0  0999 V2000
    0.8250   -1.6500    0.0000 N   0  3  0  0  0  0  0  0  0  0  0  0
    0.8250    1.6500    0.0000 N   0  3  0  0  0  0  0  0  0  0  0  0
    0.8250   -0.8250    0.0000 S   0  5  0  0  0  0  0  0  0  0  0  0
    0.8250    0.0000    0.0000 Mo  0  0  0  0  0  0  0  0  0  0  0  0
    0.8250    0.8250    0.0000 S   0  5  0  0  0  0  0  0  0  0  0  0
    1.6500   -0.0000    0.0000 S   0  0  0  0  0  0  0  0  0  0  0  0
    0.0000    0.0000    0.0000 S   0  0  0  0  0  0  0  0  0  0  0  0
    1.8450   -1.6500    0.0000 H   0  0  0  0  0  0  0  0  0  0  0  0
    0.3150   -0.7667    0.0000 H   0  0  0  0  0  0  0  0  0  0  0  0
    0.3150   -2.5333    0.0000 H   0  0  0  0  0  0  0  0  0  0  0  0
   -0.1950   -1.6500    0.0000 H   0  0  0  0  0  0  0  0  0  0  0  0
    1.8450    1.6500    0.0000 H   0  0  0  0  0  0  0  0  0  0  0  0
    0.3150    2.5333    0.0000 H   0  0  0  0  0  0  0  0  0  0  0  0
    0.3150    0.7667    0.0000 H   0  0  0  0  0  0  0  0  0  0  0  0
   -0.1950    1.6500    0.0000 H   0  0  0  0  0  0  0  0  0  0  0  0
  1  8  1  0  0  0  0
  1  9  1  0  0  0  0
  1 10  1  0  0  0  0
  1 11  1  0  0  0  0
  2 12  1  0  0  0  0
  2 13  1  0  0  0  0
  2 14  1  0  0  0  0
  2 15  1  0  0  0  0
  3  4  1  0  0  0  0
  4  5  1  0  0  0  0
  4  6  2  0  0  0  0
  4  7  2  0  0  0  0
M  CHG  4   1   1   2   1   3  -1   5  -1
M  END
>  <DRUGBANK_ID>
DB17641

>  <COMMON_NAME>
Ammonium tetrathiomolybdate

>  <CAS_NUMBER>
15060-55-6

>  <UNII>
4V6I63LW1E

>  <SYNONYMS>
Ammonium molybdenum sulfide ((nh4)2mos4); Coprexa; Diammonium tetrathiomolybdate; Molybdate(2-), tetrathioxo-, ammonium (1:2), (t-4)-; Molybdate(2-), tetrathioxo-, diammonium, (t-4)-; Tiomolibdate diammonium

$$$$
