
 OpenBabel10282417072D

 63 65  0  0  0  0  0  0  0  0999 V2000
   -3.9190   -0.8963    0.0000 C   0  0  0  0  0  0  0  0  0  0  0  0
   -3.9203   -1.7239    0.0000 C   0  0  0  0  0  0  0  0  0  0  0  0
   -3.2073   -2.1367    0.0000 C   0  0  0  0  0  0  0  0  0  0  0  0
   -2.4881   -1.7233    0.0000 C   0  0  0  0  0  0  0  0  0  0  0  0
   -2.4913   -0.8922    0.0000 C   0  0  0  0  0  0  0  0  0  0  0  0
   -3.2093   -0.4834    0.0000 C   0  0  0  0  0  0  0  0  0  0  0  0
   -4.6353   -2.1353    0.0000 S   0  0  0  0  0  0  0  0  0  0  0  0
   -5.3492   -1.7217    0.0000 C   0  0  0  0  0  0  0  0  0  0  0  0
   -5.0541   -2.8443    0.0000 O   0  0  0  0  0  0  0  0  0  0  0  0
   -4.2291   -2.8443    0.0000 O   0  0  0  0  0  0  0  0  0  0  0  0
   -1.7821   -0.4790    0.0000 C   0  0  0  0  0  0  0  0  0  0  0  0
   -1.0653   -0.8897    0.0000 C   0  0  0  0  0  0  0  0  0  0  0  0
   -0.3534   -0.4743    0.0000 C   0  0  0  0  0  0  0  0  0  0  0  0
   -0.3571    0.3514    0.0000 C   0  0  0  0  0  0  0  0  0  0  0  0
   -1.0785    0.7603    0.0000 C   0  0  0  0  0  0  0  0  0  0  0  0
   -1.7875    0.3425    0.0000 C   0  0  0  0  0  0  0  0  0  0  0  0
    0.3547    0.7683    0.0000 C   0  0  2  0  0  0  0  0  0  0  0  0
    1.0717    0.3604    0.0000 N   0  0  0  0  0  0  0  0  0  0  0  0
    1.7836    0.7773    0.0000 C   0  0  2  0  0  0  0  0  0  0  0  0
    2.5007    0.3694    0.0000 C   0  0  0  0  0  0  0  0  0  0  0  0
    3.2125    0.7863    0.0000 N   0  0  0  0  0  0  0  0  0  0  0  0
    2.5059   -0.4555    0.0000 O   0  0  0  0  0  0  0  0  0  0  0  0
    3.9296    0.3784    0.0000 C   0  0  0  0  0  0  0  0  0  0  0  0
    3.5318   -0.3442    0.0000 C   0  0  0  0  0  0  0  0  0  0  0  0
    4.3566   -0.3275    0.0000 C   0  0  0  0  0  0  0  0  0  0  0  0
    4.6394    0.7994    0.0000 C   0  0  0  0  0  0  0  0  0  0  0  0
    5.3492    1.2204    0.0000 N   0  0  0  0  0  0  0  0  0  0  0  0
    0.3496    1.5934    0.0000 C   0  0  0  0  0  0  0  0  0  0  0  0
    1.7784    1.6024    0.0000 C   0  0  0  0  0  0  0  0  0  0  0  0
    1.0614    2.0104    0.0000 F   0  0  0  0  0  0  0  0  0  0  0  0
   -0.3674    2.0014    0.0000 F   0  0  0  0  0  0  0  0  0  0  0  0
    0.3448    2.4219    0.0000 F   0  0  0  0  0  0  0  0  0  0  0  0
    2.4902    2.0193    0.0000 C   0  0  0  0  0  0  0  0  0  0  0  0
    2.4851    2.8443    0.0000 C   0  0  0  0  0  0  0  0  0  0  0  0
    3.2073    1.6112    0.0000 C   0  0  0  0  0  0  0  0  0  0  0  0
    3.2002    2.4403    0.0000 F   0  0  0  0  0  0  0  0  0  0  0  0
   -4.8132   -0.3811    0.0000 H   0  0  0  0  0  0  0  0  0  0  0  0
   -3.2089   -3.1687    0.0000 H   0  0  0  0  0  0  0  0  0  0  0  0
   -1.5939   -2.2384    0.0000 H   0  0  0  0  0  0  0  0  0  0  0  0
   -3.2141    0.5486    0.0000 H   0  0  0  0  0  0  0  0  0  0  0  0
   -5.3476   -0.6517    0.0000 H   0  0  0  0  0  0  0  0  0  0  0  0
   -6.2766   -2.2553    0.0000 H   0  0  0  0  0  0  0  0  0  0  0  0
   -6.2750   -1.1853    0.0000 H   0  0  0  0  0  0  0  0  0  0  0  0
   -1.0612   -1.9217    0.0000 H   0  0  0  0  0  0  0  0  0  0  0  0
    0.5427   -0.9862    0.0000 H   0  0  0  0  0  0  0  0  0  0  0  0
   -1.0872    1.7923    0.0000 H   0  0  0  0  0  0  0  0  0  0  0  0
   -2.6852    0.8516    0.0000 H   0  0  0  0  0  0  0  0  0  0  0  0
    1.2780    1.3091    0.0000 H   0  0  0  0  0  0  0  0  0  0  0  0
    1.0781   -0.6596    0.0000 H   0  0  0  0  0  0  0  0  0  0  0  0
    0.8536    1.3065    0.0000 H   0  0  0  0  0  0  0  0  0  0  0  0
    3.2063    1.7708    0.0000 H   0  0  0  0  0  0  0  0  0  0  0  0
    2.6162   -0.8979    0.0000 H   0  0  0  0  0  0  0  0  0  0  0  0
    3.8296   -1.3719    0.0000 H   0  0  0  0  0  0  0  0  0  0  0  0
    5.2939   -0.8436    0.0000 H   0  0  0  0  0  0  0  0  0  0  0  0
    5.0976    0.4444    0.0000 H   0  0  0  0  0  0  0  0  0  0  0  0
    0.8484    2.1316    0.0000 H   0  0  0  0  0  0  0  0  0  0  0  0
    1.7717    2.6724    0.0000 H   0  0  0  0  0  0  0  0  0  0  0  0
    3.4084    3.3850    0.0000 H   0  0  0  0  0  0  0  0  0  0  0  0
    1.5552    3.3736    0.0000 H   0  0  0  0  0  0  0  0  0  0  0  0
    2.4785    3.9143    0.0000 H   0  0  0  0  0  0  0  0  0  0  0  0
    3.2139    0.5412    0.0000 H   0  0  0  0  0  0  0  0  0  0  0  0
    4.1306    2.1519    0.0000 H   0  0  0  0  0  0  0  0  0  0  0  0
    4.1373    1.0820    0.0000 H   0  0  0  0  0  0  0  0  0  0  0  0
  1  2  2  0  0  0  0
  1 37  1  0  0  0  0
  2  3  1  0  0  0  0
  2  7  1  0  0  0  0
  3  4  2  0  0  0  0
  3 38  1  0  0  0  0
  4  5  1  0  0  0  0
  4 39  1  0  0  0  0
  5  6  2  0  0  0  0
  5 11  1  0  0  0  0
  6  1  1  0  0  0  0
  6 40  1  0  0  0  0
  7  9  2  0  0  0  0
  7 10  2  0  0  0  0
  7  8  1  0  0  0  0
  8 41  1  0  0  0  0
  8 42  1  0  0  0  0
  8 43  1  0  0  0  0
 11 12  2  0  0  0  0
 12 13  1  0  0  0  0
 12 44  1  0  0  0  0
 13 14  2  0  0  0  0
 13 45  1  0  0  0  0
 14 15  1  0  0  0  0
 14 17  1  0  0  0  0
 15 16  2  0  0  0  0
 15 46  1  0  0  0  0
 16 11  1  0  0  0  0
 16 47  1  0  0  0  0
 17 18  1  0  0  0  0
 17 28  1  0  0  0  0
 17 48  1  6  0  0  0
 18 19  1  0  0  0  0
 18 49  1  0  0  0  0
 19 20  1  0  0  0  0
 19 29  1  0  0  0  0
 19 50  1  6  0  0  0
 20 21  1  0  0  0  0
 20 22  2  0  0  0  0
 21 23  1  0  0  0  0
 21 51  1  0  0  0  0
 23 25  1  0  0  0  0
 23 26  1  0  0  0  0
 24 23  1  0  0  0  0
 24 52  1  0  0  0  0
 24 53  1  0  0  0  0
 25 24  1  0  0  0  0
 25 54  1  0  0  0  0
 25 55  1  0  0  0  0
 26 27  3  0  0  0  0
 28 30  1  0  0  0  0
 28 31  1  0  0  0  0
 28 32  1  0  0  0  0
 29 33  1  0  0  0  0
 29 56  1  0  0  0  0
 29 57  1  0  0  0  0
 33 34  1  0  0  0  0
 33 35  1  0  0  0  0
 33 36  1  0  0  0  0
 34 58  1  0  0  0  0
 34 59  1  0  0  0  0
 34 60  1  0  0  0  0
 35 61  1  0  0  0  0
 35 62  1  0  0  0  0
 35 63  1  0  0  0  0
M  END
>  <DRUGBANK_ID>
DB06670

>  <COMMON_NAME>
Odanacatib

>  <CAS_NUMBER>
603139-19-1

>  <UNII>
N673F6W2VH

>  <SYNONYMS>
Odanacatib

$$$$
