79Z
 OpenBabel10282417072D

 54 57  0  0  0  0  0  0  0  0999 V2000
    2.1861    1.2467    0.0000 C   0  0  0  0  0  0  0  0  0  0  0  0
    1.7736    0.5322    0.0000 C   0  0  0  0  0  0  0  0  0  0  0  0
    2.5986    0.5322    0.0000 C   0  0  0  0  0  0  0  0  0  0  0  0
   -2.4643   -0.2928    0.0000 C   0  0  0  0  0  0  0  0  0  0  0  0
   -2.8768    0.4217    0.0000 C   0  0  0  0  0  0  0  0  0  0  0  0
   -3.7018    0.4217    0.0000 C   0  0  0  0  0  0  0  0  0  0  0  0
   -4.1143   -0.2928    0.0000 C   0  0  0  0  0  0  0  0  0  0  0  0
   -3.7018   -1.0073    0.0000 C   0  0  0  0  0  0  0  0  0  0  0  0
   -2.8768   -1.0073    0.0000 C   0  0  0  0  0  0  0  0  0  0  0  0
    1.0592    0.1197    0.0000 C   0  0  0  0  0  0  0  0  0  0  0  0
    1.0592   -0.7053    0.0000 C   0  0  0  0  0  0  0  0  0  0  0  0
    0.3447   -1.1178    0.0000 C   0  0  0  0  0  0  0  0  0  0  0  0
    0.3447    0.5322    0.0000 C   0  0  0  0  0  0  0  0  0  0  0  0
   -0.3698    0.1197    0.0000 C   0  0  0  0  0  0  0  0  0  0  0  0
   -0.3698   -0.7053    0.0000 C   0  0  0  0  0  0  0  0  0  0  0  0
   -1.1544   -0.9602    0.0000 O   0  0  0  0  0  0  0  0  0  0  0  0
   -1.6393   -0.2928    0.0000 C   0  0  0  0  0  0  0  0  0  0  0  0
   -1.1544    0.3746    0.0000 C   0  0  0  0  0  0  0  0  0  0  0  0
   -1.4093    1.1593    0.0000 C   0  0  0  0  0  0  0  0  0  0  0  0
   -0.8573    1.7724    0.0000 O   0  0  0  0  0  0  0  0  0  0  0  0
   -2.2163    1.3308    0.0000 N   0  0  0  0  0  0  0  0  0  0  0  0
   -2.4712    2.1154    0.0000 C   0  0  0  0  0  0  0  0  0  0  0  0
    1.7736   -1.1178    0.0000 N   0  0  0  0  0  0  0  0  0  0  0  0
    1.7736   -1.9428    0.0000 S   0  0  0  0  0  0  0  0  0  0  0  0
    0.9486   -1.9428    0.0000 O   0  0  0  0  0  0  0  0  0  0  0  0
    1.7736   -2.7678    0.0000 O   0  0  0  0  0  0  0  0  0  0  0  0
    2.5986   -1.9428    0.0000 C   0  0  0  0  0  0  0  0  0  0  0  0
   -4.9393   -0.2928    0.0000 F   0  0  0  0  0  0  0  0  0  0  0  0
    2.4881   -0.7053    0.0000 C   0  0  0  0  0  0  0  0  0  0  0  0
    3.2026   -1.1178    0.0000 C   0  0  0  0  0  0  0  0  0  0  0  0
    3.9171   -0.7053    0.0000 O   0  0  0  0  0  0  0  0  0  0  0  0
    2.1861    2.3167    0.0000 H   0  0  0  0  0  0  0  0  0  0  0  0
    1.1526    1.5236    0.0000 H   0  0  0  0  0  0  0  0  0  0  0  0
    2.0506   -0.5013    0.0000 H   0  0  0  0  0  0  0  0  0  0  0  0
    3.5252   -0.0028    0.0000 H   0  0  0  0  0  0  0  0  0  0  0  0
    2.3217   -0.5013    0.0000 H   0  0  0  0  0  0  0  0  0  0  0  0
   -2.3608    1.3154    0.0000 H   0  0  0  0  0  0  0  0  0  0  0  0
   -4.2178    1.3154    0.0000 H   0  0  0  0  0  0  0  0  0  0  0  0
   -4.2178   -1.9010    0.0000 H   0  0  0  0  0  0  0  0  0  0  0  0
   -2.3608   -1.9010    0.0000 H   0  0  0  0  0  0  0  0  0  0  0  0
    0.3447   -2.1498    0.0000 H   0  0  0  0  0  0  0  0  0  0  0  0
    0.3447    1.5642    0.0000 H   0  0  0  0  0  0  0  0  0  0  0  0
   -2.8751    0.5992    0.0000 H   0  0  0  0  0  0  0  0  0  0  0  0
   -1.7552    2.9105    0.0000 H   0  0  0  0  0  0  0  0  0  0  0  0
   -3.5178    2.3379    0.0000 H   0  0  0  0  0  0  0  0  0  0  0  0
   -2.8018    3.1330    0.0000 H   0  0  0  0  0  0  0  0  0  0  0  0
    3.1336   -2.8694    0.0000 H   0  0  0  0  0  0  0  0  0  0  0  0
    3.1336   -1.0162    0.0000 H   0  0  0  0  0  0  0  0  0  0  0  0
    3.6686   -1.9428    0.0000 H   0  0  0  0  0  0  0  0  0  0  0  0
    2.4881    0.3647    0.0000 H   0  0  0  0  0  0  0  0  0  0  0  0
    3.4147   -0.1703    0.0000 H   0  0  0  0  0  0  0  0  0  0  0  0
    3.2026   -2.1878    0.0000 H   0  0  0  0  0  0  0  0  0  0  0  0
    4.1292   -1.6528    0.0000 H   0  0  0  0  0  0  0  0  0  0  0  0
    4.7571   -1.1903    0.0000 H   0  0  0  0  0  0  0  0  0  0  0  0
  1  3  1  0  0  0  0
  1  2  1  0  0  0  0
  1 32  1  0  0  0  0
  1 33  1  0  0  0  0
  2 10  1  0  0  0  0
  2 34  1  0  0  0  0
  3  2  1  0  0  0  0
  3 35  1  0  0  0  0
  3 36  1  0  0  0  0
  4  9  2  0  0  0  0
  5  6  2  0  0  0  0
  5  4  1  0  0  0  0
  5 37  1  0  0  0  0
  6  7  1  0  0  0  0
  6 38  1  0  0  0  0
  7 28  1  0  0  0  0
  7  8  2  0  0  0  0
  8 39  1  0  0  0  0
  9  8  1  0  0  0  0
  9 40  1  0  0  0  0
 10 11  2  0  0  0  0
 11 12  1  0  0  0  0
 11 23  1  0  0  0  0
 12 41  1  0  0  0  0
 13 14  2  0  0  0  0
 13 10  1  0  0  0  0
 13 42  1  0  0  0  0
 14 15  1  0  0  0  0
 15 16  1  0  0  0  0
 15 12  2  0  0  0  0
 17  4  1  0  0  0  0
 17 16  1  0  0  0  0
 18 14  1  0  0  0  0
 18 17  2  0  0  0  0
 19 18  1  0  0  0  0
 20 19  2  0  0  0  0
 21 19  1  0  0  0  0
 21 43  1  0  0  0  0
 22 21  1  0  0  0  0
 22 44  1  0  0  0  0
 22 45  1  0  0  0  0
 22 46  1  0  0  0  0
 23 24  1  0  0  0  0
 24 25  2  0  0  0  0
 24 27  1  0  0  0  0
 26 24  2  0  0  0  0
 27 47  1  0  0  0  0
 27 48  1  0  0  0  0
 27 49  1  0  0  0  0
 29 23  1  0  0  0  0
 29 50  1  0  0  0  0
 29 51  1  0  0  0  0
 30 29  1  0  0  0  0
 30 52  1  0  0  0  0
 30 53  1  0  0  0  0
 31 30  1  0  0  0  0
 31 54  1  0  0  0  0
M  END
>  <DRUGBANK_ID>
DB07238

>  <SECONDARY_ACCESSION_NUMBERS>
DB12516

>  <COMMON_NAME>
Nesbuvir

>  <CAS_NUMBER>
691852-58-1

>  <UNII>
EYK815W3Z8

>  <SYNONYMS>
Nesbuvir

$$$$
