
 OpenBabel10282417072D

 12 11  0  0  0  0  0  0  0  0999 V2000
    0.3572    0.2062    0.0000 C   0  0  0  0  0  0  0  0  0  0  0  0
   -0.3572   -0.2061    0.0000 C   0  0  2  0  0  0  0  0  0  0  0  0
    1.0717   -0.2062    0.0000 O   0  0  0  0  0  0  0  0  0  0  0  0
   -1.0717    0.2063    0.0000 C   0  0  0  0  0  0  0  0  0  0  0  0
    0.3572    1.0312    0.0000 O   0  0  0  0  0  0  0  0  0  0  0  0
   -0.3572   -1.0312    0.0000 O   0  0  0  0  0  0  0  0  0  0  0  0
    0.5694   -0.7412    0.0000 H   0  0  0  0  0  0  0  0  0  0  0  0
    1.0718   -1.1432    0.0000 H   0  0  0  0  0  0  0  0  0  0  0  0
   -1.0718    1.2763    0.0000 H   0  0  0  0  0  0  0  0  0  0  0  0
   -1.9983   -0.3288    0.0000 H   0  0  0  0  0  0  0  0  0  0  0  0
   -1.9984    0.7412    0.0000 H   0  0  0  0  0  0  0  0  0  0  0  0
   -1.1972   -1.5162    0.0000 H   0  0  0  0  0  0  0  0  0  0  0  0
  1  5  2  0  0  0  0
  1  2  1  0  0  0  0
  1  3  1  0  0  0  0
  2  6  1  0  0  0  0
  2  7  1  6  0  0  0
  3  8  1  0  0  0  0
  4  2  1  0  0  0  0
  4  9  1  0  0  0  0
  4 10  1  0  0  0  0
  4 11  1  0  0  0  0
  6 12  1  0  0  0  0
M  END
>  <DRUGBANK_ID>
DB14475

>  <COMMON_NAME>
L-Lactic acid

>  <CAS_NUMBER>
79-33-4

>  <UNII>
F9S9FFU82N

>  <SYNONYMS>
(+)-lactic acid; (S)-(+)-lactic acid; (S)-2-hydroxypropanoic acid; (S)-2-hydroxypropionic acid; (S)-lactic acid; L-(+)-lactic acid; L-(+)-α-hydroxypropionic acid; L-Lactic acid; L-Milchsäure

$$$$
