
 OpenBabel10282417072D

 35 34  0  0  1  0  0  0  0  0999 V2000
    7.3659    0.4125    0.0000 O   0  0  0  0  0  0  0  0  0  0  0  0
    6.6515    1.6500    0.0000 O   0  0  0  0  0  0  0  0  0  0  0  0
    5.9370    0.4125    0.0000 C   0  0  1  0  0  0  0  0  0  0  0  0
    5.2224    0.8250    0.0000 C   0  0  0  0  0  0  0  0  0  0  0  0
    4.5080    0.4125    0.0000 C   0  0  0  0  0  0  0  0  0  0  0  0
    5.9370   -0.4125    0.0000 C   0  0  0  0  0  0  0  0  0  0  0  0
    3.7935    0.8250    0.0000 C   0  0  0  0  0  0  0  0  0  0  0  0
    3.0791    0.4125    0.0000 C   0  0  0  0  0  0  0  0  0  0  0  0
    5.2224   -0.8250    0.0000 C   0  0  0  0  0  0  0  0  0  0  0  0
    6.6515    0.8250    0.0000 C   0  0  0  0  0  0  0  0  0  0  0  0
    2.3645    0.8250    0.0000 C   0  0  0  0  0  0  0  0  0  0  0  0
    5.2224   -1.6500    0.0000 C   0  0  0  0  0  0  0  0  0  0  0  0
    1.6500    0.4125    0.0000 C   0  0  0  0  0  0  0  0  0  0  0  0
    7.3659   -0.5245    0.0000 H   0  0  0  0  0  0  0  0  0  0  0  0
    5.9370    1.4825    0.0000 H   0  0  0  0  0  0  0  0  0  0  0  0
    5.2223    1.8950    0.0000 H   0  0  0  0  0  0  0  0  0  0  0  0
    4.2957    1.3600    0.0000 H   0  0  0  0  0  0  0  0  0  0  0  0
    4.5080   -0.6575    0.0000 H   0  0  0  0  0  0  0  0  0  0  0  0
    3.5814   -0.1225    0.0000 H   0  0  0  0  0  0  0  0  0  0  0  0
    6.8636   -0.9475    0.0000 H   0  0  0  0  0  0  0  0  0  0  0  0
    5.9369   -1.4825    0.0000 H   0  0  0  0  0  0  0  0  0  0  0  0
    3.7935    1.8950    0.0000 H   0  0  0  0  0  0  0  0  0  0  0  0
    2.8668    1.3600    0.0000 H   0  0  0  0  0  0  0  0  0  0  0  0
    3.0792   -0.6575    0.0000 H   0  0  0  0  0  0  0  0  0  0  0  0
    2.1525   -0.1226    0.0000 H   0  0  0  0  0  0  0  0  0  0  0  0
    4.2958   -0.2900    0.0000 H   0  0  0  0  0  0  0  0  0  0  0  0
    4.2957   -1.3600    0.0000 H   0  0  0  0  0  0  0  0  0  0  0  0
    2.3645    1.8950    0.0000 H   0  0  0  0  0  0  0  0  0  0  0  0
    1.4378    1.3600    0.0000 H   0  0  0  0  0  0  0  0  0  0  0  0
    4.2958   -2.1850    0.0000 H   0  0  0  0  0  0  0  0  0  0  0  0
    6.1490   -2.1850    0.0000 H   0  0  0  0  0  0  0  0  0  0  0  0
    5.2224   -2.7200    0.0000 H   0  0  0  0  0  0  0  0  0  0  0  0
    0.7234    0.9475    0.0000 H   0  0  0  0  0  0  0  0  0  0  0  0
    1.6500   -0.6575    0.0000 H   0  0  0  0  0  0  0  0  0  0  0  0
    0.7233   -0.1225    0.0000 H   0  0  0  0  0  0  0  0  0  0  0  0
  1 10  1  0  0  0  0
  1 14  1  0  0  0  0
  2 10  2  0  0  0  0
  3  4  1  0  0  0  0
  3  6  1  0  0  0  0
  3 10  1  0  0  0  0
  3 15  1  1  0  0  0
  4  5  1  0  0  0  0
  4 16  1  0  0  0  0
  4 17  1  0  0  0  0
  5  7  1  0  0  0  0
  5 18  1  0  0  0  0
  5 19  1  0  0  0  0
  6  9  1  0  0  0  0
  6 20  1  0  0  0  0
  6 21  1  0  0  0  0
  7  8  1  0  0  0  0
  7 22  1  0  0  0  0
  7 23  1  0  0  0  0
  8 11  1  0  0  0  0
  8 24  1  0  0  0  0
  8 25  1  0  0  0  0
  9 12  1  0  0  0  0
  9 26  1  0  0  0  0
  9 27  1  0  0  0  0
 11 13  1  0  0  0  0
 11 28  1  0  0  0  0
 11 29  1  0  0  0  0
 12 30  1  0  0  0  0
 12 31  1  0  0  0  0
 12 32  1  0  0  0  0
 13 33  1  0  0  0  0
 13 34  1  0  0  0  0
 13 35  1  0  0  0  0
M  END
>  <DRUGBANK_ID>
DB05343

>  <SECONDARY_ACCESSION_NUMBERS>
DB11887

>  <COMMON_NAME>
Arundic acid

>  <CAS_NUMBER>
185517-21-9

>  <UNII>
F2628ZD0FO

>  <SYNONYMS>
(2R)-2-propyloctanoic acid; Arundic acid

$$$$
