
 OpenBabel10282417072D

 36 37  0  0  0  0  0  0  0  0999 V2000
   -4.7584    4.7840    0.0000 N   0  0  0  0  0  0  0  0  0  0  0  0
   -4.7311    3.9595    0.0000 C   0  0  0  0  0  0  0  0  0  0  0  0
   -4.0033    3.5709    0.0000 N   0  0  0  0  0  0  0  0  0  0  0  0
   -3.9760    2.7463    0.0000 C   0  0  0  0  0  0  0  0  0  0  0  0
   -4.6764    2.3104    0.0000 C   0  0  0  0  0  0  0  0  0  0  0  0
   -4.4783    1.5096    0.0000 N   0  0  0  0  0  0  0  0  0  0  0  0
   -3.6554    1.4505    0.0000 C   0  0  0  0  0  0  0  0  0  0  0  0
   -3.3450    2.2149    0.0000 N   0  0  0  0  0  0  0  0  0  0  0  0
   -2.5441    2.4131    0.0000 C   0  0  0  0  0  0  0  0  0  0  0  0
   -1.9721    1.8186    0.0000 C   0  0  0  0  0  0  0  0  0  0  0  0
   -1.1713    2.0168    0.0000 C   0  0  0  0  0  0  0  0  0  0  0  0
   -0.5992    1.4223    0.0000 C   0  0  0  0  0  0  0  0  0  0  0  0
    0.2016    1.6204    0.0000 C   0  0  0  0  0  0  0  0  0  0  0  0
    0.3998    0.8196    0.0000 F   0  0  0  0  0  0  0  0  0  0  0  0
    0.0035    2.4213    0.0000 F   0  0  0  0  0  0  0  0  0  0  0  0
    1.0025    1.8186    0.0000 P   0  0  0  0  0  0  0  0  0  0  0  0
    1.8033    2.0168    0.0000 O   0  0  0  0  0  0  0  0  0  0  0  0
    1.2006    1.0178    0.0000 O   0  0  0  0  0  0  0  0  0  0  0  0
    0.8043    2.6194    0.0000 O   0  0  0  0  0  0  0  0  0  0  0  0
   -5.4042    2.6990    0.0000 C   0  0  0  0  0  0  0  0  0  0  0  0
   -6.1046    2.2631    0.0000 O   0  0  0  0  0  0  0  0  0  0  0  0
   -5.4315    3.5236    0.0000 N   0  0  0  0  0  0  0  0  0  0  0  0
   -3.9226    5.3042    0.0000 H   0  0  0  0  0  0  0  0  0  0  0  0
   -5.6268    5.2478    0.0000 H   0  0  0  0  0  0  0  0  0  0  0  0
   -3.1101    0.5743    0.0000 H   0  0  0  0  0  0  0  0  0  0  0  0
   -2.2473    3.4411    0.0000 H   0  0  0  0  0  0  0  0  0  0  0  0
   -1.5054    2.6701    0.0000 H   0  0  0  0  0  0  0  0  0  0  0  0
   -2.2689    0.7906    0.0000 H   0  0  0  0  0  0  0  0  0  0  0  0
   -1.2302    1.0476    0.0000 H   0  0  0  0  0  0  0  0  0  0  0  0
   -0.8746    3.0448    0.0000 H   0  0  0  0  0  0  0  0  0  0  0  0
   -0.1326    2.2739    0.0000 H   0  0  0  0  0  0  0  0  0  0  0  0
   -0.8960    0.3943    0.0000 H   0  0  0  0  0  0  0  0  0  0  0  0
    0.1427    0.6513    0.0000 H   0  0  0  0  0  0  0  0  0  0  0  0
    2.4759    1.3179    0.0000 H   0  0  0  0  0  0  0  0  0  0  0  0
    0.5016    0.3453    0.0000 H   0  0  0  0  0  0  0  0  0  0  0  0
   -6.2999    3.9874    0.0000 H   0  0  0  0  0  0  0  0  0  0  0  0
  1  2  1  0  0  0  0
  1 23  1  0  0  0  0
  1 24  1  0  0  0  0
  2  3  2  0  0  0  0
  2 22  1  0  0  0  0
  3  4  1  0  0  0  0
  4  5  2  0  0  0  0
  4  8  1  0  0  0  0
  5  6  1  0  0  0  0
  5 20  1  0  0  0  0
  6  7  2  0  0  0  0
  7  8  1  0  0  0  0
  7 25  1  0  0  0  0
  8  9  1  0  0  0  0
  9 10  1  0  0  0  0
  9 26  1  0  0  0  0
  9 27  1  0  0  0  0
 10 11  1  0  0  0  0
 10 28  1  0  0  0  0
 10 29  1  0  0  0  0
 11 12  1  0  0  0  0
 11 30  1  0  0  0  0
 11 31  1  0  0  0  0
 12 13  1  0  0  0  0
 12 32  1  0  0  0  0
 12 33  1  0  0  0  0
 13 14  1  0  0  0  0
 13 15  1  0  0  0  0
 13 16  1  0  0  0  0
 16 17  1  0  0  0  0
 16 18  1  0  0  0  0
 16 19  2  0  0  0  0
 17 34  1  0  0  0  0
 18 35  1  0  0  0  0
 20 21  2  0  0  0  0
 20 22  1  0  0  0  0
 22 36  1  0  0  0  0
M  END
>  <DRUGBANK_ID>
DB04260

>  <SECONDARY_ACCESSION_NUMBERS>
EXPT01684

>  <COMMON_NAME>
9-(5,5-Difluoro-5-Phosphonopentyl)Guanine

$$$$
