4MU
 OpenBabel10282417072D

 21 22  0  0  0  0  0  0  0  0999 V2000
   -0.7173   -0.8540    0.0000 C   0  0  0  0  0  0  0  0  0  0  0  0
   -1.4317   -0.4415    0.0000 C   0  0  0  0  0  0  0  0  0  0  0  0
   -1.4317    0.3835    0.0000 C   0  0  0  0  0  0  0  0  0  0  0  0
    1.4262    0.3835    0.0000 C   0  0  0  0  0  0  0  0  0  0  0  0
    1.4262   -0.4415    0.0000 C   0  0  0  0  0  0  0  0  0  0  0  0
    0.7117   -0.8540    0.0000 C   0  0  0  0  0  0  0  0  0  0  0  0
    2.1406    0.7960    0.0000 O   0  0  0  0  0  0  0  0  0  0  0  0
    0.7117    0.7960    0.0000 O   0  0  0  0  0  0  0  0  0  0  0  0
    0.7117   -1.6790    0.0000 C   0  0  0  0  0  0  0  0  0  0  0  0
   -0.0028   -0.4415    0.0000 C   0  0  0  0  0  0  0  0  0  0  0  0
   -0.0028    0.3835    0.0000 C   0  0  0  0  0  0  0  0  0  0  0  0
   -0.7173    0.7960    0.0000 C   0  0  0  0  0  0  0  0  0  0  0  0
   -2.1462    0.7960    0.0000 O   0  0  0  0  0  0  0  0  0  0  0  0
   -0.7173   -1.8860    0.0000 H   0  0  0  0  0  0  0  0  0  0  0  0
   -2.3254   -0.9575    0.0000 H   0  0  0  0  0  0  0  0  0  0  0  0
    2.3199   -0.9575    0.0000 H   0  0  0  0  0  0  0  0  0  0  0  0
   -0.2149   -2.2140    0.0000 H   0  0  0  0  0  0  0  0  0  0  0  0
    1.6383   -2.2140    0.0000 H   0  0  0  0  0  0  0  0  0  0  0  0
    0.7117   -2.7490    0.0000 H   0  0  0  0  0  0  0  0  0  0  0  0
   -0.7173    1.8280    0.0000 H   0  0  0  0  0  0  0  0  0  0  0  0
   -2.1462    1.7330    0.0000 H   0  0  0  0  0  0  0  0  0  0  0  0
  1  2  2  0  0  0  0
  1 10  1  0  0  0  0
  1 14  1  0  0  0  0
  2  3  1  0  0  0  0
  2 15  1  0  0  0  0
  3 12  2  0  0  0  0
  3 13  1  0  0  0  0
  4  5  1  0  0  0  0
  4  7  2  0  0  0  0
  4  8  1  0  0  0  0
  5  6  2  0  0  0  0
  5 16  1  0  0  0  0
  6  9  1  0  0  0  0
  6 10  1  0  0  0  0
  8 11  1  0  0  0  0
  9 17  1  0  0  0  0
  9 18  1  0  0  0  0
  9 19  1  0  0  0  0
 10 11  2  0  0  0  0
 11 12  1  0  0  0  0
 12 20  1  0  0  0  0
 13 21  1  0  0  0  0
M  END
>  <DRUGBANK_ID>
DB07118

>  <COMMON_NAME>
Hymecromone

>  <CAS_NUMBER>
90-33-5

>  <UNII>
3T5NG4Q468

>  <SYNONYMS>
4-methylumbelliferone; himecromona; Hymecromone

$$$$
