
 OpenBabel10282417072D

 36 37  0  0  0  0  0  0  0  0999 V2000
    1.0716    0.4124    0.0000 N   0  0  0  0  0  0  0  0  0  0  0  0
    1.7860    1.6499    0.0000 N   0  0  0  0  0  0  0  0  0  0  0  0
    1.7860    0.8249    0.0000 C   0  0  0  0  0  0  0  0  0  0  0  0
    0.3571    1.6499    0.0000 C   0  0  0  0  0  0  0  0  0  0  0  0
    0.3571    0.8249    0.0000 C   0  0  0  0  0  0  0  0  0  0  0  0
    1.0716    2.0623    0.0000 C   0  0  0  0  0  0  0  0  0  0  0  0
    2.5005    0.4124    0.0000 O   0  0  0  0  0  0  0  0  0  0  0  0
    1.0716    2.8873    0.0000 O   0  0  0  0  0  0  0  0  0  0  0  0
   -0.3572    2.0623    0.0000 C   0  0  0  0  0  0  0  0  0  0  0  0
   -1.0716    1.6499    0.0000 C   0  0  0  0  0  0  0  0  0  0  0  0
   -1.0716    0.8249    0.0000 C   0  0  0  0  0  0  0  0  0  0  0  0
   -1.7860    2.0623    0.0000 C   0  0  0  0  0  0  0  0  0  0  0  0
   -1.7860    0.4124    0.0000 C   0  0  0  0  0  0  0  0  0  0  0  0
   -2.5005    1.6499    0.0000 C   0  0  0  0  0  0  0  0  0  0  0  0
   -2.5005    0.8249    0.0000 C   0  0  0  0  0  0  0  0  0  0  0  0
    1.0716   -0.4124    0.0000 C   0  0  0  0  0  0  0  0  0  0  0  0
    0.3571   -0.8249    0.0000 O   0  0  0  0  0  0  0  0  0  0  0  0
    0.3571   -1.6499    0.0000 C   0  0  0  0  0  0  0  0  0  0  0  0
   -0.3572   -2.0623    0.0000 C   0  0  0  0  0  0  0  0  0  0  0  0
   -0.3572   -2.8873    0.0000 O   0  0  0  0  0  0  0  0  0  0  0  0
    2.6386    2.1422    0.0000 H   0  0  0  0  0  0  0  0  0  0  0  0
   -0.5366    0.3089    0.0000 H   0  0  0  0  0  0  0  0  0  0  0  0
   -0.3572    3.1323    0.0000 H   0  0  0  0  0  0  0  0  0  0  0  0
   -1.2838    2.5973    0.0000 H   0  0  0  0  0  0  0  0  0  0  0  0
   -0.1779    0.3089    0.0000 H   0  0  0  0  0  0  0  0  0  0  0  0
   -1.7860    3.0943    0.0000 H   0  0  0  0  0  0  0  0  0  0  0  0
   -1.7860   -0.6196    0.0000 H   0  0  0  0  0  0  0  0  0  0  0  0
   -3.3942    2.1660    0.0000 H   0  0  0  0  0  0  0  0  0  0  0  0
   -3.3942    0.3089    0.0000 H   0  0  0  0  0  0  0  0  0  0  0  0
    1.9982   -0.9474    0.0000 H   0  0  0  0  0  0  0  0  0  0  0  0
    1.0716   -1.4824    0.0000 H   0  0  0  0  0  0  0  0  0  0  0  0
    1.2837   -2.1849    0.0000 H   0  0  0  0  0  0  0  0  0  0  0  0
    0.3571   -2.7199    0.0000 H   0  0  0  0  0  0  0  0  0  0  0  0
   -1.2838   -1.5273    0.0000 H   0  0  0  0  0  0  0  0  0  0  0  0
   -1.2838   -2.5973    0.0000 H   0  0  0  0  0  0  0  0  0  0  0  0
   -1.1972   -3.3723    0.0000 H   0  0  0  0  0  0  0  0  0  0  0  0
  2 21  1  0  0  0  0
  3  1  1  0  0  0  0
  3  2  1  0  0  0  0
  5  1  1  0  0  0  0
  5  4  2  0  0  0  0
  5 22  1  0  0  0  0
  6  2  1  0  0  0  0
  6  4  1  0  0  0  0
  7  3  2  0  0  0  0
  8  6  2  0  0  0  0
  9  4  1  0  0  0  0
  9 23  1  0  0  0  0
  9 24  1  0  0  0  0
 10  9  1  0  0  0  0
 11 10  2  0  0  0  0
 11 25  1  0  0  0  0
 12 10  1  0  0  0  0
 12 26  1  0  0  0  0
 13 11  1  0  0  0  0
 13 27  1  0  0  0  0
 14 12  2  0  0  0  0
 14 28  1  0  0  0  0
 15 13  2  0  0  0  0
 15 14  1  0  0  0  0
 15 29  1  0  0  0  0
 16  1  1  0  0  0  0
 16 30  1  0  0  0  0
 16 31  1  0  0  0  0
 17 16  1  0  0  0  0
 18 17  1  0  0  0  0
 18 32  1  0  0  0  0
 18 33  1  0  0  0  0
 19 18  1  0  0  0  0
 19 34  1  0  0  0  0
 19 35  1  0  0  0  0
 20 19  1  0  0  0  0
 20 36  1  0  0  0  0
M  END
>  <DRUGBANK_ID>
DB07437

>  <COMMON_NAME>
5-Benzylacyclouridine

>  <CAS_NUMBER>
82857-69-0

>  <UNII>
0H851I3O9D

>  <SYNONYMS>
5-Bacu; 5-benzyl-1-(2-hydroxyethoxymethyl)uracil

$$$$
