
 OpenBabel10282417072D

 53 56  0  0  0  0  0  0  0  0999 V2000
    3.1057    4.1271    0.0000 C   0  0  0  0  0  0  0  0  0  0  0  0
    2.4241    4.5919    0.0000 C   0  0  0  0  0  0  0  0  0  0  0  0
    1.7424    5.0566    0.0000 C   0  0  0  0  0  0  0  0  0  0  0  0
    1.9594    3.9102    0.0000 C   0  0  0  0  0  0  0  0  0  0  0  0
    2.3173    3.1669    0.0000 N   0  0  0  0  0  0  0  0  0  0  0  0
    3.1400    3.1053    0.0000 C   0  0  0  0  0  0  0  0  0  0  0  0
    3.4980    2.3620    0.0000 C   0  0  0  0  0  0  0  0  0  0  0  0
    3.0332    1.6803    0.0000 N   0  0  0  0  0  0  0  0  0  0  0  0
    2.2105    1.7420    0.0000 C   0  0  0  0  0  0  0  0  0  0  0  0
    1.8526    2.4853    0.0000 C   0  0  0  0  0  0  0  0  0  0  0  0
    3.3912    0.9370    0.0000 C   0  0  0  0  0  0  0  0  0  0  0  0
    4.2162    0.9370    0.0000 N   0  0  0  0  0  0  0  0  0  0  0  0
    4.7305    0.2920    0.0000 C   0  0  0  0  0  0  0  0  0  0  0  0
    5.5189    0.5352    0.0000 C   0  0  0  0  0  0  0  0  0  0  0  0
    6.1237   -0.0260    0.0000 C   0  0  0  0  0  0  0  0  0  0  0  0
    5.9401   -0.8303    0.0000 C   0  0  0  0  0  0  0  0  0  0  0  0
    5.1517   -1.0735    0.0000 C   0  0  0  0  0  0  0  0  0  0  0  0
    4.5470   -0.5123    0.0000 C   0  0  0  0  0  0  0  0  0  0  0  0
    3.8037   -0.8703    0.0000 O   0  0  0  0  0  0  0  0  0  0  0  0
    3.0604   -0.5123    0.0000 C   0  0  0  0  0  0  0  0  0  0  0  0
    2.4556   -1.0735    0.0000 C   0  0  0  0  0  0  0  0  0  0  0  0
    1.6673   -0.8303    0.0000 C   0  0  0  0  0  0  0  0  0  0  0  0
    1.4837   -0.0260    0.0000 C   0  0  0  0  0  0  0  0  0  0  0  0
    2.0884    0.5352    0.0000 C   0  0  0  0  0  0  0  0  0  0  0  0
    2.8768    0.2920    0.0000 C   0  0  0  0  0  0  0  0  0  0  0  0
    2.8888    5.2735    0.0000 C   0  0  0  0  0  0  0  0  0  0  0  0
    2.5309    6.0168    0.0000 O   0  0  0  0  0  0  0  0  0  0  0  0
    3.7115    5.2118    0.0000 O   0  0  0  0  0  0  0  0  0  0  0  0
    3.0256    3.0601    0.0000 H   0  0  0  0  0  0  0  0  0  0  0  0
    4.0698    4.5913    0.0000 H   0  0  0  0  0  0  0  0  0  0  0  0
    3.9897    3.5243    0.0000 H   0  0  0  0  0  0  0  0  0  0  0  0
    1.8223    6.1236    0.0000 H   0  0  0  0  0  0  0  0  0  0  0  0
    0.7784    4.5923    0.0000 H   0  0  0  0  0  0  0  0  0  0  0  0
    0.8583    5.6593    0.0000 H   0  0  0  0  0  0  0  0  0  0  0  0
    0.8924    3.9902    0.0000 H   0  0  0  0  0  0  0  0  0  0  0  0
    1.3566    3.0261    0.0000 H   0  0  0  0  0  0  0  0  0  0  0  0
    3.7427    3.9894    0.0000 H   0  0  0  0  0  0  0  0  0  0  0  0
    4.2070    3.0254    0.0000 H   0  0  0  0  0  0  0  0  0  0  0  0
    4.5650    2.2821    0.0000 H   0  0  0  0  0  0  0  0  0  0  0  0
    3.9622    1.3980    0.0000 H   0  0  0  0  0  0  0  0  0  0  0  0
    1.6077    0.8580    0.0000 H   0  0  0  0  0  0  0  0  0  0  0  0
    1.1435    1.8220    0.0000 H   0  0  0  0  0  0  0  0  0  0  0  0
    0.7856    2.5653    0.0000 H   0  0  0  0  0  0  0  0  0  0  0  0
    1.3884    3.4493    0.0000 H   0  0  0  0  0  0  0  0  0  0  0  0
    5.7485    1.5413    0.0000 H   0  0  0  0  0  0  0  0  0  0  0  0
    7.1099    0.2782    0.0000 H   0  0  0  0  0  0  0  0  0  0  0  0
    6.6966   -1.5322    0.0000 H   0  0  0  0  0  0  0  0  0  0  0  0
    4.9220   -2.0796    0.0000 H   0  0  0  0  0  0  0  0  0  0  0  0
    2.6852   -2.0796    0.0000 H   0  0  0  0  0  0  0  0  0  0  0  0
    0.9108   -1.5322    0.0000 H   0  0  0  0  0  0  0  0  0  0  0  0
    0.4975    0.2781    0.0000 H   0  0  0  0  0  0  0  0  0  0  0  0
    1.8587    1.5413    0.0000 H   0  0  0  0  0  0  0  0  0  0  0  0
    3.0588    6.7910    0.0000 H   0  0  0  0  0  0  0  0  0  0  0  0
  1  2  1  0  0  0  0
  1 29  1  0  0  0  0
  1 30  1  0  0  0  0
  1 31  1  0  0  0  0
  2  3  1  0  0  0  0
  2  4  1  0  0  0  0
  2 26  1  0  0  0  0
  3 32  1  0  0  0  0
  3 33  1  0  0  0  0
  3 34  1  0  0  0  0
  4  5  1  0  0  0  0
  4 35  1  0  0  0  0
  4 36  1  0  0  0  0
  5  6  1  0  0  0  0
  5 10  1  0  0  0  0
  6  7  1  0  0  0  0
  6 37  1  0  0  0  0
  6 38  1  0  0  0  0
  7  8  1  0  0  0  0
  7 39  1  0  0  0  0
  7 40  1  0  0  0  0
  8  9  1  0  0  0  0
  8 11  1  0  0  0  0
  9 10  1  0  0  0  0
  9 41  1  0  0  0  0
  9 42  1  0  0  0  0
 10 43  1  0  0  0  0
 10 44  1  0  0  0  0
 11 12  2  0  0  0  0
 11 25  1  0  0  0  0
 12 13  1  0  0  0  0
 13 14  2  0  0  0  0
 13 18  1  0  0  0  0
 14 15  1  0  0  0  0
 14 45  1  0  0  0  0
 15 16  2  0  0  0  0
 15 46  1  0  0  0  0
 16 17  1  0  0  0  0
 16 47  1  0  0  0  0
 17 18  2  0  0  0  0
 17 48  1  0  0  0  0
 18 19  1  0  0  0  0
 19 20  1  0  0  0  0
 20 21  2  0  0  0  0
 20 25  1  0  0  0  0
 21 22  1  0  0  0  0
 21 49  1  0  0  0  0
 22 23  2  0  0  0  0
 22 50  1  0  0  0  0
 23 24  1  0  0  0  0
 23 51  1  0  0  0  0
 24 25  2  0  0  0  0
 24 52  1  0  0  0  0
 26 27  1  0  0  0  0
 26 28  2  0  0  0  0
 27 53  1  0  0  0  0
M  END
>  <DRUGBANK_ID>
DB15092

>  <COMMON_NAME>
LY-2624803

>  <CAS_NUMBER>
879409-35-5

>  <UNII>
63J9EQ81YC

$$$$
