
 OpenBabel10282417072D

 94 96  0  0  1  0  0  0  0  0999 V2000
   24.8627   -1.5312    0.0000 C   0  0  2  0  0  0  0  0  0  0  0  0
   24.1953   -1.0463    0.0000 O   0  0  0  0  0  0  0  0  0  0  0  0
   24.6078   -2.3158    0.0000 C   0  0  1  0  0  0  0  0  0  0  0  0
   23.5278   -1.5312    0.0000 C   0  0  1  0  0  0  0  0  0  0  0  0
   23.7828   -2.3158    0.0000 C   0  0  1  0  0  0  0  0  0  0  0  0
   25.0927   -2.9833    0.0000 O   0  0  0  0  0  0  0  0  0  0  0  0
   18.1170   -5.5722    0.0000 C   0  0  0  0  0  0  0  0  0  0  0  0
   18.8598   -5.9847    0.0000 C   0  0  0  0  0  0  0  0  0  0  0  0
   17.4025   -5.9847    0.0000 N   0  0  0  0  0  0  0  0  0  0  0  0
   16.6881   -5.5722    0.0000 C   0  0  0  0  0  0  0  0  0  0  0  0
   15.9736   -5.9847    0.0000 O   0  0  0  0  0  0  0  0  0  0  0  0
   17.4309   -4.3347    0.0000 C   0  0  0  0  0  0  0  0  0  0  0  0
   16.6881   -4.7472    0.0000 C   0  0  0  0  0  0  0  0  0  0  0  0
   17.4309   -3.5097    0.0000 N   0  0  0  0  0  0  0  0  0  0  0  0
   16.0020   -3.5097    0.0000 O   0  0  0  0  0  0  0  0  0  0  0  0
   16.7164   -3.0971    0.0000 C   0  0  0  0  0  0  0  0  0  0  0  0
   18.1454   -2.2721    0.0000 C   0  0  0  0  0  0  0  0  0  0  0  0
   17.0184   -1.1452    0.0000 C   0  0  0  0  0  0  0  0  0  0  0  0
   17.4309   -1.8596    0.0000 C   0  0  0  0  0  0  0  0  0  0  0  0
   17.8434   -1.1452    0.0000 C   0  0  0  0  0  0  0  0  0  0  0  0
   16.7164   -2.2721    0.0000 C   0  0  1  0  0  0  0  0  0  0  0  0
   16.0019   -1.8596    0.0000 O   0  0  0  0  0  0  0  0  0  0  0  0
   18.8598   -1.8596    0.0000 O   0  0  0  0  0  0  0  0  0  0  0  0
   20.5098   -1.8596    0.0000 O   0  0  0  0  0  0  0  0  0  0  0  0
   22.1598   -1.8596    0.0000 O   0  0  0  0  0  0  0  0  0  0  0  0
   19.6848   -1.0346    0.0000 O   0  0  0  0  0  0  0  0  0  0  0  0
   19.6848   -2.6846    0.0000 O   0  0  0  0  0  0  0  0  0  0  0  0
   21.3348   -1.0346    0.0000 O   0  0  0  0  0  0  0  0  0  0  0  0
   21.3348   -2.6846    0.0000 O   0  0  0  0  0  0  0  0  0  0  0  0
   19.6848   -1.8596    0.0000 P   0  0  3  0  0  0  0  0  0  0  0  0
   21.3348   -1.8596    0.0000 P   0  0  3  0  0  0  0  0  0  0  0  0
   22.7432   -1.2763    0.0000 C   0  0  0  0  0  0  0  0  0  0  0  0
   23.2978   -2.9833    0.0000 O   0  0  0  0  0  0  0  0  0  0  0  0
   22.4728   -3.8083    0.0000 O   0  0  0  0  0  0  0  0  0  0  0  0
   24.1228   -3.8083    0.0000 O   0  0  0  0  0  0  0  0  0  0  0  0
   23.2978   -3.8083    0.0000 P   0  0  0  0  0  0  0  0  0  0  0  0
   23.2978   -4.6333    0.0000 O   0  0  0  0  0  0  0  0  0  0  0  0
   25.6473   -1.2763    0.0000 N   0  0  0  0  0  0  0  0  0  0  0  0
   26.2605   -1.8283    0.0000 C   0  0  0  0  0  0  0  0  0  0  0  0
   25.9829   -0.5226    0.0000 C   0  0  0  0  0  0  0  0  0  0  0  0
   26.9749   -1.4158    0.0000 C   0  0  0  0  0  0  0  0  0  0  0  0
   26.2605   -2.6533    0.0000 N   0  0  0  0  0  0  0  0  0  0  0  0
   26.8034   -0.6088    0.0000 N   0  0  0  0  0  0  0  0  0  0  0  0
   27.6894   -1.8282    0.0000 C   0  0  0  0  0  0  0  0  0  0  0  0
   26.9750   -3.0657    0.0000 C   0  0  0  0  0  0  0  0  0  0  0  0
   27.6894   -2.6532    0.0000 N   0  0  0  0  0  0  0  0  0  0  0  0
   28.4038   -1.4157    0.0000 N   0  0  0  0  0  0  0  0  0  0  0  0
   19.5743   -5.5722    0.0000 S   0  0  0  0  0  0  0  0  0  0  0  0
   21.0033   -5.5722    0.0000 C   0  0  0  0  0  0  0  0  0  0  0  0
   22.4322   -5.5722    0.0000 C   0  0  0  0  0  0  0  0  0  0  0  0
   20.2888   -5.9847    0.0000 C   0  0  0  0  0  0  0  0  0  0  0  0
   20.2888   -6.8097    0.0000 O   0  0  0  0  0  0  0  0  0  0  0  0
   21.7177   -5.9847    0.0000 C   0  0  0  0  0  0  0  0  0  0  0  0
   21.7177   -6.8097    0.0000 O   0  0  0  0  0  0  0  0  0  0  0  0
   25.0301   -0.4744    0.0000 H   0  0  0  0  0  0  0  0  0  0  0  0
   25.6646   -2.1484    0.0000 H   0  0  0  0  0  0  0  0  0  0  0  0
   23.3604   -0.4744    0.0000 H   0  0  0  0  0  0  0  0  0  0  0  0
   24.2686   -3.2692    0.0000 H   0  0  0  0  0  0  0  0  0  0  0  0
   24.6981   -3.8694    0.0000 H   0  0  0  0  0  0  0  0  0  0  0  0
   18.1081   -4.5022    0.0000 H   0  0  0  0  0  0  0  0  0  0  0  0
   19.0369   -5.0257    0.0000 H   0  0  0  0  0  0  0  0  0  0  0  0
   18.8687   -7.0547    0.0000 H   0  0  0  0  0  0  0  0  0  0  0  0
   19.7887   -6.5158    0.0000 H   0  0  0  0  0  0  0  0  0  0  0  0
   17.4025   -6.9692    0.0000 H   0  0  0  0  0  0  0  0  0  0  0  0
   18.3531   -4.8774    0.0000 H   0  0  0  0  0  0  0  0  0  0  0  0
   17.4175   -5.4046    0.0000 H   0  0  0  0  0  0  0  0  0  0  0  0
   15.7659   -4.2045    0.0000 H   0  0  0  0  0  0  0  0  0  0  0  0
   16.7015   -3.6773    0.0000 H   0  0  0  0  0  0  0  0  0  0  0  0
   18.2835   -3.0175    0.0000 H   0  0  0  0  0  0  0  0  0  0  0  0
   18.1454   -3.3421    0.0000 H   0  0  0  0  0  0  0  0  0  0  0  0
   19.0721   -2.8071    0.0000 H   0  0  0  0  0  0  0  0  0  0  0  0
   17.5534   -0.2185    0.0000 H   0  0  0  0  0  0  0  0  0  0  0  0
   15.9484   -1.1452    0.0000 H   0  0  0  0  0  0  0  0  0  0  0  0
   16.4834   -0.2186    0.0000 H   0  0  0  0  0  0  0  0  0  0  0  0
   18.9134   -1.1452    0.0000 H   0  0  0  0  0  0  0  0  0  0  0  0
   17.3084   -0.2185    0.0000 H   0  0  0  0  0  0  0  0  0  0  0  0
   18.3784   -0.2186    0.0000 H   0  0  0  0  0  0  0  0  0  0  0  0
   15.7898   -2.8071    0.0000 H   0  0  0  0  0  0  0  0  0  0  0  0
   16.0019   -0.8896    0.0000 H   0  0  0  0  0  0  0  0  0  0  0  0
   18.8448   -3.1696    0.0000 H   0  0  0  0  0  0  0  0  0  0  0  0
   20.4948   -3.1696    0.0000 H   0  0  0  0  0  0  0  0  0  0  0  0
   22.4934   -0.2359    0.0000 H   0  0  0  0  0  0  0  0  0  0  0  0
   21.7134   -0.9858    0.0000 H   0  0  0  0  0  0  0  0  0  0  0  0
   21.9878   -2.9683    0.0000 H   0  0  0  0  0  0  0  0  0  0  0  0
   24.6078   -4.6483    0.0000 H   0  0  0  0  0  0  0  0  0  0  0  0
   25.4669    0.3711    0.0000 H   0  0  0  0  0  0  0  0  0  0  0  0
   26.9751   -4.0977    0.0000 H   0  0  0  0  0  0  0  0  0  0  0  0
   29.2564   -1.9079    0.0000 H   0  0  0  0  0  0  0  0  0  0  0  0
   28.4038   -0.4312    0.0000 H   0  0  0  0  0  0  0  0  0  0  0  0
   21.0033   -4.5022    0.0000 H   0  0  0  0  0  0  0  0  0  0  0  0
   21.9300   -5.0372    0.0000 H   0  0  0  0  0  0  0  0  0  0  0  0
   23.3588   -6.1072    0.0000 H   0  0  0  0  0  0  0  0  0  0  0  0
   22.4322   -4.5022    0.0000 H   0  0  0  0  0  0  0  0  0  0  0  0
   23.3589   -5.0372    0.0000 H   0  0  0  0  0  0  0  0  0  0  0  0
  1 38  1  0  0  0  0
  1 55  1  6  0  0  0
  2  1  1  0  0  0  0
  3  1  1  0  0  0  0
  3  6  1  0  0  0  0
  3 56  1  1  0  0  0
  4  2  1  0  0  0  0
  4 32  1  0  0  0  0
  4 57  1  6  0  0  0
  5  3  1  0  0  0  0
  5  4  1  0  0  0  0
  5 33  1  0  0  0  0
  5 58  1  1  0  0  0
  6 59  1  0  0  0  0
  7  8  1  0  0  0  0
  7 60  1  0  0  0  0
  7 61  1  0  0  0  0
  8 48  1  0  0  0  0
  8 62  1  0  0  0  0
  8 63  1  0  0  0  0
  9  7  1  0  0  0  0
  9 64  1  0  0  0  0
 10  9  1  0  0  0  0
 10 11  2  0  0  0  0
 12 14  1  0  0  0  0
 12 65  1  0  0  0  0
 12 66  1  0  0  0  0
 13 10  1  0  0  0  0
 13 12  1  0  0  0  0
 13 67  1  0  0  0  0
 13 68  1  0  0  0  0
 14 69  1  0  0  0  0
 16 14  1  0  0  0  0
 16 15  2  0  0  0  0
 16 21  1  0  0  0  0
 17 23  1  0  0  0  0
 17 70  1  0  0  0  0
 17 71  1  0  0  0  0
 18 72  1  0  0  0  0
 18 73  1  0  0  0  0
 18 74  1  0  0  0  0
 19 17  1  0  0  0  0
 19 18  1  0  0  0  0
 19 20  1  0  0  0  0
 20 75  1  0  0  0  0
 20 76  1  0  0  0  0
 20 77  1  0  0  0  0
 21 19  1  0  0  0  0
 21 22  1  0  0  0  0
 21 78  1  1  0  0  0
 22 79  1  0  0  0  0
 23 30  1  0  0  0  0
 24 31  1  0  0  0  0
 27 80  1  0  0  0  0
 29 81  1  0  0  0  0
 30 24  1  0  0  0  0
 30 26  2  0  0  0  0
 30 27  1  0  0  0  0
 31 25  1  0  0  0  0
 31 28  2  0  0  0  0
 31 29  1  0  0  0  0
 32 25  1  0  0  0  0
 32 82  1  0  0  0  0
 32 83  1  0  0  0  0
 33 36  1  0  0  0  0
 34 84  1  0  0  0  0
 35 85  1  0  0  0  0
 36 34  1  0  0  0  0
 36 35  1  0  0  0  0
 36 37  2  0  0  0  0
 39 38  1  0  0  0  0
 40 38  1  0  0  0  0
 40 86  1  0  0  0  0
 41 39  2  0  0  0  0
 42 39  1  0  0  0  0
 43 40  2  0  0  0  0
 43 41  1  0  0  0  0
 44 41  1  0  0  0  0
 45 42  2  0  0  0  0
 45 87  1  0  0  0  0
 46 44  2  0  0  0  0
 46 45  1  0  0  0  0
 47 44  1  0  0  0  0
 47 88  1  0  0  0  0
 47 89  1  0  0  0  0
 48 51  1  0  0  0  0
 49 53  1  0  0  0  0
 49 90  1  0  0  0  0
 49 91  1  0  0  0  0
 50 92  1  0  0  0  0
 50 93  1  0  0  0  0
 50 94  1  0  0  0  0
 51 49  1  0  0  0  0
 51 52  2  0  0  0  0
 53 50  1  0  0  0  0
 53 54  2  0  0  0  0
M  END
>  <DRUGBANK_ID>
DB03059

>  <SECONDARY_ACCESSION_NUMBERS>
EXPT00820

>  <COMMON_NAME>
Acetoacetyl-CoA

>  <CAS_NUMBER>
1420-36-6

>  <SYNONYMS>
3-Acetoacetyl-CoA; Acetoacetyl coenzyme A; Acetoacetyl-Coenzyme A; S-acetoacetyl-CoA; S-Acetoacetyl-coenzym A; S-acetoacetyl-coenzyme A

$$$$
