
 OpenBabel10282417072D

 77 78  0  0  0  0  0  0  0  0999 V2000
   -0.3585   -0.4952    0.0000 N   0  0  0  0  0  0  0  0  0  0  0  0
   -1.1850   -0.4952    0.0000 C   0  0  0  0  0  0  0  0  0  0  0  0
   -1.4011   -1.2942    0.0000 C   0  0  0  0  0  0  0  0  0  0  0  0
   -0.8194   -1.8807    0.0000 C   0  0  0  0  0  0  0  0  0  0  0  0
   -0.3585   -1.3241    0.0000 C   0  0  0  0  0  0  0  0  0  0  0  0
    0.3571   -1.7381    0.0000 C   0  0  0  0  0  0  0  0  0  0  0  0
    1.0791   -1.3235    0.0000 C   0  0  0  0  0  0  0  0  0  0  0  0
    1.0791   -0.4958    0.0000 N   0  0  0  0  0  0  0  0  0  0  0  0
    1.9111   -0.4958    0.0000 C   0  0  0  0  0  0  0  0  0  0  0  0
    2.3247    0.2236    0.0000 C   0  0  0  0  0  0  0  0  0  0  0  0
    1.9027    0.9344    0.0000 C   0  0  0  0  0  0  0  0  0  0  0  0
    1.0759    0.9344    0.0000 N   0  0  0  0  0  0  0  0  0  0  0  0
    1.0759    1.7628    0.0000 C   0  0  0  0  0  0  0  0  0  0  0  0
    0.3551    2.1727    0.0000 C   0  0  0  0  0  0  0  0  0  0  0  0
   -0.3572    1.7587    0.0000 C   0  0  0  0  0  0  0  0  0  0  0  0
   -0.3572    0.9305    0.0000 N   0  0  0  0  0  0  0  0  0  0  0  0
   -1.1901    0.9305    0.0000 C   0  0  0  0  0  0  0  0  0  0  0  0
   -1.5960    0.2157    0.0000 C   0  0  0  0  0  0  0  0  0  0  0  0
   -1.4057    1.7315    0.0000 C   0  0  0  0  0  0  0  0  0  0  0  0
   -2.2279    1.7315    0.0000 C   0  0  0  0  0  0  0  0  0  0  0  0
   -2.6416    1.0182    0.0000 C   0  0  0  0  0  0  0  0  0  0  0  0
   -0.8238    2.3179    0.0000 C   0  0  0  0  0  0  0  0  0  0  0  0
   -0.8238    3.1438    0.0000 C   0  0  0  0  0  0  0  0  0  0  0  0
    1.5251    2.3179    0.0000 C   0  0  0  0  0  0  0  0  0  0  0  0
    1.5251    3.1401    0.0000 C   0  0  0  0  0  0  0  0  0  0  0  0
    2.1109    1.7360    0.0000 C   0  0  0  0  0  0  0  0  0  0  0  0
    2.8247    2.1498    0.0000 C   0  0  0  0  0  0  0  0  0  0  0  0
    3.5378    1.7360    0.0000 C   0  0  0  0  0  0  0  0  0  0  0  0
    4.2560    2.1498    0.0000 C   0  0  0  0  0  0  0  0  0  0  0  0
    4.2560    2.9765    0.0000 O   0  0  0  0  0  0  0  0  0  0  0  0
    4.9718    1.7370    0.0000 O   0  5  0  0  0  0  0  0  0  0  0  0
    2.1201   -1.2897    0.0000 C   0  0  0  0  0  0  0  0  0  0  0  0
    2.8336   -0.8767    0.0000 C   0  0  0  0  0  0  0  0  0  0  0  0
    3.5468   -1.2851    0.0000 C   0  0  0  0  0  0  0  0  0  0  0  0
    4.2650   -0.8721    0.0000 C   0  0  0  0  0  0  0  0  0  0  0  0
    4.9782   -1.2851    0.0000 O   0  5  0  0  0  0  0  0  0  0  0  0
    4.2650   -0.0447    0.0000 O   0  0  0  0  0  0  0  0  0  0  0  0
    1.5342   -1.8715    0.0000 C   0  0  0  0  0  0  0  0  0  0  0  0
    1.5342   -2.6937    0.0000 C   0  0  0  0  0  0  0  0  0  0  0  0
   -0.8194   -2.7029    0.0000 C   0  0  0  0  0  0  0  0  0  0  0  0
   -1.4875   -3.1438    0.0000 C   0  0  0  0  0  0  0  0  0  0  0  0
   -2.2007   -1.4943    0.0000 C   0  0  0  0  0  0  0  0  0  0  0  0
    0.1676    0.0760    0.0000 Sn  0  0  0  0  0  0  0  0  0  0  0  0
   -4.9782   -0.6393    0.0000 Cl  0  5  0  0  0  0  0  0  0  0  0  0
   -4.9782   -0.6393    0.0000 Cl  0  5  0  0  0  0  0  0  0  0  0  0
    0.3554   -2.7701    0.0000 H   0  0  0  0  0  0  0  0  0  0  0  0
    0.3830    0.2003    0.0000 H   0  0  0  0  0  0  0  0  0  0  0  0
    3.3567    0.2308    0.0000 H   0  0  0  0  0  0  0  0  0  0  0  0
    0.3502    3.2047    0.0000 H   0  0  0  0  0  0  0  0  0  0  0  0
    0.3389    0.2344    0.0000 H   0  0  0  0  0  0  0  0  0  0  0  0
   -2.6280    0.2117    0.0000 H   0  0  0  0  0  0  0  0  0  0  0  0
   -2.7430    2.6257    0.0000 H   0  0  0  0  0  0  0  0  0  0  0  0
   -3.6736    1.0202    0.0000 H   0  0  0  0  0  0  0  0  0  0  0  0
   -2.1274    0.1234    0.0000 H   0  0  0  0  0  0  0  0  0  0  0  0
    0.1028    3.6788    0.0000 H   0  0  0  0  0  0  0  0  0  0  0  0
   -1.7504    3.6788    0.0000 H   0  0  0  0  0  0  0  0  0  0  0  0
   -0.8238    4.2138    0.0000 H   0  0  0  0  0  0  0  0  0  0  0  0
    2.4517    3.6751    0.0000 H   0  0  0  0  0  0  0  0  0  0  0  0
    0.5985    3.6751    0.0000 H   0  0  0  0  0  0  0  0  0  0  0  0
    1.5251    4.2101    0.0000 H   0  0  0  0  0  0  0  0  0  0  0  0
    2.8249    3.2198    0.0000 H   0  0  0  0  0  0  0  0  0  0  0  0
    3.7520    2.6837    0.0000 H   0  0  0  0  0  0  0  0  0  0  0  0
    3.5361    0.6660    0.0000 H   0  0  0  0  0  0  0  0  0  0  0  0
    4.4638    1.1999    0.0000 H   0  0  0  0  0  0  0  0  0  0  0  0
    2.8311    0.1933    0.0000 H   0  0  0  0  0  0  0  0  0  0  0  0
    3.7587   -0.3390    0.0000 H   0  0  0  0  0  0  0  0  0  0  0  0
    3.5478   -2.3551    0.0000 H   0  0  0  0  0  0  0  0  0  0  0  0
    4.4732   -1.8205    0.0000 H   0  0  0  0  0  0  0  0  0  0  0  0
    0.6076   -3.2287    0.0000 H   0  0  0  0  0  0  0  0  0  0  0  0
    2.4608   -3.2287    0.0000 H   0  0  0  0  0  0  0  0  0  0  0  0
    1.5342   -3.7637    0.0000 H   0  0  0  0  0  0  0  0  0  0  0  0
    0.0893   -3.1920    0.0000 H   0  0  0  0  0  0  0  0  0  0  0  0
   -2.4104   -2.6821    0.0000 H   0  0  0  0  0  0  0  0  0  0  0  0
   -1.4259   -4.1740    0.0000 H   0  0  0  0  0  0  0  0  0  0  0  0
   -2.9447   -0.7253    0.0000 H   0  0  0  0  0  0  0  0  0  0  0  0
   -2.4947   -2.5231    0.0000 H   0  0  0  0  0  0  0  0  0  0  0  0
   -3.2387   -1.7541    0.0000 H   0  0  0  0  0  0  0  0  0  0  0  0
  1  5  2  0  0  0  0
  2  3  1  0  0  0  0
  2  1  1  0  0  0  0
  3  4  2  0  0  0  0
  3 42  1  0  0  0  0
  4 40  1  0  0  0  0
  5  4  1  0  0  0  0
  5  6  1  0  0  0  0
  6  7  2  0  0  0  0
  6 46  1  0  0  0  0
  7  8  1  0  0  0  0
  7 38  1  0  0  0  0
  8  9  1  0  0  0  0
  8 47  1  0  0  0  0
  9 10  2  0  0  0  0
  9 32  1  0  0  0  0
 10 48  1  0  0  0  0
 11 10  1  0  0  0  0
 11 12  2  0  0  0  0
 11 26  1  0  0  0  0
 12 13  1  0  0  0  0
 13 14  2  0  0  0  0
 13 24  1  0  0  0  0
 14 15  1  0  0  0  0
 14 49  1  0  0  0  0
 15 16  1  0  0  0  0
 15 22  2  0  0  0  0
 16 17  1  0  0  0  0
 16 50  1  0  0  0  0
 17 18  1  0  0  0  0
 17 19  2  0  0  0  0
 18  2  2  0  0  0  0
 18 51  1  0  0  0  0
 19 20  1  0  0  0  0
 19 22  1  0  0  0  0
 20 21  2  0  0  0  0
 20 52  1  0  0  0  0
 21 53  1  0  0  0  0
 21 54  1  0  0  0  0
 22 23  1  0  0  0  0
 23 55  1  0  0  0  0
 23 56  1  0  0  0  0
 23 57  1  0  0  0  0
 24 25  1  0  0  0  0
 25 58  1  0  0  0  0
 25 59  1  0  0  0  0
 25 60  1  0  0  0  0
 26 24  2  0  0  0  0
 26 27  1  0  0  0  0
 27 28  1  0  0  0  0
 27 61  1  0  0  0  0
 27 62  1  0  0  0  0
 28 29  1  0  0  0  0
 28 63  1  0  0  0  0
 28 64  1  0  0  0  0
 29 30  2  0  0  0  0
 29 31  1  0  0  0  0
 32 33  1  0  0  0  0
 32 38  2  0  0  0  0
 33 34  1  0  0  0  0
 33 65  1  0  0  0  0
 33 66  1  0  0  0  0
 34 35  1  0  0  0  0
 34 67  1  0  0  0  0
 34 68  1  0  0  0  0
 35 36  1  0  0  0  0
 35 37  2  0  0  0  0
 38 39  1  0  0  0  0
 39 69  1  0  0  0  0
 39 70  1  0  0  0  0
 39 71  1  0  0  0  0
 40 41  2  0  0  0  0
 40 72  1  0  0  0  0
 41 73  1  0  0  0  0
 41 74  1  0  0  0  0
 42 75  1  0  0  0  0
 42 76  1  0  0  0  0
 42 77  1  0  0  0  0
M  CHG  5  31  -1  36  -1  43   4  44  -1  45  -1
M  END
>  <DRUGBANK_ID>
DB16449

>  <COMMON_NAME>
Tin protoporphyrin IX

>  <CAS_NUMBER>
14325-05-4

>  <UNII>
DIO3JT9G2P

>  <SYNONYMS>
Sn Protoporphyrin; Sn-heme; SnPP; SnPP Protoporphyrin; Tin protoporphyrin IX

$$$$
