
 OpenBabel10282417072D

 75 80  0  0  1  0  0  0  0  0999 V2000
   -1.6077   -4.3885    0.0000 C   0  0  0  0  0  0  0  0  0  0  0  0
   -1.6077   -5.2135    0.0000 C   0  0  0  0  0  0  0  0  0  0  0  0
   -2.3221   -5.6260    0.0000 C   0  0  0  0  0  0  0  0  0  0  0  0
   -3.0366   -5.2135    0.0000 C   0  0  0  0  0  0  0  0  0  0  0  0
   -3.0366   -4.3885    0.0000 C   0  0  0  0  0  0  0  0  0  0  0  0
   -2.3221   -3.9760    0.0000 C   0  0  0  0  0  0  0  0  0  0  0  0
   -3.7511   -3.9760    0.0000 F   0  0  0  0  0  0  0  0  0  0  0  0
   -2.3221   -6.4510    0.0000 C   0  0  0  0  0  0  0  0  0  0  0  0
   -1.6547   -6.9359    0.0000 C   0  0  0  0  0  0  0  0  0  0  0  0
   -1.9096   -7.7206    0.0000 N   0  0  0  0  0  0  0  0  0  0  0  0
   -2.7346   -7.7206    0.0000 N   0  0  0  0  0  0  0  0  0  0  0  0
   -2.9896   -6.9359    0.0000 N   0  0  0  0  0  0  0  0  0  0  0  0
   -1.4247   -8.3880    0.0000 C   0  0  1  0  0  0  0  0  0  0  0  0
   -0.6042   -8.3018    0.0000 C   0  0  2  0  0  0  0  0  0  0  0  0
   -0.1193   -8.9692    0.0000 C   0  0  2  0  0  0  0  0  0  0  0  0
   -0.4549   -9.7229    0.0000 O   0  0  0  0  0  0  0  0  0  0  0  0
   -1.2753   -9.8091    0.0000 C   0  0  2  0  0  0  0  0  0  0  0  0
   -1.7603   -9.1417    0.0000 C   0  0  2  0  0  0  0  0  0  0  0  0
   -2.5807   -9.2279    0.0000 O   0  0  0  0  0  0  0  0  0  0  0  0
   -1.6109  -10.5628    0.0000 S   0  0  0  0  0  0  0  0  0  0  0  0
   -2.4314  -10.6490    0.0000 C   0  0  1  0  0  0  0  0  0  0  0  0
   -2.7669  -11.4027    0.0000 C   0  0  1  0  0  0  0  0  0  0  0  0
   -3.5874  -11.4889    0.0000 C   0  0  2  0  0  0  0  0  0  0  0  0
   -4.0723  -10.8215    0.0000 C   0  0  2  0  0  0  0  0  0  0  0  0
   -3.7368  -10.0678    0.0000 C   0  0  2  0  0  0  0  0  0  0  0  0
   -2.9163   -9.9816    0.0000 O   0  0  0  0  0  0  0  0  0  0  0  0
   -4.2217   -9.4004    0.0000 C   0  0  0  0  0  0  0  0  0  0  0  0
   -3.8861   -8.6467    0.0000 O   0  0  0  0  0  0  0  0  0  0  0  0
   -4.8928  -10.9077    0.0000 O   0  0  0  0  0  0  0  0  0  0  0  0
   -3.9230  -12.2426    0.0000 N   0  0  0  0  0  0  0  0  0  0  0  0
   -3.5105  -12.9571    0.0000 C   0  0  0  0  0  0  0  0  0  0  0  0
   -4.0625  -13.5702    0.0000 C   0  0  0  0  0  0  0  0  0  0  0  0
   -4.8162  -13.2346    0.0000 N   0  0  0  0  0  0  0  0  0  0  0  0
   -4.7299  -12.4141    0.0000 N   0  0  0  0  0  0  0  0  0  0  0  0
   -3.8910  -14.3771    0.0000 C   0  0  0  0  0  0  0  0  0  0  0  0
   -3.1064  -14.6321    0.0000 C   0  0  0  0  0  0  0  0  0  0  0  0
   -2.9348  -15.4390    0.0000 C   0  0  0  0  0  0  0  0  0  0  0  0
   -3.5479  -15.9911    0.0000 C   0  0  0  0  0  0  0  0  0  0  0  0
   -4.3325  -15.7361    0.0000 C   0  0  0  0  0  0  0  0  0  0  0  0
   -4.5041  -14.9292    0.0000 C   0  0  0  0  0  0  0  0  0  0  0  0
   -4.9456  -16.2882    0.0000 F   0  0  0  0  0  0  0  0  0  0  0  0
   -2.2820  -12.0701    0.0000 O   0  0  0  0  0  0  0  0  0  0  0  0
    0.7012   -8.8830    0.0000 C   0  0  0  0  0  0  0  0  0  0  0  0
    1.1861   -9.5504    0.0000 O   0  0  0  0  0  0  0  0  0  0  0  0
   -0.2687   -7.5481    0.0000 O   0  0  0  0  0  0  0  0  0  0  0  0
   -0.7140   -3.8725    0.0000 H   0  0  0  0  0  0  0  0  0  0  0  0
   -0.7140   -5.7295    0.0000 H   0  0  0  0  0  0  0  0  0  0  0  0
   -3.9303   -5.7295    0.0000 H   0  0  0  0  0  0  0  0  0  0  0  0
   -2.3221   -2.9440    0.0000 H   0  0  0  0  0  0  0  0  0  0  0  0
   -0.6732   -6.6170    0.0000 H   0  0  0  0  0  0  0  0  0  0  0  0
   -0.9895   -7.4105    0.0000 H   0  0  0  0  0  0  0  0  0  0  0  0
   -1.2331   -7.4362    0.0000 H   0  0  0  0  0  0  0  0  0  0  0  0
    0.3159   -7.9917    0.0000 H   0  0  0  0  0  0  0  0  0  0  0  0
   -0.6464  -10.6748    0.0000 H   0  0  0  0  0  0  0  0  0  0  0  0
   -2.1955  -10.1192    0.0000 H   0  0  0  0  0  0  0  0  0  0  0  0
   -3.1508   -8.4431    0.0000 H   0  0  0  0  0  0  0  0  0  0  0  0
   -1.8025  -11.5146    0.0000 H   0  0  0  0  0  0  0  0  0  0  0  0
   -1.7028  -11.2908    0.0000 H   0  0  0  0  0  0  0  0  0  0  0  0
   -2.9585  -12.3546    0.0000 H   0  0  0  0  0  0  0  0  0  0  0  0
   -4.5075  -11.7990    0.0000 H   0  0  0  0  0  0  0  0  0  0  0  0
   -4.8009  -10.1797    0.0000 H   0  0  0  0  0  0  0  0  0  0  0  0
   -5.2858   -9.5122    0.0000 H   0  0  0  0  0  0  0  0  0  0  0  0
   -4.8506   -8.5347    0.0000 H   0  0  0  0  0  0  0  0  0  0  0  0
   -2.9214   -8.5453    0.0000 H   0  0  0  0  0  0  0  0  0  0  0  0
   -5.4629  -10.1229    0.0000 H   0  0  0  0  0  0  0  0  0  0  0  0
   -2.4842  -13.0650    0.0000 H   0  0  0  0  0  0  0  0  0  0  0  0
   -2.3395  -13.9415    0.0000 H   0  0  0  0  0  0  0  0  0  0  0  0
   -1.9533  -15.7578    0.0000 H   0  0  0  0  0  0  0  0  0  0  0  0
   -3.3333  -17.0006    0.0000 H   0  0  0  0  0  0  0  0  0  0  0  0
   -5.4856  -14.6104    0.0000 H   0  0  0  0  0  0  0  0  0  0  0  0
   -2.6765  -12.9562    0.0000 H   0  0  0  0  0  0  0  0  0  0  0  0
    1.1364   -7.9055    0.0000 H   0  0  0  0  0  0  0  0  0  0  0  0
    1.7653   -8.7712    0.0000 H   0  0  0  0  0  0  0  0  0  0  0  0
    0.7916  -10.4365    0.0000 H   0  0  0  0  0  0  0  0  0  0  0  0
    0.6960   -7.4466    0.0000 H   0  0  0  0  0  0  0  0  0  0  0  0
  1  2  2  0  0  0  0
  1  6  1  0  0  0  0
  1 46  1  0  0  0  0
  2  3  1  0  0  0  0
  2 47  1  0  0  0  0
  3  4  2  0  0  0  0
  3  8  1  0  0  0  0
  4  5  1  0  0  0  0
  4 48  1  0  0  0  0
  5  6  2  0  0  0  0
  5  7  1  0  0  0  0
  6 49  1  0  0  0  0
  8  9  2  0  0  0  0
  8 12  1  0  0  0  0
  9 10  1  0  0  0  0
  9 50  1  0  0  0  0
 10 11  1  0  0  0  0
 11 12  2  0  0  0  0
 13 10  1  0  0  0  0
 13 14  1  0  0  0  0
 13 18  1  0  0  0  0
 13 51  1  6  0  0  0
 14 15  1  0  0  0  0
 14 45  1  0  0  0  0
 14 52  1  6  0  0  0
 15 16  1  0  0  0  0
 15 43  1  0  0  0  0
 15 53  1  6  0  0  0
 16 17  1  0  0  0  0
 17 18  1  0  0  0  0
 17 20  1  0  0  0  0
 17 54  1  6  0  0  0
 18 19  1  0  0  0  0
 18 55  1  1  0  0  0
 19 56  1  0  0  0  0
 21 20  1  0  0  0  0
 21 22  1  0  0  0  0
 21 26  1  0  0  0  0
 21 57  1  6  0  0  0
 22 23  1  0  0  0  0
 22 42  1  0  0  0  0
 22 58  1  1  0  0  0
 23 24  1  0  0  0  0
 23 30  1  0  0  0  0
 23 59  1  6  0  0  0
 24 25  1  0  0  0  0
 24 29  1  0  0  0  0
 24 60  1  6  0  0  0
 25 26  1  0  0  0  0
 25 27  1  0  0  0  0
 25 61  1  6  0  0  0
 27 28  1  0  0  0  0
 27 62  1  0  0  0  0
 27 63  1  0  0  0  0
 28 64  1  0  0  0  0
 29 65  1  0  0  0  0
 30 31  1  0  0  0  0
 30 34  1  0  0  0  0
 31 32  2  0  0  0  0
 31 66  1  0  0  0  0
 32 33  1  0  0  0  0
 32 35  1  0  0  0  0
 33 34  2  0  0  0  0
 35 36  2  0  0  0  0
 35 40  1  0  0  0  0
 36 37  1  0  0  0  0
 36 67  1  0  0  0  0
 37 38  2  0  0  0  0
 37 68  1  0  0  0  0
 38 39  1  0  0  0  0
 38 69  1  0  0  0  0
 39 40  2  0  0  0  0
 39 41  1  0  0  0  0
 40 70  1  0  0  0  0
 42 71  1  0  0  0  0
 43 44  1  0  0  0  0
 43 72  1  0  0  0  0
 43 73  1  0  0  0  0
 44 74  1  0  0  0  0
 45 75  1  0  0  0  0
M  END
>  <DRUGBANK_ID>
DB12895

>  <COMMON_NAME>
Olitigaltin

>  <CAS_NUMBER>
1450824-22-2

>  <UNII>
60Y0GUO72B

>  <SYNONYMS>
Bis-(3-deoxy-3-(4-(3-fluorophenyl)-1H-1,2,3-triazol-1-yl)-B-D-galactopyranosyl) sulfane

$$$$
